data_functionalizedCrystal
_audit_creation_method	'MofGen! by Chris Wilmer'
_symmetry_space_group_name_H-M	'P1'
_symmetry_Int_Tables_number	1
_symmetry_cell_setting	triclinic
loop_
_symmetry_equiv_pos_as_xyz
  x,y,z
_cell_length_a	17.038272
_cell_length_b	14.853567
_cell_length_c	16.098538
_cell_angle_alpha	87.275308
_cell_angle_beta	92.930266
_cell_angle_gamma	87.373244
loop_
_atom_site_label
_atom_site_type_symbol
_atom_site_fract_x
_atom_site_fract_y
_atom_site_fract_z
O1	O	1.041116	0.192033	0.069158
O2	O	0.813482	0.188923	0.069183
O3	O	0.933379	0.059707	0.069160
O4	O	0.921219	0.321250	0.069181
O5	O	0.926375	0.067223	-0.069352
O6	O	0.806478	0.196440	-0.069329
O7	O	1.034112	0.199550	-0.069353
Zn8	Zn	0.919183	0.199188	-0.091333
Zn9	Zn	0.928411	0.189285	0.091162
O10	O	0.914215	0.328766	-0.069331
C11	C	0.780848	0.189854	-0.000070
C12	C	0.694045	0.181417	-0.000061
C13	C	0.644033	0.258870	-0.000056
C14	C	0.562471	0.250939	-0.000068
C15	C	0.530924	0.165553	-0.000080
C16	C	0.580942	0.088095	-0.000088
C17	C	0.662502	0.096027	-0.000081
C18	C	0.285128	0.137529	-0.000104
C19	C	0.203562	0.129603	-0.000108
C20	C	0.185096	0.292447	-0.000090
C21	C	0.266659	0.300372	-0.000078
C22	C	0.316670	0.222914	-0.000091
C23	C	0.447555	0.157444	-0.000089
C24	C	0.400036	0.231024	-0.000087
C25	C	0.929326	0.029835	-0.000096
C26	C	0.927675	-0.070373	-0.000098
C27	C	1.066746	0.198619	-0.000099
C28	C	1.153550	0.207055	-0.000102
C29	C	0.918268	0.358638	-0.000073
C30	C	0.919920	0.458846	-0.000065
N31	N	0.912891	0.205947	-0.215881
C32	C	0.998120	0.877266	-0.000104
C33	C	0.855679	0.887827	-0.000088
C34	C	0.854127	0.793676	-0.000079
C35	C	0.924572	0.741316	-0.000085
C36	C	0.996570	0.783107	-0.000098
C37	C	0.782131	0.751879	-0.000075
C38	C	0.780575	0.657723	-0.000067
C39	C	0.851022	0.605360	-0.000067
C40	C	0.923022	0.647156	-0.000079
C41	C	0.993467	0.594796	-0.000084
C42	C	1.065469	0.636590	-0.000091
C43	C	1.067016	0.730744	-0.000097
C44	C	0.849475	0.511206	-0.000060
C45	C	0.991917	0.500636	-0.000078
C46	C	0.963799	0.151124	-0.259476
C47	C	0.959404	0.155861	-0.346664
C48	C	0.904106	0.215426	-0.390256
C49	C	0.853193	0.270251	-0.346655
C50	C	0.857584	0.265508	-0.259468
C51	C	0.888187	0.232602	-0.653503
C52	C	0.883802	0.237342	-0.740695
C53	C	0.990013	0.122951	-0.740698
C54	C	0.994402	0.118218	-0.653510
C55	C	0.943487	0.173039	-0.609917
C56	C	0.899614	0.220272	-0.479376
C57	C	0.947975	0.168188	-0.520798
N58	N	0.934709	0.182519	0.215710
H59	H	0.521754	0.314009	-0.000063
H60	H	0.325837	0.074457	-0.000115
H61	H	0.724778	0.794518	-0.000074
C62	C	1.126328	0.487563	-0.000092
C63	C	1.142901	0.579029	-0.000095
H64	H	1.174131	0.452027	-0.000089
H65	H	1.094375	0.476930	-0.048389
H66	H	1.099249	0.471700	0.048215
H67	H	1.169976	0.594894	-0.048405
H68	H	1.174867	0.589667	0.048208
C69	C	0.575169	-0.057012	0.071100
C70	C	0.546268	-0.005764	-0.000099
H71	H	0.553766	-0.114959	0.071091
H72	H	0.560440	-0.027479	0.119395
H73	H	0.630900	-0.063365	0.071091
H74	H	0.490537	0.000594	-0.000087
H75	H	0.560992	-0.035304	-0.048406
C76	C	0.756131	0.271508	-0.161436
C77	C	0.801625	0.325772	-0.211547
H78	H	0.721579	0.308714	-0.131857
H79	H	0.789692	0.235364	-0.123002
H80	H	0.726257	0.233655	-0.195470
H81	H	0.831503	0.363621	-0.177512
H82	H	0.768059	0.361932	-0.249986
H83	H	0.790852	0.477182	-0.000067
H84	H	0.703222	0.032956	-0.000085
H85	H	0.721948	0.623702	-0.000060
H86	H	1.008832	0.102624	-0.223989
H87	H	1.056742	0.911299	-0.000106
H88	H	0.177880	0.060068	-0.000116
C89	C	1.132635	0.870386	-0.000130
C90	C	1.146154	0.776687	-0.000116
H91	H	1.181491	0.898750	-0.000149
H92	H	1.106077	0.885370	0.048173
H93	H	1.101178	0.890585	-0.048431
H94	H	1.177606	0.756487	0.048189
H95	H	1.172724	0.761696	-0.048424
H96	H	0.798326	0.930465	-0.000088
C97	C	0.862011	0.364076	-0.838716
C98	C	0.823008	0.302819	-0.788608
H99	H	0.824481	0.404501	-0.868289
H100	H	0.891696	0.332108	-0.877156
H101	H	0.896298	0.397174	-0.804681
H102	H	0.788725	0.269716	-0.822644
H103	H	0.793309	0.334791	-0.750164
C104	C	1.098939	0.005613	-0.662274
C105	C	1.055184	0.052737	-0.605596
H106	H	1.136461	-0.034814	-0.632692
H107	H	1.125391	0.047168	-0.696266
H108	H	1.064638	-0.027485	-0.696293
H109	H	1.089485	0.085840	-0.571581
H110	H	1.028731	0.011176	-0.571590
C111	C	1.001908	0.006890	-0.838761
C112	C	1.045968	0.062684	-0.788619
H113	H	1.036453	-0.030323	-0.868341
H114	H	0.968355	0.043046	-0.877195
H115	H	0.971042	-0.029904	-0.804748
H116	H	1.076830	0.099483	-0.822632
H117	H	1.079534	0.026525	-0.750180
H118	H	1.000857	0.111220	-0.382158
H119	H	0.846731	0.277241	-0.618016
C120	C	0.484628	0.330534	0.071142
C121	C	0.434709	0.324880	-0.000068
H122	H	0.506033	0.388479	0.071157
H123	H	0.526080	0.285543	0.071128
H124	H	0.455620	0.321428	0.119434
H125	H	0.463718	0.333979	-0.048361
H126	H	0.393251	0.369884	-0.000063
H127	H	0.808163	0.318746	-0.382152
C128	C	0.969709	0.041436	-0.422809
C129	C	1.008741	0.102679	-0.472902
H130	H	1.007222	0.000989	-0.393238
H131	H	0.935411	0.008369	-0.456847
H132	H	0.940033	0.073418	-0.384360
H133	H	1.038413	0.070698	-0.511356
H134	H	1.043053	0.135749	-0.438861
C135	C	0.728619	0.358401	0.071172
C136	C	0.678703	0.352730	-0.000038
H137	H	0.750016	0.416351	0.071182
H138	H	0.770077	0.313417	0.071164
H139	H	0.699611	0.349295	0.119464
H140	H	0.707713	0.361830	-0.048331
H141	H	0.637240	0.397727	-0.000038
H142	H	0.854590	0.268772	-0.514876
H143	H	0.292339	0.369901	-0.000059
H144	H	1.049284	0.458010	-0.000077
H145	H	0.144369	0.355509	-0.000081
H146	H	0.421859	0.087924	-0.000122
