data_functionalizedCrystal
_audit_creation_method	'MofGen! by Chris Wilmer'
_symmetry_space_group_name_H-M	'P1'
_symmetry_Int_Tables_number	1
_symmetry_cell_setting	triclinic
loop_
_symmetry_equiv_pos_as_xyz
  x,y,z
_cell_length_a	15.995343
_cell_length_b	15.995292
_cell_length_c	15.186229
_cell_angle_alpha	89.999448
_cell_angle_beta	90.000963
_cell_angle_gamma	83.478900
loop_
_atom_site_label
_atom_site_type_symbol
_atom_site_fract_x
_atom_site_fract_y
_atom_site_fract_z
O1	O	1.110966	0.107897	-0.073134
O2	O	1.610966	0.607897	0.426866
O3	O	0.867187	0.121232	-0.073154
O4	O	1.367187	0.621232	0.426846
O5	O	0.995766	-0.007326	-0.073145
O6	O	1.495766	0.492674	0.426855
O7	O	0.982387	0.236456	-0.073143
O8	O	1.482387	0.736456	0.426857
O9	O	0.995757	-0.007328	0.073312
O10	O	1.495757	0.492672	0.573312
O11	O	0.867178	0.121230	0.073303
O12	O	1.367178	0.621230	0.573303
O13	O	1.110957	0.107896	0.073323
O14	O	1.610957	0.607896	0.573323
Zn15	Zn	0.989066	0.114563	0.096566
Zn16	Zn	1.489066	0.614563	0.596566
Zn17	Zn	0.989078	0.114565	-0.096397
Zn18	Zn	1.489078	0.614565	0.403603
O19	O	0.982379	0.236454	0.073314
O20	O	1.482379	0.736454	0.573314
C21	C	0.835988	0.120681	0.000072
C22	C	1.335988	0.620681	0.500072
C23	C	0.743037	0.119032	0.000064
C24	C	1.243037	0.619032	0.500064
C25	C	0.995217	-0.038523	0.000082
C26	C	1.495217	0.461477	0.500082
C27	C	0.993584	-0.131476	0.000075
C28	C	1.493584	0.368524	0.500075
C29	C	0.572852	0.116038	0.000075
C30	C	1.072852	0.616038	0.500075
C31	C	0.549525	0.023238	0.000075
C32	C	1.049525	0.523238	0.500075
C33	C	0.452848	0.021493	0.000412
C34	C	0.952848	0.521493	0.500412
C35	C	0.405292	0.113089	0.000086
C36	C	0.905292	0.613089	0.500086
C37	C	0.434369	0.159750	0.083554
C38	C	0.934369	0.659750	0.583554
C39	C	0.531162	0.160850	0.083619
C40	C	1.031162	0.660850	0.583619
C41	C	0.531082	0.162211	-0.082936
C42	C	1.031082	0.662211	0.417064
C43	C	0.434587	0.158785	-0.084028
C44	C	0.934587	0.658785	0.415972
C45	C	0.310595	0.111428	0.000095
C46	C	0.810595	0.611428	0.500095
C47	C	0.667549	0.117702	0.000072
C48	C	1.167549	0.617702	0.500072
C49	C	0.987583	-0.469214	0.000082
C50	C	1.487583	0.030786	0.500082
C51	C	1.080388	-0.445904	0.000417
C52	C	1.580388	0.054096	0.500417
C53	C	1.082152	-0.349229	0.000084
C54	C	1.582152	0.150771	0.500084
C55	C	0.990561	-0.301658	0.000079
C56	C	1.490561	0.198342	0.500079
C57	C	0.944168	-0.330757	-0.083556
C58	C	1.444168	0.169243	0.416444
C59	C	0.943051	-0.427547	-0.083623
C60	C	1.443051	0.072453	0.416377
C61	C	0.941146	-0.427407	0.082926
C62	C	1.441146	0.072593	0.582926
C63	C	0.944585	-0.330914	0.084028
C64	C	1.444585	0.169086	0.584028
C65	C	0.992239	-0.206962	0.000074
C66	C	1.492239	0.293038	0.500074
C67	C	0.985902	-0.563910	0.000081
C68	C	1.485902	-0.063910	0.500081
C69	C	1.142156	0.108447	0.000095
C70	C	1.642156	0.608447	0.500095
C71	C	1.235107	0.110096	0.000098
C72	C	1.735107	0.610096	0.500098
C73	C	0.982927	0.267650	0.000086
C74	C	1.482927	0.767650	0.500086
C75	C	0.984560	0.360603	0.000087
C76	C	1.484560	0.860603	0.500087
N77	N	0.989065	0.114560	0.228259
N78	N	1.489065	0.614560	0.728259
N79	N	0.989086	0.114560	-0.228090
N80	N	1.489086	0.614560	0.271910
C81	C	1.046019	0.057654	0.453986
C82	C	1.546019	0.557654	0.953986
C83	C	1.046021	0.057652	0.546176
C84	C	1.546021	0.557652	1.046176
C85	C	0.932126	0.171470	0.546177
C86	C	1.432126	0.671470	1.046177
C87	C	0.932120	0.171467	0.453989
C88	C	1.432120	0.671467	0.953989
C89	C	0.989071	0.114560	0.407896
C90	C	1.489071	0.614560	0.907896
C91	C	0.989080	0.114561	0.592273
C92	C	1.489080	0.614561	1.092273
C93	C	0.989082	0.114559	0.692229
C94	C	1.489082	0.614559	1.192229
C95	C	0.989068	0.114561	0.307933
C96	C	1.489068	0.614561	0.807933
H97	H	0.433840	-0.015033	-0.059409
H98	H	0.933840	0.484967	0.440591
H99	H	0.876769	-0.298887	-0.086669
H100	H	1.376769	0.201113	0.413331
H101	H	1.092392	0.011313	0.583700
H102	H	1.592392	0.511313	1.083700
H103	H	0.875006	-0.442096	-0.087416
H104	H	1.375006	0.057904	0.412584
H105	H	0.976392	-0.310697	-0.145793
H106	H	1.476392	0.189303	0.354207
H107	H	0.557950	0.128912	0.146250
H108	H	1.057950	0.628912	0.646250
H109	H	0.577544	-0.012730	-0.059772
H110	H	1.077544	0.487270	0.440228
H111	H	0.885759	0.217803	0.583714
H112	H	1.385759	0.717803	1.083714
H113	H	0.885742	0.217807	0.416459
H114	H	1.385742	0.717807	0.916459
H115	H	1.118707	-0.330825	-0.059968
H116	H	1.618707	0.169175	0.440032
H117	H	0.970368	-0.455497	0.146321
H118	H	1.470368	0.044503	0.646321
H119	H	0.545721	0.228902	0.087189
H120	H	1.045721	0.728902	0.587189
H121	H	1.118486	-0.330206	0.060036
H122	H	1.618486	0.169794	0.560036
H123	H	0.414281	0.127733	0.145907
H124	H	0.914281	0.627733	0.645907
H125	H	0.872835	-0.441395	0.083485
H126	H	1.372835	0.058605	0.583485
H127	H	0.402509	0.227162	0.086424
H128	H	0.902509	0.727162	0.586424
H129	H	0.578514	-0.012146	0.059841
H130	H	1.078514	0.487854	0.559841
H131	H	0.416041	0.124805	-0.145779
H132	H	0.916041	0.624805	0.354221
H133	H	0.434415	-0.014863	0.060595
H134	H	0.934415	0.485137	0.560595
H135	H	0.545081	0.230517	-0.083740
H136	H	1.045081	0.730517	0.416260
H137	H	1.115964	-0.474922	-0.059219
H138	H	1.615964	0.025078	0.440781
H139	H	0.978366	-0.312350	0.145901
H140	H	1.478366	0.187650	0.645901
H141	H	1.092391	0.011316	0.416460
H142	H	1.592391	0.511316	0.916460
H143	H	0.559361	0.132933	-0.146222
H144	H	1.059361	0.632933	0.353778
H145	H	0.877733	-0.297943	0.089075
H146	H	1.377733	0.202057	0.589075
H147	H	0.401617	0.225620	-0.089326
H148	H	0.901617	0.725620	0.410674
H149	H	0.975188	-0.454364	-0.146139
H150	H	1.475188	0.045636	0.353861
H151	H	1.116156	-0.473903	0.060396
H152	H	1.616156	0.026097	0.560396
