data_functionalizedCrystal
_audit_creation_method	'MofGen! by Chris Wilmer'
_symmetry_space_group_name_H-M	'P1'
_symmetry_Int_Tables_number	1
_symmetry_cell_setting	triclinic
loop_
_symmetry_equiv_pos_as_xyz
  x,y,z
_cell_length_a	14.908571
_cell_length_b	17.077402
_cell_length_c	17.077396
_cell_angle_alpha	90.029784
_cell_angle_beta	86.687753
_cell_angle_gamma	93.281066
loop_
_atom_site_label
_atom_site_type_symbol
_atom_site_fract_x
_atom_site_fract_y
_atom_site_fract_z
Zn1	Zn	1.379199	0.381864	-0.512958
Zn2	Zn	1.879199	0.881864	-0.012958
Zn3	Zn	1.379092	0.513133	-0.381683
Zn4	Zn	1.879092	1.013133	0.118317
Zn5	Zn	1.228335	0.374304	-0.374145
Zn6	Zn	1.728335	0.874304	0.125855
Zn7	Zn	1.228298	0.505503	-0.505349
Zn8	Zn	1.728298	1.005503	-0.005349
O9	O	1.303731	0.443701	-0.443534
O10	O	1.803731	0.943701	0.056466
O11	O	1.505430	0.405634	-0.501883
O12	O	2.005430	0.905634	-0.001883
O13	O	1.359065	0.494747	-0.270835
O14	O	1.859065	0.994747	0.229165
O15	O	1.248408	0.265463	-0.392587
O16	O	1.748408	0.765463	0.107413
O17	O	1.505352	0.502077	-0.405436
O18	O	2.005352	1.002077	0.094564
O19	O	1.359247	0.271017	-0.494573
O20	O	1.859247	0.771017	0.005427
O21	O	1.248304	0.392750	-0.265296
O22	O	1.748304	0.892750	0.234704
O23	O	1.102086	0.385351	-0.385210
O24	O	1.602086	0.885351	0.114790
O25	O	1.248345	0.489073	-0.616207
O26	O	1.748345	0.989073	-0.116207
O27	O	1.102058	0.481742	-0.481606
O28	O	1.602058	0.981742	0.018394
O29	O	1.359211	0.398235	-0.621797
O30	O	1.859211	0.898235	-0.121797
O31	O	1.359029	0.621965	-0.398059
O32	O	1.859029	1.121965	0.101941
O33	O	1.248242	0.616359	-0.488916
O34	O	1.748242	1.116359	0.011084
C35	C	1.069338	0.431899	-0.431765
C36	C	1.569338	0.931899	0.068235
C37	C	0.969064	0.426869	-0.426749
C38	C	1.469064	0.926869	0.073251
C39	C	1.303644	0.647645	-0.443498
C40	C	1.803644	1.147645	0.056502
C41	C	1.303690	0.734897	-0.443513
C42	C	1.803690	1.234897	0.056487
C43	C	1.303786	0.443646	-0.648281
C44	C	1.803786	0.943646	-0.148281
C45	C	1.303809	0.443623	-0.735532
C46	C	1.803809	0.943623	-0.235532
C47	C	0.780657	0.517945	-0.517565
C48	C	1.280657	1.017945	-0.017565
C49	C	0.686441	0.513221	-0.512854
C50	C	1.186441	1.013221	-0.012854
C51	C	0.686411	0.412695	-0.412622
C52	C	1.186411	0.912695	0.087378
C53	C	0.780628	0.417418	-0.417332
C54	C	1.280628	0.917418	0.082668
C55	C	0.827748	0.470046	-0.469805
C56	C	1.327748	0.970046	0.030195
C57	C	0.921966	0.474773	-0.474511
C58	C	1.421966	0.974773	0.025489
C59	C	0.921936	0.374243	-0.374283
C60	C	1.421936	0.874243	0.125717
C61	C	0.827719	0.369519	-0.369572
C62	C	1.327719	0.869519	0.130428
C63	C	1.539040	0.455550	-0.455349
C64	C	2.039040	0.955550	0.044651
C65	C	1.639314	0.460599	-0.460384
C66	C	2.139314	0.960599	0.039616
C67	C	1.303843	0.238962	-0.443588
C68	C	1.803843	0.738962	0.056412
C69	C	1.303891	0.151715	-0.443611
C70	C	1.803891	0.651715	0.056389
C71	C	1.361436	0.778783	-0.396261
C72	C	1.861436	1.278783	0.103739
C73	C	1.361480	0.860765	-0.396283
C74	C	1.861480	1.360765	0.103717
C75	C	1.303773	0.898860	-0.443554
C76	C	1.803773	1.398860	0.056446
C77	C	1.246024	0.854968	-0.490812
C78	C	1.746024	1.354968	0.009188
C79	C	1.245985	0.772987	-0.490793
C80	C	1.745985	1.272987	0.009207
C81	C	1.246108	1.025843	-0.490846
C82	C	1.746108	1.525843	0.009154
C83	C	1.246145	1.107829	-0.490863
C84	C	1.746145	1.607829	0.009137
C85	C	1.361602	1.113620	-0.396336
C86	C	1.861602	1.613620	0.103664
C87	C	1.361563	1.031639	-0.396317
C88	C	1.861563	1.531639	0.103683
C89	C	1.303813	0.987753	-0.443574
C90	C	1.803813	1.487753	0.056426
C91	C	1.361539	0.396319	-0.779434
C92	C	1.861539	0.896319	-0.279434
C93	C	1.361550	0.396294	-0.861415
C94	C	1.861550	0.896294	-0.361415
C95	C	1.303835	0.443576	-0.899493
C96	C	1.803835	0.943576	-0.399493
C97	C	1.246098	0.490881	-0.855584
C98	C	1.746098	0.990881	-0.355584
C99	C	1.246084	0.490902	-0.773605
C100	C	1.746084	0.990902	-0.273605
C101	C	1.246135	0.490836	-1.026456
C102	C	1.746135	0.990836	-0.526456
C103	C	1.246150	0.490816	-1.108442
C104	C	1.746150	0.990816	-0.608442
C105	C	1.361601	0.396228	-1.114267
C106	C	1.861601	0.896228	-0.614267
C107	C	1.361586	0.396248	-1.032287
C108	C	1.861586	0.896248	-0.532287
C109	C	1.303851	0.443555	-0.988384
C110	C	1.803851	0.943555	-0.488384
C111	C	1.303729	0.443702	-0.239586
C112	C	1.803729	0.943702	0.260414
C113	C	1.303880	0.443513	-0.152344
C114	C	1.803880	0.943513	0.347656
H115	H	0.960330	0.517627	-0.517235
H116	H	1.460330	1.017627	-0.017235
N117	N	1.183777	0.896055	-0.541791
N118	N	1.683777	1.396055	-0.041791
H119	H	1.147189	0.855811	-0.571724
H120	H	1.647189	1.355811	-0.071724
H121	H	1.220488	0.931865	-0.579994
H122	H	1.720488	1.431865	-0.079994
N123	N	0.972716	0.322562	-0.322772
N124	N	1.472716	0.822562	0.177228
H125	H	0.956282	0.333857	-0.265843
H126	H	1.456282	0.833857	0.234157
H127	H	1.039538	0.333555	-0.333778
H128	H	1.539538	0.833555	0.166222
H129	H	1.199102	0.529376	-0.886594
H130	H	1.699102	1.029376	-0.386594
H131	H	1.198964	0.737256	-0.529272
H132	H	1.698964	1.237256	-0.029272
H133	H	1.199151	0.529316	-1.139442
H134	H	1.699151	1.029316	-0.639442
N135	N	1.183810	0.541913	-0.726249
N136	N	1.683810	1.041913	-0.226249
H137	H	1.147248	0.571863	-0.762809
H138	H	1.647248	1.071863	-0.262809
H139	H	1.220498	0.580099	-0.694066
H140	H	1.720498	1.080099	-0.194066
H141	H	0.648030	0.369843	-0.369907
H142	H	1.148030	0.869843	0.130093
N143	N	0.635648	0.564885	-0.564365
N144	N	1.135648	1.064885	-0.064365
H145	H	0.679798	0.598939	-0.598317
H146	H	1.179798	1.098939	-0.098317
H147	H	0.596532	0.599211	-0.530391
H148	H	1.096532	1.099211	-0.030391
H149	H	1.408541	0.357819	-0.748437
H150	H	1.908541	0.857819	-0.248437
H151	H	0.789341	0.326669	-0.326853
H152	H	1.289341	0.826669	0.173147
H153	H	0.819023	0.560801	-0.560285
H154	H	1.319023	1.060801	-0.060285
H155	H	1.199106	0.529345	-0.990713
H156	H	1.699106	1.029345	-0.490713
N157	N	1.423842	0.345259	-0.991215
N158	N	1.923842	0.845259	-0.491215
H159	H	1.460418	0.315287	-1.031465
H160	H	1.960418	0.815287	-0.531465
H161	H	1.387133	0.307094	-0.955363
H162	H	1.887133	0.807094	-0.455363
H163	H	1.408562	0.357777	-0.897157
H164	H	1.908562	0.857777	-0.397157
H165	H	1.408548	1.000623	-0.357821
H166	H	1.908548	1.500623	0.142179
N167	N	1.423875	0.345195	-1.161602
N168	N	1.923875	0.845195	-0.661602
H169	H	1.465672	0.379187	-1.197712
H170	H	1.965672	0.879187	-0.697712
H171	H	1.387179	0.306964	-1.193730
H172	H	1.887179	0.806964	-0.693730
N173	N	1.423675	0.737697	-0.345272
N174	N	1.923675	1.237697	0.154728
H175	H	1.460265	0.777942	-0.315344
H176	H	1.960265	1.277942	0.184656
H177	H	1.465386	0.705729	-0.379343
H178	H	1.965386	1.205729	0.120657
H179	H	1.408502	0.896494	-0.357805
H180	H	1.908502	1.396494	0.142195
N181	N	1.183907	1.148918	-0.541850
N182	N	1.683907	1.648918	-0.041850
H183	H	1.197883	1.135309	-0.598645
H184	H	1.697883	1.635309	-0.098645
H185	H	1.192724	1.207498	-0.534620
H186	H	1.692724	1.707498	-0.034620
H187	H	1.199084	0.990113	-0.529330
H188	H	1.699084	1.490113	-0.029330
N189	N	1.423891	1.160949	-0.345364
N190	N	1.923891	1.660949	0.154636
H191	H	1.415165	1.218664	-0.352550
H192	H	1.915165	1.718664	0.147450
H193	H	1.488307	1.149801	-0.360855
H194	H	1.988307	1.649801	0.139145
