data_functionalizedCrystal
_audit_creation_method	'MofGen! by Chris Wilmer'
_symmetry_space_group_name_H-M	'P1'
_symmetry_Int_Tables_number	1
_symmetry_cell_setting	triclinic
loop_
_symmetry_equiv_pos_as_xyz
  x,y,z
_cell_length_a	10.540539
_cell_length_b	16.992694
_cell_length_c	15.455425
_cell_angle_alpha	87.179027
_cell_angle_beta	92.960545
_cell_angle_gamma	92.403143
loop_
_atom_site_label
_atom_site_type_symbol
_atom_site_fract_x
_atom_site_fract_y
_atom_site_fract_z
O1	O	0.274550	-1.044988	0.072014
O2	O	0.774550	-0.544988	0.572014
O3	O	0.271597	-0.816687	0.072040
O4	O	0.771597	-0.316687	0.572040
O5	O	0.088819	-0.936046	0.072025
O6	O	0.588819	-0.436046	0.572025
O7	O	0.457328	-0.925629	0.072029
O8	O	0.957328	-0.425629	0.572029
O9	O	0.078314	-0.929849	-0.072234
O10	O	0.578314	-0.429849	0.427766
O11	O	0.261093	-0.810490	-0.072219
O12	O	0.761093	-0.310490	0.427781
O13	O	0.264045	-1.038790	-0.072245
O14	O	0.764045	-0.538790	0.427755
Cu15	Cu	0.261610	-0.924074	-0.085404
Cu16	Cu	0.761610	-0.424074	0.414596
Cu17	Cu	0.274032	-0.931404	0.085199
Cu18	Cu	0.774032	-0.431404	0.585199
O19	O	0.446824	-0.919432	-0.072231
O20	O	0.946824	-0.419432	0.427769
C21	C	0.262544	-0.784355	-0.000086
C22	C	0.762544	-0.284355	0.499914
C23	C	0.251204	-0.697248	-0.000077
C24	C	0.751204	-0.197248	0.499923
C25	C	0.036196	-0.932166	-0.000103
C26	C	0.536196	-0.432166	0.499897
C27	C	-0.104955	-0.929829	-0.000098
C28	C	0.395045	-0.429829	0.499902
N29	N	0.252872	-0.918925	-0.205397
N30	N	0.752872	-0.418925	0.294603
C31	C	-0.296129	-0.840283	0.000236
C32	C	0.203871	-0.340283	0.500236
C33	C	-0.149329	-0.842638	-0.000089
C34	C	0.350671	-0.342638	0.499911
C35	C	-0.168970	-0.968250	-0.082481
C36	C	0.331030	-0.468250	0.417519
C37	C	-0.315778	-0.965271	-0.082551
C38	C	0.184222	-0.465271	0.417449
C39	C	-0.304197	-0.974093	0.081499
C40	C	0.195803	-0.474093	0.581499
C41	C	-0.157066	-0.974942	0.082588
C42	C	0.342934	-0.474942	0.582588
C43	C	0.499447	-0.923312	-0.000101
C44	C	0.999447	-0.423312	0.499899
C45	C	0.640597	-0.925649	-0.000100
C46	C	1.140597	-0.425649	0.499900
C47	C	0.273098	-1.071123	-0.000117
C48	C	0.773098	-0.571123	0.499883
C49	C	0.284438	-1.158230	-0.000121
C50	C	0.784438	-0.658230	0.499879
C51	C	0.360624	-0.647620	-0.000076
C52	C	0.860624	-0.147620	0.499924
C53	C	0.349960	-0.565773	-0.000088
C54	C	0.849960	-0.065773	0.499912
C55	C	0.229876	-0.533556	-0.000094
C56	C	0.729876	-0.033556	0.499906
C57	C	0.120447	-0.583190	-0.000097
C58	C	0.620447	-0.083190	0.499903
C59	C	0.131112	-0.665035	-0.000092
C60	C	0.631112	-0.165035	0.499908
C61	C	0.185675	-0.289709	-0.000118
C62	C	0.685675	0.210291	0.499882
C63	C	0.175018	-0.207858	-0.000121
C64	C	0.675018	0.292142	0.499879
C65	C	0.404533	-0.190447	-0.000114
C66	C	0.904533	0.309553	0.499886
C67	C	0.415187	-0.272295	-0.000103
C68	C	0.915187	0.227705	0.499897
C69	C	0.305758	-0.321921	-0.000110
C70	C	0.805758	0.178079	0.499890
N71	N	0.218973	-0.449895	-0.000104
N72	N	0.718973	0.050105	0.499896
N73	N	0.316662	-0.405580	-0.000107
N74	N	0.816662	0.094420	0.499893
C75	C	0.204186	-0.890496	-0.749392
C76	C	0.704186	-0.390496	-0.249392
C77	C	0.210842	-0.894385	-0.658586
C78	C	0.710842	-0.394385	-0.158586
C79	C	0.296080	-0.944334	-0.613198
C80	C	0.796080	-0.444334	-0.113198
C81	C	0.374658	-0.990402	-0.658620
C82	C	0.874658	-0.490402	-0.158620
C83	C	0.367994	-0.986517	-0.749425
C84	C	0.867994	-0.486517	-0.249425
C85	C	0.324786	-0.961107	-0.341624
C86	C	0.824786	-0.461107	0.158376
C87	C	0.331447	-0.964988	-0.250814
C88	C	0.831447	-0.464988	0.249186
C89	C	0.167629	-0.868971	-0.250785
C90	C	0.667629	-0.368971	0.249215
C91	C	0.160978	-0.865087	-0.341591
C92	C	0.660978	-0.365087	0.158409
C93	C	0.239551	-0.911158	-0.387006
C94	C	0.739551	-0.411158	0.112994
N95	N	0.302889	-0.948309	-0.520379
N96	N	0.802889	-0.448309	-0.020379
N97	N	0.232735	-0.907187	-0.479823
N98	N	0.732735	-0.407187	0.020177
N99	N	0.282760	-0.936559	0.205192
N100	N	0.782760	-0.436559	0.705192
H101	H	-0.105290	-0.812159	0.058967
H102	H	0.394710	-0.312159	0.558967
F103	F	0.488437	-0.681900	-0.000064
F104	F	0.988437	-0.181900	0.499936
H105	H	0.022671	-0.556952	-0.000115
H106	H	0.522671	-0.056952	0.499885
H107	H	-0.114764	-0.806849	-0.059236
H108	H	0.385236	-0.306849	0.440764
F109	F	-0.331791	-0.798579	0.077458
F110	F	0.168209	-0.298579	0.577458
F111	F	0.466422	-0.512959	-0.000084
F112	F	0.966422	-0.012959	0.499916
F113	F	-0.345516	-0.792040	-0.076331
F114	F	0.154484	-0.292040	0.423669
H115	H	-0.351152	-0.931615	-0.144127
H116	H	0.148848	-0.431615	0.355873
F117	F	0.047201	-0.173572	-0.000143
F118	F	0.547201	0.326428	0.499857
H119	H	0.388767	-0.998621	-0.378590
H120	H	0.888767	-0.498621	0.121410
F121	F	0.070262	-0.811921	-0.389890
F122	F	0.570262	-0.311921	0.110110
H123	H	0.512973	-0.298520	-0.000088
H124	H	1.012973	0.201480	0.499912
F125	F	0.520986	-0.137626	-0.000108
F126	F	1.020986	0.362374	0.499892
H127	H	0.096569	-0.330106	-0.000125
H128	H	0.596569	0.169894	0.499875
F129	F	-0.132784	-1.051771	-0.086498
F130	F	0.367216	-0.551771	0.413502
F131	F	-0.371725	-1.047021	-0.087454
F132	F	0.128275	-0.547021	0.412546
H133	H	0.400866	-1.005661	-0.213861
H134	H	0.900866	-0.505661	0.286139
F135	F	-0.117718	-1.058311	0.089086
F136	F	0.382282	-0.558311	0.589086
F137	F	-0.122434	-0.926710	-0.162607
F138	F	0.377566	-0.426710	0.337393
F139	F	0.014652	-0.717852	-0.000095
F140	F	0.514652	-0.217852	0.499905
H141	H	-0.333652	-0.948556	0.143940
H142	H	0.166348	-0.448556	0.643940
F143	F	0.113470	-0.837329	-0.797689
F144	F	0.613470	-0.337329	-0.297689
F145	F	0.127242	-0.845339	-0.610254
F146	F	0.627242	-0.345339	-0.110254
F147	F	0.084010	-0.819945	-0.202445
F148	F	0.584010	-0.319945	0.297555
H149	H	0.444054	-1.031076	-0.621658
H150	H	0.944054	-0.531076	-0.121658
F151	F	-0.358731	-1.056439	0.082216
F152	F	0.141269	-0.556439	0.582216
F153	F	-0.100720	-0.938550	0.162260
F154	F	0.399280	-0.438550	0.662260
F155	F	0.451619	-1.035546	-0.797760
F156	F	0.951619	-0.535546	-0.297760
