data_functionalizedCrystal
_audit_creation_method	'MofGen! by Chris Wilmer'
_symmetry_space_group_name_H-M	'P1'
_symmetry_Int_Tables_number	1
_symmetry_cell_setting	triclinic
loop_
_symmetry_equiv_pos_as_xyz
  x,y,z
_cell_length_a	16.109302
_cell_length_b	16.109295
_cell_length_c	15.186229
_cell_angle_alpha	90.000628
_cell_angle_beta	89.994701
_cell_angle_gamma	96.539516
loop_
_atom_site_label
_atom_site_type_symbol
_atom_site_fract_x
_atom_site_fract_y
_atom_site_fract_z
O1	O	1.103128	-0.106869	-0.073262
O2	O	1.353128	0.143131	0.176738
O3	O	1.603128	0.393131	0.426738
O4	O	1.853128	0.643131	0.676738
O5	O	0.861066	-0.120168	-0.073254
O6	O	1.111066	0.129832	0.176746
O7	O	1.361066	0.379832	0.426746
O8	O	1.611066	0.629832	0.676746
O9	O	0.988749	0.007513	-0.073259
O10	O	1.238749	0.257513	0.176741
O11	O	1.488749	0.507513	0.426741
O12	O	1.738749	0.757513	0.676741
O13	O	0.975445	-0.234550	-0.073257
O14	O	1.225445	0.015450	0.176743
O15	O	1.475445	0.265450	0.426743
O16	O	1.725445	0.515450	0.676743
O17	O	0.988741	0.007514	0.073198
O18	O	1.238741	0.257514	0.323198
O19	O	1.488741	0.507514	0.573198
O20	O	1.738741	0.757514	0.823198
O21	O	0.861057	-0.120166	0.073203
O22	O	1.111057	0.129834	0.323203
O23	O	1.361057	0.379834	0.573203
O24	O	1.611057	0.629834	0.823203
O25	O	1.103120	-0.106867	0.073195
O26	O	1.353120	0.143133	0.323195
O27	O	1.603120	0.393133	0.573195
O28	O	1.853120	0.643133	0.823195
Zn29	Zn	0.982087	-0.113517	0.096452
Zn30	Zn	1.232087	0.136483	0.346452
Zn31	Zn	1.482087	0.386483	0.596452
Zn32	Zn	1.732087	0.636483	0.846452
Zn33	Zn	0.982098	-0.113519	-0.096511
Zn34	Zn	1.232098	0.136481	0.153489
Zn35	Zn	1.482098	0.386481	0.403489
Zn36	Zn	1.732098	0.636481	0.653489
O37	O	0.975436	-0.234548	0.073201
O38	O	1.225436	0.015452	0.323201
O39	O	1.475436	0.265452	0.573201
O40	O	1.725436	0.515452	0.823201
C41	C	0.830087	-0.119628	-0.000025
C42	C	1.080087	0.130372	0.249975
C43	C	1.330087	0.380372	0.499975
C44	C	1.580087	0.630372	0.749975
C45	C	0.737792	-0.118013	-0.000022
C46	C	0.987792	0.131987	0.249978
C47	C	1.237792	0.381987	0.499978
C48	C	1.487792	0.631987	0.749978
C49	C	0.525446	-0.114277	0.079803
C50	C	0.775446	0.135723	0.329803
C51	C	1.025446	0.385723	0.579803
C52	C	1.275446	0.635723	0.829803
C53	C	0.438726	-0.112750	0.079800
C54	C	0.688726	0.137250	0.329800
C55	C	0.938726	0.387250	0.579800
C56	C	1.188726	0.637250	0.829800
C57	C	0.438746	-0.112756	-0.079876
C58	C	0.688746	0.137244	0.170124
C59	C	0.938746	0.387244	0.420124
C60	C	1.188746	0.637244	0.670124
C61	C	0.525465	-0.114277	-0.079872
C62	C	0.775465	0.135723	0.170128
C63	C	1.025465	0.385723	0.420128
C64	C	1.275465	0.635723	0.670128
C65	C	0.568812	-0.115041	-0.000030
C66	C	0.818812	0.134959	0.249970
C67	C	1.068812	0.384959	0.499970
C68	C	1.318812	0.634959	0.749970
C69	C	0.395373	-0.111994	-0.000037
C70	C	0.645373	0.138006	0.249963
C71	C	0.895373	0.388006	0.499963
C72	C	1.145373	0.638006	0.749963
C73	C	0.301347	-0.110339	-0.000041
C74	C	0.551347	0.139661	0.249959
C75	C	0.801347	0.389661	0.499959
C76	C	1.051347	0.639661	0.749959
C77	C	0.662844	-0.116695	-0.000026
C78	C	0.912844	0.133305	0.249974
C79	C	1.162844	0.383305	0.499974
C80	C	1.412844	0.633305	0.749974
C81	C	1.134099	-0.107407	-0.000036
C82	C	1.384099	0.142593	0.249964
C83	C	1.634099	0.392593	0.499964
C84	C	1.884099	0.642593	0.749964
C85	C	1.226394	-0.109023	-0.000045
C86	C	1.476394	0.140977	0.249955
C87	C	1.726394	0.390977	0.499955
C88	C	1.976394	0.640977	0.749955
C89	C	0.988207	0.038489	-0.000033
C90	C	1.238207	0.288489	0.249967
C91	C	1.488207	0.538489	0.499967
C92	C	1.738207	0.788489	0.749967
C93	C	0.986593	0.130784	-0.000039
C94	C	1.236593	0.380784	0.249961
C95	C	1.486593	0.630784	0.499961
C96	C	1.736593	0.880784	0.749961
N97	N	0.982086	-0.113514	0.228145
N98	N	1.232086	0.136486	0.478145
N99	N	1.482086	0.386486	0.728145
N100	N	1.732086	0.636486	0.978145
C101	C	1.058606	0.353057	-0.000074
C102	C	1.308606	0.603057	0.249926
C103	C	1.558606	0.853057	0.499926
C104	C	1.808606	1.103057	0.749926
C105	C	1.057083	0.439778	-0.000089
C106	C	1.307083	0.689778	0.249911
C107	C	1.557083	0.939778	0.499911
C108	C	1.807083	1.189778	0.749911
C109	C	0.905594	0.419904	-0.000079
C110	C	1.155594	0.669904	0.249921
C111	C	1.405594	0.919904	0.499921
C112	C	1.655594	1.169904	0.749921
C113	C	0.907117	0.333185	-0.000071
C114	C	1.157117	0.583185	0.249929
C115	C	1.407117	0.833185	0.499929
C116	C	1.657117	1.083185	0.749929
C117	C	0.983626	0.299764	-0.000064
C118	C	1.233626	0.549764	0.249936
C119	C	1.483626	0.799764	0.499936
C120	C	1.733626	1.049764	0.749936
C121	C	0.980580	0.473203	-0.000087
C122	C	1.230580	0.723203	0.249913
C123	C	1.480580	0.973203	0.499913
C124	C	1.730580	1.223203	0.749913
C125	C	0.978929	0.567230	-0.000102
C126	C	1.228929	0.817230	0.249898
C127	C	1.478929	1.067230	0.499898
C128	C	1.728929	1.317230	0.749898
C129	C	0.985277	0.205732	-0.000050
C130	C	1.235277	0.455732	0.249950
C131	C	1.485277	0.705732	0.499950
C132	C	1.735277	0.955732	0.749950
C133	C	0.975984	0.734477	-0.000049
C134	C	1.225984	0.984477	0.249951
C135	C	1.475984	1.234477	0.499951
C136	C	1.725984	1.484477	0.749951
C137	C	0.977612	0.642183	-0.000111
C138	C	1.227612	0.892183	0.249889
C139	C	1.477612	1.142183	0.499889
C140	C	1.727612	1.392183	0.749889
N141	N	0.982107	-0.113514	-0.228204
N142	N	1.232107	0.136486	0.021796
N143	N	1.482107	0.386486	0.271796
N144	N	1.732107	0.636486	0.521796
C145	C	1.038643	-0.056996	0.453866
C146	C	1.288643	0.193004	0.703866
C147	C	1.538643	0.443004	0.953866
C148	C	1.788643	0.693004	1.203866
C149	C	1.038646	-0.056994	0.546055
C150	C	1.288646	0.193006	0.796055
C151	C	1.538646	0.443006	1.046055
C152	C	1.788646	0.693006	1.296055
C153	C	0.925543	-0.170035	0.546069
C154	C	1.175543	0.079965	0.796069
C155	C	1.425543	0.329965	1.046069
C156	C	1.675543	0.579965	1.296069
C157	C	0.925537	-0.170032	0.453881
C158	C	1.175537	0.079968	0.703881
C159	C	1.425537	0.329968	0.953881
C160	C	1.675537	0.579968	1.203881
C161	C	0.982092	-0.113514	0.407782
C162	C	1.232092	0.136486	0.657782
C163	C	1.482092	0.386486	0.907782
C164	C	1.732092	0.636486	1.157782
C165	C	0.982100	-0.113515	0.592159
C166	C	1.232100	0.136485	0.842159
C167	C	1.482100	0.386485	1.092159
C168	C	1.732100	0.636485	1.342159
C169	C	0.982103	-0.113513	0.692115
C170	C	1.232103	0.136487	0.942115
C171	C	1.482103	0.386487	1.192115
C172	C	1.732103	0.636487	1.442115
C173	C	0.982089	-0.113514	0.307819
C174	C	1.232089	0.136486	0.557819
C175	C	1.482089	0.386486	0.807819
C176	C	1.732089	0.636486	1.057819
H177	H	0.403442	-0.112135	-0.144880
H178	H	0.653442	0.137865	0.105120
H179	H	0.903442	0.387865	0.355120
H180	H	1.153442	0.637865	0.605120
H181	H	0.560737	-0.114899	0.144816
H182	H	0.810737	0.135101	0.394816
H183	H	1.060737	0.385101	0.644816
H184	H	1.310737	0.635101	0.894816
N185	N	1.099636	0.003961	0.404142
N186	N	1.349636	0.253961	0.654142
N187	N	1.599636	0.503961	0.904142
N188	N	1.849636	0.753961	1.154142
H189	H	1.135460	0.039765	0.447329
H190	H	1.385460	0.289765	0.697329
H191	H	1.635460	0.539765	0.947329
H192	H	1.885460	0.789765	1.197329
H193	H	1.067818	0.040726	0.365899
H194	H	1.317818	0.290726	0.615899
H195	H	1.567818	0.540726	0.865899
H196	H	1.817818	0.790726	1.115899
N197	N	1.141122	0.317011	-0.000067
N198	N	1.391122	0.567011	0.249933
N199	N	1.641122	0.817011	0.499933
N200	N	1.891122	1.067011	0.749933
H201	H	1.173973	0.336439	-0.054364
H202	H	1.423973	0.586439	0.195636
H203	H	1.673973	0.836439	0.445636
H204	H	1.923973	1.086439	0.695636
H205	H	1.130642	0.253994	-0.000024
H206	H	1.380642	0.503994	0.249976
H207	H	1.630642	0.753994	0.499976
H208	H	1.880642	1.003994	0.749976
N209	N	0.572248	-0.115092	-0.165981
N210	N	0.822248	0.134908	0.084019
N211	N	1.072248	0.384908	0.334019
N212	N	1.322248	0.634908	0.584019
H213	H	0.531629	-0.114381	-0.216561
H214	H	0.781629	0.135619	0.033439
H215	H	1.031629	0.385619	0.283439
H216	H	1.281629	0.635619	0.533439
H217	H	0.601476	-0.167230	-0.169457
H218	H	0.851476	0.082770	0.080543
H219	H	1.101476	0.332770	0.330543
H220	H	1.351476	0.582770	0.580543
N221	N	1.137954	0.497259	-0.000100
N222	N	1.387954	0.747259	0.249900
N223	N	1.637954	0.997259	0.499900
N224	N	1.887954	1.247259	0.749900
H225	H	1.186649	0.462925	-0.000094
H226	H	1.436649	0.712925	0.249906
H227	H	1.686649	0.962925	0.499906
H228	H	1.936649	1.212925	0.749906
H229	H	1.140618	0.533678	0.054189
H230	H	1.390618	0.783678	0.304189
H231	H	1.640618	1.033678	0.554189
H232	H	1.890618	1.283678	0.804189
N233	N	0.823078	0.455951	-0.000083
N234	N	1.073078	0.705951	0.249917
N235	N	1.323078	0.955951	0.499917
N236	N	1.573078	1.205951	0.749917
H237	H	0.833489	0.518974	-0.000087
H238	H	1.083489	0.768974	0.249913
H239	H	1.333489	1.018974	0.499913
H240	H	1.583489	1.268974	0.749913
H241	H	0.790268	0.436456	0.054214
H242	H	1.040268	0.686456	0.304214
H243	H	1.290268	0.936456	0.554214
H244	H	1.540268	1.186456	0.804214
H245	H	0.846056	0.289791	-0.000066
H246	H	1.096056	0.539791	0.249934
H247	H	1.346056	0.789791	0.499934
H248	H	1.596056	1.039791	0.749934
H249	H	1.084693	-0.010972	0.583574
H250	H	1.334693	0.239028	0.833574
H251	H	1.584693	0.489028	1.083574
H252	H	1.834693	0.739028	1.333574
N253	N	0.864548	-0.230992	0.595790
N254	N	1.114548	0.019008	0.845790
N255	N	1.364548	0.269008	1.095790
N256	N	1.614548	0.519008	1.345790
H257	H	0.873133	-0.222420	0.661184
H258	H	1.123133	0.027580	0.911184
H259	H	1.373133	0.277580	1.161184
H260	H	1.623133	0.527580	1.411184
H261	H	0.874131	-0.289976	0.579671
H262	H	1.124131	-0.039976	0.829671
H263	H	1.374131	0.210024	1.079671
H264	H	1.624131	0.460024	1.329671
H265	H	0.879482	-0.216056	0.416357
H266	H	1.129482	0.033944	0.666357
H267	H	1.379482	0.283944	0.916357
H268	H	1.629482	0.533944	1.166357
H269	H	0.403421	-0.112128	0.144808
H270	H	0.653421	0.137872	0.394808
H271	H	0.903421	0.387872	0.644808
H272	H	1.153421	0.637872	0.894808
