data_functionalizedCrystal
_audit_creation_method	'MofGen! by Chris Wilmer'
_symmetry_space_group_name_H-M	'P1'
_symmetry_Int_Tables_number	1
_symmetry_cell_setting	triclinic
loop_
_symmetry_equiv_pos_as_xyz
  x,y,z
_cell_length_a	16.992694
_cell_length_b	15.995350
_cell_length_c	16.053802
_cell_angle_alpha	92.567808
_cell_angle_beta	87.249047
_cell_angle_gamma	87.080299
loop_
_atom_site_label
_atom_site_type_symbol
_atom_site_fract_x
_atom_site_fract_y
_atom_site_fract_z
O1	O	1.043694	0.174244	-0.069318
O2	O	0.815410	0.172295	-0.069342
O3	O	0.935792	0.051799	-0.069329
O4	O	0.923312	0.294739	-0.069332
O5	O	0.929166	0.058403	0.069530
O6	O	0.808784	0.178898	0.069516
O7	O	1.037068	0.180847	0.069540
Zn8	Zn	0.921874	0.180921	0.091575
Zn9	Zn	0.930604	0.172221	-0.091377
O10	O	0.916685	0.301343	0.069527
C11	C	0.782884	0.173091	0.000083
C12	C	0.695841	0.165614	0.000074
C13	C	0.931963	0.023872	0.000099
C14	C	0.930417	-0.069182	0.000094
C15	C	0.645600	0.237749	0.000074
C16	C	0.563813	0.230720	0.000085
C17	C	0.532268	0.151555	0.000091
C18	C	0.582515	0.079414	0.000094
C19	C	0.664300	0.086444	0.000088
C20	C	0.288669	0.122417	0.000114
C21	C	0.206878	0.115392	0.000117
C22	C	0.188181	0.266699	0.000110
C23	C	0.269969	0.273722	0.000099
C24	C	0.320209	0.201582	0.000106
N25	N	0.448669	0.144368	0.000100
N26	N	0.403806	0.208770	0.000103
C27	C	0.924861	-0.407302	0.000096
C28	C	0.839142	-0.365620	-0.000225
C29	C	0.840674	-0.268811	0.000089
C30	C	0.927617	-0.239557	0.000095
C31	C	0.966120	-0.274034	0.079392
C32	C	0.963963	-0.370810	0.079459
C33	C	0.973269	-0.378559	-0.078449
C34	C	0.973299	-0.281665	-0.079497
C35	C	0.929179	-0.144755	0.000096
C36	C	0.923302	-0.502103	0.000100
C37	C	1.069593	0.180051	0.000113
C38	C	1.156637	0.187528	0.000117
C39	C	0.920515	0.329270	0.000097
C40	C	0.922061	0.422324	0.000097
N41	N	0.915921	0.186859	0.216434
N42	N	0.936563	0.166277	-0.216236
C43	C	0.967163	0.135608	0.260134
C44	C	0.963006	0.139770	0.347541
C45	C	0.907611	0.195187	0.391245
C46	C	0.856364	0.246439	0.347539
C47	C	0.860518	0.242273	0.260135
C48	C	0.889469	0.213363	0.652653
C49	C	0.885321	0.217528	0.740064
C50	C	0.991962	0.110857	0.740059
C51	C	0.996114	0.106699	0.652652
C52	C	0.944864	0.157948	0.608954
N53	N	0.903363	0.199444	0.480589
N54	N	0.949109	0.153686	0.519612
H55	H	0.671277	0.302214	0.000068
C56	C	0.922638	-0.234567	0.159111
C57	C	0.967699	-0.182589	0.222330
C58	C	0.924212	-0.143124	0.302045
C59	C	0.835664	-0.155636	0.318542
C60	C	0.790598	-0.207616	0.255321
C61	C	0.834085	-0.247081	0.175605
H62	H	1.033252	-0.173325	0.210120
H63	H	0.957573	-0.104646	0.348845
H64	H	0.803472	-0.126422	0.377552
H65	H	0.725045	-0.216880	0.267531
H66	H	0.800724	-0.285560	0.128805
H67	H	0.522910	0.289461	0.000084
H68	H	0.705206	0.027704	0.000088
H69	H	0.810146	-0.245316	-0.056756
C70	C	0.939276	-0.412695	-0.159646
C71	C	0.908481	-0.351615	-0.223586
C72	C	0.874477	-0.385750	-0.304778
C73	C	0.871268	-0.480967	-0.322029
C74	C	0.902065	-0.542054	-0.258087
C75	C	0.936069	-0.507918	-0.176896
H76	H	0.910855	-0.281124	-0.210817
H77	H	0.851679	-0.340529	-0.352111
H78	H	0.846097	-0.506236	-0.382132
H79	H	0.899691	-0.612544	-0.270856
H80	H	0.958866	-0.553139	-0.129562
C81	C	0.791905	-0.230612	0.077111
C82	C	0.831381	-0.175688	0.142579
C83	C	0.782661	-0.137531	0.219658
C84	C	0.694464	-0.154298	0.231268
C85	C	0.654983	-0.209225	0.165798
C86	C	0.703704	-0.247382	0.088720
H87	H	0.896674	-0.163274	0.133986
H88	H	0.811888	-0.096871	0.268123
H89	H	0.658398	-0.126052	0.288326
H90	H	0.589690	-0.221639	0.174391
H91	H	0.674477	-0.288042	0.040255
C92	C	0.935377	-0.251344	-0.158753
C93	C	0.863270	-0.188646	-0.151274
C94	C	0.825347	-0.158319	-0.230528
C95	C	0.859529	-0.190688	-0.317262
C96	C	0.931640	-0.253390	-0.324744
C97	C	0.969563	-0.283717	-0.245490
H98	H	0.837962	-0.164681	-0.087065
H99	H	0.771966	-0.111903	-0.224989
H100	H	0.831456	-0.168238	-0.375930
H101	H	0.956947	-0.277355	-0.388953
H102	H	1.022944	-0.330133	-0.251030
H103	H	1.012274	0.090486	0.224555
C104	C	0.795428	0.307400	0.395610
C105	C	0.790893	0.312032	0.491752
C106	C	0.729957	0.372997	0.539820
C107	C	0.673556	0.429329	0.491746
C108	C	0.678090	0.424699	0.395599
C109	C	0.739026	0.363734	0.347531
H110	H	0.832645	0.270330	0.527344
H111	H	0.726601	0.376424	0.610995
H112	H	0.628448	0.474459	0.527329
H113	H	0.636337	0.466401	0.360007
H114	H	0.742381	0.360307	0.276356
H115	H	0.147268	0.325432	0.000106
C116	C	1.057045	0.045737	0.604574
C117	C	1.061609	0.041161	0.508432
C118	C	1.122541	-0.019798	0.460351
C119	C	1.178909	-0.076180	0.508412
C120	C	1.174348	-0.071605	0.604559
C121	C	1.113415	-0.010646	0.652640
H122	H	1.019879	0.082899	0.472850
H123	H	1.125918	-0.023184	0.389176
H124	H	1.224015	-0.121305	0.472819
H125	H	1.216077	-0.113344	0.640141
H126	H	1.110038	-0.007260	0.723815
H127	H	0.807588	-0.389148	-0.057091
H128	H	1.036506	-0.406115	-0.078977
H129	H	0.802329	-0.384808	0.056318
H130	H	1.036930	-0.262288	-0.084280
H131	H	0.329565	0.063675	0.000120
H132	H	1.033687	0.069131	0.775646
H133	H	0.930299	-0.388357	0.138731
H134	H	0.556824	0.014956	0.000111
C135	C	1.048760	-0.408460	0.084346
C136	C	1.118220	-0.350449	0.088180
C137	C	1.203014	-0.388094	0.093077
C138	C	1.218347	-0.483750	0.094140
C139	C	1.148884	-0.541767	0.090306
C140	C	1.064091	-0.504122	0.085409
H141	H	1.106872	-0.279634	0.087393
H142	H	1.254434	-0.345146	0.095916
H143	H	1.281116	-0.511617	0.097766
H144	H	1.160233	-0.612583	0.091093
H145	H	1.012670	-0.547070	0.082571
C146	C	0.304666	0.360806	0.000096
C147	C	0.249402	0.440157	0.000098
C148	C	0.284100	0.527241	0.000091
C149	C	0.374060	0.534975	0.000081
C150	C	0.429329	0.455622	0.000079
C151	C	0.394632	0.368538	0.000086
H152	H	0.182803	0.434434	0.000106
H153	H	0.243185	0.585983	0.000093
H154	H	0.399745	0.599440	0.000076
H155	H	0.495928	0.461345	0.000072
H156	H	0.435546	0.309796	0.000085
C157	C	0.824379	0.278489	0.788138
C158	C	0.768007	0.334858	0.740068
C159	C	0.707069	0.395817	0.788140
C160	C	0.702503	0.400407	0.884282
C161	C	0.758877	0.344036	0.932357
C162	C	0.819815	0.283077	0.884285
H163	H	0.771385	0.331462	0.668893
H164	H	0.665338	0.437547	0.752552
H165	H	0.657394	0.445533	0.919868
H166	H	0.755499	0.347433	1.003532
H167	H	0.861546	0.241347	0.919873
H168	H	0.181198	0.050923	0.000121
C169	C	1.052219	-0.248986	0.083393
C170	C	1.088655	-0.196811	0.014535
C171	C	1.174753	-0.171763	0.018534
C172	C	1.224417	-0.198889	0.091390
C173	C	1.187982	-0.251067	0.160253
C174	C	1.101883	-0.276116	0.156254
H175	H	1.051890	-0.176728	-0.039402
H176	H	1.201725	-0.133137	-0.032443
H177	H	1.288152	-0.180346	0.094350
H178	H	1.224746	-0.271150	0.214190
H179	H	1.074912	-0.314741	0.207232
H180	H	1.004731	0.098037	0.383120
H181	H	0.847741	0.255094	0.617081
H182	H	0.818790	0.284005	0.224555
