data_functionalizedCrystal
_audit_creation_method	'MofGen! by Chris Wilmer'
_symmetry_space_group_name_H-M	'P1'
_symmetry_Int_Tables_number	1
_symmetry_cell_setting	triclinic
loop_
_symmetry_equiv_pos_as_xyz
  x,y,z
_cell_length_a	16.625548
_cell_length_b	16.625545
_cell_length_c	11.169409
_cell_angle_alpha	89.963866
_cell_angle_beta	89.976847
_cell_angle_gamma	90.026626
loop_
_atom_site_label
_atom_site_type_symbol
_atom_site_fract_x
_atom_site_fract_y
_atom_site_fract_z
Zn1	Zn	1.232684	-0.320913	-0.678618
Zn2	Zn	1.232574	-0.455775	-0.477921
Zn3	Zn	1.097839	-0.320963	-0.477940
Zn4	Zn	1.097809	-0.455710	-0.678554
O5	O	1.165226	-0.388340	-0.578258
O6	O	1.345502	-0.338810	-0.652013
O7	O	1.214668	-0.437940	-0.309974
O8	O	1.115786	-0.208124	-0.504595
O9	O	1.345421	-0.437892	-0.504562
O10	O	1.214855	-0.208087	-0.652032
O11	O	1.115679	-0.338894	-0.309988
O12	O	0.985003	-0.338831	-0.504534
O13	O	1.115733	-0.437781	-0.846513
O14	O	0.984980	-0.437829	-0.651924
O15	O	1.214826	-0.338746	-0.846559
O16	O	1.214638	-0.568599	-0.504501
O17	O	1.115627	-0.568551	-0.651906
C18	C	0.955736	-0.388329	-0.578225
C19	C	0.866114	-0.388343	-0.578239
C20	C	0.537939	-0.388349	-0.578290
C21	C	0.629247	-0.388345	-0.578272
C22	C	0.702024	-0.388346	-0.578264
C23	C	0.793338	-0.388342	-0.578247
C24	C	1.165139	-0.597831	-0.578221
C25	C	1.165175	-0.687452	-0.578245
C26	C	1.165206	-0.760235	-0.578268
C27	C	1.165253	-0.851543	-0.578295
C28	C	1.165295	-0.924320	-0.578310
C29	C	1.165341	-1.015634	-0.578335
C30	C	1.375535	-0.388353	-0.578293
C31	C	1.465156	-0.388358	-0.578307
C32	C	1.165288	-0.388251	-0.891301
C33	C	1.165315	-0.388213	-1.024701
C34	C	1.165336	-0.178032	-0.578323
C35	C	1.165383	-0.088410	-0.578350
C36	C	1.165211	-0.388371	-0.266434
C37	C	1.165341	-0.388182	-0.133034
