data_functionalizedCrystal
_audit_creation_method	'MofGen! by Chris Wilmer'
_symmetry_space_group_name_H-M	'P1'
_symmetry_Int_Tables_number	1
_symmetry_cell_setting	triclinic
loop_
_symmetry_equiv_pos_as_xyz
  x,y,z
_cell_length_a	10.489763
_cell_length_b	10.489741
_cell_length_c	8.965430
_cell_angle_alpha	89.994197
_cell_angle_beta	90.004353
_cell_angle_gamma	84.543767
loop_
_atom_site_label
_atom_site_type_symbol
_atom_site_fract_x
_atom_site_fract_y
_atom_site_fract_z
O1	O	-1.694024	-0.180108	0.123974
O2	O	-1.322832	-0.196971	0.123991
O3	O	-1.516874	-0.002942	0.123973
O4	O	-1.499982	-0.374137	0.123991
O5	O	-1.516884	-0.002929	-0.124106
O6	O	-1.322841	-0.196957	-0.124088
O7	O	-1.694033	-0.180094	-0.124105
Cu8	Cu	-1.508438	-0.188525	-0.146748
Cu9	Cu	-1.508427	-0.188541	0.146634
O10	O	-1.499991	-0.374123	-0.124087
C11	C	-1.275305	-0.195684	-0.000047
C12	C	-1.133677	-0.191856	-0.000040
C13	C	-1.515603	0.044596	-0.000066
C14	C	-1.511786	0.186226	-0.000063
C15	C	-1.065538	-0.068386	-0.000062
C16	C	-0.973407	-0.126709	0.122253
C17	C	-0.973451	-0.126724	-0.122334
C18	C	-1.043412	-0.250230	0.122375
C19	C	-1.043465	-0.250228	-0.122321
C20	C	-0.951362	-0.308641	0.000023
C21	C	-0.741562	-0.181361	-0.000069
C22	C	-0.883198	-0.185129	-0.000077
N23	N	-1.508420	-0.188543	0.352983
C24	C	-1.501262	-0.421662	-0.000046
C25	C	-1.505079	-0.563291	-0.000039
C26	C	-1.388322	0.254376	-0.000046
C27	C	-1.446650	0.346501	-0.122365
C28	C	-1.446670	0.346462	0.122222
C29	C	-1.570164	0.276485	-0.122482
C30	C	-1.570167	0.276437	0.122214
C31	C	-1.628584	0.368534	-0.000134
N32	N	-1.508455	-0.188513	-0.353097
C33	C	-1.418503	-0.278099	0.450288
C34	C	-1.392988	-0.162510	0.549701
C35	C	-1.533914	-0.304091	0.549697
C36	C	-1.482847	-0.072895	0.450207
C37	C	-1.623824	-0.214552	0.450195
C38	C	-1.598357	-0.098880	0.549563
H39	H	-1.115227	0.033106	0.000087
H40	H	-1.721371	-0.236610	0.406451
H41	H	-1.674417	-0.023049	0.592879
C42	C	-1.453573	0.059163	0.391421
N43	N	-1.431518	0.158625	0.347140
C44	C	-1.315689	-0.380307	0.391384
N45	N	-1.238248	-0.457283	0.347014
C46	C	-1.251191	0.187300	-0.000208
N47	N	-1.147907	0.136773	-0.000340
C48	C	-1.563031	-0.436120	0.608729
N49	N	-1.584953	-0.535567	0.653185
H50	H	-0.942389	-0.074471	0.225658
C51	C	-1.640678	0.234838	-0.262347
N52	N	-1.693782	0.203466	-0.367695
H53	H	-1.730187	0.417950	-0.000207
C54	C	-1.261165	-0.132763	0.608756
N55	N	-1.161874	-0.110366	0.653232
C56	C	-0.884581	-0.445892	0.000120
N57	N	-0.834277	-0.549268	0.000202
C58	C	-1.085050	-0.320750	0.262243
N59	N	-1.116416	-0.373859	0.367593
C60	C	-0.931609	-0.056111	-0.262038
N61	N	-0.900099	-0.002916	-0.367257
C62	C	-1.376064	0.388309	0.261925
N63	N	-1.322876	0.419822	0.367145
C64	C	-1.085425	-0.320735	-0.262025
N65	N	-1.117035	-0.373831	-0.367262
H66	H	-1.394414	0.377522	-0.225771
C67	C	-1.640675	0.234478	0.261921
N68	N	-1.693773	0.202870	0.367160
