data_functionalizedCrystal
_audit_creation_method	'MofGen! by Chris Wilmer'
_symmetry_space_group_name_H-M	'P1'
_symmetry_Int_Tables_number	1
_symmetry_cell_setting	triclinic
loop_
_symmetry_equiv_pos_as_xyz
  x,y,z
_cell_length_a	34.571875
_cell_length_b	34.571051
_cell_length_c	34.567439
_cell_angle_alpha	60.004367
_cell_angle_beta	60.008842
_cell_angle_gamma	59.994195
loop_
_atom_site_label
_atom_site_type_symbol
_atom_site_fract_x
_atom_site_fract_y
_atom_site_fract_z
O1	O	0.053721	-0.565181	0.472559
O2	O	0.020283	-0.440038	0.380761
O3	O	0.099534	-0.519209	0.380676
O4	O	-0.025530	-0.486010	0.472643
O5	O	0.125831	-0.492917	0.406885
O6	O	0.046580	-0.413746	0.406969
O7	O	0.080018	-0.538889	0.498767
Zn8	Zn	0.067475	-0.472143	0.457030
Zn9	Zn	0.032827	-0.506784	0.422498
O10	O	0.000767	-0.459718	0.498852
N11	N	0.091122	-0.448505	0.480598
N12	N	0.009184	-0.530426	0.398930
C13	C	0.124402	-0.415465	0.717633
C14	C	0.328327	-0.415388	0.513477
C15	C	0.124221	-0.415437	0.513630
C16	C	0.124201	-0.211364	0.513624
C17	C	0.157075	-0.309853	0.546423
C18	C	0.157084	-0.382601	0.546423
C19	C	0.175289	-0.364414	0.564591
C20	C	0.254624	-0.350722	0.522790
C21	C	0.304220	-0.367243	0.506229
C22	C	0.304249	-0.447494	0.536832
C23	C	0.254655	-0.430972	0.553394
C24	C	0.169014	-0.285043	0.497667
C25	C	0.152454	-0.235444	0.481153
C26	C	0.112020	-0.235469	0.562154
C27	C	0.128580	-0.285068	0.578668
C28	C	0.108321	-0.370634	0.558439
C29	C	0.091776	-0.387168	0.541918
C30	C	0.172754	-0.427637	0.501375
C31	C	0.189301	-0.411103	0.517891
C32	C	0.108399	-0.370649	0.643978
C33	C	0.091911	-0.387197	0.693575
C34	C	0.172928	-0.427676	0.693511
C35	C	0.189415	-0.411128	0.643912
C36	C	0.157149	-0.382613	0.619147
C37	C	0.229844	-0.382585	0.546371
C38	C	0.105624	-0.433333	0.772186
C39	C	0.382878	-0.432925	0.495007
C40	C	0.105380	-0.433313	0.495792
C41	C	0.105683	-0.156808	0.496094
C42	C	-0.023527	-0.563458	0.161535
C43	C	-0.023851	-0.767445	0.365663
C44	C	-0.023821	-0.563448	0.365756
C45	C	-0.227785	-0.563229	0.365355
C46	C	-0.129302	-0.596153	0.332678
C47	C	-0.056593	-0.596234	0.332823
C48	C	-0.074746	-0.614396	0.314578
C49	C	-0.088477	-0.693710	0.356299
C50	C	-0.071982	-0.743310	0.372851
C51	C	0.008266	-0.743392	0.342376
C52	C	-0.008230	-0.693794	0.325823
C53	C	-0.154162	-0.608103	0.381422
C54	C	-0.203757	-0.591517	0.397874
C55	C	-0.203630	-0.551037	0.316836
C56	C	-0.154034	-0.567623	0.300384
C57	C	-0.068543	-0.547475	0.320829
C58	C	-0.052041	-0.530969	0.337421
C59	C	-0.011639	-0.611977	0.377990
C60	C	-0.028141	-0.628485	0.361404
C61	C	-0.068417	-0.547482	0.235199
C62	C	-0.051814	-0.530977	0.185602
C63	C	-0.011349	-0.611990	0.185649
C64	C	-0.027951	-0.628493	0.235248
C65	C	-0.056486	-0.596238	0.260022
C66	C	-0.056602	-0.668955	0.332787
C67	C	-0.005599	-0.544662	0.106983
C68	C	-0.006342	-0.821999	0.384121
C69	C	-0.005979	-0.544649	0.383673
C70	C	-0.282336	-0.544682	0.382817
N71	N	0.427518	-0.448428	0.480350
O72	O	0.589573	-0.456297	0.363634
O73	O	0.589761	-0.548399	0.488643
O74	O	0.589681	-0.548188	0.409364
O75	O	0.589654	-0.456508	0.442913
O76	O	0.510890	-0.521988	0.435708
O77	O	0.510970	-0.522199	0.514987
O78	O	0.510782	-0.430098	0.389978
Zn79	Zn	0.498366	-0.471989	0.456665
Zn80	Zn	0.602177	-0.506508	0.421956
O81	O	0.510862	-0.430308	0.469257
N82	N	0.673025	-0.530068	0.398267
N83	N	0.091092	-0.112167	0.480590
O84	O	-0.025539	0.049976	0.472612
O85	O	0.099472	0.050011	0.380491
O86	O	0.020155	0.049979	0.380751
O87	O	0.053778	0.050009	0.472352
O88	O	0.046458	-0.028818	0.407008
O89	O	0.125775	-0.028785	0.406748
O90	O	0.000764	-0.028821	0.498869
Zn91	Zn	0.067445	-0.041314	0.456977
Zn92	Zn	0.032791	0.062504	0.422382
O93	O	0.080081	-0.028788	0.498609
N94	N	0.009138	0.133358	0.398771
N95	N	0.091421	-0.448552	0.816827
O96	O	0.083469	-0.565164	0.978960
O97	O	-0.008614	-0.440110	0.979002
O98	O	-0.008399	-0.519410	0.978978
O99	O	0.083253	-0.485863	0.978984
O100	O	0.017837	-0.493128	0.900185
O101	O	0.017621	-0.413827	0.900208
O102	O	0.109704	-0.538881	0.900167
Zn103	Zn	0.067828	-0.472181	0.887677
Zn104	Zn	0.033262	-0.506810	0.991491
O105	O	0.109489	-0.459581	0.900191
N106	N	0.009668	-0.530444	1.062341
C107	C	0.030297	-0.411123	0.381218
C108	C	0.128439	-0.509167	0.381113
C109	C	0.070004	-0.567805	0.498310
C110	C	-0.028138	-0.469761	0.498415
C111	C	0.550388	-0.547982	0.517564
C112	C	0.550290	-0.547721	0.419387
C113	C	0.550153	-0.430514	0.361058
C114	C	0.550253	-0.430775	0.459234
C115	C	0.128339	0.010714	0.380902
C116	C	0.030148	0.010577	0.381256
C117	C	-0.028136	0.010574	0.498426
C118	C	0.070089	0.010613	0.498104
C119	C	-0.008178	-0.411214	0.939610
C120	C	-0.007906	-0.509413	0.939566
C121	C	0.109268	-0.567777	0.939558
C122	C	0.109002	-0.469572	0.939586
H123	H	0.052212	-0.377448	0.713786
H124	H	-0.064037	0.010563	0.527345
H125	H	-0.037087	-0.375298	0.939623
H126	H	0.137795	-0.462392	0.939581
O127	O	0.550534	-0.582491	0.560375
C128	C	0.591429	-0.632538	0.617392
C129	C	0.591327	-0.593464	0.568895
H130	H	0.624402	-0.641415	0.624300
H131	H	0.591481	-0.665577	0.617463
H132	H	0.558455	-0.619524	0.646331
H133	H	0.624296	-0.606434	0.539929
H134	H	0.591251	-0.560434	0.568864
O135	O	-0.042184	-0.518030	0.939502
C136	C	-0.063839	-0.574305	0.939456
C137	C	-0.024973	-0.564606	0.939516
H138	H	-0.049941	-0.611965	0.939477
H139	H	-0.074180	-0.548093	0.906467
H140	H	-0.096185	-0.570045	0.972417
H141	H	0.007398	-0.568873	0.906578
H142	H	-0.014672	-0.590817	0.972527
O143	O	0.550000	-0.395971	0.318266
C144	C	0.509091	-0.316956	0.276025
C145	C	0.509200	-0.356039	0.324516
H146	H	0.476113	-0.284657	0.281063
H147	H	0.509045	-0.330651	0.252128
H148	H	0.542060	-0.306616	0.258987
H149	H	0.476237	-0.366396	0.341595
H150	H	0.509271	-0.342322	0.348380
O151	O	0.550180	-0.396356	0.467757
C152	C	0.509302	-0.317486	0.472264
C153	C	0.509329	-0.356420	0.462590
H154	H	0.476272	-0.285192	0.468099
H155	H	0.542225	-0.307061	0.446001
H156	H	0.509374	-0.331399	0.509891
H157	H	0.509240	-0.342541	0.424976
H158	H	0.476409	-0.366839	0.488882
H159	H	-0.064060	-0.462687	0.527292
H160	H	0.138179	-0.603691	0.939539
O161	O	0.021575	0.010474	0.346964
C162	C	0.000696	-0.030377	0.324409
C163	C	0.010397	-0.030318	0.363281
H164	H	-0.008353	-0.063348	0.337591
H165	H	0.033543	-0.030404	0.291311
H166	H	-0.030318	0.002603	0.315559
H167	H	0.041395	-0.063291	0.372172
H168	H	-0.022474	-0.030265	0.396355
H169	H	0.164166	0.010943	0.351910
O170	O	0.550282	-0.582023	0.410755
C171	C	0.550267	-0.603706	0.354474
C172	C	0.550265	-0.564814	0.364189
H173	H	0.550263	-0.589811	0.316823
H174	H	0.517313	-0.614090	0.380696
H175	H	0.583262	-0.636027	0.358703
H176	H	0.517293	-0.532469	0.359954
H177	H	0.583240	-0.554471	0.337968
O178	O	0.078726	0.010531	0.532456
C179	C	0.126868	-0.030272	0.582216
C180	C	0.117132	-0.030240	0.543317
H181	H	0.157926	-0.063226	0.591002
H182	H	0.094047	-0.030313	0.615339
H183	H	0.135860	0.002725	0.569076
H184	H	0.108152	-0.063231	0.556412
H185	H	0.149961	-0.030174	0.510201
O186	O	0.076990	-0.342971	0.619994
C187	C	-0.005108	-0.304543	0.625293
C188	C	0.030407	-0.335898	0.652513
H189	H	-0.042778	-0.298806	0.651573
H190	H	0.000551	-0.322705	0.602089
H191	H	0.000613	-0.268873	0.602060
H192	H	0.024707	-0.371572	0.675771
H193	H	0.024739	-0.317698	0.675687
O194	O	0.044403	-0.375605	0.553671
C195	C	-0.029840	-0.379403	0.616594
C196	C	0.023803	-0.392536	0.603350
H197	H	-0.046513	-0.393077	0.656760
H198	H	-0.036156	-0.396132	0.599921
H199	H	-0.046571	-0.339242	0.602902
H200	H	0.040569	-0.432689	0.617039
H201	H	0.030085	-0.375773	0.620016
O202	O	0.204290	-0.455434	0.717543
C203	C	0.268522	-0.528404	0.732635
C204	C	0.233021	-0.497020	0.705398
H205	H	0.291766	-0.562029	0.722819
H206	H	0.248393	-0.538218	0.772354
H207	H	0.291712	-0.508180	0.722870
H208	H	0.209822	-0.517215	0.715124
H209	H	0.253179	-0.487204	0.665685
O210	O	0.204115	-0.455304	0.473651
C211	C	0.286185	-0.493724	0.435208
C212	C	0.250719	-0.462380	0.466602
H213	H	0.323872	-0.499463	0.429508
H214	H	0.280474	-0.475552	0.399525
H215	H	0.280460	-0.529393	0.453380
H216	H	0.256422	-0.426705	0.448472
H217	H	0.256439	-0.480589	0.502283
H218	H	0.082085	-0.347427	0.581670
O219	O	0.230655	-0.461987	0.576272
C220	C	0.235920	-0.543333	0.604899
C221	C	0.263158	-0.508259	0.578972
H222	H	0.262187	-0.580753	0.607099
H223	H	0.212689	-0.533415	0.584642
H224	H	0.212715	-0.541798	0.642184
H225	H	0.286389	-0.509776	0.541687
H226	H	0.286360	-0.518189	0.599265
H227	H	0.023152	-0.375173	0.352387
H228	H	0.229008	-0.420842	0.508101
O229	O	0.328428	-0.494480	0.543592
C230	C	0.404847	-0.555501	0.531666
C231	C	0.377526	-0.502278	0.523966
H232	H	0.444548	-0.561824	0.515811
H233	H	0.395115	-0.567837	0.513675
H234	H	0.395100	-0.576251	0.571247
H235	H	0.387258	-0.481491	0.484396
H236	H	0.387260	-0.489980	0.541988
O237	O	0.328220	-0.336224	0.483312
C238	C	0.322959	-0.254886	0.454728
C239	C	0.295719	-0.289961	0.480679
H240	H	0.296693	-0.217476	0.452599
H241	H	0.346140	-0.256359	0.417419
H242	H	0.346214	-0.264863	0.474984
H243	H	0.272437	-0.280007	0.460462
H244	H	0.272567	-0.288482	0.517990
O245	O	0.078446	-0.610693	0.532725
C246	C	0.055606	-0.680362	0.584460
C247	C	0.045987	-0.631796	0.545495
H248	H	0.029374	-0.697443	0.594789
H249	H	0.051341	-0.675460	0.616798
H250	H	0.093251	-0.704154	0.570612
H251	H	0.008344	-0.607980	0.559298
H252	H	0.050282	-0.636734	0.513165
H253	H	0.229113	-0.420876	0.623698
H254	H	0.234427	-0.311322	0.517070
H255	H	0.192214	-0.305222	0.471410
H256	H	0.162174	-0.215242	0.441450
H257	H	0.088825	-0.215289	0.588411
O258	O	0.171292	-0.517526	0.346642
C259	C	0.240877	-0.494556	0.294849
C260	C	0.192352	-0.485031	0.333878
H261	H	0.257922	-0.468297	0.284524
H262	H	0.235926	-0.490257	0.262523
H263	H	0.264723	-0.532195	0.308630
H264	H	0.168481	-0.447395	0.320141
H265	H	0.197339	-0.489362	0.366195
O266	O	0.116956	-0.309099	0.626048
C267	C	0.075078	-0.303893	0.704649
C268	C	0.088216	-0.276620	0.651006
H269	H	0.051831	-0.277646	0.724843
H270	H	0.108735	-0.327094	0.714414
H271	H	0.054914	-0.327135	0.714403
H272	H	0.108368	-0.253353	0.641214
H273	H	0.054542	-0.253449	0.641270
H274	H	-0.091654	-0.521212	0.255368
O275	O	-0.063473	-0.483597	0.161568
C276	C	-0.105347	-0.404987	0.166760
C277	C	-0.092189	-0.458631	0.194039
H278	H	-0.128557	-0.384786	0.193002
H279	H	-0.125524	-0.395182	0.143500
H280	H	-0.071668	-0.395278	0.143579
H281	H	-0.125843	-0.468378	0.217247
H282	H	-0.071994	-0.468406	0.217270
H283	H	-0.018232	-0.668197	0.255455
O284	O	0.016374	-0.643388	0.161660
C285	C	0.054723	-0.725486	0.166949
C286	C	0.023331	-0.689978	0.194174
H287	H	0.060349	-0.763161	0.193224
H288	H	0.090438	-0.719854	0.143796
H289	H	0.036592	-0.719725	0.143664
H290	H	0.041419	-0.695718	0.217485
H291	H	-0.012382	-0.695619	0.217297
H292	H	-0.091707	-0.521211	0.297556
H293	H	-0.061773	-0.491265	0.327657
H294	H	-0.018411	-0.668189	0.371171
O295	O	0.016050	-0.643353	0.405694
C296	C	0.089009	-0.707561	0.412141
C297	C	0.057694	-0.672060	0.380719
H298	H	0.122689	-0.730773	0.391957
H299	H	0.068806	-0.730786	0.445768
H300	H	0.098727	-0.687380	0.421953
H301	H	0.047967	-0.692202	0.370871
H302	H	0.077914	-0.648836	0.347115
O303	O	0.022796	-0.669818	0.303011
C304	C	0.104137	-0.675136	0.274506
C305	C	0.069050	-0.702346	0.300360
H306	H	0.141542	-0.701423	0.272346
H307	H	0.094197	-0.651923	0.294792
H308	H	0.102648	-0.651911	0.237207
H309	H	0.070521	-0.725597	0.337660
H310	H	0.079002	-0.725529	0.280038
O311	O	0.055238	-0.767597	0.335674
C312	C	0.116218	-0.844045	0.347645
C313	C	0.063011	-0.816693	0.355278
H314	H	0.122521	-0.883744	0.363481
H315	H	0.128521	-0.834345	0.365692
H316	H	0.137008	-0.834291	0.308075
H317	H	0.042183	-0.826432	0.394837
H318	H	0.050745	-0.826395	0.337199
O319	O	-0.103020	-0.767285	0.395756
C320	C	-0.184371	-0.761971	0.424343
C321	C	-0.149268	-0.734759	0.398369
H322	H	-0.221770	-0.735685	0.426455
H323	H	-0.182904	-0.785139	0.461658
H324	H	-0.174417	-0.785241	0.404112
H325	H	-0.159198	-0.711463	0.418560
H326	H	-0.150741	-0.711621	0.361051
H327	H	-0.134026	-0.631339	0.407719
O328	O	-0.227836	-0.603188	0.445243
C329	C	-0.222731	-0.645075	0.523888
C330	C	-0.195404	-0.631898	0.470258
H331	H	-0.196522	-0.668281	0.544128
H332	H	-0.245942	-0.665265	0.533624
H333	H	-0.245966	-0.611400	0.533615
H334	H	-0.172144	-0.665548	0.460492
H335	H	-0.172224	-0.611690	0.460551
O336	O	-0.227585	-0.523315	0.285403
C337	C	-0.222227	-0.484953	0.203287
C338	C	-0.195040	-0.516342	0.238833
H339	H	-0.195926	-0.479314	0.165627
H340	H	-0.245422	-0.449241	0.208935
H341	H	-0.245463	-0.503095	0.208989
H342	H	-0.171778	-0.498242	0.233153
H343	H	-0.171875	-0.552053	0.233175
O344	O	-0.135445	-0.669525	0.362972
C345	C	-0.195362	-0.613501	0.326302
C346	C	-0.142157	-0.640857	0.318682
H347	H	-0.200807	-0.590323	0.290500
H348	H	-0.209362	-0.590237	0.348082
H349	H	-0.215309	-0.639719	0.345970
H350	H	-0.122171	-0.614673	0.299002
H351	H	-0.128194	-0.664128	0.296921
H352	H	-0.133793	-0.557888	0.260690
