data_functionalizedCrystal
_audit_creation_method	'MofGen! by Chris Wilmer'
_symmetry_space_group_name_H-M	'P1'
_symmetry_Int_Tables_number	1
_symmetry_cell_setting	triclinic
loop_
_symmetry_equiv_pos_as_xyz
  x,y,z
_cell_length_a	12.759400
_cell_length_b	10.685972
_cell_length_c	10.686551
_cell_angle_alpha	98.409768
_cell_angle_beta	85.594162
_cell_angle_gamma	85.620475
loop_
_atom_site_label
_atom_site_type_symbol
_atom_site_fract_x
_atom_site_fract_y
_atom_site_fract_z
Zn1	Zn	-0.235538	-1.995793	-0.866752
Zn2	Zn	-0.425867	-1.979371	-0.654488
Zn3	Zn	-0.264773	-1.767220	-0.638211
Zn4	Zn	-0.425760	-1.783495	-0.850394
O5	O	-0.337984	-1.881470	-0.752461
O6	O	-0.248595	-2.171248	-0.852252
O7	O	-0.416778	-1.937545	-0.474697
O8	O	-0.113868	-1.797602	-0.668561
O9	O	-0.388429	-2.159184	-0.696303
O10	O	-0.092389	-1.965534	-0.836469
O11	O	-0.298422	-1.781679	-0.462738
O12	O	-0.298318	-1.591745	-0.652699
O13	O	-0.388247	-1.825340	-1.030196
O14	O	-0.416595	-1.603702	-0.808589
O15	O	-0.248491	-1.981315	-1.042214
O16	O	-0.572880	-1.953327	-0.680442
O17	O	-0.572801	-1.809417	-0.824373
C18	C	-0.360618	-1.551665	-0.727104
C19	C	-0.370324	-1.410576	-0.716286
C20	C	-0.610959	-1.881392	-0.752429
C21	C	-0.727727	-1.881479	-0.752466
C22	C	-0.782583	-1.956509	-0.677618
C23	C	-0.892299	-1.956590	-0.677663
C24	C	-0.892294	-1.806599	-0.827408
C25	C	-0.782580	-1.806526	-0.827368
C26	C	-0.727731	-2.031462	-0.602716
C27	C	-0.782587	-2.106498	-0.527861
C28	C	-0.892303	-2.106579	-0.527906
C29	C	-0.947163	-2.031624	-0.602806
C30	C	-0.063940	-1.881584	-0.752524
C31	C	0.052842	-1.881633	-0.752551
C32	C	-0.315096	-1.906975	-1.083551
C33	C	-0.305342	-1.917843	-1.224642
C34	C	-0.315256	-1.212562	-0.777912
C35	C	-0.305554	-1.353652	-0.788743
C36	C	-0.360703	-1.856137	-0.422665
C37	C	-0.370144	-1.845514	-0.281594
H38	H	-0.638395	-2.031401	-0.602667
H39	H	-0.433206	-1.351365	-0.645965
C40	C	-0.614405	-2.172968	-0.461293
C41	C	-0.722289	-2.188886	-0.445534
H42	H	-0.577185	-2.223828	-0.410460
H43	H	-0.589217	-2.198041	-0.548001
H44	H	-0.603650	-2.086240	-0.436083
H45	H	-0.733046	-2.275613	-0.470753
H46	H	-0.747486	-2.163821	-0.358807
C47	C	-0.522873	-1.816464	-1.130966
C48	C	-0.455116	-1.750693	-1.201704
H49	H	-0.575327	-1.757922	-1.081634
H50	H	-0.555732	-1.875676	-1.186929
H51	H	-0.483511	-1.860383	-1.076344
H52	H	-0.494477	-1.706781	-1.256333
H53	H	-0.422254	-1.691458	-1.145735
H54	H	-0.242400	-1.988092	-1.283829
C55	C	-0.162697	-1.353042	-0.948522
C56	C	-0.220665	-1.433565	-0.883668
H57	H	-0.110286	-1.402385	-1.007119
H58	H	-0.208702	-1.305075	-0.993059
H59	H	-0.129776	-1.297070	-0.889366
H60	H	-0.253592	-1.489532	-0.942823
H61	H	-0.174653	-1.481554	-0.839129
H62	H	-0.737915	-1.745430	-0.888318
C63	C	-1.060482	-1.740105	-0.893943
C64	C	-0.952596	-1.724201	-0.909722
H65	H	-1.097707	-1.689225	-0.944754
H66	H	-1.071249	-1.826817	-0.919156
H67	H	-1.085658	-1.715037	-0.807218
H68	H	-0.927418	-1.749278	-0.996446
H69	H	-0.941823	-1.637471	-0.884516
H70	H	-0.936963	-2.167686	-0.466965
C71	C	-1.104333	-2.113407	-0.521350
C72	C	-1.067765	-2.031716	-0.602860
H73	H	-1.178786	-2.113454	-0.521377
H74	H	-1.072303	-2.196970	-0.549659
H75	H	-1.086721	-2.085183	-0.437728
H76	H	-1.085370	-2.059946	-0.686484
H77	H	-1.099806	-1.948136	-0.574558
