data_functionalizedCrystal
_audit_creation_method	'MofGen! by Chris Wilmer'
_symmetry_space_group_name_H-M	'P1'
_symmetry_Int_Tables_number	1
_symmetry_cell_setting	triclinic
loop_
_symmetry_equiv_pos_as_xyz
  x,y,z
_cell_length_a	6.817900
_cell_length_b	12.000057
_cell_length_c	10.773894
_cell_angle_alpha	94.306455
_cell_angle_beta	96.645922
_cell_angle_gamma	119.141479
loop_
_atom_site_label
_atom_site_type_symbol
_atom_site_fract_x
_atom_site_fract_y
_atom_site_fract_z
V1	V	-4.033348	-0.172142	-0.390993
O2	O	-3.931513	0.013105	-0.381384
O3	O	-4.070631	-0.345977	-0.390401
O4	O	-3.948671	-0.167374	-0.560568
O5	O	-4.054318	-0.166735	-0.210039
V6	V	-4.510574	-0.150235	-0.369096
O7	O	-4.308419	-0.220197	-0.439024
O8	O	-4.685701	-0.102180	-0.321064
O9	O	-4.250085	0.023600	-0.369688
O10	O	-4.729806	-0.335482	-0.378704
O11	O	-4.607001	-0.155642	-0.550049
O12	O	-4.372045	-0.155004	-0.199521
C13	C	-3.937650	-0.388421	-0.384770
C14	C	-4.049179	-0.530520	-0.385417
C15	C	-4.039275	-0.734624	-0.380379
C16	C	-3.924001	-0.587758	-0.379714
C17	C	-3.782076	-0.160592	-0.601833
C18	C	-3.794693	-0.157844	-0.740476
C19	C	-3.975116	-0.162607	-0.808395
C20	C	-3.988161	-0.159767	-0.951689
C21	C	-4.046412	0.066037	-0.375315
C22	C	-3.914121	0.208134	-0.374677
C23	C	-4.201986	-0.161789	-0.158249
C24	C	-4.168604	-0.164531	-0.019605
H25	H	-3.731502	-0.528039	-0.374334
H26	H	-4.231762	-0.794345	-0.385748
H27	H	-3.649877	-0.151654	-0.788411
C28	C	-3.589774	-0.038039	-0.962980
C29	C	-3.792643	-0.151416	-1.016384
H30	H	-3.469079	-0.032882	-1.002928
H31	H	-3.555371	-0.038866	-0.875184
H32	H	-3.607280	0.034524	-0.974629
H33	H	-3.775142	-0.223981	-1.004727
H34	H	-3.827051	-0.150601	-1.104201
H35	H	-4.313432	-0.170718	-0.971676
H36	H	-3.721631	-0.732142	-0.369297
C37	C	-4.356161	-0.672353	-0.285454
C38	C	-4.309042	-0.611114	-0.392656
H39	H	-4.516586	-0.722111	-0.289925
H40	H	-4.291295	-0.609197	-0.211768
H41	H	-4.292585	-0.727302	-0.281980
H42	H	-4.372604	-0.556157	-0.396126
H43	H	-4.373935	-0.674279	-0.466362
C44	C	-4.119856	-0.172155	-0.614266
C45	C	-4.170619	-0.170954	-0.743695
H46	H	-4.240565	-0.177315	-0.574330
H47	H	-3.982231	-0.095247	-0.578057
H48	H	-4.102383	-0.244732	-0.602635
H49	H	-4.188076	-0.098371	-0.755326
H50	H	-4.308283	-0.247870	-0.779915
