data_functionalizedCrystal
_audit_creation_method	'MofGen! by Chris Wilmer'
_symmetry_space_group_name_H-M	'P1'
_symmetry_Int_Tables_number	1
_symmetry_cell_setting	triclinic
loop_
_symmetry_equiv_pos_as_xyz
  x,y,z
_cell_length_a	25.639242
_cell_length_b	25.639239
_cell_length_c	12.759393
_cell_angle_alpha	90.035978
_cell_angle_beta	90.030929
_cell_angle_gamma	90.033587
loop_
_atom_site_label
_atom_site_type_symbol
_atom_site_fract_x
_atom_site_fract_y
_atom_site_fract_z
Zn1	Zn	0.799273	-0.208197	0.594260
Zn2	Zn	0.799183	-0.295642	0.418563
Zn3	Zn	0.711835	-0.208214	0.418565
Zn4	Zn	0.711795	-0.295595	0.594170
O5	O	0.755521	-0.251912	0.506389
O6	O	0.872426	-0.219808	0.570991
O7	O	0.787575	-0.284071	0.271542
O8	O	0.723489	-0.135047	0.441909
O9	O	0.872360	-0.284054	0.441907
O10	O	0.787730	-0.135034	0.570992
O11	O	0.723401	-0.219839	0.271543
O12	O	0.638665	-0.219793	0.441822
O13	O	0.723420	-0.283974	0.741203
O14	O	0.638635	-0.283992	0.570838
O15	O	0.787690	-0.219763	0.741269
O16	O	0.787535	-0.368801	0.441820
O17	O	0.723332	-0.368766	0.570837
C18	C	0.619679	-0.251890	0.506321
C19	C	0.561565	-0.251893	0.506317
C20	C	0.310378	-0.218428	0.439327
C21	C	0.364983	-0.218423	0.439313
O22	O	0.393225	-0.189939	0.382297
N23	N	0.392291	-0.251899	0.506370
C24	C	0.364992	-0.285379	0.573451
O25	O	0.393234	-0.313852	0.630487
C26	C	0.310389	-0.285381	0.573469
C27	C	0.283083	-0.251906	0.506401
C28	C	0.283073	-0.184956	0.372265
C29	C	0.228472	-0.184961	0.372277
C30	C	0.201177	-0.218439	0.439351
C31	C	0.228483	-0.251912	0.506413
C32	C	0.283091	-0.318857	0.640555
C33	C	0.228484	-0.318856	0.640567
C34	C	0.201179	-0.285381	0.573499
C35	C	0.146587	-0.285395	0.573499
N36	N	0.119279	-0.251919	0.506443
C37	C	0.146574	-0.218441	0.439369
C38	C	0.479663	-0.285372	0.573410
C39	C	0.534265	-0.285373	0.573387
C40	C	0.534252	-0.218417	0.439251
C41	C	0.479648	-0.218418	0.439269
C42	C	0.452355	-0.251896	0.506353
C43	C	0.031909	-0.218456	0.439399
C44	C	-0.022697	-0.218466	0.439414
C45	C	-0.022678	-0.285420	0.573554
C46	C	0.031922	-0.285412	0.573536
C47	C	0.059214	-0.251926	0.506455
O48	O	0.118310	-0.313863	0.630490
O49	O	0.118325	-0.189968	0.382352
C50	C	0.755434	-0.387754	0.506341
C51	C	0.755444	-0.445868	0.506356
C52	C	0.789039	-0.806237	0.439325
C53	C	0.789060	-0.860841	0.439339
O54	O	0.817533	-0.889082	0.382293
N55	N	0.755613	-0.888151	0.506459
C56	C	0.722148	-0.860854	0.573577
O57	O	0.693702	-0.889097	0.630671
C58	C	0.722131	-0.806250	0.573568
C59	C	0.755576	-0.778943	0.506435
C60	C	0.822482	-0.778930	0.372199
C61	C	0.822461	-0.724329	0.372183
C62	C	0.788997	-0.697036	0.439294
C63	C	0.755555	-0.724343	0.506420
C64	C	0.688669	-0.778954	0.640691
C65	C	0.688655	-0.724347	0.640676
C66	C	0.722100	-0.697040	0.573544
C67	C	0.722070	-0.642449	0.573516
N68	N	0.755517	-0.615139	0.506396
C69	C	0.788980	-0.642432	0.439285
C70	C	0.722188	-0.975524	0.573594
C71	C	0.722202	-1.030127	0.573599
C72	C	0.789114	-1.030110	0.439361
C73	C	0.789097	-0.975507	0.439351
C74	C	0.755634	-0.948214	0.506473
C75	C	0.788933	-0.527767	0.439257
C76	C	0.788907	-0.473162	0.439245
C77	C	0.721997	-0.473183	0.573486
C78	C	0.722021	-0.527784	0.573495
C79	C	0.755493	-0.555074	0.506377
O80	O	0.693613	-0.614173	0.630535
O81	O	0.817427	-0.614183	0.382211
C82	C	0.891894	-0.251934	0.506459
C83	C	0.950009	-0.251944	0.506488
C84	C	0.755561	-0.251862	0.780423
C85	C	0.755577	-0.251840	0.897200
C86	C	0.755624	-0.115539	0.506461
C87	C	0.755668	-0.057425	0.506491
C88	C	0.755513	-0.251924	0.233422
C89	C	0.755597	-0.251798	0.116646
C90	C	0.789045	-0.218400	0.952098
C91	C	0.789054	-0.218378	1.061822
C92	C	0.722126	-0.285240	1.061740
C93	C	0.722115	-0.285259	0.952018
H94	H	0.457420	-0.191158	0.384660
C95	C	0.450126	-0.321784	0.646280
C96	C	0.485734	-0.351107	0.704975
C97	C	0.458547	-0.384658	0.772104
H98	H	0.428850	-0.301873	0.692235
H99	H	0.428811	-0.344572	0.606039
H100	H	0.507040	-0.328322	0.745212
H101	H	0.507011	-0.371028	0.659047
H102	H	0.437232	-0.407446	0.731863
H103	H	0.437272	-0.364743	0.818052
H104	H	0.482703	-0.404561	0.811929
C105	C	0.825450	-0.182052	1.121236
C106	C	0.854760	-0.152801	1.049740
C107	C	0.888298	-0.119335	1.104433
H108	H	0.805531	-0.159212	1.164039
H109	H	0.848247	-0.202038	1.164023
H110	H	0.831966	-0.132816	1.006971
H111	H	0.874689	-0.175627	1.006934
H112	H	0.911095	-0.139321	1.147220
H113	H	0.868375	-0.096498	1.147234
H114	H	0.908192	-0.099488	1.055931
H115	H	0.816331	-0.953277	0.384687
C116	C	0.563826	-0.181979	0.366493
C117	C	0.550572	-0.130263	0.389549
C118	C	0.577802	-0.096686	0.322542
H119	H	0.600264	-0.186703	0.376030
H120	H	0.554842	-0.189556	0.295856
H121	H	0.559559	-0.122690	0.460169
H122	H	0.514139	-0.125524	0.380006
H123	H	0.568818	-0.104263	0.251905
H124	H	0.614238	-0.101414	0.332084
H125	H	0.568808	-0.061594	0.338169
C126	C	0.685861	-0.321599	0.892271
C127	C	0.715433	-0.355117	0.829259
C128	C	0.682054	-0.388592	0.774194
H129	H	0.665924	-0.341552	0.940510
H130	H	0.663101	-0.301614	0.849404
H131	H	0.738184	-0.375100	0.872122
H132	H	0.735369	-0.335178	0.781000
H133	H	0.659294	-0.368607	0.731327
H134	H	0.662119	-0.408541	0.822441
H135	H	0.702113	-0.411334	0.731427
H136	H	0.661432	-0.801178	0.695352
H137	H	0.054124	-0.191186	0.384780
H138	H	0.206264	-0.346116	0.695201
C139	C	0.312793	-0.355113	0.713447
C140	C	0.344184	-0.325544	0.780871
C141	C	0.371556	-0.358926	0.848033
H142	H	0.288768	-0.375057	0.753494
H143	H	0.334101	-0.377868	0.673217
H144	H	0.322879	-0.302799	0.821097
H145	H	0.368219	-0.305602	0.740853
H146	H	0.392864	-0.381681	0.807804
H147	H	0.347527	-0.378868	0.888073
H148	H	0.392862	-0.338869	0.893782
C149	C	0.685856	-0.321505	1.121449
C150	C	0.693039	-0.314342	1.229290
C151	C	0.659641	-0.347747	1.284324
H152	H	0.650709	-0.313883	1.103576
H153	H	0.693484	-0.356651	1.103513
H154	H	0.685407	-0.279205	1.247220
H155	H	0.728178	-0.321968	1.247195
H156	H	0.667269	-0.382892	1.266387
H157	H	0.624497	-0.340122	1.266442
H158	H	0.664513	-0.342895	1.357499
C159	C	0.825285	-0.182081	0.892448
C160	C	0.795699	-0.148585	0.829437
C161	C	0.829064	-0.115123	0.774466
H162	H	0.845229	-0.162112	0.940743
H163	H	0.848040	-0.202076	0.849588
H164	H	0.772953	-0.128592	0.872293
H165	H	0.775756	-0.168540	0.781122
H166	H	0.851819	-0.135117	0.731606
H167	H	0.849006	-0.095157	0.822769
H168	H	0.808995	-0.092395	0.731700
C169	C	0.652354	-0.694781	0.713724
C170	C	0.663713	-0.708026	0.817697
C171	C	0.630279	-0.680806	0.885015
H172	H	0.657097	-0.658342	0.704249
H173	H	0.617222	-0.703780	0.698344
H174	H	0.698836	-0.699023	0.833072
H175	H	0.658966	-0.744460	0.827205
H176	H	0.595147	-0.689805	0.869635
H177	H	0.635025	-0.644368	0.875531
H178	H	0.637978	-0.689792	0.955567
C179	C	-0.052414	-0.182098	0.366756
C180	C	-0.083743	-0.148632	0.426355
C181	C	-0.111131	-0.115133	0.359457
H182	H	-0.028399	-0.162109	0.326777
H183	H	-0.073766	-0.202068	0.320934
H184	H	-0.062393	-0.128665	0.472158
H185	H	-0.107767	-0.168608	0.466331
H186	H	-0.132483	-0.135103	0.313635
H187	H	-0.087113	-0.095147	0.319482
H188	H	-0.132394	-0.092426	0.399884
C189	C	0.198909	-0.148642	0.299278
C190	C	0.212177	-0.159963	0.195297
C191	C	0.184969	-0.126508	0.128013
H192	H	0.162468	-0.153392	0.308720
H193	H	0.207902	-0.113515	0.314720
H194	H	0.203181	-0.195082	0.179860
H195	H	0.248613	-0.155210	0.185821
H196	H	0.193962	-0.091381	0.143455
H197	H	0.148530	-0.131261	0.137464
H198	H	0.193971	-0.134182	0.057455
C199	C	0.312767	-0.148691	0.299368
C200	C	0.344082	-0.178254	0.231922
C201	C	0.371445	-0.144866	0.164752
H202	H	0.288737	-0.128748	0.259337
H203	H	0.334126	-0.125937	0.339592
H204	H	0.322725	-0.200999	0.191702
H205	H	0.368122	-0.198196	0.271923
H206	H	0.392804	-0.122111	0.204976
H207	H	0.347411	-0.124924	0.124729
H208	H	0.392699	-0.164918	0.118989
C209	C	0.685866	-1.059676	0.646593
C210	C	0.656567	-1.024080	0.705375
C211	C	0.623095	-1.051279	0.772644
H212	H	0.663055	-1.081016	0.606481
H213	H	0.705849	-1.080928	0.692479
H214	H	0.636585	-1.002837	0.659494
H215	H	0.679364	-1.002739	0.745507
H216	H	0.643079	-1.072532	0.818530
H217	H	0.600288	-1.072619	0.732524
H218	H	0.603216	-1.027132	0.812543
H219	H	0.556493	-0.312637	0.627990
H220	H	-0.044912	-0.312679	0.628160
C221	C	0.061478	-0.321777	0.646463
C222	C	0.025884	-0.351089	0.705221
C223	C	0.053086	-0.384584	0.772432
H224	H	0.082760	-0.344578	0.606311
H225	H	0.082788	-0.301810	0.692367
H226	H	0.004583	-0.371054	0.659323
H227	H	0.004600	-0.328301	0.745395
H228	H	0.074397	-0.364617	0.818336
H229	H	0.074368	-0.407382	0.732271
H230	H	0.028940	-0.404472	0.812314
H231	H	0.816142	-0.450930	0.384574
C232	C	0.825291	-0.557298	0.366267
C233	C	0.854560	-0.521687	0.307465
C234	C	0.888050	-0.548871	0.240201
H235	H	0.848119	-0.578564	0.406384
H236	H	0.805322	-0.578622	0.320393
H237	H	0.874527	-0.500372	0.353333
H238	H	0.831745	-0.500420	0.267327
H239	H	0.868081	-0.570196	0.194327
H240	H	0.910875	-0.570137	0.280326
H241	H	0.907909	-0.524714	0.200289
C242	C	0.858750	-0.694754	0.299136
C243	C	0.847410	-0.708099	0.195166
C244	C	0.880837	-0.680875	0.127847
H245	H	0.853986	-0.658316	0.308586
H246	H	0.893884	-0.703682	0.314537
H247	H	0.812284	-0.699167	0.179769
H248	H	0.852176	-0.744533	0.185682
H249	H	0.915972	-0.689803	0.143248
H250	H	0.876071	-0.644438	0.137306
H251	H	0.873151	-0.689929	0.057296
C252	C	0.858918	-0.808470	0.299387
C253	C	0.910627	-0.795094	0.322387
C254	C	0.944212	-0.822277	0.255315
H255	H	0.854233	-0.844914	0.308900
H256	H	0.851313	-0.799529	0.228766
H257	H	0.918229	-0.804038	0.392990
H258	H	0.915328	-0.758655	0.312867
H259	H	0.936608	-0.813336	0.184694
H260	H	0.939523	-0.858720	0.264833
H261	H	0.979300	-0.813202	0.270904
C262	C	0.685935	-0.945867	0.646593
C263	C	0.715506	-0.914477	0.714017
C264	C	0.682130	-0.887158	0.781287
H265	H	0.663146	-0.924559	0.606474
H266	H	0.666029	-0.969939	0.686624
H267	H	0.735403	-0.890408	0.673989
H268	H	0.738294	-0.935772	0.754159
H269	H	0.662224	-0.911230	0.821318
H270	H	0.659342	-0.865853	0.741159
H271	H	0.702189	-0.865861	0.827048
H272	H	0.694789	-0.550018	0.628163
H273	H	0.816364	-1.052342	0.384719
C274	C	0.685584	-0.443574	0.646229
C275	C	0.633859	-0.456896	0.623250
C276	C	0.600304	-0.429625	0.690240
H277	H	0.693158	-0.452468	0.716872
H278	H	0.690330	-0.407138	0.636600
H279	H	0.629115	-0.493324	0.632887
H280	H	0.626268	-0.448000	0.552619
H281	H	0.605050	-0.393190	0.680612
H282	H	0.607883	-0.438522	0.760879
H283	H	0.565205	-0.438657	0.674652
