data_functionalizedCrystal
_audit_creation_method	'MofGen! by Chris Wilmer'
_symmetry_space_group_name_H-M	'P1'
_symmetry_Int_Tables_number	1
_symmetry_cell_setting	triclinic
loop_
_symmetry_equiv_pos_as_xyz
  x,y,z
_cell_length_a	10.723024
_cell_length_b	10.723024
_cell_length_c	9.798715
_cell_angle_alpha	89.998022
_cell_angle_beta	89.996609
_cell_angle_gamma	84.467869
loop_
_atom_site_label
_atom_site_type_symbol
_atom_site_fract_x
_atom_site_fract_y
_atom_site_fract_z
O1	O	1.657187	0.175024	-0.113478
O2	O	2.157187	0.675024	0.386522
O3	O	1.294035	0.191778	-0.113483
O4	O	1.794035	0.691778	0.386517
O5	O	1.483988	0.001825	-0.113475
O6	O	1.983988	0.501825	0.386525
O7	O	1.467234	0.364977	-0.113486
O8	O	1.967234	0.864977	0.386514
O9	O	1.483974	0.001824	0.113507
O10	O	1.983974	0.501824	0.613507
O11	O	1.294021	0.191777	0.113499
O12	O	1.794021	0.691777	0.613499
O13	O	1.657173	0.175024	0.113504
O14	O	2.157173	0.675024	0.613504
Zn15	Zn	1.475595	0.183401	0.149540
Zn16	Zn	1.975595	0.683401	0.649540
Zn17	Zn	1.475613	0.183401	-0.149519
Zn18	Zn	1.975613	0.683401	0.350481
O19	O	1.467220	0.364977	0.113496
O20	O	1.967220	0.864977	0.613496
C21	C	1.247528	0.190558	0.000008
C22	C	1.747528	0.690558	0.500008
C23	C	1.108974	0.186911	0.000006
C24	C	1.608974	0.686911	0.500006
C25	C	1.033991	0.293198	0.000002
C26	C	1.533991	0.793198	0.500002
C27	C	0.890788	0.289431	0.000001
C28	C	1.390788	0.789431	0.500001
C29	C	1.482762	-0.044675	0.000014
C30	C	1.982762	0.455325	0.500014
C31	C	1.479114	-0.183229	0.000009
C32	C	1.979114	0.316771	0.500009
C33	C	1.585401	-0.258212	0.000009
C34	C	2.085401	0.241788	0.500009
C35	C	1.581634	-0.401415	0.000004
C36	C	2.081634	0.098585	0.500004
C37	C	1.703680	0.176243	0.000010
C38	C	2.203680	0.676243	0.500010
C39	C	1.842234	0.179891	0.000003
C40	C	2.342234	0.679891	0.500003
C41	C	1.468447	0.411477	0.000004
C42	C	1.968447	0.911477	0.500004
C43	C	1.472094	0.550031	-0.000000
C44	C	1.972094	1.050031	0.500000
N45	N	1.475591	0.183399	0.353640
N46	N	1.975591	0.683399	0.853640
N47	N	1.475627	0.183393	-0.353619
N48	N	1.975627	0.683393	0.146381
C49	C	1.555347	0.103292	0.421420
C50	C	2.055347	0.603292	0.921420
C51	C	1.555367	0.103288	0.578582
C52	C	2.055367	0.603288	1.078582
H53	H	0.906659	0.088896	-0.000002
H54	H	1.406659	0.588896	0.499998
F55	F	1.644626	0.013647	0.654766
F56	F	2.144626	0.513647	1.154766
H57	H	1.407345	0.251984	0.588102
H58	H	1.907345	0.751984	1.088102
H59	H	1.407319	0.251975	0.411961
H60	H	1.907319	0.751975	0.911961
H61	H	1.385328	-0.225051	-0.000001
H62	H	1.885328	0.274949	0.499999
F63	F	1.700570	-0.485629	0.000013
F64	F	2.200570	0.014371	0.500013
H65	H	1.075814	0.386984	0.000007
H66	H	1.575814	0.886984	0.500007
H67	H	1.067152	0.093125	-0.000026
H68	H	1.567152	0.593125	0.499974
H69	H	0.826355	0.380421	-0.000008
H70	H	1.326355	0.880421	0.499992
F71	F	1.353153	-0.365762	0.000010
F72	F	1.853153	0.134238	0.500010
F73	F	1.707991	-0.203554	0.000002
F74	F	2.207991	0.296446	0.500002
F75	F	1.644356	0.013428	0.345194
F76	F	2.144356	0.513428	0.845194
