data_functionalizedCrystal
_audit_creation_method	'MofGen! by Chris Wilmer'
_symmetry_space_group_name_H-M	'P1'
_symmetry_Int_Tables_number	1
_symmetry_cell_setting	triclinic
loop_
_symmetry_equiv_pos_as_xyz
  x,y,z
_cell_length_a	27.440280
_cell_length_b	23.096457
_cell_length_c	23.096457
_cell_angle_alpha	59.999299
_cell_angle_beta	90.009409
_cell_angle_gamma	59.998890
loop_
_atom_site_label
_atom_site_type_symbol
_atom_site_fract_x
_atom_site_fract_y
_atom_site_fract_z
Zr1	Zr	0.469503	0.633677	-0.075891
O2	O	0.391673	0.754489	-0.168355
O3	O	0.493361	0.512883	-0.047550
O4	O	0.493345	0.633689	-0.168345
O5	O	0.391703	0.633667	0.047730
O6	O	0.573548	0.633678	-0.168333
O7	O	0.391689	0.633683	-0.047560
O8	O	0.573576	0.417577	0.047748
O9	O	0.391675	0.849767	-0.168351
O10	O	0.563392	0.562552	-0.035449
O11	O	0.503549	0.562548	0.035655
O12	O	0.503530	0.704782	-0.106565
O13	O	0.443686	0.704778	-0.035461
Zr14	Zr	0.597441	0.633633	0.076103
Zr15	Zr	0.597417	0.633659	-0.075872
Zr16	Zr	0.469527	0.633651	0.076084
Zr17	Zr	0.469507	0.785634	-0.075885
Zr18	Zr	0.597438	0.481676	0.076097
O19	O	0.573583	0.754427	0.047762
O20	O	0.573550	0.754464	-0.168328
O21	O	0.391706	0.754452	0.047735
O22	O	0.675271	0.512821	0.168567
O23	O	0.675238	0.512857	-0.047522
O24	O	0.493394	0.512846	0.168540
O25	O	0.675241	0.633643	-0.047517
O26	O	0.573599	0.633621	0.168557
O27	O	0.493397	0.633632	0.168545
O28	O	0.675255	0.633627	0.047772
O29	O	0.493349	0.849753	-0.168335
O30	O	0.573595	0.417557	0.168548
O31	O	0.675269	0.417543	0.168563
O32	O	0.675251	0.417563	0.047763
O33	O	0.391693	0.849746	-0.047550
O34	O	0.493368	0.849732	-0.047535
O35	O	0.563414	0.562528	0.106778
O36	O	0.623258	0.562531	0.035673
O37	O	0.563395	0.704762	-0.035443
O38	O	0.503552	0.704758	0.035661
C39	C	0.533468	0.443579	0.000098
C40	C	0.533467	0.379070	0.000095
C41	C	0.564700	0.348770	-0.037023
C42	C	0.564706	0.288148	-0.037017
C43	C	0.533467	0.257839	0.000097
C44	C	0.502232	0.288142	0.037224
C45	C	0.502232	0.348757	0.037223
N46	N	0.482620	0.195451	-0.005057
N47	N	0.482621	0.137870	-0.005060
C48	C	0.533466	0.075207	0.000104
N49	N	0.584309	0.072307	0.005258
N50	N	0.584306	0.129895	0.005257
C51	C	0.533464	0.192111	0.000103
C52	C	0.564709	-0.020827	-0.037010
C53	C	0.564716	-0.081454	-0.036999
C54	C	0.502236	-0.081453	0.037237
C55	C	0.502234	-0.020833	0.037231
C56	C	0.533469	0.009479	0.000104
C57	C	0.373471	0.633677	0.000082
C58	C	0.319168	0.633685	0.000074
C59	C	0.013718	0.559399	0.037248
C60	C	-0.037301	0.559394	0.037254
O61	O	-0.037114	0.496254	0.068846
N62	N	-0.094065	0.633636	0.000131
C63	C	-0.099810	0.707887	-0.036994
O64	O	-0.152777	0.771035	-0.068569
C65	C	-0.048792	0.707891	-0.036996
C66	C	0.007972	0.633644	0.000123
C67	C	0.070479	0.485158	0.074364
C68	C	0.121494	0.485163	0.074357
C69	C	0.115747	0.559408	0.037233
C70	C	0.058986	0.633649	0.000116
C71	C	-0.054538	0.782141	-0.074117
C72	C	-0.003514	0.782139	-0.074115
C73	C	0.053250	0.707892	-0.036996
C74	C	0.104255	0.707899	-0.037016
N75	N	0.161019	0.633658	0.000107
C76	C	0.166765	0.559412	0.037231
C77	C	-0.206949	0.707874	-0.036987
C78	C	-0.257966	0.707871	-0.036990
C79	C	-0.195453	0.559378	0.037260
C80	C	-0.144435	0.559381	0.037258
C81	C	-0.150184	0.633632	0.000136
C82	C	0.273898	0.559428	0.037212
C83	C	0.324914	0.559439	0.037199
C84	C	0.262397	0.707932	-0.037047
C85	C	0.211385	0.707921	-0.037038
C86	C	0.217139	0.633662	0.000097
O87	O	0.104114	0.771008	-0.068590
O88	O	0.219734	0.496275	0.068808
C89	C	0.693473	0.633633	0.000130
C90	C	0.747776	0.633625	0.000138
C91	C	0.533443	0.633687	-0.189992
C92	C	0.533433	0.633698	-0.254509
C93	C	0.533476	0.823730	0.000114
C94	C	0.533478	0.888240	0.000117
C95	C	0.577619	0.633693	-0.284796
C96	C	0.577632	0.633677	-0.345404
C97	C	0.533451	0.633681	-0.375731
C98	C	0.489261	0.633681	-0.345434
C99	C	0.489252	0.633690	-0.284823
N100	N	0.481064	0.680032	-0.494095
N101	N	0.481074	0.680026	-0.551673
C102	C	0.533475	0.633654	-0.558346
N103	N	0.585868	0.587299	-0.505270
N104	N	0.585857	0.587309	-0.447688
C105	C	0.533455	0.633672	-0.441452
C106	C	0.577679	0.633630	-0.654350
C107	C	0.577693	0.633609	-0.714957
C108	C	0.489317	0.633621	-0.714989
C109	C	0.489307	0.633635	-0.654380
C110	C	0.533488	0.633643	-0.624066
C111	C	0.533501	0.633623	0.190204
C112	C	0.533511	0.633612	0.254722
C113	C	0.693469	0.443557	0.000122
C114	C	0.747771	0.379040	0.000127
C115	C	0.533497	0.443547	0.190196
C116	C	0.533506	0.379026	0.254711
C117	C	0.693498	0.443525	0.190220
C118	C	0.747810	0.378997	0.254743
C119	C	0.373446	0.823785	-0.190008
C120	C	0.319134	0.888313	-0.254531
C121	C	0.373475	0.823753	0.000090
C122	C	0.319173	0.888270	0.000085
C123	C	0.533447	0.823763	-0.189984
C124	C	0.533438	0.888283	-0.254499
C125	C	0.742022	0.348752	-0.037002
C126	C	0.793039	0.288140	-0.037011
C127	C	0.849804	0.257811	0.000114
C128	C	0.855552	0.288105	0.037244
C129	C	0.804535	0.348721	0.037248
C130	C	0.564759	0.348716	0.322139
C131	C	0.564764	0.288100	0.382764
C132	C	0.533520	0.257792	0.375958
C133	C	0.502263	0.288108	0.308523
C134	C	0.502254	0.348727	0.247900
C135	C	0.804558	0.348695	0.247928
C136	C	0.855594	0.288072	0.308548
C137	C	0.849881	0.257748	0.375983
C138	C	0.793127	0.288055	0.382797
C139	C	0.742092	0.348681	0.322177
C140	C	0.262386	0.918622	-0.247715
C141	C	0.211350	0.979263	-0.308336
C142	C	0.217063	1.009591	-0.375770
C143	C	0.273817	0.979280	-0.382584
C144	C	0.324852	0.918644	-0.321965
C145	C	0.324922	0.918564	0.037208
C146	C	0.273905	0.979193	0.037200
C147	C	0.217140	1.009523	0.000074
C148	C	0.211392	0.979227	-0.037054
C149	C	0.262409	0.918603	-0.037050
C150	C	0.564689	0.918573	-0.247670
C151	C	0.564692	0.979189	-0.308283
C152	C	0.533442	1.009519	-0.375723
C153	C	0.502191	0.979223	-0.382550
C154	C	0.502191	0.918604	-0.321938
H155	H	0.476797	0.263460	0.067444
H156	H	0.257728	0.768381	-0.067276
H157	H	0.453288	0.633683	-0.370128
N158	N	0.076687	0.405071	0.114400
H159	H	0.035759	0.416318	0.108774
H160	H	0.099264	0.372639	0.166312
N161	N	-0.213153	0.787963	-0.077037
H162	H	-0.256856	0.834989	-0.100553
H163	H	-0.193356	0.791204	-0.114358
H164	H	0.371134	0.498976	0.067428
N165	N	-0.319187	0.787949	-0.077026
H166	H	-0.341760	0.791270	-0.114381
H167	H	-0.315031	0.834934	-0.100498
H168	H	0.278592	0.498959	0.067451
N169	N	0.468534	0.381448	0.077251
H170	H	0.473273	0.424449	0.071616
H171	H	0.484947	0.335149	0.129165
N172	N	0.162114	1.074907	0.000073
H173	H	0.162093	1.125204	-0.021048
H174	H	0.162138	1.053725	0.050366
N175	N	0.916782	0.255376	0.077288
H176	H	0.921573	0.230209	0.129219
H177	H	0.921536	0.301647	0.057773
N178	N	0.150166	1.011931	-0.077082
H179	H	0.118724	1.054924	-0.071439
H180	H	0.145447	0.965630	-0.057579
N181	N	0.256209	0.885923	-0.174990
H182	H	0.233676	0.932171	-0.169314
H183	H	0.297165	0.842896	-0.137656
H184	H	0.533532	0.208432	0.425327
N185	N	0.904926	0.192346	0.441366
H186	H	0.904963	0.213425	0.470551
H187	H	0.941712	0.177773	0.426757
N188	N	0.786967	0.255337	0.455530
H189	H	0.764432	0.301574	0.461222
H190	H	0.827931	0.212319	0.492849
H191	H	0.167709	0.424704	0.104580
H192	H	0.590145	0.003852	-0.067239
H193	H	0.613595	0.633697	-0.260115
N194	N	0.279978	1.011989	-0.455318
H195	H	0.260196	1.072841	-0.482122
H196	H	0.260197	1.001393	-0.482063
H197	H	0.590135	0.373447	-0.067252
N198	N	0.810732	0.381402	0.175201
H199	H	0.769794	0.424408	0.137825
H200	H	0.833297	0.335110	0.169586
N201	N	0.598396	0.255457	-0.077052
H202	H	0.618184	0.283857	-0.100571
H203	H	0.569698	0.266016	-0.114370
N204	N	-0.009722	0.862229	-0.114162
H205	H	0.010040	0.865550	-0.151522
H206	H	0.010052	0.865490	-0.080073
H207	H	0.476801	-0.106130	0.067457
N208	N	0.598397	1.011857	-0.300902
H209	H	0.569742	1.072710	-0.324401
H210	H	0.629844	1.001245	-0.324371
H211	H	0.891341	0.208454	0.000105
H212	H	0.590137	0.893887	-0.192763
N213	N	0.162012	1.074984	-0.441145
H214	H	0.161977	1.053897	-0.470324
H215	H	0.162007	1.125271	-0.470271
N216	N	0.680885	0.381357	0.329533
H217	H	0.685016	0.352940	0.381452
H218	H	0.658353	0.370806	0.306002
N219	N	0.916805	0.255373	0.301196
H220	H	0.939377	0.265916	0.324684
H221	H	0.912629	0.283789	0.249265
H222	H	0.476825	0.263422	0.302992
H223	H	0.590202	0.373387	0.327694
N224	N	0.468508	0.381458	0.175174
H225	H	0.448708	0.353069	0.180069
H226	H	0.497161	0.370935	0.148371
N227	N	0.598487	0.255396	0.455492
H228	H	0.569843	0.265949	0.482301
H229	H	0.618283	0.283803	0.450541
H230	H	0.165143	1.003933	-0.302774
N231	N	0.256204	0.885932	-0.077091
H232	H	0.212501	0.914348	-0.100607
H233	H	0.276010	0.825078	-0.043007
N234	N	0.810740	0.381382	0.077299
H235	H	0.854443	0.352965	0.100816
H236	H	0.790943	0.370821	0.114621
H237	H	0.476741	0.893950	-0.327508
N238	N	0.386059	0.885953	-0.329320
H239	H	0.381928	0.914369	-0.381240
H240	H	0.408589	0.825102	-0.305794
H241	H	-0.100749	0.842601	-0.104342
N242	N	0.533451	1.074893	-0.441095
H243	H	0.557992	1.089473	-0.426529
H244	H	0.491119	1.125165	-0.470257
H245	H	0.278596	1.003850	0.067436
N246	N	0.468486	1.011940	-0.455291
H247	H	0.473229	1.054940	-0.492647
H248	H	0.424791	1.037059	-0.460917
H249	H	0.371138	0.893873	0.067445
H250	H	0.613615	0.633672	-0.370068
N251	N	0.598405	-0.114140	-0.077034
H252	H	0.642115	-0.139290	-0.057565
H253	H	0.581957	-0.067848	-0.128957
N254	N	0.468546	0.011852	0.077266
H255	H	0.448757	-0.016547	0.100781
H256	H	0.437131	0.072708	0.043180
H257	H	-0.190782	0.498923	0.067486
N258	N	-0.083214	0.479303	0.077291
H259	H	-0.087322	0.432272	0.100805
H260	H	-0.060675	0.476057	0.114613
N261	N	0.150159	0.787998	-0.077083
H262	H	0.154262	0.835033	-0.100605
H263	H	0.127640	0.791228	-0.042996
H264	H	0.453270	0.633693	-0.260163
H265	H	0.613655	0.633633	-0.629666
H266	H	0.613677	0.633600	-0.739614
H267	H	0.453325	0.633644	-0.629721
N268	N	0.441667	0.633616	-0.747685
H269	H	0.418447	0.684100	-0.798087
H270	H	0.413714	0.633591	-0.719246
N271	N	0.680801	0.381454	-0.077044
H272	H	0.684910	0.353065	-0.100566
H273	H	0.658266	0.442311	-0.114361
H274	H	0.788348	0.263482	-0.067246
