data_functionalizedCrystal
_audit_creation_method	'MofGen! by Chris Wilmer'
_symmetry_space_group_name_H-M	'P1'
_symmetry_Int_Tables_number	1
_symmetry_cell_setting	triclinic
loop_
_symmetry_equiv_pos_as_xyz
  x,y,z
_cell_length_a	16.109302
_cell_length_b	27.732064
_cell_length_c	15.186229
_cell_angle_alpha	90.000359
_cell_angle_beta	89.994701
_cell_angle_gamma	83.055602
loop_
_atom_site_label
_atom_site_type_symbol
_atom_site_fract_x
_atom_site_fract_y
_atom_site_fract_z
O1	O	1.102367	0.062131	-0.073260
O2	O	1.602367	0.562131	0.426740
O3	O	0.860210	0.069863	-0.073252
O4	O	1.360210	0.569863	0.426748
O5	O	0.988803	-0.004368	-0.073260
O6	O	1.488803	0.495632	0.426740
O7	O	0.973775	0.136362	-0.073252
O8	O	1.473775	0.636362	0.426748
O9	O	0.988794	-0.004369	0.073198
O10	O	1.488794	0.495631	0.573198
O11	O	0.860202	0.069862	0.073205
O12	O	1.360202	0.569862	0.573205
O13	O	1.102359	0.062130	0.073197
O14	O	1.602359	0.562130	0.573197
Zn15	Zn	0.981279	0.065996	0.096455
Zn16	Zn	1.481279	0.565996	0.596455
Zn17	Zn	0.981290	0.065997	-0.096509
Zn18	Zn	1.481290	0.565997	0.403491
O19	O	0.973767	0.136361	0.073205
O20	O	1.473767	0.636361	0.573205
C21	C	0.829235	0.069549	-0.000022
C22	C	1.329235	0.569549	0.499978
C23	C	0.736951	0.068610	-0.000020
C24	C	1.236951	0.568610	0.499980
C25	C	0.524633	0.066438	0.079805
C26	C	1.024633	0.566438	0.579805
C27	C	0.437923	0.065550	0.079802
C28	C	0.937923	0.565550	0.579802
C29	C	0.437943	0.065554	-0.079874
C30	C	0.937943	0.565554	0.420126
C31	C	0.524652	0.066438	-0.079870
C32	C	1.024652	0.566438	0.420130
C33	C	0.567993	0.066882	-0.000028
C34	C	1.067993	0.566882	0.499972
C35	C	0.394576	0.065111	-0.000035
C36	C	0.894576	0.565111	0.499965
C37	C	0.300562	0.064148	-0.000039
C38	C	0.800562	0.564148	0.499961
C39	C	0.662014	0.067844	-0.000023
C40	C	1.162014	0.567844	0.499977
C41	C	0.988481	-0.022376	-0.000034
C42	C	1.488481	0.477624	0.499966
C43	C	0.987525	-0.076035	-0.000042
C44	C	1.487525	0.423965	0.499958
C45	C	0.905023	-0.453453	-0.000043
C46	C	1.405023	0.046547	0.499957
C47	C	0.908543	-0.251778	-0.000044
C48	C	1.408543	0.248222	0.499956
O49	O	0.844524	-0.220793	-0.000077
O50	O	1.344524	0.279207	0.499923
N51	N	0.984796	-0.232331	-0.000047
N52	N	1.484796	0.267669	0.499953
C53	C	1.060174	-0.263307	-0.000055
C54	C	1.560174	0.236693	0.499945
O55	O	1.125112	-0.242139	-0.000066
O56	O	1.625112	0.257861	0.499934
C57	C	1.056654	-0.464981	-0.000060
C58	C	1.556654	0.035019	0.499940
C59	C	0.980396	-0.484424	-0.000048
C60	C	1.480396	0.015576	0.499952
C61	C	0.828772	-0.472897	-0.000032
C62	C	1.328772	0.027103	0.499968
C63	C	0.827893	-0.523313	-0.000027
C64	C	1.327893	-0.023313	0.499973
C65	C	0.903265	-0.554285	-0.000032
C66	C	1.403265	-0.054285	0.499968
C67	C	0.979517	-0.534840	-0.000043
C68	C	1.479517	-0.034840	0.499957
C69	C	1.132031	-0.495955	-0.000074
C70	C	1.632031	0.004045	0.499926
C71	C	1.131144	-0.546376	-0.000077
C72	C	1.631144	-0.046376	0.499923
C73	C	1.054886	-0.565820	-0.000066
C74	C	1.554886	-0.065820	0.499934
C75	C	1.054010	-0.616228	-0.000043
C76	C	1.554010	-0.116228	0.499957
N77	N	0.977757	-0.635674	-0.000041
N78	N	1.477757	-0.135674	0.499959
C79	C	0.902385	-0.604703	-0.000035
C80	C	1.402385	-0.104703	0.499965
C81	C	1.062017	-0.157425	-0.000050
C82	C	1.562017	0.342575	0.499950
C83	C	1.062897	-0.107006	-0.000047
C84	C	1.562897	0.392994	0.499953
C85	C	0.911266	-0.095481	-0.000038
C86	C	1.411266	0.404519	0.499962
C87	C	0.910386	-0.145900	-0.000035
C88	C	1.410386	0.354100	0.499965
C89	C	0.985764	-0.176871	-0.000048
C90	C	1.485764	0.323129	0.499952
C91	C	0.900545	-0.710580	-0.000024
C92	C	1.400545	-0.210580	0.499976
C93	C	0.899672	-0.761001	-0.000015
C94	C	1.399672	-0.261001	0.499985
C95	C	1.051303	-0.772522	-0.000029
C96	C	1.551303	-0.272522	0.499971
C97	C	1.052176	-0.722105	-0.000033
C98	C	1.552176	-0.222105	0.499967
C99	C	0.976790	-0.691135	-0.000033
C100	C	1.476790	-0.191135	0.499967
O101	O	1.117994	-0.647241	-0.000020
O102	O	1.617994	-0.147241	0.499980
O103	O	0.837456	-0.625880	-0.000044
O104	O	1.337456	-0.125880	0.499956
C105	C	0.905902	-0.403037	-0.000048
C106	C	1.405902	0.096963	0.499952
C107	C	0.982154	-0.383593	-0.000058
C108	C	1.482154	0.116407	0.499942
C109	C	1.057526	-0.414564	-0.000064
C110	C	1.557526	0.085436	0.499936
C111	C	0.983034	-0.333175	-0.000055
C112	C	1.483034	0.166825	0.499945
C113	C	0.907662	-0.302203	-0.000050
C114	C	1.407662	0.197797	0.499950
C115	C	0.831409	-0.321650	-0.000047
C116	C	1.331409	0.178350	0.499953
C117	C	0.830530	-0.372066	-0.000042
C118	C	1.330530	0.127934	0.499958
C119	C	1.133779	-0.395118	-0.000066
C120	C	1.633779	0.104882	0.499934
C121	C	1.134652	-0.344701	-0.000070
C122	C	1.634652	0.155299	0.499930
C123	C	1.059280	-0.313730	-0.000065
C124	C	1.559280	0.186270	0.499935
C125	C	1.133334	0.062444	-0.000034
C126	C	1.633334	0.562444	0.499966
C127	C	1.225618	0.063383	-0.000043
C128	C	1.725618	0.563383	0.499957
C129	C	0.974089	0.154369	-0.000023
C130	C	1.474089	0.654369	0.499977
C131	C	0.975045	0.208028	-0.000020
C132	C	1.475045	0.708028	0.499980
N133	N	0.981277	0.065995	0.228147
N134	N	1.481277	0.565995	0.728147
N135	N	0.981298	0.065995	-0.228202
N136	N	1.481298	0.565995	0.271798
C137	C	1.038237	0.033136	0.453867
C138	C	1.538237	0.533136	0.953867
C139	C	1.038240	0.033135	0.546056
C140	C	1.538240	0.533135	1.046056
C141	C	0.924333	0.098854	0.546072
C142	C	1.424333	0.598854	1.046072
C143	C	0.924327	0.098853	0.453884
C144	C	1.424327	0.598853	0.953884
C145	C	0.981284	0.065994	0.407784
C146	C	1.481284	0.565994	0.907784
C147	C	0.981292	0.065995	0.592162
C148	C	1.481292	0.565995	1.092162
C149	C	0.981295	0.065994	0.692118
C150	C	1.481295	0.565994	1.192118
C151	C	0.981280	0.065995	0.307821
C152	C	1.481280	0.565995	0.807821
H153	H	0.559957	0.066799	-0.144883
H154	H	1.059957	0.566799	0.355117
H155	H	0.839158	-0.685370	-0.000025
H156	H	1.339158	-0.185370	0.499975
H157	H	1.084615	0.006379	0.583575
H158	H	1.584615	0.506379	1.083575
Br159	Br	0.379120	0.064936	-0.188225
Br160	Br	0.879120	0.564936	0.311775
H161	H	0.848290	-0.161727	-0.000022
H162	H	1.348290	0.338273	0.499978
Br163	Br	0.796173	-0.787385	0.000005
Br164	Br	1.296173	-0.287385	0.500005
H165	H	0.877961	0.125608	0.583616
H166	H	1.377961	0.625608	1.083616
H167	H	0.877944	0.125610	0.416361
H168	H	1.377944	0.625610	0.916361
Br169	Br	0.808975	-0.053439	-0.000029
Br170	Br	1.308975	0.446561	0.499971
H171	H	0.765796	-0.539139	-0.000025
H172	H	1.265796	-0.039139	0.499975
Br173	Br	0.726466	-0.430873	-0.000029
Br174	Br	1.226466	0.069127	0.499971
Br175	Br	0.583452	0.067039	0.188161
Br176	Br	1.083452	0.567039	0.688161
H177	H	0.768433	-0.387892	-0.000032
H178	H	1.268433	0.112108	0.499968
H179	H	1.084614	0.006380	0.416334
H180	H	1.584614	0.506380	0.916334
H181	H	1.124994	-0.091180	-0.000043
H182	H	1.624994	0.408820	0.499957
H183	H	1.112669	-0.797748	-0.000029
H184	H	1.612669	-0.297748	0.499971
Br185	Br	0.379080	0.064946	0.188151
Br186	Br	0.879080	0.564946	0.688151
H187	H	1.123402	-0.182638	-0.000059
H188	H	1.623402	0.317362	0.499941
H189	H	1.194128	-0.480133	-0.000084
H190	H	1.694128	0.019867	0.499916
H191	H	1.192527	-0.571591	-0.000093
H192	H	1.692527	-0.071591	0.499907
H193	H	1.114271	-0.706274	-0.000030
H194	H	1.614271	-0.206274	0.499970
Br195	Br	1.238155	-0.318321	-0.000085
Br196	Br	1.738155	0.181679	0.499915
Br197	Br	0.729119	-0.279607	-0.000034
Br198	Br	1.229119	0.220393	0.499966
H199	H	1.195158	-0.420330	-0.000072
H200	H	1.695158	0.079670	0.499928
