data_functionalizedCrystal
_audit_creation_method	'MofGen! by Chris Wilmer'
_symmetry_space_group_name_H-M	'P1'
_symmetry_Int_Tables_number	1
_symmetry_cell_setting	triclinic
loop_
_symmetry_equiv_pos_as_xyz
  x,y,z
_cell_length_a	16.109301
_cell_length_b	14.519731
_cell_length_c	14.586319
_cell_angle_alpha	89.995223
_cell_angle_beta	89.998857
_cell_angle_gamma	83.575218
loop_
_atom_site_label
_atom_site_type_symbol
_atom_site_fract_x
_atom_site_fract_y
_atom_site_fract_z
O1	O	1.103344	0.118540	-0.076192
O2	O	0.861309	0.133292	-0.076205
O3	O	0.988734	-0.008335	-0.076190
O4	O	0.975918	0.260166	-0.076207
O5	O	0.988725	-0.008337	0.076291
O6	O	0.861300	0.133289	0.076276
O7	O	1.103335	0.118538	0.076289
Cu8	Cu	0.982317	0.125913	0.090205
Cu9	Cu	0.982327	0.125916	-0.090121
O10	O	0.975909	0.260164	0.076274
C11	C	0.830328	0.132693	0.000034
C12	C	0.738030	0.130901	0.000029
C13	C	0.429172	0.209083	0.000040
C14	C	0.515895	0.210775	0.000034
C15	C	0.535466	0.042740	0.000033
C16	C	0.448744	0.041049	0.000032
C17	C	0.395599	0.124223	0.000040
C18	C	0.569044	0.127606	0.000036
C19	C	0.663074	0.129440	0.000030
C20	C	0.301564	0.122389	0.000044
C21	C	0.988129	-0.042694	0.000051
C22	C	0.986330	-0.145071	0.000051
C23	C	0.984868	-0.228212	0.000049
C24	C	0.983041	-0.332517	0.000042
C25	C	0.981591	-0.415653	0.000036
C26	C	0.979764	-0.519964	0.000030
C27	C	1.134316	0.119136	0.000048
C28	C	1.226614	0.120928	0.000047
C29	C	0.976514	0.294524	0.000031
C30	C	0.978314	0.396900	0.000024
N31	N	0.982315	0.125911	0.217037
N32	N	0.982335	0.125911	-0.216953
C33	C	1.038758	0.063220	0.452050
C34	C	1.038761	0.063218	0.548031
C35	C	0.925886	0.188605	0.548027
C36	C	0.925880	0.188602	0.452048
C37	C	0.982321	0.125911	0.404061
C38	C	0.982329	0.125911	0.596022
C39	C	0.982331	0.125909	0.700089
C40	C	0.982318	0.125911	0.299988
H41	H	0.578747	-0.024978	0.000029
C42	C	1.100835	-0.005746	0.399265
C43	C	1.162910	-0.074708	0.452057
C44	C	1.224987	-0.143679	0.399275
C45	C	1.224988	-0.143687	0.293701
C46	C	1.162910	-0.074722	0.240903
C47	C	1.100834	-0.005752	0.293685
H48	H	1.162912	-0.074705	0.530214
H49	H	1.270941	-0.194731	0.438360
H50	H	1.270941	-0.194743	0.254629
H51	H	1.162909	-0.074726	0.162746
H52	H	1.054879	0.045301	0.254600
H53	H	0.421410	-0.028058	0.000029
H54	H	1.084716	0.012168	0.587101
H55	H	0.879935	0.239649	0.587107
H56	H	0.879919	0.239653	0.412973
C57	C	0.552827	0.304121	0.000042
C58	C	0.609753	0.328406	-0.079137
C59	C	0.646685	0.421756	-0.079129
C60	C	0.626691	0.490822	0.000057
C61	C	0.569762	0.466539	0.079242
C62	C	0.532830	0.373189	0.079234
H63	H	0.624557	0.277277	-0.137760
H64	H	0.688828	0.439731	-0.137747
H65	H	0.654031	0.559925	0.000063
H66	H	0.554959	0.517668	0.137865
H67	H	0.490688	0.355214	0.137852
H68	H	0.385903	0.276809	0.000046
