data_functionalizedCrystal
_audit_creation_method	'MofGen! by Chris Wilmer'
_symmetry_space_group_name_H-M	'P1'
_symmetry_Int_Tables_number	1
_symmetry_cell_setting	triclinic
loop_
_symmetry_equiv_pos_as_xyz
  x,y,z
_cell_length_a	15.995350
_cell_length_b	17.038272
_cell_length_c	14.472310
_cell_angle_alpha	89.999298
_cell_angle_beta	89.990621
_cell_angle_gamma	87.301966
loop_
_atom_site_label
_atom_site_type_symbol
_atom_site_fract_x
_atom_site_fract_y
_atom_site_fract_z
O1	O	1.118175	0.100774	-0.076763
O2	O	1.618175	0.600774	0.423237
O3	O	0.875286	0.113219	-0.076782
O4	O	1.375286	0.613219	0.423218
O5	O	0.995287	-0.006819	-0.076766
O6	O	1.495287	0.493181	0.423234
O7	O	0.998174	0.220812	-0.076780
O8	O	1.498174	0.720812	0.423220
O9	O	0.995254	-0.006812	0.076916
O10	O	1.495254	0.493188	0.576916
O11	O	0.875253	0.113226	0.076900
O12	O	1.375253	0.613226	0.576900
O13	O	1.118142	0.100781	0.076919
O14	O	1.618142	0.600781	0.576919
Cu15	Cu	0.996695	0.107004	0.090942
Cu16	Cu	1.496695	0.607004	0.590942
Cu17	Cu	0.996733	0.106996	-0.090805
Cu18	Cu	1.496733	0.606996	0.409195
O19	O	0.998141	0.220819	0.076902
O20	O	1.498141	0.720819	0.576902
C21	C	0.844038	0.112708	0.000056
C22	C	1.344038	0.612708	0.500056
C23	C	0.750978	0.111165	0.000049
C24	C	1.250978	0.611165	0.500049
C25	C	0.412836	0.105626	0.000069
C26	C	0.912836	0.605626	0.500069
C27	C	0.454180	0.020137	0.000417
C28	C	0.954180	0.520137	0.500417
C29	C	0.550981	0.021680	0.000064
C30	C	1.050981	0.521680	0.500064
C31	C	0.580592	0.108374	0.000060
C32	C	1.080592	0.608374	0.500060
C33	C	0.542527	0.150536	-0.087699
C34	C	1.042527	0.650536	0.412301
C35	C	0.445739	0.148388	-0.087766
C36	C	0.945739	0.648388	0.412234
C37	C	0.445488	0.150162	0.086999
C38	C	0.945488	0.650162	0.586999
C39	C	0.542432	0.150142	0.088152
C40	C	1.042432	0.650142	0.588152
C41	C	0.675401	0.109931	0.000051
C42	C	1.175401	0.609931	0.500051
C43	C	0.318027	0.104071	0.000071
C44	C	0.818027	0.604071	0.500071
C45	C	0.992645	-0.035945	0.000075
C46	C	1.492645	0.464055	0.500075
C47	C	0.984810	-0.122740	0.000074
C48	C	1.484810	0.377260	0.500074
C49	C	1.056739	-0.172836	0.000081
C50	C	1.556739	0.327164	0.500081
C51	C	1.049373	-0.254389	0.000072
C52	C	1.549373	0.245611	0.500072
C53	C	0.970077	-0.285843	0.000062
C54	C	1.470077	0.214157	0.500062
C55	C	0.898143	-0.235740	0.000053
C56	C	1.398143	0.264260	0.500053
C57	C	0.905510	-0.154189	0.000056
C58	C	1.405510	0.345811	0.500056
C59	C	0.944051	-0.531607	0.000047
C60	C	1.444051	-0.031607	0.500047
C61	C	0.936689	-0.613164	0.000048
C62	C	1.436689	-0.113164	0.500048
C63	C	1.087920	-0.631807	0.000065
C64	C	1.587920	-0.131807	0.500065
C65	C	1.095280	-0.550254	0.000073
C66	C	1.595280	-0.050254	0.500073
C67	C	1.023346	-0.500158	0.000059
C68	C	1.523346	-0.000158	0.500059
C69	C	0.962546	-0.369202	0.000056
C70	C	1.462546	0.130798	0.500056
C71	C	1.030878	-0.416801	0.000059
C72	C	1.530878	0.083199	0.500059
C73	C	1.149390	0.101292	0.000078
C74	C	1.649390	0.601292	0.500078
C75	C	1.242450	0.102834	0.000079
C76	C	1.742450	0.602834	0.500079
C77	C	1.000784	0.249944	0.000059
C78	C	1.500784	0.749944	0.500059
C79	C	1.008618	0.336739	0.000054
C80	C	1.508618	0.836739	0.500054
N81	N	0.996674	0.107009	0.218773
N82	N	1.496674	0.607009	0.718773
N83	N	0.996761	0.106984	-0.218636
N84	N	1.496761	0.606984	0.281364
C85	C	0.996732	0.106993	0.592864
C86	C	1.496732	0.606993	1.092864
C87	C	0.932276	0.171007	0.553689
C88	C	1.432276	0.671007	1.053689
C89	C	0.932452	0.171241	0.446601
C90	C	1.432452	0.671241	0.946601
C91	C	0.996702	0.107001	0.407273
C92	C	1.496702	0.607001	0.907273
C93	C	1.085336	0.124819	0.446115
C94	C	1.585336	0.624819	0.946115
C95	C	1.084981	0.125274	0.553237
C96	C	1.584981	0.625274	1.053237
C97	C	0.973320	0.024970	0.553397
C98	C	1.473320	0.524970	1.053397
C99	C	0.971356	0.025517	0.446269
C100	C	1.471356	0.525517	0.946269
C101	C	0.996691	0.107004	0.302385
C102	C	1.496691	0.607004	0.802385
C103	C	0.996749	0.106991	0.697752
C104	C	1.496749	0.606991	1.197752
H105	H	0.568829	0.121246	-0.153008
H106	H	1.068829	0.621246	0.346992
O107	O	0.425030	-0.024929	-0.082476
O108	O	0.925030	0.475071	0.417524
H109	H	0.454579	-0.085187	-0.081559
H110	H	0.954579	0.414813	0.418441
O111	O	0.877023	-0.403134	0.000051
O112	O	1.377023	0.096866	0.500051
H113	H	0.828238	-0.354600	0.000044
H114	H	1.328238	0.145400	0.500044
O115	O	1.142266	-0.138913	0.000093
O116	O	1.642266	0.361087	0.500093
H117	H	1.149249	-0.102198	-0.062540
H118	H	1.649249	0.397802	0.437460
O119	O	0.812617	-0.269665	0.000053
O120	O	1.312617	0.230335	0.500053
H121	H	0.805656	-0.306381	-0.062579
H122	H	1.305656	0.193619	0.437421
H123	H	0.947652	0.231532	0.580596
H124	H	1.447652	0.731532	1.080596
O125	O	0.568750	0.233885	0.095171
O126	O	1.068750	0.733885	0.595171
H127	H	0.512357	0.274412	0.094313
H128	H	1.012357	0.774412	0.594313
H129	H	1.020257	-0.022668	0.578729
H130	H	1.520257	0.477332	1.078729
O131	O	0.409358	0.233650	0.087799
O132	O	0.909358	0.733650	0.587799
H133	H	0.368342	0.243416	0.026619
H134	H	0.868342	0.743416	0.526619
H135	H	1.107945	-0.295174	0.000079
H136	H	1.607945	0.204826	0.500079
H137	H	1.159850	-0.524651	0.000081
H138	H	1.659850	-0.024651	0.500081
H139	H	0.866382	0.160566	0.579472
H140	H	1.366382	0.660566	1.079472
O141	O	0.585503	-0.022210	0.083399
O142	O	1.085503	0.477790	0.583399
H143	H	0.533050	-0.044735	0.124312
H144	H	1.033050	0.455265	0.624312
O145	O	0.851160	-0.647095	0.000044
O146	O	1.351160	-0.147095	0.500044
H147	H	0.844208	-0.683815	-0.062587
H148	H	1.344208	-0.183815	0.437413
H149	H	0.576475	-0.011692	-0.062951
H150	H	1.076475	0.488308	0.437049
O151	O	0.845427	0.157194	0.411812
O152	O	1.345427	0.657194	0.911812
H153	H	0.822620	0.208057	0.369354
H154	H	1.322620	0.708057	0.869354
H155	H	0.885477	-0.490828	0.000036
H156	H	1.385477	0.009172	0.500036
O157	O	0.827932	-0.100150	0.000058
O158	O	1.327932	0.399850	0.500058
H159	H	0.771554	-0.135721	0.000062
H160	H	1.271554	0.364279	0.500062
H161	H	0.948007	0.232108	0.420964
H162	H	1.448007	0.732108	0.920964
H163	H	1.146484	-0.672604	0.000074
H164	H	1.646484	-0.172604	0.500074
H165	H	0.433211	-0.014032	0.063353
H166	H	0.933211	0.485968	0.563353
H167	H	1.095440	-0.391187	0.000046
H168	H	1.595440	0.108813	0.500046
O169	O	1.111132	0.204507	0.586329
O170	O	1.611132	0.704507	1.086329
H171	H	1.123907	0.242140	0.525822
H172	H	1.623907	0.742140	1.025822
H173	H	0.425254	0.117636	-0.153365
H174	H	0.925254	0.617636	0.346635
O175	O	0.408934	0.231521	-0.093065
O176	O	0.908934	0.731521	0.406935
H177	H	0.460282	0.273077	-0.095576
H178	H	0.960282	0.773077	0.404424
H179	H	1.134751	0.080487	0.579149
H180	H	1.634751	0.580487	1.079149
O181	O	0.567249	0.234902	-0.092044
O182	O	1.067249	0.734902	0.407956
H183	H	0.607027	0.247705	-0.031556
H184	H	1.107027	0.747705	0.468444
H185	H	1.134688	0.079434	0.420639
H186	H	1.634688	0.579434	0.920639
H187	H	1.105401	0.183955	0.419276
H188	H	1.605401	0.683955	0.919276
O189	O	0.889132	0.002284	0.589204
O190	O	1.389132	0.502284	1.089204
H191	H	0.863035	0.049224	0.635536
H192	H	1.363035	0.549224	1.135536
H193	H	1.014806	-0.024352	0.419501
H194	H	1.514806	0.475648	0.919501
O195	O	0.415653	0.113141	0.175117
O196	O	0.915653	0.613141	0.675117
H197	H	0.377213	0.062579	0.157933
H198	H	0.877213	0.562579	0.657933
H199	H	0.906126	0.011995	0.420882
H200	H	1.406126	0.511995	0.920882
H201	H	0.567542	0.119364	0.153076
H202	H	1.067542	0.619364	0.653076
