data_functionalizedCrystal
_audit_creation_method	'MofGen! by Chris Wilmer'
_symmetry_space_group_name_H-M	'P1'
_symmetry_Int_Tables_number	1
_symmetry_cell_setting	triclinic
loop_
_symmetry_equiv_pos_as_xyz
  x,y,z
_cell_length_a	11.026607
_cell_length_b	10.540539
_cell_length_c	9.482900
_cell_angle_alpha	99.430988
_cell_angle_beta	78.636152
_cell_angle_gamma	96.555754
loop_
_atom_site_label
_atom_site_type_symbol
_atom_site_fract_x
_atom_site_fract_y
_atom_site_fract_z
O1	O	1.633556	0.517017	-0.120883
O2	O	1.279725	0.456370	-0.120886
O3	O	1.464712	0.303756	-0.120883
O4	O	1.448568	0.669632	-0.120886
O5	O	1.427139	0.334914	0.120909
O6	O	1.242151	0.487529	0.120905
O7	O	1.595982	0.548176	0.120909
Cu8	Cu	1.415636	0.520697	0.142985
Cu9	Cu	1.460071	0.483849	-0.142962
O10	O	1.410994	0.700790	0.120905
C11	C	1.215630	0.460761	0.000009
C12	C	1.080627	0.427408	0.000008
C13	C	1.007620	0.519500	0.000006
C14	C	0.868087	0.485031	0.000004
C15	C	1.444715	0.271766	0.000011
C16	C	1.441094	0.130024	0.000003
C17	C	1.302374	-0.083877	-0.000541
C18	C	1.305961	0.063616	0.000003
C19	C	1.484669	0.100404	0.138078
C20	C	1.480039	-0.047136	0.138195
C21	C	1.525516	-0.082485	-0.136768
C22	C	1.527044	0.064534	-0.138593
C23	C	1.660077	0.543785	0.000010
C24	C	1.795082	0.577136	0.000002
C25	C	1.430992	0.732779	0.000009
C26	C	1.434615	0.874520	0.000007
N27	N	1.384391	0.546616	0.344104
N28	N	1.491325	0.457922	-0.344082
C29	C	1.450847	0.491485	0.416305
C30	C	1.424860	0.513061	0.583722
H31	H	0.827302	0.380657	-0.000032
H32	H	0.835869	0.681507	0.000011
N33	N	1.600727	-0.079582	0.146101
N34	N	1.650395	-0.030734	0.252308
H35	H	1.735627	-0.053643	0.257904
H36	H	1.623266	-0.108451	-0.137695
H37	H	1.423527	0.146349	0.240829
H38	H	1.048415	0.623863	0.000013
N39	N	1.029465	0.296479	-0.000021
N40	N	1.068406	0.211441	-0.101947
H41	H	1.032275	0.118969	-0.101970
N42	N	1.288864	0.625859	0.422008
N43	N	1.179035	0.596525	0.405142
H44	H	1.111564	0.652491	0.460158
N45	N	1.399603	-0.079025	0.267663
N46	N	1.288240	-0.055384	0.292163
H47	H	1.231426	-0.077898	0.383602
H48	H	1.498043	-0.137104	-0.241420
N49	N	1.261058	0.086988	-0.124165
N50	N	1.226841	-0.005773	-0.211831
H51	H	1.195119	0.010726	-0.299526
H52	H	1.264380	-0.136929	-0.099558
N53	N	1.586829	0.378657	0.577978
N54	N	1.607802	0.361234	0.442090
H55	H	1.675250	0.305252	0.387041
H56	H	1.233910	-0.113041	0.097919
N57	N	1.487339	0.086362	-0.266715
N58	N	1.485984	0.199037	-0.291444
H59	H	1.457937	0.214470	-0.381923
N60	N	1.221990	0.117858	0.124381
N61	N	1.160557	0.046773	0.211060
H62	H	1.101250	0.085080	0.298910
N63	N	1.608163	0.156543	0.144506
N64	N	1.665572	0.219161	0.047164
H65	H	1.752792	0.258811	0.051698
H66	H	1.526977	0.428305	0.354178
N67	N	1.652260	0.120655	-0.149028
N68	N	1.711036	0.117203	-0.049863
H69	H	1.799471	0.156845	-0.057219
N70	N	1.329337	0.592302	0.661665
N71	N	1.308358	0.609712	0.797553
H72	H	1.240895	0.665673	0.852604
