data_functionalizedCrystal
_audit_creation_method	'MofGen! by Chris Wilmer'
_symmetry_space_group_name_H-M	'P1'
_symmetry_Int_Tables_number	1
_symmetry_cell_setting	triclinic
loop_
_symmetry_equiv_pos_as_xyz
  x,y,z
_cell_length_a	27.732048
_cell_length_b	19.188930
_cell_length_c	17.666332
_cell_angle_alpha	90.023234
_cell_angle_beta	89.988553
_cell_angle_gamma	97.106284
loop_
_atom_site_label
_atom_site_type_symbol
_atom_site_fract_x
_atom_site_fract_y
_atom_site_fract_z
O1	O	0.060348	-0.925765	-0.063200
O2	O	0.560348	-0.425765	0.436800
O3	O	0.068472	-0.722402	-0.063149
O4	O	0.568472	-0.222402	0.436851
O5	O	-0.005968	-0.830399	-0.063161
O6	O	0.494032	-0.330399	0.436839
O7	O	0.134787	-0.817767	-0.063187
O8	O	0.634787	-0.317767	0.436813
O9	O	-0.005971	-0.830380	0.062735
O10	O	0.494029	-0.330380	0.562735
O11	O	0.068468	-0.722383	0.062748
O12	O	0.568468	-0.222383	0.562748
O13	O	0.060344	-0.925746	0.062697
O14	O	0.560344	-0.425746	0.562697
Cu15	Cu	0.064406	-0.824063	0.074218
Cu16	Cu	0.564406	-0.324063	0.574218
Cu17	Cu	0.064410	-0.824085	-0.074670
Cu18	Cu	0.564410	-0.324085	0.425330
O19	O	0.134783	-0.817748	0.062710
O20	O	0.634783	-0.317748	0.562710
C21	C	0.068207	-0.696383	-0.000194
C22	C	0.568207	-0.196383	0.499806
C23	C	0.067417	-0.618883	-0.000174
C24	C	0.567417	-0.118883	0.499826
C25	C	-0.023977	-0.830125	-0.000211
C26	C	0.476023	-0.330125	0.499789
C27	C	-0.077635	-0.829326	-0.000204
C28	C	0.422365	-0.329326	0.499796
C29	C	0.060609	-0.951765	-0.000260
C30	C	0.560609	-0.451765	0.499740
C31	C	0.061399	-1.029264	-0.000285
C32	C	0.561399	-0.529264	0.499715
C33	C	-0.416270	-0.888119	-0.000258
C34	C	0.083730	-0.388119	0.499742
C35	C	-0.617939	-0.885157	-0.000268
C36	C	-0.117939	-0.385157	0.499732
O37	O	-0.649030	-0.938918	-0.000314
O38	O	-0.149030	-0.438918	0.499686
N39	N	-0.637258	-0.821118	-0.000251
N40	N	-0.137258	-0.321118	0.499749
C41	C	-0.606157	-0.757816	-0.000237
C42	C	-0.106157	-0.257816	0.499763
O43	O	-0.627217	-0.703280	-0.000231
O44	O	-0.127217	-0.203280	0.499769
C45	C	-0.404489	-0.760780	-0.000233
C46	C	0.095511	-0.260780	0.499767
C47	C	-0.385173	-0.824822	-0.000242
C48	C	0.114827	-0.324822	0.499758
C49	C	-0.396953	-0.952156	-0.000268
C50	C	0.103047	-0.452156	0.499732
C51	C	-0.346539	-0.952896	-0.000261
C52	C	0.153461	-0.452896	0.499739
C53	C	-0.315441	-0.889599	-0.000245
C54	C	0.184559	-0.389599	0.499755
C55	C	-0.334759	-0.825562	-0.000235
C56	C	0.165241	-0.325562	0.499765
C57	C	-0.373389	-0.697478	-0.000224
C58	C	0.126611	-0.197478	0.499776
C59	C	-0.322969	-0.698225	-0.000225
C60	C	0.177031	-0.198225	0.499775
C61	C	-0.303653	-0.762267	-0.000234
C62	C	0.196347	-0.262267	0.499766
C63	C	-0.253247	-0.763005	-0.000212
C64	C	0.246753	-0.263005	0.499788
N65	N	-0.233928	-0.827043	-0.000229
N66	N	0.266072	-0.327043	0.499771
C67	C	-0.265025	-0.890340	-0.000245
C68	C	0.234975	-0.390340	0.499755
C69	C	-0.712036	-0.756265	-0.000238
C70	C	-0.212036	-0.256265	0.499762
C71	C	-0.762452	-0.755524	-0.000238
C72	C	-0.262452	-0.255524	0.499762
C73	C	-0.774231	-0.882865	-0.000270
C74	C	-0.274231	-0.382865	0.499730
C75	C	-0.723813	-0.883605	-0.000265
C76	C	-0.223813	-0.383605	0.499735
C77	C	-0.692716	-0.820303	-0.000254
C78	C	-0.192716	-0.320303	0.499746
C79	C	-0.159151	-0.891889	-0.000231
C80	C	0.340849	-0.391889	0.499769
C81	C	-0.108732	-0.892623	-0.000221
C82	C	0.391268	-0.392623	0.499779
C83	C	-0.096958	-0.765283	-0.000193
C84	C	0.403042	-0.265283	0.499807
C85	C	-0.147373	-0.764549	-0.000198
C86	C	0.352627	-0.264549	0.499802
C87	C	-0.178468	-0.827857	-0.000220
C88	C	0.321532	-0.327857	0.499780
O89	O	-0.222127	-0.709272	-0.000174
O90	O	0.277873	-0.209272	0.499826
O91	O	-0.243956	-0.944868	-0.000268
O92	O	0.256044	-0.444868	0.499732
C93	C	-0.466684	-0.887379	-0.000265
C94	C	0.033316	-0.387379	0.499735
C95	C	-0.486001	-0.823342	-0.000255
C96	C	0.013999	-0.323342	0.499745
C97	C	-0.454904	-0.760045	-0.000238
C98	C	0.045096	-0.260045	0.499762
C99	C	-0.536418	-0.822601	-0.000254
C100	C	-0.036418	-0.322601	0.499746
C101	C	-0.567515	-0.885898	-0.000271
C102	C	-0.067515	-0.385898	0.499729
C103	C	-0.548195	-0.949936	-0.000288
C104	C	-0.048195	-0.449936	0.499712
C105	C	-0.497781	-0.950676	-0.000281
C106	C	0.002219	-0.450676	0.499719
C107	C	-0.474223	-0.696007	-0.000222
C108	C	0.025777	-0.196007	0.499778
C109	C	-0.524638	-0.695272	-0.000227
C110	C	-0.024638	-0.195272	0.499773
C111	C	-0.555735	-0.758569	-0.000244
C112	C	-0.055735	-0.258569	0.499756
C113	C	0.152793	-0.818023	-0.000243
C114	C	0.652793	-0.318023	0.499757
C115	C	0.206450	-0.818821	-0.000254
C116	C	0.706450	-0.318821	0.499746
N117	N	0.064402	-0.824052	0.178937
N118	N	0.564402	-0.324052	0.678937
C119	C	0.111096	-0.573681	-0.000194
C120	C	0.611096	-0.073681	0.499806
C121	C	0.110354	-0.500862	-0.000202
C122	C	0.610354	-0.000862	0.499798
C123	C	0.065931	-0.473249	-0.000205
C124	C	0.565931	0.026751	0.499795
C125	C	0.022246	-0.518461	-0.000181
C126	C	0.522246	-0.018461	0.499819
C127	C	0.022990	-0.591278	-0.000165
C128	C	0.522990	-0.091278	0.499835
N129	N	0.031976	-0.365491	-0.043078
N130	N	0.531976	0.134509	0.456922
N131	N	0.031273	-0.296317	-0.043094
N132	N	0.531273	0.203683	0.456906
C133	C	0.063689	-0.253854	-0.000251
C134	C	0.563689	0.246146	0.499749
N135	N	0.096841	-0.283177	0.042600
N136	N	0.596841	0.216823	0.542600
N137	N	0.097546	-0.352357	0.042613
N138	N	0.597546	0.147643	0.542613
C139	C	0.065120	-0.394291	-0.000222
C140	C	0.565120	0.105709	0.499778
C141	C	0.106566	-0.129692	-0.000279
C142	C	0.606566	0.370308	0.499721
C143	C	0.105822	-0.056872	-0.000282
C144	C	0.605822	0.443128	0.499718
C145	C	0.017714	-0.074473	-0.000269
C146	C	0.517714	0.425527	0.499731
C147	C	0.018459	-0.147292	-0.000258
C148	C	0.518459	0.352708	0.499742
C149	C	0.062886	-0.174897	-0.000267
C150	C	0.562886	0.325103	0.499733
N151	N	0.064410	-0.824101	-0.179389
N152	N	0.564410	-0.324101	0.320611
C153	C	0.031456	-0.871889	0.218541
C154	C	0.531456	-0.371889	0.718541
C155	C	0.031454	-0.871893	0.297789
C156	C	0.531454	-0.371893	0.797789
C157	C	0.064406	-0.824067	0.337429
C158	C	0.564406	-0.324067	0.837429
C159	C	0.097354	-0.776221	0.297816
C160	C	0.597354	-0.276221	0.797816
C161	C	0.097352	-0.776214	0.218570
C162	C	0.597352	-0.276214	0.718570
N163	N	0.107196	-0.814718	0.461842
N164	N	0.607196	-0.314718	0.961842
N165	N	0.107196	-0.814729	0.537122
N166	N	0.607196	-0.314729	1.037122
C167	C	0.064412	-0.824085	0.576193
C168	C	0.564412	-0.324085	1.076193
N169	N	0.021627	-0.833444	0.537140
N170	N	0.521627	-0.333444	1.037140
N171	N	0.021628	-0.833436	0.461853
N172	N	0.521628	-0.333436	0.961853
C173	C	0.064411	-0.824069	0.423359
C174	C	0.564411	-0.324069	0.923359
C175	C	0.031462	-0.871929	0.701727
C176	C	0.531462	-0.371929	1.201727
C177	C	0.031459	-0.871928	0.780976
C178	C	0.531459	-0.371928	1.280976
C179	C	0.097363	-0.776260	0.781001
C180	C	0.597363	-0.276260	1.281001
C181	C	0.097361	-0.776257	0.701754
C182	C	0.597361	-0.276257	1.201754
C183	C	0.064411	-0.824096	0.662121
C184	C	0.564411	-0.324096	1.162121
H185	H	-0.093007	-0.944776	-0.000226
H186	H	0.406993	-0.444776	0.499774
H187	H	0.147272	-0.596152	-0.000202
H188	H	0.647272	-0.096152	0.499798
F189	F	-0.003613	-0.922810	0.339946
F190	F	0.496387	-0.422810	0.839946
H191	H	0.124191	-0.737317	0.813276
H192	H	0.624191	-0.237317	1.313276
H193	H	-0.013923	-0.495974	-0.000195
H194	H	0.486077	0.004026	0.499805
F195	F	-0.807335	-0.950230	-0.000289
F196	F	-0.307335	-0.450230	0.499711
H197	H	0.124191	-0.737307	0.669506
H198	H	0.624191	-0.237307	1.169506
F199	F	-0.192238	-0.959269	-0.000254
F200	F	0.307762	-0.459269	0.499746
H201	H	0.142741	-0.152169	-0.000275
H202	H	0.642741	0.347831	0.499725
H203	H	-0.778175	-0.703375	-0.000217
H204	H	-0.278175	-0.203375	0.499783
H205	H	-0.330816	-1.005046	-0.000272
H206	H	0.169184	-0.505046	0.499728
F207	F	-0.003613	-0.922799	0.176363
F208	F	0.496387	-0.422799	0.676363
F209	F	0.132422	-0.725319	0.340004
F210	F	0.632422	-0.225319	0.840004
F211	F	0.132419	-0.725298	0.176418
F212	F	0.632419	-0.225298	0.676418
H213	H	0.145923	-0.464051	-0.000216
H214	H	0.645923	0.035949	0.499784
F215	F	-0.003609	-0.922840	0.659546
F216	F	0.496391	-0.422840	1.159546
F217	F	-0.581300	-1.017302	-0.000301
F218	F	-0.081300	-0.517302	0.499699
F219	F	-0.028031	-0.195402	-0.000241
F220	F	0.471969	0.304598	0.499759
F221	F	-0.289877	-0.630849	-0.000215
F222	F	0.210123	-0.130849	0.499785
F223	F	-0.003611	-0.922841	0.823127
F224	F	0.496389	-0.422841	1.323127
F225	F	-0.430042	-1.019532	-0.000286
F226	F	0.069958	-0.519532	0.499714
H227	H	-0.018456	-0.051991	-0.000319
H228	H	0.481544	0.448009	0.499681
F229	F	-0.703260	-0.951766	-0.000274
F230	F	-0.203260	-0.451766	0.499726
H231	H	-0.012580	-0.628083	-0.000150
H232	H	0.487420	-0.128083	0.499850
H233	H	-0.686720	-0.704714	-0.000229
H234	H	-0.186720	-0.204714	0.499771
H235	H	0.141392	-0.020068	-0.000294
H236	H	0.641392	0.479932	0.499706
H237	H	-0.389107	-0.645328	-0.000221
H238	H	0.110893	-0.145328	0.499779
F239	F	-0.167932	-0.696388	-0.000175
F240	F	0.332068	-0.196388	0.499825
H241	H	-0.482059	-1.002826	-0.000289
H242	H	0.017941	-0.502826	0.499711
F243	F	-0.063854	-0.697922	-0.000175
F244	F	0.436146	-0.197922	0.499825
H245	H	-0.448908	-0.644461	-0.000210
H246	H	0.051092	-0.144461	0.499790
F247	F	-0.545190	-0.627105	-0.000213
F248	F	-0.045190	-0.127105	0.499787
