data_functionalizedCrystal
_audit_creation_method	'MofGen! by Chris Wilmer'
_symmetry_space_group_name_H-M	'P1'
_symmetry_Int_Tables_number	1
_symmetry_cell_setting	triclinic
loop_
_symmetry_equiv_pos_as_xyz
  x,y,z
_cell_length_a	11.169417
_cell_length_b	15.297327
_cell_length_c	11.169409
_cell_angle_alpha	99.639791
_cell_angle_beta	89.980487
_cell_angle_gamma	99.707539
loop_
_atom_site_label
_atom_site_type_symbol
_atom_site_fract_x
_atom_site_fract_y
_atom_site_fract_z
Zn1	Zn	1.752168	-0.359055	-0.761120
Zn2	Zn	2.252168	0.140945	-0.261120
Zn3	Zn	1.717263	-0.509948	-0.595144
Zn4	Zn	2.217263	-0.009948	-0.095144
Zn5	Zn	1.551441	-0.359111	-0.560468
Zn6	Zn	2.051441	0.140889	-0.060468
Zn7	Zn	1.516684	-0.509875	-0.795773
Zn8	Zn	2.016684	-0.009875	-0.295773
O9	O	1.634389	-0.434497	-0.678126
O10	O	2.134389	0.065503	-0.178126
O11	O	1.915486	-0.379078	-0.739112
O12	O	2.415486	0.120922	-0.239112
O13	O	1.695205	-0.489993	-0.422607
O14	O	2.195205	0.010007	0.077393
O15	O	1.607222	-0.232859	-0.558071
O16	O	2.107222	0.267141	-0.058071
O17	O	1.889842	-0.489939	-0.617170
O18	O	2.389842	0.010061	-0.117170
O19	O	1.754695	-0.232818	-0.705488
O20	O	2.254695	0.267182	-0.205488
O21	O	1.573376	-0.379174	-0.397131
O22	O	2.073376	0.120826	0.102869
O23	O	1.378883	-0.379103	-0.591673
O24	O	1.878883	0.120897	-0.091673
O25	O	1.547983	-0.489815	-0.959114
O26	O	2.047983	0.010185	-0.459114
O27	O	1.353347	-0.489869	-0.764550
O28	O	1.853347	0.010131	-0.264550
O29	O	1.720993	-0.379008	-0.933654
O30	O	2.220993	0.120992	-0.433654
O31	O	1.661503	-0.636183	-0.650772
O32	O	2.161503	-0.136183	-0.150772
O33	O	1.514138	-0.636130	-0.798174
O34	O	2.014138	-0.136130	-0.298174
C35	C	1.322567	-0.434485	-0.678110
C36	C	1.822567	0.065515	-0.178110
C37	C	1.189164	-0.434502	-0.678136
C38	C	1.689164	0.065498	-0.178136
C39	C	1.580293	-0.668890	-0.732022
C40	C	2.080293	-0.168890	-0.232022
C41	C	1.557261	-0.769164	-0.755119
C42	C	2.057261	-0.269164	-0.255119
C43	C	1.799502	-1.051806	-0.513457
C44	C	2.299502	-0.551806	-0.013457
C45	C	1.821141	-0.957593	-0.491750
C46	C	2.321141	-0.457593	0.008250
C47	C	1.755174	-0.910481	-0.557591
C48	C	2.255174	-0.410481	-0.057591
C49	C	1.667561	-0.957591	-0.645142
C50	C	2.167561	-0.457591	-0.145142
C51	C	1.645913	-1.051813	-0.666844
C52	C	2.145913	-0.551813	-0.166844
C53	C	1.601585	-0.910488	-0.710978
C54	C	2.101585	-0.410488	-0.210978
C55	C	1.513973	-0.957598	-0.798529
C56	C	2.013973	-0.457598	-0.298529
C57	C	1.492329	-1.051811	-0.820228
C58	C	1.992329	-0.551811	-0.320228
C59	C	1.558297	-1.098923	-0.754387
C60	C	2.058297	-0.598923	-0.254387
C61	C	1.623233	-0.816267	-0.689275
C62	C	2.123233	-0.316267	-0.189275
C63	C	1.469645	-0.816274	-0.842662
C64	C	1.969645	-0.316274	-0.342662
C65	C	1.448005	-0.910486	-0.864369
C66	C	1.948005	-0.410486	-0.364369
C67	C	1.947429	-0.434510	-0.678144
C68	C	2.447429	0.065490	-0.178144
C69	C	2.080827	-0.434516	-0.678151
C70	C	2.580827	0.065484	-0.178151
C71	C	1.634505	-0.434397	-0.991146
C72	C	2.134505	0.065603	-0.491146
C73	C	1.634554	-0.434355	-1.124536
C74	C	2.134554	0.065645	-0.624536
C75	C	1.688729	-0.199190	-0.624046
C76	C	2.188729	0.300810	-0.124046
C77	C	1.711885	-0.098915	-0.601000
C78	C	2.211885	0.401085	-0.101000
C79	C	1.634359	-0.434532	-0.366310
C80	C	2.134359	0.065468	0.133690
C81	C	1.634601	-0.434321	-0.232861
C82	C	2.134601	0.065679	0.267139
H83	H	1.694567	-0.777918	-0.617990
H84	H	2.194567	-0.277918	-0.117990
H85	H	1.376670	-0.948857	-0.935654
H86	H	1.876670	-0.448857	-0.435654
H87	H	1.772797	-0.833769	-0.539911
H88	H	2.272797	-0.333769	-0.039911
Br89	Br	1.940048	-0.893664	-0.372947
Br90	Br	2.440048	-0.393664	0.127053
Br91	Br	1.528394	-1.226787	-0.783305
Br92	Br	2.028394	-0.726787	-0.283305
Br93	Br	1.889013	-1.115746	-0.424107
Br94	Br	2.389013	-0.615746	0.075893
H95	H	1.415925	-0.777916	-0.896273
H96	H	1.915925	-0.277916	-0.396273
Br97	Br	1.373419	-1.115744	-0.939038
Br98	Br	1.873419	-0.615744	-0.439038
