data_functionalizedCrystal
_audit_creation_method	'MofGen! by Chris Wilmer'
_symmetry_space_group_name_H-M	'P1'
_symmetry_Int_Tables_number	1
_symmetry_cell_setting	triclinic
loop_
_symmetry_equiv_pos_as_xyz
  x,y,z
_cell_length_a	11.792254
_cell_length_b	10.868271
_cell_length_c	17.699092
_cell_angle_alpha	90.003449
_cell_angle_beta	83.742483
_cell_angle_gamma	90.004259
loop_
_atom_site_label
_atom_site_type_symbol
_atom_site_fract_x
_atom_site_fract_y
_atom_site_fract_z
O1	O	1.505661	0.102316	0.103782
O2	O	1.838994	0.435650	0.437115
O3	O	2.172327	0.768983	0.770449
O4	O	1.175194	0.102318	0.114463
O5	O	1.508527	0.435652	0.447796
O6	O	1.841860	0.768985	0.781130
O7	O	1.349759	0.102314	-0.001016
O8	O	1.683092	0.435648	0.332317
O9	O	2.016425	0.768981	0.665650
O10	O	1.331096	0.102320	0.219261
O11	O	1.664429	0.435654	0.552594
O12	O	1.997762	0.768987	0.885928
O13	O	1.349744	-0.102330	-0.001021
O14	O	1.683078	0.231003	0.332312
O15	O	2.016411	0.564336	0.665646
O16	O	1.175179	-0.102326	0.114458
O17	O	1.508513	0.231007	0.447792
O18	O	1.841846	0.564340	0.781125
O19	O	1.505646	-0.102328	0.103777
O20	O	1.838980	0.231005	0.437111
O21	O	2.172313	0.564338	0.770444
Zn22	Zn	1.340411	-0.134819	0.109117
Zn23	Zn	1.673744	0.198514	0.442450
Zn24	Zn	2.007077	0.531848	0.775784
Zn25	Zn	1.340429	0.134809	0.109123
Zn26	Zn	1.673763	0.468142	0.442456
Zn27	Zn	2.007096	0.801476	0.775790
O28	O	1.331081	-0.102324	0.219257
O29	O	1.664415	0.231009	0.552590
O30	O	1.997748	0.564342	0.885923
C31	C	1.132904	-0.000004	0.113788
C32	C	1.466237	0.333330	0.447121
C33	C	1.799571	0.666663	0.780454
C34	C	1.006915	-0.000003	0.111774
C35	C	1.340248	0.333331	0.445107
C36	C	1.673582	0.666664	0.778441
C37	C	0.904598	0.000003	0.110138
C38	C	1.237931	0.333336	0.443471
C39	C	1.571265	0.666669	0.776804
C40	C	0.776236	0.000003	0.108091
C41	C	1.109569	0.333337	0.441425
C42	C	1.442902	0.666670	0.774758
N43	N	1.340406	-0.318833	0.109113
N44	N	1.673739	0.014500	0.442446
N45	N	2.007073	0.347834	0.775779
C46	C	1.340423	-0.569839	0.109121
C47	C	1.673757	-0.236506	0.442455
C48	C	2.007090	0.096827	0.775788
C49	C	1.340410	-0.430162	0.109119
C50	C	1.673743	-0.096828	0.442452
C51	C	2.007077	0.236505	0.775785
C52	C	1.547936	-0.000004	0.104452
C53	C	1.881269	0.333330	0.437786
C54	C	2.214603	0.666663	0.771119
C55	C	1.673925	0.000003	0.106466
C56	C	2.007258	0.333337	0.439800
C57	C	2.340592	0.666670	0.773133
C58	C	1.349081	-0.000006	-0.029219
C59	C	1.682415	0.333327	0.304114
C60	C	2.015748	0.666661	0.637448
C61	C	1.347070	-0.000000	-0.113248
C62	C	1.680404	0.333333	0.220086
C63	C	2.013737	0.666666	0.553419
N64	N	1.340443	0.318823	0.109122
N65	N	1.673776	0.652157	0.442455
N66	N	2.007110	0.985490	0.775788
C67	C	1.346136	0.111553	-0.152718
C68	C	1.679469	0.444886	0.180616
C69	C	2.012803	0.778220	0.513949
C70	C	1.344239	0.111554	-0.231671
C71	C	1.677572	0.444888	0.101663
C72	C	2.010906	0.778221	0.434996
C73	C	1.343285	0.000001	-0.271153
C74	C	1.676618	0.333335	0.062180
C75	C	2.009951	0.666668	0.395514
C76	C	1.344216	-0.111560	-0.231677
C77	C	1.677549	0.221773	0.101656
C78	C	2.010883	0.555106	0.434989
C79	C	1.346105	-0.111561	-0.152725
C80	C	1.679438	0.221773	0.180608
C81	C	2.012771	0.555106	0.513942
C82	C	1.336598	-0.111562	-0.550083
C83	C	1.669931	0.221771	-0.216750
C84	C	2.003264	0.555104	0.116583
C85	C	1.334712	-0.111553	-0.629041
C86	C	1.668046	0.221780	-0.295708
C87	C	2.001379	0.555113	0.037625
C88	C	1.334732	0.111553	-0.629029
C89	C	1.668066	0.444886	-0.295696
C90	C	2.001399	0.778220	0.037638
C91	C	1.336621	0.111553	-0.550077
C92	C	1.669954	0.444886	-0.216743
C93	C	2.003287	0.778219	0.116590
C94	C	1.337546	-0.000008	-0.510607
C95	C	1.670879	0.333325	-0.177274
C96	C	2.004212	0.666658	0.156059
C97	C	1.339600	-0.000009	-0.424997
C98	C	1.672934	0.333325	-0.091664
C99	C	2.006267	0.666658	0.241670
C100	C	1.341238	0.000000	-0.356763
C101	C	1.674572	0.333334	-0.023429
C102	C	2.007905	0.666667	0.309904
C103	C	1.331759	-0.000001	0.247459
C104	C	1.665092	0.333332	0.580793
C105	C	1.998425	0.666665	0.914126
C106	C	1.333770	0.000001	0.331488
C107	C	1.667103	0.333334	0.664821
C108	C	2.000436	0.666668	0.998155
H109	H	1.343483	0.202392	-0.263804
H110	H	1.676816	0.535726	0.069529
H111	H	2.010150	0.869059	0.402863
H112	H	1.337403	0.202391	-0.517934
H113	H	1.670737	0.535724	-0.184601
H114	H	2.004070	0.869057	0.148732
H115	H	1.346919	0.202393	-0.120577
H116	H	1.680252	0.535726	0.212756
H117	H	2.013586	0.869059	0.546089
N118	N	1.337574	-0.225512	-0.509773
N119	N	1.670907	0.107821	-0.176440
N120	N	2.004241	0.441155	0.156894
N121	N	1.418597	-0.250404	-0.472363
N122	N	1.751930	0.082929	-0.139030
N123	N	2.085264	0.416262	0.194303
H124	H	1.419289	-0.330886	-0.443890
H125	H	1.752623	0.002447	-0.110557
H126	H	2.085956	0.335781	0.222776
N127	N	1.347076	-0.225499	-0.112394
N128	N	1.680409	0.107834	0.220939
N129	N	2.013742	0.441168	0.554272
N130	N	1.348762	-0.225485	-0.041902
N131	N	1.682096	0.107849	0.291431
N132	N	2.015429	0.441182	0.624765
H133	H	1.349445	-0.305956	-0.013417
H134	H	1.682778	0.027377	0.319916
H135	H	2.016112	0.360710	0.653249
H136	H	1.333932	-0.202399	-0.661186
H137	H	1.667266	0.130935	-0.327852
H138	H	2.000599	0.464268	0.005481
H139	H	1.333973	0.202391	-0.661174
H140	H	1.667307	0.535725	-0.327841
H141	H	2.000640	0.869058	0.005493
N142	N	1.343228	-0.225500	-0.272016
N143	N	1.676561	0.107834	0.061318
N144	N	2.009895	0.441167	0.394651
N145	N	1.341542	-0.225486	-0.342508
N146	N	1.674876	0.107847	-0.009175
N147	N	2.008209	0.441180	0.324159
H148	H	1.340847	-0.305958	-0.370997
H149	H	1.674180	0.027375	-0.037664
H150	H	2.007513	0.360708	0.295669
