data_functionalizedCrystal
_audit_creation_method	'MofGen! by Chris Wilmer'
_symmetry_space_group_name_H-M	'P1'
_symmetry_Int_Tables_number	1
_symmetry_cell_setting	triclinic
loop_
_symmetry_equiv_pos_as_xyz
  x,y,z
_cell_length_a	14.908979
_cell_length_b	16.959454
_cell_length_c	14.908308
_cell_angle_alpha	93.269679
_cell_angle_beta	96.371071
_cell_angle_gamma	93.321577
loop_
_atom_site_label
_atom_site_type_symbol
_atom_site_fract_x
_atom_site_fract_y
_atom_site_fract_z
Zn1	Zn	1.354242	-0.267982	-0.432053
Zn2	Zn	1.854242	0.232018	0.067947
Zn3	Zn	1.362880	-0.392085	-0.280708
Zn4	Zn	1.862880	0.107915	0.219292
Zn5	Zn	1.211615	-0.268020	-0.289433
Zn6	Zn	1.711615	0.231980	0.210567
Zn7	Zn	1.202851	-0.408223	-0.440740
Zn8	Zn	1.702851	0.091777	0.059260
O9	O	1.282897	-0.334077	-0.360733
O10	O	1.782897	0.165923	0.139267
O11	O	1.482050	-0.277675	-0.404690
O12	O	1.982050	0.222325	0.095310
O13	O	1.350097	-0.368889	-0.155204
O14	O	1.850097	0.131111	0.344796
O15	O	1.230588	-0.157402	-0.308367
O16	O	1.730588	0.342598	0.191633
O17	O	1.488397	-0.368852	-0.293497
O18	O	1.988397	0.131148	0.206503
O19	O	1.335375	-0.157374	-0.413150
O20	O	1.835375	0.342626	0.086850
O21	O	1.238964	-0.277739	-0.161614
O22	O	1.738964	0.222261	0.338386
O23	O	1.083790	-0.293388	-0.316791
O24	O	1.583790	0.206612	0.183209
O25	O	1.215650	-0.396357	-0.566250
O26	O	1.715650	0.103643	-0.066250
O27	O	1.077351	-0.396394	-0.427956
O28	O	1.577351	0.103606	0.072044
O29	O	1.326877	-0.293323	-0.559867
O30	O	1.826877	0.206677	-0.059867
O31	O	1.341599	-0.504838	-0.301921
O32	O	1.841599	-0.004838	0.198079
O33	O	1.224026	-0.516695	-0.419496
O34	O	1.724026	-0.016695	0.080504
C35	C	1.047728	-0.346647	-0.374263
C36	C	1.547728	0.153353	0.125737
C37	C	0.947120	-0.352044	-0.380073
C38	C	1.447120	0.147956	0.119927
C39	C	0.801996	-0.413353	-0.446035
C40	C	1.301996	0.086647	0.053965
C41	C	0.896525	-0.408282	-0.440584
C42	C	1.396525	0.091718	0.059416
C43	C	0.903180	-0.300875	-0.325007
C44	C	1.403180	0.199125	0.174993
C45	C	0.808651	-0.305945	-0.330458
C46	C	1.308651	0.194055	0.169542
C47	C	0.758062	-0.362186	-0.390975
C48	C	1.258062	0.137814	0.109025
C49	C	0.663531	-0.367252	-0.396430
C50	C	1.163531	0.132748	0.103570
C51	C	0.670187	-0.259848	-0.280848
C52	C	1.170187	0.240152	0.219152
C53	C	0.764717	-0.254778	-0.275397
C54	C	1.264717	0.245222	0.224603
C55	C	1.282822	-0.539447	-0.360722
C56	C	1.782822	-0.039447	0.139278
C57	C	1.282871	-0.627302	-0.360743
C58	C	1.782871	-0.127302	0.139257
C59	C	1.221761	-1.004975	-0.421944
C60	C	1.721761	-0.504975	0.078056
C61	C	1.344279	-0.992568	-0.299601
C62	C	1.844279	-0.492568	0.200399
C63	C	1.344248	-0.910024	-0.299594
C64	C	1.844248	-0.410024	0.200406
C65	C	1.282972	-0.874951	-0.360763
C66	C	1.782972	-0.374951	0.139237
C67	C	1.221726	-0.922422	-0.421937
C68	C	1.721726	-0.422422	0.078063
C69	C	1.405487	-0.862546	-0.238414
C70	C	1.905487	-0.362546	0.261586
C71	C	1.405457	-0.779996	-0.238405
C72	C	1.905457	-0.279996	0.261595
C73	C	1.344184	-0.744922	-0.299578
C74	C	1.844184	-0.244922	0.200422
C75	C	1.282937	-0.792399	-0.360756
C76	C	1.782937	-0.292399	0.139244
C77	C	1.221660	-0.757326	-0.421925
C78	C	1.721660	-0.257326	0.078075
C79	C	1.160416	-0.804801	-0.483108
C80	C	1.660416	-0.304801	0.016892
C81	C	1.160453	-0.887348	-0.483111
C82	C	1.660453	-0.387348	0.016889
C83	C	1.344147	-0.662375	-0.299575
C84	C	1.844147	-0.162375	0.200425
C85	C	1.221625	-0.674774	-0.421918
C86	C	1.721625	-0.174774	0.078082
C87	C	1.518984	-0.321459	-0.347151
C88	C	2.018984	0.178541	0.152849
C89	C	1.619590	-0.316082	-0.341363
C90	C	2.119590	0.183918	0.158637
C91	C	1.269322	-0.346636	-0.596819
C92	C	1.769322	0.153364	-0.096819
C93	C	1.263537	-0.351988	-0.697424
C94	C	1.763537	0.148012	-0.197424
C95	C	1.282996	-0.127906	-0.360763
C96	C	1.782996	0.372094	0.139237
C97	C	1.283038	-0.040047	-0.360775
C98	C	1.783038	0.459953	0.139225
C99	C	1.368485	-0.254737	-0.879828
C100	C	1.868485	0.245263	-0.379828
C101	C	1.363052	-0.259763	-0.974356
C102	C	1.863052	0.240237	-0.474356
C103	C	1.247236	-0.367061	-0.981009
C104	C	1.747236	0.132939	-0.481009
C105	C	1.252668	-0.362035	-0.886481
C106	C	1.752668	0.137965	-0.386481
C107	C	1.313296	-0.305872	-0.835894
C108	C	1.813296	0.194128	-0.335894
C109	C	1.318732	-0.300851	-0.741364
C110	C	1.818732	0.199149	-0.241364
C111	C	1.202912	-0.408145	-0.748019
C112	C	1.702912	0.091855	-0.248019
C113	C	1.197480	-0.413170	-0.842547
C114	C	1.697480	0.086830	-0.342547
C115	C	1.296471	-0.321507	-0.125564
C116	C	1.796471	0.178493	0.374436
C117	C	1.302431	-0.315923	-0.024949
C118	C	1.802431	0.184077	0.475051
H119	H	0.944386	-0.255092	-0.275730
H120	H	1.444386	0.244908	0.224270
O121	O	1.181836	-0.427618	-1.035583
O122	O	1.681836	0.072382	-0.535583
H123	H	1.219845	-0.467960	-1.076320
H124	H	1.719845	0.032040	-0.576320
H125	H	1.110521	-0.776236	-0.532908
H126	H	1.610521	-0.276236	-0.032908
H127	H	1.455325	-0.741346	-0.188587
H128	H	1.955325	-0.241346	0.311413
O129	O	1.433877	-0.194173	-0.825254
O130	O	1.933877	0.305827	-0.325254
H131	H	1.417340	-0.133927	-0.844287
H132	H	1.917340	0.366073	-0.344287
O133	O	0.819280	-0.194117	-0.210131
O134	O	1.319280	0.305883	0.289869
H135	H	0.892394	-0.199183	-0.215594
H136	H	1.392394	0.300817	0.284406
H137	H	1.394007	-0.623724	-0.249757
H138	H	1.894007	-0.123724	0.250243
H139	H	1.368099	-0.255121	-0.700177
H140	H	1.868099	0.244879	-0.200177
O141	O	1.422582	-0.204615	-1.021746
O142	O	1.922582	0.295385	-0.521746
H143	H	1.465655	-0.164724	-0.970685
H144	H	1.965655	0.335276	-0.470685
O145	O	1.132087	-0.473742	-0.897109
O146	O	1.632087	0.026258	-0.397109
H147	H	1.137581	-0.468648	-0.970222
H148	H	1.637581	0.031352	-0.470222
H149	H	1.157975	-0.449785	-0.712238
H150	H	1.657975	0.050215	-0.212238
O151	O	0.747430	-0.474004	-0.511312
O152	O	1.247430	0.025996	-0.011312
H153	H	0.674316	-0.468929	-0.505857
H154	H	1.174316	0.031071	-0.005857
H155	H	0.634406	-0.218181	-0.236017
H156	H	1.134406	0.281819	0.263983
O157	O	0.609002	-0.427935	-0.461693
O158	O	1.109002	0.072065	0.038307
H159	H	0.563295	-0.397417	-0.510328
H160	H	1.063295	0.102583	-0.010328
O161	O	0.943916	-0.463464	-0.499976
O162	O	1.443916	0.036536	0.000024
H163	H	0.892853	-0.503416	-0.542976
H164	H	1.392853	-0.003416	-0.042976
H165	H	1.171729	-0.646223	-0.471732
H166	H	1.671729	-0.146223	0.028268
H167	H	1.110591	-0.926010	-0.532922
H168	H	1.610591	-0.426010	-0.032922
H169	H	1.171900	-1.043633	-0.471760
H170	H	1.671900	-0.543633	0.028240
O171	O	1.410392	-1.030391	-0.233651
O172	O	1.910392	-0.530391	0.266349
H173	H	1.400138	-1.095767	-0.243944
H174	H	1.900138	-0.595767	0.256056
O175	O	1.471606	-0.900370	-0.172472
O176	O	1.971606	-0.400370	0.327528
H177	H	1.461358	-0.965746	-0.182776
H178	H	1.961358	-0.465746	0.317224
