data_functionalizedCrystal
_audit_creation_method	'MofGen! by Chris Wilmer'
_symmetry_space_group_name_H-M	'P1'
_symmetry_Int_Tables_number	1
_symmetry_cell_setting	triclinic
loop_
_symmetry_equiv_pos_as_xyz
  x,y,z
_cell_length_a	25.639242
_cell_length_b	25.639239
_cell_length_c	25.639234
_cell_angle_alpha	90.024905
_cell_angle_beta	90.029352
_cell_angle_gamma	90.034213
loop_
_atom_site_label
_atom_site_type_symbol
_atom_site_fract_x
_atom_site_fract_y
_atom_site_fract_z
Zn1	Zn	0.799262	-0.208245	0.295742
Zn2	Zn	0.799175	-0.295673	0.208307
Zn3	Zn	0.711827	-0.208247	0.208306
Zn4	Zn	0.711784	-0.295644	0.295696
O5	O	0.755512	-0.251952	0.252013
O6	O	0.872416	-0.219854	0.284163
O7	O	0.787570	-0.284089	0.135141
O8	O	0.723481	-0.135081	0.219924
O9	O	0.872351	-0.284087	0.219924
O10	O	0.787719	-0.135080	0.284163
O11	O	0.723396	-0.219857	0.135141
O12	O	0.638656	-0.219829	0.219880
O13	O	0.723406	-0.284038	0.368868
O14	O	0.638624	-0.284040	0.284085
O15	O	0.787676	-0.219826	0.368901
O16	O	0.787527	-0.368835	0.219880
O17	O	0.723321	-0.368813	0.284085
C18	C	0.619669	-0.251932	0.251977
C19	C	0.561555	-0.251935	0.251975
C20	C	0.201184	-0.285443	0.285413
C21	C	0.146580	-0.285446	0.285421
O22	O	0.118337	-0.313909	0.313821
N23	N	0.119273	-0.251967	0.252047
C24	C	0.146573	-0.218478	0.218666
O25	O	0.118332	-0.190002	0.190280
C26	C	0.201176	-0.218473	0.218661
C27	C	0.228481	-0.251958	0.252034
C28	C	0.228489	-0.318925	0.318783
C29	C	0.283089	-0.318922	0.318774
C30	C	0.310385	-0.285437	0.285395
C31	C	0.283081	-0.251955	0.252024
C32	C	0.228475	-0.184982	0.185283
C33	C	0.283082	-0.184980	0.185281
C34	C	0.310387	-0.218465	0.218654
C35	C	0.364978	-0.218468	0.218636
N36	N	0.392285	-0.251947	0.252010
C37	C	0.364989	-0.285432	0.285389
C38	C	0.031902	-0.218492	0.218680
C39	C	-0.022700	-0.218499	0.218683
C40	C	-0.022689	-0.285466	0.285438
C41	C	0.031914	-0.285461	0.285433
C42	C	0.059209	-0.251971	0.252054
C43	C	0.479654	-0.285424	0.285368
C44	C	0.534259	-0.285420	0.285354
C45	C	0.534243	-0.218451	0.218601
C46	C	0.479643	-0.218457	0.218612
C47	C	0.452349	-0.251945	0.252000
O48	O	0.393256	-0.190018	0.190252
O49	O	0.393236	-0.313899	0.313776
C50	C	0.755424	-0.387795	0.251989
C51	C	0.755434	-0.445909	0.251996
C52	C	0.789031	-0.806270	0.218638
C53	C	0.789051	-0.860875	0.218645
O54	O	0.817526	-0.889110	0.190257
N55	N	0.755604	-0.888191	0.252048
C56	C	0.722138	-0.860901	0.285449
O57	O	0.693690	-0.889150	0.313861
C58	C	0.722120	-0.806298	0.285444
C59	C	0.755566	-0.778984	0.252036
C60	C	0.822475	-0.778957	0.185233
C61	C	0.822454	-0.724356	0.185226
C62	C	0.788989	-0.697069	0.218623
C63	C	0.755545	-0.724383	0.252028
C64	C	0.688657	-0.779008	0.318847
C65	C	0.688643	-0.724401	0.318840
C66	C	0.722089	-0.697087	0.285432
C67	C	0.722059	-0.642496	0.285418
N68	N	0.755507	-0.615179	0.252016
C69	C	0.788972	-0.642466	0.218619
C70	C	0.722177	-0.975571	0.285457
C71	C	0.722191	-1.030174	0.285459
C72	C	0.789106	-1.030144	0.218656
C73	C	0.789089	-0.975541	0.218652
C74	C	0.755625	-0.948255	0.252055
C75	C	0.788925	-0.527801	0.218605
C76	C	0.788899	-0.473196	0.218599
C77	C	0.721987	-0.473230	0.285403
C78	C	0.722010	-0.527831	0.285408
C79	C	0.755483	-0.555115	0.252007
O80	O	0.693601	-0.614226	0.313794
O81	O	0.817419	-0.614210	0.190216
C82	C	0.891885	-0.251973	0.252049
C83	C	0.949999	-0.251982	0.252064
C84	C	0.755546	-0.251928	0.388386
C85	C	0.755560	-0.251918	0.446500
C86	C	0.755614	-0.115579	0.252048
C87	C	0.755658	-0.057465	0.252064
C88	C	0.755508	-0.251938	0.116170
C89	C	0.755595	-0.251801	0.058057
C90	C	0.722160	-0.218411	0.806869
C91	C	0.722163	-0.218401	0.861473
O92	O	0.693738	-0.189969	0.889714
N93	N	0.755578	-0.251836	0.888783
C94	C	0.788988	-0.285287	0.861485
O95	O	0.817411	-0.313726	0.889728
C96	C	0.788983	-0.285299	0.806882
C97	C	0.755569	-0.251857	0.779575
C98	C	0.688749	-0.184972	0.779562
C99	C	0.688747	-0.184981	0.724961
C100	C	0.722156	-0.218428	0.697668
C101	C	0.755567	-0.251866	0.724974
C102	C	0.822390	-0.318752	0.779585
C103	C	0.822381	-0.318761	0.724978
C104	C	0.788968	-0.285319	0.697672
C105	C	0.788974	-0.285322	0.643080
N106	N	0.755559	-0.251887	0.615771
C107	C	0.722150	-0.218440	0.643064
C108	C	0.788998	-0.285260	0.976156
C109	C	0.789006	-0.285246	1.030758
C110	C	0.722180	-0.218361	1.030742
C111	C	0.722174	-0.218373	0.976139
C112	C	0.755583	-0.251825	0.948846
C113	C	0.722149	-0.218461	0.528399
C114	C	0.722151	-0.218471	0.473794
C115	C	0.788976	-0.285358	0.473814
C116	C	0.788975	-0.285346	0.528415
C117	C	0.755558	-0.251896	0.555706
O118	O	0.817383	-0.313741	0.614804
O119	O	0.693728	-0.190011	0.614814
H120	H	0.457438	-0.312692	0.312556
H121	H	0.816221	-0.312472	1.052987
C122	C	0.829613	-0.389069	0.840977
C123	C	0.859121	-0.355505	0.809598
H124	H	0.852292	-0.411756	0.859509
H125	H	0.806821	-0.409069	0.819663
H126	H	0.809719	-0.369143	0.865047
H127	H	0.879012	-0.375432	0.785525
H128	H	0.881922	-0.335503	0.830915
C129	C	0.859323	-0.292551	0.914782
C130	C	0.825729	-0.322028	0.946157
H131	H	0.881996	-0.315252	0.896262
H132	H	0.879337	-0.269772	0.936097
H133	H	0.839418	-0.272645	0.890701
H134	H	0.845634	-0.341932	0.970240
H135	H	0.805713	-0.344816	0.924840
H136	H	0.206270	-0.346192	0.345967
H137	H	0.054123	-0.191221	0.191496
H138	H	0.816189	-0.312571	0.550650
C139	C	-0.106392	-0.315196	0.315092
C140	C	-0.052700	-0.322269	0.322135
H141	H	-0.124920	-0.337913	0.337749
H142	H	-0.115363	-0.322804	0.279954
H143	H	-0.115308	-0.280074	0.322805
H144	H	-0.043784	-0.357390	0.314418
H145	H	-0.043726	-0.314665	0.357281
H146	H	0.556478	-0.191191	0.191422
H147	H	0.816183	-0.550009	0.191408
C148	C	0.418284	-0.148111	0.211498
C149	C	0.449631	-0.181644	0.181932
H150	H	0.399758	-0.125380	0.188856
H151	H	0.439618	-0.128156	0.234310
H152	H	0.394208	-0.168057	0.231373
H153	H	0.473710	-0.161698	0.162061
H154	H	0.428295	-0.201601	0.159111
C155	C	0.855047	-0.478659	0.152568
C156	C	0.825668	-0.443173	0.181876
H157	H	0.877748	-0.460125	0.129901
H158	H	0.832286	-0.499988	0.132548
H159	H	0.875038	-0.499925	0.175379
H160	H	0.805673	-0.421910	0.159065
H161	H	0.848432	-0.421835	0.201897
H162	H	0.849590	-0.345999	0.702760
C163	C	0.600229	-0.159509	0.708130
C164	C	0.652012	-0.148227	0.694950
H165	H	0.577548	-0.136820	0.689602
H166	H	0.595460	-0.154719	0.744553
H167	H	0.592558	-0.194640	0.699163
H168	H	0.659683	-0.113097	0.703920
H169	H	0.656783	-0.153013	0.658519
C170	C	-0.039533	-0.192915	0.130192
C171	C	-0.052703	-0.181696	0.181989
H172	H	-0.058051	-0.170189	0.107539
H173	H	-0.048514	-0.228028	0.122483
H174	H	-0.003104	-0.188127	0.125425
H175	H	-0.089132	-0.186487	0.186757
H176	H	-0.043725	-0.146573	0.189701
C177	C	0.818630	-0.315070	0.390113
C178	C	0.825695	-0.322125	0.443806
H179	H	0.841295	-0.337773	0.371588
H180	H	0.826312	-0.279948	0.381182
H181	H	0.783490	-0.322714	0.381157
H182	H	0.860834	-0.314477	0.452763
H183	H	0.818017	-0.357255	0.452742
C184	C	0.852280	-0.862642	0.155622
C185	C	0.859301	-0.808945	0.148556
H186	H	0.875029	-0.881151	0.132989
H187	H	0.817176	-0.871647	0.147897
H188	H	0.859883	-0.871545	0.190773
H189	H	0.851694	-0.800041	0.113406
H190	H	0.894413	-0.799936	0.156278
C191	C	0.696770	-0.129822	1.047583
C192	C	0.685452	-0.181600	1.060754
H193	H	0.674099	-0.107130	1.066116
H194	H	0.691979	-0.125040	1.011162
H195	H	0.731907	-0.122179	1.056549
H196	H	0.650316	-0.189244	1.051784
H197	H	0.690239	-0.186384	1.097184
C198	C	0.618417	-0.177675	0.840927
C199	C	0.652018	-0.148204	0.809554
H200	H	0.595738	-0.154972	0.859436
H201	H	0.638313	-0.197576	0.865011
H202	H	0.598404	-0.200460	0.819607
H203	H	0.672033	-0.125422	0.830874
H204	H	0.632120	-0.128294	0.785466
H205	H	0.556488	-0.312690	0.312530
H206	H	0.661393	-0.702188	0.346042
C207	C	0.655869	-0.522373	0.351442
C208	C	0.685246	-0.557857	0.322130
H209	H	0.633178	-0.540908	0.374118
H210	H	0.635871	-0.501114	0.328637
H211	H	0.678636	-0.501037	0.371457
H212	H	0.662480	-0.579191	0.302112
H213	H	0.705245	-0.579125	0.344938
C214	C	0.714930	-0.148143	0.412408
C215	C	0.685419	-0.181712	0.443779
H216	H	0.692252	-0.125449	0.393882
H217	H	0.734821	-0.168062	0.388337
H218	H	0.737725	-0.128146	0.433731
H219	H	0.662627	-0.201712	0.422456
H220	H	0.665519	-0.161790	0.467852
C221	C	0.855230	-0.981008	0.152621
C222	C	0.825857	-0.945520	0.181932
H223	H	0.877932	-0.962476	0.129954
H224	H	0.832466	-1.002334	0.132601
H225	H	0.875220	-1.002277	0.175431
H226	H	0.805863	-0.924253	0.159122
H227	H	0.848624	-0.924185	0.201953
C228	C	0.233972	-0.118778	0.119313
C229	C	0.198472	-0.148169	0.148603
H230	H	0.215449	-0.096047	0.096671
H231	H	0.255241	-0.141529	0.099269
H232	H	0.255298	-0.098818	0.142138
H233	H	0.177149	-0.168132	0.125778
H234	H	0.177194	-0.125415	0.168649
H235	H	0.694937	-0.191222	0.550613
H236	H	0.054142	-0.312727	0.312609
C237	C	0.714840	-0.914142	0.355780
C238	C	0.685384	-0.945582	0.322172
H239	H	0.692126	-0.895633	0.378448
H240	H	0.734750	-0.890058	0.335889
H241	H	0.737615	-0.935417	0.375804
H242	H	0.662612	-0.924306	0.302146
H243	H	0.665466	-0.969669	0.342065
H244	H	0.305303	-0.157704	0.158103
C245	C	0.277598	-0.385109	0.384763
C246	C	0.313098	-0.355725	0.355464
H247	H	0.296123	-0.407827	0.407418
H248	H	0.256280	-0.405078	0.361948
H249	H	0.256323	-0.362349	0.404799
H250	H	0.334370	-0.378485	0.335425
H251	H	0.334425	-0.335754	0.378282
C252	C	0.888604	-0.729828	0.119205
C253	C	0.859227	-0.694337	0.148510
H254	H	0.911311	-0.711297	0.096541
H255	H	0.865842	-0.751153	0.099182
H256	H	0.908589	-0.751098	0.142019
H257	H	0.839239	-0.673070	0.125696
H258	H	0.881992	-0.673003	0.168534
H259	H	0.694738	-0.451005	0.312594
H260	H	0.661419	-0.801238	0.346049
C261	C	0.818909	-1.113839	0.189076
C262	C	0.825939	-1.060145	0.181991
H263	H	0.841662	-1.132359	0.166456
H264	H	0.783806	-1.122842	0.181344
H265	H	0.826501	-1.122729	0.224233
H266	H	0.818343	-1.051253	0.146835
H267	H	0.861050	-1.051137	0.189719
H268	H	0.694951	-1.052408	0.312659
C269	C	0.714949	-0.148050	0.914750
C270	C	0.685442	-0.181616	0.946127
H271	H	0.692269	-0.125356	0.896227
H272	H	0.734837	-0.167970	0.890677
H273	H	0.737747	-0.128052	0.936069
H274	H	0.662646	-0.201617	0.924807
H275	H	0.665545	-0.161694	0.970202
