data_functionalizedCrystal
_audit_creation_method	'MofGen! by Chris Wilmer'
_symmetry_space_group_name_H-M	'P1'
_symmetry_Int_Tables_number	1
_symmetry_cell_setting	triclinic
loop_
_symmetry_equiv_pos_as_xyz
  x,y,z
_cell_length_a	19.288859
_cell_length_b	19.288865
_cell_length_c	11.892113
_cell_angle_alpha	94.384913
_cell_angle_beta	85.619337
_cell_angle_gamma	96.865014
loop_
_atom_site_label
_atom_site_type_symbol
_atom_site_fract_x
_atom_site_fract_y
_atom_site_fract_z
O1	O	0.925302	-0.090578	-0.094040
O2	O	1.258635	0.242756	0.239294
O3	O	1.591969	0.576089	0.572627
O4	O	0.723041	-0.102271	-0.094039
O5	O	1.056374	0.231062	0.239295
O6	O	1.389707	0.564396	0.572628
O7	O	0.830015	0.004707	-0.094017
O8	O	1.163348	0.338040	0.239316
O9	O	1.496681	0.671374	0.572650
O10	O	0.818328	-0.197556	-0.094062
O11	O	1.151661	0.135778	0.239272
O12	O	1.484994	0.469111	0.572605
O13	O	0.822107	0.012608	0.093992
O14	O	1.155440	0.345942	0.427326
O15	O	1.488773	0.679275	0.760659
O16	O	0.715133	-0.094370	0.093970
O17	O	1.048466	0.238964	0.427304
O18	O	1.381799	0.572297	0.760637
O19	O	0.917394	-0.082676	0.093970
O20	O	1.250727	0.250657	0.427303
O21	O	1.584060	0.583990	0.760636
Zn22	Zn	0.815008	-0.087269	0.123821
Zn23	Zn	1.148341	0.246065	0.457154
Zn24	Zn	1.481674	0.579398	0.790487
Zn25	Zn	0.825427	-0.097679	-0.123890
Zn26	Zn	1.158760	0.235654	0.209444
Zn27	Zn	1.492093	0.568988	0.542777
O28	O	0.810420	-0.189654	0.093948
O29	O	1.143753	0.143679	0.427281
O30	O	1.477086	0.477012	0.760614
C31	C	0.693210	-0.097945	-0.000034
C32	C	1.026543	0.235389	0.333300
C33	C	1.359877	0.568722	0.666633
C34	C	0.616106	-0.096817	-0.000032
C35	C	0.949439	0.236516	0.333301
C36	C	1.282773	0.569849	0.666634
C37	C	0.052066	-0.151961	-0.000046
C38	C	0.385399	0.181372	0.333287
C39	C	0.718733	0.514705	0.666620
C40	C	0.124513	-0.153027	-0.000052
C41	C	0.457846	0.180307	0.333281
C42	C	0.791179	0.513640	0.666614
C43	C	0.169219	-0.090257	-0.000036
C44	C	0.502552	0.243076	0.333297
C45	C	0.835886	0.576410	0.666630
C46	C	0.141474	-0.026418	-0.000043
C47	C	0.474807	0.306916	0.333290
C48	C	0.808141	0.640249	0.666623
C49	C	0.069029	-0.025355	-0.000048
C50	C	0.402362	0.307979	0.333285
C51	C	0.735696	0.641312	0.666618
C52	C	0.287718	-0.040675	0.065846
C53	C	0.621051	0.292658	0.399179
C54	C	0.954385	0.625992	0.732513
C55	C	0.360161	-0.041741	0.065858
C56	C	0.693494	0.291593	0.399192
C57	C	1.026828	0.624926	0.732525
C58	C	0.392664	-0.093534	-0.000026
C59	C	0.725998	0.239799	0.333308
C60	C	1.059331	0.573133	0.666641
C61	C	0.352713	-0.144273	-0.065907
C62	C	0.686047	0.189061	0.267426
C63	C	1.019380	0.522394	0.600760
C64	C	0.280268	-0.143209	-0.065912
C65	C	0.613601	0.190124	0.267421
C66	C	0.946935	0.523457	0.600755
C67	C	0.247774	-0.091403	-0.000032
C68	C	0.581108	0.241931	0.333302
C69	C	0.914441	0.575264	0.666635
C70	C	0.498956	-0.158525	-0.000033
C71	C	0.832290	0.174809	0.333300
C72	C	1.165623	0.508142	0.666633
C73	C	0.571405	-0.159588	-0.000047
C74	C	0.904738	0.173745	0.333287
C75	C	1.238072	0.507079	0.666620
C76	C	0.588365	-0.032977	-0.000026
C77	C	0.921698	0.300357	0.333307
C78	C	1.255031	0.633690	0.666641
C79	C	0.515918	-0.031916	-0.000024
C80	C	0.849251	0.301418	0.333309
C81	C	1.182584	0.634751	0.666642
C82	C	0.471217	-0.094692	-0.000023
C83	C	0.804551	0.238642	0.333311
C84	C	1.137884	0.571975	0.666644
C85	C	0.825684	0.034534	-0.000009
C86	C	1.159018	0.367868	0.333324
C87	C	1.492351	0.701201	0.666658
C88	C	0.824555	0.111638	0.000001
C89	C	1.157888	0.444972	0.333334
C90	C	1.491222	0.778305	0.666668
C91	C	0.947224	-0.087003	-0.000038
C92	C	1.280558	0.246331	0.333295
C93	C	1.613891	0.579664	0.666629
C94	C	1.024329	-0.088130	-0.000047
C95	C	1.357662	0.245203	0.333287
C96	C	1.690995	0.578536	0.666620
N97	N	0.807902	-0.080163	0.292876
N98	N	1.141235	0.253170	0.626210
N99	N	1.474569	0.586503	0.959543
C100	C	0.814750	-0.219482	-0.000063
C101	C	1.148083	0.113852	0.333271
C102	C	1.481417	0.447185	0.666604
C103	C	0.815880	-0.296586	-0.000080
C104	C	1.149213	0.036747	0.333253
C105	C	1.482547	0.370081	0.666586
C106	C	0.887323	0.156336	0.000006
C107	C	1.220656	0.489669	0.333340
C108	C	1.553990	0.823003	0.666673
C109	C	0.886263	0.228782	-0.000012
C110	C	1.219596	0.562116	0.333322
C111	C	1.552930	0.895449	0.666655
C112	C	0.822431	0.256529	-0.000012
C113	C	1.155764	0.589862	0.333321
C114	C	1.489097	0.923195	0.666655
C115	C	0.759655	0.211821	-0.000024
C116	C	1.092988	0.545154	0.333310
C117	C	1.426321	0.878487	0.666643
C118	C	0.760717	0.139375	-0.000017
C119	C	1.094050	0.472709	0.333316
C120	C	1.427384	0.806042	0.666650
C121	C	0.769481	0.367583	0.065844
C122	C	1.102814	0.700916	0.399177
C123	C	1.436148	1.034249	0.732510
C124	C	0.768421	0.440027	0.065844
C125	C	1.101754	0.773360	0.399178
C126	C	1.435088	1.106694	0.732511
C127	C	0.819152	0.479973	-0.000037
C128	C	1.152485	0.813306	0.333296
C129	C	1.485819	1.146640	0.666629
C130	C	0.870954	0.447468	-0.065905
C131	C	1.204287	0.780801	0.267429
C132	C	1.537621	1.114135	0.600762
C133	C	0.872016	0.375023	-0.065898
C134	C	1.205350	0.708356	0.267435
C135	C	1.538683	1.041689	0.600769
C136	C	0.821272	0.335082	-0.000020
C137	C	1.154605	0.668416	0.333314
C138	C	1.487938	1.001749	0.666647
C139	C	0.880775	0.603226	-0.000053
C140	C	1.214108	0.936559	0.333280
C141	C	1.547442	1.269893	0.666614
C142	C	0.879713	0.675673	-0.000078
C143	C	1.213046	1.009006	0.333255
C144	C	1.546379	1.342340	0.666589
C145	C	0.753102	0.658710	-0.000079
C146	C	1.086436	0.992043	0.333255
C147	C	1.419769	1.325377	0.666588
C148	C	0.754167	0.586264	-0.000065
C149	C	1.087500	0.919597	0.333268
C150	C	1.420833	1.252931	0.666602
C151	C	0.818005	0.558527	-0.000047
C152	C	1.151338	0.891860	0.333286
C153	C	1.484672	1.225194	0.666620
N154	N	0.832538	-0.104779	-0.292945
N155	N	1.165871	0.228555	0.040388
N156	N	1.499205	0.561888	0.373721
C157	C	0.881976	-0.154255	0.529507
C158	C	1.215309	0.179079	0.862841
C159	C	1.548642	0.512412	1.196174
C160	C	0.877014	-0.149282	0.647850
C161	C	1.210348	0.184051	0.981184
C162	C	1.543681	0.517384	1.314517
C163	C	0.793022	-0.065243	0.647907
C164	C	1.126355	0.268091	0.981241
C165	C	1.459689	0.601424	1.314574
C166	C	0.797983	-0.070215	0.529564
C167	C	1.131317	0.263118	0.862898
C168	C	1.464650	0.596452	1.196231
C169	C	0.842461	-0.114723	0.470369
C170	C	1.175794	0.218610	0.803702
C171	C	1.509127	0.551943	1.137035
C172	C	0.847418	-0.119699	0.352023
C173	C	1.180751	0.213634	0.685357
C174	C	1.514085	0.546968	1.018690
C175	C	0.763430	-0.035656	0.352083
C176	C	1.096763	0.297677	0.685416
C177	C	1.430097	0.631011	1.018749
C178	C	0.758469	-0.030684	0.470426
C179	C	1.091802	0.302650	0.803759
C180	C	1.425135	0.635983	1.137092
H181	H	0.493334	0.020063	-0.000018
H182	H	0.826667	0.353396	0.333315
H183	H	1.160001	0.686729	0.666649
H184	H	0.756818	-0.028999	0.696125
H185	H	1.090151	0.304335	1.029458
H186	H	1.423485	0.637668	1.362792
O187	O	0.690806	0.241742	-0.000024
O188	O	1.024139	0.575075	0.333309
O189	O	1.357472	0.908408	0.666642
H190	H	0.657430	0.226992	0.076600
H191	H	0.990763	0.560325	0.409933
H192	H	1.324096	0.893659	0.743267
O193	O	0.949625	0.573299	-0.000056
O194	O	1.282958	0.906633	0.333277
O195	O	1.616291	1.239966	0.666611
H196	H	0.993096	0.616555	-0.000077
H197	H	1.326429	0.949888	0.333256
H198	H	1.659763	1.283221	0.666589
H199	H	0.909192	-0.181472	0.695997
H200	H	1.242525	0.151861	1.029330
H201	H	1.575859	0.485194	1.362663
O202	O	0.710494	0.017316	0.534273
O203	O	1.043827	0.350650	0.867606
O204	O	1.377161	0.683983	1.200939
H205	H	0.713678	0.014130	0.626500
H206	H	1.047011	0.347463	0.959834
H207	H	1.380344	0.680797	1.293167
O208	O	0.039105	0.043495	-0.000030
O209	O	0.372438	0.376828	0.333303
O210	O	0.705771	0.710161	0.666637
H211	H	0.082359	0.086966	-0.000012
H212	H	0.415693	0.420300	0.333321
H213	H	0.749026	0.753633	0.666655
O214	O	0.450734	-0.226227	-0.000042
O215	O	0.784067	0.107107	0.333292
O216	O	1.117401	0.440440	0.666625
H217	H	0.463788	-0.260006	-0.076682
H218	H	0.797121	0.073328	0.256651
H219	H	1.130455	0.406661	0.589984
H220	H	0.918184	-0.190502	0.481309
H221	H	1.251518	0.142832	0.814643
H222	H	1.584851	0.476165	1.147976
O223	O	0.720814	0.006995	0.288301
O224	O	1.054147	0.340328	0.621634
O225	O	1.387480	0.673662	0.954967
H226	H	0.731739	-0.003933	0.196063
H227	H	1.065073	0.329400	0.529397
H228	H	1.398406	0.662733	0.862730
H229	H	0.015675	-0.203079	-0.000050
H230	H	0.349008	0.130255	0.333283
H231	H	0.682342	0.463588	0.666616
H232	H	0.147101	-0.205007	-0.000041
H233	H	0.480434	0.128327	0.333292
H234	H	0.813767	0.461660	0.666625
H235	H	0.703054	0.549870	-0.000063
H236	H	1.036387	0.883203	0.333270
H237	H	1.369721	1.216537	0.666604
H238	H	0.912264	0.479991	-0.119552
H239	H	1.245597	0.813324	0.213781
H240	H	1.578931	1.146657	0.547114
O241	O	0.636576	0.034727	-0.000000
O242	O	0.969909	0.368060	0.333333
O243	O	1.303242	0.701393	0.666666
H244	H	0.629968	0.062063	-0.076628
H245	H	0.963301	0.395397	0.256705
H246	H	1.296635	0.728730	0.590039
O247	O	0.237178	-0.197932	-0.136961
O248	O	0.570512	0.135401	0.196373
O249	O	0.903845	0.468734	0.529706
H250	H	0.255836	-0.194765	-0.227253
H251	H	0.589169	0.138569	0.106080
H252	H	0.922503	0.471902	0.439413
O253	O	0.387757	-0.200138	-0.136985
O254	O	0.721091	0.133196	0.196348
O255	O	1.054424	0.466529	0.529682
H256	H	0.444846	-0.192349	-0.125930
H257	H	0.778179	0.140984	0.207403
H258	H	1.111512	0.474317	0.540736
H259	H	0.930828	0.712066	-0.000080
H260	H	1.264162	1.045399	0.333253
H261	H	1.597495	1.378733	0.666587
H262	H	0.939305	0.133758	0.000017
H263	H	1.272638	0.467091	0.333351
H264	H	1.605972	0.800424	0.666684
O265	O	0.712554	0.475086	0.136885
O266	O	1.045888	0.808419	0.470218
O267	O	1.379221	1.141753	0.803551
H268	H	0.677448	0.435138	0.182681
H269	H	1.010781	0.768472	0.516014
H270	H	1.344115	1.101805	0.849347
O271	O	0.403249	0.012974	0.136924
O272	O	0.736582	0.346308	0.470258
O273	O	1.069915	0.679641	0.803591
H274	H	0.368480	0.049174	0.182724
H275	H	0.701813	0.382508	0.516057
H276	H	1.035146	0.715841	0.849390
O277	O	0.714764	0.324499	0.136912
O278	O	1.048097	0.657833	0.470245
O279	O	1.381430	0.991166	0.803578
H280	H	0.678574	0.359273	0.182726
H281	H	1.011907	0.692606	0.516059
H282	H	1.345240	1.025939	0.849393
O283	O	0.953964	0.277007	0.000009
O284	O	1.287297	0.610341	0.333343
O285	O	1.620630	0.943674	0.666676
H286	H	0.998531	0.245549	0.000032
H287	H	1.331864	0.578882	0.333366
H288	H	1.665198	0.912216	0.666699
H289	H	0.593987	-0.211569	-0.000056
H290	H	0.927320	0.121764	0.333278
H291	H	1.260653	0.455098	0.666611
O292	O	0.927874	0.339958	-0.136952
O293	O	1.261207	0.673291	0.196381
O294	O	1.594540	1.006624	0.529715
H295	H	0.962970	0.379899	-0.182777
H296	H	1.296304	0.713232	0.150556
H297	H	1.629637	1.046565	0.483889
H298	H	0.261261	0.001505	0.119499
H299	H	0.594594	0.334838	0.452832
H300	H	0.927927	0.668172	0.786165
O301	O	0.684251	0.688624	-0.000074
O302	O	1.017584	1.021957	0.333259
O303	O	1.350918	1.355290	0.666593
H304	H	0.694056	0.746510	-0.000070
H305	H	1.027389	1.079843	0.333263
H306	H	1.360722	1.413176	0.666597
O307	O	0.693010	0.091165	-0.000007
O308	O	1.026344	0.424499	0.333326
O309	O	1.359677	0.757832	0.666659
H310	H	0.693684	0.054524	-0.076634
H311	H	1.027017	0.387857	0.256699
H312	H	1.360351	0.721191	0.590032
O313	O	0.189686	0.041287	-0.000014
O314	O	0.523020	0.374621	0.333319
O315	O	0.856353	0.707954	0.666653
H316	H	0.244722	0.029825	0.000005
H317	H	0.578055	0.363159	0.333339
H318	H	0.911389	0.696492	0.666672
O319	O	0.895389	-0.167700	0.288168
O320	O	1.228722	0.165633	0.621502
O321	O	1.562055	0.498966	0.954835
H322	H	0.922037	-0.194347	0.349179
H323	H	1.255370	0.138986	0.682512
H324	H	1.588704	0.472319	1.015845
