data_functionalizedCrystal
_audit_creation_method	'MofGen! by Chris Wilmer'
_symmetry_space_group_name_H-M	'P1'
_symmetry_Int_Tables_number	1
_symmetry_cell_setting	triclinic
loop_
_symmetry_equiv_pos_as_xyz
  x,y,z
_cell_length_a	10.489741
_cell_length_b	14.185229
_cell_length_c	15.538117
_cell_angle_alpha	71.743477
_cell_angle_beta	114.093469
_cell_angle_gamma	104.647066
loop_
_atom_site_label
_atom_site_type_symbol
_atom_site_fract_x
_atom_site_fract_y
_atom_site_fract_z
O1	O	1.614160	-0.083351	-0.113306
O2	O	1.237049	-0.083366	-0.125739
O3	O	1.499008	-0.083362	0.017109
O4	O	1.352201	-0.083356	-0.256154
O5	O	1.532835	0.083484	-0.021280
O6	O	1.270877	0.083480	-0.164128
O7	O	1.647988	0.083494	-0.151695
Cu8	Cu	1.462521	0.098721	-0.161417
Cu9	Cu	1.422516	-0.098593	-0.116017
O10	O	1.386029	0.083490	-0.294544
C11	C	1.206877	0.000055	-0.143994
C12	C	1.066583	0.000049	-0.141182
C13	C	1.531281	0.000058	0.032907
C14	C	1.577031	0.000049	0.137172
N15	N	1.490668	0.237502	-0.193348
C16	C	1.041655	0.000056	-0.050293
C17	C	0.912438	-0.082204	-0.074302
C18	C	0.945813	0.082293	-0.112172
C19	C	0.939199	-0.082280	-0.165213
C20	C	0.972604	0.082291	-0.203087
C21	C	0.843379	0.000010	-0.227157
C22	C	1.678159	0.000071	-0.133440
C23	C	1.818452	0.000071	-0.136250
N24	N	1.394382	-0.237373	-0.084079
C25	C	1.573370	0.395036	-0.287098
C26	C	1.552043	0.290007	-0.262927
C27	C	1.450604	0.290013	-0.147909
C28	C	1.471930	0.395044	-0.172066
C29	C	1.533312	0.447547	-0.241663
C30	C	1.431871	0.447554	-0.126631
C31	C	1.453188	0.552576	-0.150791
C32	C	1.514564	0.605087	-0.220386
C33	C	1.554629	0.552568	-0.265822
C34	C	1.370480	0.395049	-0.057040
C35	C	1.330421	0.447560	-0.011604
C36	C	1.351747	0.552583	-0.035759
C37	C	1.413123	0.605094	-0.105354
C38	C	1.311682	0.605102	0.009677
C39	C	1.333000	0.710123	-0.014482
C40	C	1.434441	0.710116	-0.129514
C41	C	1.122466	0.000051	0.428045
C42	C	1.165489	0.000054	0.526018
C43	C	1.407498	0.000063	0.546817
C44	C	1.364493	0.000055	0.448845
C45	C	1.221976	0.000050	0.389466
C46	C	1.464004	0.000054	0.410266
C47	C	1.421003	0.000051	0.312301
C48	C	1.278493	0.000049	0.252915
C49	C	1.178976	0.000047	0.291501
C50	C	1.606522	0.000066	0.469645
C51	C	1.706032	0.000065	0.431066
C52	C	1.663031	0.000055	0.333101
C53	C	1.520521	0.000053	0.273716
C54	C	1.762548	0.000057	0.294516
C55	C	1.719548	0.000054	0.196551
C56	C	1.477520	0.000050	0.175751
C57	C	1.353749	0.000066	0.689660
C58	C	1.307977	0.000063	0.585396
H59	H	0.885606	-0.151753	-0.019842
H60	H	1.084448	0.000070	0.557420
H61	H	0.937641	-0.151903	-0.187621
O62	O	1.004736	0.165364	-0.267906
C63	C	1.009882	0.251932	-0.239675
H64	H	1.031090	0.232221	-0.158512
H65	H	0.904702	0.281952	-0.281461
C66	C	1.102887	0.356777	-0.361714
C67	C	1.128947	0.332570	-0.262027
H68	H	1.176327	0.406521	-0.375505
H69	H	1.099416	0.298456	-0.380737
H70	H	1.015234	0.381788	-0.396524
H71	H	1.216589	0.307548	-0.227219
H72	H	1.132436	0.390889	-0.242998
H73	H	1.623365	0.437787	-0.343764
O74	O	0.947719	0.165232	-0.085237
C75	C	1.050637	0.164897	0.008072
H76	H	1.132876	0.116739	0.023048
H77	H	0.998174	0.132785	0.064623
C78	C	1.021831	0.332114	-0.005015
C79	C	1.122844	0.272971	0.013375
H80	H	1.066368	0.398779	-0.001741
H81	H	0.952489	0.332339	-0.067877
H82	H	0.978120	0.305342	0.042114
H83	H	1.166541	0.299736	-0.033760
H84	H	1.192196	0.272753	0.076230
O85	O	1.251820	0.554138	0.077159
C86	C	1.115975	0.579838	0.046179
H87	H	1.074484	0.608721	-0.036103
H88	H	1.121644	0.640794	0.081606
C89	C	1.066934	0.451077	0.176694
C90	C	1.015969	0.486544	0.075632
H91	H	1.005245	0.393531	0.194865
H92	H	1.158457	0.433764	0.197568
H93	H	1.071657	0.501882	0.206204
H94	H	1.011264	0.435744	0.046125
H95	H	0.924442	0.503846	0.054754
H96	H	1.126846	-0.000048	0.024449
O97	O	1.816379	-0.000001	0.159237
C98	C	1.951391	0.000023	0.232648
H99	H	1.940168	-0.031558	0.306703
H100	H	2.009412	0.080066	0.227841
C101	C	2.049443	-0.026629	0.128341
C102	C	2.035657	-0.065425	0.219296
H103	H	2.101426	-0.066996	0.120103
H104	H	1.958484	-0.026641	0.078880
H105	H	2.097789	0.040073	0.124346
H106	H	1.987297	-0.132121	0.223285
H107	H	2.126610	-0.065426	0.268757
H108	H	1.484435	0.752867	-0.186180
H109	H	1.300375	0.752879	0.022514
O110	O	1.535525	0.707105	-0.243847
C111	C	1.680691	0.742167	-0.223366
H112	H	1.734757	0.681630	-0.222992
H113	H	1.729591	0.760801	-0.149231
C114	C	1.633769	0.911423	-0.302105
C115	C	1.700171	0.837074	-0.301654
H116	H	1.645788	0.969969	-0.350393
H117	H	1.535968	0.887803	-0.315900
H118	H	1.674526	0.926939	-0.240321
H119	H	1.659402	0.821551	-0.363433
H120	H	1.797966	0.860694	-0.287871
H121	H	1.361467	0.000039	0.127402
O122	O	1.614451	0.603471	-0.333345
C123	C	1.750332	0.577821	-0.302338
H124	H	1.757177	0.501563	-0.248419
H125	H	1.832466	0.636920	-0.265887
C126	C	1.770158	0.666644	-0.456767
C127	C	1.778561	0.572978	-0.390549
H128	H	1.787576	0.663660	-0.511178
H129	H	1.678615	0.683928	-0.477656
H130	H	1.838604	0.715883	-0.426379
H131	H	1.710105	0.523743	-0.420933
H132	H	1.870095	0.555685	-0.369666
H133	H	1.584661	0.247257	-0.299936
H134	H	0.758386	-0.000033	-0.301945
H135	H	1.243486	0.000053	0.173145
H136	H	1.400621	0.247250	-0.091245
O137	O	1.349870	0.293031	-0.033399
C138	C	1.425159	0.257931	0.066293
H139	H	1.444565	0.318448	0.105984
H140	H	1.530620	0.239289	0.076295
C141	C	1.314892	0.088695	0.059312
C142	C	1.338717	0.163020	0.108064
H143	H	1.261575	0.030148	0.085079
H144	H	1.264172	0.112341	-0.007853
H145	H	1.402784	0.073173	0.067652
H146	H	1.250827	0.178551	0.099713
H147	H	1.389420	0.139375	0.175229
H148	H	1.280438	0.404797	0.045059
H149	H	1.822071	0.000073	0.479425
H150	H	1.062923	0.000036	0.243153
H151	H	1.006413	0.000040	0.379696
H152	H	1.523536	0.000071	0.595175
H153	H	1.641526	0.000059	0.549416
H154	H	1.878588	0.000071	0.342874
