data_functionalizedCrystal
_audit_creation_method	'MofGen! by Chris Wilmer'
_symmetry_space_group_name_H-M	'P1'
_symmetry_Int_Tables_number	1
_symmetry_cell_setting	triclinic
loop_
_symmetry_equiv_pos_as_xyz
  x,y,z
_cell_length_a	20.299480
_cell_length_b	20.298645
_cell_length_c	20.294903
_cell_angle_alpha	60.007695
_cell_angle_beta	60.015306
_cell_angle_gamma	59.991039
loop_
_atom_site_label
_atom_site_type_symbol
_atom_site_fract_x
_atom_site_fract_y
_atom_site_fract_z
O1	O	0.091305	-0.962534	0.804873
O2	O	0.591305	-0.462534	1.304873
O3	O	0.034397	-0.749399	0.648508
O4	O	0.534397	-0.249399	1.148508
O5	O	0.169355	-0.884263	0.648401
O6	O	0.669355	-0.384263	1.148401
O7	O	-0.043654	-0.827670	0.804979
O8	O	0.456346	-0.327670	1.304979
O9	O	0.214132	-0.839502	0.693072
O10	O	0.714132	-0.339502	1.193072
O11	O	0.079173	-0.704639	0.693178
O12	O	0.579173	-0.204639	1.193178
O13	O	0.136081	-0.917774	0.849544
O14	O	0.636081	-0.417774	1.349544
Zn15	Zn	0.114736	-0.804099	0.778453
Zn16	Zn	0.614736	-0.304099	1.278453
Zn17	Zn	0.055742	-0.863073	0.719598
Zn18	Zn	0.555742	-0.363073	1.219598
O19	O	0.001122	-0.782910	0.849650
O20	O	0.501122	-0.282910	1.349650
N21	N	0.155000	-0.763857	0.818624
N22	N	0.655000	-0.263857	1.318624
N23	N	0.015485	-0.903322	0.679427
N24	N	0.515485	-0.403322	1.179427
C25	C	0.179343	-0.615641	0.842971
C26	C	0.679343	-0.115641	1.342971
C27	C	0.179443	-0.739552	0.966834
C28	C	0.679443	-0.239552	1.466834
C29	C	0.303264	-0.739536	0.842917
C30	C	0.803264	-0.239536	1.342917
C31	C	0.179356	-0.739528	0.842952
C32	C	0.679356	-0.239528	1.342952
C33	C	0.210353	-0.708565	0.873918
C34	C	0.710353	-0.208565	1.373918
C35	C	-0.132622	-0.927446	0.654695
C36	C	0.367378	-0.427446	1.154695
C37	C	-0.008595	-0.927622	0.530981
C38	C	0.491405	-0.427622	1.030981
C39	C	-0.008820	-1.051459	0.654914
C40	C	0.491180	-0.551459	1.154914
C41	C	-0.008800	-0.927618	0.654995
C42	C	0.491200	-0.427618	1.154995
C43	C	-0.039709	-0.958538	0.623897
C44	C	0.460291	-0.458538	1.123897
N45	N	0.376268	-0.763873	0.818558
N46	N	0.876268	-0.263873	1.318558
O47	O	0.652281	-0.777347	0.619856
O48	O	1.152281	-0.277347	1.119856
O49	O	0.652556	-0.934198	0.832777
O50	O	1.152556	-0.434198	1.332777
O51	O	0.652445	-0.933836	0.697731
O52	O	1.152445	-0.433836	1.197731
O53	O	0.652392	-0.777709	0.754902
O54	O	1.152392	-0.277709	1.254902
O55	O	0.518259	-0.889182	0.742556
O56	O	1.018259	-0.389182	1.242556
O57	O	0.518369	-0.889544	0.877602
O58	O	1.018369	-0.389544	1.377602
O59	O	0.518095	-0.732693	0.664680
O60	O	1.018095	-0.232693	1.164680
Zn61	Zn	0.496927	-0.804029	0.778258
Zn62	Zn	0.996927	-0.304029	1.278258
Zn63	Zn	0.673724	-0.862862	0.719200
Zn64	Zn	1.173724	-0.362862	1.219200
O65	O	0.518205	-0.733055	0.799726
O66	O	1.018205	-0.233055	1.299726
N67	N	0.794383	-0.903019	0.678891
N68	N	1.294383	-0.403019	1.178891
N69	N	0.154981	-0.542636	0.818657
N70	N	0.654981	-0.042636	1.318657
O71	O	-0.043628	-0.266455	0.805024
O72	O	0.456372	0.233545	1.305024
O73	O	0.169291	-0.266451	0.648191
O74	O	0.669291	0.233549	1.148191
O75	O	0.034217	-0.266468	0.648577
O76	O	0.534217	0.233532	1.148577
O77	O	0.091446	-0.266438	0.804638
O78	O	0.591446	0.233562	1.304638
O79	O	0.078998	-0.400670	0.693303
O80	O	0.578998	0.099330	1.193303
O81	O	0.214071	-0.400653	0.692918
O82	O	0.714071	0.099347	1.192918
O83	O	0.001152	-0.400657	0.849750
O84	O	0.501152	0.099343	1.349750
Zn85	Zn	0.114722	-0.421963	0.778435
Zn86	Zn	0.614722	0.078037	1.278435
Zn87	Zn	0.055722	-0.245145	0.719506
Zn88	Zn	0.555722	0.254855	1.219506
O89	O	0.136226	-0.400640	0.849364
O90	O	0.636226	0.099360	1.349364
N91	N	0.015453	-0.124472	0.679286
N92	N	0.515453	0.375528	1.179286
N93	N	0.155155	-0.763898	1.039838
N94	N	0.655155	-0.263898	1.539838
O95	O	0.141555	-0.962488	1.315987
O96	O	0.641555	-0.462488	1.815987
O97	O	-0.015254	-0.749480	1.316022
O98	O	0.484746	-0.249480	1.816022
O99	O	-0.014890	-0.884527	1.315962
O100	O	0.485110	-0.384527	1.815962
O101	O	0.141192	-0.827441	1.316047
O102	O	0.641192	-0.327441	1.816047
O103	O	0.029815	-0.839777	1.181768
O104	O	0.529815	-0.339777	1.681768
O105	O	0.029452	-0.704730	1.181828
O106	O	0.529452	-0.204730	1.681828
O107	O	0.186261	-0.917739	1.181793
O108	O	0.686261	-0.417739	1.681793
Zn109	Zn	0.114954	-0.804130	1.160504
Zn110	Zn	0.614954	-0.304130	1.660504
Zn111	Zn	0.056053	-0.863089	1.337311
Zn112	Zn	0.556053	-0.363089	1.837311
O113	O	0.185897	-0.782692	1.181853
O114	O	0.685897	-0.282692	1.681853
N115	N	0.015850	-0.903330	1.457977
N116	N	0.515850	-0.403330	1.957977
C117	C	0.051451	-0.700162	0.649301
C118	C	0.551451	-0.200162	1.149301
C119	C	0.218580	-0.867175	0.649169
C120	C	0.718580	-0.367175	1.149169
C121	C	0.119026	-0.967011	0.848750
C122	C	0.619026	-0.467011	1.348750
C123	C	-0.048103	-0.799998	0.848882
C124	C	0.451897	-0.299998	1.348882
C125	C	0.585495	-0.933471	0.882014
C126	C	1.085495	-0.433471	1.382014
C127	C	0.585361	-0.933023	0.714775
C128	C	1.085361	-0.433023	1.214775
C129	C	0.585151	-0.733419	0.615444
C130	C	1.085151	-0.233419	1.115444
C131	C	0.585291	-0.733869	0.782682
C132	C	1.085291	-0.233869	1.282682
C133	C	0.218449	-0.333386	0.648902
C134	C	0.718449	0.166614	1.148902
C135	C	0.051232	-0.333573	0.649435
C136	C	0.551232	0.166427	1.149435
C137	C	-0.048061	-0.333556	0.848984
C138	C	0.451939	0.166444	1.348984
C139	C	0.119212	-0.333537	0.848507
C140	C	0.619212	0.166463	1.348507
C141	C	-0.014496	-0.700269	1.248929
C142	C	0.485504	-0.200269	1.748929
C143	C	-0.014037	-0.867500	1.248828
C144	C	0.485963	-0.367500	1.748828
C145	C	0.185503	-0.966949	1.248886
C146	C	0.685503	-0.466949	1.748886
C147	C	0.185054	-0.799709	1.248957
C148	C	0.685054	-0.299709	1.748957
H149	H	0.039295	-0.638935	0.600193
H150	H	0.539295	-0.138935	1.100193
H151	H	0.585279	-0.684826	0.794916
H152	H	1.085279	-0.184826	1.294916
C153	C	0.126547	-1.039342	0.982647
C154	C	0.626547	-0.539342	1.482647
C155	C	0.135431	-1.049661	0.915050
C156	C	0.635431	-0.549661	1.415050
H157	H	0.136680	-1.090368	1.023574
H158	H	0.636680	-0.590368	1.523574
H159	H	0.073142	-1.005550	1.002277
H160	H	0.573142	-0.505550	1.502277
H161	H	0.163805	-1.015119	0.967933
H162	H	0.663805	-0.515119	1.467933
H163	H	0.098169	-1.073879	0.929762
H164	H	0.598169	-0.573879	1.429762
H165	H	0.188844	-1.083465	0.895417
H166	H	0.688844	-0.583465	1.395417
C167	C	0.585644	-1.068999	0.964651
C168	C	1.085644	-0.568999	1.464651
C169	C	0.585601	-0.999952	0.964563
C170	C	1.085601	-0.499952	1.464563
H171	H	0.585705	-1.110039	1.015615
H172	H	1.085705	-0.610039	1.515615
H173	H	0.632417	-1.087467	0.923578
H174	H	1.132417	-0.587467	1.423578
H175	H	0.538829	-1.056318	0.954832
H176	H	1.038829	-0.556318	1.454832
H177	H	0.632419	-1.012631	0.974376
H178	H	1.132419	-0.512631	1.474376
H179	H	0.538823	-0.981481	1.005648
H180	H	1.038823	-0.481481	1.505648
C181	C	-0.180583	-0.704992	0.886414
C182	C	0.319417	-0.204992	1.386414
C183	C	-0.130690	-0.783718	0.915265
C184	C	0.369310	-0.283718	1.415265
H185	H	-0.231566	-0.694942	0.927400
H186	H	0.268434	-0.194942	1.427400
H187	H	-0.187635	-0.698930	0.840574
H188	H	0.312365	-0.198930	1.340574
H189	H	-0.156390	-0.667713	0.871715
H190	H	0.343610	-0.167713	1.371715
H191	H	-0.154881	-0.820998	0.929959
H192	H	0.345119	-0.320998	1.429959
H193	H	-0.123641	-0.789788	0.961119
H194	H	0.376359	-0.289788	1.461119
H195	H	0.585062	-0.684173	0.554297
H196	H	1.085062	-0.184173	1.054297
C197	C	-0.044034	-0.333634	0.612342
C198	C	0.455966	0.166366	1.112342
C199	C	0.034707	-0.333614	0.583255
C200	C	0.534707	0.166386	1.083255
H201	H	-0.054230	-0.333674	0.571489
H202	H	0.445770	0.166326	1.071489
H203	H	-0.081254	-0.286827	0.627012
H204	H	0.418746	0.213173	1.127012
H205	H	-0.050015	-0.380426	0.658245
H206	H	0.449985	0.119574	1.158245
H207	H	0.040686	-0.286820	0.537356
H208	H	0.540686	0.213180	1.037356
H209	H	0.071937	-0.380427	0.568574
H210	H	0.571937	0.119573	1.068574
H211	H	0.585383	-0.982069	0.702538
H212	H	1.085383	-0.482069	1.202538
C213	C	0.270660	-1.064022	1.179868
C214	C	0.770660	-0.564022	1.679868
C215	C	0.251968	-1.049532	1.248871
C216	C	0.751968	-0.549532	1.748871
H217	H	0.311690	-1.115007	1.179862
H218	H	0.811690	-0.615007	1.679862
H219	H	0.289147	-1.022972	1.133094
H220	H	0.789147	-0.522972	1.633094
H221	H	0.223820	-1.063925	1.179859
H222	H	0.723820	-0.563925	1.679859
H223	H	0.298807	-1.049623	1.248877
H224	H	0.798807	-0.549623	1.748877
H225	H	0.233483	-1.090592	1.295657
H226	H	0.733483	-0.590592	1.795657
H227	H	-0.063726	-0.639093	1.248939
H228	H	0.436274	-0.139093	1.748939
H229	H	0.279759	-0.879241	0.599998
H230	H	0.779759	-0.379241	1.099998
C231	C	0.080889	-0.264544	0.936353
C232	C	0.580889	0.235456	1.436353
C233	C	0.135755	-0.333532	0.914695
C234	C	0.635755	0.166468	1.414695
H235	H	0.091109	-0.264541	0.977210
H236	H	0.591109	0.235459	1.477210
H237	H	0.027476	-0.264553	0.956079
H238	H	0.527476	0.235447	1.456079
H239	H	0.086883	-0.217749	0.890459
H240	H	0.586883	0.282251	1.390459
H241	H	0.129757	-0.380327	0.960588
H242	H	0.629757	0.119673	1.460588
H243	H	0.189182	-0.333530	0.894972
H244	H	0.689182	0.166470	1.394972
H245	H	-0.109209	-0.333558	0.898221
H246	H	0.390791	0.166442	1.398221
C247	C	-0.051128	-0.962694	1.248665
C248	C	0.448872	-0.462694	1.748665
C249	C	-0.080207	-0.883948	1.248714
C250	C	0.419793	-0.383948	1.748714
H251	H	-0.091978	-0.972845	1.248589
H252	H	0.408022	-0.472845	1.748589
H253	H	-0.036467	-0.999931	1.295477
H254	H	0.463533	-0.499931	1.795477
H255	H	-0.005223	-0.968706	1.201884
H256	H	0.494777	-0.468706	1.701884
H257	H	-0.126109	-0.877938	1.295498
H258	H	0.373891	-0.377938	1.795498
H259	H	-0.094879	-0.846702	1.201896
H260	H	0.405121	-0.346702	1.701896
H261	H	0.279471	-0.333012	0.599542
H262	H	0.779471	0.166988	1.099542
H263	H	0.234089	-0.787495	1.248972
H264	H	0.734089	-0.287495	1.748972
