data_functionalizedCrystal
_audit_creation_method	'MofGen! by Chris Wilmer'
_symmetry_space_group_name_H-M	'P1'
_symmetry_Int_Tables_number	1
_symmetry_cell_setting	triclinic
loop_
_symmetry_equiv_pos_as_xyz
  x,y,z
_cell_length_a	29.839131
_cell_length_b	16.959455
_cell_length_c	16.959447
_cell_angle_alpha	90.023646
_cell_angle_beta	89.970255
_cell_angle_gamma	89.963305
loop_
_atom_site_label
_atom_site_type_symbol
_atom_site_fract_x
_atom_site_fract_y
_atom_site_fract_z
Zn1	Zn	-0.178904	-1.208265	-0.447108
Zn2	Zn	-0.254038	-1.208138	-0.314931
Zn3	Zn	-0.178916	-1.076093	-0.314924
Zn4	Zn	-0.254002	-1.076008	-0.447048
O5	O	-0.216465	-1.142126	-0.381003
O6	O	-0.188881	-1.318859	-0.429603
O7	O	-0.244093	-1.190604	-0.204319
O8	O	-0.116047	-1.093715	-0.332481
O9	O	-0.244081	-1.318765	-0.332493
O10	O	-0.116039	-1.190821	-0.429596
O11	O	-0.188901	-1.093592	-0.204314
O12	O	-0.188866	-0.965471	-0.332423
O13	O	-0.244020	-1.093570	-0.557667
O14	O	-0.244031	-0.965409	-0.429494
O15	O	-0.188846	-1.190739	-0.557711
O16	O	-0.316900	-1.190521	-0.332434
O17	O	-0.316874	-1.093447	-0.429500
C18	C	-0.216446	-0.936760	-0.380952
C19	C	-0.216449	-0.848903	-0.380948
C20	C	-0.245166	-0.477368	-0.330374
C21	C	-0.187775	-0.477487	-0.431652
C22	C	-0.187769	-0.560033	-0.431638
C23	C	-0.216463	-0.601250	-0.380992
C24	C	-0.245162	-0.559922	-0.330360
C25	C	-0.159073	-0.601368	-0.482274
C26	C	-0.159067	-0.683918	-0.482262
C27	C	-0.187758	-0.725137	-0.431612
C28	C	-0.216459	-0.683804	-0.380977
C29	C	-0.245152	-0.725021	-0.330331
C30	C	-0.273850	-0.683689	-0.279692
C31	C	-0.273854	-0.601141	-0.279709
C32	C	-0.187755	-0.807686	-0.431595
C33	C	-0.245148	-0.807575	-0.330316
C34	C	-0.333188	-1.141982	-0.380979
C35	C	-0.383122	-1.141993	-0.380995
C36	C	-0.739711	-1.091612	-0.431542
C37	C	-0.552038	-1.091507	-0.431517
O38	O	-0.527775	-1.048499	-0.474479
N39	N	-0.528567	-1.142077	-0.381018
C40	C	-0.552017	-1.192680	-0.330526
O41	O	-0.527748	-1.235695	-0.287579
C42	C	-0.739690	-1.192787	-0.330555
C43	C	-0.763158	-1.142209	-0.381052
C44	C	-0.763179	-1.041038	-0.482035
C45	C	-0.810095	-1.041062	-0.482037
C46	C	-0.833542	-1.091659	-0.431547
C47	C	-0.810073	-1.142233	-0.381054
C48	C	-0.763139	-1.243394	-0.280068
C49	C	-0.810060	-1.243418	-0.280081
C50	C	-0.833528	-1.192839	-0.330577
C51	C	-0.880436	-1.192853	-0.330567
N52	N	-0.903907	-1.142284	-0.381065
C53	C	-0.880460	-1.091687	-0.431556
C54	C	-0.453487	-1.192618	-0.330513
C55	C	-0.406569	-1.192590	-0.330505
C56	C	-0.406593	-1.091419	-0.431497
C57	C	-0.453511	-1.091443	-0.431501
C58	C	-0.476958	-1.142049	-0.381012
C59	C	-0.978985	-1.091740	-0.431557
C60	C	-1.025905	-1.091765	-0.431553
C61	C	-1.025877	-1.192939	-0.330564
C62	C	-0.978962	-1.192911	-0.330565
C63	C	-0.955517	-1.142308	-0.381068
O64	O	-0.904728	-1.235845	-0.287634
O65	O	-0.904737	-1.048690	-0.474509
C66	C	-0.692795	-1.091588	-0.431539
C67	C	-0.669327	-1.142162	-0.381046
C68	C	-0.692774	-1.192759	-0.330556
C69	C	-0.622409	-1.142134	-0.381038
C70	C	-0.598962	-1.091537	-0.431528
C71	C	-0.622433	-1.040967	-0.482027
C72	C	-0.669348	-1.040991	-0.482029
C73	C	-0.669303	-1.243328	-0.280058
C74	C	-0.622388	-1.243300	-0.280058
C75	C	-0.598941	-1.192703	-0.330549
C76	C	-0.099287	-1.142292	-0.381045
C77	C	-0.049352	-1.142363	-0.381062
C78	C	-0.216428	-1.142159	-0.587171
C79	C	-0.216412	-1.142173	-0.675028
C80	C	-0.216479	-0.348294	-0.381041
C81	C	-0.216472	-0.436151	-0.381020
C82	C	-0.245091	-1.091676	-1.046483
C83	C	-0.187638	-1.192859	-1.046524
C84	C	-0.187648	-1.192838	-0.963978
C85	C	-0.216380	-1.142236	-0.922681
C86	C	-0.245102	-1.091655	-0.963930
C87	C	-0.158929	-1.243423	-0.922724
C88	C	-0.158938	-1.243405	-0.840173
C89	C	-0.187668	-1.192798	-0.798874
C90	C	-0.216391	-1.142215	-0.840128
C91	C	-0.245123	-1.091613	-0.798830
C92	C	-0.273844	-1.041025	-0.840082
C93	C	-0.273832	-1.041049	-0.922631
C94	C	-0.187680	-1.192775	-0.716325
C95	C	-0.245134	-1.091592	-0.716277
C96	C	-0.216470	-1.142139	-0.175637
C97	C	-0.216359	-1.142278	-0.087781
H98	H	-0.164391	-0.841335	-0.472826
F99	F	-1.050879	-1.037930	-0.485300
F100	F	-0.128543	-0.557497	-0.536181
F101	F	-0.304390	-0.727565	-0.225797
F102	F	-0.275705	-0.433380	-0.276480
F103	F	-0.304424	-0.987177	-0.796121
H104	H	-0.297217	-0.999866	-0.956226
H105	H	-0.268474	-1.050487	-1.080074
H106	H	-0.135540	-1.284625	-0.956354
F107	F	-0.157118	-1.246615	-0.672425
H108	H	-0.164248	-1.234061	-1.080154
F109	F	-0.128369	-1.297242	-0.796277
H110	H	-0.387494	-1.050219	-0.472607
H111	H	-0.268513	-0.841128	-0.289071
F112	F	-0.835066	-0.987238	-0.535792
F113	F	-0.157243	-0.433619	-0.485558
F114	F	-0.304394	-0.557147	-0.225821
F115	F	-0.128524	-0.727900	-0.536156
H116	H	-0.959902	-1.050535	-0.472682
H117	H	-0.744093	-0.999836	-0.523153
H118	H	-0.472616	-1.050262	-0.472624
F119	F	-0.478434	-1.246482	-0.276771
F120	F	-0.381597	-1.246414	-0.276751
H121	H	-0.688452	-0.999806	-0.523150
H122	H	-0.829148	-1.284630	-0.238968
F123	F	-0.738172	-1.297234	-0.226328
F124	F	-0.953984	-1.246727	-0.276807
H125	H	-1.044976	-1.234132	-0.289453
H126	H	-0.603335	-0.999766	-0.523135
H127	H	-0.688389	-1.284533	-0.238942
F128	F	-0.597416	-1.297135	-0.226307
H129	H	-0.268528	-1.050379	-0.682658
