data_functionalizedCrystal
_audit_creation_method	'MofGen! by Chris Wilmer'
_symmetry_space_group_name_H-M	'P1'
_symmetry_Int_Tables_number	1
_symmetry_cell_setting	triclinic
loop_
_symmetry_equiv_pos_as_xyz
  x,y,z
_cell_length_a	23.532355
_cell_length_b	23.532409
_cell_length_c	22.610064
_cell_angle_alpha	89.986357
_cell_angle_beta	89.995874
_cell_angle_gamma	82.838529
loop_
_atom_site_label
_atom_site_type_symbol
_atom_site_fract_x
_atom_site_fract_y
_atom_site_fract_z
O1	O	0.755278	0.068981	0.049100
O2	O	0.589411	0.079016	0.049119
O3	O	0.677346	-0.008934	0.049110
O4	O	0.667344	0.156931	0.049109
O5	O	0.677340	-0.008912	-0.049259
O6	O	0.589405	0.079038	-0.049251
O7	O	0.755272	0.069004	-0.049269
Zn8	Zn	0.672338	0.074025	-0.064878
Zn9	Zn	0.672346	0.073995	0.064728
O10	O	0.667338	0.156954	-0.049260
C11	C	0.568191	0.078776	-0.000064
C12	C	0.504973	0.078022	-0.000056
C13	C	0.112956	0.073296	-0.053702
C14	C	0.053556	0.072579	-0.053704
O15	O	0.022835	0.072199	-0.099307
N16	N	0.023851	0.072211	-0.000084
C17	C	0.053549	0.072554	0.053543
O18	O	0.022828	0.072175	0.099152
C19	C	0.112948	0.073268	0.053545
C20	C	0.142649	0.073641	-0.000080
C21	C	0.142657	0.073669	-0.107322
C22	C	0.202052	0.074388	-0.107320
C23	C	0.231746	0.074733	-0.053697
C24	C	0.202044	0.074360	-0.000077
C25	C	0.142646	0.073607	0.107171
C26	C	0.202049	0.074320	0.107168
C27	C	0.231750	0.074694	0.053543
C28	C	0.291133	0.075424	0.053548
N29	N	0.320839	0.075792	-0.000073
C30	C	0.291145	0.075446	-0.053696
C31	C	-0.071192	0.071055	0.053535
C32	C	-0.130591	0.070346	0.053534
C33	C	-0.130579	0.070369	-0.053713
C34	C	-0.071181	0.071083	-0.053712
C35	C	-0.041487	0.071423	-0.000085
C36	C	0.415879	0.076956	-0.053686
C37	C	0.475279	0.077677	-0.053679
C38	C	0.475263	0.077650	0.053568
C39	C	0.415868	0.076932	0.053562
C40	C	0.386177	0.076583	-0.000071
O41	O	0.321893	0.075802	0.099127
O42	O	0.321874	0.075818	-0.099296
C43	C	0.677088	-0.030139	-0.000073
C44	C	0.676322	-0.093356	-0.000069
C45	C	0.673066	-0.366612	0.053555
C46	C	0.673777	-0.307212	0.053555
O47	O	0.674168	-0.276498	0.099156
N48	N	0.674126	-0.277498	-0.000067
C49	C	0.673769	-0.307188	-0.053692
O50	O	0.674132	-0.276459	-0.099302
C51	C	0.673062	-0.366587	-0.053692
C52	C	0.672707	-0.396297	-0.000066
C53	C	0.672712	-0.396323	0.107176
C54	C	0.671999	-0.455719	0.107176
C55	C	0.671640	-0.485404	0.053554
C56	C	0.671994	-0.455693	-0.000067
C57	C	0.672709	-0.396276	-0.107317
C58	C	0.672002	-0.455680	-0.107312
C59	C	0.671647	-0.485390	-0.053686
C60	C	0.670923	-0.544774	-0.053688
N61	N	0.670574	-0.574489	-0.000066
C62	C	0.670933	-0.544803	0.053555
C63	C	0.675256	-0.182445	-0.053690
C64	C	0.675960	-0.123046	-0.053691
C65	C	0.675969	-0.123074	0.053557
C66	C	0.675261	-0.182474	0.053558
C67	C	0.674907	-0.212159	-0.000068
C68	C	0.669436	-0.669539	0.053550
C69	C	0.668720	-0.728940	0.053545
C70	C	0.668715	-0.728906	-0.053702
C71	C	0.669427	-0.669510	-0.053697
C72	C	0.669789	-0.639828	-0.000066
O73	O	0.670534	-0.575527	-0.099266
O74	O	0.670578	-0.575540	0.099157
C75	C	0.776492	0.069243	-0.000085
C76	C	0.839711	0.069998	-0.000089
C77	C	0.667596	0.178158	-0.000075
C78	C	0.668362	0.241375	-0.000076
N79	N	0.672336	0.074044	-0.153330
C80	C	0.633386	0.112941	-0.438174
C81	C	0.633385	0.112947	-0.376255
O82	O	0.600251	0.146044	-0.344232
N83	N	0.672332	0.074022	-0.345283
C84	C	0.711280	0.035084	-0.376234
O85	O	0.744408	0.001975	-0.344204
C86	C	0.711279	0.035076	-0.438153
C87	C	0.672332	0.074008	-0.469121
C88	C	0.594443	0.151870	-0.469143
C89	C	0.594445	0.151865	-0.531059
C90	C	0.633391	0.112931	-0.562006
C91	C	0.672335	0.074003	-0.531037
C92	C	0.750224	-0.003863	-0.469103
C93	C	0.750218	-0.003868	-0.531026
C94	C	0.711272	0.035064	-0.561994
C95	C	0.711283	0.035065	-0.623899
N96	N	0.672336	0.073991	-0.654871
C97	C	0.633390	0.112924	-0.623925
C98	C	0.711280	0.035103	-0.246200
C99	C	0.711285	0.035113	-0.184283
C100	C	0.633388	0.112975	-0.184308
C101	C	0.633387	0.112967	-0.246226
C102	C	0.672332	0.074028	-0.277172
C103	C	0.633398	0.112911	-0.753952
C104	C	0.633405	0.112904	-0.815873
C105	C	0.711300	0.035040	-0.815843
C106	C	0.711294	0.035049	-0.753927
C107	C	0.672339	0.073986	-0.722983
O108	O	0.744399	0.001984	-0.655961
O109	O	0.600263	0.146022	-0.655962
N110	N	0.672351	0.073971	0.153180
H111	H	0.391682	0.076637	0.097227
O112	O	0.669839	-0.640599	-0.105754
C113	C	0.719590	-0.612985	-0.108988
H114	H	0.736151	-0.606333	-0.062436
H115	H	0.708994	-0.569701	-0.131691
H116	H	0.753854	-0.640591	-0.135451
O117	O	0.749065	-0.002813	-0.154269
C118	C	0.740094	-0.059117	-0.169452
H119	H	0.694485	-0.059110	-0.186442
H120	H	0.746821	-0.087781	-0.128761
H121	H	0.771723	-0.075988	-0.205430
O122	O	0.668294	-0.757803	-0.105749
C123	C	0.618549	-0.785425	-0.108962
H124	H	0.601990	-0.792082	-0.062404
H125	H	0.629150	-0.828707	-0.131647
H126	H	0.584280	-0.757822	-0.135432
H127	H	0.743014	0.003352	-0.728712
O128	O	0.749144	-0.002642	-0.276323
C129	C	0.784115	0.027668	-0.312143
H130	H	0.761177	0.072350	-0.321441
H131	H	0.793267	0.003839	-0.355672
H132	H	0.826180	0.031325	-0.288280
H133	H	0.601673	0.144668	-0.271438
O134	O	0.676296	-0.094317	0.105700
C135	C	0.675851	-0.133276	0.153034
H136	H	0.657308	-0.173155	0.137324
H137	H	0.648408	-0.112345	0.190540
H138	H	0.721474	-0.145830	0.169513
H139	H	0.601691	0.144609	-0.841086
H140	H	-0.047021	0.071338	0.097207
O141	O	0.788105	-0.041718	-0.560994
C142	C	0.822464	-0.076086	-0.520377
H143	H	0.822976	-0.052732	-0.476249
H144	H	0.867995	-0.085023	-0.538266
H145	H	0.804207	-0.118293	-0.513773
H146	H	0.226230	0.074688	-0.150986
H147	H	0.743011	0.003343	-0.841049
H148	H	0.601675	0.144676	-0.159099
H149	H	0.226222	0.074598	0.150838
O150	O	0.504046	0.078011	-0.105825
C151	C	0.465094	0.077564	-0.153152
H152	H	0.425215	0.059016	-0.137430
H153	H	0.486032	0.050126	-0.190656
H154	H	0.452537	0.123188	-0.169640
O155	O	0.668400	-0.757715	0.105693
C156	C	0.668855	-0.718770	0.153018
H157	H	0.687398	-0.678887	0.137294
H158	H	0.696302	-0.739713	0.190522
H159	H	0.623235	-0.706217	0.169508
O160	O	0.787901	-0.041855	-0.439051
C161	C	0.757462	-0.076821	-0.403360
H162	H	0.712846	-0.053763	-0.393995
H163	H	0.781283	-0.086200	-0.359855
H164	H	0.753644	-0.118773	-0.427366
O165	O	-0.159354	0.069952	-0.105843
C166	C	-0.138113	0.020794	-0.138455
H167	H	-0.092741	0.004867	-0.123208
H168	H	-0.137596	0.031920	-0.187511
H169	H	-0.166827	-0.014154	-0.131016
O170	O	0.386970	0.076694	-0.105746
C171	C	0.345887	0.125619	-0.108965
H172	H	0.334732	0.141944	-0.062409
H173	H	0.305638	0.114027	-0.131670
H174	H	0.364069	0.160446	-0.135420
H175	H	0.669731	-0.645379	0.097222
O176	O	0.113892	0.073260	-0.159454
C177	C	0.135138	0.024105	-0.192070
H178	H	0.180505	0.008170	-0.176810
H179	H	0.135672	0.035240	-0.241123
H180	H	0.106418	-0.010840	-0.184650
O181	O	-0.042257	0.071365	-0.105764
C182	C	-0.001179	0.022438	-0.108982
H183	H	0.009966	0.006088	-0.062426
H184	H	0.039077	0.034037	-0.131681
H185	H	-0.019359	-0.012373	-0.135442
O186	O	-0.159349	0.069966	0.105678
C187	C	-0.120398	0.070441	0.153003
H188	H	-0.075595	0.052923	0.137279
H189	H	-0.133782	0.042572	0.190508
H190	H	-0.120320	0.116210	0.169489
H191	H	0.671714	-0.479846	-0.150981
H192	H	0.118473	0.073302	0.150837
H193	H	0.676238	-0.098859	-0.097358
H194	H	0.499450	0.077934	0.097227
H195	H	0.673004	-0.372097	-0.150984
O196	O	0.671596	-0.484500	0.159309
C197	C	0.622441	-0.463273	0.191942
H198	H	0.606495	-0.417904	0.176687
H199	H	0.633579	-0.462750	0.240991
H200	H	0.587501	-0.491999	0.184535
O201	O	0.673127	-0.367460	0.159244
C202	C	0.722840	-0.339789	0.162475
H203	H	0.757140	-0.362381	0.132078
H204	H	0.739370	-0.341358	0.209914
H205	H	0.712212	-0.293255	0.148046
O206	O	0.674880	-0.211186	-0.105838
C207	C	0.675353	-0.172218	-0.153160
H208	H	0.657828	-0.127422	-0.137430
H209	H	0.647489	-0.185594	-0.190661
H210	H	0.721123	-0.172128	-0.169656
O211	O	0.595538	0.150791	-0.723990
C212	C	0.561161	0.185136	-0.764612
H213	H	0.584513	0.185644	-0.808749
H214	H	0.552215	0.230669	-0.746744
H215	H	0.518960	0.166868	-0.771190
H216	H	0.562730	0.183564	-0.556270
O217	O	0.556665	0.189773	-0.439115
C218	C	0.565599	0.246096	-0.454291
H219	H	0.611196	0.246124	-0.471312
H220	H	0.558883	0.274728	-0.413589
H221	H	0.533944	0.262980	-0.490243
H222	H	0.674971	-0.206660	0.097224
