data_functionalizedCrystal
_audit_creation_method	'MofGen! by Chris Wilmer'
_symmetry_space_group_name_H-M	'P1'
_symmetry_Int_Tables_number	1
_symmetry_cell_setting	triclinic
loop_
_symmetry_equiv_pos_as_xyz
  x,y,z
_cell_length_a	13.897441
_cell_length_b	21.395362
_cell_length_c	21.395361
_cell_angle_alpha	89.953415
_cell_angle_beta	89.963518
_cell_angle_gamma	90.041279
loop_
_atom_site_label
_atom_site_type_symbol
_atom_site_fract_x
_atom_site_fract_y
_atom_site_fract_z
Zn1	Zn	-0.545871	-0.957843	-0.249153
Zn2	Zn	-0.045871	-0.457843	0.250847
Zn3	Zn	-0.384556	-0.957750	-0.353940
Zn4	Zn	0.115444	-0.457750	0.146060
Zn5	Zn	-0.384531	-0.853063	-0.249209
Zn6	Zn	0.115469	-0.353063	0.250791
Zn7	Zn	-0.545750	-0.853027	-0.353926
Zn8	Zn	-0.045750	-0.353027	0.146074
O9	O	-0.465177	-0.905421	-0.301557
O10	O	0.034823	-0.405421	0.198443
O11	O	-0.524533	-1.045509	-0.263036
O12	O	-0.024533	-0.545509	0.236964
O13	O	-0.249571	-0.943840	-0.340077
O14	O	0.250429	-0.443840	0.159923
O15	O	-0.405974	-0.867016	-0.161524
O16	O	0.094026	-0.367016	0.338476
O17	O	-0.406015	-1.045441	-0.340022
O18	O	0.093985	-0.545441	0.159978
O19	O	-0.524509	-0.943997	-0.161483
O20	O	-0.024509	-0.443997	0.338517
O21	O	-0.249553	-0.866926	-0.263132
O22	O	0.250447	-0.366926	0.236868
O23	O	-0.405857	-0.765380	-0.263118
O24	O	0.094143	-0.265380	0.236882
O25	O	-0.680748	-0.866955	-0.339998
O26	O	-0.180748	-0.366955	0.160002
O27	O	-0.524304	-0.765354	-0.340052
O28	O	-0.024304	-0.265354	0.159948
O29	O	-0.680837	-0.943963	-0.263022
O30	O	-0.180837	-0.443963	0.236978
O31	O	-0.405898	-0.943805	-0.441616
O32	O	0.094102	-0.443805	0.058384
O33	O	-0.524327	-0.866865	-0.441606
O34	O	-0.024327	-0.366865	0.058394
C35	C	-0.465065	-0.742633	-0.301590
C36	C	0.034935	-0.242633	0.198410
C37	C	-0.465040	-0.672992	-0.301619
C38	C	0.034960	-0.172992	0.198381
C39	C	-0.716770	-0.905465	-0.301502
C40	C	-0.216770	-0.405465	0.198498
C41	C	-0.823984	-0.905484	-0.301478
C42	C	-0.323984	-0.405484	0.198522
C43	C	-0.465123	-0.905338	-0.464345
C44	C	0.034877	-0.405338	0.035655
C45	C	-0.465133	-0.905360	-0.533986
C46	C	0.034867	-0.405360	-0.033986
C47	C	-1.020279	-0.905501	-0.301436
C48	C	-0.520279	-0.405501	0.198564
C49	C	-0.911047	-0.905490	-0.301461
C50	C	-0.411047	-0.405490	0.198539
C51	C	-0.214563	-0.905413	-0.301567
C52	C	0.285437	-0.405413	0.198433
C53	C	-0.107349	-0.905515	-0.301414
C54	C	0.392651	-0.405515	0.198586
C55	C	-0.465290	-1.068844	-0.301524
C56	C	0.034710	-0.568844	0.198476
C57	C	-0.465338	-1.138486	-0.301510
C58	C	0.034662	-0.638486	0.198490
C59	C	-0.526623	-0.640282	-0.341732
C60	C	-0.026623	-0.140282	0.158268
C61	C	-0.526666	-0.574846	-0.341717
C62	C	-0.026666	-0.074846	0.158283
C63	C	-0.465109	-0.542124	-0.301595
C64	C	0.034891	-0.042124	0.198405
C65	C	-0.403522	-0.574842	-0.261475
C66	C	0.096478	-0.074842	0.238525
C67	C	-0.403487	-0.640276	-0.261487
C68	C	0.096513	-0.140276	0.238513
C69	C	-0.378272	-0.438402	-0.296563
C70	C	0.121728	0.061598	0.203437
C71	C	-0.378305	-0.372969	-0.296555
C72	C	0.121695	0.127031	0.203445
C73	C	-0.465215	-0.340303	-0.301554
C74	C	0.034785	0.159697	0.198446
C75	C	-0.552095	-0.373078	-0.306575
C76	C	-0.052095	0.126922	0.193425
C77	C	-0.552061	-0.438512	-0.306587
C78	C	-0.052061	0.061488	0.193413
C79	C	-0.465140	-0.471171	-0.301577
C80	C	0.034860	0.028829	0.198423
C81	C	-0.526850	-0.236640	-0.341653
C82	C	-0.026850	0.263360	0.158347
C83	C	-0.526895	-0.171204	-0.341633
C84	C	-0.026895	0.328796	0.158367
C85	C	-0.403742	-0.171201	-0.261394
C86	C	0.096258	0.328799	0.238606
C87	C	-0.403706	-0.236636	-0.261410
C88	C	0.096294	0.263364	0.238590
C89	C	-0.465258	-0.269352	-0.301543
C90	C	0.034742	0.230648	0.198457
C91	C	-0.403530	-0.945458	-0.566684
C92	C	0.096470	-0.445458	-0.066684
C93	C	-0.403551	-0.945487	-0.632119
C94	C	0.096449	-0.445487	-0.132119
C95	C	-0.465166	-0.905407	-0.664854
C96	C	0.034834	-0.405407	-0.164854
C97	C	-0.526780	-0.865306	-0.632149
C98	C	-0.026780	-0.365306	-0.132149
C99	C	-0.526764	-0.865283	-0.566714
C100	C	-0.026764	-0.365283	-0.066714
C101	C	-0.472695	-0.848992	-0.768584
C102	C	0.027305	-0.348992	-0.268584
C103	C	-0.472705	-0.849015	-0.834017
C104	C	0.027295	-0.349015	-0.334017
C105	C	-0.465222	-0.905480	-0.866675
C106	C	0.034778	-0.405480	-0.366675
C107	C	-0.457710	-0.961925	-0.833892
C108	C	0.042290	-0.461925	-0.333892
C109	C	-0.457693	-0.961901	-0.768458
C110	C	0.042307	-0.461901	-0.268458
C111	C	-0.465191	-0.905429	-0.735807
C112	C	0.034809	-0.405429	-0.235807
C113	C	-0.403640	-0.945613	-0.970325
C114	C	0.096360	-0.445613	-0.470325
C115	C	-0.403668	-0.945643	-1.035762
C116	C	0.096332	-0.445643	-0.535762
C117	C	-0.526892	-0.865457	-1.035790
C118	C	-0.026892	-0.365457	-0.535790
C119	C	-0.526869	-0.865432	-0.970355
C120	C	-0.026869	-0.365432	-0.470355
C121	C	-0.465237	-0.905510	-0.937626
C122	C	0.034763	-0.405510	-0.437626
C123	C	-0.465252	-0.905521	-0.138134
C124	C	0.034748	-0.405521	0.361866
C125	C	-0.465284	-0.905564	-0.068492
C126	C	0.034716	-0.405564	0.431508
H127	H	-0.576746	-0.666915	-0.374411
H128	H	-0.076746	-0.166915	0.125589
C129	C	-0.656669	-0.097707	-0.350434
C130	C	-0.156669	0.402293	0.149566
C131	C	-0.594596	-0.135247	-0.385728
C132	C	-0.094596	0.364753	0.114272
H133	H	-0.698468	-0.075513	-0.377658
H134	H	-0.198468	0.424487	0.122342
H135	H	-0.620020	-0.068858	-0.326540
H136	H	-0.120020	0.431142	0.173460
H137	H	-0.693627	-0.123296	-0.323174
H138	H	-0.193627	0.376704	0.176826
H139	H	-0.557632	-0.109658	-0.412985
H140	H	-0.057632	0.390342	0.087015
H141	H	-0.631249	-0.164101	-0.409633
H142	H	-0.131249	0.335899	0.090367
H143	H	-0.353458	-0.978249	-0.943677
H144	H	0.146542	-0.478249	-0.443677
H145	H	-0.478792	-0.803008	-0.742000
H146	H	0.021208	-0.303008	-0.242000
H147	H	-0.353505	-0.978300	-1.062383
H148	H	0.146495	-0.478300	-0.562383
C149	C	-0.707494	-0.458814	-0.261890
C150	C	-0.207494	0.041186	0.238110
C151	C	-0.647556	-0.474539	-0.312094
C152	C	-0.147556	0.025461	0.187906
H153	H	-0.766447	-0.481059	-0.265287
H154	H	-0.266447	0.018941	0.234713
H155	H	-0.719953	-0.415176	-0.262606
H156	H	-0.219953	0.084824	0.237394
H157	H	-0.676736	-0.469555	-0.223731
H158	H	-0.176736	0.030445	0.276269
H159	H	-0.678311	-0.463793	-0.350254
H160	H	-0.178311	0.036207	0.149746
H161	H	-0.635099	-0.518187	-0.311385
H162	H	-0.135099	-0.018187	0.188615
C163	C	-0.539854	-0.501181	-0.425994
C164	C	-0.039854	-0.001181	0.074006
C165	C	-0.594361	-0.538882	-0.385814
C166	C	-0.094361	-0.038882	0.114186
H167	H	-0.581648	-0.478979	-0.453215
H168	H	-0.081648	0.021021	0.046785
H169	H	-0.497753	-0.526656	-0.449928
H170	H	0.002247	-0.026656	0.050072
H171	H	-0.503206	-0.472332	-0.402087
H172	H	-0.003206	0.027668	0.097913
H173	H	-0.631004	-0.567735	-0.409721
H174	H	-0.131004	-0.067735	0.090279
H175	H	-0.636479	-0.513405	-0.361879
H176	H	-0.136479	-0.013405	0.138121
C177	C	-0.348754	-0.740579	-0.225880
C178	C	0.151246	-0.240579	0.274120
C179	C	-0.335786	-0.676236	-0.217394
C180	C	0.164214	-0.176236	0.282606
H181	H	-0.306960	-0.762779	-0.198657
H182	H	0.193040	-0.262779	0.301343
H183	H	-0.334508	-0.751244	-0.267964
H184	H	0.165492	-0.251244	0.232036
H185	H	-0.413587	-0.751351	-0.216763
H186	H	0.086413	-0.251351	0.283237
H187	H	-0.270955	-0.665463	-0.226516
H188	H	0.229045	-0.165463	0.273484
H189	H	-0.350025	-0.665567	-0.175301
H190	H	0.149975	-0.165567	0.324699
C191	C	-0.573572	-0.759201	-0.652390
C192	C	-0.073572	-0.259201	-0.152390
C193	C	-0.594510	-0.821249	-0.668126
C194	C	-0.094510	-0.321249	-0.168126
H195	H	-0.615395	-0.732004	-0.674598
H196	H	-0.115395	-0.232004	-0.174598
H197	H	-0.508756	-0.750060	-0.663161
H198	H	-0.008756	-0.250060	-0.163161
H199	H	-0.582381	-0.753458	-0.608739
H200	H	-0.082381	-0.253458	-0.108739
H201	H	-0.585694	-0.826993	-0.711777
H202	H	-0.085694	-0.326993	-0.211777
H203	H	-0.659342	-0.830392	-0.657359
H204	H	-0.159342	-0.330392	-0.157359
C205	C	-0.581633	-0.829890	-1.136105
C206	C	-0.081633	-0.329890	-0.636105
C207	C	-0.594624	-0.821401	-1.071765
C208	C	-0.094624	-0.321401	-0.571765
H209	H	-0.623448	-0.802689	-1.158315
H210	H	-0.123448	-0.302689	-0.658315
H211	H	-0.595834	-0.871982	-1.146766
H212	H	-0.095834	-0.371982	-0.646766
H213	H	-0.516806	-0.820744	-1.146868
H214	H	-0.016806	-0.320744	-0.646868
H215	H	-0.659449	-0.830551	-1.061000
H216	H	-0.159449	-0.330551	-0.561000
H217	H	-0.580429	-0.779299	-1.061099
H218	H	-0.080429	-0.279299	-0.561099
H219	H	-0.353625	-0.144559	-0.228723
H220	H	0.146375	0.355441	0.271277
H221	H	-0.577028	-0.832778	-0.943730
H222	H	-0.077028	-0.332778	-0.443730
C223	C	-0.222853	-0.352684	-0.341233
C224	C	0.277147	0.147316	0.158767
C225	C	-0.282804	-0.336951	-0.291039
C226	C	0.217196	0.163049	0.208961
H227	H	-0.163890	-0.330453	-0.337824
H228	H	0.336110	0.169547	0.162176
H229	H	-0.253586	-0.341939	-0.379393
H230	H	0.246414	0.158061	0.120607
H231	H	-0.210411	-0.396331	-0.340515
H232	H	0.289589	0.103669	0.159485
H233	H	-0.295252	-0.293304	-0.291759
H234	H	0.204748	0.206696	0.208241
H235	H	-0.252064	-0.347691	-0.252868
H236	H	0.247936	0.152309	0.247132
C237	C	-0.531026	-1.032093	-0.907338
C238	C	-0.031026	-0.532093	-0.407338
C239	C	-0.449498	-1.024002	-0.869776
C240	C	0.050502	-0.524002	-0.369776
H241	H	-0.525959	-1.070417	-0.929488
H242	H	-0.025959	-0.570417	-0.429488
H243	H	-0.535489	-0.998489	-0.936226
H244	H	-0.035489	-0.498489	-0.436226
H245	H	-0.586922	-1.032868	-0.881769
H246	H	-0.086922	-0.532868	-0.381769
H247	H	-0.393603	-1.023221	-0.895346
H248	H	0.106397	-0.523221	-0.395346
H249	H	-0.445025	-1.057614	-0.840885
H250	H	0.054975	-0.557614	-0.340885
H251	H	-0.307495	-0.464992	-0.292489
H252	H	0.192505	0.035008	0.207511
C253	C	-0.281727	-1.024732	-0.625526
C254	C	0.218273	-0.524732	-0.125526
C255	C	-0.335826	-0.989561	-0.668071
C256	C	0.164174	-0.489561	-0.168071
H257	H	-0.239912	-1.051938	-0.647721
H258	H	0.260088	-0.551938	-0.147721
H259	H	-0.323787	-1.048680	-0.599958
H260	H	0.176213	-0.548680	-0.099958
H261	H	-0.244779	-0.997429	-0.600051
H262	H	0.255221	-0.497429	-0.100051
H263	H	-0.372779	-1.016864	-0.693542
H264	H	0.127221	-0.516864	-0.193542
H265	H	-0.293760	-0.965612	-0.693649
H266	H	0.206240	-0.465612	-0.193649
C267	C	-0.487545	-0.737407	-0.827567
C268	C	0.012455	-0.237407	-0.327567
C269	C	-0.480963	-0.786973	-0.870048
C270	C	0.019037	-0.286973	-0.370048
H271	H	-0.492649	-0.699105	-0.849812
H272	H	0.007351	-0.199105	-0.349812
H273	H	-0.431629	-0.736602	-0.802076
H274	H	0.068371	-0.236602	-0.302076
H275	H	-0.542833	-0.742896	-0.802010
H276	H	-0.042833	-0.242896	-0.302010
H277	H	-0.425670	-0.781486	-0.895602
H278	H	0.074330	-0.281486	-0.395602
H279	H	-0.536884	-0.787777	-0.895550
H280	H	-0.036884	-0.287777	-0.395550
H281	H	-0.576975	-0.263279	-0.374328
H282	H	-0.076975	0.236721	0.125672
C283	C	-0.273767	-0.954186	-0.493163
C284	C	0.226233	-0.454186	0.006837
C285	C	-0.335790	-0.989516	-0.530712
C286	C	0.164210	-0.489516	-0.030712
H287	H	-0.231945	-0.981387	-0.470959
H288	H	0.268055	-0.481387	0.029041
H289	H	-0.310451	-0.930309	-0.464322
H290	H	0.189549	-0.430309	0.035678
H291	H	-0.236830	-0.926910	-0.518747
H292	H	0.263170	-0.426910	-0.018747
H293	H	-0.372732	-1.016789	-0.505128
H294	H	0.127268	-0.516789	-0.005128
H295	H	-0.299102	-1.013404	-0.559557
H296	H	0.200898	-0.513404	-0.059557
H297	H	-0.576930	-0.832630	-0.540091
H298	H	-0.076930	-0.332630	-0.040091
H299	H	-0.622866	-0.346483	-0.310645
H300	H	-0.122866	0.153517	0.189355
H301	H	-0.353553	-0.263269	-0.228749
H302	H	0.146447	0.236731	0.271251
H303	H	-0.353403	-0.548195	-0.228806
H304	H	0.146597	-0.048195	0.271194
H305	H	-0.451579	-1.007860	-0.741768
H306	H	0.048421	-0.507860	-0.241768
