data_functionalizedCrystal
_audit_creation_method	'MofGen! by Chris Wilmer'
_symmetry_space_group_name_H-M	'P1'
_symmetry_Int_Tables_number	1
_symmetry_cell_setting	triclinic
loop_
_symmetry_equiv_pos_as_xyz
  x,y,z
_cell_length_a	16.109301
_cell_length_b	16.109301
_cell_length_c	15.186229
_cell_angle_alpha	90.005167
_cell_angle_beta	90.000638
_cell_angle_gamma	83.461481
loop_
_atom_site_label
_atom_site_type_symbol
_atom_site_fract_x
_atom_site_fract_y
_atom_site_fract_z
O1	O	-1.103131	-0.106866	-0.073176
O2	O	-0.769797	0.226467	0.260158
O3	O	-0.436464	0.559801	0.593491
O4	O	-0.861069	-0.120165	-0.073190
O5	O	-0.527735	0.213168	0.260143
O6	O	-0.194402	0.546501	0.593477
O7	O	-0.988749	0.007515	-0.073174
O8	O	-0.655416	0.340849	0.260160
O9	O	-0.322083	0.674182	0.593493
O10	O	-0.975450	-0.234547	-0.073192
O11	O	-0.642117	0.098787	0.260141
O12	O	-0.308783	0.432120	0.593474
O13	O	-0.988741	0.007517	0.073284
O14	O	-0.655407	0.340850	0.406617
O15	O	-0.322074	0.674184	0.739950
O16	O	-0.861060	-0.120164	0.073267
O17	O	-0.527727	0.213170	0.406601
O18	O	-0.194393	0.546503	0.739934
O19	O	-1.103122	-0.106864	0.073282
O20	O	-0.769789	0.226469	0.406615
O21	O	-0.436455	0.559802	0.739948
Zn22	Zn	-0.982090	-0.113514	0.096528
Zn23	Zn	-0.648756	0.219820	0.429861
Zn24	Zn	-0.315423	0.553153	0.763194
Zn25	Zn	-0.982101	-0.113516	-0.096436
Zn26	Zn	-0.648768	0.219817	0.236897
Zn27	Zn	-0.315434	0.553151	0.570231
O28	O	-0.975441	-0.234545	0.073265
O29	O	-0.642108	0.098788	0.406598
O30	O	-0.308775	0.432122	0.739932
C31	C	-0.830090	-0.119626	0.000037
C32	C	-0.496756	0.213708	0.333370
C33	C	-0.163423	0.547041	0.666704
C34	C	-0.737794	-0.118011	0.000032
C35	C	-0.404461	0.215323	0.333365
C36	C	-0.071128	0.548656	0.666698
C37	C	-0.988206	0.038491	0.000056
C38	C	-0.654873	0.371824	0.333389
C39	C	-0.321540	0.705158	0.666722
C40	C	-0.986591	0.130786	0.000057
C41	C	-0.653258	0.464120	0.333390
C42	C	-0.319925	0.797453	0.666723
C43	C	-1.134101	-0.107404	0.000053
C44	C	-0.800768	0.225929	0.333386
C45	C	-0.467435	0.559263	0.666719
C46	C	-1.226397	-0.109019	0.000052
C47	C	-0.893063	0.224314	0.333385
C48	C	-0.559730	0.557648	0.666719
C49	C	-0.975984	-0.265521	0.000034
C50	C	-0.642651	0.067813	0.333367
C51	C	-0.309318	0.401146	0.666701
C52	C	-0.977600	-0.357816	0.000027
C53	C	-0.644266	-0.024483	0.333360
C54	C	-0.310933	0.308851	0.666694
C55	C	-0.515522	-0.190018	0.000036
C56	C	-0.182188	0.143315	0.333370
C57	C	0.151145	0.476648	0.666703
C58	C	-0.428801	-0.188494	0.000042
C59	C	-0.095468	0.144839	0.333375
C60	C	0.237865	0.478172	0.666709
C61	C	-0.448676	-0.037006	0.000050
C62	C	-0.115342	0.296328	0.333383
C63	C	0.217991	0.629661	0.666717
C64	C	-0.535394	-0.038530	0.000051
C65	C	-0.202061	0.294803	0.333384
C66	C	0.131272	0.628136	0.666717
C67	C	-0.568815	-0.115039	0.000039
C68	C	-0.235482	0.218294	0.333373
C69	C	0.097852	0.551627	0.666706
C70	C	-0.395376	-0.111990	0.000045
C71	C	-0.062042	0.221343	0.333378
C72	C	0.271291	0.554676	0.666711
C73	C	-0.301350	-0.110337	0.000051
C74	C	0.031984	0.222996	0.333384
C75	C	0.365317	0.556329	0.666717
C76	C	-0.662847	-0.116693	0.000035
C77	C	-0.329514	0.216641	0.333368
C78	C	0.003820	0.549974	0.666701
N79	N	-0.982088	-0.113511	0.228220
N80	N	-0.648755	0.219822	0.561554
N81	N	-0.315422	0.553155	0.894887
C82	C	-1.058599	0.353059	0.000047
C83	C	-0.725266	0.686392	0.333380
C84	C	-0.391932	1.019725	0.666714
C85	C	-1.057075	0.439779	0.000040
C86	C	-0.723742	0.773112	0.333373
C87	C	-0.390408	1.106446	0.666706
C88	C	-0.905586	0.419905	0.000034
C89	C	-0.572253	0.753238	0.333367
C90	C	-0.238919	1.086571	0.666701
C91	C	-0.907111	0.333186	0.000035
C92	C	-0.573778	0.666519	0.333369
C93	C	-0.240444	0.999853	0.666702
C94	C	-0.983620	0.299766	0.000046
C95	C	-0.650287	0.633099	0.333379
C96	C	-0.316953	0.966432	0.666713
C97	C	-0.980571	0.473205	0.000038
C98	C	-0.647238	0.806538	0.333371
C99	C	-0.313904	1.139871	0.666704
C100	C	-0.978918	0.567231	0.000030
C101	C	-0.645585	0.900564	0.333363
C102	C	-0.312251	1.233897	0.666696
C103	C	-0.985273	0.205734	0.000052
C104	C	-0.651940	0.539067	0.333386
C105	C	-0.318607	0.872400	0.666719
N106	N	-0.982109	-0.113512	-0.228129
N107	N	-0.648776	0.219822	0.105205
N108	N	-0.315442	0.553155	0.438538
C109	C	-1.038644	-0.056994	0.453950
C110	C	-0.705311	0.276340	0.787284
C111	C	-0.371978	0.609673	1.120617
C112	C	-1.038647	-0.056992	0.546140
C113	C	-0.705314	0.276342	0.879473
C114	C	-0.371980	0.609675	1.212807
C115	C	-0.925547	-0.170032	0.546135
C116	C	-0.592214	0.163301	0.879468
C117	C	-0.258880	0.496634	1.212801
C118	C	-0.925541	-0.170030	0.453947
C119	C	-0.592208	0.163304	0.787280
C120	C	-0.258874	0.496637	1.120613
C121	C	-0.982094	-0.113511	0.407857
C122	C	-0.648761	0.219822	0.741190
C123	C	-0.315428	0.553155	1.074524
C124	C	-0.982103	-0.113512	0.592235
C125	C	-0.648770	0.219821	0.925568
C126	C	-0.315436	0.553155	1.258901
C127	C	-0.982105	-0.113510	0.692191
C128	C	-0.648772	0.219823	1.025524
C129	C	-0.315439	0.553157	1.358857
C130	C	-0.982091	-0.113512	0.307894
C131	C	-0.648758	0.219822	0.641228
C132	C	-0.315424	0.553155	0.974561
H133	H	-0.542730	-0.252317	0.000034
H134	H	-0.209396	0.081017	0.333367
H135	H	0.123937	0.414350	0.666700
H136	H	-1.120897	0.325851	0.000054
H137	H	-0.787564	0.659184	0.333387
H138	H	-0.454231	0.992518	0.666721
H139	H	-1.118130	0.483168	0.000039
H140	H	-0.784797	0.816501	0.333372
H141	H	-0.451464	1.149834	0.666705
Cl142	Cl	-0.361807	-0.282758	0.000039
Cl143	Cl	-0.028474	0.050575	0.333373
Cl144	Cl	0.304859	0.383908	0.666706
H145	H	-0.843295	0.447127	0.000027
H146	H	-0.509962	0.780460	0.333360
H147	H	-0.176628	1.113793	0.666694
Cl148	Cl	-0.812844	0.266184	0.000026
Cl149	Cl	-0.479510	0.599517	0.333360
Cl150	Cl	-0.146177	0.932850	0.666693
Cl151	Cl	-1.109740	0.014064	0.604084
Cl152	Cl	-0.776406	0.347397	0.937417
Cl153	Cl	-0.443073	0.680730	1.270751
Cl154	Cl	-0.854458	-0.241084	0.604080
Cl155	Cl	-0.521124	0.092249	0.937413
Cl156	Cl	-0.187791	0.425583	1.270747
H157	H	-0.879487	-0.216053	0.416415
H158	H	-0.546154	0.117280	0.749748
H159	H	-0.212820	0.450613	1.083081
H160	H	-0.421454	0.025285	0.000065
H161	H	-0.088121	0.358619	0.333398
H162	H	0.245213	0.691952	0.666731
H163	H	-1.084692	-0.010972	0.416426
H164	H	-0.751359	0.322362	0.749760
H165	H	-0.418026	0.655695	1.083093
H166	H	-0.578788	0.022530	0.000056
H167	H	-0.245455	0.355864	0.333389
H168	H	0.087878	0.689197	0.666722
