data_functionalizedCrystal
_audit_creation_method	'MofGen! by Chris Wilmer'
_symmetry_space_group_name_H-M	'P1'
_symmetry_Int_Tables_number	1
_symmetry_cell_setting	triclinic
loop_
_symmetry_equiv_pos_as_xyz
  x,y,z
_cell_length_a	12.759395
_cell_length_b	19.120786
_cell_length_c	12.759387
_cell_angle_alpha	92.476434
_cell_angle_beta	90.020509
_cell_angle_gamma	92.466757
loop_
_atom_site_label
_atom_site_type_symbol
_atom_site_fract_x
_atom_site_fract_y
_atom_site_fract_z
Zn1	Zn	1.588349	-0.279566	0.576121
Zn2	Zn	1.580710	-0.397042	0.392927
Zn3	Zn	1.412645	-0.279604	0.400456
Zn4	Zn	1.405113	-0.396992	0.568569
O5	O	1.496704	-0.338301	0.484518
O6	O	1.734357	-0.295154	0.551830
O7	O	1.558371	-0.381500	0.246902
O8	O	1.442302	-0.181308	0.430070
O9	O	1.728744	-0.381463	0.417238
O10	O	1.571391	-0.181280	0.559130
O11	O	1.434894	-0.295220	0.252433
O12	O	1.264625	-0.295171	0.422747
O13	O	1.429465	-0.381378	0.716595
O14	O	1.259092	-0.381415	0.546259
O15	O	1.564088	-0.295106	0.722143
O16	O	1.551068	-0.495326	0.409915
O17	O	1.422057	-0.495289	0.538958
C18	C	1.223738	-0.338292	0.484501
C19	C	1.106960	-0.338306	0.484517
C20	C	1.484945	-0.520793	0.472823
C21	C	1.480010	-0.598864	0.467855
C22	C	1.101227	-0.428257	0.612904
C23	C	1.043500	-0.473238	0.677100
C24	C	0.933777	-0.473246	0.677112
C25	C	0.881781	-0.428267	0.612924
C26	C	0.939508	-0.383286	0.548728
C27	C	1.049233	-0.383284	0.548720
C28	C	0.945241	-0.293333	0.420348
C29	C	1.054963	-0.293327	0.420329
C30	C	0.893245	-0.248354	0.356160
C31	C	0.950972	-0.203375	0.291957
C32	C	1.060701	-0.203369	0.291946
C33	C	1.112691	-0.248346	0.356133
C34	C	1.544852	-0.635467	0.532770
C35	C	1.540211	-0.708823	0.528104
C36	C	1.470733	-0.745575	0.458516
C37	C	1.405884	-0.708967	0.393598
C38	C	1.410521	-0.635612	0.398270
C39	C	1.453369	-0.967062	0.441049
C40	C	1.448740	-1.040422	0.436380
C41	C	1.583066	-1.040273	0.570888
C42	C	1.587700	-0.966917	0.575549
C43	C	1.522848	-0.930316	0.510635
C44	C	1.465990	-0.820557	0.453743
C45	C	1.527587	-0.855335	0.515415
C46	C	1.770737	-0.338310	0.484537
C47	C	1.887514	-0.338314	0.484544
C48	C	1.496788	-0.338232	0.758556
C49	C	1.496824	-0.338203	0.875335
C50	C	1.508539	-0.155096	0.496282
C51	C	1.513582	-0.077025	0.501295
C52	C	1.496685	-0.338319	0.211550
C53	C	1.496865	-0.338150	0.094784
C54	C	1.637015	-0.248374	0.881132
C55	C	1.707126	-0.203448	0.938892
C56	C	1.707154	-0.203423	1.048615
C57	C	1.637060	-0.248326	1.100581
C58	C	1.566949	-0.293251	1.042821
C59	C	1.566932	-0.293273	0.933095
C60	C	1.426754	-0.383075	1.037024
C61	C	1.426730	-0.383106	0.927301
C62	C	1.356661	-0.427978	1.088990
C63	C	1.286553	-0.472908	1.031229
C64	C	1.286530	-0.472932	0.921500
C65	C	1.356619	-0.428031	0.869541
H66	H	1.190568	-0.428259	0.612892
C67	C	1.209461	-0.522296	1.088396
C68	C	1.251441	-0.577420	1.160300
C69	C	1.174351	-0.626810	1.217473
C70	C	1.055282	-0.621076	1.202743
C71	C	1.013296	-0.565949	1.130836
C72	C	1.090386	-0.516559	1.073662
H73	H	1.339588	-0.581668	1.171207
H74	H	1.205432	-0.667619	1.270704
H75	H	0.998215	-0.657637	1.245066
H76	H	0.925149	-0.561702	1.119928
H77	H	1.059305	-0.475751	1.020432
H78	H	0.803903	-0.248361	0.356179
C79	C	1.100696	-0.522713	0.747705
C80	C	1.221387	-0.522710	0.747697
C81	C	1.278579	-0.572183	0.818305
C82	C	1.215081	-0.621658	0.888921
C83	C	1.094384	-0.621663	0.888932
C84	C	1.037192	-0.572190	0.818324
H85	H	1.268398	-0.486084	0.695421
H86	H	1.367927	-0.572179	0.818297
H87	H	1.257418	-0.658281	0.941190
H88	H	1.047373	-0.658289	0.941209
H89	H	0.947843	-0.572194	0.818332
H90	H	0.908628	-0.166754	0.239705
H91	H	1.637080	-0.248295	1.189924
C92	C	1.604012	-0.814910	0.591958
C93	C	1.689699	-0.764453	0.549705
C94	C	1.766128	-0.724020	0.626245
C95	C	1.756870	-0.734045	0.745037
C96	C	1.671179	-0.784505	0.787296
C97	C	1.594750	-0.824938	0.710757
H98	H	1.696555	-0.757029	0.461763
H99	H	1.829562	-0.686666	0.594961
H100	H	1.813447	-0.704115	0.801696
H101	H	1.664323	-0.791929	0.875239
H102	H	1.531316	-0.862292	0.742040
H103	H	1.400566	-0.937267	0.388192
C104	C	1.389576	-0.860983	0.377183
C105	C	1.270766	-0.850969	0.386272
C106	C	1.194352	-0.891396	0.309711
C107	C	1.236749	-0.941838	0.224062
C108	C	1.355565	-0.951854	0.214969
C109	C	1.431978	-0.911426	0.291530
H110	H	1.239376	-0.813627	0.449678
H111	H	1.106397	-0.883982	0.316443
H112	H	1.180183	-0.971764	0.167387
H113	H	1.386955	-0.989195	0.151563
H114	H	1.519934	-0.918841	0.284798
H115	H	0.792439	-0.428272	0.612949
H116	H	1.637010	-0.248396	0.791789
C117	C	0.870269	-0.522724	0.747727
C118	C	0.791266	-0.577831	0.698529
C119	C	0.727757	-0.627307	0.769144
C120	C	0.743252	-0.621677	0.888955
C121	C	0.822259	-0.566568	0.938158
C122	C	0.885768	-0.517092	0.867544
H123	H	0.779793	-0.582000	0.609832
H124	H	0.669271	-0.668103	0.732719
H125	H	0.696239	-0.658303	0.941228
H126	H	0.833732	-0.562399	1.026856
H127	H	0.944254	-0.476296	0.903969
H128	H	1.229426	-0.509508	0.874478
H129	H	1.593020	-0.738622	0.580957
H130	H	1.764193	-0.166888	0.896570
C131	C	1.664125	-0.926498	0.652107
C132	C	1.749829	-0.876044	0.609875
C133	C	1.826257	-0.835627	0.686432
C134	C	1.816982	-0.845664	0.805221
C135	C	1.731274	-0.896120	0.847458
C136	C	1.654846	-0.936537	0.770901
H137	H	1.756698	-0.868612	0.521936
H138	H	1.889704	-0.798275	0.655165
H139	H	1.873559	-0.815745	0.861893
H140	H	1.724405	-0.903552	0.935397
H141	H	1.591399	-0.973888	0.802168
C142	C	1.329459	-0.749393	0.317050
C143	C	1.371844	-0.799833	0.231391
C144	C	1.295420	-0.840258	0.154839
C145	C	1.176611	-0.830244	0.163945
C146	C	1.134220	-0.779802	0.249607
C147	C	1.210644	-0.739377	0.326160
H148	H	1.459798	-0.807248	0.224647
H149	H	1.326801	-0.877599	0.091426
H150	H	1.120037	-0.860170	0.107276
H151	H	1.046265	-0.772387	0.256351
H152	H	1.179263	-0.702037	0.389572
H153	H	1.107697	-0.166735	0.239678
H154	H	1.635863	-1.070082	0.623738
C155	C	1.372309	-1.080855	0.359833
C156	C	1.414698	-1.131295	0.274177
C157	C	1.338276	-1.171730	0.197634
C158	C	1.219465	-1.161725	0.206746
C159	C	1.177071	-1.111283	0.292405
C160	C	1.253493	-1.070848	0.368949
H161	H	1.502654	-1.138704	0.267429
H162	H	1.369659	-1.209071	0.134223
H163	H	1.162893	-1.191658	0.150084
H164	H	1.089115	-1.103875	0.299154
H165	H	1.222109	-1.033507	0.432359
C166	C	1.784276	-0.154007	1.112158
C167	C	1.861374	-0.104615	1.055009
C168	C	1.938497	-0.055201	1.118552
C169	C	1.938520	-0.055178	1.239244
C170	C	1.861419	-0.104571	1.296399
C171	C	1.784297	-0.153986	1.232856
H172	H	1.861359	-0.104631	0.965660
H173	H	1.995572	-0.018636	1.076241
H174	H	1.995611	-0.018598	1.286282
H175	H	1.861434	-0.104556	1.385748
H176	H	1.727221	-0.190550	1.275167
H177	H	1.357719	-0.605811	0.345411
H178	H	1.202032	-0.248347	0.356127
H179	H	1.601432	-0.605549	0.589432
H180	H	1.356684	-0.427952	1.178333
H181	H	1.356611	-0.428049	0.780198
