data_functionalizedCrystal
_audit_creation_method	'MofGen! by Chris Wilmer'
_symmetry_space_group_name_H-M	'P1'
_symmetry_Int_Tables_number	1
_symmetry_cell_setting	triclinic
loop_
_symmetry_equiv_pos_as_xyz
  x,y,z
_cell_length_a	25.639240
_cell_length_b	12.594517
_cell_length_c	12.594510
_cell_angle_alpha	89.988729
_cell_angle_beta	89.952568
_cell_angle_gamma	90.028646
loop_
_atom_site_label
_atom_site_type_symbol
_atom_site_fract_x
_atom_site_fract_y
_atom_site_fract_z
Zn1	Zn	-0.208161	1.627141	-0.601484
Zn2	Zn	-0.295613	1.626981	-0.423464
Zn3	Zn	-0.208187	1.449146	-0.423543
Zn4	Zn	-0.295561	1.449075	-0.601425
O5	O	-0.251880	1.538086	-0.512479
O6	O	-0.219772	1.776066	-0.577861
O7	O	-0.284048	1.603353	-0.274529
O8	O	-0.135018	1.472854	-0.447205
O9	O	-0.284023	1.775948	-0.447071
O10	O	-0.134999	1.603626	-0.577937
O11	O	-0.219816	1.472698	-0.274587
O12	O	-0.219766	1.300191	-0.447148
O13	O	-0.283935	1.472734	-0.750379
O14	O	-0.283960	1.300139	-0.577837
O15	O	-0.219722	1.603558	-0.750422
O16	O	-0.368771	1.603285	-0.447014
O17	O	-0.368733	1.472578	-0.577761
C18	C	-0.251860	1.261545	-0.512495
C19	C	-0.251865	1.143239	-0.512527
C20	C	-0.286848	1.073989	-0.583472
C21	C	-0.239176	1.003209	-0.609672
C22	C	-0.299576	1.003221	-0.486303
C23	C	-0.204167	1.074017	-0.538779
C24	C	-0.264600	1.074035	-0.415365
C25	C	-0.216895	1.003287	-0.441528
C26	C	-0.387723	1.537935	-0.512396
C27	C	-0.445837	1.537968	-0.512396
C28	C	-0.806152	1.606213	-0.580674
C29	C	-0.860756	1.606244	-0.580696
O30	O	-0.888952	1.664089	-0.638663
N31	N	-0.888119	1.538233	-0.512582
C32	C	-0.860876	1.470179	-0.444450
O33	O	-0.889164	1.412333	-0.386516
C34	C	-0.806272	1.470143	-0.444434
C35	C	-0.778912	1.538166	-0.512545
C36	C	-0.778791	1.674229	-0.648780
C37	C	-0.724190	1.674199	-0.648757
C38	C	-0.696950	1.606152	-0.580627
C39	C	-0.724311	1.538136	-0.512521
C40	C	-0.779030	1.402084	-0.376308
C41	C	-0.724422	1.402054	-0.376299
C42	C	-0.697062	1.470077	-0.444410
C43	C	-0.642471	1.470059	-0.444369
N44	N	-0.615107	1.538070	-0.512483
C45	C	-0.642347	1.606116	-0.580612
C46	C	-0.975546	1.470259	-0.444489
C47	C	-1.030148	1.470299	-0.444498
C48	C	-1.030025	1.606363	-0.580746
C49	C	-0.975422	1.606327	-0.580730
C50	C	-0.948183	1.538269	-0.512602
C51	C	-0.527682	1.606048	-0.580557
C52	C	-0.473077	1.606015	-0.580525
C53	C	-0.473205	1.469948	-0.444281
C54	C	-0.527806	1.469984	-0.444309
C55	C	-0.555043	1.538038	-0.512456
O56	O	-0.614240	1.412240	-0.386434
O57	O	-0.614052	1.663943	-0.638546
C58	C	-0.115507	1.538266	-0.512586
C59	C	-0.057393	1.538342	-0.512632
C60	C	-0.251820	1.538156	-0.790100
C61	C	-0.251794	1.538186	-0.908406
C62	C	-0.251900	1.815706	-0.512463
C63	C	-0.251909	1.934012	-0.512457
C64	C	-0.216867	1.609363	-0.977682
C65	C	-0.204065	1.512294	-1.048496
C66	C	-0.264559	1.635311	-1.048391
C67	C	-0.238969	1.441066	-0.977661
C68	C	-0.299484	1.564149	-0.977550
C69	C	-0.286701	1.467013	-1.048332
C70	C	-0.251903	1.538077	-0.235938
C71	C	-0.251781	1.538253	-0.117633
H72	H	-0.228420	0.972098	-0.691810
C73	C	-0.557635	1.680918	-0.655515
N74	N	-0.580195	1.737316	-0.711967
C75	C	-1.060239	1.395477	-0.369562
N76	N	-1.082901	1.339113	-0.313123
C77	C	-0.176941	1.690534	-0.935762
N78	N	-0.146868	1.751666	-0.904185
C79	C	-0.442983	1.680852	-0.655452
N80	N	-0.420319	1.737217	-0.711886
C81	C	-0.149667	1.115849	-0.568839
N82	N	-0.108619	1.147360	-0.591485
C83	C	-0.354062	0.961223	-0.456367
N84	N	-0.395103	0.929598	-0.433824
H85	H	-0.550084	1.414603	-0.388840
H86	H	-0.187295	0.972439	-0.381503
H87	H	-0.800964	1.729641	-0.704265
C88	C	-0.149575	1.482664	-1.090606
N89	N	-0.108532	1.460357	-1.122324
H90	H	-0.275370	1.105170	-0.333250
C91	C	-0.694463	1.327184	-0.301349
N92	N	-0.671899	1.270795	-0.244895
C93	C	-0.694101	1.749034	-0.723681
N94	N	-0.671441	1.805405	-0.780117
C95	C	-0.945330	1.681152	-0.655661
N96	N	-0.922668	1.737512	-0.712104
C97	C	-1.059999	1.681209	-0.655698
N98	N	-1.082578	1.737577	-0.712149
C99	C	-0.279154	1.746238	-1.090361
N100	N	-0.290143	1.829791	-1.121968
C101	C	-0.945588	1.395389	-0.369533
N102	N	-0.923027	1.338994	-0.313080
H103	H	-0.801297	1.346693	-0.320844
H104	H	-0.316233	1.406781	-1.079158
C105	C	-0.443231	1.395095	-0.369347
N106	N	-0.420652	1.338709	-0.312913
H107	H	-0.228120	1.358933	-0.946722
H108	H	-0.316375	1.105036	-0.643544
C109	C	-0.353958	1.593830	-0.935407
N110	N	-0.394987	1.616200	-0.903660
