data_functionalizedCrystal
_audit_creation_method	'MofGen! by Chris Wilmer'
_symmetry_space_group_name_H-M	'P1'
_symmetry_Int_Tables_number	1
_symmetry_cell_setting	triclinic
loop_
_symmetry_equiv_pos_as_xyz
  x,y,z
_cell_length_a	13.032831
_cell_length_b	16.120484
_cell_length_c	16.120256
_cell_angle_alpha	95.616173
_cell_angle_beta	86.057501
_cell_angle_gamma	86.078521
loop_
_atom_site_label
_atom_site_type_symbol
_atom_site_fract_x
_atom_site_fract_y
_atom_site_fract_z
Zn1	Zn	1.523154	-0.519560	-0.651746
Zn2	Zn	1.523025	-0.652232	-0.519042
Zn3	Zn	1.359945	-0.495048	-0.494602
Zn4	Zn	1.341484	-0.639874	-0.639423
O5	O	1.436902	-0.576679	-0.576203
O6	O	1.667417	-0.552590	-0.649529
O7	O	1.509064	-0.626294	-0.399655
O8	O	1.389375	-0.382166	-0.510377
O9	O	1.667322	-0.650063	-0.552032
O10	O	1.509284	-0.400175	-0.625830
O11	O	1.389249	-0.510812	-0.381699
O12	O	1.213216	-0.498829	-0.498427
O13	O	1.357911	-0.629001	-0.757203
O14	O	1.199653	-0.605232	-0.604826
O15	O	1.491384	-0.540607	-0.766257
O16	O	1.491163	-0.766727	-0.540082
O17	O	1.357786	-0.757647	-0.628525
C18	C	1.169025	-0.548030	-0.547638
C19	C	1.054423	-0.535795	-0.535438
C20	C	0.996646	-0.583064	-0.582571
C21	C	0.878199	-0.570420	-0.569962
C22	C	1.422484	-0.792303	-0.585639
C23	C	1.416408	-0.884559	-0.589714
C24	C	1.405320	-1.053474	-0.597171
C25	C	1.468667	-1.099062	-0.555269
C26	C	1.462498	-1.193053	-0.559418
C27	C	1.411488	-0.959476	-0.593023
C28	C	1.705825	-0.605439	-0.604881
C29	C	1.820424	-0.617695	-0.617102
C30	C	1.422603	-0.586160	-0.792687
C31	C	1.416509	-0.590200	-0.884939
C32	C	1.451403	-0.360216	-0.566752
C33	C	1.457583	-0.267973	-0.562724
C34	C	1.468678	-0.555587	-1.099424
C35	C	1.405352	-0.597538	-1.053835
C36	C	1.411562	-0.593454	-0.959853
C37	C	1.462470	-0.559671	-1.193415
C38	C	1.451209	-0.567181	-0.360566
C39	C	1.457518	-0.562928	-0.268325
H40	H	0.858644	-0.667524	-0.666797
O41	O	1.008997	-0.476284	-0.476146
C42	C	1.085715	-0.434804	-0.434754
H43	H	1.160467	-0.441612	-0.476747
H44	H	1.059456	-0.365711	-0.419846
H45	H	1.099258	-0.463545	-0.374200
O46	O	1.335257	-0.644165	-1.091526
C47	C	1.387135	-0.706165	-1.150302
H48	H	1.469694	-0.718840	-1.133003
H49	H	1.345516	-0.766101	-1.150205
H50	H	1.388146	-0.683690	-1.215224
O51	O	1.538799	-1.061280	-0.508758
C52	C	1.529431	-0.974487	-0.514923
H53	H	1.448799	-0.955477	-0.533070
H54	H	1.542703	-0.939519	-0.452079
H55	H	1.589216	-0.958281	-0.564603
O56	O	1.335121	-1.091245	-0.643607
C57	C	1.344526	-1.178042	-0.637467
H58	H	1.381843	-1.190591	-0.577556
H59	H	1.264796	-1.203110	-0.636231
H60	H	1.394541	-1.210610	-0.693648
H61	H	1.527553	-0.516608	-1.067872
H62	H	0.839978	-0.520583	-0.520276
H63	H	1.034871	-0.632891	-0.632260
