data_functionalizedCrystal
_audit_creation_method	'MofGen! by Chris Wilmer'
_symmetry_space_group_name_H-M	'P1'
_symmetry_Int_Tables_number	1
_symmetry_cell_setting	triclinic
loop_
_symmetry_equiv_pos_as_xyz
  x,y,z
_cell_length_a	20.875641
_cell_length_b	23.196402
_cell_length_c	23.196401
_cell_angle_alpha	60.008822
_cell_angle_beta	90.012211
_cell_angle_gamma	57.589996
loop_
_atom_site_label
_atom_site_type_symbol
_atom_site_fract_x
_atom_site_fract_y
_atom_site_fract_z
Zr1	Zr	0.641480	0.588689	-0.054483
O2	O	0.535134	0.715970	-0.150035
O3	O	0.674078	0.466273	-0.025195
O4	O	0.674048	0.586542	-0.145462
O5	O	0.535189	0.595697	0.065103
O6	O	0.783630	0.579314	-0.141850
O7	O	0.535163	0.595701	-0.029769
O8	O	0.783682	0.364175	0.073285
O9	O	0.535137	0.810837	-0.150031
O10	O	0.769763	0.509428	-0.010004
O11	O	0.688003	0.514820	0.058102
O12	O	0.687969	0.656421	-0.083496
O13	O	0.606209	0.661813	-0.015389
Zr14	Zr	0.816291	0.577156	0.102588
Zr15	Zr	0.816249	0.577161	-0.048723
Zr16	Zr	0.641522	0.588684	0.096827
Zr17	Zr	0.641485	0.739991	-0.054477
Zr18	Zr	0.816286	0.425854	0.102581
O19	O	0.783693	0.699572	0.073299
O20	O	0.783633	0.699579	-0.141844
O21	O	0.535193	0.715962	0.065109
O22	O	0.922637	0.449875	0.198139
O23	O	0.922577	0.449883	-0.017004
O24	O	0.674137	0.466266	0.189948
O25	O	0.922581	0.570148	-0.016999
O26	O	0.783722	0.579303	0.193566
O27	O	0.674141	0.586531	0.189954
O28	O	0.922607	0.570144	0.077873
O29	O	0.674055	0.801674	-0.145452
O30	O	0.783715	0.364171	0.193556
O31	O	0.922634	0.355008	0.198135
O32	O	0.922601	0.355012	0.077864
O33	O	0.535170	0.810833	-0.029759
O34	O	0.674088	0.801670	-0.025181
O35	O	0.769802	0.509424	0.131600
O36	O	0.851562	0.504032	0.063493
O37	O	0.769767	0.651025	-0.009998
O38	O	0.688008	0.656417	0.058108
C39	C	0.728879	0.393667	0.024044
C40	C	0.728877	0.329435	0.024041
C41	C	0.510275	0.597341	0.016846
C42	C	0.436081	0.602235	0.014401
C43	C	0.771549	0.296451	-0.011513
C44	C	0.771557	0.236089	-0.011507
C45	C	0.728877	0.208727	0.024043
C46	C	0.686203	0.241715	0.059605
C47	C	0.686203	0.302069	0.059604
C48	C	0.657372	0.151414	0.016411
C49	C	0.657370	0.091064	0.016407
C50	C	0.728878	0.022572	0.024050
C51	C	0.800388	0.014443	0.031683
C52	C	0.800388	0.074798	0.031682
C53	C	0.728873	0.143283	0.024048
C54	C	0.771563	-0.075864	-0.011499
C55	C	0.771573	-0.136231	-0.011488
C56	C	0.686211	-0.130597	0.059619
C57	C	0.686209	-0.070238	0.059612
C58	C	0.728883	-0.042873	0.024050
C59	C	0.443918	0.527807	0.051610
C60	C	0.374202	0.532410	0.049311
C61	C	0.296650	0.611442	0.009797
C62	C	0.288814	0.685875	-0.027413
C63	C	0.358530	0.681271	-0.025109
C64	C	0.083569	0.633439	-0.001203
C65	C	0.013852	0.638038	-0.003506
C66	C	0.099245	0.484572	0.073219
C67	C	0.168958	0.479975	0.075516
C68	C	0.161117	0.554408	0.038309
N69	N	0.225388	0.616149	0.007444
N70	N	0.232378	0.549700	0.040666
C71	C	0.947495	0.568504	0.031258
C72	C	1.021689	0.563610	0.033703
C73	C	0.728833	0.582929	-0.165214
C74	C	0.728815	0.582931	-0.229449
C75	C	0.728891	0.772178	0.024060
C76	C	0.728893	0.836410	0.024063
C77	C	0.686124	0.659657	-0.297984
C78	C	0.686144	0.659657	-0.358339
C79	C	0.728846	0.582927	-0.350155
C80	C	0.771547	0.506190	-0.281607
C81	C	0.771532	0.506192	-0.221255
C82	C	0.722780	0.526699	-0.417674
C83	C	0.722789	0.526701	-0.478027
C84	C	0.728897	0.582917	-0.536301
C85	C	0.734979	0.639148	-0.534220
C86	C	0.734964	0.639150	-0.473868
C87	C	0.728867	0.582916	-0.415593
C88	C	0.686226	0.659649	-0.670281
C89	C	0.686252	0.659645	-0.730635
C90	C	0.771649	0.506176	-0.653902
C91	C	0.771628	0.506182	-0.593550
C92	C	0.728912	0.582921	-0.601745
C93	C	0.728938	0.582916	0.213318
C94	C	0.728955	0.582914	0.277553
C95	C	0.947489	0.379248	0.031249
C96	C	1.021681	0.310122	0.033692
C97	C	0.728932	0.393660	0.213310
C98	C	0.728947	0.329426	0.277542
C99	C	0.947541	0.379241	0.220516
C100	C	1.021751	0.310114	0.287193
C101	C	0.510229	0.786604	-0.172411
C102	C	0.436019	0.855731	-0.239089
C103	C	0.510281	0.786597	0.016855
C104	C	0.436089	0.855723	0.014412
C105	C	0.728839	0.772185	-0.165206
C106	C	0.728823	0.836419	-0.229438
C107	C	1.013825	0.280477	-0.003532
C108	C	1.083529	0.215535	-0.001251
C109	C	1.161090	0.180236	0.038258
C110	C	1.168945	0.209887	0.075484
C111	C	1.099241	0.274832	0.073198
C112	C	0.771653	0.296445	0.346078
C113	C	0.771664	0.236099	0.406437
C114	C	0.728975	0.208731	0.398258
C115	C	0.686264	0.241719	0.329716
C116	C	0.686248	0.302068	0.269358
C117	C	1.099286	0.274836	0.282955
C118	C	1.169021	0.209891	0.345601
C119	C	1.161219	0.180222	0.412483
C120	C	1.083676	0.215506	0.416720
C121	C	1.013943	0.280453	0.354075
C122	C	0.358485	0.891016	-0.234851
C123	C	0.288750	0.955980	-0.297497
C124	C	0.296552	0.985653	-0.364379
C125	C	0.374095	0.950364	-0.368616
C126	C	0.443828	0.885406	-0.305971
C127	C	0.443946	0.885374	0.051630
C128	C	0.374241	0.950333	0.049332
C129	C	0.296681	0.985634	0.009821
C130	C	0.288826	0.955980	-0.027402
C131	C	0.358530	0.891027	-0.025108
C132	C	0.771521	0.863766	-0.221237
C133	C	0.771522	0.924112	-0.281584
C134	C	0.728820	0.957113	-0.350131
C135	C	0.686121	0.929759	-0.358331
C136	C	0.686125	0.869410	-0.297985
H137	H	0.806307	0.209228	-0.040460
N138	N	0.640059	0.839926	-0.306832
H139	H	0.679203	0.776761	-0.282155
H140	H	0.613007	0.870052	-0.359427
N141	N	1.107721	0.306800	0.113352
H142	H	1.167434	0.274577	0.138727
H143	H	1.080675	0.298072	0.149622
H144	H	1.077336	0.191339	0.471184
N145	N	0.817583	0.828172	-0.147306
H146	H	0.795204	0.875691	-0.142384
H147	H	0.877292	0.799178	-0.139732
N148	N	1.075037	0.183563	-0.041399
H149	H	1.102066	0.121196	-0.006618
H150	H	1.102020	0.192349	-0.077712
N151	N	0.817566	0.953620	-0.272736
H152	H	0.860528	0.940278	-0.294702
H153	H	0.844557	0.923553	-0.220144
N154	N	0.075106	0.713719	-0.041344
H155	H	0.131035	0.698816	-0.033890
H156	H	0.044280	0.748031	-0.022956
N157	N	0.877510	0.066031	0.039925
H158	H	0.867896	0.117436	-0.003539
H159	H	0.922779	0.013457	0.044790
H160	H	0.806299	0.318728	-0.040468
H161	H	1.217841	0.127353	0.040114
N162	N	0.817697	0.325954	0.354916
H163	H	0.778539	0.389120	0.330231
H164	H	0.860655	0.312558	0.332955
N165	N	0.817660	0.423430	-0.519625
H166	H	0.860612	0.417301	-0.491504
H167	H	0.844663	0.374868	-0.523654
H168	H	1.218007	0.127336	0.463487
H169	H	0.950813	0.309169	0.357536
N170	N	0.716246	0.466043	-0.480260
H171	H	0.663473	0.477058	-0.475282
H172	H	0.763742	0.405884	-0.439654
H173	H	0.651457	-0.043379	0.088561
H174	H	0.651444	0.722134	-0.676954
N175	N	0.877522	-0.059423	0.039924
H176	H	0.866675	-0.096428	0.038771
H177	H	0.921550	-0.093671	0.087065
H178	H	0.232101	0.415619	0.107678
N179	N	0.640223	0.742413	-0.804552
H180	H	0.580496	0.778676	-0.812198
H181	H	0.646778	0.730715	-0.841507
H182	H	0.651507	0.219428	0.323067
H183	H	0.717800	0.480921	-0.370230
H184	H	0.651460	-0.152875	0.088564
N185	N	0.382505	0.982365	-0.440755
H186	H	0.413298	1.005377	-0.445405
H187	H	0.326533	1.028836	-0.479748
H188	H	0.806419	0.443701	-0.647237
H189	H	0.105620	0.423973	0.103511
H190	H	0.806447	0.209246	0.462241
H191	H	0.728994	0.159591	0.447411
H192	H	0.651475	0.328914	0.213556
N193	N	0.817609	0.423430	-0.272775
H194	H	0.811139	0.435071	-0.321408
H195	H	0.795199	0.392628	-0.246839
N196	N	1.107713	0.306822	0.210823
H197	H	1.167417	0.274612	0.217655
H198	H	1.080639	0.369193	0.183277
N199	N	0.817589	-0.046346	-0.049851
H200	H	0.844630	-0.076408	-0.072369
H201	H	0.860511	-0.059674	-0.014504
N202	N	1.252603	0.171796	0.118107
H203	H	1.247013	0.200424	0.141348
H204	H	1.283380	0.180266	0.085188
H205	H	0.239764	1.038546	-0.415383
N206	N	0.741563	0.699791	-0.597067
H207	H	0.740654	0.691257	-0.635615
H208	H	0.794337	0.688728	-0.580966
H209	H	0.506958	0.856678	-0.309430
N210	N	0.205168	0.994047	-0.070002
H211	H	0.174325	1.056666	-0.108204
H212	H	0.174438	0.985506	-0.037052
H213	H	-0.049296	0.702398	-0.035685
H214	H	0.950677	0.309217	-0.035714
N215	N	0.817604	-0.171814	-0.049833
H216	H	0.844634	-0.145316	-0.072362
H217	H	0.778396	-0.158730	-0.088275
H218	H	1.232153	0.181169	0.342139
N219	N	0.205118	0.994031	-0.292925
H220	H	0.198603	1.019485	-0.266465
H221	H	0.198652	0.948370	-0.266504
H222	H	0.352116	0.866861	-0.180398
H223	H	0.651452	0.328926	0.088556
N224	N	0.817581	0.423434	-0.147329
H225	H	0.844639	0.374824	-0.151299
H226	H	0.778378	0.422799	-0.121987
H227	H	0.599142	0.097692	0.010189
N228	N	0.580242	0.225286	0.008170
H229	H	0.534941	0.221282	0.003329
H230	H	0.564327	0.280067	-0.035969
H231	H	0.507094	0.856636	0.083809
H232	H	0.380653	0.974466	0.079647
N233	N	0.350050	0.859049	-0.065252
H234	H	0.290337	0.891272	-0.090627
H235	H	0.377112	0.796681	-0.030429
H236	H	0.239930	1.038523	0.007959
N237	N	0.728829	1.022195	-0.415216
H238	H	0.762361	1.034507	-0.399612
H239	H	0.670989	1.076055	-0.446150
N240	N	0.640174	0.212202	0.097953
H241	H	0.646648	0.168964	0.092558
H242	H	0.580472	0.262232	0.076584
H243	H	0.651354	0.956638	-0.414150
H244	H	0.380591	0.471804	0.079611
N245	N	0.527562	0.442565	0.094222
H246	H	0.521945	0.396115	0.117445
H247	H	0.558358	0.437308	0.132395
H248	H	0.352144	0.741878	-0.055400
N249	N	0.205168	0.771114	-0.070024
H250	H	0.174332	0.776448	-0.108235
H251	H	0.210848	0.817518	-0.093198
N252	N	0.640067	0.742421	-0.306820
H253	H	0.597101	0.748556	-0.284860
H254	H	0.613080	0.790976	-0.359410
N255	N	0.640096	0.742414	-0.432269
H256	H	0.613035	0.791027	-0.428302
H257	H	0.597190	0.748454	-0.460344
H258	H	0.739918	0.684933	-0.472177
