data_functionalizedCrystal
_audit_creation_method	'MofGen! by Chris Wilmer'
_symmetry_space_group_name_H-M	'P1'
_symmetry_Int_Tables_number	1
_symmetry_cell_setting	triclinic
loop_
_symmetry_equiv_pos_as_xyz
  x,y,z
_cell_length_a	21.395362
_cell_length_b	15.299816
_cell_length_c	21.395355
_cell_angle_alpha	80.332906
_cell_angle_beta	90.043940
_cell_angle_gamma	80.369816
loop_
_atom_site_label
_atom_site_type_symbol
_atom_site_fract_x
_atom_site_fract_y
_atom_site_fract_z
Zn1	Zn	1.001015	-0.358779	0.397782
Zn2	Zn	1.501015	0.141221	0.897782
Zn3	Zn	1.019056	-0.509576	0.311160
Zn4	Zn	1.519056	-0.009576	0.811160
Zn5	Zn	0.896235	-0.358821	0.292988
Zn6	Zn	1.396235	0.141179	0.792988
Zn7	Zn	0.914340	-0.509595	0.415867
Zn8	Zn	1.414340	-0.009595	0.915867
O9	O	0.957662	-0.434193	0.354450
O10	O	1.457662	0.065807	0.854450
O11	O	1.091083	-0.378757	0.386328
O12	O	1.591083	0.121243	0.886328
O13	O	1.002737	-0.489588	0.221073
O14	O	1.502737	0.010412	0.721073
O15	O	0.895007	-0.232606	0.291716
O16	O	1.395007	0.267394	0.791716
O17	O	1.104338	-0.489547	0.322687
O18	O	1.604338	0.010453	0.822687
O19	O	0.971989	-0.232576	0.368707
O20	O	1.471989	0.267424	0.868707
O21	O	0.912501	-0.378829	0.207722
O22	O	1.412501	0.121171	0.707722
O23	O	0.810962	-0.378847	0.309252
O24	O	1.310962	0.121153	0.809252
O25	O	0.925865	-0.489579	0.501145
O26	O	1.425865	0.010421	1.001145
O27	O	0.824264	-0.489620	0.399531
O28	O	1.324264	0.010380	0.899531
O29	O	0.989544	-0.378775	0.487858
O30	O	1.489544	0.121225	0.987858
O31	O	1.020293	-0.635788	0.340224
O32	O	1.520293	-0.135788	0.840224
O33	O	0.943358	-0.635801	0.417152
O34	O	1.443358	-0.135801	0.917152
C35	C	0.794880	-0.434240	0.354383
C36	C	1.294880	0.065760	0.854383
C37	C	0.725244	-0.434283	0.354371
C38	C	1.225244	0.065717	0.854371
C39	C	0.985765	-0.668519	0.382636
C40	C	1.485765	-0.168519	0.882636
C41	C	0.997845	-0.768765	0.394715
C42	C	1.497845	-0.268765	0.894715
C43	C	0.699482	-0.492039	0.401329
C44	C	1.199482	0.007961	0.901329
C45	C	0.634044	-0.492016	0.401354
C46	C	1.134044	0.007984	0.901354
C47	C	0.594371	-0.434248	0.354412
C48	C	1.094371	0.065752	0.854412
C49	C	0.620139	-0.376481	0.307450
C50	C	1.120139	0.123519	0.807450
C51	C	0.685575	-0.376498	0.307430
C52	C	1.185575	0.123502	0.807430
C53	C	0.489772	-0.426982	0.297132
C54	C	0.989772	0.073018	0.797132
C55	C	0.424338	-0.426971	0.297152
C56	C	0.924338	0.073029	0.797152
C57	C	0.392543	-0.434189	0.354474
C58	C	0.892543	0.065811	0.854474
C59	C	0.426193	-0.441437	0.411780
C60	C	0.926193	0.058563	0.911780
C61	C	0.491629	-0.441454	0.411760
C62	C	0.991629	0.058546	0.911760
C63	C	0.523416	-0.434222	0.354429
C64	C	1.023416	0.065778	0.854429
C65	C	0.295827	-0.491924	0.401462
C66	C	0.795827	0.008076	0.901462
C67	C	0.230387	-0.491896	0.401488
C68	C	0.730387	0.008104	0.901488
C69	C	0.216484	-0.376365	0.307579
C70	C	0.716484	0.123635	0.807579
C71	C	0.281922	-0.376388	0.307559
C72	C	0.781922	0.123612	0.807559
C73	C	0.321590	-0.434173	0.354500
C74	C	0.821590	0.065827	0.854500
C75	C	0.871735	-1.051704	0.268331
C76	C	1.371735	-0.551704	0.768331
C77	C	0.860382	-0.957518	0.256984
C78	C	1.360382	-0.457518	0.756984
C79	C	0.894747	-0.910325	0.291415
C80	C	1.394747	-0.410325	0.791415
C81	C	0.940466	-0.957327	0.337197
C82	C	1.440466	-0.457327	0.837197
C83	C	0.951817	-1.051522	0.348549
C84	C	1.451817	-0.551522	0.848549
C85	C	0.974829	-0.910143	0.371633
C86	C	1.474829	-0.410143	0.871633
C87	C	1.020548	-0.957146	0.417414
C88	C	1.520548	-0.457146	0.917414
C89	C	1.031897	-1.051331	0.428764
C90	C	1.531897	-0.551331	0.928764
C91	C	0.997532	-1.098524	0.394332
C92	C	1.497532	-0.598524	0.894332
C93	C	0.963478	-0.815948	0.360281
C94	C	1.463478	-0.315948	0.860281
C95	C	1.043560	-0.815767	0.440498
C96	C	1.543560	-0.315767	0.940498
C97	C	1.054913	-0.909953	0.451846
C98	C	1.554913	-0.409953	0.951846
C99	C	1.121079	-0.434146	0.354517
C100	C	1.621079	0.065854	0.854517
C101	C	1.190718	-0.434125	0.354546
C102	C	1.690718	0.065875	0.854546
C103	C	0.957712	-0.434174	0.517871
C104	C	1.457712	0.065826	1.017871
C105	C	0.957733	-0.434167	0.587511
C106	C	1.457733	0.065833	1.087511
C107	C	0.929466	-0.198952	0.326167
C108	C	1.429466	0.301048	0.826167
C109	C	0.917450	-0.098706	0.314115
C110	C	1.417450	0.401294	0.814115
C111	C	0.957640	-0.434146	0.191656
C112	C	1.457640	0.065854	0.691656
C113	C	0.957710	-0.433900	0.121986
C114	C	1.457710	0.066100	0.621986
C115	C	0.990889	-0.376469	0.613306
C116	C	1.490889	0.123531	1.113306
C117	C	0.990883	-0.376430	0.678737
C118	C	1.490883	0.123570	1.178737
C119	C	0.957730	-0.434105	0.718372
C120	C	1.457730	0.065895	1.218372
C121	C	0.924567	-0.491807	0.692569
C122	C	1.424567	0.008193	1.192569
C123	C	0.924568	-0.491838	0.627139
C124	C	1.424568	0.008162	1.127139
C125	C	0.962523	-0.515315	0.831813
C126	C	1.462523	-0.015315	1.331813
C127	C	0.962526	-0.515286	0.897243
C128	C	1.462526	-0.015286	1.397243
C129	C	0.957723	-0.434010	0.920181
C130	C	1.457723	0.065990	1.420181
C131	C	0.952929	-0.352761	0.877682
C132	C	1.452929	0.147239	1.377682
C133	C	0.952930	-0.352792	0.812252
C134	C	1.452930	0.147208	1.312252
C135	C	0.957725	-0.434078	0.789321
C136	C	1.457725	0.065922	1.289321
C137	C	0.990874	-0.376265	1.016924
C138	C	1.490874	0.123735	1.516924
C139	C	0.990864	-0.376225	1.082355
C140	C	1.490864	0.123775	1.582355
C141	C	0.924552	-0.491610	1.096187
C142	C	1.424552	0.008390	1.596187
C143	C	0.924558	-0.491642	1.030756
C144	C	1.424558	0.008358	1.530756
C145	C	0.957722	-0.433971	0.991128
C146	C	1.457722	0.066029	1.491128
H147	H	0.731777	-0.539090	0.439553
H148	H	1.231777	-0.039090	0.939553
H149	H	0.949025	-0.286636	0.777651
H150	H	1.449025	0.213364	1.277651
C151	C	0.833983	-1.103622	0.230418
C152	C	1.333983	-0.603622	0.730418
N153	N	0.805562	-1.142728	0.201844
N154	N	1.305562	-0.642728	0.701844
H155	H	1.017875	-0.329300	0.984656
H156	H	1.517875	0.170700	1.484656
C157	C	0.967799	-0.604660	0.943986
C158	C	1.467799	-0.104660	1.443986
N159	N	0.971769	-0.671980	0.979192
N160	N	1.471769	-0.171980	1.479192
H161	H	1.069122	-1.089598	0.466045
H162	H	1.569122	-0.589598	0.966045
C163	C	1.105201	-0.961667	0.502207
C164	C	1.605201	-0.461667	1.002207
N165	N	1.143077	-1.000620	0.540140
N166	N	1.643077	-0.500620	1.040140
C167	C	1.081365	-0.763859	0.478375
C168	C	1.581365	-0.263859	0.978375
N169	N	1.109837	-0.724756	0.506901
N170	N	1.609837	-0.224756	1.006901
C171	C	1.027339	-0.312747	1.110729
C172	C	1.527339	0.187253	1.610729
N173	N	1.054813	-0.264935	1.132100
N174	N	1.554813	0.235065	1.632100
H175	H	0.885501	-0.833634	0.282173
H176	H	1.385501	-0.333634	0.782173
H177	H	0.823157	-0.919252	0.219710
H178	H	1.323157	-0.419252	0.719710
H179	H	1.017893	-0.329507	0.581045
H180	H	1.517893	0.170493	1.081045
C181	C	0.172847	-0.312817	0.255943
C182	C	0.672847	0.187183	0.755943
N183	N	0.139976	-0.264951	0.217049
N184	N	0.639976	0.235049	0.717049
H185	H	0.966264	-0.581482	0.813142
H186	H	1.466264	-0.081482	1.313142
C187	C	0.605701	-0.555558	0.453011
C188	C	1.105701	-0.055558	0.953011
N189	N	0.584354	-0.603419	0.491918
N190	N	1.084354	-0.103419	0.991918
C191	C	0.528641	-0.449426	0.474795
C192	C	1.028641	0.050574	0.974795
N193	N	0.556519	-0.455429	0.522274
N194	N	1.056519	0.044571	1.022274
H195	H	0.328126	-0.538971	0.439687
H196	H	0.828126	-0.038971	0.939687
H197	H	0.897551	-0.538561	1.128457
H198	H	1.397551	-0.038561	1.628457
C199	C	0.202051	-0.555443	0.453143
C200	C	0.702051	-0.055443	0.953143
N201	N	0.180709	-0.603312	0.492048
N202	N	0.680709	-0.103312	0.992048
C203	C	0.888095	-0.555246	0.736169
C204	C	1.388095	-0.055246	1.236169
N205	N	0.860621	-0.603027	0.769008
N206	N	1.360621	-0.103027	1.269008
H207	H	1.006776	-1.175218	0.403567
H208	H	1.506776	-0.675218	0.903567
C209	C	0.888086	-0.555120	1.002381
C210	C	1.388086	-0.055120	1.502381
N211	N	0.860612	-0.602931	0.981009
N212	N	1.360612	-0.102931	1.481009
C213	C	0.524740	-0.419045	0.234069
C214	C	1.024740	0.080955	0.734069
N215	N	0.551078	-0.413069	0.186572
N216	N	1.051078	0.086931	0.686572
H217	H	1.017881	-0.329440	0.699743
H218	H	1.517881	0.170560	1.199743
H219	H	0.400307	-0.447313	0.458457
H220	H	0.900307	0.052687	0.958457
C221	C	0.888094	-0.555315	0.598764
C222	C	1.388094	-0.055315	1.098764
N223	N	0.860622	-0.603129	0.577392
N224	N	1.360622	-0.103129	1.077392
C225	C	0.310261	-0.312859	0.255897
C226	C	0.810261	0.187141	0.755897
N227	N	0.331605	-0.265006	0.216983
N228	N	0.831605	0.234994	0.716983
C229	C	0.387329	-0.418992	0.234114
C230	C	0.887329	0.081008	0.734114
N231	N	0.359454	-0.412977	0.186632
N232	N	0.859454	0.087023	0.686632
C233	C	0.947643	-0.263350	0.902909
C234	C	1.447643	0.236650	1.402909
N235	N	0.943663	-0.196008	0.921912
N236	N	1.443663	0.303992	1.421912
C237	C	0.576497	-0.312935	0.255814
C238	C	1.076497	0.187065	0.755814
N239	N	0.543626	-0.265068	0.216921
N240	N	1.043626	0.234932	0.716921
C241	C	0.913188	-0.764257	0.309922
C242	C	1.413188	-0.264257	0.809922
N243	N	0.875307	-0.725324	0.271988
N244	N	1.375307	-0.225324	0.771988
H245	H	0.706549	-0.329463	0.269192
H246	H	1.206549	0.170537	0.769192
