data_functionalizedCrystal
_audit_creation_method	'MofGen! by Chris Wilmer'
_symmetry_space_group_name_H-M	'P1'
_symmetry_Int_Tables_number	1
_symmetry_cell_setting	triclinic
loop_
_symmetry_equiv_pos_as_xyz
  x,y,z
_cell_length_a	14.908520
_cell_length_b	19.805407
_cell_length_c	19.805399
_cell_angle_alpha	90.019197
_cell_angle_beta	93.270609
_cell_angle_gamma	86.683092
loop_
_atom_site_label
_atom_site_type_symbol
_atom_site_fract_x
_atom_site_fract_y
_atom_site_fract_z
Zn1	Zn	-0.359272	-1.019200	-0.398267
Zn2	Zn	0.140728	-0.519200	0.101733
Zn3	Zn	-0.510138	-1.012591	-0.291610
Zn4	Zn	-0.010138	-0.512591	0.208390
Zn5	Zn	-0.359287	-0.906014	-0.285093
Zn6	Zn	0.140713	-0.406014	0.214907
Zn7	Zn	-0.510079	-0.899456	-0.404755
Zn8	Zn	-0.010079	-0.399456	0.095245
O9	O	-0.434694	-0.959315	-0.344931
O10	O	0.065306	-0.459315	0.155069
O11	O	-0.379303	-1.113039	-0.384131
O12	O	0.120697	-0.613039	0.115869
O13	O	-0.490157	-0.998431	-0.196030
O14	O	0.009843	-0.498431	0.303970
O15	O	-0.233040	-0.926538	-0.294663
O16	O	0.266960	-0.426538	0.205337
O17	O	-0.490143	-1.108183	-0.305770
O18	O	0.009857	-0.608183	0.194230
O19	O	-0.233030	-1.009695	-0.377811
O20	O	0.266970	-0.509695	0.122189
O21	O	-0.379328	-0.920130	-0.191242
O22	O	0.120672	-0.420130	0.308758
O23	O	-0.379272	-0.810428	-0.300954
O24	O	0.120728	-0.310428	0.199046
O25	O	-0.490044	-0.915362	-0.498609
O26	O	0.009956	-0.415362	0.001391
O27	O	-0.490058	-0.805610	-0.388869
O28	O	0.009942	-0.305610	0.111131
O29	O	-0.379247	-1.003337	-0.493843
O30	O	0.120753	-0.503337	0.006157
O31	O	-0.636375	-0.992073	-0.312061
O32	O	-0.136375	-0.492073	0.187939
O33	O	-0.636332	-0.908954	-0.395188
O34	O	-0.136332	-0.408954	0.104812
C35	C	-0.434661	-0.783460	-0.344909
C36	C	0.065339	-0.283460	0.155091
C37	C	-0.434669	-0.708228	-0.344916
C38	C	0.065331	-0.208228	0.155084
C39	C	-0.377055	-0.675409	-0.385788
C40	C	0.122945	-0.175409	0.114212
C41	C	-0.377058	-0.604720	-0.385789
C42	C	0.122942	-0.104720	0.114211
C43	C	-0.434680	-0.566852	-0.344921
C44	C	0.065320	-0.066852	0.155079
C45	C	-0.492295	-0.599676	-0.304045
C46	C	0.007705	-0.099676	0.195955
C47	C	-0.492287	-0.670364	-0.304041
C48	C	0.007713	-0.170364	0.195959
C49	C	-0.492328	-0.314602	-0.304060
C50	C	0.007672	0.185398	0.195940
C51	C	-0.492334	-0.243909	-0.304069
C52	C	0.007666	0.256091	0.195931
C53	C	-0.377099	-0.248958	-0.385808
C54	C	0.122901	0.251042	0.114192
C55	C	-0.377091	-0.319645	-0.385804
C56	C	0.122909	0.180355	0.114196
C57	C	-0.434703	-0.352464	-0.344926
C58	C	0.065297	0.147536	0.155074
C59	C	-0.434698	-0.429112	-0.344924
C60	C	0.065302	0.070888	0.155076
C61	C	-0.434690	-0.490204	-0.344926
C62	C	0.065310	0.009796	0.155074
C63	C	-0.669087	-0.949103	-0.355051
C64	C	-0.169087	-0.449103	0.144949
C65	C	-0.769361	-0.944796	-0.359403
C66	C	-0.269361	-0.444796	0.140597
C67	C	-0.957771	-1.023344	-0.281090
C68	C	-0.457771	-0.523344	0.218910
C69	C	-1.051987	-1.019300	-0.285177
C70	C	-0.551987	-0.519300	0.214823
C71	C	-1.052013	-0.932667	-0.371667
C72	C	-0.552013	-0.432667	0.128333
C73	C	-0.957796	-0.936711	-0.367580
C74	C	-0.457796	-0.436711	0.132420
C75	C	-0.910678	-0.982051	-0.322289
C76	C	-0.410678	-0.482051	0.177711
C77	C	-0.816460	-0.986091	-0.318199
C78	C	-0.316460	-0.486091	0.181801
C79	C	-0.816487	-0.899462	-0.404692
C80	C	-0.316487	-0.399462	0.095308
C81	C	-0.910704	-0.895418	-0.408779
C82	C	-0.410704	-0.395418	0.091221
C83	C	-0.199386	-0.969585	-0.334786
C84	C	0.300614	-0.469585	0.165214
C85	C	-0.099112	-0.973962	-0.330463
C86	C	0.400888	-0.473962	0.169537
C87	C	-0.434637	-0.959355	-0.521471
C88	C	0.065363	-0.459355	-0.021471
C89	C	-0.434613	-0.959373	-0.596702
C90	C	0.065387	-0.459373	-0.096702
C91	C	-0.434721	-0.135857	-0.344947
C92	C	0.065279	0.364143	0.155053
C93	C	-0.434715	-0.211089	-0.344938
C94	C	0.065285	0.288911	0.155062
C95	C	-0.376918	-1.005182	-0.629565
C96	C	0.123082	-0.505182	-0.129565
C97	C	-0.376892	-1.005190	-0.700253
C98	C	0.123108	-0.505190	-0.200253
C99	C	-0.434566	-0.959392	-0.738076
C100	C	0.065434	-0.459392	-0.238076
C101	C	-0.492264	-0.913577	-0.705208
C102	C	0.007736	-0.413577	-0.205208
C103	C	-0.492285	-0.913566	-0.634522
C104	C	0.007715	-0.413566	-0.134522
C105	C	-0.492179	-0.913619	-0.990278
C106	C	0.007821	-0.413619	-0.490278
C107	C	-0.492156	-0.913635	-1.060969
C108	C	0.007844	-0.413635	-0.560969
C109	C	-0.376787	-1.005243	-1.056009
C110	C	0.123213	-0.505243	-0.556009
C111	C	-0.376808	-1.005232	-0.985322
C112	C	0.123192	-0.505232	-0.485322
C113	C	-0.434502	-0.959416	-0.952461
C114	C	0.065498	-0.459416	-0.452461
C115	C	-0.434528	-0.959407	-0.875813
C116	C	0.065472	-0.459407	-0.375813
C117	C	-0.434545	-0.959403	-0.814722
C118	C	0.065455	-0.459403	-0.314722
C119	C	-0.434686	-0.959317	-0.169075
C120	C	0.065314	-0.459317	0.330925
C121	C	-0.434456	-0.959441	-0.093833
C122	C	0.065544	-0.459441	0.406167
H123	H	-0.539258	-0.213079	-0.270788
H124	H	-0.039258	0.286921	0.229212
O125	O	-0.906939	-1.072251	-0.232255
O126	O	-0.406939	-0.572251	0.267745
H127	H	-0.864070	-1.043825	-0.195927
H128	H	-0.364070	-0.543825	0.304073
O129	O	-0.314898	-0.716248	-0.429863
O130	O	0.185102	-0.216248	0.070137
H131	H	-0.330454	-0.702021	-0.483638
H132	H	0.169546	-0.202021	0.016362
H133	H	-0.778098	-1.023007	-0.281320
H134	H	-0.278098	-0.523007	0.218680
O135	O	-0.554428	-0.705768	-0.259959
O136	O	-0.054428	-0.205768	0.240041
H137	H	-0.594503	-0.667561	-0.231546
H138	H	-0.094503	-0.167561	0.268454
H139	H	-0.330173	-0.350474	-0.419085
H140	H	0.169827	0.149526	0.080915
O141	O	-0.554467	-0.349988	-0.259970
O142	O	-0.054467	0.150012	0.240030
H143	H	-0.600416	-0.380214	-0.292183
H144	H	-0.100416	0.119786	0.207817
O145	O	-0.554441	-0.558838	-0.259960
O146	O	-0.054441	-0.058838	0.240040
H147	H	-0.600404	-0.524650	-0.292182
H148	H	-0.100404	-0.024650	0.207818
H149	H	-0.330146	-0.578002	-0.419072
H150	H	0.169854	-0.078002	0.080928
O151	O	-0.314949	-0.213556	-0.429890
O152	O	0.185051	0.286444	0.070110
H153	H	-0.330520	-0.226460	-0.483665
H154	H	0.169480	0.273540	0.016335
O155	O	-1.102784	-1.063833	-0.240738
O156	O	-0.602784	-0.563833	0.259262
H157	H	-1.054188	-1.096034	-0.208557
H158	H	-0.554188	-0.596034	0.291443
H159	H	-1.090392	-0.895758	-0.408544
H160	H	-0.590392	-0.395758	0.091456
O161	O	-0.554360	-0.864230	-1.101765
O162	O	-0.054360	-0.364230	-0.601765
H163	H	-0.513956	-0.831573	-1.132227
H164	H	-0.013956	-0.331573	-0.632227
H165	H	-0.329807	-1.042547	-1.082773
H166	H	0.170193	-0.542547	-0.582773
H167	H	-0.778134	-0.865836	-0.438237
H168	H	-0.278134	-0.365836	0.061763
H169	H	-0.949080	-0.858506	-0.445654
H170	H	-0.449080	-0.358506	0.054346
O171	O	-0.314712	-1.054580	-0.588771
O172	O	0.185288	-0.554580	-0.088771
H173	H	-0.274583	-1.086431	-0.623501
H174	H	0.225417	-0.586431	-0.123501
O175	O	-0.554357	-0.864173	-0.954835
O176	O	-0.054357	-0.364173	-0.454835
H177	H	-0.594444	-0.832322	-0.993013
H178	H	-0.094444	-0.332322	-0.493013
H179	H	-0.329913	-1.042495	-0.727006
H180	H	0.170087	-0.542495	-0.227006
O181	O	-0.314604	-1.054629	-0.944525
O182	O	0.185396	-0.554629	-0.444525
H183	H	-0.274474	-1.086482	-0.979253
H184	H	0.225526	-0.586482	-0.479253
O185	O	-0.554467	-0.864174	-0.745998
O186	O	-0.054467	-0.364174	-0.245998
H187	H	-0.544765	-0.871879	-0.800672
H188	H	-0.044765	-0.371879	-0.300672
O189	O	-0.554500	-0.864149	-0.599070
O190	O	-0.054500	-0.364149	-0.099070
H191	H	-0.594602	-0.832304	-0.637245
H192	H	-0.094602	-0.332304	-0.137245
