data_functionalizedCrystal
_audit_creation_method	'MofGen! by Chris Wilmer'
_symmetry_space_group_name_H-M	'P1'
_symmetry_Int_Tables_number	1
_symmetry_cell_setting	triclinic
loop_
_symmetry_equiv_pos_as_xyz
  x,y,z
_cell_length_a	12.759401
_cell_length_b	12.759399
_cell_length_c	12.759393
_cell_angle_alpha	90.026805
_cell_angle_beta	89.980404
_cell_angle_gamma	89.985473
loop_
_atom_site_label
_atom_site_type_symbol
_atom_site_fract_x
_atom_site_fract_y
_atom_site_fract_z
Zn1	Zn	1.606270	0.418208	-0.594009
Zn2	Zn	1.606162	0.593923	-0.418341
Zn3	Zn	1.430568	0.418260	-0.418349
Zn4	Zn	1.430562	0.593846	-0.593982
O5	O	1.518390	0.506059	-0.506170
O6	O	1.753276	0.441527	-0.570715
O7	O	1.582827	0.570675	-0.271321
O8	O	1.453923	0.271232	-0.441665
O9	O	1.753197	0.570625	-0.441652
O10	O	1.583010	0.271194	-0.570722
O11	O	1.453819	0.441616	-0.271327
O12	O	1.283546	0.441541	-0.441639
O13	O	1.453912	0.570493	-0.741007
O14	O	1.283542	0.570544	-0.570676
O15	O	1.583004	0.441452	-0.741027
O16	O	1.582821	0.740934	-0.441625
O17	O	1.453808	0.740877	-0.570668
C18	C	1.245423	0.506040	-0.506156
C19	C	1.128646	0.506058	-0.506175
C20	C	0.964078	0.573347	-0.573266
C21	C	1.073802	0.573336	-0.573255
C22	C	1.073761	0.438795	-0.439093
C23	C	0.964039	0.438812	-0.439100
C24	C	1.518330	0.779027	-0.506166
C25	C	1.518401	0.895803	-0.506199
C26	C	1.585655	0.950660	-0.439087
C27	C	1.585724	1.060384	-0.439130
C28	C	1.451275	1.060385	-0.573401
C29	C	1.451212	0.950663	-0.573362
C30	C	1.792424	0.506079	-0.506185
C31	C	1.909200	0.506087	-0.506192
C32	C	1.518483	1.232026	-0.506216
C33	C	1.518533	1.115249	-0.506281
C34	C	1.518469	0.505958	-0.780204
C35	C	1.518503	0.505915	-0.896980
C36	C	1.585726	0.438713	-0.951855
C37	C	1.585743	0.438668	-1.061579
C38	C	1.451312	0.573036	-1.061545
C39	C	1.451290	0.573075	-0.951823
C40	C	1.518373	0.506084	-0.233203
C41	C	1.518543	0.505831	-0.116427
H42	H	1.118479	0.628107	-0.627872
N43	N	1.382640	1.116444	-0.641980
N44	N	1.315748	1.177754	-0.604974
H45	H	1.267271	1.217347	-0.653406
N46	N	1.129763	0.370050	-0.370579
N47	N	1.080748	0.309995	-0.310702
H48	H	1.120296	0.261437	-0.262316
N49	N	1.382602	0.641710	-0.895765
N50	N	1.285662	0.634720	-0.908006
H51	H	1.237149	0.683186	-0.868415
N52	N	1.654420	1.116435	-0.370587
N53	N	1.721387	1.177573	-0.407630
H54	H	1.769907	1.217162	-0.359220
N55	N	1.382647	0.641636	-1.117551
N56	N	1.322619	0.701621	-1.068540
H57	H	1.274116	0.750067	-1.108091
N58	N	0.907959	0.370099	-0.370599
N59	N	0.809994	0.370125	-0.370620
H60	H	0.770385	0.321600	-0.322243
N61	N	1.382510	0.894637	-0.641934
N62	N	1.322523	0.943628	-0.701891
H63	H	1.274007	0.904061	-0.750322
H64	H	1.640365	0.905996	-0.384400
N65	N	1.654385	0.370106	-0.895850
N66	N	1.714398	0.310108	-0.944863
H67	H	1.762890	0.261650	-0.905313
H68	H	1.640482	0.383943	-1.106252
H69	H	0.919432	0.628127	-0.627896
