data_functionalizedCrystal
_audit_creation_method	'MofGen! by Chris Wilmer'
_symmetry_space_group_name_H-M	'P1'
_symmetry_Int_Tables_number	1
_symmetry_cell_setting	triclinic
loop_
_symmetry_equiv_pos_as_xyz
  x,y,z
_cell_length_a	10.654541
_cell_length_b	10.654550
_cell_length_c	9.130313
_cell_angle_alpha	89.998405
_cell_angle_beta	89.997826
_cell_angle_gamma	84.484428
loop_
_atom_site_label
_atom_site_type_symbol
_atom_site_fract_x
_atom_site_fract_y
_atom_site_fract_z
O1	O	1.667842	0.176384	-0.121744
O2	O	1.302363	0.193193	-0.121756
O3	O	1.493506	0.002049	-0.121751
O4	O	1.476700	0.367528	-0.121749
O5	O	1.493492	0.002044	0.121848
O6	O	1.302350	0.193188	0.121843
O7	O	1.667829	0.176379	0.121855
Cu8	Cu	1.485088	0.184783	0.144091
Cu9	Cu	1.485104	0.184789	-0.143992
O10	O	1.476686	0.367522	0.121850
C11	C	1.255558	0.191957	0.000042
C12	C	1.116115	0.188266	0.000037
C13	C	1.492265	-0.044751	0.000045
C14	C	1.488573	-0.184195	0.000035
C15	C	1.088144	0.416831	0.000020
C16	C	1.008650	0.529374	0.000005
C17	C	0.877632	0.525898	0.000004
C18	C	0.826107	0.409867	0.000021
C19	C	0.905601	0.297324	0.000036
C20	C	1.036620	0.300812	0.000033
C21	C	0.933571	0.068763	0.000064
C22	C	1.064590	0.072235	0.000055
C23	C	0.882046	-0.047269	0.000081
C24	C	0.961541	-0.159814	0.000085
C25	C	1.092566	-0.156334	0.000085
C26	C	1.144084	-0.040308	0.000069
C27	C	1.483364	-0.380732	-0.132740
C28	C	1.486845	-0.249712	-0.132749
C29	C	1.486832	-0.249706	0.132836
C30	C	1.483359	-0.380725	0.132843
C31	C	1.714634	0.177615	0.000054
C32	C	1.854077	0.181306	0.000049
C33	C	1.477927	0.414323	0.000050
C34	C	1.481619	0.553766	0.000051
N35	N	1.485086	0.184777	0.346714
N36	N	1.485116	0.184785	-0.346615
C37	C	1.569753	0.100175	0.423368
C38	C	1.569765	0.100175	0.576705
C39	C	1.400440	0.269391	0.576720
C40	C	1.400423	0.269384	0.423386
H41	H	1.194824	0.419672	-0.000011
H42	H	1.488247	-0.196352	0.240951
O43	O	1.318258	0.351752	0.651037
C44	C	1.339758	0.476269	0.613575
H45	H	1.388156	0.476558	0.502236
H46	H	1.245890	0.537237	0.608335
H47	H	1.402610	0.515700	0.699857
O48	O	1.481843	-0.444517	-0.261642
C49	C	1.588425	-0.533566	-0.269616
H50	H	1.624099	-0.557637	-0.154325
H51	H	1.561561	-0.622703	-0.325830
H52	H	1.665799	-0.492367	-0.335138
H53	H	0.812907	0.617541	0.000002
H54	H	1.050616	0.623844	-0.000005
O55	O	0.754796	-0.050807	-0.000118
C56	C	0.718705	-0.114641	-0.126293
H57	H	0.802378	-0.179370	-0.168338
H58	H	0.637924	-0.173150	-0.097917
H59	H	0.686627	-0.043024	-0.214649
O60	O	0.911637	-0.272591	-0.000094
C61	C	0.952125	-0.341258	-0.126273
H62	H	1.043278	-0.306244	-0.168346
H63	H	0.969394	-0.445687	-0.097892
H64	H	0.876444	-0.327370	-0.214610
O65	O	1.488475	-0.186270	-0.261873
C66	C	1.486228	-0.272195	-0.379068
H67	H	1.444057	-0.360732	-0.340131
H68	H	1.426369	-0.226897	-0.471944
H69	H	1.586438	-0.298437	-0.419897
O70	O	1.481474	-0.444468	0.261757
C71	C	1.370864	-0.506939	0.269705
H72	H	1.334166	-0.522147	0.154406
H73	H	1.392823	-0.602054	0.325923
H74	H	1.296163	-0.447134	0.335211
H75	H	0.719424	0.407048	0.000038
H76	H	1.638690	0.031281	0.360945
O77	O	1.652067	0.018167	0.651328
C78	C	1.730152	0.086153	0.739977
H79	H	1.680981	0.183964	0.762952
H80	H	1.749579	0.033916	0.847801
H81	H	1.823036	0.095553	0.680866
H82	H	1.331471	0.338278	0.360970
H83	H	1.157284	-0.247981	0.000102
O84	O	1.271334	-0.036766	-0.000127
C85	C	1.307444	0.027046	-0.126316
H86	H	1.223776	0.091764	-0.168392
H87	H	1.388217	0.085564	-0.097948
H88	H	1.339540	-0.044586	-0.214646
