data_functionalizedCrystal
_audit_creation_method	'MofGen! by Chris Wilmer'
_symmetry_space_group_name_H-M	'P1'
_symmetry_Int_Tables_number	1
_symmetry_cell_setting	triclinic
loop_
_symmetry_equiv_pos_as_xyz
  x,y,z
_cell_length_a	15.698487
_cell_length_b	21.606444
_cell_length_c	21.606444
_cell_angle_alpha	60.000398
_cell_angle_beta	89.998774
_cell_angle_gamma	59.999624
loop_
_atom_site_label
_atom_site_type_symbol
_atom_site_fract_x
_atom_site_fract_y
_atom_site_fract_z
Zr1	Zr	0.820601	0.677464	-0.081209
O2	O	0.684585	0.806582	-0.180029
O3	O	0.862299	0.548345	-0.050918
O4	O	0.862298	0.677467	-0.180036
O5	O	0.684585	0.677458	0.050941
O6	O	1.002479	0.677469	-0.180037
O7	O	0.684586	0.677461	-0.050912
O8	O	1.002480	0.446495	0.050930
O9	O	0.684584	0.908433	-0.180026
O10	O	0.984696	0.601456	-0.037997
O11	O	0.880080	0.601452	0.038016
O12	O	0.880079	0.753476	-0.114003
O13	O	0.775463	0.753472	-0.037990
Zr14	Zr	1.044173	0.677464	0.081232
Zr15	Zr	1.044174	0.677468	-0.081212
Zr16	Zr	0.820600	0.677460	0.081235
Zr17	Zr	0.820599	0.839904	-0.081204
Zr18	Zr	1.044175	0.515024	0.081227
O19	O	1.002475	0.806582	0.050942
O20	O	1.002477	0.806588	-0.180033
O21	O	0.684584	0.806577	0.050945
O22	O	1.180188	0.548345	0.180052
O23	O	1.180190	0.548351	-0.050922
O24	O	0.862297	0.548340	0.180056
O25	O	1.180188	0.677469	-0.050918
O26	O	1.002476	0.677461	0.180059
O27	O	0.862295	0.677458	0.180060
O28	O	1.180187	0.677467	0.050935
O29	O	0.862294	0.908436	-0.180028
O30	O	1.002479	0.446492	0.180051
O31	O	1.180190	0.446495	0.180049
O32	O	1.180191	0.446498	0.050928
O33	O	0.684583	0.908430	-0.050905
O34	O	0.862293	0.908433	-0.050907
O35	O	0.984695	0.601452	0.114026
O36	O	1.089311	0.601456	0.038013
O37	O	0.984694	0.753476	-0.037992
O38	O	0.880078	0.753472	0.038021
C39	C	0.932390	0.474276	0.000005
C40	C	0.932391	0.405316	0.000003
C41	C	0.652732	0.677459	0.000015
C42	C	0.557819	0.677457	0.000016
C43	C	0.986997	0.372920	-0.039676
C44	C	0.987001	0.308120	-0.039671
C45	C	0.932391	0.275721	0.000009
C46	C	0.877784	0.308120	0.039693
C47	C	0.877787	0.372914	0.039692
C48	C	0.877771	0.046810	0.039699
C49	C	0.877770	-0.017987	0.039696
C50	C	0.986985	-0.017984	-0.039664
C51	C	0.986989	0.046811	-0.039665
C52	C	0.932386	0.079200	0.000022
C53	C	0.932384	0.149462	0.000017
C54	C	0.932387	0.205465	0.000010
C55	C	0.384034	0.677473	0.000009
C56	C	0.480738	0.677468	0.000011
C57	C	1.212042	0.677469	0.000008
C58	C	1.306955	0.677470	0.000007
C59	C	0.932389	0.677469	-0.203181
C60	C	0.932389	0.677470	-0.272143
C61	C	0.932384	0.880652	0.000018
C62	C	0.932383	0.949612	0.000020
C63	C	1.009616	0.677473	-0.304542
C64	C	1.009619	0.677467	-0.369335
C65	C	0.932390	0.677464	-0.401731
C66	C	0.855160	0.677459	-0.369326
C67	C	0.855162	0.677459	-0.304531
C68	C	0.855151	0.677458	-0.630636
C69	C	0.855153	0.677461	-0.695437
C70	C	1.009608	0.677466	-0.695440
C71	C	1.009610	0.677466	-0.630645
C72	C	0.932383	0.677456	-0.598244
C73	C	0.932382	0.677461	-0.527987
C74	C	0.932387	0.677465	-0.471990
C75	C	0.932385	0.677459	0.203204
C76	C	0.932385	0.677457	0.272166
C77	C	1.212045	0.474281	0.000002
C78	C	1.306959	0.405322	-0.000001
C79	C	0.932388	0.474271	0.203198
C80	C	0.932389	0.405309	0.272157
C81	C	1.212043	0.474276	0.203195
C82	C	1.306956	0.405316	0.272153
C83	C	0.652730	0.880652	-0.203171
C84	C	0.557817	0.949612	-0.272130
C85	C	0.652729	0.880647	0.000021
C86	C	0.557815	0.949605	0.000025
C87	C	0.932386	0.880657	-0.203175
C88	C	0.932385	0.949618	-0.272134
C89	C	1.296923	0.372939	-0.039687
C90	C	1.386096	0.308154	-0.039705
C91	C	1.485303	0.275749	-0.000033
C92	C	1.495337	0.308139	0.039653
C93	C	1.406165	0.372927	0.039667
C94	C	0.986997	0.372924	0.344225
C95	C	0.986993	0.308136	0.409026
C96	C	0.932387	0.275730	0.401757
C97	C	0.877772	0.308122	0.329682
C98	C	0.877770	0.372913	0.264883
C99	C	1.406146	0.372933	0.264859
C100	C	1.495336	0.308147	0.329646
C101	C	1.485333	0.275740	0.401727
C102	C	1.386132	0.308129	0.409020
C103	C	1.296945	0.372918	0.344233
C104	C	0.458627	0.982002	-0.264835
C105	C	0.369438	1.046809	-0.329623
C106	C	0.379441	1.079219	-0.401704
C107	C	0.478642	1.046826	-0.408997
C108	C	0.567829	0.982025	-0.344210
C109	C	0.567851	0.981996	0.039703
C110	C	0.478678	1.046799	0.039703
C111	C	0.379471	1.079205	0.000029
C112	C	0.369437	1.046812	-0.039654
C113	C	0.458609	0.982015	-0.039658
C114	C	0.987002	0.982004	-0.264841
C115	C	0.987022	1.046792	-0.329630
C116	C	0.932418	1.079198	-0.401710
C117	C	0.877800	1.046807	-0.409002
C118	C	0.877787	0.982015	-0.344214
H119	H	1.031466	0.281743	-0.071980
N120	N	1.092906	0.677483	-0.404284
H121	H	1.081192	0.677479	-0.450246
H122	H	1.163773	0.623521	-0.365978
H123	H	1.031452	0.073191	-0.071979
H124	H	0.833326	0.281731	0.072006
N125	N	1.045937	1.081715	-0.321748
H126	H	1.017279	1.108598	-0.293126
H127	H	1.037658	1.127640	-0.373747
H128	H	0.833305	0.399272	0.206204
N129	N	0.674815	0.947080	-0.352076
H130	H	0.683174	0.996513	-0.380700
H131	H	0.683081	0.920196	-0.380686
N132	N	0.262430	1.081758	-0.082429
H133	H	0.254044	1.108651	-0.137939
H134	H	0.207542	1.127680	-0.076332
N135	N	1.416955	0.407886	0.187120
H136	H	1.345411	0.453846	0.147177
H137	H	1.456400	0.358403	0.181115
H138	H	1.378003	0.281733	0.467717
H139	H	1.576101	0.281782	0.323695
H140	H	0.792281	0.677451	-0.395704
H141	H	0.486774	1.073223	-0.467693
H142	H	1.557963	0.222984	0.454475
H143	H	1.557904	0.222994	-0.000050
H144	H	1.072494	0.677473	-0.604273
H145	H	1.377906	0.281790	-0.072022
H146	H	0.792268	0.677452	-0.604261
N147	N	1.602343	0.273170	0.082452
H148	H	1.595182	0.303509	0.107601
H149	H	1.641726	0.284444	0.046021
N150	N	0.283305	1.149085	0.000052
H151	H	0.240384	1.126533	0.022639
H152	H	0.240451	1.202837	-0.053695
H153	H	0.450463	0.955617	-0.206149
H154	H	1.072494	0.677471	-0.721826
H155	H	1.216183	0.399276	0.350183
H156	H	1.031471	0.281771	0.467706
H157	H	1.414351	0.399286	0.071987
H158	H	0.792261	0.677457	-0.721812
H159	H	1.072501	0.677481	-0.278172
N160	N	0.674846	0.947051	0.082497
H161	H	0.667656	0.977415	0.107626
H162	H	0.714223	0.958328	0.046062
N163	N	0.818907	1.081769	-0.486750
H164	H	0.742509	1.108660	-0.492826
H165	H	0.847627	1.032305	-0.492785
H166	H	0.833307	0.955654	-0.350162
N167	N	0.262454	1.081720	-0.321744
H168	H	0.207465	1.127692	-0.373720
H169	H	0.254200	1.108538	-0.293077
H170	H	0.306811	1.131984	-0.454452
H171	H	1.031461	0.399299	-0.071992
N172	N	1.045900	0.407866	0.352075
H173	H	1.080486	0.377514	0.407567
H174	H	0.995757	0.472910	0.326919
N175	N	0.932397	0.205843	0.471649
H176	H	0.901322	0.228396	0.502836
H177	H	1.006385	0.152108	0.502770
N178	N	0.771867	0.677451	-0.269585
H179	H	0.700963	0.731414	-0.307839
H180	H	0.783680	0.677414	-0.223614
N181	N	1.045880	-0.052917	-0.082472
H182	H	1.037597	-0.098881	-0.076452
H183	H	1.122249	-0.079747	-0.061647
N184	N	1.189928	0.407879	-0.082477
H185	H	1.197117	0.377529	-0.107619
H186	H	1.150548	0.472924	-0.122361
N187	N	0.489513	1.081727	0.082507
H188	H	0.565893	1.051355	0.107644
H189	H	0.454889	1.070455	0.122396
N190	N	0.447773	0.947071	-0.082444
H191	H	0.519310	0.901102	-0.076430
H192	H	0.408333	0.996557	-0.137929
N193	N	1.045899	0.947061	-0.187103
H194	H	1.080500	0.977413	-0.192325
H195	H	1.100795	0.882017	-0.158493
N196	N	0.932441	1.149086	-0.471578
H197	H	0.858485	1.202860	-0.502766
H198	H	0.963572	1.126470	-0.502713
N199	N	0.818879	-0.052943	0.082502
H200	H	0.742483	-0.003513	0.061701
H201	H	0.847618	-0.079844	0.137998
N202	N	0.818877	0.081732	0.082506
H203	H	0.742482	0.108614	0.061695
H204	H	0.827243	0.127658	0.076482
N205	N	0.818897	0.407854	0.082493
H206	H	0.784300	0.377499	0.107630
H207	H	0.763997	0.472898	0.046065
N208	N	0.818885	0.273161	0.321848
H209	H	0.827186	0.227198	0.373838
H210	H	0.847570	0.246318	0.293203
