data_functionalizedCrystal
_audit_creation_method	'MofGen! by Chris Wilmer'
_symmetry_space_group_name_H-M	'P1'
_symmetry_Int_Tables_number	1
_symmetry_cell_setting	triclinic
loop_
_symmetry_equiv_pos_as_xyz
  x,y,z
_cell_length_a	19.188930
_cell_length_b	11.026607
_cell_length_c	17.666332
_cell_angle_alpha	90.001957
_cell_angle_beta	90.023133
_cell_angle_gamma	95.865398
loop_
_atom_site_label
_atom_site_type_symbol
_atom_site_fract_x
_atom_site_fract_y
_atom_site_fract_z
O1	O	-0.945445	-0.151400	-0.063195
O2	O	-0.744731	-0.171782	-0.063143
O3	O	-0.828453	0.014974	-0.063162
O4	O	-0.861723	-0.338156	-0.063176
O5	O	-0.828433	0.014979	0.062735
O6	O	-0.744711	-0.171776	0.062754
O7	O	-0.945425	-0.151395	0.062702
Cu8	Cu	-0.845066	-0.161585	0.074223
Cu9	Cu	-0.845090	-0.161592	-0.074664
O10	O	-0.861703	-0.338150	0.062721
C11	C	-0.718626	-0.171119	-0.000188
C12	C	-0.640869	-0.169138	-0.000168
C13	C	-0.822305	0.060155	-0.000213
C14	C	-0.804009	0.194772	-0.000211
C15	C	-0.971530	-0.152058	-0.000255
C16	C	-1.049287	-0.154039	-0.000280
C17	C	-0.609911	-0.278720	-0.000184
C18	C	-0.536850	-0.276858	-0.000193
C19	C	-0.494749	-0.165409	-0.000200
C20	C	-0.525716	-0.055812	-0.000179
C21	C	-0.598776	-0.057677	-0.000164
N22	N	-0.375919	-0.080221	-0.043075
N23	N	-0.306516	-0.078458	-0.043092
C24	C	-0.274624	-0.159784	-0.000246
N25	N	-0.314759	-0.242960	0.042608
N26	N	-0.384168	-0.244727	0.042621
C27	C	-0.415528	-0.163375	-0.000217
C28	C	-0.164445	-0.267356	-0.000270
C29	C	-0.091382	-0.265490	-0.000274
C30	C	-0.080250	-0.044441	-0.000268
C31	C	-0.153311	-0.046310	-0.000257
C32	C	-0.195405	-0.157771	-0.000261
C33	C	-0.867851	-0.383331	-0.000230
C34	C	-0.886147	-0.517948	-0.000237
N35	N	-0.845055	-0.161580	0.178943
C36	C	-0.854529	0.268845	-0.000225
C37	C	-0.835620	0.407979	-0.000223
N38	N	-0.845105	-0.161587	-0.179384
C39	C	-0.896615	-0.234956	0.218532
C40	C	-0.896626	-0.234952	0.297779
C41	C	-0.845065	-0.161587	0.337435
C42	C	-0.793501	-0.088196	0.297836
C43	C	-0.793496	-0.088193	0.218590
N44	N	-0.783536	-0.158599	0.461890
N45	N	-0.783544	-0.158610	0.537171
C46	C	-0.845079	-0.161591	0.576199
N47	N	-0.906609	-0.164586	0.537103
N48	N	-0.906602	-0.164582	0.461815
C49	C	-0.845065	-0.161582	0.423364
C50	C	-0.896655	-0.234967	0.701717
C51	C	-0.896666	-0.234955	0.780966
C52	C	-0.793535	-0.088206	0.781022
C53	C	-0.793529	-0.088211	0.701774
C54	C	-0.845089	-0.161598	0.662127
H55	H	-0.644179	-0.369480	-0.000190
N56	N	-0.058014	-0.383713	-0.000279
H57	H	-0.027971	-0.387897	-0.046950
H58	H	-0.027970	-0.387811	0.046421
H59	H	-0.778364	0.447561	-0.000213
H60	H	-0.938602	-0.294708	0.186255
H61	H	-0.943403	0.442472	-0.000308
N62	N	-0.503447	-0.395054	-0.000212
H63	H	-0.541199	-0.465945	-0.000212
H64	H	-0.473404	-0.399081	-0.046892
N65	N	-0.480317	0.064399	-0.000192
H66	H	-0.490571	0.112392	0.046484
H67	H	-0.429352	0.048859	-0.000236
H68	H	-0.198719	-0.358114	-0.000263
H69	H	-0.623981	0.031561	-0.000151
N70	N	-0.728170	0.247193	-0.000199
H71	H	-0.725412	0.339155	-0.000201
H72	H	-0.704178	0.218691	0.046479
H73	H	-0.938613	-0.294707	0.330019
N74	N	-0.952300	-0.314054	0.823670
H75	H	-0.984964	-0.360530	0.786525
H76	H	-0.929347	-0.373475	0.856575
N77	N	-0.034852	0.075769	-0.000267
H78	H	0.016129	0.060324	-0.000277
H79	H	-0.045216	0.123707	-0.046934
H80	H	-0.178517	0.042924	-0.000248
N81	N	-0.737907	-0.009089	0.659071
H82	H	-0.745726	-0.020220	0.602852
H83	H	-0.740609	0.079171	0.672923
H84	H	-0.751520	-0.028461	0.330129
N85	N	-0.930367	0.216423	-0.000234
H86	H	-0.940228	0.164576	-0.046902
H87	H	-0.940148	0.164658	0.046469
N88	N	-0.737883	-0.009047	0.175885
H89	H	-0.705221	0.037437	0.213028
H90	H	-0.710412	-0.062068	0.143019
H91	H	-0.938638	-0.294722	0.669434
H92	H	-0.751554	-0.028469	0.813308
