data_functionalizedCrystal
_audit_creation_method	'MofGen! by Chris Wilmer'
_symmetry_space_group_name_H-M	'P1'
_symmetry_Int_Tables_number	1
_symmetry_cell_setting	triclinic
loop_
_symmetry_equiv_pos_as_xyz
  x,y,z
_cell_length_a	13.262390
_cell_length_b	13.339070
_cell_length_c	12.376457
_cell_angle_alpha	75.601917
_cell_angle_beta	116.831551
_cell_angle_gamma	99.429367
loop_
_atom_site_label
_atom_site_type_symbol
_atom_site_fract_x
_atom_site_fract_y
_atom_site_fract_z
O1	O	-1.518971	-0.021073	-0.561026
O2	O	-1.202702	-0.055900	-0.463788
O3	O	-1.324538	0.106627	-0.501244
O4	O	-1.397135	-0.183601	-0.523570
O5	O	-1.294078	0.066048	-0.303867
O6	O	-1.172242	-0.096479	-0.266411
O7	O	-1.488511	-0.061652	-0.363650
Zn8	Zn	-1.325540	-0.085509	-0.283693
Zn9	Zn	-1.365673	-0.032044	-0.543745
O10	O	-1.366674	-0.224180	-0.326194
C11	C	-1.146166	-0.077970	-0.352400
C12	C	-1.023084	-0.083261	-0.314557
C13	C	-1.545047	-0.039582	-0.475040
C14	C	-1.668131	-0.034289	-0.512890
C15	C	-0.742558	-0.009681	-0.638263
C16	C	-0.858199	-0.004704	-0.673819
C17	C	-0.899426	-0.024343	-0.584007
C18	C	-0.825000	-0.048959	-0.458632
C19	C	-0.709346	-0.053929	-0.423072
C20	C	-0.866214	-0.068591	-0.368816
C21	C	-0.791788	-0.093207	-0.243441
C22	C	-0.676146	-0.098176	-0.207887
C23	C	-0.634919	-0.078537	-0.297699
C24	C	-0.981868	-0.063622	-0.404376
C25	C	-0.948657	-0.107870	-0.189185
C26	C	-0.833015	-0.112846	-0.153628
C27	C	-1.297046	0.123301	-0.398787
C28	C	-1.260494	0.233440	-0.387553
C29	C	-1.394167	-0.240853	-0.428653
C30	C	-1.430720	-0.350990	-0.439895
N31	N	-1.298158	-0.121996	-0.106217
C32	C	-1.544705	0.615059	-0.474935
C33	C	-1.579049	0.511578	-0.485484
C34	C	-1.499414	0.442038	-0.461002
C35	C	-1.385427	0.475990	-0.425970
C36	C	-1.351078	0.579480	-0.415411
C37	C	-1.305787	0.406459	-0.401478
C38	C	-1.191801	0.440411	-0.366446
C39	C	-1.157457	0.543891	-0.355889
C40	C	-1.237093	0.613430	-0.380370
C41	C	-1.340136	0.302969	-0.412037
C42	C	-1.146509	0.267390	-0.352513
C43	C	-1.112165	0.370872	-0.341964
N44	N	-1.393061	0.004451	-0.721223
C45	C	-1.456616	0.089169	0.200054
C46	C	-1.475774	0.114706	0.075825
C47	C	-1.431372	0.055533	0.030308
C48	C	-1.367808	-0.029182	0.109034
C49	C	-1.348655	-0.054726	0.233273
C50	C	-1.323411	-0.088362	0.063527
C51	C	-1.259847	-0.173077	0.142253
C52	C	-1.240697	-0.198617	0.266480
C53	C	-1.285100	-0.139444	0.311996
C54	C	-1.342564	-0.062818	-0.060712
C55	C	-1.234603	-0.206713	-0.027494
C56	C	-1.215445	-0.232251	0.096736
H57	H	-0.993588	-0.020291	-0.612965
H58	H	-0.918788	0.015344	-0.775899
H59	H	-1.064641	0.571529	-0.327354
H60	H	-1.198449	-0.254899	-0.064552
H61	H	-1.446973	0.076330	-0.070846
C62	C	-0.986782	0.408227	-0.303425
C63	C	-0.920725	0.453414	-0.185491
C64	C	-0.795344	0.490772	-0.146954
C65	C	-0.736021	0.482942	-0.226350
C66	C	-0.802078	0.437753	-0.344291
C67	C	-0.927459	0.400396	-0.382828
H68	H	-0.964640	0.459212	-0.126711
H69	H	-0.746445	0.524224	-0.059647
H70	H	-0.643206	0.510597	-0.197823
H71	H	-0.758163	0.431956	-0.403071
H72	H	-0.976359	0.366944	-0.470136
H73	H	-1.163690	-0.301228	0.160849
C74	C	-1.704426	0.474233	-0.524021
C75	C	-1.742210	0.360404	-0.535628
C76	C	-1.867595	0.323059	-0.574169
C77	C	-1.955195	0.399544	-0.601101
C78	C	-1.917413	0.513380	-0.589494
C79	C	-1.792028	0.550725	-0.550954
H80	H	-1.677362	0.303779	-0.515690
H81	H	-1.895563	0.238790	-0.582761
H82	H	-2.048012	0.371899	-0.629631
H83	H	-1.982261	0.570005	-0.609432
H84	H	-1.764060	0.634994	-0.542362
H85	H	-1.081662	0.210769	-0.332572
H86	H	-1.042456	-0.043581	-0.506457
H87	H	-0.708977	0.006316	-0.711374
C88	C	-1.505458	0.154252	0.250119
C89	C	-1.484396	0.126154	0.386768
C90	C	-1.533246	0.191242	0.436830
C91	C	-1.603158	0.284428	0.350242
C92	C	-1.624223	0.312530	0.213584
C93	C	-1.575373	0.247442	0.163522
H94	H	-1.432641	0.057169	0.450874
H95	H	-1.517651	0.170439	0.537994
H96	H	-1.639319	0.332610	0.387301
H97	H	-1.675979	0.381515	0.149479
H98	H	-1.590968	0.268245	0.062358
H99	H	-1.394317	0.006157	-0.124801
H100	H	-0.540756	-0.082591	-0.268756
H101	H	-1.527528	0.183679	0.011730
H102	H	-0.615547	-0.118202	-0.105798
H103	H	-0.772401	-0.132889	-0.051546
H104	H	-0.982222	-0.123860	-0.116052
C105	C	-1.632292	0.691552	-0.501858
C106	C	-1.619472	0.746518	-0.400286
C107	C	-1.707065	0.823013	-0.427210
C108	C	-1.807478	0.844542	-0.555706
C109	C	-1.820302	0.789575	-0.657287
C110	C	-1.732709	0.713079	-0.630363
H111	H	-1.545136	0.730582	-0.305157
H112	H	-1.697572	0.863703	-0.352012
H113	H	-1.872320	0.901169	-0.575637
H114	H	-1.894638	0.805511	-0.752415
H115	H	-1.742203	0.672389	-0.705561
H116	H	-1.432944	0.275337	-0.440560
H117	H	-1.527384	0.357780	-0.469593
H118	H	-1.209136	0.697696	-0.371788
H119	H	-1.269498	-0.160233	0.413155
H120	H	-1.188951	-0.267604	0.330576
