data_functionalizedCrystal
_audit_creation_method	'MofGen! by Chris Wilmer'
_symmetry_space_group_name_H-M	'P1'
_symmetry_Int_Tables_number	1
_symmetry_cell_setting	triclinic
loop_
_symmetry_equiv_pos_as_xyz
  x,y,z
_cell_length_a	16.992695
_cell_length_b	16.956995
_cell_length_c	16.053802
_cell_angle_alpha	87.607939
_cell_angle_beta	87.252354
_cell_angle_gamma	96.638653
loop_
_atom_site_label
_atom_site_type_symbol
_atom_site_fract_x
_atom_site_fract_y
_atom_site_fract_z
O1	O	-0.028856	1.063242	-0.069484
O2	O	-0.056270	0.832832	-0.069470
O3	O	0.071520	0.947114	-0.069484
O4	O	-0.156646	0.948960	-0.069469
O5	O	0.064513	0.940822	0.069376
O6	O	-0.063277	0.826539	0.069390
O7	O	-0.035863	1.056950	0.069376
Zn8	Zn	-0.050682	0.940746	0.091430
Zn9	Zn	-0.041451	0.949036	-0.091524
O10	O	-0.163653	0.942668	0.069390
C11	C	-0.061177	0.800067	-0.000038
C12	C	-0.065350	0.711812	-0.000034
C13	C	-0.096567	0.214502	-0.000063
C14	C	-0.092640	0.297427	-0.000062
C15	C	-0.018927	0.343818	-0.000061
C16	C	0.050863	0.307281	-0.000068
C17	C	0.046936	0.224357	-0.000074
C18	C	0.000513	0.592351	-0.000047
C19	C	0.004435	0.675280	-0.000038
C20	C	-0.139069	0.665421	-0.000034
C21	C	-0.142990	0.582496	-0.000036
C22	C	-0.073199	0.545966	-0.000047
N23	N	-0.014912	0.428581	-0.000058
N24	N	-0.077216	0.461205	-0.000056
C25	C	-0.189208	0.948191	-0.000038
C26	C	-0.275793	0.955281	-0.000033
C27	C	-0.330468	0.886866	-0.000029
C28	C	-0.411822	0.893534	-0.000040
C29	C	-0.438500	0.968617	-0.000049
C30	C	-0.383818	1.037037	-0.000055
C31	C	-0.302465	1.030369	-0.000050
C32	C	-0.680305	0.996253	-0.000069
C33	C	-0.761665	1.002916	-0.000072
C34	C	-0.789663	0.859412	-0.000058
C35	C	-0.708307	0.852750	-0.000049
C36	C	-0.653633	0.921171	-0.000059
N37	N	-0.521656	0.975434	-0.000057
N38	N	-0.570478	0.914353	-0.000057
C39	C	0.097076	0.941591	-0.000058
C40	C	0.183661	0.934501	-0.000068
C41	C	-0.030955	1.089715	-0.000057
C42	C	-0.026782	1.177970	-0.000067
N43	N	-0.056982	0.935094	0.216291
N44	N	-0.035144	0.954694	-0.216385
C45	C	-0.002624	0.983741	0.259979
C46	C	-0.007037	0.979795	0.347386
C47	C	-0.065813	0.927206	0.391104
C48	C	-0.120174	0.878553	0.347410
C49	C	-0.115756	0.882495	0.260004
C50	C	-0.085087	0.909984	0.652516
C51	C	-0.089502	0.906047	0.739927
C52	C	0.023635	1.007288	0.739898
C53	C	0.028045	1.011229	0.652490
C54	C	-0.026313	0.962574	0.608804
N55	N	-0.070327	0.923173	0.480448
N56	N	-0.021795	0.966603	0.519461
H57	H	0.057341	0.562618	-0.000054
O58	O	-0.176071	0.164465	-0.000060
H59	H	-0.206862	0.180583	-0.056659
H60	H	-0.686593	0.791610	-0.000051
H61	H	-0.257949	1.086080	-0.000057
O62	O	-0.174387	0.830031	0.212877
H63	H	-0.216006	0.792805	0.257959
O64	O	-0.214336	0.704827	-0.000029
H65	H	-0.252351	0.683982	0.056571
O66	O	-0.167908	0.336832	-0.000038
H67	H	-0.219826	0.290642	-0.000023
H68	H	0.045235	1.026569	0.224390
H69	H	0.064464	0.713050	-0.000041
O70	O	-0.301703	0.805879	-0.000018
H71	H	-0.268178	0.796841	0.056587
O72	O	-0.222494	0.532459	-0.000036
H73	H	-0.270362	0.571795	-0.000037
O74	O	-0.470796	0.819743	-0.000020
H75	H	-0.438578	0.766413	0.000003
H76	H	0.103762	0.194614	-0.000080
H77	H	-0.405546	1.098171	-0.000060
H78	H	0.075905	1.054052	0.616897
O79	O	0.130370	0.357310	-0.000058
H80	H	0.121379	0.421110	-0.000041
O81	O	-0.848630	0.785618	-0.000055
H82	H	-0.909682	0.802865	-0.000066
H83	H	-0.783381	1.064061	-0.000078
H84	H	-0.635798	1.051966	-0.000073
H85	H	0.037226	1.019407	0.382956
O86	O	-0.143720	0.857516	0.605401
H87	H	-0.185337	0.820294	0.650487
O88	O	0.082269	1.059759	0.787014
H89	H	0.069330	1.048180	0.855137
H90	H	-0.137368	0.863220	0.775518
H91	H	-0.168028	0.835729	0.383010
