data_functionalizedCrystal
_audit_creation_method	'MofGen! by Chris Wilmer'
_symmetry_space_group_name_H-M	'P1'
_symmetry_Int_Tables_number	1
_symmetry_cell_setting	triclinic
loop_
_symmetry_equiv_pos_as_xyz
  x,y,z
_cell_length_a	10.723024
_cell_length_b	10.540539
_cell_length_c	9.798715
_cell_angle_alpha	89.998989
_cell_angle_beta	89.996609
_cell_angle_gamma	84.496680
loop_
_atom_site_label
_atom_site_type_symbol
_atom_site_fract_x
_atom_site_fract_y
_atom_site_fract_z
O1	O	1.657276	0.178046	-0.113475
O2	O	1.294132	0.195088	-0.113479
O3	O	1.483989	0.001856	-0.113475
O4	O	1.467419	0.371278	-0.113479
O5	O	1.483974	0.001856	0.113507
O6	O	1.294118	0.195088	0.113503
O7	O	1.657262	0.178045	0.113507
Zn8	Zn	1.475687	0.186567	0.149543
Zn9	Zn	1.475706	0.186567	-0.149515
O10	O	1.467405	0.371277	0.113503
C11	C	1.247624	0.193848	0.000011
C12	C	1.109068	0.190137	0.000010
C13	C	1.482739	-0.045446	0.000013
C14	C	1.479021	-0.186392	0.000006
C15	C	1.034139	0.298260	0.000008
C16	C	0.890934	0.294427	0.000006
C17	C	1.336563	-0.369746	-0.000505
C18	C	1.340332	-0.223130	0.000006
C19	C	1.545757	-0.248085	0.129625
C20	C	1.541023	-0.394627	0.129734
C21	C	1.543860	-0.395146	-0.128387
C22	C	1.545138	-0.248165	-0.130101
C23	C	1.703769	0.179286	0.000013
C24	C	1.842325	0.182997	0.000006
C25	C	1.468654	0.418580	0.000012
C26	C	1.472372	0.559526	0.000010
N27	N	1.475684	0.186565	0.353643
N28	N	1.475720	0.186559	-0.353615
C29	C	1.555399	0.105075	0.421421
C30	C	1.555419	0.105071	0.578584
H31	H	1.076009	0.393665	0.000015
H32	H	1.407446	0.256325	0.411966
H33	H	1.067199	0.094732	-0.000024
O34	O	1.482085	-0.428023	0.245354
C35	C	1.379997	-0.356049	0.454307
C36	C	1.446700	-0.318058	0.323408
H37	H	1.351393	-0.267168	0.517464
H38	H	1.293014	-0.404532	0.425969
H39	H	1.446290	-0.424599	0.516443
H40	H	1.380506	-0.249469	0.261210
H41	H	1.533699	-0.269645	0.351841
H42	H	1.646253	-0.223995	-0.137927
O43	O	0.918941	0.072440	-0.000054
C44	C	0.932948	-0.157096	0.000030
C45	C	0.846026	-0.031990	0.000067
H46	H	0.874031	-0.241560	0.000157
H47	H	0.994568	-0.161249	-0.094985
H48	H	0.994610	-0.161090	0.094999
H49	H	0.784286	-0.027912	-0.094837
H50	H	0.784491	-0.027888	0.095145
H51	H	1.281784	-0.398318	-0.093457
O52	O	1.487178	-0.199263	-0.244604
C53	C	1.507685	-0.083743	-0.454358
C54	C	1.573486	-0.139103	-0.324765
H55	H	1.577428	-0.035068	-0.519190
H56	H	1.470231	-0.163900	-0.515541
H57	H	1.426641	-0.011197	-0.424225
H58	H	1.654578	-0.211633	-0.354777
H59	H	1.610850	-0.058878	-0.263614
H60	H	0.826548	0.386988	-0.000001
O61	O	1.637014	0.021957	0.648046
C62	C	1.853155	-0.051037	0.691918
C63	C	1.760887	0.043186	0.613191
H64	H	1.953326	-0.033925	0.663746
H65	H	1.838775	-0.036215	0.806298
H66	H	1.835657	-0.152801	0.663922
H67	H	1.778329	0.144987	0.641074
H68	H	1.775289	0.028253	0.498831
O69	O	1.277586	-0.172463	-0.110869
C70	C	1.160125	-0.213260	-0.313208
C71	C	1.231135	-0.270797	-0.187683
H72	H	1.122572	-0.292738	-0.375363
H73	H	1.078726	-0.143273	-0.278277
H74	H	1.226594	-0.161169	-0.378964
H75	H	1.164765	-0.322953	-0.121873
H76	H	1.312550	-0.340717	-0.222709
H77	H	1.281995	-0.399926	0.091925
H78	H	1.287441	-0.181347	0.093075
H79	H	1.640766	-0.442646	0.135615
O80	O	1.667303	-0.221645	0.135566
C81	C	1.862052	-0.248219	0.259679
C82	C	1.724433	-0.278283	0.253104
H83	H	1.908274	-0.293973	0.354716
H84	H	1.913899	-0.287750	0.164957
H85	H	1.865837	-0.140585	0.264274
H86	H	1.720532	-0.385899	0.248555
H87	H	1.672646	-0.238664	0.347824
O88	O	1.663345	-0.451599	-0.129685
C89	C	1.818749	-0.588341	-0.250998
C90	C	1.683421	-0.524455	-0.249731
H91	H	1.835016	-0.647281	-0.348031
H92	H	1.887135	-0.511988	-0.247673
H93	H	1.834256	-0.653121	-0.158161
H94	H	1.667793	-0.459682	-0.342553
H95	H	1.615105	-0.600874	-0.252986
H96	H	1.499387	-0.205461	0.226081
H97	H	1.498979	-0.426675	-0.226630
O98	O	1.394247	0.269921	0.577080
C99	C	1.227794	0.439989	0.591882
C100	C	1.320013	0.345670	0.670552
H101	H	1.167734	0.501238	0.667419
H102	H	1.282407	0.503768	0.525011
H103	H	1.164909	0.384712	0.524958
H104	H	1.382921	0.400843	0.737550
H105	H	1.265322	0.281891	0.737336
H106	H	1.623628	0.035306	0.363100
