data_functionalizedCrystal
_audit_creation_method	'MofGen! by Chris Wilmer'
_symmetry_space_group_name_H-M	'P1'
_symmetry_Int_Tables_number	1
_symmetry_cell_setting	triclinic
loop_
_symmetry_equiv_pos_as_xyz
  x,y,z
_cell_length_a	19.188925
_cell_length_b	19.188930
_cell_length_c	13.596369
_cell_angle_alpha	89.988893
_cell_angle_beta	89.993722
_cell_angle_gamma	83.143665
loop_
_atom_site_label
_atom_site_type_symbol
_atom_site_fract_x
_atom_site_fract_y
_atom_site_fract_z
O1	O	0.926148	0.087151	-0.081824
O2	O	1.426148	0.587151	0.418176
O3	O	0.722836	0.098889	-0.081822
O4	O	1.222836	0.598889	0.418178
O5	O	0.830359	-0.008636	-0.081804
O6	O	1.330359	0.491364	0.418196
O7	O	0.818625	0.194675	-0.081842
O8	O	1.318625	0.694675	0.418158
O9	O	0.830348	-0.008642	0.081779
O10	O	1.330348	0.491358	0.581779
O11	O	0.722825	0.098883	0.081761
O12	O	1.222825	0.598883	0.581761
O13	O	0.926137	0.087145	0.081759
O14	O	1.426137	0.587145	0.581759
Zn15	Zn	0.824480	0.093013	0.107732
Zn16	Zn	1.324480	0.593013	0.607732
Zn17	Zn	0.824494	0.093021	-0.107795
Zn18	Zn	1.324494	0.593021	0.392205
O19	O	0.818614	0.194670	0.081741
O20	O	1.318614	0.694670	0.581741
C21	C	0.829974	-0.034650	-0.000009
C22	C	1.329974	0.465350	0.499991
C23	C	0.828833	-0.112154	-0.000001
C24	C	1.328833	0.387846	0.499999
C25	C	0.696820	0.098507	-0.000030
C26	C	1.196820	0.598507	0.499970
C27	C	0.619315	0.097367	-0.000029
C28	C	1.119315	0.597367	0.499971
C29	C	0.891924	-0.157079	0.000003
C30	C	1.391924	0.342921	0.500003
C31	C	0.890852	-0.229903	-0.000012
C32	C	1.390852	0.270097	0.499988
C33	C	0.826686	-0.257799	-0.000013
C34	C	1.326686	0.242201	0.499987
C35	C	0.763587	-0.212864	-0.000023
C36	C	1.263587	0.287136	0.499977
C37	C	0.764660	-0.140041	-0.000017
C38	C	1.264660	0.359959	0.499983
N39	N	0.777635	-0.365805	0.055658
N40	N	1.277635	0.134195	0.555658
N41	N	0.776620	-0.434983	0.055654
N42	N	1.276620	0.065017	0.555654
C43	C	0.823448	-0.477207	-0.000033
C44	C	1.323448	0.022793	0.499967
N45	N	0.871341	-0.447641	-0.055704
N46	N	1.371341	0.052359	0.444296
N47	N	0.872358	-0.378456	-0.055696
N48	N	1.372358	0.121544	0.444304
C49	C	0.825515	-0.336761	-0.000020
C50	C	1.325515	0.163239	0.499980
C51	C	0.885381	-0.601097	-0.000047
C52	C	1.385381	-0.101097	0.499953
C53	C	0.884307	-0.673922	-0.000069
C54	C	1.384307	-0.173922	0.499931
C55	C	0.757040	-0.656880	-0.000069
C56	C	1.257040	-0.156880	0.499931
C57	C	0.758116	-0.584057	-0.000057
C58	C	1.258116	-0.084057	0.499943
C59	C	0.822289	-0.556170	-0.000041
C60	C	1.322289	-0.056170	0.499959
C61	C	0.057545	0.152831	-0.000042
C62	C	0.557545	0.652831	0.499958
C63	C	0.130368	0.153908	-0.000047
C64	C	0.630368	0.653908	0.499953
C65	C	0.175302	0.090816	-0.000034
C66	C	0.675302	0.590816	0.499966
C67	C	0.147408	0.026642	-0.000040
C68	C	0.647408	0.526642	0.499960
C69	C	0.074586	0.025568	-0.000044
C70	C	0.574586	0.525568	0.499956
N71	N	0.295976	0.045138	0.055660
N72	N	0.795976	0.545138	0.555660
N73	N	0.365153	0.046163	0.055666
N74	N	0.865153	0.546163	0.555666
C75	C	0.394712	0.094050	-0.000023
C76	C	0.894712	0.594050	0.499977
N77	N	0.352478	0.140883	-0.055706
N78	N	0.852478	0.640883	0.444294
N79	N	0.283294	0.139860	-0.055707
N80	N	0.783294	0.639860	0.444293
C81	C	0.254267	0.091974	-0.000030
C82	C	0.754267	0.591974	0.499970
C83	C	0.501561	0.159386	-0.000030
C84	C	1.001561	0.659386	0.499970
C85	C	0.574385	0.160460	-0.000041
C86	C	1.074385	0.660460	0.499959
C87	C	0.591425	0.033193	-0.000024
C88	C	1.091425	0.533193	0.499976
C89	C	0.518601	0.032121	-0.000022
C90	C	1.018601	0.532121	0.499978
C91	C	0.473673	0.095220	-0.000020
C92	C	0.973673	0.595220	0.499980
C93	C	0.952154	0.087527	-0.000035
C94	C	1.452154	0.587527	0.499965
C95	C	1.029658	0.088666	-0.000042
C96	C	1.529658	0.588666	0.499958
C97	C	0.819000	0.220684	-0.000056
C98	C	1.319000	0.720684	0.499944
C99	C	0.820140	0.298188	-0.000071
C100	C	1.320140	0.798188	0.499929
N101	N	0.824475	0.093008	0.254824
N102	N	1.324475	0.593008	0.754824
N103	N	0.824504	0.093021	-0.254887
N104	N	1.324504	0.593021	0.245113
C105	C	0.824493	0.093021	0.656115
C106	C	1.324493	0.593021	1.156115
C107	C	0.824486	0.093020	0.544464
C108	C	1.324486	0.593020	1.044464
C109	C	0.824484	0.093015	0.455473
C110	C	1.324484	0.593015	0.955473
C111	C	0.824477	0.093013	0.343815
C112	C	1.324477	0.593013	0.843815
H113	H	0.944179	-0.134379	0.000013
H114	H	1.444179	0.365621	0.500013
H115	H	0.628010	-0.018178	-0.000020
H116	H	1.128010	0.481822	0.499980
C117	C	0.693004	-0.243550	-0.000016
C118	C	1.193004	0.256450	0.499984
N119	N	0.639838	-0.266662	-0.000011
N120	N	1.139838	0.233338	0.499989
C121	C	0.688710	-0.534637	-0.000056
C122	C	1.188710	-0.034637	0.499944
N123	N	0.636430	-0.497414	-0.000060
N124	N	1.136430	0.002586	0.499940
H125	H	0.935686	-0.710500	-0.000071
H126	H	1.435686	-0.210500	0.499929
C127	C	0.452137	0.228795	-0.000046
C128	C	0.952137	0.728795	0.499954
N129	N	0.414914	0.281075	-0.000063
N130	N	0.914914	0.781075	0.499937
C131	C	0.043911	-0.045022	-0.000033
C132	C	0.543911	0.454978	0.499967
N133	N	0.020806	-0.098191	-0.000018
N134	N	0.520806	0.401809	0.499982
H135	H	0.153078	0.206160	-0.000038
H136	H	0.653078	0.706160	0.499962
C137	C	0.960260	-0.279330	-0.000001
C138	C	1.460260	0.220670	0.499999
N139	N	1.012538	-0.316556	0.000010
N140	N	1.512538	0.183444	0.500010
H141	H	0.713282	-0.103462	-0.000020
H142	H	1.213282	0.396538	0.499980
H143	H	0.937635	-0.578390	-0.000038
H144	H	1.437635	-0.078390	0.499962
H145	H	0.597088	0.212713	-0.000049
H146	H	1.097088	0.712713	0.499951
C147	C	0.196838	-0.042759	-0.000019
C148	C	0.696838	0.457241	0.499981
N149	N	0.234068	-0.095035	-0.000004
N150	N	0.734068	0.404965	0.499996
H151	H	0.495896	-0.020129	-0.000017
H152	H	0.995896	0.479871	0.499983
H153	H	0.704794	-0.679592	-0.000074
H154	H	1.204794	-0.179592	0.499926
H155	H	0.020968	0.204211	-0.000045
H156	H	0.520968	0.704211	0.499955
