data_functionalizedCrystal
_audit_creation_method	'MofGen! by Chris Wilmer'
_symmetry_space_group_name_H-M	'P1'
_symmetry_Int_Tables_number	1
_symmetry_cell_setting	triclinic
loop_
_symmetry_equiv_pos_as_xyz
  x,y,z
_cell_length_a	6.394989
_cell_length_b	10.723023
_cell_length_c	9.798715
_cell_angle_alpha	90.003551
_cell_angle_beta	90.000171
_cell_angle_gamma	85.482629
loop_
_atom_site_label
_atom_site_type_symbol
_atom_site_fract_x
_atom_site_fract_y
_atom_site_fract_z
O1	O	-0.293014	-1.660298	-0.113478
O2	O	-0.321064	-1.297443	-0.113480
O3	O	-0.003048	-1.484021	-0.113480
O4	O	-0.611029	-1.473720	-0.113478
O5	O	-0.003047	-1.484006	0.113502
O6	O	-0.321063	-1.297429	0.113502
O7	O	-0.293013	-1.660283	0.113505
Zn8	Zn	-0.307038	-1.478854	0.149541
Zn9	Zn	-0.307039	-1.478873	-0.149517
O10	O	-0.611028	-1.473706	0.113504
C11	C	-0.319022	-1.250914	0.000010
C12	C	-0.312916	-1.112295	0.000009
C13	C	0.074803	-1.481977	0.000006
C14	C	0.311127	-1.475752	0.000005
C15	C	-0.295054	-1.706812	0.000011
C16	C	-0.301161	-1.845431	0.000003
N17	N	-0.307036	-1.478850	0.353641
C18	C	-0.310194	-1.050502	-0.117575
C19	C	-0.303883	-0.907232	-0.117579
N20	N	-0.307024	-1.478886	-0.353617
C21	C	-0.172922	-1.557183	0.421418
C22	C	-0.172914	-1.557203	0.578581
H23	H	-0.312547	-1.103665	-0.218240
H24	H	-0.421859	-1.411823	0.588106
C25	C	-0.304162	-0.916051	0.134390
C26	C	-0.300376	-0.831262	0.242865
C27	C	-0.303110	-0.896283	0.366681
H28	H	-0.427985	-0.959272	0.139659
H29	H	-0.184728	-0.974441	0.139537
H30	H	-0.419799	-0.772894	0.237721
H31	H	-0.176562	-0.788038	0.237641
H32	H	-0.183675	-0.954673	0.371828
H33	H	-0.426934	-0.939502	0.371936
H34	H	-0.300521	-0.838765	0.440296
C35	C	-0.301194	-0.836293	-0.251776
C36	C	-0.477355	-0.750317	-0.258914
C37	C	-0.474964	-0.684955	-0.382527
H38	H	-0.177474	-0.792970	-0.256984
H39	H	-0.303835	-0.893605	-0.325585
H40	H	-0.474696	-0.693013	-0.185126
H41	H	-0.601103	-0.793606	-0.253730
H42	H	-0.477604	-0.742267	-0.456336
H43	H	-0.351236	-0.641640	-0.387725
H44	H	-0.594495	-0.626621	-0.387393
C45	C	-0.019529	-1.646443	0.343699
C46	C	0.186013	-1.622678	0.378293
C47	C	0.327357	-1.704872	0.306700
H48	H	-0.042795	-1.730225	0.366959
H49	H	-0.039790	-1.634517	0.248396
H50	H	0.206266	-1.634614	0.473575
H51	H	0.209346	-1.538912	0.355029
H52	H	0.307096	-1.692946	0.211397
H53	H	0.304072	-1.788649	0.329966
H54	H	0.466833	-1.688751	0.330152
C55	C	-0.459802	-1.389375	0.431573
C56	C	-0.347605	-1.311125	0.513646
C57	C	-0.488265	-1.228693	0.585466
H58	H	-0.544005	-1.340106	0.368829
H59	H	-0.547106	-1.435813	0.487387
H60	H	-0.260337	-1.264691	0.457837
H61	H	-0.263409	-1.360359	0.576415
H62	H	-0.575570	-1.275132	0.641280
H63	H	-0.572461	-1.179434	0.522711
H64	H	-0.412161	-1.175599	0.641170
H65	H	-0.310586	-1.059131	0.100674
H66	H	-0.058101	-1.624271	0.636866
