data_functionalizedCrystal
_audit_creation_method	'MofGen! by Chris Wilmer'
_symmetry_space_group_name_H-M	'P1'
_symmetry_Int_Tables_number	1
_symmetry_cell_setting	triclinic
loop_
_symmetry_equiv_pos_as_xyz
  x,y,z
_cell_length_a	10.654545
_cell_length_b	10.654551
_cell_length_c	9.730223
_cell_angle_alpha	89.998425
_cell_angle_beta	89.997167
_cell_angle_gamma	84.484220
loop_
_atom_site_label
_atom_site_type_symbol
_atom_site_fract_x
_atom_site_fract_y
_atom_site_fract_z
O1	O	1.667843	0.176371	-0.114267
O2	O	1.302364	0.193183	-0.114272
O3	O	1.493506	0.002038	-0.114270
O4	O	1.476701	0.367517	-0.114269
O5	O	1.493493	0.002033	0.114310
O6	O	1.302351	0.193178	0.114308
O7	O	1.667831	0.176366	0.114313
Zn8	Zn	1.485089	0.184771	0.150603
Zn9	Zn	1.485105	0.184778	-0.150561
O10	O	1.476689	0.367511	0.114311
C11	C	1.255560	0.191948	0.000018
C12	C	1.116116	0.188258	0.000015
C13	C	1.050605	0.186518	0.124615
C14	C	0.919585	0.183031	0.124615
C15	C	0.919599	0.183028	-0.124595
C16	C	1.050618	0.186506	-0.124594
C17	C	1.492265	-0.044762	0.000017
C18	C	1.488573	-0.184206	0.000008
C19	C	1.486848	-0.249715	-0.124589
C20	C	1.483367	-0.380735	-0.124583
C21	C	1.483343	-0.380726	0.124628
C22	C	1.486815	-0.249707	0.124620
C23	C	1.486867	-0.249721	-0.268469
C24	C	1.483386	-0.380742	-0.268462
C25	C	1.714635	0.177602	0.000021
C26	C	1.854078	0.181292	0.000014
C27	C	1.477929	0.414312	0.000021
C28	C	1.481622	0.553755	0.000022
N29	N	1.485087	0.184766	0.356139
N30	N	1.485117	0.184774	-0.356098
C31	C	1.569754	0.100163	0.428066
C32	C	1.569766	0.100163	0.571949
C33	C	1.400441	0.269381	0.571966
C34	C	1.400424	0.269373	0.428085
H35	H	1.481910	-0.434073	0.226083
C36	C	1.328549	0.486117	0.383763
C37	C	1.307355	0.362381	0.349012
H38	H	1.271097	0.543529	0.334939
H39	H	1.316438	0.498226	0.479737
H40	H	1.412484	0.500518	0.360158
H41	H	1.223423	0.347977	0.372626
H42	H	1.319456	0.350267	0.253017
C43	C	1.037429	0.186150	0.370947
C44	C	1.122604	0.188423	0.261583
H45	H	1.081880	0.187314	0.455506
H46	H	0.977387	0.257899	0.365768
H47	H	0.995269	0.111681	0.365746
H48	H	1.164758	0.262897	0.266778
H49	H	1.182668	0.116666	0.266765
C50	C	1.295171	-0.280370	-0.388256
C51	C	1.369708	-0.187227	-0.343041
H52	H	1.222841	-0.241785	-0.434283
H53	H	1.342610	-0.335712	-0.449603
H54	H	1.269494	-0.326768	-0.311539
H55	H	1.395392	-0.140836	-0.419759
H56	H	1.322260	-0.131863	-0.281691
H57	H	0.866252	0.181614	0.226077
C58	C	0.718761	0.177708	-0.235253
C59	C	0.847596	0.181120	-0.261561
H60	H	0.674313	0.176541	-0.319814
H61	H	0.706236	0.104033	-0.184068
H62	H	0.688357	0.250252	-0.184054
H63	H	0.878003	0.108571	-0.312752
H64	H	0.860130	0.254803	-0.312768
H65	H	1.578468	-0.220156	-0.313109
C66	C	1.211152	0.082644	-0.269168
C67	C	1.122637	0.188419	-0.261566
H68	H	1.255607	0.083821	-0.353728
H69	H	1.268903	0.084187	-0.194966
H70	H	1.168969	0.008188	-0.263988
H71	H	1.164821	0.262876	-0.266735
H72	H	1.064877	0.186888	-0.335788
H73	H	1.488213	-0.196374	0.226079
C74	C	1.675108	-0.350110	-0.388235
C75	C	1.600557	-0.443246	-0.343019
H76	H	1.747444	-0.388701	-0.434254
H77	H	1.627682	-0.294768	-0.449590
H78	H	1.700776	-0.303713	-0.311520
H79	H	1.574882	-0.489638	-0.419736
H80	H	1.647992	-0.498611	-0.281660
C81	C	1.737113	-0.067111	0.442506
C82	C	1.662802	0.007152	0.348981
H83	H	1.794551	-0.124540	0.393683
H84	H	1.782746	-0.014410	0.498605
H85	H	1.684437	-0.112764	0.498644
H86	H	1.715478	0.052812	0.292850
H87	H	1.617166	-0.045556	0.292859
H88	H	1.391792	-0.410307	-0.313121
H89	H	1.638708	0.031270	0.630508
H90	H	1.331512	0.338268	0.630558
