data_functionalizedCrystal
_audit_creation_method	'MofGen! by Chris Wilmer'
_symmetry_space_group_name_H-M	'P1'
_symmetry_Int_Tables_number	1
_symmetry_cell_setting	triclinic
loop_
_symmetry_equiv_pos_as_xyz
  x,y,z
_cell_length_a	14.971486
_cell_length_b	12.837942
_cell_length_c	14.048226
_cell_angle_alpha	89.994377
_cell_angle_beta	89.998499
_cell_angle_gamma	89.221535
loop_
_atom_site_label
_atom_site_type_symbol
_atom_site_fract_x
_atom_site_fract_y
_atom_site_fract_z
O1	O	1.198338	0.135106	-0.079050
O2	O	0.939302	0.151285	-0.079075
O3	O	1.063076	-0.007715	-0.079057
O4	O	1.074564	0.294105	-0.079068
O5	O	1.063059	-0.007724	0.079264
O6	O	0.939284	0.151275	0.079246
O7	O	1.198320	0.135096	0.079272
Zn8	Zn	1.068800	0.143184	0.104396
Zn9	Zn	1.068822	0.143197	-0.104199
O10	O	1.074546	0.294096	0.079254
C11	C	0.905907	0.150556	0.000082
C12	C	0.806427	0.148388	0.000072
C13	C	1.059187	-0.046345	0.000103
C14	C	1.047612	-0.161436	0.000100
C15	C	0.757077	0.241796	0.000070
C16	C	0.663606	0.239752	0.000085
C17	C	0.619486	0.144300	0.000094
C18	C	0.668842	0.050885	0.000099
C19	C	0.762313	0.052930	0.000091
C20	C	0.474021	0.046630	0.000112
C21	C	0.380545	0.044585	0.000118
C22	C	0.375314	0.233453	0.000105
C23	C	0.468784	0.235498	0.000098
C24	C	0.518135	0.142082	0.000101
C25	C	1.186755	-0.402222	0.000094
C26	C	1.175884	-0.510362	0.000091
C27	C	1.015001	-0.485856	0.000085
C28	C	1.025872	-0.377717	0.000088
C29	C	1.111751	-0.335904	0.000093
C30	C	1.122621	-0.227763	0.000103
C31	C	0.961739	-0.203260	0.000090
C32	C	0.950868	-0.311399	0.000087
C33	C	1.231715	0.135824	0.000112
C34	C	1.331195	0.137993	0.000116
C35	C	1.078436	0.332726	0.000092
C36	C	1.090010	0.447817	0.000088
N37	N	1.068791	0.143175	0.246756
N38	N	1.068838	0.143197	-0.246560
C39	C	1.123619	0.072799	0.296583
C40	C	1.123625	0.072799	0.396240
C41	C	1.068807	0.143180	0.446070
C42	C	1.013972	0.213559	0.396237
C43	C	1.013962	0.213554	0.296581
C44	C	1.013998	0.213567	0.603951
C45	C	1.014009	0.213573	0.703614
C46	C	1.123662	0.072811	0.703610
C47	C	1.123652	0.072806	0.603954
C48	C	1.068818	0.143187	0.554128
H49	H	0.792993	0.319524	0.000062
C50	C	0.610184	0.341281	0.000033
C51	C	0.668828	0.425311	-0.000008
C52	C	0.619649	0.518858	-0.000066
H53	H	0.573610	0.344558	0.055232
H54	H	0.573625	0.344467	-0.055195
H55	H	0.705371	0.422126	0.055214
H56	H	0.705403	0.422068	-0.055203
H57	H	0.583090	0.522044	-0.055294
H58	H	0.583077	0.522125	0.055135
H59	H	0.659431	0.575883	-0.000102
C60	C	0.954437	0.290099	0.550024
C61	C	0.906451	0.351760	0.614990
C62	C	0.851590	0.422284	0.565347
H63	H	0.913942	0.252856	0.511153
H64	H	0.990276	0.333371	0.511160
H65	H	0.870616	0.308493	0.653838
H66	H	0.946923	0.389025	0.653862
H67	H	0.887429	0.465556	0.526483
H68	H	0.811101	0.385032	0.526478
H69	H	0.819032	0.464135	0.609419
H70	H	0.514200	-0.029439	0.000116
C71	C	0.621108	-0.052857	0.000153
C72	C	0.684337	-0.134222	0.000178
C73	C	0.640400	-0.229806	0.000237
H74	H	0.584755	-0.057723	-0.055041
H75	H	0.584775	-0.057642	0.055387
H76	H	0.720655	-0.129440	-0.055050
H77	H	0.720693	-0.129390	0.055368
H78	H	0.604067	-0.234590	0.055470
H79	H	0.604048	-0.234661	-0.054959
H80	H	0.683293	-0.285023	0.000262
H81	H	0.802492	-0.023133	0.000092
H82	H	1.168270	0.015493	0.436808
C83	C	1.215932	-0.182563	0.000054
C84	C	1.279289	-0.263793	0.000024
C85	C	1.365258	-0.222199	-0.000038
H86	H	1.223647	-0.140909	0.055249
H87	H	1.223561	-0.140911	-0.055178
H88	H	1.271663	-0.305428	0.055251
H89	H	1.271603	-0.305454	-0.055167
H90	H	1.372887	-0.180547	-0.055271
H91	H	1.372963	-0.180545	0.055157
H92	H	1.408255	-0.277306	-0.000068
H93	H	1.168294	0.015502	0.563383
H94	H	0.969332	0.270861	0.436814
C95	C	1.257428	-0.582193	0.000142
C96	C	1.334960	-0.522423	0.000171
C97	C	1.410098	-0.588558	0.000229
H98	H	1.256661	-0.624904	-0.055053
H99	H	1.256580	-0.624879	0.055374
H100	H	1.335809	-0.479755	-0.055056
H101	H	1.335757	-0.479715	0.055362
H102	H	1.409250	-0.631245	0.055461
H103	H	1.409322	-0.631266	-0.054968
H104	H	1.462712	-0.548015	0.000257
C105	C	0.857685	-0.356946	-0.000064
C106	C	0.846753	-0.418321	-0.081507
C107	C	0.760928	-0.460304	-0.081670
H108	H	0.814484	-0.302067	-0.000111
H109	H	0.850087	-0.398689	0.055116
H110	H	0.854342	-0.376580	-0.136673
H111	H	0.889933	-0.473216	-0.081478
H112	H	0.753330	-0.502048	-0.026490
H113	H	0.717734	-0.405419	-0.081714
H114	H	0.753502	-0.501960	-0.136923
C115	C	1.183169	-0.003733	0.242658
C116	C	1.231168	-0.065384	0.307629
C117	C	1.286023	-0.135910	0.257993
H118	H	1.223656	0.033508	0.203768
H119	H	1.147326	-0.047011	0.203814
H120	H	1.267007	-0.022111	0.346457
H121	H	1.190703	-0.102648	0.346522
H122	H	1.250181	-0.179189	0.219149
H123	H	1.326505	-0.098661	0.219104
H124	H	1.318591	-0.177755	0.302068
C125	C	1.183141	-0.003771	0.757577
C126	C	1.159978	-0.105680	0.733329
C127	C	1.214762	-0.176246	0.783017
H128	H	1.175350	0.006159	0.824080
H129	H	1.243812	0.007550	0.741212
H130	H	1.099323	-0.116996	0.749701
H131	H	1.167773	-0.115643	0.666835
H132	H	1.275433	-0.164926	0.766652
H133	H	1.206967	-0.166307	0.849518
H134	H	1.199060	-0.245399	0.766565
C135	C	0.954430	0.289810	0.757846
C136	C	0.895001	0.234462	0.815094
C137	C	0.840111	0.304653	0.865079
H138	H	0.921678	0.331753	0.714015
H139	H	0.990264	0.333017	0.796766
H140	H	0.859171	0.191273	0.776178
H141	H	0.927728	0.192522	0.858943
H142	H	0.875945	0.347860	0.903999
H143	H	0.807365	0.346593	0.821241
H144	H	0.799788	0.267110	0.903934
C145	C	0.954405	0.290082	0.242652
C146	C	0.906417	0.351740	0.307618
C147	C	0.851549	0.422257	0.257975
H148	H	0.913912	0.252834	0.203784
H149	H	0.990239	0.333356	0.203785
H150	H	0.870586	0.308471	0.346469
H151	H	0.946888	0.389011	0.346488
H152	H	0.887383	0.465532	0.219108
H153	H	0.811061	0.385000	0.219109
H154	H	0.818989	0.464107	0.302047
H155	H	1.256681	-0.368178	0.000108
H156	H	0.335129	0.309515	0.000107
H157	H	0.504704	0.313223	0.000081
H158	H	0.344625	-0.033141	0.000127
H159	H	0.945081	-0.519920	0.000070
H160	H	0.900666	-0.149251	0.000097
