data_functionalizedCrystal
_audit_creation_method	'MofGen! by Chris Wilmer'
_symmetry_space_group_name_H-M	'P1'
_symmetry_Int_Tables_number	1
_symmetry_cell_setting	triclinic
loop_
_symmetry_equiv_pos_as_xyz
  x,y,z
_cell_length_a	25.639239
_cell_length_b	19.121246
_cell_length_c	19.120904
_cell_angle_alpha	89.874251
_cell_angle_beta	87.589896
_cell_angle_gamma	87.528032
loop_
_atom_site_label
_atom_site_type_symbol
_atom_site_fract_x
_atom_site_fract_y
_atom_site_fract_z
Zn1	Zn	-0.188790	-1.054808	0.442205
Zn2	Zn	-0.272346	-1.059701	0.324962
Zn3	Zn	-0.188478	-0.942574	0.319972
Zn4	Zn	-0.279751	-0.937508	0.437146
O5	O	-0.232341	-0.998648	0.381071
O6	O	-0.196905	-1.153565	0.430858
O7	O	-0.257991	-1.048332	0.226196
O8	O	-0.115353	-0.957535	0.336215
O9	O	-0.258293	-1.157160	0.344720
O10	O	-0.115582	-1.039992	0.426019
O11	O	-0.196374	-0.962280	0.222530
O12	O	-0.203555	-0.843794	0.331309
O13	O	-0.270915	-0.948899	0.535921
O14	O	-0.270613	-0.840071	0.417397
O15	O	-0.204086	-1.035079	0.539638
O16	O	-0.346495	-1.043419	0.339815
O17	O	-0.351936	-0.953644	0.422236
C18	C	-0.237854	-0.816494	0.373263
C19	C	-0.240225	-0.738567	0.369939
C20	C	-0.209433	-0.700083	0.413293
C21	C	-0.211659	-0.626863	0.410164
C22	C	-0.244679	-0.592128	0.363684
C23	C	-0.275473	-0.630618	0.320325
C24	C	-0.273244	-0.703837	0.323451
C25	C	-0.253002	-0.371148	0.351996
C26	C	-0.255229	-0.297924	0.348874
C27	C	-0.191414	-0.294174	0.438713
C28	C	-0.189191	-0.367394	0.441838
C29	C	-0.219982	-0.405878	0.398476
C30	C	-0.246956	-0.517285	0.360486
C31	C	-0.217702	-0.480719	0.401671
C32	C	-0.368186	-0.998531	0.381034
C33	C	-0.426300	-0.998544	0.381044
C34	C	-0.783814	-1.045507	0.338236
C35	C	-0.838418	-1.045534	0.338247
O36	O	-0.864235	-1.085343	0.301809
N37	N	-0.868578	-0.998769	0.381123
C38	C	-0.844132	-0.951979	0.423997
O39	O	-0.874799	-0.912204	0.460468
C40	C	-0.789529	-0.951956	0.423989
C41	C	-0.759371	-0.998719	0.381105
C42	C	-0.753657	-1.092267	0.295356
C43	C	-0.699057	-1.092239	0.295344
C44	C	-0.674614	-1.045452	0.338213
C45	C	-0.704771	-0.998692	0.381094
C46	C	-0.765084	-0.905170	0.466866
C47	C	-0.710477	-0.905151	0.466856
C48	C	-0.680319	-0.951915	0.423971
C49	C	-0.625729	-0.951876	0.423951
N50	N	-0.595569	-0.998641	0.381075
C51	C	-0.620011	-1.045429	0.338206
C52	C	-0.958801	-0.952031	0.424010
C53	C	-1.013403	-0.952050	0.424014
C54	C	-1.007685	-1.045606	0.338265
C55	C	-0.953083	-1.045584	0.338257
C56	C	-0.928641	-0.998796	0.381133
C57	C	-0.505348	-1.045366	0.338185
C58	C	-0.450743	-1.045332	0.338175
C59	C	-0.456465	-0.951779	0.423927
C60	C	-0.511065	-0.951810	0.423934
C61	C	-0.535505	-0.998610	0.381061
O62	O	-0.599876	-0.912089	0.460372
O63	O	-0.589338	-1.085203	0.301748
C64	C	-0.095966	-0.998783	0.381125
C65	C	-0.037850	-0.998841	0.381147
C66	C	-0.238361	-0.990878	0.563928
C67	C	-0.240927	-0.987567	0.641850
C68	C	-0.226805	-0.181513	0.388904
C69	C	-0.224437	-0.259439	0.392229
C70	C	-0.226306	-1.006427	0.198928
C71	C	-0.223589	-1.009874	0.121011
C72	C	-0.207339	-1.030879	0.680395
C73	C	-0.209748	-1.027759	0.753611
C74	C	-0.245747	-0.981332	0.788282
C75	C	-0.279336	-0.938015	0.749732
C76	C	-0.276924	-0.941132	0.676517
C77	C	-0.254766	-0.969674	1.009246
C78	C	-0.257177	-0.966562	1.082467
C79	C	-0.187588	-1.056306	1.086341
C80	C	-0.185181	-1.059421	1.013124
C81	C	-0.218768	-1.016103	0.974581
C82	C	-0.248211	-0.978143	0.863120
C83	C	-0.216301	-1.019288	0.899743
H84	H	-0.273842	-0.488996	0.322642
H85	H	-0.186989	-1.057086	0.871511
H86	H	-0.178026	-1.068688	0.652171
H87	H	-0.928531	-1.083663	0.303338
H88	H	-0.426190	-1.083413	0.303251
C89	C	-0.140728	-1.116789	0.750086
C90	C	-0.172830	-1.075374	0.795979
H91	H	-0.117939	-1.146188	0.776244
H92	H	-0.120711	-1.087481	0.720228
H93	H	-0.161766	-1.144794	0.722671
H94	H	-0.151793	-1.047365	0.823391
H95	H	-0.192850	-1.104685	0.825850
C96	C	-0.146577	-0.689015	0.501777
C97	C	-0.173136	-0.738260	0.464387
H98	H	-0.124166	-0.712584	0.533316
H99	H	-0.171139	-0.659310	0.527316
H100	H	-0.126408	-0.661761	0.470053
H101	H	-0.193308	-0.765511	0.496110
H102	H	-0.148571	-0.767977	0.438847
C103	C	-0.210120	-0.540538	0.500970
C104	C	-0.177814	-0.584562	0.457826
H105	H	-0.189223	-0.514422	0.530392
H106	H	-0.232941	-0.567953	0.528943
H107	H	-0.230099	-0.509374	0.472831
H108	H	-0.157838	-0.615729	0.485964
H109	H	-0.154984	-0.557144	0.429850
C110	C	-0.104737	-0.270248	0.472122
C111	C	-0.157566	-0.251875	0.486371
H112	H	-0.083840	-0.244137	0.501548
H113	H	-0.095850	-0.260240	0.424531
H114	H	-0.098692	-0.318827	0.480634
H115	H	-0.163612	-0.203296	0.477853
H116	H	-0.166456	-0.261877	0.533973
H117	H	-0.278075	-0.402472	0.316688
H118	H	-0.525240	-1.083476	0.303275
H119	H	-0.155868	-1.097230	0.984901
H120	H	-0.282123	-0.934411	0.977874
H121	H	-0.298318	-0.735170	0.288147
H122	H	-0.789629	-0.867087	0.501784
H123	H	-0.535621	-0.913734	0.458856
C124	C	-0.313934	-0.893393	0.860244
C125	C	-0.318907	-0.886980	0.787840
H126	H	-0.338368	-0.861889	0.883768
H127	H	-0.279514	-0.882656	0.871814
H128	H	-0.320557	-0.939983	0.874254
H129	H	-0.312280	-0.840392	0.773829
H130	H	-0.353335	-0.897713	0.776265
H131	H	-0.162304	-0.395670	0.479689
H132	H	-0.282121	-0.269645	0.311024
C133	C	-1.088855	-1.087265	0.300304
C134	C	-1.034560	-1.097098	0.291206
H135	H	-1.105446	-1.119071	0.271275
H136	H	-1.098946	-1.040637	0.287932
H137	H	-1.098994	-1.095431	0.347877
H138	H	-1.024420	-1.088927	0.243634
H139	H	-1.024465	-1.143737	0.303575
H140	H	-0.277524	-0.940345	0.891357
C141	C	-0.307228	-0.520044	0.275648
C142	C	-0.311771	-0.592439	0.269234
H143	H	-0.329641	-0.496477	0.244109
H144	H	-0.272121	-0.508503	0.264960
H145	H	-0.316850	-0.506056	0.322223
H146	H	-0.302145	-0.606428	0.222659
H147	H	-0.346886	-0.603985	0.279917
C148	C	-0.698907	-1.184725	0.210600
C149	C	-0.665912	-1.143654	0.248215
H150	H	-0.678447	-1.216473	0.181509
H151	H	-0.720272	-1.155351	0.182452
H152	H	-0.720374	-1.210217	0.242332
H153	H	-0.644449	-1.118159	0.216483
H154	H	-0.644538	-1.173032	0.276365
H155	H	-0.773552	-1.130371	0.260447
H156	H	-0.160242	-1.091573	1.117731
H157	H	-0.286493	-0.928753	1.110693
H158	H	-1.037953	-0.913964	0.458928
H159	H	-0.938904	-0.913926	0.458922
C160	C	-0.721617	-0.812685	0.551626
C161	C	-0.683612	-0.853720	0.513988
H162	H	-0.705031	-0.780932	0.580720
H163	H	-0.742840	-0.842083	0.579774
H164	H	-0.742750	-0.787201	0.519909
H165	H	-0.662481	-0.879208	0.545706
H166	H	-0.662380	-0.824318	0.485839
H167	H	-0.190815	-0.509004	0.439512
C168	C	-0.375296	-0.910216	0.461984
C169	C	-0.429590	-0.900354	0.471051
H170	H	-0.358705	-0.878474	0.491084
H171	H	-0.365132	-0.901985	0.414439
H172	H	-0.365229	-0.956877	0.474294
H173	H	-0.439658	-0.853695	0.458736
H174	H	-0.439758	-0.908580	0.518607
H175	H	-0.304270	-0.905856	0.645134
