data_functionalizedCrystal
_audit_creation_method	'MofGen! by Chris Wilmer'
_symmetry_space_group_name_H-M	'P1'
_symmetry_Int_Tables_number	1
_symmetry_cell_setting	triclinic
loop_
_symmetry_equiv_pos_as_xyz
  x,y,z
_cell_length_a	16.109301
_cell_length_b	15.186229
_cell_length_c	16.109301
_cell_angle_alpha	89.994833
_cell_angle_beta	96.538519
_cell_angle_gamma	90.000638
loop_
_atom_site_label
_atom_site_type_symbol
_atom_site_fract_x
_atom_site_fract_y
_atom_site_fract_z
O1	O	-1.103131	-0.073176	0.106866
O2	O	-0.769797	0.260158	0.440199
O3	O	-0.436464	0.593491	0.773533
O4	O	-0.861069	-0.073190	0.120165
O5	O	-0.527735	0.260143	0.453499
O6	O	-0.194402	0.593477	0.786832
O7	O	-0.988749	-0.073174	-0.007515
O8	O	-0.655416	0.260160	0.325818
O9	O	-0.322083	0.593493	0.659151
O10	O	-0.975450	-0.073192	0.234547
O11	O	-0.642117	0.260141	0.567880
O12	O	-0.308783	0.593474	0.901213
O13	O	-0.988741	0.073284	-0.007517
O14	O	-0.655407	0.406617	0.325816
O15	O	-0.322074	0.739950	0.659150
O16	O	-0.861060	0.073267	0.120164
O17	O	-0.527727	0.406601	0.453497
O18	O	-0.194393	0.739934	0.786830
O19	O	-1.103122	0.073282	0.106864
O20	O	-0.769789	0.406615	0.440198
O21	O	-0.436455	0.739948	0.773531
Zn22	Zn	-0.982090	0.096528	0.113514
Zn23	Zn	-0.648756	0.429861	0.446847
Zn24	Zn	-0.315423	0.763194	0.780180
Zn25	Zn	-0.982101	-0.096436	0.113516
Zn26	Zn	-0.648768	0.236897	0.446849
Zn27	Zn	-0.315434	0.570231	0.780183
O28	O	-0.975441	0.073265	0.234545
O29	O	-0.642108	0.406598	0.567878
O30	O	-0.308775	0.739932	0.901212
C31	C	-0.830090	0.000037	0.119626
C32	C	-0.496756	0.333370	0.452959
C33	C	-0.163423	0.666704	0.786292
C34	C	-0.737794	0.000032	0.118011
C35	C	-0.404461	0.333365	0.451344
C36	C	-0.071128	0.666698	0.784677
C37	C	-0.988206	0.000056	-0.038491
C38	C	-0.654873	0.333389	0.294842
C39	C	-0.321540	0.666722	0.628176
C40	C	-0.986591	0.000057	-0.130786
C41	C	-0.653258	0.333390	0.202547
C42	C	-0.319925	0.666723	0.535880
N43	N	-0.982088	0.228220	0.113511
N44	N	-0.648755	0.561554	0.446845
N45	N	-0.315422	0.894887	0.780178
C46	C	-1.134101	0.000053	0.107404
C47	C	-0.800768	0.333386	0.440737
C48	C	-0.467435	0.666719	0.774071
C49	C	-1.226397	0.000052	0.109019
C50	C	-0.893063	0.333385	0.442352
C51	C	-0.559730	0.666719	0.775686
C52	C	-0.515522	0.000036	0.190018
C53	C	-0.182188	0.333370	0.523352
C54	C	0.151145	0.666703	0.856685
C55	C	-0.428801	0.000042	0.188494
C56	C	-0.095468	0.333375	0.521828
C57	C	0.237865	0.666709	0.855161
C58	C	-0.448676	0.000050	0.037006
C59	C	-0.115342	0.333383	0.370339
C60	C	0.217991	0.666717	0.703672
C61	C	-0.535394	0.000051	0.038530
C62	C	-0.202061	0.333384	0.371864
C63	C	0.131272	0.666717	0.705197
C64	C	-0.568815	0.000039	0.115039
C65	C	-0.235482	0.333373	0.448373
C66	C	0.097852	0.666706	0.781706
C67	C	-0.395376	0.000045	0.111990
C68	C	-0.062042	0.333378	0.445324
C69	C	0.271291	0.666711	0.778657
C70	C	-0.301350	0.000051	0.110337
C71	C	0.031984	0.333384	0.443671
C72	C	0.365317	0.666717	0.777004
C73	C	-0.662847	0.000035	0.116693
C74	C	-0.329514	0.333368	0.450026
C75	C	0.003820	0.666701	0.783359
N76	N	-0.982109	-0.228129	0.113512
N77	N	-0.648776	0.105205	0.446845
N78	N	-0.315442	0.438538	0.780178
C79	C	-1.038644	0.453950	0.056994
C80	C	-0.705311	0.787284	0.390327
C81	C	-0.371978	1.120617	0.723660
C82	C	-1.038647	0.546140	0.056992
C83	C	-0.705314	0.879473	0.390325
C84	C	-0.371980	1.212807	0.723658
C85	C	-0.925547	0.546135	0.170032
C86	C	-0.592214	0.879468	0.503366
C87	C	-0.258880	1.212801	0.836699
C88	C	-0.925541	0.453947	0.170030
C89	C	-0.592208	0.787280	0.503363
C90	C	-0.258874	1.120613	0.836696
C91	C	-0.982094	0.407857	0.113511
C92	C	-0.648761	0.741190	0.446845
C93	C	-0.315428	1.074524	0.780178
C94	C	-0.982103	0.592235	0.113512
C95	C	-0.648770	0.925568	0.446845
C96	C	-0.315436	1.258901	0.780179
C97	C	-0.982105	0.692191	0.113510
C98	C	-0.648772	1.025524	0.446843
C99	C	-0.315439	1.358857	0.780177
C100	C	-0.982091	0.307894	0.113512
C101	C	-0.648758	0.641228	0.446845
C102	C	-0.315424	0.974561	0.780178
C103	C	-1.058599	0.000047	-0.353059
C104	C	-0.725266	0.333380	-0.019725
C105	C	-0.391932	0.666714	0.313608
C106	C	-1.057075	0.000040	-0.439779
C107	C	-0.723742	0.333373	-0.106446
C108	C	-0.390408	0.666706	0.226888
C109	C	-0.905586	0.000034	-0.419905
C110	C	-0.572253	0.333367	-0.086571
C111	C	-0.238919	0.666701	0.246762
C112	C	-0.907111	0.000035	-0.333186
C113	C	-0.573778	0.333369	0.000147
C114	C	-0.240444	0.666702	0.333481
C115	C	-0.983620	0.000046	-0.299766
C116	C	-0.650287	0.333379	0.033568
C117	C	-0.316953	0.666713	0.366901
C118	C	-0.980571	0.000038	-0.473205
C119	C	-0.647238	0.333371	-0.139871
C120	C	-0.313904	0.666704	0.193462
C121	C	-0.978918	0.000030	-0.567231
C122	C	-0.645585	0.333363	-0.233897
C123	C	-0.312251	0.666696	0.099436
C124	C	-0.985273	0.000052	-0.205734
C125	C	-0.651940	0.333386	0.127600
C126	C	-0.318607	0.666719	0.460933
C127	C	-0.975984	0.000034	0.265521
C128	C	-0.642651	0.333367	0.598854
C129	C	-0.309318	0.666701	0.932187
C130	C	-0.977600	0.000027	0.357816
C131	C	-0.644266	0.333360	0.691149
C132	C	-0.310933	0.666694	1.024483
H133	H	-0.542730	0.000034	0.252317
H134	H	-0.209396	0.333367	0.585650
H135	H	0.123937	0.666700	0.918983
N136	N	-0.826241	0.000034	-0.275692
N137	N	-0.492908	0.333368	0.057641
N138	N	-0.159574	0.666701	0.390975
H139	H	-0.792861	-0.054258	-0.286432
H140	H	-0.459528	0.279076	0.046901
H141	H	-0.126195	0.612409	0.380235
H142	H	-0.792924	0.054362	-0.286465
H143	H	-0.459591	0.387695	0.046868
H144	H	-0.126258	0.721028	0.380201
N145	N	-0.371320	0.000088	0.269364
N146	N	-0.037987	0.333421	0.602697
N147	N	0.295347	0.666755	0.936031
H148	H	-0.405654	0.000097	0.318060
H149	H	-0.072320	0.333430	0.651393
H150	H	0.261013	0.666763	0.984726
H151	H	-0.334883	-0.054189	0.272063
H152	H	-0.001550	0.279145	0.605397
H153	H	0.331783	0.612478	0.938730
H154	H	-0.421454	0.000065	-0.025285
H155	H	-0.088121	0.333398	0.308048
H156	H	0.245213	0.666731	0.641381
N157	N	-0.592883	0.000064	-0.042343
N158	N	-0.259550	0.333397	0.290990
N159	N	0.073784	0.666731	0.624323
H160	H	-0.558554	0.000067	-0.091043
H161	H	-0.225221	0.333400	0.242291
H162	H	0.108113	0.666733	0.575624
H163	H	-0.629301	-0.054226	-0.045010
H164	H	-0.295967	0.279107	0.288323
H165	H	0.037366	0.612440	0.621657
N166	N	-0.864557	0.595853	0.230988
N167	N	-0.531224	0.929186	0.564321
N168	N	-0.197891	1.262520	0.897654
H169	H	-0.896320	0.634092	0.267810
H170	H	-0.562986	0.967425	0.601144
H171	H	-0.229653	1.300759	0.934477
H172	H	-0.828743	0.552609	0.266734
H173	H	-0.495410	0.885942	0.600068
H174	H	-0.162077	1.219276	0.933401
H175	H	-1.120897	0.000054	-0.325851
H176	H	-0.787564	0.333387	0.007482
H177	H	-0.454231	0.666721	0.340816
H178	H	-1.084692	0.416426	0.010972
H179	H	-0.751359	0.749760	0.344305
H180	H	-0.418026	1.083093	0.677638
N181	N	-1.099647	0.595856	-0.003959
N182	N	-0.766314	0.929190	0.329374
N183	N	-0.432981	1.262523	0.662708
H184	H	-1.136443	0.634098	0.027832
H185	H	-0.803110	0.967432	0.361165
H186	H	-0.469776	1.300765	0.694498
H187	H	-1.067835	0.634062	-0.040768
H188	H	-0.734502	0.967395	0.292565
H189	H	-0.401169	1.300729	0.625898
H190	H	-0.879487	0.416415	0.216053
H191	H	-0.546154	0.749748	0.549387
H192	H	-0.212820	1.083081	0.882720
N193	N	-1.137945	0.000040	-0.497261
N194	N	-0.804611	0.333374	-0.163927
N195	N	-0.471278	0.666707	0.169406
H196	H	-1.186640	0.000048	-0.462927
H197	H	-0.853307	0.333381	-0.129593
H198	H	-0.519974	0.666714	0.203740
H199	H	-1.140608	0.054332	-0.533680
H200	H	-0.807274	0.387666	-0.200347
H201	H	-0.473941	0.720999	0.132987
N202	N	-0.823069	0.000026	-0.455952
N203	N	-0.489736	0.333360	-0.122618
N204	N	-0.156403	0.666693	0.210715
H205	H	-0.833479	0.000029	-0.518975
H206	H	-0.500146	0.333362	-0.185641
H207	H	-0.166812	0.666695	0.147692
H208	H	-0.790260	0.054319	-0.436457
H209	H	-0.456927	0.387653	-0.103124
H210	H	-0.123593	0.720986	0.230209
