data_functionalizedCrystal
_audit_creation_method	'MofGen! by Chris Wilmer'
_symmetry_space_group_name_H-M	'P1'
_symmetry_Int_Tables_number	1
_symmetry_cell_setting	triclinic
loop_
_symmetry_equiv_pos_as_xyz
  x,y,z
_cell_length_a	19.805407
_cell_length_b	19.805405
_cell_length_c	19.805399
_cell_angle_alpha	90.029301
_cell_angle_beta	90.019573
_cell_angle_gamma	90.026410
loop_
_atom_site_label
_atom_site_type_symbol
_atom_site_fract_x
_atom_site_fract_y
_atom_site_fract_z
Zn1	Zn	-1.034736	0.269479	-0.382712
Zn2	Zn	-0.534736	0.769479	0.117288
Zn3	Zn	-1.034651	0.382667	-0.269520
Zn4	Zn	-0.534651	0.882667	0.230480
Zn5	Zn	-0.921550	0.269498	-0.269536
Zn6	Zn	-0.421550	0.769498	0.230464
Zn7	Zn	-0.921514	0.382631	-0.382667
Zn8	Zn	-0.421514	0.882631	0.117333
O9	O	-0.978113	0.326069	-0.326109
O10	O	-0.478113	0.826069	0.173891
O11	O	-1.129441	0.284501	-0.367708
O12	O	-0.629441	0.784501	0.132292
O13	O	-1.019627	0.367678	-0.174805
O14	O	-0.519627	0.867678	0.325195
O15	O	-0.936616	0.174778	-0.284575
O16	O	-0.436616	0.674778	0.215425
O17	O	-1.129378	0.367660	-0.284547
O18	O	-0.629378	0.867660	0.215453
O19	O	-1.019772	0.174765	-0.367724
O20	O	-0.519772	0.674765	0.132276
O21	O	-0.936533	0.284533	-0.174817
O22	O	-0.436533	0.784533	0.325183
O23	O	-0.826829	0.284498	-0.284531
O24	O	-0.326829	0.784498	0.215469
O25	O	-0.936553	0.367598	-0.477389
O26	O	-0.436553	0.867598	0.022611
O27	O	-0.826802	0.367617	-0.367648
O28	O	-0.326802	0.867617	0.132352
O29	O	-1.019737	0.284466	-0.477422
O30	O	-0.519737	0.784466	0.022578
O31	O	-1.019592	0.477379	-0.284503
O32	O	-0.519592	0.977379	0.215497
O33	O	-0.936471	0.477353	-0.367632
O34	O	-0.436471	0.977353	0.132368
C35	C	-0.802257	0.326056	-0.326087
C36	C	-0.302257	0.826056	0.173913
C37	C	-0.727025	0.326067	-0.326093
C38	C	-0.227025	0.826067	0.173907
C39	C	-0.978036	0.501925	-0.326076
C40	C	-0.478036	1.001925	0.173924
C41	C	-0.978066	0.577157	-0.326084
C42	C	-0.478066	1.077157	0.173916
C43	C	-0.978151	0.326026	-0.502651
C44	C	-0.478151	0.826026	-0.002651
C45	C	-0.978167	0.326008	-0.577883
C46	C	-0.478167	0.826008	-0.077883
C47	C	-1.154655	0.326082	-0.326131
C48	C	-0.654655	0.826082	0.173869
C49	C	-1.229887	0.326088	-0.326140
C50	C	-0.729887	0.826088	0.173860
C51	C	-0.691684	0.369412	-0.369302
C52	C	-0.191684	0.869412	0.130698
C53	C	-0.620996	0.369413	-0.369312
C54	C	-0.120996	0.869413	0.130688
C55	C	-0.585649	0.326072	-0.326109
C56	C	-0.085649	0.826072	0.173891
C57	C	-0.620994	0.282722	-0.282898
C58	C	-0.120994	0.782722	0.217102
C59	C	-0.691681	0.282718	-0.282892
C60	C	-0.191681	0.782718	0.217108
C61	C	-0.335921	0.282737	-0.282920
C62	C	0.164079	0.782737	0.217080
C63	C	-0.265229	0.282746	-0.282928
C64	C	0.234771	0.782746	0.217072
C65	C	-0.265235	0.369432	-0.369340
C66	C	0.234765	0.869432	0.130660
C67	C	-0.335922	0.369428	-0.369334
C68	C	0.164078	0.869428	0.130666
C69	C	-0.371262	0.326076	-0.326126
C70	C	0.128738	0.826076	0.173874
C71	C	-0.447910	0.326074	-0.326117
C72	C	0.052090	0.826074	0.173883
C73	C	-0.509002	0.326076	-0.326114
C74	C	-0.009002	0.826076	0.173886
C75	C	-0.978207	0.149526	-0.326156
C76	C	-0.478207	0.649526	0.173844
C77	C	-0.978248	0.074294	-0.326177
C78	C	-0.478248	0.574294	0.173823
C79	C	-1.021389	0.612492	-0.282845
C80	C	-0.521389	1.112492	0.217155
C81	C	-1.021418	0.683181	-0.282860
C82	C	-0.521418	1.183181	0.217140
C83	C	-0.978119	0.718532	-0.326111
C84	C	-0.478119	1.218532	0.173889
C85	C	-0.934794	0.683192	-0.369356
C86	C	-0.434794	1.183192	0.130644
C87	C	-0.934769	0.612505	-0.369344
C88	C	-0.434769	1.112505	0.130656
C89	C	-0.934894	0.968265	-0.369406
C90	C	-0.434894	1.468265	0.130594
C91	C	-0.934921	1.038957	-0.369413
C92	C	-0.434921	1.538957	0.130587
C93	C	-1.021542	1.038941	-0.282922
C94	C	-0.521542	1.538941	0.217078
C95	C	-1.021517	0.968254	-0.282910
C96	C	-0.521517	1.468254	0.217090
C97	C	-0.978195	0.932920	-0.326157
C98	C	-0.478195	1.432920	0.173843
C99	C	-0.978166	0.856271	-0.326141
C100	C	-0.478166	1.356271	0.173859
C101	C	-0.978145	0.795179	-0.326124
C102	C	-0.478145	1.295179	0.173876
C103	C	-1.021481	0.282719	-0.613246
C104	C	-0.521481	0.782719	-0.113246
C105	C	-1.021488	0.282699	-0.683934
C106	C	-0.521488	0.782699	-0.183934
C107	C	-0.978184	0.325973	-0.719259
C108	C	-0.478184	0.825973	-0.219259
C109	C	-0.934864	0.369264	-0.683892
C110	C	-0.434864	0.869264	-0.183892
C111	C	-0.934854	0.369279	-0.613204
C112	C	-0.434854	0.869279	-0.113204
C113	C	-0.934902	0.369201	-0.968965
C114	C	-0.434902	0.869201	-0.468965
C115	C	-0.934917	0.369183	-1.039657
C116	C	-0.434917	0.869183	-0.539657
C117	C	-1.021536	0.282620	-1.039695
C118	C	-0.521536	0.782620	-0.539695
C119	C	-1.021527	0.282636	-0.969008
C120	C	-0.521527	0.782636	-0.469008
C121	C	-0.978205	0.325924	-0.933647
C122	C	-0.478205	0.825924	-0.433647
C123	C	-0.978197	0.325944	-0.856998
C124	C	-0.478197	0.825944	-0.356998
C125	C	-0.978194	0.325957	-0.795906
C126	C	-0.478194	0.825957	-0.295906
C127	C	-0.978114	0.326062	-0.150253
C128	C	-0.478114	0.826062	0.349747
C129	C	-0.978229	0.325890	-0.075021
C130	C	-0.478229	0.825890	0.424979
H131	H	-0.720458	0.404707	-0.404481
H132	H	-0.220458	0.904707	0.095519
H133	H	-0.899618	0.939502	-0.404618
H134	H	-0.399618	1.439502	0.095382
H135	H	-0.899663	1.067739	-0.404639
H136	H	-0.399663	1.567739	0.095361
C137	C	-0.582110	0.235044	-0.235376
C138	C	-0.082110	0.735044	0.264624
N139	N	-0.552824	0.199134	-0.199579
N140	N	-0.052824	0.699134	0.300421
C141	C	-0.582124	0.417109	-0.416832
C142	C	-0.082124	0.917109	0.083168
N143	N	-0.552847	0.453040	-0.452622
N144	N	-0.052847	0.953040	0.047378
C145	C	-0.374800	0.417107	-0.416860
C146	C	0.125200	0.917107	0.083140
N147	N	-0.404081	0.453019	-0.452659
N148	N	0.095919	0.953019	0.047341
C149	C	-0.887163	0.722081	-0.416931
C150	C	-0.387163	1.222081	0.083069
N151	N	-0.851284	0.751372	-0.452763
N152	N	-0.351284	1.251372	0.047237
H153	H	-1.056792	0.247400	-0.940250
H154	H	-0.556792	0.747400	-0.440250
C155	C	-0.887111	0.573636	-0.416911
C156	C	-0.387111	1.073636	0.083089
N157	N	-0.851215	0.544361	-0.452742
N158	N	-0.351215	1.044361	0.047258
H159	H	-0.364686	0.247442	-0.247733
H160	H	0.135314	0.747442	0.252267
C161	C	-1.069120	0.235113	-0.574395
C162	C	-0.569120	0.735113	-0.074395
N163	N	-1.105001	0.199252	-0.545135
N164	N	-0.605001	0.699252	-0.045135
H165	H	-0.899637	0.404459	-0.940183
H166	H	-0.399637	0.904459	-0.440183
C167	C	-0.730556	0.235036	-0.235358
C168	C	-0.230556	0.735036	0.264642
N169	N	-0.759835	0.199120	-0.199555
N170	N	-0.259835	0.699120	0.300445
H171	H	-0.899650	0.404423	-1.068417
H172	H	-0.399650	0.904423	-0.568417
H173	H	-1.056809	0.247370	-1.068495
H174	H	-0.556809	0.747370	-0.568495
H175	H	-1.056644	0.583713	-0.247621
H176	H	-0.556644	1.083713	0.252379
C177	C	-1.069072	0.722046	-0.235288
C178	C	-0.569072	1.222046	0.264712
N179	N	-1.104967	0.751320	-0.199454
N180	N	-0.604967	1.251320	0.300546
H181	H	-1.056773	0.939473	-0.247688
H182	H	-0.556773	1.439473	0.252312
H183	H	-1.056820	1.067719	-0.247711
H184	H	-0.556820	1.567719	0.252289
C185	C	-1.069139	0.235078	-0.722830
C186	C	-0.569139	0.735078	-0.222830
N187	N	-1.105032	0.199208	-0.752125
N188	N	-0.605032	0.699208	-0.252125
H189	H	-0.899602	0.404495	-0.712659
H190	H	-0.399602	0.904495	-0.212659
C191	C	-0.226349	0.235060	-0.235404
C192	C	0.273651	0.735060	0.264596
N193	N	-0.197065	0.199144	-0.199612
N194	N	0.302935	0.699144	0.300388
H195	H	-0.236454	0.404729	-0.404524
H196	H	0.263546	0.904729	0.095476
C197	C	-0.887206	0.416902	-0.574306
C198	C	-0.387206	0.916902	-0.074306
N199	N	-0.851314	0.452772	-0.545009
N200	N	-0.351314	0.952772	-0.045009
