data_functionalizedCrystal
_audit_creation_method	'MofGen! by Chris Wilmer'
_symmetry_space_group_name_H-M	'P1'
_symmetry_Int_Tables_number	1
_symmetry_cell_setting	triclinic
loop_
_symmetry_equiv_pos_as_xyz
  x,y,z
_cell_length_a	16.109301
_cell_length_b	8.597304
_cell_length_c	7.088929
_cell_angle_alpha	76.032910
_cell_angle_beta	96.209718
_cell_angle_gamma	84.403059
loop_
_atom_site_label
_atom_site_type_symbol
_atom_site_fract_x
_atom_site_fract_y
_atom_site_fract_z
O1	O	1.094467	0.221551	-0.195370
O2	O	0.852389	0.247085	-0.199602
O3	O	0.980212	0.001966	-0.159208
O4	O	0.966644	0.466671	-0.235765
O5	O	0.997306	-0.030843	0.164174
O6	O	0.869483	0.214277	0.123780
O7	O	1.111561	0.188743	0.128012
Cu8	Cu	0.992083	0.198514	0.155423
Cu9	Cu	0.971867	0.237314	-0.227014
O10	O	0.983738	0.433862	0.087617
C11	C	0.829962	0.229647	-0.037744
C12	C	0.737667	0.226547	-0.037244
C13	C	0.428593	0.361856	-0.059502
C14	C	0.515311	0.364785	-0.059995
C15	C	0.535351	0.073963	-0.012110
C16	C	0.448633	0.071037	-0.011631
C17	C	0.395257	0.214987	-0.035317
C18	C	0.568692	0.220843	-0.036291
C19	C	0.662716	0.224018	-0.036826
C20	C	0.301227	0.211812	-0.034786
C21	C	0.988254	-0.073903	0.012275
C22	C	0.986741	-0.251088	0.041452
C23	C	1.133988	0.206181	-0.033851
C24	C	1.226282	0.209282	-0.034364
C25	C	0.975696	0.509731	-0.083870
C26	C	0.977208	0.686918	-0.113060
N27	N	1.006308	0.171223	0.424408
N28	N	0.957649	0.264593	-0.495997
H29	H	0.385136	0.479069	-0.078790
C30	C	0.551976	0.526351	-0.086585
N31	N	0.579592	0.648049	-0.106609
C32	C	0.594074	-0.084376	0.013978
N33	N	0.638305	-0.203643	0.033641
C34	C	1.074441	0.040511	0.556249
N35	N	1.125759	-0.057946	0.655565
C36	C	0.411963	-0.090540	0.014988
N37	N	0.384343	-0.212234	0.035036
H38	H	0.907216	0.361357	0.406401
H39	H	0.993735	-0.333571	0.196079
C40	C	0.967754	-0.201663	-0.321946
N41	N	0.960635	-0.117732	-0.479282
