data_functionalizedCrystal
_audit_creation_method	'MofGen! by Chris Wilmer'
_symmetry_space_group_name_H-M	'P1'
_symmetry_Int_Tables_number	1
_symmetry_cell_setting	triclinic
loop_
_symmetry_equiv_pos_as_xyz
  x,y,z
_cell_length_a	15.995350
_cell_length_b	15.995350
_cell_length_c	15.072220
_cell_angle_alpha	89.998899
_cell_angle_beta	89.991149
_cell_angle_gamma	96.507625
loop_
_atom_site_label
_atom_site_type_symbol
_atom_site_fract_x
_atom_site_fract_y
_atom_site_fract_z
O1	O	1.110996	-0.107921	-0.073703
O2	O	1.360996	0.142079	0.176297
O3	O	1.610996	0.392079	0.426297
O4	O	1.860996	0.642079	0.676297
O5	O	0.867221	-0.121249	-0.073721
O6	O	1.117221	0.128751	0.176279
O7	O	1.367221	0.378751	0.426279
O8	O	1.617221	0.628751	0.676279
O9	O	0.995772	0.007303	-0.073710
O10	O	1.245772	0.257303	0.176290
O11	O	1.495772	0.507303	0.426290
O12	O	1.745772	0.757303	0.676290
O13	O	0.982444	-0.236472	-0.073713
O14	O	1.232444	0.013528	0.176287
O15	O	1.482444	0.263528	0.426287
O16	O	1.732444	0.513528	0.676287
O17	O	0.995740	0.007296	0.073855
O18	O	1.245740	0.257296	0.323855
O19	O	1.495740	0.507296	0.573855
O20	O	1.745740	0.757296	0.823855
O21	O	0.867189	-0.121256	0.073844
O22	O	1.117189	0.128744	0.323844
O23	O	1.367189	0.378744	0.573844
O24	O	1.617189	0.628744	0.823844
O25	O	1.110964	-0.107928	0.073862
O26	O	1.360964	0.142072	0.323862
O27	O	1.610964	0.392072	0.573862
O28	O	1.860964	0.642072	0.823862
Zn29	Zn	0.989071	-0.114593	0.097283
Zn30	Zn	1.239071	0.135407	0.347283
Zn31	Zn	1.489071	0.385407	0.597283
Zn32	Zn	1.739071	0.635407	0.847283
Zn33	Zn	0.989113	-0.114584	-0.097141
Zn34	Zn	1.239113	0.135416	0.152859
Zn35	Zn	1.489113	0.385416	0.402859
Zn36	Zn	1.739113	0.635416	0.652859
O37	O	0.982413	-0.236480	0.073852
O38	O	1.232413	0.013520	0.323852
O39	O	1.482413	0.263520	0.573852
O40	O	1.732413	0.513520	0.823852
C41	C	0.836010	-0.120701	0.000060
C42	C	1.086010	0.129299	0.250060
C43	C	1.336010	0.379299	0.500060
C44	C	1.586010	0.629299	0.750060
C45	C	0.743060	-0.119049	0.000053
C46	C	0.993060	0.130951	0.250053
C47	C	1.243060	0.380951	0.500053
C48	C	1.493060	0.630951	0.750053
C49	C	0.405312	-0.113117	0.000071
C50	C	0.655312	0.136883	0.250071
C51	C	0.905312	0.386883	0.500071
C52	C	1.155312	0.636883	0.750071
C53	C	0.452746	-0.021565	0.000401
C54	C	0.702746	0.228435	0.250401
C55	C	0.952746	0.478435	0.500401
C56	C	1.202746	0.728435	0.750401
C57	C	0.549436	-0.023217	0.000063
C58	C	0.799436	0.226783	0.250063
C59	C	1.049436	0.476783	0.500063
C60	C	1.299436	0.726783	0.750063
C61	C	0.572873	-0.116060	0.000063
C62	C	0.822873	0.133940	0.250063
C63	C	1.072873	0.383940	0.500063
C64	C	1.322873	0.633940	0.750063
C65	C	0.531804	-0.161212	-0.084201
C66	C	0.781804	0.088788	0.165799
C67	C	1.031804	0.338788	0.415799
C68	C	1.281804	0.588788	0.665799
C69	C	0.435168	-0.158912	-0.084266
C70	C	0.685168	0.091088	0.165734
C71	C	0.935168	0.341088	0.415734
C72	C	1.185168	0.591088	0.665734
C73	C	0.434793	-0.160812	0.083543
C74	C	0.684793	0.089188	0.333543
C75	C	0.934793	0.339188	0.583543
C76	C	1.184793	0.589188	0.833543
C77	C	0.531738	-0.160790	0.084651
C78	C	0.781738	0.089210	0.334651
C79	C	1.031738	0.339210	0.584651
C80	C	1.281738	0.589210	0.834651
C81	C	0.667570	-0.117727	0.000055
C82	C	0.917570	0.132273	0.250055
C83	C	1.167570	0.382273	0.500055
C84	C	1.417570	0.632273	0.750055
C85	C	0.310614	-0.111452	0.000073
C86	C	0.560614	0.138548	0.250073
C87	C	0.810614	0.388548	0.500073
C88	C	1.060614	0.638548	0.750073
C89	C	0.995205	0.038494	0.000070
C90	C	1.245205	0.288494	0.250070
C91	C	1.495205	0.538494	0.500070
C92	C	1.745205	0.788494	0.750070
C93	C	0.993553	0.131444	0.000065
C94	C	1.243553	0.381444	0.250065
C95	C	1.493553	0.631444	0.500065
C96	C	1.743553	0.881444	0.750065
C97	C	1.142175	-0.108476	0.000080
C98	C	1.392175	0.141524	0.250080
C99	C	1.642175	0.391524	0.500080
C100	C	1.892175	0.641524	0.750080
C101	C	1.235125	-0.110127	0.000081
C102	C	1.485125	0.139873	0.250081
C103	C	1.735125	0.389873	0.500081
C104	C	1.985125	0.639873	0.750081
C105	C	0.982980	-0.267671	0.000069
C106	C	1.232980	-0.017671	0.250069
C107	C	1.482980	0.232329	0.500069
C108	C	1.732980	0.482329	0.750069
C109	C	0.984631	-0.360621	0.000069
C110	C	1.234631	-0.110621	0.250069
C111	C	1.484631	0.139379	0.500069
C112	C	1.734631	0.389379	0.750069
N113	N	0.989049	-0.114599	0.229971
N114	N	1.239049	0.135401	0.479971
N115	N	1.489049	0.385401	0.729971
N116	N	1.739049	0.635401	0.979971
C117	C	0.987621	0.469192	0.000068
C118	C	1.237621	0.719192	0.250068
C119	C	1.487621	0.969192	0.500068
C120	C	1.737621	1.219192	0.750068
C121	C	0.896069	0.421758	-0.000270
C122	C	1.146069	0.671758	0.249730
C123	C	1.396069	0.921758	0.499730
C124	C	1.646069	1.171758	0.749730
C125	C	0.897721	0.325068	0.000063
C126	C	1.147721	0.575068	0.250063
C127	C	1.397721	0.825068	0.500063
C128	C	1.647721	1.075068	0.750063
C129	C	0.990564	0.301631	0.000066
C130	C	1.240564	0.551631	0.250066
C131	C	1.490564	0.801631	0.500066
C132	C	1.740564	1.051631	0.750066
C133	C	1.035702	0.342705	0.084335
C134	C	1.285702	0.592705	0.334335
C135	C	1.535702	0.842705	0.584335
C136	C	1.785702	1.092705	0.834335
C137	C	1.033402	0.439341	0.084405
C138	C	1.283402	0.689341	0.334405
C139	C	1.533402	0.939341	0.584405
C140	C	1.783402	1.189341	0.834405
C141	C	1.035330	0.439707	-0.083404
C142	C	1.285330	0.689707	0.166596
C143	C	1.535330	0.939707	0.416596
C144	C	1.785330	1.189707	0.666596
C145	C	1.035308	0.342761	-0.084518
C146	C	1.285308	0.592761	0.165482
C147	C	1.535308	0.842761	0.415482
C148	C	1.785308	1.092761	0.665482
C149	C	0.992231	0.206934	0.000068
C150	C	1.242231	0.456934	0.250068
C151	C	1.492231	0.706934	0.500068
C152	C	1.742231	0.956934	0.750068
C153	C	0.985956	0.563890	0.000072
C154	C	1.235956	0.813890	0.250072
C155	C	1.485956	1.063890	0.500072
C156	C	1.735956	1.313890	0.750072
N157	N	0.989142	-0.114571	-0.229830
N158	N	1.239142	0.135429	0.020170
N159	N	1.489142	0.385429	0.270170
N160	N	1.739142	0.635429	0.520170
C161	C	0.989112	-0.114580	0.589173
C162	C	1.239112	0.135420	0.839173
C163	C	1.489112	0.385420	1.089173
C164	C	1.739112	0.635420	1.339173
C165	C	0.920095	-0.183135	0.551560
C166	C	1.170095	0.066865	0.801560
C167	C	1.420095	0.316865	1.051560
C168	C	1.670095	0.566865	1.301560
C169	C	0.920254	-0.183385	0.448735
C170	C	1.170254	0.066615	0.698735
C171	C	1.420254	0.316615	0.948735
C172	C	1.670254	0.566615	1.198735
C173	C	0.989080	-0.114590	0.410969
C174	C	1.239080	0.135410	0.660969
C175	C	1.489080	0.385410	0.910969
C176	C	1.739080	0.635410	1.160969
C177	C	1.076445	-0.133671	0.448266
C178	C	1.326445	0.116329	0.698266
C179	C	1.576445	0.366329	0.948266
C180	C	1.826445	0.616329	1.198266
C181	C	1.076058	-0.134159	0.551124
C182	C	1.326058	0.115841	0.801124
C183	C	1.576058	0.365841	1.051124
C184	C	1.826058	0.615841	1.301124
C185	C	0.971542	-0.026741	0.551272
C186	C	1.221542	0.223259	0.801272
C187	C	1.471542	0.473259	1.051272
C188	C	1.721542	0.723259	1.301272
C189	C	0.969537	-0.027327	0.448409
C190	C	1.219537	0.222673	0.698409
C191	C	1.469537	0.472673	0.948409
C192	C	1.719537	0.722673	1.198409
C193	C	0.989067	-0.114593	0.310255
C194	C	1.239067	0.135407	0.560255
C195	C	1.489067	0.385407	0.810255
C196	C	1.739067	0.635407	1.060255
C197	C	0.989130	-0.114579	0.689886
C198	C	1.239130	0.135421	0.939886
C199	C	1.489130	0.385421	1.189886
C200	C	1.739130	0.635421	1.439886
H201	H	0.560191	-0.129845	-0.146912
H202	H	0.810191	0.120155	0.103088
H203	H	1.060191	0.370155	0.353088
H204	H	1.310191	0.620155	0.603088
H205	H	1.021872	0.024275	0.575595
H206	H	1.271872	0.274275	0.825595
H207	H	1.521872	0.524275	1.075595
H208	H	1.771872	0.774275	1.325595
H209	H	1.005411	0.460250	-0.147274
H210	H	1.255411	0.710250	0.102726
H211	H	1.505411	0.960250	0.352726
H212	H	1.755411	1.210250	0.602726
H213	H	0.416873	-0.125979	-0.147255
H214	H	0.666873	0.124021	0.102745
H215	H	0.916873	0.374021	0.352745
H216	H	1.166873	0.624021	0.602745
H217	H	0.545929	-0.229421	-0.087335
H218	H	0.795929	0.020579	0.162665
H219	H	1.045929	0.270579	0.412665
H220	H	1.295929	0.520579	0.662665
H221	H	0.861974	0.297200	0.060568
H222	H	1.111974	0.547200	0.310568
H223	H	1.361974	0.797200	0.560568
H224	H	1.611974	1.047200	0.810568
H225	H	0.909219	-0.008392	0.577258
H226	H	1.159219	0.241608	0.827258
H227	H	1.409219	0.491608	1.077258
H228	H	1.659219	0.741608	1.327258
H229	H	1.129029	-0.085068	0.423801
H230	H	1.379029	0.164932	0.673801
H231	H	1.629029	0.414932	0.923801
H232	H	1.879029	0.664932	1.173801
H233	H	1.000460	0.457639	0.147395
H234	H	1.250460	0.707639	0.397395
H235	H	1.500460	0.957639	0.647395
H236	H	1.750460	1.207639	0.897395
H237	H	1.103014	0.327400	-0.089603
H238	H	1.353014	0.577400	0.160397
H239	H	1.603014	0.827400	0.410397
H240	H	1.853014	1.077400	0.660397
H241	H	0.859490	0.440293	-0.060701
H242	H	1.109490	0.690293	0.189299
H243	H	1.359490	0.940293	0.439299
H244	H	1.609490	1.190293	0.689299
H245	H	0.403031	-0.228312	0.084113
H246	H	0.653031	0.021688	0.334113
H247	H	0.903031	0.271688	0.584113
H248	H	1.153031	0.521688	0.834113
H249	H	1.016540	0.026078	0.422704
H250	H	1.266540	0.276078	0.672704
H251	H	1.516540	0.526078	0.922704
H252	H	1.766540	0.776078	1.172704
H253	H	1.102831	0.471468	-0.083968
H254	H	1.352831	0.721468	0.166032
H255	H	1.602831	0.971468	0.416032
H256	H	1.852831	1.221468	0.666032
H257	H	0.402920	-0.226128	-0.088090
H258	H	0.652920	0.023872	0.161910
H259	H	0.902920	0.273872	0.411910
H260	H	1.152920	0.523872	0.661910
H261	H	0.905271	-0.012846	0.424032
H262	H	1.155271	0.237154	0.674032
H263	H	1.405271	0.487154	0.924032
H264	H	1.655271	0.737154	1.174032
H265	H	0.414244	-0.130885	0.147414
H266	H	0.664244	0.119115	0.397414
H267	H	0.914244	0.369115	0.647414
H268	H	1.164244	0.619115	0.897414
H269	H	0.855314	-0.172016	0.423519
H270	H	1.105314	0.077984	0.673519
H271	H	1.355314	0.327984	0.923519
H272	H	1.605314	0.577984	1.173519
H273	H	0.434211	0.015027	0.060830
H274	H	0.684211	0.265027	0.310830
H275	H	0.934211	0.515027	0.560830
H276	H	1.184211	0.765027	0.810830
H277	H	0.559041	-0.127829	0.146989
H278	H	0.809041	0.122171	0.396989
H279	H	1.059041	0.372171	0.646989
H280	H	1.309041	0.622171	0.896989
H281	H	0.577852	0.012275	0.060467
H282	H	0.827852	0.262275	0.310467
H283	H	1.077852	0.512275	0.560467
H284	H	1.327852	0.762275	0.810467
H285	H	0.547102	-0.228494	0.089741
H286	H	0.797102	0.021506	0.339741
H287	H	1.047102	0.271506	0.589741
H288	H	1.297102	0.521506	0.839741
H289	H	0.854945	-0.171953	0.576317
H290	H	1.104945	0.078047	0.826317
H291	H	1.354945	0.328047	1.076317
H292	H	1.604945	0.578047	1.326317
H293	H	1.092297	-0.197002	0.422498
H294	H	1.342297	0.052998	0.672498
H295	H	1.592297	0.302998	0.922498
H296	H	1.842297	0.552998	1.172498
H297	H	0.862238	0.296649	-0.060344
H298	H	1.112238	0.546649	0.189656
H299	H	1.362238	0.796649	0.439656
H300	H	1.612238	1.046649	0.689656
H301	H	0.931160	-0.247952	0.577399
H302	H	1.181160	0.002048	0.827399
H303	H	1.431160	0.252048	1.077399
H304	H	1.681160	0.502048	1.327399
H305	H	0.859626	0.441349	0.059819
H306	H	1.109626	0.691349	0.309819
H307	H	1.359626	0.941349	0.559819
H308	H	1.609626	1.191349	0.809819
H309	H	1.100617	0.471588	0.088231
H310	H	1.350617	0.721588	0.338231
H311	H	1.600617	0.971588	0.588231
H312	H	1.850617	1.221588	0.838231
H313	H	1.103910	0.328579	0.087471
H314	H	1.353910	0.578579	0.337471
H315	H	1.603910	0.828579	0.587471
H316	H	1.853910	1.078579	0.837471
H317	H	1.004325	0.314320	0.147042
H318	H	1.254325	0.564320	0.397042
H319	H	1.504325	0.814320	0.647042
H320	H	1.754325	1.064320	0.897042
H321	H	1.002306	0.315516	-0.146857
H322	H	1.252306	0.565516	0.103143
H323	H	1.502306	0.815516	0.353143
H324	H	1.752306	1.065516	0.603143
H325	H	0.433165	0.014865	-0.059694
H326	H	0.683165	0.264865	0.190306
H327	H	0.933165	0.514865	0.440306
H328	H	1.183165	0.764865	0.690306
H329	H	1.129019	-0.086195	0.576003
H330	H	1.379019	0.163805	0.826003
H331	H	1.629019	0.413805	1.076003
H332	H	1.879019	0.663805	1.326003
H333	H	0.577307	0.012521	-0.060446
H334	H	0.827307	0.262521	0.189554
H335	H	1.077307	0.512521	0.439554
H336	H	1.327307	0.762521	0.689554
H337	H	0.931473	-0.248570	0.424121
H338	H	1.181473	0.001430	0.674121
H339	H	1.431473	0.251430	0.924121
H340	H	1.681473	0.501430	1.174121
H341	H	1.091540	-0.198219	0.575106
H342	H	1.341540	0.051781	0.825106
H343	H	1.591540	0.301781	1.075106
H344	H	1.841540	0.551781	1.325106
