data_functionalizedCrystal
_audit_creation_method	'MofGen! by Chris Wilmer'
_symmetry_space_group_name_H-M	'P1'
_symmetry_Int_Tables_number	1
_symmetry_cell_setting	triclinic
loop_
_symmetry_equiv_pos_as_xyz
  x,y,z
_cell_length_a	11.169417
_cell_length_b	25.639239
_cell_length_c	11.169409
_cell_angle_alpha	89.960719
_cell_angle_beta	89.980176
_cell_angle_gamma	90.039565
loop_
_atom_site_label
_atom_site_type_symbol
_atom_site_fract_x
_atom_site_fract_y
_atom_site_fract_z
Zn1	Zn	1.834726	-0.208096	-0.678485
Zn2	Zn	1.834516	-0.295546	-0.477777
Zn3	Zn	1.634012	-0.208128	-0.477819
Zn4	Zn	1.633920	-0.295504	-0.678422
O5	O	1.734293	-0.251819	-0.578126
O6	O	2.002648	-0.219701	-0.651869
O7	O	1.807869	-0.283981	-0.309833
O8	O	1.660763	-0.134959	-0.504482
O9	O	2.002494	-0.283950	-0.504410
O10	O	1.808227	-0.134935	-0.651910
O11	O	1.660560	-0.219755	-0.309864
O12	O	1.466050	-0.219714	-0.504421
O13	O	1.660607	-0.283878	-0.846380
O14	O	1.465983	-0.283909	-0.651803
O15	O	1.808138	-0.219660	-0.846426
O16	O	1.807780	-0.368706	-0.504350
O17	O	1.660403	-0.368675	-0.651763
C18	C	1.422469	-0.251811	-0.578110
C19	C	1.289069	-0.251820	-0.578132
C20	C	1.734092	-0.387661	-0.578071
C21	C	1.734115	-0.445775	-0.578088
C22	C	1.811233	-0.806142	-0.501499
C23	C	1.811279	-0.860746	-0.501515
O24	O	1.876638	-0.888986	-0.436336
N25	N	1.734504	-0.888058	-0.578205
C26	C	1.657686	-0.860762	-0.654894
O27	O	1.592388	-0.889006	-0.720127
C28	C	1.657647	-0.806159	-0.654883
C29	C	1.734418	-0.778850	-0.578178
C30	C	1.887999	-0.778833	-0.424802
C31	C	1.887951	-0.724233	-0.424784
C32	C	1.811136	-0.696941	-0.501464
C33	C	1.734370	-0.724249	-0.578161
C34	C	1.580836	-0.778864	-0.731576
C35	C	1.580804	-0.724257	-0.731559
C36	C	1.657575	-0.696948	-0.654855
C37	C	1.657507	-0.642357	-0.654823
N38	N	1.734282	-0.615046	-0.578133
C39	C	1.811097	-0.642338	-0.501453
C40	C	1.657777	-0.975432	-0.654912
C41	C	1.657809	-1.030035	-0.654918
C42	C	1.811404	-1.030015	-0.501540
C43	C	1.811365	-0.975412	-0.501529
C44	C	1.734552	-0.948121	-0.578221
C45	C	1.810988	-0.527673	-0.501422
C46	C	1.810930	-0.473067	-0.501408
C47	C	1.657340	-0.473091	-0.654789
C48	C	1.657393	-0.527692	-0.654799
C49	C	1.734228	-0.554981	-0.578112
O50	O	1.592185	-0.614082	-0.719973
O51	O	1.876395	-0.614086	-0.436242
C52	C	2.047336	-0.251827	-0.578142
C53	C	2.180736	-0.251830	-0.578149
C54	C	1.734386	-0.251761	-0.891168
C55	C	1.734425	-0.251736	-1.024569
C56	C	1.734529	-0.115446	-0.578207
C57	C	1.734629	-0.057331	-0.578242
C58	C	1.734271	-0.251839	-0.266301
C59	C	1.734464	-0.251716	-0.132902
H60	H	1.873446	-0.450834	-0.438942
O61	O	1.583203	-0.948981	-0.729571
C62	C	1.524858	-0.932217	-0.933673
C63	C	1.609365	-0.962211	-0.849258
H64	H	1.545997	-0.942894	-1.030459
H65	H	1.428086	-0.943017	-0.912607
H66	H	1.537985	-0.888501	-0.920441
H67	H	1.596345	-1.005934	-0.862443
H68	H	1.706106	-0.951368	-0.870344
O69	O	1.886071	-1.056451	-0.426945
C70	C	2.038473	-1.050685	-0.274874
C71	C	1.953962	-1.020680	-0.359265
H72	H	2.093403	-1.021777	-0.220151
H73	H	1.983483	-1.076283	-0.212000
H74	H	2.101160	-1.076215	-0.330069
H75	H	1.891259	-0.995122	-0.304167
H76	H	2.009027	-0.995115	-0.422143
O77	O	1.582796	-0.446630	-0.729447
C78	C	1.524520	-0.429841	-0.933558
C79	C	1.608982	-0.459853	-0.849132
H80	H	1.545678	-0.440512	-1.030342
H81	H	1.427734	-0.440630	-0.912524
H82	H	1.537674	-0.386128	-0.920302
H83	H	1.595935	-0.503573	-0.862341
H84	H	1.705737	-0.449020	-0.870187
O85	O	1.885463	-0.554238	-0.426884
C86	C	1.901779	-0.615916	-0.264839
C87	C	1.817306	-0.585870	-0.349190
H88	H	1.846708	-0.641489	-0.201987
H89	H	1.964507	-0.641463	-0.319950
H90	H	1.956669	-0.587007	-0.210079
H91	H	1.762338	-0.614742	-0.403969
H92	H	1.754658	-0.560316	-0.294011
H93	H	1.950468	-0.702001	-0.362329
H94	H	1.950557	-0.801049	-0.362360
O95	O	1.885774	-0.948863	-0.426898
C96	C	1.901976	-0.887242	-0.264903
C97	C	1.817566	-0.917282	-0.349330
H98	H	1.846865	-0.861693	-0.202185
H99	H	1.956856	-0.916109	-0.210013
H100	H	1.964714	-0.861657	-0.320076
H101	H	1.754755	-0.942867	-0.294249
H102	H	1.762769	-0.888386	-0.404224
H103	H	1.518314	-0.801089	-0.794031
O104	O	1.583392	-1.056616	-0.729480
C105	C	1.567209	-1.118182	-0.891589
C106	C	1.651616	-1.088123	-0.807193
H107	H	1.622336	-1.143654	-0.954458
H108	H	1.504517	-1.143830	-0.836514
H109	H	1.512278	-1.089280	-0.946329
H110	H	1.706625	-1.116987	-0.752435
H111	H	1.714229	-1.062467	-0.862337
O112	O	1.506075	-0.697828	-0.806102
C113	C	1.353809	-0.703615	-0.958306
C114	C	1.438355	-0.733609	-0.873929
H115	H	1.299054	-0.732531	-1.013184
H116	H	1.290971	-0.678113	-0.903213
H117	H	1.408884	-0.677991	-1.021047
H118	H	1.383378	-0.759261	-0.811171
H119	H	1.501197	-0.759078	-0.929096
H120	H	1.594884	-0.549928	-0.717262
