data_functionalizedCrystal
_audit_creation_method	'MofGen! by Chris Wilmer'
_symmetry_space_group_name_H-M	'P1'
_symmetry_Int_Tables_number	1
_symmetry_cell_setting	triclinic
loop_
_symmetry_equiv_pos_as_xyz
  x,y,z
_cell_length_a	19.188925
_cell_length_b	19.188930
_cell_length_c	17.766277
_cell_angle_alpha	89.988508
_cell_angle_beta	89.989688
_cell_angle_gamma	83.143665
loop_
_atom_site_label
_atom_site_type_symbol
_atom_site_fract_x
_atom_site_fract_y
_atom_site_fract_z
O1	O	0.926152	0.087151	-0.062619
O2	O	0.722840	0.098889	-0.062618
O3	O	0.830363	-0.008636	-0.062604
O4	O	0.818629	0.194675	-0.062633
O5	O	0.830344	-0.008642	0.062585
O6	O	0.722821	0.098883	0.062571
O7	O	0.926133	0.087145	0.062570
Cu8	Cu	0.824476	0.093014	0.074001
Cu9	Cu	0.824498	0.093020	-0.074049
O10	O	0.818610	0.194670	0.062555
C11	C	0.696820	0.098507	-0.000023
C12	C	0.619315	0.097367	-0.000022
C13	C	0.057545	0.152831	-0.000032
C14	C	0.130368	0.153908	-0.000036
C15	C	0.175302	0.090816	-0.000026
C16	C	0.147408	0.026642	-0.000030
C17	C	0.074586	0.025568	-0.000034
N18	N	0.295973	0.045138	0.042596
N19	N	0.365150	0.046163	0.042601
C20	C	0.394712	0.094050	-0.000017
N21	N	0.352481	0.140883	-0.042631
N22	N	0.283297	0.139860	-0.042632
C23	C	0.254267	0.091974	-0.000023
C24	C	0.501561	0.159386	-0.000023
C25	C	0.574385	0.160460	-0.000032
C26	C	0.591425	0.033193	-0.000018
C27	C	0.518601	0.032121	-0.000017
C28	C	0.473673	0.095220	-0.000016
C29	C	0.829974	-0.034650	-0.000007
C30	C	0.828833	-0.112154	-0.000001
C31	C	0.891924	-0.157079	0.000003
C32	C	0.890852	-0.229903	-0.000010
C33	C	0.826686	-0.257799	-0.000010
C34	C	0.763587	-0.212864	-0.000017
C35	C	0.764660	-0.140041	-0.000013
N36	N	0.777632	-0.365804	0.042594
N37	N	0.776617	-0.434983	0.042592
C38	C	0.823448	-0.477207	-0.000025
N39	N	0.871344	-0.447641	-0.042630
N40	N	0.872361	-0.378456	-0.042624
C41	C	0.825515	-0.336761	-0.000015
C42	C	0.885381	-0.601097	-0.000036
C43	C	0.884307	-0.673922	-0.000053
C44	C	0.757040	-0.656880	-0.000053
C45	C	0.758116	-0.584057	-0.000044
C46	C	0.822289	-0.556170	-0.000032
C47	C	0.952154	0.087527	-0.000027
C48	C	1.029658	0.088666	-0.000033
C49	C	0.819000	0.220684	-0.000043
C50	C	0.820140	0.298188	-0.000054
N51	N	0.824465	0.093009	0.178131
N52	N	0.824514	0.093020	-0.178179
C53	C	0.872091	0.045420	0.217524
C54	C	0.872096	0.045417	0.296326
C55	C	0.824480	0.093014	0.335732
C56	C	0.776844	0.140607	0.296329
C57	C	0.776837	0.140604	0.217529
C58	C	0.815137	0.156630	0.460561
C59	C	0.815150	0.156634	0.539359
C60	C	0.824498	0.093023	0.578778
C61	C	0.833850	0.029405	0.539388
C62	C	0.833842	0.029402	0.460588
C63	C	0.824482	0.093022	0.421177
C64	C	0.872132	0.045426	0.703617
C65	C	0.872131	0.045422	0.782420
C66	C	0.776883	0.140618	0.782422
C67	C	0.776881	0.140616	0.703620
C68	C	0.824509	0.093021	0.664222
H69	H	0.051883	-0.026685	-0.000034
H70	H	0.738101	0.179370	0.671544
H71	H	0.910880	0.006663	0.328406
H72	H	0.464978	0.210765	-0.000023
H73	H	0.910912	0.006666	0.814495
H74	H	0.738111	0.179370	0.814505
O75	O	0.806028	0.218491	0.577502
C76	C	0.787512	0.344686	0.569156
C77	C	0.797818	0.274682	0.525868
H78	H	0.780887	0.390135	0.527429
H79	H	0.738705	0.346555	0.606045
H80	H	0.835370	0.349190	0.606050
H81	H	0.750001	0.270132	0.488933
H82	H	0.846653	0.272843	0.489027
H83	H	0.704794	-0.679592	-0.000057
O84	O	0.491476	-0.030193	-0.000143
C85	C	0.419128	-0.105243	-0.064974
C86	C	0.449812	-0.034652	-0.064929
H87	H	0.385424	-0.108865	-0.117340
H88	H	0.463724	-0.150180	-0.065016
H89	H	0.385480	-0.108923	-0.012560
H90	H	0.483452	-0.030903	-0.117334
H91	H	0.405182	0.010252	-0.064848
H92	H	0.597088	0.212713	-0.000037
O93	O	0.635036	-0.028115	-0.000142
C94	C	0.671860	-0.136573	-0.064966
C95	C	0.622438	-0.067158	-0.064924
H96	H	0.661682	-0.168165	-0.117328
H97	H	0.728713	-0.124827	-0.065014
H98	H	0.661738	-0.168137	-0.012548
H99	H	0.632497	-0.035559	-0.117332
H100	H	0.565601	-0.078954	-0.064836
O101	O	0.954321	-0.130107	-0.000024
C102	C	1.080436	-0.154698	0.000030
C103	C	1.009823	-0.185339	0.000043
H104	H	1.125328	-0.199338	0.000100
H105	H	1.084181	-0.121046	-0.052371
H106	H	1.084072	-0.121018	0.052411
H107	H	1.006139	-0.219052	-0.052303
H108	H	1.006108	-0.218952	0.052479
O109	O	0.947776	-0.574118	-0.000071
C110	C	1.073893	-0.598704	-0.000042
C111	C	1.003280	-0.629348	-0.000016
H112	H	1.118786	-0.643343	0.000019
H113	H	1.077627	-0.565050	-0.052443
H114	H	1.077536	-0.565025	0.052339
H115	H	0.999589	-0.663059	-0.052361
H116	H	0.999576	-0.662963	0.052420
H117	H	0.020968	0.204211	-0.000035
O118	O	0.952123	-0.273584	-0.000134
C119	C	1.024762	-0.365716	-0.064955
C120	C	0.955357	-0.316280	-0.064919
H121	H	1.027393	-0.400259	-0.117319
H122	H	1.070840	-0.333312	-0.064995
H123	H	1.027413	-0.400211	-0.012540
H124	H	0.952638	-0.281775	-0.117325
H125	H	0.909312	-0.348726	-0.064839
O126	O	0.806157	0.218384	0.422187
C127	C	0.855150	0.293906	0.333213
C128	C	0.865402	0.223946	0.376612
H129	H	0.903047	0.298433	0.296367
H130	H	0.806385	0.295741	0.296283
H131	H	0.848443	0.339364	0.374910
H132	H	0.872140	0.178449	0.334970
H133	H	0.914154	0.222173	0.413553
H134	H	0.713282	-0.103462	-0.000015
O135	O	0.701300	-0.240041	-0.000117
C136	C	0.626223	-0.312325	-0.065001
C137	C	0.696797	-0.281608	-0.064968
H138	H	0.622553	-0.345927	-0.117436
H139	H	0.622519	-0.346048	-0.012647
H140	H	0.581324	-0.267692	-0.064966
H141	H	0.741737	-0.326197	-0.065030
H142	H	0.700440	-0.247867	-0.117319
O143	O	0.157502	0.216222	-0.000162
C144	C	0.229889	0.291285	-0.064976
C145	C	0.199196	0.220699	-0.064940
H146	H	0.263617	0.294921	-0.117336
H147	H	0.185298	0.336227	-0.065024
H148	H	0.263515	0.294942	-0.012556
H149	H	0.165578	0.216973	-0.117351
H150	H	0.243820	0.175790	-0.064853
O151	O	0.696764	-0.540512	-0.000004
C152	C	0.570421	-0.531297	-0.000047
C153	C	0.639853	-0.580691	-0.000072
H154	H	0.524391	-0.563762	-0.000119
H155	H	0.567687	-0.496803	0.052359
H156	H	0.567788	-0.496751	-0.052423
H157	H	0.642533	-0.615281	0.052268
H158	H	0.642559	-0.615137	-0.052513
H159	H	0.738053	0.179357	0.185454
H160	H	0.935686	-0.710500	-0.000054
O161	O	0.918321	-0.000886	0.665350
C162	C	0.959659	-0.122374	0.641209
C163	C	0.907301	-0.070016	0.684593
H164	H	0.950778	-0.178277	0.656764
H165	H	0.951457	-0.114228	0.578119
H166	H	1.015546	-0.113371	0.656666
H167	H	0.851395	-0.078987	0.669199
H168	H	0.915566	-0.078174	0.747673
O169	O	0.918377	-0.000885	0.179372
C170	C	1.012878	-0.095275	0.187690
C171	C	0.960489	-0.042882	0.230994
H172	H	1.046949	-0.129234	0.229408
H173	H	0.982877	-0.130132	0.150839
H174	H	1.047627	-0.065205	0.150757
H175	H	0.925727	-0.072894	0.267968
H176	H	0.990533	-0.008026	0.267797
O177	O	0.842897	-0.032455	0.422441
C178	C	0.861478	-0.158648	0.430775
C179	C	0.851219	-0.088647	0.474070
H180	H	0.868224	-0.204097	0.472498
H181	H	0.813610	-0.163230	0.393921
H182	H	0.910250	-0.160435	0.393846
H183	H	0.802473	-0.086812	0.511040
H184	H	0.899124	-0.084094	0.510876
H185	H	0.738074	0.179360	0.328417
H186	H	0.183999	-0.024728	-0.000024
H187	H	0.841462	-0.022394	0.571481
