data_functionalizedCrystal
_audit_creation_method	'MofGen! by Chris Wilmer'
_symmetry_space_group_name_H-M	'P1'
_symmetry_Int_Tables_number	1
_symmetry_cell_setting	triclinic
loop_
_symmetry_equiv_pos_as_xyz
  x,y,z
_cell_length_a	15.995350
_cell_length_b	10.723024
_cell_length_c	9.198806
_cell_angle_alpha	90.003648
_cell_angle_beta	89.999047
_cell_angle_gamma	96.019878
loop_
_atom_site_label
_atom_site_type_symbol
_atom_site_fract_x
_atom_site_fract_y
_atom_site_fract_z
O1	O	0.117435	-1.655690	-0.120875
O2	O	0.128675	-1.292394	-0.120879
O3	O	0.001224	-1.483973	-0.120876
O4	O	0.244886	-1.464111	-0.120879
O5	O	0.001224	-1.483957	0.120909
O6	O	0.128675	-1.292379	0.120906
O7	O	0.117434	-1.655674	0.120910
Cu8	Cu	0.123055	-1.474025	0.142985
Cu9	Cu	0.123055	-1.474043	-0.142954
O10	O	0.244885	-1.464096	0.120906
C11	C	0.127857	-1.245897	0.000013
C12	C	0.125410	-1.107374	0.000011
C13	C	-0.029975	-1.483144	0.000014
C14	C	-0.122940	-1.480682	0.000006
C15	C	0.118252	-1.702171	0.000015
C16	C	0.120700	-1.840694	0.000007
C17	C	-0.460738	-1.471842	0.000011
C18	C	-0.414088	-1.335403	-0.000533
C19	C	-0.317383	-1.337865	0.000012
C20	C	-0.293152	-1.476227	0.000007
C21	C	-0.333843	-1.543515	0.138077
C22	C	-0.430499	-1.540087	0.138192
C23	C	-0.430840	-1.542923	-0.136763
C24	C	-0.333895	-1.542891	-0.138587
C25	C	-0.198441	-1.478712	0.000010
C26	C	-0.555450	-1.469360	0.000017
C27	C	0.276085	-1.464924	0.000013
C28	C	0.369049	-1.467386	0.000012
N29	N	0.123054	-1.474022	0.344099
C30	C	0.196725	-1.031482	0.000009
C31	C	0.194197	-0.888310	0.000007
N32	N	0.123049	-1.474056	-0.344068
C33	C	0.069305	-1.554463	0.416297
C34	C	0.069302	-1.554482	0.583709
H35	H	-0.289265	-1.284972	-0.098962
O36	O	0.271872	-1.080197	0.000071
C37	C	0.337690	-0.981835	0.000029
H38	H	0.313796	-0.893354	0.045802
H39	H	0.391612	-1.009142	0.070223
H40	H	0.360884	-0.963471	-0.115970
H41	H	-0.317954	-1.643790	-0.146927
O42	O	0.050263	-1.058658	0.000073
C43	C	-0.015555	-1.157021	0.000034
H44	H	0.008339	-1.245496	0.045810
H45	H	-0.069478	-1.129705	0.070228
H46	H	-0.038749	-1.175400	-0.115964
O47	O	-0.316259	-1.664755	0.144474
C48	C	-0.271906	-1.683904	0.273644
H49	H	-0.285442	-1.610240	0.357354
H50	H	-0.292809	-1.781382	0.318269
H51	H	-0.201604	-1.675575	0.249760
O52	O	0.047915	-0.918600	-0.000186
C53	C	0.044740	-0.994757	-0.125428
H54	H	0.111252	-1.001216	-0.167178
H55	H	0.014190	-1.092621	-0.097266
H56	H	0.006212	-0.952018	-0.213113
H57	H	0.169065	-1.405162	0.406225
H58	H	-0.432932	-1.280876	-0.099545
O59	O	-0.300254	-1.487567	0.260517
C60	C	-0.239946	-1.387666	0.221847
H61	H	-0.253498	-1.354430	0.107350
H62	H	-0.243035	-1.306981	0.301712
H63	H	-0.174540	-1.420801	0.225209
O64	O	0.014404	-1.636464	0.342001
C65	C	-0.037491	-1.569371	0.253956
H66	H	-0.004585	-1.471793	0.231357
H67	H	-0.050399	-1.621314	0.146838
H68	H	-0.099450	-1.560753	0.312475
H69	H	0.169072	-1.405188	0.593854
O70	O	-0.437975	-1.270699	0.116882
C71	C	-0.525487	-1.263979	0.111819
H72	H	-0.556316	-1.344104	0.042455
H73	H	-0.552297	-1.271841	0.226671
H74	H	-0.538613	-1.170561	0.062241
O75	O	-0.284589	-1.274169	0.118243
C76	C	-0.304025	-1.149035	0.112000
H77	H	-0.361820	-1.143574	0.040702
H78	H	-0.317451	-1.115156	0.226286
H79	H	-0.248523	-1.087189	0.063969
O80	O	0.014285	-1.636592	0.657611
C81	C	-0.068683	-1.615961	0.620558
H82	H	-0.068843	-1.567930	0.510018
H83	H	-0.109513	-1.709613	0.615488
H84	H	-0.094784	-1.553661	0.706204
H85	H	-0.462172	-1.640258	0.144454
O86	O	-0.452615	-1.481321	0.261210
C87	C	-0.411972	-1.358141	0.264171
H88	H	-0.394417	-1.326808	0.148735
H89	H	-0.456005	-1.292335	0.312960
H90	H	-0.352632	-1.355673	0.333211
H91	H	-0.451636	-1.498321	-0.241411
H92	H	-0.306929	-1.493695	-0.240727
H93	H	-0.462023	-1.643519	-0.137694
H94	H	0.255248	-0.823099	-0.000000
