data_functionalizedCrystal
_audit_creation_method	'MofGen! by Chris Wilmer'
_symmetry_space_group_name_H-M	'P1'
_symmetry_Int_Tables_number	1
_symmetry_cell_setting	triclinic
loop_
_symmetry_equiv_pos_as_xyz
  x,y,z
_cell_length_a	18.215407
_cell_length_b	10.686285
_cell_length_c	18.215399
_cell_angle_alpha	94.390852
_cell_angle_beta	90.019833
_cell_angle_gamma	85.632014
loop_
_atom_site_label
_atom_site_type_symbol
_atom_site_fract_x
_atom_site_fract_y
_atom_site_fract_z
Zn1	Zn	1.147639	-0.502344	0.393704
Zn2	Zn	1.157027	-0.713359	0.261223
Zn3	Zn	1.024574	-0.502385	0.270649
Zn4	Zn	1.034014	-0.713289	0.384251
O5	O	1.090813	-0.607844	0.327457
O6	O	1.251869	-0.530347	0.376141
O7	O	1.139435	-0.685420	0.159487
O8	O	1.033019	-0.325804	0.294874
O9	O	1.258767	-0.685380	0.278808
O10	O	1.123434	-0.325774	0.385281
O11	O	1.042122	-0.530418	0.166413
O12	O	0.922841	-0.530350	0.285708
O13	O	1.049109	-0.685260	0.488492
O14	O	0.929777	-0.685300	0.369171
O15	O	1.132588	-0.530279	0.495436
O16	O	1.148589	-0.889925	0.269642
O17	O	1.058212	-0.889873	0.360030
C18	C	0.899606	-0.607823	0.327437
C19	C	0.817808	-0.607844	0.327444
C20	C	1.105463	-0.935683	0.312804
C21	C	1.111798	-1.075934	0.306560
C22	C	0.633251	-0.688653	0.370839
C23	C	0.556392	-0.688657	0.370848
C24	C	0.549129	-0.527058	0.284090
C25	C	0.625986	-0.527049	0.284086
C26	C	0.668045	-0.607853	0.327459
C27	C	0.514330	-0.607867	0.327472
C28	C	0.430996	-0.607870	0.327482
C29	C	0.751384	-0.607848	0.327450
C30	C	1.282767	-0.607867	0.327478
C31	C	1.364567	-0.607876	0.327486
C32	C	1.090854	-0.607757	0.519414
C33	C	1.090872	-0.607720	0.601214
C34	C	1.076126	-0.278725	0.342183
C35	C	1.069867	-0.138474	0.348459
C36	C	1.090811	-0.607840	0.136251
C37	C	1.090920	-0.607521	0.054467
C38	C	1.134353	-0.526946	0.793029
C39	C	1.134360	-0.526909	0.869890
C40	C	1.047434	-0.688299	0.862646
C41	C	1.047423	-0.688328	0.785788
C42	C	1.090887	-0.607654	0.750981
C43	C	1.090905	-0.607588	0.904700
C44	C	1.090912	-0.607548	0.988036
C45	C	1.090879	-0.607691	0.667640
H46	H	0.667493	-0.754447	0.406158
H47	H	1.152540	-1.129693	0.265903
C48	C	1.181557	-0.439212	0.755378
C49	C	1.219608	-0.368499	0.808658
C50	C	1.263090	-0.287648	0.774004
H51	H	1.215834	-0.487349	0.723244
H52	H	1.150958	-0.384176	0.727870
H53	H	1.250204	-0.423528	0.836153
H54	H	1.185349	-0.320336	0.840794
H55	H	1.232492	-0.232612	0.746496
H56	H	1.297363	-0.335795	0.741871
H57	H	1.288908	-0.239652	0.810149
H58	H	1.169754	-0.461187	0.904122
H59	H	1.029123	-1.084722	0.389109
H60	H	1.012022	-0.754049	0.751551
H61	H	0.654316	-0.461244	0.248761
C62	C	0.518755	-0.776525	0.417967
C63	C	0.572042	-0.847305	0.455933
C64	C	0.537399	-0.928275	0.499341
H65	H	0.486636	-0.728472	0.452294
H66	H	0.491233	-0.831513	0.387324
H67	H	0.599551	-0.792324	0.486573
H68	H	0.604163	-0.895384	0.421624
H69	H	0.509878	-0.983263	0.468699
H70	H	0.505282	-0.880211	0.533665
H71	H	0.573550	-0.976316	0.525102
C72	C	0.503337	-0.439471	0.237022
C73	C	0.428582	-0.456793	0.246295
C74	C	0.386379	-0.376140	0.202939
H75	H	0.512057	-0.354662	0.251617
H76	H	0.516690	-0.457838	0.186719
H77	H	0.415233	-0.438417	0.296587
H78	H	0.419839	-0.541586	0.231695
H79	H	0.399732	-0.394508	0.152637
H80	H	0.395105	-0.291336	0.217538
H81	H	0.335654	-0.387891	0.209220
C82	C	1.000329	-0.775844	0.900573
C83	C	1.009656	-0.758572	0.976882
C84	C	0.966282	-0.839212	1.011841
H85	H	0.950029	-0.757460	0.888880
H86	H	1.014891	-0.860657	0.884224
H87	H	0.995089	-0.673778	0.993225
H88	H	1.059946	-0.776965	0.988596
H89	H	0.980845	-0.924025	0.995492
H90	H	0.915985	-0.820820	1.000143
H91	H	0.972610	-0.827512	1.063619
