data_functionalizedCrystal
_audit_creation_method	'MofGen! by Chris Wilmer'
_symmetry_space_group_name_H-M	'P1'
_symmetry_Int_Tables_number	1
_symmetry_cell_setting	triclinic
loop_
_symmetry_equiv_pos_as_xyz
  x,y,z
_cell_length_a	27.440280
_cell_length_b	23.196402
_cell_length_c	23.196402
_cell_angle_alpha	60.000138
_cell_angle_beta	90.003526
_cell_angle_gamma	59.998982
loop_
_atom_site_label
_atom_site_type_symbol
_atom_site_fract_x
_atom_site_fract_y
_atom_site_fract_z
Zr1	Zr	0.469515	0.630936	-0.075559
O2	O	0.391698	0.751216	-0.167618
O3	O	0.493368	0.510666	-0.047341
O4	O	0.493370	0.630936	-0.167608
O5	O	0.391698	0.630942	0.047521
O6	O	0.573572	0.630925	-0.167596
O7	O	0.391696	0.630945	-0.047351
O8	O	0.573570	0.415784	0.047539
O9	O	0.391700	0.846083	-0.167614
O10	O	0.563398	0.560123	-0.035294
O11	O	0.503545	0.560128	0.035500
O12	O	0.503546	0.701731	-0.106099
O13	O	0.443693	0.701736	-0.035305
Zr14	Zr	0.597431	0.630912	0.075771
Zr15	Zr	0.597429	0.630918	-0.075540
Zr16	Zr	0.469517	0.630930	0.075752
Zr17	Zr	0.469519	0.782238	-0.075552
Zr18	Zr	0.597428	0.479609	0.075765
O19	O	0.573578	0.751182	0.047554
O20	O	0.573575	0.751190	-0.167591
O21	O	0.391700	0.751207	0.047527
O22	O	0.675249	0.510632	0.167830
O23	O	0.675246	0.510641	-0.047314
O24	O	0.493371	0.510657	0.167803
O25	O	0.675249	0.630906	-0.047309
O26	O	0.573577	0.630911	0.167820
O27	O	0.493374	0.630922	0.167808
O28	O	0.675250	0.630902	0.047563
O29	O	0.493375	0.846069	-0.167599
O30	O	0.573572	0.415779	0.167811
O31	O	0.675246	0.415765	0.167826
O32	O	0.675245	0.415770	0.047554
O33	O	0.391701	0.846078	-0.047342
O34	O	0.493376	0.846064	-0.047327
O35	O	0.563400	0.560117	0.106311
O36	O	0.623254	0.560112	0.035518
O37	O	0.563402	0.701720	-0.035288
O38	O	0.503548	0.701725	0.035506
C39	C	0.533469	0.441668	0.000098
C40	C	0.533467	0.377436	0.000095
C41	C	0.564706	0.347263	-0.036861
C42	C	0.564712	0.286902	-0.036855
C43	C	0.533467	0.256728	0.000097
C44	C	0.502227	0.286905	0.037061
C45	C	0.502227	0.347259	0.037060
C46	C	0.481134	0.194706	-0.005185
C47	C	0.481132	0.134356	-0.005189
C48	C	0.533468	0.070573	0.000104
C49	C	0.585805	0.067154	0.005388
C50	C	0.585805	0.127508	0.005387
C51	C	0.533464	0.191283	0.000103
C52	C	0.564716	-0.025052	-0.036847
C53	C	0.564723	-0.085417	-0.036837
C54	C	0.502233	-0.085407	0.037075
C55	C	0.502231	-0.025048	0.037069
C56	C	0.533471	0.005129	0.000104
C57	C	0.373472	0.630946	0.000082
C58	C	0.319169	0.630954	0.000074
C59	C	0.013714	0.556992	0.037085
C60	C	-0.037305	0.556988	0.037091
O61	O	-0.037123	0.494124	0.068546
N62	N	-0.094064	0.630905	0.000131
C63	C	-0.099804	0.704832	-0.036832
O64	O	-0.152766	0.767703	-0.068268
C65	C	-0.048786	0.704835	-0.036834
C66	C	0.007973	0.630913	0.000123
C67	C	0.070469	0.483077	0.074040
C68	C	0.121484	0.483081	0.074032
C69	C	0.115743	0.557002	0.037070
C70	C	0.058987	0.630918	0.000116
C71	C	-0.054526	0.778761	-0.073792
C72	C	-0.003502	0.778758	-0.073790
C73	C	0.053256	0.704836	-0.036833
C74	C	0.104261	0.704844	-0.036854
N75	N	0.161020	0.630926	0.000107
C76	C	0.166761	0.557006	0.037069
C77	C	-0.206942	0.704818	-0.036824
C78	C	-0.257960	0.704815	-0.036827
C79	C	-0.195457	0.556972	0.037097
C80	C	-0.144439	0.556975	0.037096
C81	C	-0.150183	0.630901	0.000136
C82	C	0.273894	0.557021	0.037050
C83	C	0.324910	0.557033	0.037036
C84	C	0.262404	0.704876	-0.036885
C85	C	0.211391	0.704865	-0.036875
C86	C	0.217140	0.630931	0.000097
O87	O	0.104125	0.767676	-0.068289
O88	O	0.219725	0.494144	0.068507
C89	C	0.693474	0.630902	0.000130
C90	C	0.747777	0.630894	0.000138
C91	C	0.533471	0.630932	-0.189161
C92	C	0.533470	0.630934	-0.253396
C93	C	0.533478	0.820180	0.000114
C94	C	0.533479	0.884412	0.000117
C95	C	0.502240	0.704831	-0.753181
C96	C	0.502235	0.704835	-0.692829
C97	C	0.533478	0.630918	-0.625687
C98	C	0.564715	0.556991	-0.618900
C99	C	0.564715	0.556989	-0.679252
C100	C	0.585812	0.574286	-0.501749
C101	C	0.585814	0.574292	-0.441399
C102	C	0.533479	0.630923	-0.439538
C103	C	0.481142	0.687563	-0.498042
C104	C	0.481142	0.687560	-0.558394
C105	C	0.533482	0.630913	-0.560241
C106	C	0.502235	0.704851	-0.380889
C107	C	0.502228	0.704852	-0.320534
C108	C	0.564714	0.557006	-0.246605
C109	C	0.564715	0.557006	-0.306960
C110	C	0.533476	0.630931	-0.374100
C111	C	0.533476	0.630916	0.189373
C112	C	0.533476	0.630913	0.253608
C113	C	0.693470	0.441645	0.000122
C114	C	0.747771	0.377406	0.000127
C115	C	0.533471	0.441660	0.189365
C116	C	0.533471	0.377425	0.253598
C117	C	0.693472	0.441638	0.189389
C118	C	0.747775	0.377396	0.253629
C119	C	0.373474	0.820210	-0.189176
C120	C	0.319172	0.884452	-0.253417
C121	C	0.373476	0.820202	0.000091
C122	C	0.319175	0.884442	0.000085
C123	C	0.533475	0.820188	-0.189153
C124	C	0.533476	0.884422	-0.253385
C125	C	0.742028	0.347244	-0.036840
C126	C	0.793045	0.286893	-0.036849
C127	C	0.849805	0.256700	0.000113
C128	C	0.855547	0.286868	0.037081
C129	C	0.804531	0.347222	0.037086
C130	C	0.564714	0.347254	0.320731
C131	C	0.564711	0.286908	0.381090
C132	C	0.533468	0.256729	0.374314
C133	C	0.502221	0.286906	0.307174
C134	C	0.502220	0.347256	0.246816
C135	C	0.804524	0.347224	0.246844
C136	C	0.855552	0.286870	0.307199
C137	C	0.849829	0.256685	0.374339
C138	C	0.793073	0.286862	0.381123
C139	C	0.742047	0.347219	0.320768
C140	C	0.262422	0.914631	-0.246632
C141	C	0.211395	0.975004	-0.306987
C142	C	0.217118	1.005192	-0.374127
C143	C	0.273873	0.975011	-0.380911
C144	C	0.324899	0.914643	-0.320556
C145	C	0.324918	0.914610	0.037046
C146	C	0.273901	0.974978	0.037038
C147	C	0.217141	1.005172	0.000074
C148	C	0.211399	0.975002	-0.036891
C149	C	0.262416	0.914639	-0.036887
C150	C	0.564725	0.914582	-0.246587
C151	C	0.564737	0.974929	-0.306934
C152	C	0.533496	1.005120	-0.374080
C153	C	0.502246	0.974954	-0.380877
C154	C	0.502238	0.914604	-0.320530
H155	H	0.590145	0.371829	-0.066958
F156	F	0.162805	1.069440	-0.438356
F157	F	0.533509	1.069352	-0.438301
F158	F	0.468987	0.783526	-0.452346
F159	F	0.786992	0.254729	0.452584
H160	H	0.476810	0.999545	-0.435555
H161	H	0.628431	0.528162	-0.503251
H162	H	0.438509	0.246648	-0.009510
H163	H	0.809215	0.371772	0.067192
H164	H	0.476788	0.890055	-0.326075
F165	F	0.641514	0.514009	-0.379140
H166	H	0.371106	0.890072	-0.326089
F167	F	0.385322	0.882487	0.076389
F168	F	-0.114924	0.857440	-0.113122
H169	H	0.891341	0.207555	0.000104
F170	F	0.256294	0.882534	-0.076223
H171	H	0.590156	-0.000483	-0.066944
F172	F	0.280025	1.007074	0.076385
F173	F	0.597967	0.254776	-0.076184
F174	F	0.681652	0.379320	0.328001
H175	H	0.590156	0.371819	0.326261
H176	H	-0.008186	0.838959	-0.103879
F177	F	0.915960	0.254724	0.076418
F178	F	0.162850	1.069416	0.000077
F179	F	0.786921	0.254795	-0.076194
F180	F	0.597972	0.254800	0.452539
H181	H	0.628420	0.124719	0.009690
F182	F	0.150986	1.007144	-0.076226
H183	H	0.165175	0.765059	-0.066978
H184	H	0.257751	0.890055	-0.191968
H185	H	0.590165	-0.109988	-0.066928
H186	H	0.809195	0.371792	0.192181
H187	H	0.628424	0.015214	0.009707
F188	F	0.597979	0.882461	-0.175131
F189	F	0.468979	-0.117516	0.076403
F190	F	0.150998	1.007112	-0.299752
F191	F	0.468977	0.379372	0.076396
H192	H	0.590153	0.496815	-0.301429
H193	H	0.438515	0.137149	-0.009495
F194	F	0.468980	0.007067	0.076401
F195	F	0.468978	0.254786	0.076393
H196	H	0.533473	0.207588	0.423467
F197	F	0.468972	0.254779	0.299974
H198	H	0.695816	0.371827	-0.066947
F199	F	0.468968	0.379356	0.175369
H200	H	0.901759	0.262306	0.301663
F201	F	-0.084036	0.478298	0.076431
F202	F	0.597997	1.007026	-0.299686
H203	H	0.371125	0.496834	0.067133
H204	H	0.590151	0.496794	-0.673718
F205	F	0.280020	0.478333	0.076399
H206	H	0.167695	0.422886	0.104123
F207	F	0.076592	0.404393	0.113386
F208	F	0.279954	1.007146	-0.452372
H209	H	-0.304171	0.765010	-0.066930
F210	F	-0.189355	0.478298	0.076436
F211	F	-0.213064	0.783506	-0.076170
H212	H	0.257739	0.765061	-0.066981
H213	H	0.891382	0.207538	0.423478
H214	H	0.476803	0.765026	-0.807845
F215	F	0.597963	0.478323	-0.547442
H216	H	0.438527	0.733676	-0.606025
F217	F	0.425440	0.747841	-0.496070
F218	F	0.468968	0.783530	-0.327765
F219	F	0.468996	0.783512	-0.700052
H220	H	0.590148	0.496821	-0.191938
