data_functionalizedCrystal
_audit_creation_method	'MofGen! by Chris Wilmer'
_symmetry_space_group_name_H-M	'P1'
_symmetry_Int_Tables_number	1
_symmetry_cell_setting	triclinic
loop_
_symmetry_equiv_pos_as_xyz
  x,y,z
_cell_length_a	15.297475
_cell_length_b	18.215405
_cell_length_c	18.215399
_cell_angle_alpha	89.969030
_cell_angle_beta	80.315913
_cell_angle_gamma	80.326851
loop_
_atom_site_label
_atom_site_type_symbol
_atom_site_fract_x
_atom_site_fract_y
_atom_site_fract_z
Zn1	Zn	1.379199	-0.487993	-0.610455
Zn2	Zn	1.879199	0.012007	-0.110455
Zn3	Zn	1.379088	-0.611049	-0.487368
Zn4	Zn	1.879088	-0.111049	0.012632
Zn5	Zn	1.228334	-0.466686	-0.466143
Zn6	Zn	1.728334	0.033314	0.033857
Zn7	Zn	1.228291	-0.589685	-0.589143
Zn8	Zn	1.728291	-0.089685	-0.089143
O9	O	1.303728	-0.538853	-0.538277
O10	O	1.803728	-0.038853	-0.038277
O11	O	1.505430	-0.522174	-0.611930
O12	O	2.005430	-0.022174	-0.111930
O13	O	1.359062	-0.591923	-0.381564
O14	O	1.859062	-0.091923	0.118436
O15	O	1.248411	-0.366537	-0.485323
O16	O	1.748411	0.133463	0.014677
O17	O	1.505349	-0.612583	-0.521498
O18	O	2.005349	-0.112583	-0.021498
O19	O	1.359251	-0.382191	-0.591349
O20	O	1.859251	0.117809	-0.091349
O21	O	1.248304	-0.485860	-0.365971
O22	O	1.748304	0.014140	0.134029
O23	O	1.102082	-0.465144	-0.464658
O24	O	1.602082	0.034856	0.035342
O25	O	1.248338	-0.576172	-0.694958
O26	O	1.748338	-0.076172	-0.194958
O27	O	1.102050	-0.555511	-0.555025
O28	O	1.602050	-0.055511	-0.055025
O29	O	1.359209	-0.501458	-0.710617
O30	O	1.859209	-0.001458	-0.210617
O31	O	1.359020	-0.711190	-0.500832
O32	O	1.859020	-0.211190	-0.000832
O33	O	1.248230	-0.695494	-0.575606
O34	O	1.748230	-0.195494	-0.075606
C35	C	1.303633	-0.730046	-0.538229
C36	C	1.803633	-0.230046	-0.038229
C37	C	1.303674	-0.811851	-0.538244
C38	C	1.803674	-0.311851	-0.038244
C39	C	1.069332	-0.505698	-0.505226
C40	C	1.569332	-0.005698	-0.005226
C41	C	0.969056	-0.491532	-0.491104
C42	C	1.469056	0.008468	0.008896
C43	C	1.361498	-1.008212	-0.499415
C44	C	1.861498	-0.508212	0.000585
C45	C	1.361538	-1.085077	-0.499439
C46	C	1.861538	-0.585077	0.000561
C47	C	1.246073	-1.068758	-0.577209
C48	C	1.746073	-0.568758	-0.077209
C49	C	1.246038	-0.991896	-0.577189
C50	C	1.746038	-0.491896	-0.077189
C51	C	1.303749	-0.961625	-0.538288
C52	C	1.803749	-0.461625	-0.038288
C53	C	1.303825	-1.115352	-0.538331
C54	C	1.803825	-0.615352	-0.038331
C55	C	1.303868	-1.198691	-0.538357
C56	C	1.803868	-0.698691	-0.038357
C57	C	1.303707	-0.878280	-0.538263
C58	C	1.803707	-0.378280	-0.038263
C59	C	0.686430	-0.640106	-0.639212
C60	C	1.186430	-0.140106	-0.139212
C61	C	0.780644	-0.653422	-0.652479
C62	C	1.280644	-0.153422	-0.152479
C63	C	0.827752	-0.612950	-0.612136
C64	C	1.327752	-0.112950	-0.112136
C65	C	0.780636	-0.559162	-0.558525
C66	C	1.280636	-0.059162	-0.058525
C67	C	0.686413	-0.545849	-0.545253
C68	C	1.186413	-0.045849	-0.045253
C69	C	0.827735	-0.518693	-0.518177
C70	C	1.327735	-0.018693	-0.018177
C71	C	0.780619	-0.464904	-0.464566
C72	C	1.280619	0.035096	0.035434
C73	C	0.686405	-0.451594	-0.451297
C74	C	1.186405	0.048406	0.048703
C75	C	0.639298	-0.492065	-0.491639
C76	C	1.139298	0.007935	0.008361
C77	C	0.921958	-0.532005	-0.531449
C78	C	1.421958	-0.032005	-0.031449
C79	C	0.921941	-0.437748	-0.437490
C80	C	1.421941	0.062252	0.062510
C81	C	0.827727	-0.424433	-0.424223
C82	C	1.327727	0.075567	0.075777
C83	C	1.539039	-0.572138	-0.571458
C84	C	2.039039	-0.072138	-0.071458
C85	C	1.639315	-0.586322	-0.585598
C86	C	2.139315	-0.086322	-0.085598
C87	C	1.303781	-0.538809	-0.730238
C88	C	1.803781	-0.038809	-0.230238
C89	C	1.303803	-0.538790	-0.812040
C90	C	1.803803	-0.038790	-0.312040
C91	C	1.303848	-0.346917	-0.538346
C92	C	1.803848	0.153083	-0.038346
C93	C	1.303899	-0.265126	-0.538375
C94	C	1.803899	0.234874	-0.038375
C95	C	1.361567	-0.499828	-1.085257
C96	C	1.861567	0.000172	-0.585257
C97	C	1.361557	-0.499846	-1.008397
C98	C	1.861557	0.000154	-0.508397
C99	C	1.246113	-0.577655	-0.992082
C100	C	1.746113	-0.077655	-0.492082
C101	C	1.246129	-0.577641	-1.068942
C102	C	1.746129	-0.077641	-0.568942
C103	C	1.303855	-0.538722	-1.115527
C104	C	1.803855	-0.038722	-0.615527
C105	C	1.303828	-0.538755	-0.961807
C106	C	1.803828	-0.038755	-0.461807
C107	C	1.303816	-0.538776	-0.878472
C108	C	1.803816	-0.038776	-0.378472
C109	C	1.303868	-0.538703	-1.198868
C110	C	1.803868	-0.038703	-0.698868
C111	C	1.303727	-0.538852	-0.347071
C112	C	1.803727	-0.038852	0.152929
C113	C	1.303879	-0.538688	-0.265294
C114	C	1.803879	-0.038688	0.234706
H115	H	1.408491	-0.983568	-0.467740
H116	H	1.908491	-0.483568	0.032260
C117	C	1.425063	-1.136320	-0.456671
C118	C	1.925063	-0.636320	0.043329
N119	N	1.472912	-1.174916	-0.424457
N120	N	1.972912	-0.674916	0.075543
C121	C	0.535656	-0.477410	-0.477060
C122	C	1.035656	0.022590	0.022940
N123	N	0.457592	-0.466370	-0.466084
N124	N	0.957592	0.033630	0.033916
H125	H	0.960310	-0.575800	-0.575100
H126	H	1.460310	-0.075800	-0.075100
C127	C	0.973755	-0.393224	-0.393112
C128	C	1.473755	0.106776	0.106888
N129	N	1.012788	-0.359693	-0.359689
N130	N	1.512788	0.140307	0.140311
H131	H	1.199086	-1.093415	-0.608880
H132	H	1.699086	-0.593415	-0.108880
C133	C	1.182525	-0.940649	-0.619973
C134	C	1.682525	-0.440649	-0.119973
N135	N	1.134697	-0.902051	-0.652204
N136	N	1.634697	-0.402051	-0.152204
C137	C	0.634581	-0.392426	-0.392321
C138	C	1.134581	0.107574	0.107679
N139	N	0.595548	-0.347858	-0.347902
N140	N	1.095548	0.152142	0.152098
H141	H	1.408553	-0.468175	-0.983755
H142	H	1.908553	0.031825	-0.483755
C143	C	0.634606	-0.684621	-0.683580
C144	C	1.134606	-0.184621	-0.183580
N145	N	0.595570	-0.718152	-0.717000
N146	N	1.095570	-0.218152	-0.217000
C147	C	1.182609	-0.620454	-0.940831
C148	C	1.682609	-0.120454	-0.440831
N149	N	1.134773	-0.652688	-0.902228
N150	N	1.634773	-0.152688	-0.402228
H151	H	1.199131	-0.609317	-1.093588
H152	H	1.699131	-0.109317	-0.593588
H153	H	0.904465	-0.623795	-0.622941
H154	H	1.404465	-0.123795	-0.122941
C155	C	0.832464	-0.712589	-0.711448
C156	C	1.332464	-0.212589	-0.211448
N157	N	0.871496	-0.757157	-0.755867
N158	N	1.371496	-0.257157	-0.255867
C159	C	1.425075	-0.457024	-1.136499
C160	C	1.925075	0.042976	-0.636499
N161	N	1.472914	-0.424785	-1.175093
N162	N	1.972914	0.075215	-0.675093
H163	H	0.789352	-0.380638	-0.380572
H164	H	1.289352	0.119362	0.119428
