data_functionalizedCrystal
_audit_creation_method	'MofGen! by Chris Wilmer'
_symmetry_space_group_name_H-M	'P1'
_symmetry_Int_Tables_number	1
_symmetry_cell_setting	triclinic
loop_
_symmetry_equiv_pos_as_xyz
  x,y,z
_cell_length_a	19.288864
_cell_length_b	16.109301
_cell_length_c	18.366186
_cell_angle_alpha	89.992337
_cell_angle_beta	89.977106
_cell_angle_gamma	83.298863
loop_
_atom_site_label
_atom_site_type_symbol
_atom_site_fract_x
_atom_site_fract_y
_atom_site_fract_z
O1	O	0.921600	0.103716	-0.060785
O2	O	1.421600	0.603716	0.439215
O3	O	0.719373	0.117707	-0.060736
O4	O	1.219373	0.617707	0.439264
O5	O	0.826042	-0.010339	-0.060755
O6	O	1.326042	0.489661	0.439245
O7	O	0.814931	0.231761	-0.060767
O8	O	1.314931	0.731761	0.439233
O9	O	0.826024	-0.010345	0.060345
O10	O	1.326024	0.489655	0.560345
O11	O	0.719355	0.117701	0.060363
O12	O	1.219355	0.617701	0.560363
O13	O	0.921582	0.103710	0.060314
O14	O	1.421582	0.603710	0.560314
Zn15	Zn	0.820466	0.110704	0.079566
Zn16	Zn	1.320466	0.610704	0.579566
Zn17	Zn	0.820490	0.110712	-0.079988
Zn18	Zn	1.320490	0.610712	0.420012
O19	O	0.814913	0.231755	0.060333
O20	O	1.314913	0.731755	0.560333
C21	C	0.693487	0.117254	-0.000180
C22	C	1.193487	0.617254	0.499820
C23	C	0.616380	0.115902	-0.000161
C24	C	1.116380	0.615902	0.499839
C25	C	0.571863	0.191034	-0.000176
C26	C	1.071863	0.691034	0.499824
C27	C	0.499413	0.189764	-0.000184
C28	C	0.999413	0.689764	0.499816
C29	C	0.471483	0.113359	-0.000191
C30	C	0.971483	0.613359	0.499809
C31	C	0.516009	0.038218	-0.000172
C32	C	1.016009	0.538218	0.499828
C33	C	0.588458	0.039489	-0.000157
C34	C	1.088458	0.539489	0.499843
C35	C	0.363084	0.053298	-0.042639
C36	C	0.863084	0.553298	0.457361
C37	C	0.290636	0.052029	-0.042659
C38	C	0.790636	0.552029	0.457341
C39	C	0.248028	0.109433	-0.000235
C40	C	0.748028	0.609433	0.499765
C41	C	0.277874	0.168120	0.042199
C42	C	0.777874	0.668120	0.542199
C43	C	0.350323	0.169391	0.042214
C44	C	0.850323	0.669391	0.542214
C45	C	0.392925	0.111971	-0.000207
C46	C	0.892925	0.611971	0.499793
C47	C	0.124952	0.183193	-0.000258
C48	C	0.624952	0.683193	0.499742
C49	C	0.052501	0.181920	-0.000262
C50	C	0.552501	0.681920	0.499738
C51	C	0.069099	0.030372	-0.000257
C52	C	0.569099	0.530372	0.499743
C53	C	0.141548	0.031647	-0.000246
C54	C	0.641548	0.531647	0.499754
C55	C	0.169470	0.108060	-0.000250
C56	C	0.669470	0.608060	0.499750
C57	C	0.825583	-0.041315	-0.000205
C58	C	1.325583	0.458685	0.499795
C59	C	0.824234	-0.133606	-0.000203
C60	C	1.324234	0.366394	0.499797
C61	C	0.884391	-0.356084	-0.000229
C62	C	1.384391	0.143916	0.499771
C63	C	0.883118	-0.442800	-0.000235
C64	C	1.383118	0.057200	0.499765
C65	C	0.756559	-0.422493	-0.000201
C66	C	1.256559	0.077507	0.499799
C67	C	0.757833	-0.335778	-0.000201
C68	C	1.257833	0.164222	0.499799
C69	C	0.821751	-0.302577	-0.000211
C70	C	1.321751	0.197423	0.499789
C71	C	0.819204	-0.476007	-0.000217
C72	C	1.319204	0.023993	0.499783
C73	C	0.817823	-0.570028	-0.000223
C74	C	1.317823	-0.070028	0.499777
C75	C	0.823133	-0.208549	-0.000206
C76	C	1.323133	0.291451	0.499794
C77	C	0.947469	0.104163	-0.000244
C78	C	1.447469	0.604163	0.499756
C79	C	1.024576	0.105514	-0.000268
C80	C	1.524576	0.605514	0.499732
C81	C	0.815372	0.262732	-0.000219
C82	C	1.315372	0.762732	0.499781
C83	C	0.816722	0.355022	-0.000225
C84	C	1.316722	0.855022	0.499775
N85	N	0.820455	0.110698	0.188457
N86	N	1.320455	0.610698	0.688457
N87	N	0.820506	0.110712	-0.188879
N88	N	1.320506	0.610712	0.311121
C89	C	0.867703	0.054027	0.226549
C90	C	1.367703	0.554027	0.726549
C91	C	0.867707	0.054023	0.302777
C92	C	1.367707	0.554023	0.802777
C93	C	0.820470	0.110705	0.340910
C94	C	1.320470	0.610705	0.840910
C95	C	0.773213	0.167380	0.302808
C96	C	1.273213	0.667380	0.802808
C97	C	0.773205	0.167377	0.226582
C98	C	1.273205	0.667377	0.726582
C99	C	0.811353	0.186459	0.461668
C100	C	1.311353	0.686459	0.961668
C101	C	0.811365	0.186463	0.537893
C102	C	1.311365	0.686463	1.037893
C103	C	0.820490	0.110715	0.576017
C104	C	1.320490	0.610715	1.076017
C105	C	0.829616	0.034960	0.537908
C106	C	1.329616	0.534960	1.037908
C107	C	0.829609	0.034956	0.461681
C108	C	1.329609	0.534956	0.961681
C109	C	0.820473	0.110715	0.423564
C110	C	1.320473	0.610715	0.923564
C111	C	0.867746	0.054036	0.696764
C112	C	1.367746	0.554036	1.196764
C113	C	0.867745	0.054031	0.772993
C114	C	1.367745	0.554031	1.272993
C115	C	0.773254	0.167395	0.773023
C116	C	1.273254	0.667395	1.273023
C117	C	0.773251	0.167392	0.696796
C118	C	1.273251	0.667392	1.196796
C119	C	0.820500	0.110714	0.658671
C120	C	1.320500	0.610714	1.158671
H121	H	0.397770	0.006551	-0.077190
H122	H	0.897770	0.506551	0.422810
H123	H	0.734789	0.213542	0.804071
H124	H	1.234789	0.713542	1.304071
C125	C	0.721239	0.229714	0.344748
C126	C	1.221239	0.729714	0.844748
H127	H	0.693089	0.263457	0.311141
H128	H	1.193089	0.763457	0.811141
H129	H	0.746202	0.264257	0.374472
H130	H	1.246202	0.764257	0.874472
H131	H	0.692342	0.199872	0.374496
H132	H	1.192342	0.699872	0.874496
C133	C	0.954698	-0.319564	-0.000249
C134	C	1.454698	0.180436	0.499751
H135	H	0.991821	-0.363854	-0.000267
H136	H	1.491821	0.136146	0.499733
H137	H	0.957824	-0.286165	0.041980
H138	H	1.457824	0.213835	0.541980
H139	H	0.957829	-0.286154	-0.042486
H140	H	1.457829	0.213846	0.457514
H141	H	0.374621	0.217173	0.076768
H142	H	0.874621	0.717173	0.576768
C143	C	0.839637	-0.048366	0.419761
C144	C	1.339637	0.451634	0.919761
H145	H	0.845167	-0.093480	0.453377
H146	H	1.345167	0.406520	0.953377
H147	H	0.880018	-0.050123	0.389921
H148	H	1.380018	0.449877	0.889921
H149	H	0.799897	-0.052904	0.390129
H150	H	1.299897	0.447096	0.890129
H151	H	0.147687	0.245413	-0.000251
H152	H	0.647687	0.745413	0.499749
C153	C	0.952021	-0.501658	-0.000258
C154	C	1.452021	-0.001658	0.499742
H155	H	0.942110	-0.558058	-0.000266
H156	H	1.442110	-0.058058	0.499734
H157	H	0.978227	-0.491629	0.041964
H158	H	1.478227	0.008371	0.541964
H159	H	0.978230	-0.491607	-0.042501
H160	H	1.478230	0.008393	0.457499
H161	H	0.803910	0.248146	0.430633
H162	H	1.303910	0.748146	0.930633
H163	H	0.734779	0.213542	0.665779
H164	H	1.234779	0.713542	1.165779
C165	C	0.839658	-0.048370	0.579831
C166	C	1.339658	0.451630	1.079831
H167	H	0.845099	-0.093483	0.546217
H168	H	1.345099	0.406517	1.046217
H169	H	0.799978	-0.052867	0.609589
H170	H	1.299978	0.447133	1.109589
H171	H	0.880109	-0.050169	0.609544
H172	H	1.380109	0.449831	1.109544
C173	C	0.919706	-0.008316	0.654820
C174	C	1.419706	0.491684	1.154820
H175	H	0.912941	-0.000195	0.603966
H176	H	1.412941	0.499805	1.103966
H177	H	0.912176	-0.063780	0.667325
H178	H	1.412176	0.436220	1.167325
H179	H	0.966063	0.000573	0.667287
H180	H	1.466063	0.500573	1.167287
C181	C	0.231014	0.231272	0.088863
C182	C	0.731014	0.731272	0.588863
H183	H	0.183593	0.222107	0.082783
H184	H	0.683593	0.722107	0.582783
H185	H	0.236873	0.286486	0.073943
H186	H	0.736873	0.786486	0.573943
H187	H	0.243660	0.224171	0.138655
H188	H	0.743660	0.724171	0.638655
H189	H	0.177795	-0.029534	-0.000238
H190	H	0.677795	0.470466	0.499762
H191	H	0.046359	-0.031839	-0.000308
H192	H	0.546359	0.468161	0.499692
H193	H	0.594592	0.253255	-0.000181
H194	H	1.094592	0.753255	0.499819
H195	H	0.266341	0.004247	-0.077214
H196	H	0.766341	0.504247	0.422786
H197	H	0.704519	-0.449537	-0.000191
H198	H	1.204519	0.050463	0.499809
C199	C	0.688926	-0.276916	-0.000179
C200	C	1.188926	0.223084	0.499821
H201	H	0.650676	-0.309108	-0.000162
H202	H	1.150676	0.190892	0.499838
H203	H	0.686798	-0.242660	-0.042407
H204	H	1.186798	0.257340	0.457593
H205	H	0.686790	-0.242675	0.042058
H206	H	1.186790	0.257325	0.542058
C207	C	0.003531	0.264569	-0.000278
C208	C	0.503531	0.764569	0.499722
H209	H	0.030540	0.310256	-0.000285
H210	H	0.530540	0.810256	0.499715
H211	H	-0.025099	0.267227	0.041946
H212	H	0.474901	0.767227	0.541946
H213	H	-0.025052	0.267219	-0.042519
H214	H	0.474948	0.767219	0.457481
C215	C	0.450435	0.272411	-0.000212
C216	C	0.950435	0.772411	0.499788
H217	H	0.477441	0.318101	-0.000218
H218	H	0.977441	0.818101	0.499782
H219	H	0.421798	0.275072	0.042008
H220	H	0.921798	0.775072	0.542008
H221	H	0.421859	0.275053	-0.042458
H222	H	0.921859	0.775053	0.457542
C223	C	0.919668	-0.008325	0.184615
C224	C	1.419668	0.491675	0.684615
H225	H	0.947804	-0.042082	0.218224
H226	H	1.447804	0.457918	0.718224
H227	H	0.948569	0.021490	0.154856
H228	H	1.448569	0.521490	0.654856
H229	H	0.894684	-0.042865	0.154903
H230	H	1.394684	0.457135	0.654903
H231	H	0.906184	0.007874	0.333797
H232	H	1.406184	0.507874	0.833797
C233	C	0.919723	-0.008309	0.814895
C234	C	1.419723	0.491691	1.314895
H235	H	0.947864	-0.042056	0.781269
H236	H	1.447864	0.457944	1.281269
H237	H	0.894755	-0.042847	0.844649
H238	H	1.394755	0.457153	1.344649
H239	H	0.948627	0.021523	0.844611
H240	H	1.448627	0.521523	1.344611
H241	H	0.803938	0.248148	0.568916
H242	H	1.303938	0.748148	1.068916
H243	H	0.493264	-0.023992	-0.000188
H244	H	0.993264	0.476008	0.499812
C245	C	0.721234	0.229723	0.184679
C246	C	1.221234	0.729723	0.684679
H247	H	0.693103	0.263484	0.218304
H248	H	1.193103	0.763484	0.718304
H249	H	0.692329	0.199904	0.154959
H250	H	1.192329	0.699904	0.654959
H251	H	0.746214	0.264259	0.154929
H252	H	1.246214	0.764259	0.654929
C253	C	0.637429	-0.043159	-0.000149
C254	C	1.137429	0.456841	0.499851
H255	H	0.610421	-0.088847	-0.000158
H256	H	1.110421	0.411153	0.499842
H257	H	0.666017	-0.045817	0.042084
H258	H	1.166017	0.454183	0.542084
H259	H	0.666054	-0.045806	-0.042381
H260	H	1.166054	0.454194	0.457619
