data_functionalizedCrystal
_audit_creation_method	'MofGen! by Chris Wilmer'
_symmetry_space_group_name_H-M	'P1'
_symmetry_Int_Tables_number	1
_symmetry_cell_setting	triclinic
loop_
_symmetry_equiv_pos_as_xyz
  x,y,z
_cell_length_a	10.723024
_cell_length_b	11.295471
_cell_length_c	10.723024
_cell_angle_alpha	94.132261
_cell_angle_beta	95.532131
_cell_angle_gamma	94.147748
loop_
_atom_site_label
_atom_site_type_symbol
_atom_site_fract_x
_atom_site_fract_y
_atom_site_fract_z
O1	O	1.665527	0.099014	-0.166701
O2	O	1.302375	0.099018	-0.183454
O3	O	1.492328	0.099012	0.006498
O4	O	1.475575	0.099021	-0.356653
O5	O	1.475631	-0.099039	-0.010150
O6	O	1.285679	-0.099033	-0.200102
O7	O	1.648831	-0.099036	-0.183349
Cu8	Cu	1.465731	-0.117118	-0.193246
Cu9	Cu	1.485476	0.117100	-0.173557
O10	O	1.458879	-0.099030	-0.373301
C11	C	1.247528	-0.000007	-0.190559
C12	C	1.108974	-0.000005	-0.186911
N13	N	1.451852	-0.281854	-0.207093
C14	C	1.033991	-0.000002	-0.293198
C15	C	0.890788	-0.000000	-0.289431
C16	C	1.352020	-0.468873	-0.306900
C17	C	1.362486	-0.344209	-0.296416
C18	C	1.530755	-0.344171	-0.128245
C19	C	1.520289	-0.468835	-0.138728
C20	C	1.430920	-0.531181	-0.228060
C21	C	1.420461	-0.655847	-0.238549
C22	C	1.588723	-0.655807	-0.070372
C23	C	1.599189	-0.531143	-0.059889
C24	C	1.703679	-0.000009	-0.176244
C25	C	1.842234	-0.000003	-0.179891
C26	C	1.482760	-0.000012	0.044674
C27	C	1.479113	-0.000008	0.183229
N28	N	1.499365	0.281836	-0.159701
C29	C	1.468446	-0.000003	-0.411477
C30	C	1.472094	0.000000	-0.550031
C31	C	1.585401	-0.000007	0.258211
C32	C	1.581634	-0.000003	0.401415
H33	H	1.075813	-0.000006	-0.386985
H34	H	0.906659	0.000002	-0.088895
F35	F	1.707991	-0.000002	0.203554
H36	H	1.385328	0.000001	0.225051
F37	F	1.694294	-0.464779	0.035184
F38	F	1.325352	-0.722198	-0.333626
H39	H	0.826356	0.000007	-0.380421
F40	F	1.054315	-0.000016	-0.064323
F41	F	1.256920	-0.535227	-0.401983
F42	F	1.700569	-0.000011	0.485628
F43	F	1.672704	-0.722132	0.013532
H44	H	1.298237	-0.293481	-0.360614
H45	H	1.603509	-0.293393	-0.055505
F46	F	1.353152	-0.000009	0.365762
