data_functionalizedCrystal
_audit_creation_method	'MofGen! by Chris Wilmer'
_symmetry_space_group_name_H-M	'P1'
_symmetry_Int_Tables_number	1
_symmetry_cell_setting	triclinic
loop_
_symmetry_equiv_pos_as_xyz
  x,y,z
_cell_length_a	19.851628
_cell_length_b	17.052862
_cell_length_c	17.052862
_cell_angle_alpha	61.493325
_cell_angle_beta	90.004039
_cell_angle_gamma	70.263327
loop_
_atom_site_label
_atom_site_type_symbol
_atom_site_fract_x
_atom_site_fract_y
_atom_site_fract_z
Zr1	Zr	0.780734	0.816609	-0.200356
O2	O	0.706341	0.944510	-0.328494
O3	O	0.787160	0.665887	-0.146164
O4	O	0.823258	0.783686	-0.306972
O5	O	0.660401	0.860639	-0.057800
O6	O	0.934116	0.783675	-0.306956
O7	O	0.670243	0.826711	-0.167686
O8	O	0.869545	0.572954	-0.019301
O9	O	0.724973	1.071361	-0.345455
O10	O	0.892423	0.736325	-0.141055
O11	O	0.802345	0.761653	-0.059060
O12	O	0.844845	0.900347	-0.248390
O13	O	0.754767	0.925675	-0.166395
Zr14	Zr	0.941843	0.870703	-0.025075
Zr15	Zr	0.957541	0.816592	-0.200331
Zr16	Zr	0.765037	0.870720	-0.025100
Zr17	Zr	0.810450	1.018920	-0.227408
Zr18	Zr	0.912127	0.668391	0.001976
O19	O	0.935417	1.021425	-0.079267
O20	O	0.957736	0.944486	-0.328459
O21	O	0.684021	1.021449	-0.079302
O22	O	1.016237	0.742801	0.103063
O23	O	1.038556	0.665862	-0.146129
O24	O	0.764841	0.742826	0.103028
O25	O	1.062176	0.826673	-0.167632
O26	O	0.899319	0.903625	0.081541
O27	O	0.788461	0.903636	0.081525
O28	O	1.052334	0.860601	-0.057745
O29	O	0.865510	1.071347	-0.345436
O30	O	0.857067	0.615965	0.120005
O31	O	0.997605	0.615951	0.120024
O32	O	1.010082	0.572940	-0.019281
O33	O	0.712495	1.114372	-0.206150
O34	O	0.853033	1.114358	-0.206131
O35	O	0.877732	0.786965	0.022959
O36	O	0.967810	0.761637	-0.059037
O37	O	0.920232	0.925659	-0.166372
O38	O	0.830155	0.950987	-0.084376
C39	C	0.824119	0.590595	-0.078878
C40	C	0.811503	0.504709	-0.067394
C41	C	0.640131	0.843677	-0.112746
C42	C	0.565072	0.843685	-0.112757
C43	C	0.964021	0.209730	-0.206238
C44	C	0.975872	0.290427	-0.217034
C45	C	0.934781	0.344001	-0.179624
C46	C	0.881837	0.316871	-0.131418
C47	C	0.869980	0.236170	-0.120627
C48	C	0.840741	0.370441	-0.094014
C49	C	0.787796	0.343310	-0.045807
C50	C	0.775942	0.262617	-0.035017
C51	C	0.817033	0.209043	-0.072427
C52	C	0.852597	0.451142	-0.104805
C53	C	0.758556	0.477582	-0.019194
C54	C	0.746705	0.396884	-0.008398
C55	C	0.357780	0.933100	-0.171250
C56	C	0.330741	0.871490	-0.196752
C57	C	0.427659	0.843664	-0.112729
C58	C	0.320960	0.905276	-0.087243
C59	C	0.294922	0.843651	-0.112705
C60	C	0.401613	0.782039	-0.138277
C61	C	0.391828	0.815853	-0.028727
C62	C	0.364829	0.754173	-0.054200
C63	C	0.504125	0.843673	-0.112746
C64	C	0.218460	0.843633	-0.112688
C65	C	1.082446	0.843634	-0.112685
C66	C	1.157505	0.843627	-0.112675
C67	C	0.880924	0.775971	-0.331934
C68	C	0.887588	0.753000	-0.406335
C69	C	0.898459	1.096716	-0.146553
C70	C	0.911074	1.182603	-0.158037
C71	C	0.807021	1.030726	-0.840175
C72	C	0.800756	1.052312	-0.770274
C73	C	0.822463	0.977486	-0.679287
C74	C	0.850437	0.881070	-0.658206
C75	C	0.856698	0.859482	-0.728114
C76	C	0.872140	0.806242	-0.567225
C77	C	0.900114	0.709826	-0.546145
C78	C	0.906374	0.688242	-0.616047
C79	C	0.884666	0.763068	-0.707035
C80	C	0.865879	0.827830	-0.497317
C81	C	0.915556	0.656586	-0.385256
C82	C	0.921821	0.635000	-0.455157
C83	C	0.841654	0.911340	0.106503
C84	C	0.834990	0.934312	0.180904
C85	C	1.045276	0.590574	-0.078847
C86	C	1.107720	0.504680	-0.067353
C87	C	0.804484	0.658280	0.140341
C88	C	0.785204	0.595365	0.226226
C89	C	1.025641	0.658258	0.140371
C90	C	1.081421	0.595336	0.226267
C91	C	0.696936	1.029053	-0.365803
C92	C	0.641156	1.091976	-0.451698
C93	C	0.677301	1.096738	-0.146584
C94	C	0.614857	1.182632	-0.158078
C95	C	0.918094	1.029032	-0.365772
C96	C	0.937373	1.091947	-0.451657
C97	C	1.097694	0.451128	-0.104775
C98	C	1.156363	0.370428	-0.093992
C99	C	1.225056	0.343277	-0.045782
C100	C	1.235082	0.396837	-0.008360
C101	C	1.176415	0.477540	-0.019148
C102	C	0.815501	0.579034	0.309378
C103	C	0.797385	0.519932	0.390082
C104	C	0.748975	0.477156	0.387631
C105	C	0.718674	0.493492	0.304469
C106	C	0.736787	0.552599	0.223767
C107	C	1.154643	0.552566	0.223803
C108	C	1.207063	0.493453	0.304503
C109	C	1.186259	0.477106	0.387666
C110	C	1.113030	0.519883	0.390127
C111	C	1.060612	0.579000	0.309427
C112	C	0.567936	1.134755	-0.449236
C113	C	0.515519	1.193893	-0.529939
C114	C	0.536324	1.210245	-0.613102
C115	C	0.609552	1.167462	-0.615562
C116	C	0.661968	1.108331	-0.534861
C117	C	0.624885	1.236189	-0.120665
C118	C	0.566221	1.316906	-0.131469
C119	C	0.497529	1.344059	-0.179683
C120	C	0.487502	1.290496	-0.217101
C121	C	0.546166	1.209786	-0.206302
C122	C	0.985785	1.134705	-0.449177
C123	C	1.003914	1.193812	-0.529867
C124	C	0.973625	1.210164	-0.613037
C125	C	0.925211	1.167399	-0.615514
C126	C	0.907087	1.108288	-0.534825
H127	H	0.895705	0.473224	-0.144055
H128	H	1.148185	0.326828	-0.124468
H129	H	1.096101	0.506564	0.457849
Cl130	Cl	0.578841	1.384223	-0.084418
H131	H	0.929145	0.609733	-0.598877
H132	H	0.843101	0.906333	-0.514490
H133	H	0.732825	0.240536	0.004228
H134	H	0.889768	0.745498	-0.763959
Cl135	Cl	0.996415	1.284482	-0.714469
Cl136	Cl	1.299115	0.439682	0.301389
H137	H	0.944434	0.409708	-0.188418
H138	H	1.018979	0.312515	-0.256284
Cl139	Cl	0.835487	0.499405	0.494616
Cl140	Cl	1.298802	0.241817	-0.032225
Cl141	Cl	0.754015	1.054548	-0.537971
Cl142	Cl	0.779723	1.124780	-0.954555
Cl143	Cl	1.015665	0.142386	-0.253270
H144	H	0.944597	0.556497	-0.438005
Cl145	Cl	1.252165	0.402781	0.489110
H146	H	0.431565	1.312617	-0.256357
H147	H	0.455897	1.228718	-0.527918
H148	H	0.550981	1.121445	-0.381527
H149	H	0.900554	1.180722	-0.683242
Cl150	Cl	0.470420	1.284583	-0.714549
Cl151	Cl	0.802136	0.107587	-0.058849
Cl152	Cl	0.846215	1.054550	-0.537960
H153	H	0.703596	0.374783	0.030852
Cl154	Cl	0.876364	0.632796	0.312483
H155	H	0.537990	1.166180	-0.236767
Cl156	Cl	0.706893	0.544930	0.027832
H157	H	0.286118	0.957385	-0.065698
Cl158	Cl	0.423785	1.445526	-0.193249
Cl159	Cl	0.635694	1.188024	-0.720118
H160	H	0.680813	1.214091	-0.081400
H161	H	1.010453	1.121403	-0.381464
H162	H	0.817360	0.995067	-0.622373
H163	H	0.933229	0.595656	-0.311170
H164	H	1.043334	1.228628	-0.527832
Cl165	Cl	0.657819	0.439707	0.301404
Cl166	Cl	0.354331	1.049825	-0.247732
H167	H	0.418394	0.792380	0.042283
H168	H	0.436362	0.729958	-0.159903
H169	H	1.291020	0.374718	0.030893
Cl170	Cl	0.968561	0.632756	0.312541
H171	H	0.367215	0.678480	-0.004703
Cl172	Cl	0.289728	0.907779	-0.306412
H173	H	1.041767	0.473229	-0.144043
H174	H	1.184588	0.521134	0.011332
H175	H	0.777980	1.130814	-0.787444
Cl176	Cl	0.698697	0.573114	0.119237
Cl177	Cl	0.726213	0.402851	0.489095
H178	H	1.171596	0.565865	0.156096
