data_functionalizedCrystal
_audit_creation_method	'MofGen! by Chris Wilmer'
_symmetry_space_group_name_H-M	'P1'
_symmetry_Int_Tables_number	1
_symmetry_cell_setting	triclinic
loop_
_symmetry_equiv_pos_as_xyz
  x,y,z
_cell_length_a	15.186229
_cell_length_b	16.109301
_cell_length_c	16.109304
_cell_angle_alpha	96.537941
_cell_angle_beta	90.003016
_cell_angle_gamma	90.002208
loop_
_atom_site_label
_atom_site_type_symbol
_atom_site_fract_x
_atom_site_fract_y
_atom_site_fract_z
O1	O	0.073167	-1.103128	0.106869
O2	O	0.073181	-0.861066	0.120168
O3	O	0.073174	-0.988745	-0.007512
O4	O	0.073174	-0.975449	0.234549
O5	O	-0.073283	-0.988744	-0.007520
O6	O	-0.073277	-0.861065	0.120160
O7	O	-0.073290	-1.103127	0.106861
Zn8	Zn	-0.096537	-0.982096	0.113510
Zn9	Zn	0.096427	-0.982097	0.113520
O10	O	-0.073283	-0.975448	0.234542
C11	C	-0.000046	-0.830091	0.119626
C12	C	-0.000041	-0.737795	0.118010
C13	C	-0.000052	-0.988206	-0.038491
C14	C	-0.000046	-0.986590	-0.130786
N15	N	-0.228229	-0.982101	0.113502
N16	N	0.228120	-0.982099	0.113521
C17	C	0.453840	-1.038744	0.057093
C18	C	0.546030	-1.038746	0.057091
C19	C	0.546044	-0.925453	0.169936
C20	C	0.453856	-0.925455	0.169941
C21	C	0.407757	-0.982100	0.113515
C22	C	0.592134	-0.982100	0.113508
C23	C	0.692090	-0.982102	0.113506
C24	C	0.307794	-0.982099	0.113518
C25	C	-0.000061	-1.134102	0.107404
C26	C	-0.000061	-1.226398	0.109019
C27	C	-0.000051	-0.515524	0.190018
C28	C	-0.000057	-0.428803	0.188494
C29	C	-0.000053	-0.448676	0.037005
C30	C	-0.000054	-0.535395	0.038530
C31	C	-0.000048	-0.568816	0.115039
C32	C	-0.000053	-0.395377	0.111990
C33	C	-0.000059	-0.301351	0.110337
C34	C	-0.000044	-0.662848	0.116693
C35	C	0.079784	-0.982857	-0.343119
C36	C	0.079784	-0.981331	-0.429840
C37	C	-0.079892	-0.981334	-0.429845
C38	C	-0.079890	-0.982854	-0.343126
C39	C	-0.000050	-0.983620	-0.299766
C40	C	-0.000052	-0.980573	-0.473205
C41	C	-0.000053	-0.978919	-0.567231
C42	C	-0.000048	-0.985273	-0.205734
C43	C	-0.000055	-0.975987	0.265520
C44	C	-0.000055	-0.977603	0.357816
H45	H	0.416308	-1.084869	0.011148
O46	O	-0.157423	-0.983449	-0.300950
C47	C	-0.162184	-0.912375	-0.241338
H48	H	-0.116880	-0.861619	-0.260879
H49	H	-0.140730	-0.929795	-0.177749
C50	C	-0.313208	-0.942109	-0.211725
C51	C	-0.257571	-0.879767	-0.235729
H52	H	-0.372047	-0.921996	-0.208261
H53	H	-0.310001	-0.989994	-0.251883
H54	H	-0.295319	-0.956620	-0.158736
H55	H	-0.275454	-0.865265	-0.288721
H56	H	-0.260784	-0.831878	-0.195579
O57	O	0.590658	-1.093800	0.002200
C58	C	0.530197	-1.143808	-0.047583
H59	H	0.464484	-1.109731	-0.048595
H60	H	0.520392	-1.205493	-0.020444
C61	C	0.646875	-1.202993	-0.136016
C62	C	0.566167	-1.161136	-0.137264
H63	H	0.669063	-1.213685	-0.191334
H64	H	0.687609	-1.169304	-0.102475
H65	H	0.638693	-1.254393	-0.113396
H66	H	0.574352	-1.109733	-0.159873
H67	H	0.525434	-1.194816	-0.170811
H68	H	-0.000063	-0.421454	-0.025285
O69	O	-0.000012	-0.548128	0.264263
C70	C	-0.000032	-0.636097	0.249535
H71	H	0.027698	-0.656480	0.184651
H72	H	-0.070294	-0.660239	0.253552
C73	C	0.023343	-0.647007	0.395358
C74	C	0.057409	-0.672042	0.315670
H75	H	0.058772	-0.669180	0.436155
H76	H	0.023353	-0.587741	0.405282
H77	H	-0.035208	-0.667127	0.398694
H78	H	0.115955	-0.651912	0.312331
H79	H	0.057410	-0.731305	0.305747
H80	H	0.583588	-0.879333	0.215876
O81	O	0.409222	-0.870346	0.224784
C82	C	0.469676	-0.820359	0.274595
H83	H	0.535388	-0.819490	0.240496
H84	H	0.479488	-0.847208	0.336431
C85	C	0.352986	-0.731724	0.333417
C86	C	0.433692	-0.730652	0.291533
H87	H	0.330789	-0.676390	0.343869
H88	H	0.312256	-0.765403	0.299861
H89	H	0.361174	-0.754103	0.384943
H90	H	0.425502	-0.708284	0.240004
H91	H	0.474421	-0.696967	0.325081
H92	H	-0.000061	-0.385416	0.249550
H93	H	-0.000054	-0.578788	-0.022530
H94	H	0.144796	-0.983478	-0.307818
H95	H	0.144792	-0.980708	-0.465134
O96	O	-0.157367	-0.980636	-0.472101
C97	C	-0.140251	-0.979115	-0.557937
H98	H	-0.071637	-1.005206	-0.573226
H99	H	-0.144041	-0.912025	-0.573810
C100	C	-0.293397	-1.000789	-0.590826
C101	C	-0.209126	-1.032842	-0.609606
H102	H	-0.335883	-1.033927	-0.622699
H103	H	-0.304929	-1.001811	-0.532997
H104	H	-0.296542	-0.944881	-0.604054
H105	H	-0.205978	-1.088744	-0.596368
H106	H	-0.197595	-1.031830	-0.667435
