data_functionalizedCrystal
_audit_creation_method	'MofGen! by Chris Wilmer'
_symmetry_space_group_name_H-M	'P1'
_symmetry_Int_Tables_number	1
_symmetry_cell_setting	triclinic
loop_
_symmetry_equiv_pos_as_xyz
  x,y,z
_cell_length_a	29.839131
_cell_length_b	18.050591
_cell_length_c	29.839111
_cell_angle_alpha	90.067377
_cell_angle_beta	89.880971
_cell_angle_gamma	89.962574
loop_
_atom_site_label
_atom_site_type_symbol
_atom_site_fract_x
_atom_site_fract_y
_atom_site_fract_z
Zn1	Zn	-0.178515	-1.135565	-0.254081
Zn2	Zn	0.154819	-0.802232	0.079252
Zn3	Zn	0.488152	-0.468899	0.412585
Zn4	Zn	-0.253760	-1.135347	-0.178951
Zn5	Zn	0.079574	-0.802013	0.154382
Zn6	Zn	0.412907	-0.468680	0.487716
Zn7	Zn	-0.178639	-1.011284	-0.178955
Zn8	Zn	0.154694	-0.677950	0.154378
Zn9	Zn	0.488027	-0.344617	0.487711
Zn10	Zn	-0.253613	-1.011304	-0.254045
Zn11	Zn	0.079720	-0.677971	0.079289
Zn12	Zn	0.413053	-0.344637	0.412622
O13	O	-0.216132	-1.073375	-0.216508
O14	O	0.117202	-0.740042	0.116825
O15	O	0.450535	-0.406708	0.450159
O16	O	-0.188505	-1.239461	-0.244129
O17	O	0.144828	-0.906128	0.089205
O18	O	0.478161	-0.572794	0.422538
O19	O	-0.243908	-1.118789	-0.116084
O20	O	0.089425	-0.785456	0.217249
O21	O	0.422759	-0.452123	0.550582
O22	O	-0.115756	-1.027853	-0.188938
O23	O	0.217578	-0.694520	0.144395
O24	O	0.550911	-0.361186	0.477728
O25	O	-0.243787	-1.239300	-0.188931
O26	O	0.089546	-0.905967	0.144403
O27	O	0.422879	-0.572634	0.477736
O28	O	-0.115664	-1.119162	-0.244133
O29	O	0.217669	-0.785829	0.089200
O30	O	0.551003	-0.452496	0.422534
O31	O	-0.188717	-1.027641	-0.116088
O32	O	0.144616	-0.694308	0.217246
O33	O	0.477949	-0.360974	0.550579
O34	O	-0.188576	-0.907362	-0.188903
O35	O	0.144758	-0.574029	0.144431
O36	O	0.478091	-0.240695	0.477764
O37	O	-0.243538	-1.027887	-0.316917
O38	O	0.089795	-0.694554	0.016417
O39	O	0.423129	-0.361221	0.349750
O40	O	-0.243659	-0.907377	-0.244070
O41	O	0.089675	-0.574043	0.089263
O42	O	0.423008	-0.240710	0.422596
O43	O	-0.188363	-1.119182	-0.316944
O44	O	0.144970	-0.785848	0.016390
O45	O	0.478303	-0.452515	0.349723
O46	O	-0.316607	-1.118809	-0.188895
O47	O	0.016726	-0.785476	0.144438
O48	O	0.350059	-0.452142	0.477772
O49	O	-0.316500	-1.027675	-0.244066
O50	O	0.016833	-0.694342	0.089267
O51	O	0.350167	-0.361009	0.422601
C52	C	-0.216115	-0.880423	-0.216483
C53	C	0.117218	-0.547089	0.116850
C54	C	0.450552	-0.213756	0.450183
C55	C	-0.216119	-0.797877	-0.216483
C56	C	0.117215	-0.464544	0.116850
C57	C	0.450548	-0.131210	0.450183
C58	C	-0.332854	-1.073241	-0.216486
C59	C	0.000479	-0.739907	0.116848
C60	C	0.333812	-0.406574	0.450181
C61	C	-0.382789	-1.073251	-0.216491
C62	C	-0.049455	-0.739918	0.116842
C63	C	0.283878	-0.406585	0.450175
C64	C	-0.215920	-1.073561	-0.333687
C65	C	0.117413	-0.740228	-0.000353
C66	C	0.450746	-0.406895	0.332980
C67	C	-0.215830	-1.073641	-0.383621
C68	C	0.117503	-0.740307	-0.050288
C69	C	0.450836	-0.406974	0.283045
C70	C	-0.692475	-1.120915	-0.187823
C71	C	-0.359142	-0.787581	0.145511
C72	C	-0.025809	-0.454248	0.478844
C73	C	-0.880148	-1.121006	-0.187840
C74	C	-0.546815	-0.787673	0.145493
C75	C	-0.213482	-0.454340	0.478827
O76	O	-0.904450	-1.161425	-0.163448
O77	O	-0.571117	-0.828092	0.169886
O78	O	-0.237783	-0.494758	0.503219
N79	N	-0.903574	-1.073529	-0.216542
N80	N	-0.570240	-0.740196	0.116791
N81	N	-0.236907	-0.406862	0.450125
C82	C	-0.880078	-1.026029	-0.245244
C83	C	-0.546745	-0.692695	0.088090
C84	C	-0.213411	-0.359362	0.421423
O85	O	-0.904309	-0.985654	-0.269660
O86	O	-0.570975	-0.652321	0.063673
O87	O	-0.237642	-0.318987	0.397007
C88	C	-0.692406	-1.025941	-0.245228
C89	C	-0.359072	-0.692608	0.088105
C90	C	-0.025739	-0.359275	0.421438
C91	C	-0.668983	-1.073416	-0.216521
C92	C	-0.335650	-0.740083	0.116812
C93	C	-0.002316	-0.406750	0.450146
C94	C	-0.669052	-1.168386	-0.159118
C95	C	-0.335719	-0.835053	0.174215
C96	C	-0.002386	-0.501720	0.507548
C97	C	-0.622137	-1.168360	-0.159112
C98	C	-0.288804	-0.835027	0.174221
C99	C	0.044530	-0.501694	0.507554
C100	C	-0.598645	-1.120862	-0.187811
C101	C	-0.265311	-0.787529	0.145522
C102	C	0.068022	-0.454195	0.478856
C103	C	-0.622067	-1.073390	-0.216515
C104	C	-0.288734	-0.740057	0.116818
C105	C	0.044599	-0.406724	0.450151
C106	C	-0.668911	-0.978445	-0.273932
C107	C	-0.335577	-0.645112	0.059402
C108	C	-0.002244	-0.311779	0.392735
C109	C	-0.621990	-0.978429	-0.273926
C110	C	-0.288656	-0.645096	0.059407
C111	C	0.044677	-0.311762	0.392740
C112	C	-0.598567	-1.025904	-0.245219
C113	C	-0.265234	-0.692571	0.088114
C114	C	0.068100	-0.359238	0.421448
C115	C	-0.551659	-1.025866	-0.245208
C116	C	-0.218326	-0.692533	0.088125
C117	C	0.115007	-0.359199	0.421459
N118	N	-0.528234	-1.073343	-0.216506
N119	N	-0.194901	-0.740010	0.116827
N120	N	0.138433	-0.406677	0.450161
C121	C	-0.551727	-1.120841	-0.187808
C122	C	-0.218393	-0.787508	0.145526
C123	C	0.114940	-0.454175	0.478859
C124	C	-0.978608	-1.026077	-0.245249
C125	C	-0.645275	-0.692744	0.088084
C126	C	-0.311942	-0.359410	0.421418
C127	C	-1.025526	-1.026098	-0.245253
C128	C	-0.692193	-0.692764	0.088081
C129	C	-0.358860	-0.359431	0.421414
C130	C	-1.025594	-1.121076	-0.187849
C131	C	-0.692260	-0.787743	0.145484
C132	C	-0.358927	-0.454410	0.478817
C133	C	-0.978675	-1.121051	-0.187844
C134	C	-0.645342	-0.787718	0.145489
C135	C	-0.312008	-0.454385	0.478823
C136	C	-0.955183	-1.073554	-0.216547
C137	C	-0.621850	-0.740221	0.116786
C138	C	-0.288517	-0.406888	0.450119
C139	C	-0.453201	-1.120782	-0.187797
C140	C	-0.119868	-0.787449	0.145536
C141	C	0.213466	-0.454115	0.478869
C142	C	-0.406281	-1.120749	-0.187793
C143	C	-0.072948	-0.787416	0.145541
C144	C	0.260385	-0.454083	0.478874
C145	C	-0.406218	-1.025774	-0.245197
C146	C	-0.072885	-0.692441	0.088136
C147	C	0.260449	-0.359107	0.421469
C148	C	-0.453134	-1.025803	-0.245200
C149	C	-0.119800	-0.692470	0.088133
C150	C	0.213533	-0.359137	0.421466
C151	C	-0.476624	-1.073314	-0.216499
C152	C	-0.143291	-0.739980	0.116834
C153	C	0.190043	-0.406647	0.450168
O154	O	-0.527329	-0.985474	-0.269591
O155	O	-0.193996	-0.652141	0.063742
O156	O	0.139338	-0.318808	0.397076
O157	O	-0.527488	-1.161222	-0.163402
O158	O	-0.194154	-0.827888	0.169931
O159	O	0.139179	-0.494555	0.503265
C160	C	-0.739391	-1.120941	-0.187828
C161	C	-0.406057	-0.787608	0.145505
C162	C	-0.072724	-0.454274	0.478838
C163	C	-0.762814	-1.073469	-0.216533
C164	C	-0.429480	-0.740136	0.116801
C165	C	-0.096147	-0.406802	0.450134
C166	C	-0.739321	-1.025971	-0.245231
C167	C	-0.405988	-0.692638	0.088102
C168	C	-0.072655	-0.359304	0.421435
C169	C	-0.809732	-1.073490	-0.216536
C170	C	-0.476398	-0.740156	0.116797
C171	C	-0.143065	-0.406823	0.450131
C172	C	-0.833224	-1.120988	-0.187838
C173	C	-0.499891	-0.787655	0.145496
C174	C	-0.166557	-0.454321	0.478829
C175	C	-0.809799	-1.168465	-0.159136
C176	C	-0.476465	-0.835132	0.174198
C177	C	-0.143132	-0.501799	0.507531
C178	C	-0.762883	-1.168439	-0.159130
C179	C	-0.429550	-0.835106	0.174203
C180	C	-0.096217	-0.501772	0.507537
C181	C	-0.762747	-0.978494	-0.273933
C182	C	-0.429413	-0.645160	0.059400
C183	C	-0.096080	-0.311827	0.392733
C184	C	-0.809662	-0.978523	-0.273936
C185	C	-0.476329	-0.645190	0.059397
C186	C	-0.142995	-0.311856	0.392730
C187	C	-0.833155	-1.026021	-0.245238
C188	C	-0.499821	-0.692688	0.088096
C189	C	-0.166488	-0.359355	0.421429
C190	C	-0.098953	-1.073530	-0.216540
C191	C	0.234380	-0.740196	0.116793
C192	C	0.567713	-0.406863	0.450126
C193	C	-0.049019	-1.073596	-0.216554
C194	C	0.284315	-0.740262	0.116779
C195	C	0.617648	-0.406929	0.450113
C196	C	-0.216149	-1.267081	-0.216533
C197	C	0.117185	-0.933747	0.116800
C198	C	0.450518	-0.600414	0.450133
C199	C	-0.216156	-1.349626	-0.216544
C200	C	0.117177	-1.016293	0.116789
C201	C	0.450511	-0.682960	0.450123
C202	C	-0.186130	-0.598397	-0.186552
C203	C	0.147204	-0.265064	0.146781
C204	C	0.480537	0.068270	0.480114
C205	C	-0.227123	-0.548947	-0.175494
C206	C	0.106210	-0.215613	0.157839
C207	C	0.439544	0.117720	0.491172
C208	C	-0.216132	-0.646747	-0.216504
C209	C	0.117201	-0.313413	0.116830
C210	C	0.450534	0.019920	0.450163
C211	C	-0.175153	-0.549115	-0.227560
C212	C	0.158180	-0.215782	0.105773
C213	C	0.491514	0.117552	0.439106
C214	C	-0.216142	-0.500762	-0.216522
C215	C	0.117192	-0.167428	0.116811
C216	C	0.450525	0.165905	0.450144
C217	C	-0.257147	-0.598384	-0.205424
C218	C	0.076186	-0.265050	0.127909
C219	C	0.409519	0.068283	0.461242
C220	C	-0.205150	-0.598556	-0.257509
C221	C	0.128184	-0.265223	0.075824
C222	C	0.461517	0.068110	0.409157
C223	C	-0.246171	-0.549129	-0.246467
C224	C	0.087162	-0.215795	0.086866
C225	C	0.420495	0.117538	0.420200
C226	C	-0.216126	-0.730845	-0.216492
C227	C	0.117207	-0.397512	0.116842
C228	C	0.450540	-0.064178	0.450175
C229	C	-0.216153	-0.416665	-0.216534
C230	C	0.117181	-0.083332	0.116799
C231	C	0.450514	0.250002	0.450132
C232	C	-0.216310	-1.073232	-0.099785
C233	C	0.117024	-0.739899	0.233548
C234	C	0.450357	-0.406565	0.566881
C235	C	-0.216273	-1.073297	-0.049851
C236	C	0.117060	-0.739963	0.283482
C237	C	0.450393	-0.406630	0.616816
C238	C	-0.187093	-1.120663	0.306605
C239	C	0.146240	-0.787330	0.639938
C240	C	0.479573	-0.453997	0.973272
C241	C	-0.187221	-1.120567	0.118932
C242	C	0.146112	-0.787234	0.452265
C243	C	0.479445	-0.453900	0.785599
O244	O	-0.162619	-1.160662	0.094556
O245	O	0.170715	-0.827328	0.427890
O246	O	0.504048	-0.493995	0.761223
N247	N	-0.216172	-1.073369	0.095594
N248	N	0.117162	-0.740036	0.428927
N249	N	0.450495	-0.406702	0.762261
C250	C	-0.245090	-1.026188	0.119177
C251	C	0.088243	-0.692855	0.452510
C252	C	0.421577	-0.359522	0.785844
O253	O	-0.269714	-0.986036	0.095020
O254	O	0.063620	-0.652703	0.428354
O255	O	0.396953	-0.319369	0.761687
C256	C	-0.244959	-1.026282	0.306849
C257	C	0.088374	-0.692948	0.640182
C258	C	0.421707	-0.359615	0.973516
C259	C	-0.216010	-1.073488	0.330185
C260	C	0.117323	-0.740155	0.663518
C261	C	0.450656	-0.406821	0.996851
C262	C	-0.158146	-1.167865	0.329941
C263	C	0.175187	-0.834532	0.663274
C264	C	0.508520	-0.501199	0.996607
C265	C	-0.158116	-1.167892	0.376856
C266	C	0.175217	-0.834559	0.710189
C267	C	0.508550	-0.501225	1.043523
C268	C	-0.187033	-1.120716	0.400436
C269	C	0.146300	-0.787383	0.733769
C270	C	0.479633	-0.454050	1.067102
C271	C	-0.215980	-1.073515	0.377100
C272	C	0.117353	-0.740181	0.710433
C273	C	0.450686	-0.406848	1.043767
C274	C	-0.273875	-0.979098	0.330431
C275	C	0.059458	-0.645764	0.663765
C276	C	0.392792	-0.312431	0.997098
C277	C	-0.273839	-0.979124	0.377352
C278	C	0.059494	-0.645791	0.710686
C279	C	0.392828	-0.312457	1.044019
C280	C	-0.244890	-1.026330	0.400688
C281	C	0.088443	-0.692997	0.734021
C282	C	0.421777	-0.359664	1.067355
C283	C	-0.244867	-1.026366	0.447595
C284	C	0.088466	-0.693032	0.780929
C285	C	0.421799	-0.359699	1.114262
N286	N	-0.215917	-1.073564	0.470933
N287	N	0.117416	-0.740230	0.804267
N288	N	0.450750	-0.406897	1.137600
C289	C	-0.187000	-1.120739	0.447354
C290	C	0.146333	-0.787406	0.780687
C291	C	0.479667	-0.454072	1.114020
C292	C	-0.245157	-1.026144	0.020647
C293	C	0.088176	-0.692810	0.353980
C294	C	0.421510	-0.359477	0.687313
C295	C	-0.245190	-1.026121	-0.026271
C296	C	0.088143	-0.692788	0.307062
C297	C	0.421476	-0.359454	0.640396
C298	C	-0.187321	-1.120499	-0.026513
C299	C	0.146012	-0.787166	0.306820
C300	C	0.479346	-0.453832	0.640154
C301	C	-0.187290	-1.120525	0.020406
C302	C	0.146043	-0.787191	0.353739
C303	C	0.479376	-0.453858	0.687072
C304	C	-0.216207	-1.073342	0.043985
C305	C	0.117127	-0.740008	0.377318
C306	C	0.450460	-0.406675	0.710651
C307	C	-0.186939	-1.120792	0.545879
C308	C	0.146394	-0.787458	0.879213
C309	C	0.479727	-0.454125	1.212546
C310	C	-0.186913	-1.120816	0.592799
C311	C	0.146420	-0.787483	0.926132
C312	C	0.479753	-0.454149	1.259465
C313	C	-0.244781	-1.026436	0.593036
C314	C	0.088553	-0.693103	0.926370
C315	C	0.421886	-0.359769	1.259703
C316	C	-0.244809	-1.026414	0.546121
C317	C	0.088525	-0.693080	0.879454
C318	C	0.421858	-0.359747	1.212788
C319	C	-0.215884	-1.073594	0.522544
C320	C	0.117449	-0.740261	0.855877
C321	C	0.450782	-0.406927	1.189210
O322	O	-0.269453	-0.986286	0.472000
O323	O	0.063880	-0.652952	0.805333
O324	O	0.397213	-0.319619	1.138667
O325	O	-0.162373	-1.160874	0.471518
O326	O	0.170960	-0.827540	0.804852
O327	O	0.504294	-0.494207	1.138185
C328	C	-0.187123	-1.120637	0.259690
C329	C	0.146210	-0.787304	0.593023
C330	C	0.479543	-0.453970	0.926356
C331	C	-0.216070	-1.073435	0.236354
C332	C	0.117263	-0.740102	0.569687
C333	C	0.450596	-0.406768	0.903021
C334	C	-0.244987	-1.026259	0.259934
C335	C	0.088346	-0.692926	0.593267
C336	C	0.421679	-0.359593	0.926600
C337	C	-0.216104	-1.073412	0.189436
C338	C	0.117230	-0.740079	0.522769
C339	C	0.450563	-0.406746	0.856103
C340	C	-0.187187	-1.120588	0.165856
C341	C	0.146147	-0.787255	0.499190
C342	C	0.479480	-0.453921	0.832523
C343	C	-0.158236	-1.167786	0.189194
C344	C	0.175097	-0.834452	0.522528
C345	C	0.508430	-0.501119	0.855861
C346	C	-0.158206	-1.167812	0.236110
C347	C	0.175127	-0.834479	0.569443
C348	C	0.508460	-0.501146	0.902776
C349	C	-0.273938	-0.979062	0.236596
C350	C	0.059396	-0.645728	0.569929
C351	C	0.392729	-0.312395	0.903262
C352	C	-0.273966	-0.979039	0.189680
C353	C	0.059368	-0.645706	0.523013
C354	C	0.392701	-0.312373	0.856347
C355	C	-0.245049	-1.026215	0.166100
C356	C	0.088285	-0.692882	0.499434
C357	C	0.421618	-0.359548	0.832767
H358	H	-0.387212	-1.159409	-0.164414
H359	H	-0.053878	-0.826076	0.168919
H360	H	0.279455	-0.492743	0.502252
H361	H	-0.603069	-1.207021	-0.135738
H362	H	-0.269736	-0.873687	0.197595
H363	H	0.063598	-0.540354	0.530929
Cl364	Cl	-0.310193	-0.919803	0.406991
Cl365	Cl	0.023140	-0.586470	0.740325
Cl366	Cl	0.356474	-0.253136	1.073658
H367	H	-0.268707	-0.987722	0.039840
H368	H	0.064626	-0.654389	0.373174
H369	H	0.397959	-0.321055	0.706507
H370	H	-0.472321	-1.159471	-0.164427
H371	H	-0.138988	-0.826138	0.168907
H372	H	0.194346	-0.492804	0.502240
H373	H	-0.297448	-0.940657	0.311439
H374	H	0.035885	-0.607324	0.644773
H375	H	0.369218	-0.273990	0.978106
Cl376	Cl	-0.281130	-0.967130	0.622688
Cl377	Cl	0.052203	-0.633797	0.956022
Cl378	Cl	0.385536	-0.300464	1.289355
H379	H	-0.959607	-1.159710	-0.164469
H380	H	-0.626273	-0.826377	0.168865
H381	H	-0.292940	-0.493043	0.502198
Cl382	Cl	-0.150895	-1.179870	0.049737
Cl383	Cl	0.182438	-0.846537	0.383070
Cl384	Cl	0.515772	-0.513204	0.716404
Cl385	Cl	-0.281204	-0.967072	0.516784
Cl386	Cl	0.052129	-0.633739	0.850117
Cl387	Cl	0.385462	-0.300405	1.183451
H388	H	-0.297544	-0.940600	0.170684
H389	H	0.035790	-0.607266	0.504018
H390	H	0.369123	-0.273933	0.837351
Cl391	Cl	-0.121810	-1.227160	0.265439
Cl392	Cl	0.211523	-0.893826	0.598772
Cl393	Cl	0.544856	-0.560493	0.932106
Cl394	Cl	-0.733444	-1.228129	-0.123041
Cl395	Cl	-0.400111	-0.894795	0.210292
Cl396	Cl	-0.066778	-0.561462	0.543626
H397	H	-0.268768	-0.987689	-0.045267
H398	H	0.064565	-0.654356	0.288066
H399	H	0.397898	-0.321022	0.621400
Cl400	Cl	-0.698578	-1.228107	-0.123035
Cl401	Cl	-0.365244	-0.894774	0.210298
Cl402	Cl	-0.031911	-0.561440	0.543632
H403	H	-0.160785	-0.620030	-0.161196
H404	H	0.172549	-0.286697	0.172137
H405	H	0.505882	0.046636	0.505471
Cl406	Cl	-1.055136	-1.180787	-0.151771
Cl407	Cl	-0.721802	-0.847454	0.181563
Cl408	Cl	-0.388469	-0.514120	0.514896
H409	H	-0.602865	-0.939752	-0.297301
H410	H	-0.269532	-0.606419	0.036032
H411	H	0.063802	-0.273085	0.369365
Cl412	Cl	-0.839102	-0.918833	-0.310029
Cl413	Cl	-0.505769	-0.585500	0.023305
Cl414	Cl	-0.172435	-0.252166	0.356638
Cl415	Cl	-1.054966	-0.966403	-0.281338
Cl416	Cl	-0.721633	-0.633070	0.051996
Cl417	Cl	-0.388300	-0.299737	0.385329
H418	H	-0.828935	-1.207138	-0.135767
H419	H	-0.495601	-0.873805	0.197566
H420	H	-0.162268	-0.540471	0.530900
Cl421	Cl	-0.310675	-0.631655	-0.190935
Cl422	Cl	0.022658	-0.298321	0.142398
Cl423	Cl	0.355992	0.035012	0.475731
Cl424	Cl	-0.121642	-0.515694	-0.241986
Cl425	Cl	0.211691	-0.182360	0.091347
Cl426	Cl	0.545024	0.150973	0.424681
Cl427	Cl	-0.190778	-0.632223	-0.311022
Cl428	Cl	0.142555	-0.298889	0.022311
Cl429	Cl	0.475888	0.034444	0.355644
H430	H	-0.236420	-0.527159	-0.140825
H431	H	0.096914	-0.193826	0.192509
H432	H	0.430247	0.139508	0.525842
Cl433	Cl	-0.698345	-0.918767	-0.310028
Cl434	Cl	-0.365012	-0.585434	0.023305
Cl435	Cl	-0.031678	-0.252100	0.356638
H436	H	-0.959485	-0.987397	-0.268623
H437	H	-0.626151	-0.654064	0.064710
H438	H	-0.292818	-0.320731	0.398043
H439	H	-0.472205	-0.987148	-0.268577
H440	H	-0.138872	-0.653814	0.064756
H441	H	0.194461	-0.320481	0.398089
Cl442	Cl	-0.376676	-0.966069	-0.281276
Cl443	Cl	-0.043343	-0.632736	0.052057
Cl444	Cl	0.289991	-0.299402	0.385391
Cl445	Cl	-0.285394	-0.515935	-0.285586
Cl446	Cl	0.047940	-0.182601	0.047748
Cl447	Cl	0.381273	0.150732	0.381081
Cl448	Cl	-0.121885	-1.227093	0.159542
Cl449	Cl	0.211448	-0.893760	0.492876
Cl450	Cl	0.544782	-0.560427	0.826209
H451	H	-0.163339	-1.159260	0.611797
H452	H	0.169994	-0.825927	0.945130
H453	H	0.503327	-0.492593	1.278463
H454	H	-0.297486	-0.940646	0.255790
H455	H	0.035847	-0.607312	0.589123
H456	H	0.369180	-0.273979	0.922456
Cl457	Cl	-0.733220	-0.918775	-0.310015
Cl458	Cl	-0.399887	-0.585442	0.023318
Cl459	Cl	-0.066554	-0.252108	0.356652
H460	H	-0.163385	-1.159208	0.526688
H461	H	0.169948	-0.825874	0.860021
H462	H	0.503282	-0.492541	1.193355
Cl463	Cl	-0.121718	-1.227235	0.406185
Cl464	Cl	0.211615	-0.893902	0.739518
Cl465	Cl	0.544949	-0.560568	1.072852
Cl466	Cl	-0.121794	-1.227190	0.300306
Cl467	Cl	0.211539	-0.893856	0.633639
Cl468	Cl	0.544873	-0.560523	0.966973
H469	H	-0.163776	-1.158912	-0.045720
H470	H	0.169557	-0.825578	0.287614
H471	H	0.502891	-0.492245	0.620947
