data_functionalizedCrystal
_audit_creation_method	'MofGen! by Chris Wilmer'
_symmetry_space_group_name_H-M	'P1'
_symmetry_Int_Tables_number	1
_symmetry_cell_setting	triclinic
loop_
_symmetry_equiv_pos_as_xyz
  x,y,z
_cell_length_a	10.686285
_cell_length_b	10.685972
_cell_length_c	10.686551
_cell_angle_alpha	81.590232
_cell_angle_beta	99.084519
_cell_angle_gamma	90.336301
loop_
_atom_site_label
_atom_site_type_symbol
_atom_site_fract_x
_atom_site_fract_y
_atom_site_fract_z
Zn1	Zn	-0.282884	-2.015989	0.846645
Zn2	Zn	-0.511473	-2.015887	0.618134
Zn3	Zn	-0.317996	-1.789922	0.615609
Zn4	Zn	-0.511344	-1.820001	0.814049
O5	O	-0.405924	-1.910450	0.723609
O6	O	-0.298566	-2.192564	0.831031
O7	O	-0.500556	-1.973282	0.439119
O8	O	-0.136757	-1.807365	0.658841
O9	O	-0.466509	-2.192489	0.663145
O10	O	-0.110960	-1.973455	0.828582
O11	O	-0.358410	-1.807266	0.437263
O12	O	-0.358285	-1.617324	0.627234
O13	O	-0.466290	-1.858630	0.997054
O14	O	-0.500336	-1.639423	0.773027
O15	O	-0.298441	-2.002621	1.021002
O16	O	-0.688037	-2.002448	0.631538
O17	O	-0.687942	-1.858531	0.775476
C18	C	-0.433107	-1.582586	0.696320
C19	C	-0.444764	-1.442329	0.684673
C20	C	-0.733770	-1.933778	0.700275
C21	C	-0.874011	-1.943877	0.690345
C22	C	-0.076793	-1.887067	0.747066
C23	C	0.063464	-1.877102	0.757061
C24	C	-0.378434	-1.933992	1.056653
C25	C	-0.366720	-1.944025	1.198577
C26	C	-0.378628	-1.239593	0.751001
C27	C	-0.366975	-1.379852	0.762659
C28	C	-0.433210	-1.887065	0.391874
C29	C	-0.444548	-1.877252	0.249997
H30	H	-0.520286	-1.388510	0.608985
H31	H	-0.882780	-1.812209	0.821780
C32	C	-0.264948	-1.452539	0.864904
C33	C	-0.264964	-1.445575	1.007819
C34	C	-0.162936	-1.518271	1.110065
C35	C	-0.060892	-1.597931	1.069397
C36	C	-0.060872	-1.604899	0.926476
C37	C	-0.162900	-1.532202	0.824230
H38	H	-0.340507	-1.386603	1.037929
H39	H	-0.162951	-1.513113	1.215865
H40	H	0.014636	-1.651746	1.145086
H41	H	0.014671	-1.663871	0.896365
H42	H	-0.162885	-1.537360	0.718430
C43	C	-0.946632	-2.031545	0.602899
C44	C	-1.091574	-2.041860	0.592740
C45	C	-1.164194	-2.129526	0.505296
C46	C	-1.091873	-2.206878	0.428011
C47	C	-0.946923	-2.196566	0.438168
C48	C	-0.874302	-2.108899	0.525612
H49	H	-1.145117	-1.984597	0.649952
H50	H	-1.271496	-2.137159	0.497778
H51	H	-1.145631	-2.271774	0.363280
H52	H	-0.893379	-2.253828	0.380955
H53	H	-0.767000	-2.101266	0.533130
H54	H	-0.291126	-2.008877	1.263136
H55	H	-0.520146	-1.812413	1.185444
