data_functionalizedCrystal
_audit_creation_method	'MofGen! by Chris Wilmer'
_symmetry_space_group_name_H-M	'P1'
_symmetry_Int_Tables_number	1
_symmetry_cell_setting	triclinic
loop_
_symmetry_equiv_pos_as_xyz
  x,y,z
_cell_length_a	17.038272
_cell_length_b	10.654541
_cell_length_c	9.730217
_cell_angle_alpha	89.996959
_cell_angle_beta	90.004202
_cell_angle_gamma	87.797743
loop_
_atom_site_label
_atom_site_type_symbol
_atom_site_fract_x
_atom_site_fract_y
_atom_site_fract_z
O1	O	1.038886	0.272863	-0.114117
O2	O	0.811231	0.268530	-0.114158
O3	O	0.930294	0.088443	-0.114128
O4	O	0.919823	0.452950	-0.114147
O5	O	0.930290	0.088441	0.114452
O6	O	0.811228	0.268528	0.114422
O7	O	1.038882	0.272861	0.114463
Zn8	Zn	0.925054	0.270694	0.150735
Zn9	Zn	0.925059	0.270697	-0.150429
O10	O	0.919820	0.452948	0.114433
C11	C	0.782079	0.264588	0.000127
C12	C	0.695221	0.252831	0.000112
C13	C	0.929524	0.041572	0.000161
C14	C	0.927225	-0.098085	0.000158
C15	C	1.069596	-0.112836	0.000201
C16	C	1.139699	-0.185820	0.000225
C17	C	1.137534	-0.317040	0.000220
C18	C	1.065259	-0.375276	0.000187
C19	C	0.995156	-0.302291	0.000164
C20	C	0.997329	-0.171070	0.000172
C21	C	0.852786	-0.287540	0.000111
C22	C	0.854949	-0.156321	0.000126
C23	C	0.780511	-0.345776	0.000078
C24	C	0.710407	-0.272791	0.000064
C25	C	0.712575	-0.141565	0.000070
C26	C	0.784847	-0.083336	0.000102
C27	C	0.645709	0.360775	0.000108
C28	C	0.564097	0.349721	0.000127
C29	C	0.531998	0.230721	0.000141
C30	C	0.581516	0.122768	0.000150
C31	C	0.663127	0.133824	0.000140
C32	C	0.286022	0.191663	0.000180
C33	C	0.204405	0.180615	0.000186
C34	C	0.186991	0.407569	0.000165
C35	C	0.268604	0.418614	0.000147
C36	C	0.318115	0.310662	0.000163
C37	C	0.448577	0.219418	0.000157
C38	C	0.401534	0.321965	0.000157
C39	C	1.068034	0.276802	0.000175
C40	C	1.154893	0.288559	0.000181
C41	C	0.920590	0.499818	0.000141
C42	C	0.922889	0.639475	0.000135
N43	N	0.925057	0.270692	0.356271
N44	N	0.925063	0.270689	-0.355966
C45	C	1.030530	0.111278	0.356288
C46	C	1.083272	0.031576	0.428236
C47	C	1.083280	0.031576	0.572116
C48	C	1.030539	0.111284	0.644051
C49	C	0.977797	0.190987	0.572103
C50	C	0.977796	0.190981	0.428219
C51	C	0.872321	0.350392	0.572086
C52	C	0.872316	0.350400	0.428206
C53	C	0.819580	0.430100	0.644021
C54	C	0.766840	0.509811	0.572072
C55	C	0.766835	0.509809	0.428184
C56	C	0.819574	0.430103	0.356258
H57	H	1.071366	-0.005991	0.000223
H58	H	0.523787	0.437621	0.000122
H59	H	1.030542	0.111268	0.761205
H60	H	0.723899	0.574698	0.630651
H61	H	1.126224	-0.033329	0.630696
H62	H	0.422433	0.122528	0.000207
C63	C	1.219198	-0.121751	0.000272
N64	N	1.279077	-0.073496	0.000310
C65	C	0.340474	0.072910	0.000188
N66	N	0.381490	-0.016540	0.000193
H67	H	1.194618	-0.376464	0.000229
C68	C	1.030531	0.111279	0.198016
N69	N	1.030533	0.111277	0.078804
H70	H	0.146671	0.495457	0.000155
C71	C	0.303906	0.549523	0.000154
N72	N	0.330495	0.648126	0.000161
C73	C	1.141273	-0.056120	0.349098
N74	N	1.184953	-0.122182	0.289494
H75	H	0.778753	-0.452622	0.000066
H76	H	1.063503	-0.482122	0.000167
H77	H	0.819577	0.430098	0.239103
C78	C	0.630913	-0.336860	0.000035
N79	N	0.571037	-0.385121	0.000021
H80	H	0.723883	0.574707	0.369611
H81	H	0.655488	-0.082147	0.000045
C82	C	0.787238	0.061008	0.000107
N83	N	0.789043	0.169729	0.000105
H84	H	0.178274	0.083706	0.000196
H85	H	0.819585	0.430091	0.761175
H86	H	0.671837	0.457678	0.000095
H87	H	0.555375	0.025876	0.000181
H88	H	0.427672	0.418854	0.000154
H89	H	0.703439	0.045924	0.000143
