data_functionalizedCrystal
_audit_creation_method	'MofGen! by Chris Wilmer'
_symmetry_space_group_name_H-M	'P1'
_symmetry_Int_Tables_number	1
_symmetry_cell_setting	triclinic
loop_
_symmetry_equiv_pos_as_xyz
  x,y,z
_cell_length_a	18.050590
_cell_length_b	18.050590
_cell_length_c	17.077396
_cell_angle_alpha	89.970225
_cell_angle_beta	89.996080
_cell_angle_gamma	90.007719
loop_
_atom_site_label
_atom_site_type_symbol
_atom_site_fract_x
_atom_site_fract_y
_atom_site_fract_z
Zn1	Zn	1.135377	-0.295874	-0.443509
Zn2	Zn	1.635377	0.204126	0.056491
Zn3	Zn	1.135298	-0.420071	-0.312240
Zn4	Zn	1.635298	0.079929	0.187760
Zn5	Zn	1.011186	-0.295876	-0.312293
Zn6	Zn	1.511186	0.204124	0.187707
Zn7	Zn	1.011165	-0.420003	-0.443500
Zn8	Zn	1.511165	0.079997	0.056500
O9	O	1.073256	-0.357956	-0.377885
O10	O	1.573256	0.142044	0.122115
O11	O	1.239291	-0.312377	-0.426078
O12	O	1.739291	0.187623	0.073922
O13	O	1.118810	-0.403626	-0.202400
O14	O	1.618810	0.096374	0.297600
O15	O	1.027702	-0.191951	-0.329725
O16	O	1.527702	0.308049	0.170275
O17	O	1.239233	-0.403624	-0.329635
O18	O	1.739233	0.096376	0.170365
O19	O	1.118944	-0.191950	-0.426129
O20	O	1.618944	0.308050	0.073871
O21	O	1.027625	-0.312380	-0.202439
O22	O	1.527625	0.187620	0.297561
O23	O	0.907258	-0.312314	-0.329716
O24	O	1.407258	0.187686	0.170284
O25	O	1.027666	-0.403508	-0.553348
O26	O	1.527666	0.096492	-0.053348
O27	O	0.907243	-0.403510	-0.426113
O28	O	1.407243	0.096490	0.073887
O29	O	1.118924	-0.312311	-0.553355
O30	O	1.618924	0.187689	-0.053355
O31	O	1.118790	-0.523987	-0.329626
O32	O	1.618790	-0.023987	0.170374
O33	O	1.027590	-0.523937	-0.426062
O34	O	1.527590	-0.023937	0.073938
C35	C	0.880304	-0.357906	-0.377919
C36	C	1.380304	0.142094	0.122081
C37	C	0.797758	-0.357902	-0.377952
C38	C	1.297758	0.142098	0.122048
C39	C	0.598321	-0.407636	-0.430249
C40	C	1.098321	0.092364	0.069751
C41	C	0.548918	-0.339919	-0.449566
C42	C	1.048918	0.160081	0.050434
C43	C	0.646628	-0.357943	-0.377914
C44	C	1.146628	0.142057	0.122086
C45	C	0.548949	-0.425699	-0.358596
C46	C	1.048949	0.074301	0.141404
C47	C	0.500643	-0.357989	-0.377878
C48	C	1.000643	0.142011	0.122122
C49	C	0.598312	-0.290190	-0.397269
C50	C	1.098312	0.209810	0.102731
C51	C	0.598348	-0.376016	-0.306265
C52	C	1.098348	0.123984	0.193735
C53	C	0.548967	-0.308252	-0.325556
C54	C	1.048967	0.191748	0.174444
C55	C	0.730726	-0.357918	-0.377937
C56	C	1.230726	0.142082	0.122063
C57	C	0.416546	-0.358007	-0.377856
C58	C	0.916546	0.141993	0.122144
C59	C	1.073199	-0.550909	-0.377854
C60	C	1.573199	-0.050909	0.122146
C61	C	1.073243	-0.633454	-0.377867
C62	C	1.573243	-0.133454	0.122133
C63	C	1.122941	-0.832905	-0.325498
C64	C	1.622941	-0.332905	0.174502
C65	C	1.141082	-0.882240	-0.397136
C66	C	1.641082	-0.382240	0.102864
C67	C	1.073285	-0.784585	-0.377898
C68	C	1.573285	-0.284585	0.122102
C69	C	1.055220	-0.882332	-0.306293
C70	C	1.555220	-0.382332	0.193707
C71	C	1.073327	-0.930570	-0.377922
C72	C	1.573327	-0.430570	0.122078
C73	C	1.091461	-0.832832	-0.449573
C74	C	1.591461	-0.332832	0.050427
C75	C	1.005567	-0.832920	-0.358682
C76	C	1.505567	-0.332920	0.141318
C77	C	1.023682	-0.882232	-0.430369
C78	C	1.523682	-0.382232	0.069631
C79	C	1.073263	-0.700486	-0.377884
C80	C	1.573263	-0.200486	0.122116
C81	C	1.073349	-1.014666	-0.377945
C82	C	1.573349	-0.514666	0.122055
C83	C	1.266962	-0.358008	-0.377852
C84	C	1.766962	0.141992	0.122148
C85	C	1.349508	-0.358030	-0.377838
C86	C	1.849508	0.141970	0.122162
C87	C	1.073301	-0.357902	-0.582630
C88	C	1.573301	0.142098	-0.082630
C89	C	1.073320	-0.357878	-0.669880
C90	C	1.573320	0.142122	-0.169880
C91	C	1.073334	-0.164251	-0.377934
C92	C	1.573334	0.335749	0.122066
C93	C	1.073367	-0.081705	-0.377955
C94	C	1.573367	0.418295	0.122045
C95	C	1.120840	-0.310388	-0.710875
C96	C	1.620840	0.189612	-0.210875
C97	C	1.120849	-0.310363	-0.792855
C98	C	1.620849	0.189637	-0.292855
C99	C	1.073342	-0.357833	-0.833839
C100	C	1.573342	0.142167	-0.333839
C101	C	1.025817	-0.405326	-0.792838
C102	C	1.525817	0.094674	-0.292838
C103	C	1.025804	-0.405346	-0.710859
C104	C	1.525804	0.094654	-0.210859
C105	C	1.025846	-0.405281	-0.963708
C106	C	1.525846	0.094719	-0.463708
C107	C	1.025859	-0.405262	-1.045693
C108	C	1.525859	0.094738	-0.545693
C109	C	1.120891	-0.310298	-1.045704
C110	C	1.620891	0.189702	-0.545704
C111	C	1.120879	-0.310319	-0.963725
C112	C	1.620879	0.189681	-0.463725
C113	C	1.073355	-0.357812	-0.922730
C114	C	1.573355	0.142188	-0.422730
C115	C	1.073254	-0.357957	-0.173938
C116	C	1.573254	0.142043	0.326062
C117	C	1.073379	-0.357771	-0.086688
C118	C	1.573379	0.142229	0.413312
H119	H	0.527434	-0.266200	-0.281283
H120	H	1.027434	0.233800	0.218717
O121	O	0.929712	-0.804185	-0.337103
O122	O	1.429712	-0.304185	0.162897
H123	H	0.892061	-0.851620	-0.325795
H124	H	1.392061	-0.351620	0.174205
H125	H	0.987132	-0.443974	-0.826214
H126	H	1.487132	0.056026	-0.326214
H127	H	0.619993	-0.449586	-0.474556
H128	H	1.119993	0.050414	0.025444
H129	H	0.987101	-0.444010	-0.677482
H130	H	1.487101	0.055990	-0.177482
O131	O	0.520226	-0.501573	-0.336969
O132	O	1.020226	-0.001573	0.163031
H133	H	0.486408	-0.497548	-0.282854
H134	H	0.986408	0.002452	0.217146
H135	H	0.620077	-0.391308	-0.245706
H136	H	1.120077	0.108692	0.254294
O137	O	1.172106	-0.259147	-0.837075
O138	O	1.672106	0.240853	-0.337075
H139	H	1.205147	-0.226150	-0.794803
H140	H	1.705147	0.273850	-0.294803
H141	H	1.164947	-0.811246	-0.281231
H142	H	1.664947	-0.311246	0.218769
O143	O	1.216959	-0.910941	-0.418695
O144	O	1.716959	-0.410941	0.081305
H145	H	1.258064	-0.891190	-0.375107
H146	H	1.758064	-0.391190	0.124893
H147	H	0.981708	-0.903754	-0.474743
H148	H	1.481708	-0.403754	0.025257
O149	O	1.034944	-0.911129	-0.226070
O150	O	1.534944	-0.411129	0.273930
H151	H	1.076227	-0.891364	-0.182677
H152	H	1.576227	-0.391364	0.317323
O153	O	1.172081	-0.259188	-0.666671
O154	O	1.672081	0.240812	-0.166671
H155	H	1.205120	-0.226156	-0.708954
H156	H	1.705120	0.273844	-0.208954
O157	O	1.111821	-0.804164	-0.529824
O158	O	1.611821	-0.304164	-0.029824
H159	H	1.111673	-0.742677	-0.529175
H160	H	1.611673	-0.242677	-0.029175
O161	O	0.520152	-0.319759	-0.529823
O162	O	1.020152	0.180241	-0.029823
H163	H	0.540759	-0.263945	-0.546282
H164	H	1.040759	0.236055	-0.046282
O165	O	0.626903	-0.214292	-0.418994
O166	O	1.126903	0.285708	0.081006
H167	H	0.688391	-0.214877	-0.418870
H168	H	1.188391	0.285123	0.081130
H169	H	1.159568	-0.271669	-0.930359
H170	H	1.659568	0.228331	-0.430359
O171	O	1.172145	-0.259064	-1.089913
O172	O	1.672145	0.240936	-0.589913
H173	H	1.164166	-0.267014	-1.153804
H174	H	1.664166	0.232986	-0.653804
H175	H	0.987173	-0.443914	-1.079060
H176	H	1.487173	0.056086	-0.579060
O177	O	0.974585	-0.456500	-0.919487
O178	O	1.474585	0.043500	-0.419487
H179	H	0.941555	-0.489509	-0.961757
H180	H	1.441555	0.010491	-0.461757
