data_functionalizedCrystal
_audit_creation_method	'MofGen! by Chris Wilmer'
_symmetry_space_group_name_H-M	'P1'
_symmetry_Int_Tables_number	1
_symmetry_cell_setting	triclinic
loop_
_symmetry_equiv_pos_as_xyz
  x,y,z
_cell_length_a	12.827893
_cell_length_b	19.121063
_cell_length_c	12.827885
_cell_angle_alpha	92.403777
_cell_angle_beta	89.980728
_cell_angle_gamma	92.468878
loop_
_atom_site_label
_atom_site_type_symbol
_atom_site_fract_x
_atom_site_fract_y
_atom_site_fract_z
Zn1	Zn	1.579836	-0.279578	-0.608539
Zn2	Zn	2.079836	0.220422	-0.108539
Zn3	Zn	1.572236	-0.397045	-0.441232
Zn4	Zn	2.072236	0.102955	0.058768
Zn5	Zn	1.405075	-0.279613	-0.433815
Zn6	Zn	1.905075	0.220387	0.066185
Zn7	Zn	1.397572	-0.396992	-0.615928
Zn8	Zn	1.897572	0.103008	-0.115928
O9	O	1.488680	-0.338307	-0.524878
O10	O	1.988680	0.161693	-0.024878
O11	O	1.725063	-0.295168	-0.586357
O12	O	2.225063	0.204832	-0.086357
O13	O	1.550022	-0.381504	-0.294014
O14	O	2.050022	0.118496	0.205986
O15	O	1.434577	-0.181324	-0.450795
O16	O	1.934577	0.318676	0.049205
O17	O	1.719480	-0.381470	-0.463437
O18	O	2.219480	0.118530	0.036563
O19	O	1.562973	-0.181298	-0.579165
O20	O	2.062973	0.318702	-0.079165
O21	O	1.427209	-0.295227	-0.288565
O22	O	1.927209	0.204773	0.211435
O23	O	1.257844	-0.295176	-0.457961
O24	O	1.757844	0.204824	0.042039
O25	O	1.421790	-0.381381	-0.761182
O26	O	1.921790	0.118619	-0.261182
O27	O	1.252332	-0.381414	-0.591759
O28	O	1.752332	0.118586	-0.091759
O29	O	1.555698	-0.295117	-0.755753
O30	O	2.055698	0.204883	-0.255753
O31	O	1.542747	-0.495322	-0.470602
O32	O	2.042747	0.004678	0.029398
O33	O	1.414422	-0.495284	-0.598951
O34	O	1.914422	0.004716	-0.098951
C35	C	1.217171	-0.338293	-0.524858
C36	C	1.717171	0.161707	-0.024858
C37	C	1.101017	-0.338305	-0.524875
C38	C	1.601017	0.161695	-0.024875
C39	C	1.046528	-0.381045	-0.590989
C40	C	1.546528	0.118955	-0.090989
C41	C	0.926477	-0.381057	-0.591008
C42	C	1.426477	0.118943	-0.091008
C43	C	1.476974	-0.520787	-0.536406
C44	C	1.976974	-0.020787	-0.036406
C45	C	1.472062	-0.598853	-0.541373
C46	C	1.972062	-0.098853	-0.041373
C47	C	1.536618	-0.635525	-0.476937
C48	C	2.036618	-0.135525	0.023063
C49	C	1.532005	-0.708876	-0.481614
C50	C	2.032005	-0.208876	0.018386
C51	C	1.462829	-0.745553	-0.550723
C52	C	1.962829	-0.245553	-0.050723
C53	C	1.398270	-0.708876	-0.615166
C54	C	1.898270	-0.208876	-0.115166
C55	C	1.402890	-0.635526	-0.610493
C56	C	1.902890	-0.135526	-0.110493
C57	C	1.445540	-0.967022	-0.568177
C58	C	1.945540	-0.467022	-0.068177
C59	C	1.440923	-1.040377	-0.572842
C60	C	1.940923	-0.540377	-0.072842
C61	C	1.574660	-1.040372	-0.439292
C62	C	2.074660	-0.540372	0.060708
C63	C	1.579269	-0.967021	-0.434621
C64	C	2.079269	-0.467021	0.065379
C65	C	1.514714	-0.930350	-0.499067
C66	C	2.014714	-0.430350	0.000933
C67	C	1.458109	-0.820530	-0.555503
C68	C	1.958109	-0.320530	-0.055503
C69	C	1.519440	-0.855374	-0.494292
C70	C	2.019440	-0.355374	0.005708
C71	C	1.761249	-0.338321	-0.524900
C72	C	2.261249	0.161679	-0.024900
C73	C	1.877402	-0.338327	-0.524909
C74	C	2.377402	0.161673	-0.024909
C75	C	1.488755	-0.338239	-0.797444
C76	C	1.988755	0.161761	-0.297444
C77	C	1.488787	-0.338210	-0.913596
C78	C	1.988787	0.161790	-0.413596
C79	C	1.500460	-0.155115	-0.513328
C80	C	2.000460	0.344885	-0.013328
C81	C	1.505479	-0.077049	-0.508406
C82	C	2.005479	0.422951	-0.008406
C83	C	1.549567	-0.380885	-0.968076
C84	C	2.049567	0.119115	-0.468076
C85	C	1.549602	-0.380856	-1.088125
C86	C	2.049602	0.119144	-0.588125
C87	C	1.488668	-0.338324	-0.253370
C88	C	1.988668	0.161676	0.246630
C89	C	1.488851	-0.338155	-0.137206
C90	C	1.988851	0.161845	0.362794
H91	H	0.924244	-0.301736	-0.468300
H92	H	1.424244	0.198264	0.031700
H93	H	1.601636	-0.417393	-1.134966
H94	H	2.101636	0.082607	-0.634966
H95	H	1.058790	-0.301720	-0.468290
H96	H	1.558790	0.198280	0.031710
O97	O	1.426708	-0.294662	-1.081232
O98	O	1.926708	0.205338	-0.581232
C99	C	1.356660	-0.334701	-1.020637
C100	C	1.856660	0.165299	-0.520637
H101	H	1.390103	-0.387943	-1.007752
H102	H	1.890103	0.112057	-0.507752
H103	H	1.344538	-0.306158	-0.942040
H104	H	1.844538	0.193842	-0.442040
H105	H	1.278698	-0.342377	-1.063118
H106	H	1.778698	0.157623	-0.563118
H107	H	1.592944	-0.605667	-0.420657
H108	H	2.092944	-0.105667	0.079343
O109	O	0.870554	-0.424612	-0.658644
O110	O	1.370554	0.075388	-0.158644
C111	C	0.809986	-0.384646	-0.723643
C112	C	1.309986	0.115354	-0.223643
H113	H	0.846485	-0.329351	-0.726763
H114	H	1.346485	0.170649	-0.226763
H115	H	0.807049	-0.410109	-0.805612
H116	H	1.307049	0.089891	-0.305612
H117	H	0.727451	-0.382159	-0.691116
H118	H	1.227451	0.117841	-0.191116
H119	H	1.436782	-0.301650	-0.955829
H120	H	1.936782	0.198350	-0.455829
H121	H	1.341950	-0.738744	-0.671440
H122	H	1.841950	-0.238744	-0.171440
H123	H	1.601581	-0.417440	-0.925843
H124	H	2.101581	0.082560	-0.425843
O125	O	1.373702	-1.075898	-0.640077
O126	O	1.873702	-0.575898	-0.140077
C127	C	1.317699	-1.027803	-0.695943
C128	C	1.817699	-0.527803	-0.195943
H129	H	1.363791	-0.975490	-0.696266
H130	H	1.863791	-0.475490	-0.196266
H131	H	1.305186	-1.048962	-0.779615
H132	H	1.805186	-0.548962	-0.279615
H133	H	1.238834	-1.020067	-0.657123
H134	H	1.738834	-0.520067	-0.157123
O135	O	1.097017	-0.424592	-0.658547
O136	O	1.597017	0.075408	-0.158547
C137	C	1.162722	-0.384612	-0.723564
C138	C	1.662722	0.115388	-0.223564
H139	H	1.182353	-0.331344	-0.683456
H140	H	1.682353	0.168656	-0.183456
H141	H	1.237700	-0.413175	-0.739222
H142	H	1.737700	0.086825	-0.239222
H143	H	1.121247	-0.376988	-0.800589
H144	H	1.621247	0.123012	-0.300589
H145	H	1.584572	-0.738731	-0.429143
H146	H	2.084572	-0.238731	0.070857
H147	H	1.635597	-0.937159	-0.378347
H148	H	2.135597	-0.437159	0.121653
H149	H	1.627218	-1.070237	-0.386825
H150	H	2.127218	-0.570237	0.113175
H151	H	1.392975	-0.937170	-0.620650
H152	H	1.892975	-0.437170	-0.120650
O153	O	1.340077	-0.600009	-0.673129
O154	O	1.840077	-0.100009	-0.173129
C155	C	1.278050	-0.648108	-0.735149
C156	C	1.778050	-0.148108	-0.235149
H157	H	1.271151	-0.700418	-0.695671
H158	H	1.771151	-0.200418	-0.195671
H159	H	1.197044	-0.626951	-0.744888
H160	H	1.697044	-0.126951	-0.244888
H161	H	1.315797	-0.655849	-0.815037
H162	H	1.815797	-0.155849	-0.315037
H163	H	1.575767	-0.825510	-0.438028
H164	H	2.075767	-0.325510	0.061972
H165	H	1.401784	-0.850401	-0.611769
H166	H	1.901784	-0.350401	-0.111769
