data_functionalizedCrystal
_audit_creation_method	'MofGen! by Chris Wilmer'
_symmetry_space_group_name_H-M	'P1'
_symmetry_Int_Tables_number	1
_symmetry_cell_setting	triclinic
loop_
_symmetry_equiv_pos_as_xyz
  x,y,z
_cell_length_a	17.699083
_cell_length_b	15.995350
_cell_length_c	16.176319
_cell_angle_alpha	89.995430
_cell_angle_beta	89.998611
_cell_angle_gamma	83.387695
loop_
_atom_site_label
_atom_site_type_symbol
_atom_site_fract_x
_atom_site_fract_y
_atom_site_fract_z
O1	O	1.004255	0.105885	-0.068627
O2	O	1.504255	0.605885	0.431373
O3	O	0.783899	0.119661	-0.068653
O4	O	1.283899	0.619661	0.431347
O5	O	0.900101	-0.009127	-0.068638
O6	O	1.400101	0.490873	0.431362
O7	O	0.888054	0.234673	-0.068641
O8	O	1.388054	0.734673	0.431359
O9	O	0.900085	-0.009135	0.068855
O10	O	1.400085	0.490865	0.568855
O11	O	0.783883	0.119653	0.068840
O12	O	1.283883	0.619653	0.568840
O13	O	1.004239	0.105877	0.068867
O14	O	1.504239	0.605877	0.568867
Cu15	Cu	0.894060	0.112764	0.081408
Cu16	Cu	1.394060	0.612764	0.581408
Cu17	Cu	0.894079	0.112774	-0.081194
Cu18	Cu	1.394079	0.612774	0.418806
O19	O	0.888038	0.234665	0.068852
O20	O	1.388038	0.734665	0.568852
C21	C	0.755694	0.119163	0.000090
C22	C	1.255694	0.619163	0.500090
C23	C	0.671673	0.117683	0.000080
C24	C	1.171673	0.617683	0.500080
C25	C	0.623178	0.193278	0.000079
C26	C	1.123178	0.693278	0.500079
C27	C	0.544232	0.191882	0.000090
C28	C	1.044232	0.691882	0.500090
C29	C	0.513783	0.114889	0.000095
C30	C	1.013783	0.614889	0.500095
C31	C	0.562285	0.039287	0.000098
C32	C	1.062285	0.539287	0.500098
C33	C	0.641229	0.040685	0.000094
C34	C	1.141229	0.540685	0.500094
C35	C	0.243912	0.033651	0.000119
C36	C	0.743912	0.533651	0.500119
C37	C	0.164962	0.032259	0.000121
C38	C	0.664962	0.532259	0.500121
C39	C	0.146916	0.184848	0.000115
C40	C	0.646916	0.684848	0.500115
C41	C	0.225860	0.186245	0.000110
C42	C	0.725860	0.686245	0.500110
C43	C	0.274354	0.110644	0.000118
C44	C	0.774354	0.610644	0.500118
C45	C	0.359956	0.112159	0.000108
C46	C	0.859956	0.612159	0.500108
C47	C	0.428183	0.113373	0.000099
C48	C	0.928183	0.613373	0.500099
C49	C	0.899595	-0.040324	0.000107
C50	C	1.399595	0.459676	0.500107
C51	C	0.898101	-0.133272	0.000102
C52	C	1.398101	0.366728	0.500102
C53	C	0.892739	-0.471008	0.000104
C54	C	1.392739	0.028992	0.500104
C55	C	0.809983	-0.423406	-0.000214
C56	C	1.309983	0.076594	0.499786
C57	C	0.811476	-0.326719	0.000096
C58	C	1.311476	0.173281	0.500096
C59	C	0.895399	-0.303453	0.000102
C60	C	1.395399	0.196547	0.500102
C61	C	0.936208	-0.344618	0.078621
C62	C	1.436208	0.155382	0.578621
C63	C	0.934129	-0.441250	0.078687
C64	C	1.434129	0.058750	0.578687
C65	C	0.935857	-0.441602	-0.077669
C66	C	1.435857	0.058398	0.422331
C67	C	0.935838	-0.344657	-0.078706
C68	C	1.435838	0.155343	0.421294
C69	C	0.896907	-0.208759	0.000104
C70	C	1.396907	0.291241	0.500104
C71	C	0.891234	-0.565703	0.000108
C72	C	1.391234	-0.065703	0.500108
C73	C	1.032445	0.106375	0.000122
C74	C	1.532445	0.606375	0.500122
C75	C	1.116465	0.107856	0.000126
C76	C	1.616465	0.607856	0.500126
C77	C	0.888544	0.265863	0.000105
C78	C	1.388544	0.765863	0.500105
C79	C	0.890037	0.358810	0.000104
C80	C	1.390037	0.858810	0.500104
N81	N	0.894052	0.112757	0.195773
N82	N	1.394052	0.612757	0.695773
N83	N	0.894092	0.112775	-0.195559
N84	N	1.394092	0.612775	0.304441
C85	C	0.945521	0.055753	0.239043
C86	C	1.445521	0.555753	0.739043
C87	C	0.945525	0.055752	0.325591
C88	C	1.445525	0.555752	0.825591
C89	C	0.894063	0.112760	0.368865
C90	C	1.394063	0.612760	0.868865
C91	C	0.842588	0.169767	0.325589
C92	C	1.342588	0.669767	0.825589
C93	C	0.842581	0.169763	0.239043
C94	C	1.342581	0.669763	0.739043
C95	C	0.842614	0.169782	0.674617
C96	C	1.342614	0.669782	1.174617
C97	C	0.842626	0.169783	0.761168
C98	C	1.342626	0.669783	1.261168
C99	C	0.945558	0.055772	0.761164
C100	C	1.445558	0.555772	1.261164
C101	C	0.945551	0.055768	0.674619
C102	C	1.445551	0.555768	1.174619
C103	C	0.894074	0.112771	0.631350
C104	C	1.394074	0.612771	1.131350
C105	C	0.894069	0.112770	0.537505
C106	C	1.394069	0.612770	1.037505
C107	C	0.894070	0.112765	0.462708
C108	C	1.394070	0.612765	0.962708
H109	H	0.537487	-0.023402	0.000115
H110	H	1.037487	0.476598	0.500115
C111	C	1.056197	-0.458083	-0.147852
C112	C	1.556197	0.041917	0.352148
C113	C	1.018226	-0.484644	-0.078382
C114	C	1.518226	0.015356	0.421618
H115	H	1.107046	-0.484655	-0.148283
H116	H	1.607046	0.015345	0.351717
H117	H	1.030826	-0.472814	-0.196552
H118	H	1.530826	0.027186	0.303448
H119	H	1.056479	-0.398767	-0.145827
H120	H	1.556479	0.101233	0.354173
H121	H	1.017939	-0.543961	-0.080410
H122	H	1.517939	-0.043961	0.419590
H123	H	1.043603	-0.469919	-0.029670
H124	H	1.543603	0.030081	0.470330
H125	H	0.504750	0.253440	0.000088
H126	H	1.004750	0.753440	0.500088
C127	C	0.706818	-0.231451	0.050377
C128	C	1.206818	0.268549	0.550377
C129	C	0.767868	-0.289015	0.076203
C130	C	1.267868	0.210985	0.576203
H131	H	0.679895	-0.208181	0.097367
H132	H	1.179895	0.291819	0.597367
H133	H	0.725529	-0.187691	0.019514
H134	H	1.225529	0.312309	0.519514
H135	H	0.673622	-0.259448	0.016744
H136	H	1.173622	0.240552	0.516744
H137	H	0.801067	-0.261016	0.109831
H138	H	1.301067	0.238984	0.609831
H139	H	0.749157	-0.332782	0.107079
H140	H	1.249157	0.167218	0.607079
H141	H	0.140174	-0.030442	0.000127
H142	H	0.640174	0.469558	0.500127
H143	H	0.906001	-0.317344	-0.136792
H144	H	1.406001	0.182656	0.363208
H145	H	0.800716	0.216208	0.796401
H146	H	1.300716	0.716208	1.296401
H147	H	0.283388	-0.027909	0.000126
H148	H	0.783388	0.472091	0.500126
H149	H	0.107421	0.246406	0.000113
H150	H	0.607421	0.746406	0.500113
C151	C	1.047306	-0.056934	0.752465
C152	C	1.547306	0.443066	1.252465
C153	C	1.002136	-0.006900	0.808727
C154	C	1.502136	0.493100	1.308727
H155	H	1.082236	-0.095619	0.781829
H156	H	1.582236	0.404381	1.281829
H157	H	1.015801	-0.087005	0.718716
H158	H	1.515801	0.412995	1.218716
H159	H	1.074524	-0.022107	0.718704
H160	H	1.574524	0.477893	1.218704
H161	H	0.974913	-0.041726	0.842485
H162	H	1.474913	0.458274	1.342485
H163	H	1.033645	0.023173	0.842491
H164	H	1.533645	0.523173	1.342491
C165	C	0.304153	0.276346	-0.070594
C166	C	0.804153	0.776346	0.429406
C167	C	0.259322	0.270882	0.000094
C168	C	0.759322	0.770882	0.500094
H169	H	0.324804	0.328601	-0.070606
H170	H	0.824804	0.828601	0.429394
H171	H	0.344333	0.231532	-0.070587
H172	H	0.844333	0.731532	0.429413
H173	H	0.273719	0.272622	-0.118531
H174	H	0.773719	0.772622	0.381469
H175	H	0.289757	0.274598	0.048030
H176	H	0.789757	0.774598	0.548030
H177	H	0.219136	0.315707	0.000094
H178	H	0.719136	0.815707	0.500094
C179	C	0.943778	-0.521959	0.204174
C180	C	1.443778	-0.021959	0.704174
C181	C	0.893930	-0.465886	0.157907
C182	C	1.393930	0.034114	0.657907
H183	H	0.918957	-0.537160	0.253083
H184	H	1.418957	-0.037160	0.753083
H185	H	0.958690	-0.570963	0.172310
H186	H	1.458690	-0.070963	0.672310
H187	H	0.987487	-0.495773	0.218519
H188	H	1.487487	0.004227	0.718519
H189	H	0.850223	-0.492074	0.143557
H190	H	1.350223	0.007926	0.643557
H191	H	0.879006	-0.416874	0.189777
H192	H	1.379006	0.083126	0.689777
H193	H	0.800700	0.216198	0.639394
H194	H	1.300700	0.716198	1.139394
C195	C	0.680926	-0.088941	-0.070592
C196	C	1.180926	0.411059	0.429408
C197	C	0.694541	-0.042411	0.000088
C198	C	1.194541	0.457589	0.500088
H199	H	0.713843	-0.140239	-0.070594
H200	H	1.213843	0.359761	0.429406
H201	H	0.629560	-0.100792	-0.070582
H202	H	1.129560	0.399208	0.429418
H203	H	0.690156	-0.057350	-0.118534
H204	H	1.190156	0.442650	0.381466
H205	H	0.685305	-0.073999	0.048030
H206	H	1.185305	0.426001	0.548030
H207	H	0.745919	-0.030562	0.000086
H208	H	1.245919	0.469438	0.500086
H209	H	0.997038	-0.329419	-0.083442
H210	H	1.497038	0.170581	0.416558
C211	C	0.796897	0.220405	0.458257
C212	C	1.296897	0.720405	0.958257
C213	C	0.786020	0.232433	0.373154
C214	C	1.286020	0.732433	0.873154
H215	H	0.761978	0.259099	0.487619
H216	H	1.261978	0.759099	0.987619
H217	H	0.788679	0.164542	0.472446
H218	H	1.288679	0.664542	0.972446
H219	H	0.847411	0.229430	0.472422
H220	H	1.347411	0.729430	0.972422
H221	H	0.735508	0.223402	0.358989
H222	H	1.235508	0.723402	0.858989
H223	H	0.794232	0.288309	0.358959
H224	H	1.294232	0.788309	0.858959
C225	C	0.740841	0.282470	0.247734
C226	C	1.240841	0.782470	0.747734
C227	C	0.786007	0.232427	0.191477
C228	C	1.286007	0.732427	0.691477
H229	H	0.705916	0.321158	0.218368
H230	H	1.205916	0.821158	0.718368
H231	H	0.713623	0.247655	0.281496
H232	H	1.213623	0.747655	0.781496
H233	H	0.772353	0.312545	0.281484
H234	H	1.272353	0.812545	0.781484
H235	H	0.754495	0.202348	0.157731
H236	H	1.254495	0.702348	0.657731
H237	H	0.813227	0.267246	0.157700
H238	H	1.313227	0.767246	0.657700
H239	H	0.647962	0.255975	0.000074
H240	H	1.147962	0.755975	0.500074
H241	H	0.987435	0.009335	0.360821
H242	H	1.487435	0.509335	0.860821
H243	H	0.987431	0.009334	0.203815
H244	H	1.487431	0.509334	0.703815
C245	C	0.874029	-0.398144	-0.205255
C246	C	1.374029	0.101856	0.294745
C247	C	0.899344	-0.469244	-0.158013
C248	C	1.399344	0.030756	0.341987
H249	H	0.851487	-0.415211	-0.254854
H250	H	1.351487	0.084789	0.245146
H251	H	0.837509	-0.362607	-0.174604
H252	H	1.337509	0.137393	0.325396
H253	H	0.915929	-0.368403	-0.218356
H254	H	1.415929	0.131597	0.281644
H255	H	0.857443	-0.498982	-0.144907
H256	H	1.357443	0.001018	0.355093
H257	H	0.935867	-0.504795	-0.188670
H258	H	1.435867	-0.004795	0.311330
H259	H	0.779397	-0.298228	-0.056190
H260	H	1.279397	0.201772	0.443810
C261	C	0.961799	-0.058340	0.577478
C262	C	1.461799	0.441660	1.077478
C263	C	1.002050	-0.007044	0.627132
C264	C	1.502050	0.492956	1.127132
H265	H	0.996659	-0.097159	0.548184
H266	H	1.496659	0.402841	1.048184
H267	H	0.930232	-0.088260	0.611307
H268	H	1.430232	0.411740	1.111307
H269	H	0.931217	-0.024389	0.539259
H270	H	1.431217	0.475611	1.039259
H271	H	1.032628	-0.040995	0.665356
H272	H	1.532628	0.459005	1.165356
H273	H	1.033630	0.022878	0.593301
H274	H	1.533630	0.522878	1.093301
H275	H	0.776912	-0.441867	-0.056522
H276	H	1.276912	0.058133	0.443478
C277	C	0.761426	-0.536622	0.072637
C278	C	1.261426	-0.036622	0.572637
C279	C	0.765520	-0.449763	0.075369
C280	C	1.265520	0.050237	0.575369
H281	H	0.733983	-0.552894	0.119304
H282	H	1.233983	-0.052894	0.619304
H283	H	0.736160	-0.550222	0.023476
H284	H	1.236160	-0.050222	0.523476
H285	H	0.811362	-0.565657	0.073294
H286	H	1.311362	-0.065657	0.573294
H287	H	0.715584	-0.420728	0.074706
H288	H	1.215584	0.079272	0.574706
H289	H	0.790785	-0.436156	0.124543
H290	H	1.290785	0.063844	0.624543
H291	H	0.994887	-0.473622	0.082254
H292	H	1.494887	0.026378	0.582254
H293	H	0.997864	-0.330618	0.081546
H294	H	1.497864	0.169382	0.581546
C295	C	0.934927	-0.343566	0.227043
C296	C	1.434927	0.156434	0.727043
C297	C	0.897928	-0.306242	0.157499
C298	C	1.397928	0.193758	0.657499
H299	H	0.911293	-0.319870	0.275736
H300	H	1.411293	0.180130	0.775736
H301	H	0.931747	-0.402433	0.226226
H302	H	1.431747	0.097567	0.726226
H303	H	0.986831	-0.333693	0.226336
H304	H	1.486831	0.166307	0.726336
H305	H	0.846025	-0.316119	0.158203
H306	H	1.346025	0.183881	0.658203
H307	H	0.901100	-0.247361	0.158317
H308	H	1.401100	0.252639	0.658317
