data_functionalizedCrystal
_audit_creation_method	'MofGen! by Chris Wilmer'
_symmetry_space_group_name_H-M	'P1'
_symmetry_Int_Tables_number	1
_symmetry_cell_setting	triclinic
loop_
_symmetry_equiv_pos_as_xyz
  x,y,z
_cell_length_a	29.839126
_cell_length_b	10.686220
_cell_length_c	10.686285
_cell_angle_alpha	89.654569
_cell_angle_beta	85.615832
_cell_angle_gamma	85.649625
loop_
_atom_site_label
_atom_site_type_symbol
_atom_site_fract_x
_atom_site_fract_y
_atom_site_fract_z
Zn1	Zn	-0.191063	-1.956164	-0.352157
Zn2	Zn	-0.109788	-1.972163	-0.561917
Zn3	Zn	-0.121229	-1.746396	-0.368287
Zn4	Zn	-0.190171	-1.762489	-0.577978
O5	O	-0.153063	-1.859303	-0.465084
O6	O	-0.175867	-2.133824	-0.366510
O7	O	-0.048439	-1.942175	-0.536260
O8	O	-0.135654	-1.760791	-0.190605
O9	O	-0.116154	-2.145579	-0.520619
O10	O	-0.186961	-1.914907	-0.178755
O11	O	-0.056844	-1.776304	-0.394001
O12	O	-0.134789	-1.572992	-0.409575
O13	O	-0.253156	-1.788220	-0.547993
O14	O	-0.185441	-1.584817	-0.563634
O15	O	-0.253812	-1.930512	-0.382083
O16	O	-0.115289	-1.957780	-0.739589
O17	O	-0.174347	-1.803734	-0.751389
C18	C	-0.161260	-1.533390	-0.490099
C19	C	-0.164776	-1.393965	-0.500830
C20	C	-0.143489	-1.884274	-0.791002
C21	C	-0.139405	-1.895071	-0.930423
C22	C	-0.270241	-1.859377	-0.465030
C23	C	-0.320175	-1.859409	-0.465007
C24	C	-0.634201	-1.773055	-0.390806
C25	C	-0.821876	-1.773084	-0.390716
O26	O	-0.849865	-1.699610	-0.327757
N27	N	-0.840965	-1.859450	-0.464768
C28	C	-0.813133	-1.945809	-0.538853
O29	O	-0.833676	-2.019261	-0.601846
C30	C	-0.625459	-1.945774	-0.538949
C31	C	-0.606372	-1.859410	-0.464883
C32	C	-0.615114	-1.686698	-0.316747
C33	C	-0.568198	-1.686696	-0.316765
C34	C	-0.540369	-1.773051	-0.390842
C35	C	-0.559457	-1.859409	-0.464901
C36	C	-0.597628	-2.032126	-0.613040
C37	C	-0.550707	-2.032108	-0.613060
C38	C	-0.531620	-1.945744	-0.538994
C39	C	-0.484712	-1.945762	-0.538996
N40	N	-0.465622	-1.859396	-0.464944
C41	C	-0.493451	-1.773041	-0.390867
C42	C	-0.911665	-1.945823	-0.538796
C43	C	-0.958583	-1.945834	-0.538770
C44	C	-0.967323	-1.773107	-0.390635
C45	C	-0.920404	-1.773103	-0.390654
C46	C	-0.892575	-1.859458	-0.464744
C47	C	-0.394924	-1.773044	-0.390910
C48	C	-0.348003	-1.773053	-0.390930
C49	C	-0.339268	-1.945776	-0.539071
C50	C	-0.386184	-1.945771	-0.539045
C51	C	-0.414012	-1.859395	-0.464962
O52	O	-0.456696	-2.019188	-0.601933
O53	O	-0.472899	-1.699582	-0.327905
C54	C	-0.681117	-1.773057	-0.390788
C55	C	-0.700204	-1.859414	-0.464847
C56	C	-0.672376	-1.945769	-0.538924
C57	C	-0.747123	-1.859425	-0.464821
C58	C	-0.774951	-1.773070	-0.390744
C59	C	-0.755861	-1.686704	-0.316693
C60	C	-0.708946	-1.686702	-0.316711
C61	C	-0.691465	-2.032135	-0.612975
C62	C	-0.738382	-2.032131	-0.612950
C63	C	-0.766210	-1.945776	-0.538873
C64	C	-0.036342	-1.859295	-0.465042
C65	C	0.013588	-1.859479	-0.464693
C66	C	-0.144834	-2.186489	-0.439974
C67	C	-0.141328	-2.325916	-0.429273
C68	C	-0.162683	-1.834269	-0.137891
C69	C	-0.166783	-1.823601	0.001539
H70	H	-0.332466	-1.702726	-0.330611
H71	H	-0.118562	-1.374322	-0.359801
C72	C	-0.997939	-1.678107	-0.309155
C73	C	-1.031066	-1.583804	-0.371078
C74	C	-1.061685	-1.488802	-0.289612
C75	C	-1.059176	-1.488103	-0.146222
C76	C	-1.026047	-1.582409	-0.084291
C77	C	-0.995429	-1.677411	-0.165757
H78	H	-1.032925	-1.584318	-0.477231
H79	H	-1.086209	-1.418990	-0.335458
H80	H	-1.081841	-1.417777	-0.085916
H81	H	-1.024189	-1.581895	0.021862
H82	H	-0.970905	-1.747223	-0.119911
C83	C	-0.195532	-1.328577	-0.594697
C84	C	-0.199125	-1.184471	-0.605671
C85	C	-0.229881	-1.119084	-0.699536
C86	C	-0.257043	-1.197803	-0.782428
C87	C	-0.253452	-1.341918	-0.771456
C88	C	-0.222696	-1.407305	-0.677591
H89	H	-0.179017	-1.126191	-0.544308
H90	H	-0.232540	-1.012401	-0.707658
H91	H	-0.279811	-1.149400	-0.851912
H92	H	-0.273560	-1.400198	-0.832819
H93	H	-0.220037	-1.513988	-0.669470
C94	C	-0.202672	-1.729783	-0.933072
C95	C	-0.202029	-1.588565	-0.962038
C96	C	-0.237920	-1.494746	-0.896640
C97	C	-0.274453	-1.542146	-0.802275
C98	C	-0.275098	-1.683371	-0.773304
C99	C	-0.239208	-1.777190	-0.838702
H100	H	-0.174984	-1.553471	-1.031897
H101	H	-0.237442	-1.390202	-0.918087
H102	H	-0.301021	-1.472695	-0.753863
H103	H	-0.302144	-1.718465	-0.703445
H104	H	-0.239685	-1.881734	-0.817255
H105	H	-0.112837	-1.964515	-0.978839
H106	H	-0.552662	-1.616366	-0.256458
C107	C	-0.425529	-1.678037	-0.309412
C108	C	-0.422348	-1.536218	-0.330584
C109	C	-0.452954	-1.441218	-0.249080
C110	C	-0.486740	-1.488038	-0.146404
C111	C	-0.489922	-1.629865	-0.125227
C112	C	-0.459317	-1.724864	-0.206731
H113	H	-0.397337	-1.501552	-0.406596
H114	H	-0.450598	-1.336229	-0.264757
H115	H	-0.509396	-1.417714	-0.086069
H116	H	-0.514934	-1.664530	-0.049215
H117	H	-0.461672	-1.829854	-0.191054
C118	C	-0.979574	-2.040849	-0.620233
C119	C	-1.010297	-1.994047	-0.722881
C120	C	-1.031285	-2.089061	-0.804353
C121	C	-1.021549	-2.230877	-0.783176
C122	C	-0.990825	-2.277686	-0.680523
C123	C	-0.969837	-2.182671	-0.599051
H124	H	-1.017505	-1.889060	-0.738562
H125	H	-1.054029	-2.054410	-0.880344
H126	H	-1.037086	-2.301212	-0.843487
H127	H	-0.983617	-2.382672	-0.664843
H128	H	-0.947093	-2.217323	-0.523061
C129	C	-0.645720	-1.591701	-0.235247
C130	C	-0.678849	-1.497361	-0.297116
C131	C	-0.709452	-1.402365	-0.215601
C132	C	-0.706925	-1.401708	-0.072216
C133	C	-0.673794	-1.496051	-0.010340
C134	C	-0.643191	-1.591048	-0.091855
H135	H	-0.680721	-1.497844	-0.403265
H136	H	-0.733977	-1.332526	-0.261407
H137	H	-0.729578	-1.331386	-0.011874
H138	H	-0.671922	-1.495568	0.095809
H139	H	-0.618666	-1.660887	-0.046049
C140	C	-0.899410	-1.678095	-0.309190
C141	C	-0.868685	-1.724896	-0.206545
C142	C	-0.847695	-1.629882	-0.125080
C143	C	-0.857429	-1.488066	-0.146261
C144	C	-0.888155	-1.441258	-0.248911
C145	C	-0.909145	-1.536273	-0.330376
H146	H	-0.861479	-1.829883	-0.190862
H147	H	-0.824949	-1.664533	-0.049092
H148	H	-0.841890	-1.417731	-0.085956
H149	H	-0.895362	-1.336271	-0.264594
H150	H	-0.931891	-1.501621	-0.406364
C151	C	-0.881062	-2.040841	-0.620290
C152	C	-0.884248	-2.182653	-0.599080
C153	C	-0.853650	-2.277681	-0.680568
C154	C	-0.819865	-2.230896	-0.783267
C155	C	-0.816677	-2.089077	-0.804482
C156	C	-0.847275	-1.994049	-0.722994
H157	H	-0.909259	-2.217292	-0.523052
H158	H	-0.856010	-2.382665	-0.664863
H159	H	-0.797214	-2.301241	-0.843590
H160	H	-0.791666	-2.054438	-0.880510
H161	H	-0.844915	-1.889065	-0.738699
C162	C	-0.407190	-2.040760	-0.620511
C163	C	-0.437911	-1.993907	-0.723147
C164	C	-0.458916	-2.088880	-0.804625
C165	C	-0.449201	-2.230706	-0.783467
C166	C	-0.418479	-2.277566	-0.680826
C167	C	-0.397474	-2.182593	-0.599348
H168	H	-0.445103	-1.888912	-0.738814
H169	H	-0.481658	-2.054190	-0.880607
H170	H	-0.464750	-2.301011	-0.843782
H171	H	-0.411287	-2.382561	-0.665160
H172	H	-0.374732	-2.217283	-0.523366
H173	H	-0.528051	-2.102437	-0.673386
C174	C	-0.618608	-2.127154	-0.694504
C175	C	-0.608213	-2.127843	-0.837895
C176	C	-0.629188	-2.222890	-0.919357
C177	C	-0.660559	-2.317249	-0.857428
C178	C	-0.670956	-2.316564	-0.714030
C179	C	-0.649980	-2.221517	-0.632567
H180	H	-0.584989	-2.057989	-0.883745
H181	H	-0.621491	-2.223396	-1.025511
H182	H	-0.676086	-2.387608	-0.917732
H183	H	-0.694180	-2.386417	-0.668180
H184	H	-0.657677	-2.221010	-0.526414
H185	H	-0.693410	-1.616376	-0.256398
H186	H	-0.778528	-1.616395	-0.256371
H187	H	-0.316602	-2.016087	-0.599378
H188	H	-0.668811	-2.102453	-0.673304
H189	H	-0.753917	-2.102470	-0.673261
