data_functionalizedCrystal
_audit_creation_method	'MofGen! by Chris Wilmer'
_symmetry_space_group_name_H-M	'P1'
_symmetry_Int_Tables_number	1
_symmetry_cell_setting	triclinic
loop_
_symmetry_equiv_pos_as_xyz
  x,y,z
_cell_length_a	22.010155
_cell_length_b	14.853567
_cell_length_c	14.853567
_cell_angle_alpha	96.365070
_cell_angle_beta	89.985277
_cell_angle_gamma	90.001114
loop_
_atom_site_label
_atom_site_type_symbol
_atom_site_fract_x
_atom_site_fract_y
_atom_site_fract_z
O1	O	0.050478	-1.196364	0.117684
O2	O	0.050488	-0.933904	0.131705
O3	O	0.050484	-1.072144	-0.006535
O4	O	0.050481	-1.058123	0.255924
O5	O	-0.050566	-1.072135	-0.006499
O6	O	-0.050563	-0.933894	0.131742
O7	O	-0.050572	-1.196354	0.117720
Cu8	Cu	-0.059794	-1.065123	0.124734
Cu9	Cu	0.059710	-1.065135	0.124691
O10	O	-0.050569	-1.058114	0.255961
C11	C	-0.000036	-0.900311	0.131088
C12	C	-0.000032	-0.800227	0.129184
C13	C	-0.000039	-1.071504	-0.040106
C14	C	-0.000034	-1.069601	-0.140189
N15	N	-0.143847	-1.065122	0.124764
C16	C	-0.436457	-1.003888	0.185905
C17	C	-0.372850	-1.003886	0.185913
O18	O	-0.339957	-0.951796	0.237934
N19	N	-0.341031	-1.065115	0.124730
C20	C	-0.372823	-1.126344	0.063528
O21	O	-0.339918	-1.178424	0.011487
C22	C	-0.436429	-1.126341	0.063516
C23	C	-0.468245	-1.065114	0.124710
C24	C	-0.468273	-0.942665	0.247093
C25	C	-0.531876	-0.942669	0.247086
C26	C	-0.563664	-1.003895	0.185891
C27	C	-0.531848	-1.065118	0.124703
C28	C	-0.468220	-1.187566	0.002311
C29	C	-0.531831	-1.187557	0.002304
C30	C	-0.563647	-1.126330	0.063498
C31	C	-0.627239	-1.126348	0.063500
N32	N	-0.659058	-1.065119	0.124684
C33	C	-0.627270	-1.003892	0.185879
C34	C	-0.239245	-1.126344	0.063556
C35	C	-0.175640	-1.126352	0.063572
C36	C	-0.175671	-1.003892	0.185956
C37	C	-0.239277	-1.003889	0.185944
C38	C	-0.271064	-1.065115	0.124740
C39	C	-0.760841	-1.003905	0.185860
C40	C	-0.824450	-1.003917	0.185849
C41	C	-0.824414	-1.126373	0.063463
C42	C	-0.760810	-1.126365	0.063475
C43	C	-0.729026	-1.065124	0.124677
O44	O	-0.660172	-1.178409	0.011503
O45	O	-0.660183	-0.951814	0.237903
N46	N	0.143762	-1.065143	0.124654
C47	C	-0.000047	-1.229947	0.118337
C48	C	-0.000047	-1.330031	0.120241
C49	C	-0.000045	-0.387693	0.039019
C50	C	-0.000046	-0.366412	0.203251
C51	C	-0.000044	-0.460446	0.205042
C52	C	-0.000041	-0.518108	0.123819
C53	C	-0.000041	-0.481736	0.040806
C54	C	-0.000039	-0.496825	0.288053
C55	C	-0.000036	-0.590864	0.289846
C56	C	-0.000038	-0.648528	0.208623
C57	C	-0.000038	-0.612150	0.125607
C58	C	-0.000035	-0.669812	0.044384
C59	C	-0.000040	-0.633437	-0.038633
C60	C	-0.000043	-0.539399	-0.040417
C61	C	-0.000035	-0.742565	0.210407
C62	C	-0.000031	-0.763855	0.046172
C63	C	-0.000042	-0.979435	-0.552723
C64	C	-0.000048	-1.143668	-0.574004
C65	C	-0.000044	-1.145458	-0.479970
C66	C	-0.000040	-1.064235	-0.422309
C67	C	-0.000040	-0.981223	-0.458680
C68	C	-0.000051	-1.228469	-0.443591
C69	C	-0.000048	-1.230262	-0.349552
C70	C	-0.000040	-1.149039	-0.291889
C71	C	-0.000039	-1.066023	-0.328266
C72	C	-0.000035	-0.984800	-0.270604
C73	C	-0.000030	-0.901783	-0.306979
C74	C	-0.000032	-0.899999	-0.401017
C75	C	-0.000037	-1.150823	-0.197851
C76	C	-0.000033	-0.986588	-0.176561
C77	C	-0.000044	-1.058754	0.289531
C78	C	-0.000046	-1.060657	0.389615
H79	H	-0.850352	-0.954058	0.235684
O80	O	-0.141332	-1.192388	-0.002436
H81	H	-0.091760	-1.182109	0.007842
H82	H	-0.265123	-1.176209	0.013719
O83	O	-0.858703	-1.192410	-0.002540
H84	H	-0.887667	-1.154402	-0.046430
H85	H	-0.000035	-0.911844	-0.582344
H86	H	-0.000043	-0.319459	0.269379
O87	O	-0.000031	-0.814183	-0.244778
H88	H	-0.000033	-0.756155	-0.285864
O89	O	-0.000028	-0.781800	0.299935
H90	H	-0.041212	-0.824140	0.304693
O91	O	-0.000042	-0.500163	-0.129949
H92	H	-0.041231	-0.523307	-0.168965
O93	O	-0.433914	-1.253595	-0.063700
H94	H	-0.466714	-1.296151	-0.106258
H95	H	-0.734906	-1.176230	0.013655
H96	H	-0.557709	-1.237414	-0.047539
O97	O	-0.000064	-1.316070	-0.505778
H98	H	-0.000059	-1.300878	-0.577279
H99	H	-0.000027	-0.920445	-0.129618
H100	H	-0.000052	-1.297860	-0.319944
H101	H	-0.000032	-0.810798	-0.019971
H102	H	-0.000046	-1.218414	-0.168238
O103	O	-0.141373	-0.937847	0.251949
H104	H	-0.153586	-0.949413	0.322256
O105	O	-0.000041	-0.695631	-0.126238
H106	H	-0.000041	-0.767130	-0.111041
H107	H	-0.000028	-0.832411	-0.430643
O108	O	-0.000050	-0.348470	-0.050520
H109	H	-0.000052	-0.273392	-0.038124
H110	H	-0.000034	-0.449870	0.354180
O111	O	-0.000046	-0.630098	0.379379
H112	H	-0.000055	-0.574202	0.435557
O113	O	-0.000058	-1.231270	-0.636189
H114	H	-0.000059	-1.216081	-0.707690
H115	H	-0.734969	-0.954036	0.235695
H116	H	-0.557776	-0.892810	0.296912
H117	H	-0.442397	-0.892803	0.296925
H118	H	-0.265178	-0.954033	0.235773
