data_functionalizedCrystal
_audit_creation_method	'MofGen! by Chris Wilmer'
_symmetry_space_group_name_H-M	'P1'
_symmetry_Int_Tables_number	1
_symmetry_cell_setting	triclinic
loop_
_symmetry_equiv_pos_as_xyz
  x,y,z
_cell_length_a	12.759401
_cell_length_b	16.625546
_cell_length_c	12.759393
_cell_angle_alpha	89.963756
_cell_angle_beta	89.980163
_cell_angle_gamma	90.023993
loop_
_atom_site_label
_atom_site_type_symbol
_atom_site_fract_x
_atom_site_fract_y
_atom_site_fract_z
Zn1	Zn	1.606198	-0.320921	-0.593986
Zn2	Zn	1.606069	-0.455778	-0.418292
Zn3	Zn	1.430500	-0.320966	-0.418322
Zn4	Zn	1.430465	-0.455719	-0.593930
O5	O	1.518308	-0.388346	-0.506132
O6	O	1.753202	-0.338816	-0.570692
O7	O	1.582740	-0.437938	-0.271275
O8	O	1.453876	-0.208128	-0.441660
O9	O	1.753107	-0.437894	-0.441610
O10	O	1.582960	-0.208094	-0.570720
O11	O	1.453751	-0.338893	-0.271297
O12	O	1.283475	-0.338836	-0.441605
O13	O	1.453816	-0.437794	-0.740958
O14	O	1.283449	-0.437838	-0.570623
O15	O	1.582926	-0.338758	-0.741000
O16	O	1.582706	-0.568602	-0.441555
O17	O	1.453690	-0.568559	-0.570595
C18	C	1.245341	-0.388336	-0.506112
C19	C	1.128564	-0.388351	-0.506128
C20	C	1.073716	-0.439980	-0.573202
C21	C	0.963992	-0.439983	-0.573223
C22	C	0.963974	-0.336726	-0.439086
C23	C	1.073696	-0.336720	-0.439071
C24	C	1.518209	-0.597837	-0.506088
C25	C	1.518262	-0.687458	-0.506105
C26	C	1.518446	-1.015633	-0.506214
C27	C	1.518391	-0.924325	-0.506187
C28	C	1.518353	-0.851549	-0.506159
C29	C	1.518300	-0.760234	-0.506132
C30	C	1.792341	-0.388356	-0.506154
C31	C	1.909118	-0.388361	-0.506163
C32	C	1.518382	-0.388264	-0.780166
C33	C	1.518413	-0.388230	-0.896943
C34	C	1.518437	-0.178037	-0.506200
C35	C	1.518491	-0.088416	-0.506228
C36	C	1.451272	-0.336647	-0.951815
C37	C	1.451297	-0.336623	-1.061539
C38	C	1.585611	-0.439765	-1.061509
C39	C	1.585581	-0.439793	-0.951786
C40	C	1.518296	-0.388369	-0.233165
C41	C	1.518468	-0.388177	-0.116389
H42	H	0.919340	-0.482023	-0.627843
Cl43	Cl	1.366828	-0.271829	-0.882873
Cl44	Cl	1.670049	-0.504581	-1.130462
H45	H	1.396623	-0.294620	-1.106212
Cl46	Cl	1.669989	-0.504648	-0.882798
Cl47	Cl	1.142653	-0.271804	-0.354749
Cl48	Cl	1.142690	-0.504885	-0.657505
Cl49	Cl	0.894989	-0.271824	-0.354789
