data_functionalizedCrystal
_audit_creation_method	'MofGen! by Chris Wilmer'
_symmetry_space_group_name_H-M	'P1'
_symmetry_Int_Tables_number	1
_symmetry_cell_setting	triclinic
loop_
_symmetry_equiv_pos_as_xyz
  x,y,z
_cell_length_a	19.077105
_cell_length_b	25.639240
_cell_length_c	25.639234
_cell_angle_alpha	90.031766
_cell_angle_beta	92.315122
_cell_angle_gamma	87.728718
loop_
_atom_site_label
_atom_site_type_symbol
_atom_site_fract_x
_atom_site_fract_y
_atom_site_fract_z
Zn1	Zn	1.075928	-0.240350	0.327661
Zn2	Zn	1.075827	-0.327775	0.240211
Zn3	Zn	0.958234	-0.236840	0.236730
Zn4	Zn	0.958182	-0.324236	0.324108
O5	O	1.017043	-0.282300	0.282177
O6	O	1.174405	-0.254897	0.319004
O7	O	1.060207	-0.315724	0.166583
O8	O	0.973910	-0.164142	0.248822
O9	O	1.174331	-0.319128	0.254755
O10	O	1.060379	-0.166721	0.315629
O11	O	0.973812	-0.248914	0.164026
O12	O	0.859737	-0.245483	0.245378
O13	O	0.973822	-0.313097	0.397745
O14	O	0.859698	-0.309693	0.309574
O15	O	1.060329	-0.251466	0.400355
O16	O	1.060157	-0.400469	0.251310
O17	O	0.973724	-0.397869	0.312949
C18	C	0.834180	-0.276823	0.276713
C19	C	0.755951	-0.274493	0.274387
C20	C	0.719197	-0.306879	0.306666
C21	C	0.645692	-0.304683	0.304483
C22	C	0.608942	-0.270102	0.270020
C23	C	0.645701	-0.237712	0.237740
C24	C	0.719205	-0.239907	0.239925
C25	C	0.389111	-0.259947	0.259907
C26	C	0.315602	-0.257756	0.257723
C27	C	0.315598	-0.324726	0.324468
C28	C	0.389103	-0.326919	0.326648
C29	C	0.425855	-0.294528	0.294370
N30	N	0.533809	-0.267857	0.267787
N31	N	0.500988	-0.296770	0.296606
C32	C	1.016943	-0.418140	0.282133
C33	C	1.016965	-0.476255	0.282134
C34	C	1.062089	-0.837925	0.317024
C35	C	1.062110	-0.892530	0.317036
O36	O	1.100358	-0.921875	0.346655
N37	N	1.017140	-0.918542	0.282231
C38	C	0.972141	-0.889946	0.247416
O39	O	0.933892	-0.917086	0.217813
C40	C	0.972118	-0.835342	0.247408
C41	C	1.017096	-0.809333	0.282211
C42	C	1.107063	-0.811916	0.351825
C43	C	1.107043	-0.757315	0.351813
C44	C	1.062049	-0.728723	0.317000
C45	C	1.017076	-0.754732	0.282199
C46	C	0.927116	-0.806748	0.212596
C47	C	0.927096	-0.752140	0.212591
C48	C	0.972074	-0.726131	0.247395
C49	C	0.972062	-0.671539	0.247374
N50	N	1.017032	-0.645527	0.282179
C51	C	1.062026	-0.674119	0.316992
C52	C	0.972194	-1.004619	0.247437
C53	C	0.972221	-1.059222	0.247442
C54	C	1.062189	-1.061801	0.317062
C55	C	1.062165	-1.007197	0.317054
C56	C	1.017164	-0.978606	0.282242
C57	C	1.061981	-0.559452	0.316964
C58	C	1.061959	-0.504846	0.316947
C59	C	0.971988	-0.502271	0.247329
C60	C	0.972013	-0.556873	0.247344
C61	C	1.017011	-0.585462	0.282165
O62	O	0.933831	-0.642160	0.217771
O63	O	1.100262	-0.646972	0.346594
C64	C	1.200619	-0.287799	0.287664
C65	C	1.278848	-0.290142	0.290002
C66	C	1.017081	-0.282278	0.418552
C67	C	1.017097	-0.282269	0.476666
C68	C	1.017162	-0.145931	0.282234
C69	C	1.017212	-0.087818	0.282257
C70	C	1.017045	-0.282286	0.146335
C71	C	1.017165	-0.282152	0.088225
C72	C	1.062101	-0.317014	0.729184
C73	C	1.062094	-0.317025	0.674580
O74	O	1.100326	-0.346624	0.647468
N75	N	1.017112	-0.282244	0.645941
C76	C	0.972130	-0.247454	0.671909
O77	O	0.933868	-0.217871	0.642535
C78	C	0.972134	-0.247446	0.726512
C79	C	1.017124	-0.282226	0.755149
C80	C	1.107087	-0.351792	0.757821
C81	C	1.107095	-0.351780	0.812422
C82	C	1.062118	-0.316991	0.838386
C83	C	1.017132	-0.282214	0.809749
C84	C	0.927149	-0.212659	0.752479
C85	C	0.927157	-0.212654	0.807086
C86	C	0.972146	-0.247434	0.835723
C87	C	0.972163	-0.247414	0.890315
N88	N	1.017145	-0.282195	0.918954
C89	C	1.062122	-0.316984	0.892989
C90	C	0.972123	-0.247473	0.557238
C91	C	0.972122	-0.247478	0.502635
C92	C	1.062085	-0.317050	0.505310
C93	C	1.062090	-0.317043	0.559914
C94	C	1.017105	-0.282254	0.585877
C95	C	1.062136	-0.316957	1.007655
C96	C	1.062143	-0.316940	1.062260
C97	C	0.972177	-0.247370	1.059581
C98	C	0.972173	-0.247384	1.004980
C99	C	1.017155	-0.282182	0.979019
O100	O	0.933949	-0.217832	0.917461
O101	O	1.100371	-0.346566	0.922369
H102	H	0.285683	-0.229590	0.229662
C103	C	0.275164	-0.360350	0.359975
N104	N	0.244710	-0.387182	0.386722
H105	H	1.098724	-0.345363	0.583226
C106	C	1.111557	-0.355323	0.476739
N107	N	1.148815	-0.384148	0.455217
H108	H	0.935548	-0.219057	0.981663
H109	H	0.935603	-1.080394	0.219096
C110	C	1.156581	-0.390046	0.843914
N111	N	1.193853	-0.418873	0.867632
H112	H	1.098789	-0.986024	0.345394
C113	C	1.156587	-0.390054	0.729269
N114	N	1.193883	-0.418869	0.707768
H115	H	1.098770	-0.345289	0.986524
C116	C	0.922703	-0.209105	1.088152
N117	N	0.885436	-0.180286	1.109674
H118	H	0.935495	-0.219151	0.479324
H119	H	0.615774	-0.209554	0.209681
C120	C	0.922689	-0.973173	0.209136
N121	N	0.885400	-0.949491	0.180289
C122	C	0.429529	-0.224318	0.224397
N123	N	0.459974	-0.197481	0.197648
C124	C	1.111678	-1.093263	0.355361
N125	N	1.148950	-1.116961	0.384207
H126	H	0.935494	-0.219139	0.578374
C127	C	0.877671	-0.174381	0.835642
N128	N	0.840401	-0.145553	0.857150
H129	H	0.749113	-0.335040	0.334728
C130	C	0.877631	-0.835345	0.174312
N131	N	0.840353	-0.856884	0.145476
H132	H	0.615770	-0.331055	0.330767
C133	C	0.922495	-0.470810	0.209039
N134	N	0.885211	-0.447111	0.180201
H135	H	0.749129	-0.213532	0.213643
C136	C	1.111486	-0.590893	0.355266
N137	N	1.148778	-0.614574	0.384112
C138	C	0.429522	-0.364963	0.364558
N139	N	0.459966	-0.393620	0.393111
C140	C	1.111442	-0.476240	0.355234
N141	N	1.148712	-0.454695	0.384071
H142	H	1.098782	-0.345263	1.085574
H143	H	0.890512	-0.184338	0.729172
H144	H	1.143666	-0.736141	0.380155
C145	C	1.156570	-0.843359	0.390122
N146	N	1.193868	-0.867038	0.418965
C147	C	0.877590	-0.720693	0.174293
N148	N	0.840305	-0.697008	0.145446
H149	H	0.935393	-0.578051	0.219000
