data_functionalizedCrystal
_audit_creation_method	'MofGen! by Chris Wilmer'
_symmetry_space_group_name_H-M	'P1'
_symmetry_Int_Tables_number	1
_symmetry_cell_setting	triclinic
loop_
_symmetry_equiv_pos_as_xyz
  x,y,z
_cell_length_a	8.559649
_cell_length_b	14.971486
_cell_length_c	13.448316
_cell_angle_alpha	89.996136
_cell_angle_beta	90.004702
_cell_angle_gamma	103.303604
loop_
_atom_site_label
_atom_site_type_symbol
_atom_site_fract_x
_atom_site_fract_y
_atom_site_fract_z
O1	O	2.120072	0.030342	0.082675
O2	O	1.654956	-0.015846	0.082681
O3	O	1.899980	0.138312	0.082671
O4	O	1.875048	-0.123816	0.082685
O5	O	1.899956	0.138311	-0.082713
O6	O	1.654932	-0.015846	-0.082703
O7	O	2.120047	0.030341	-0.082709
Cu8	Cu	1.887487	0.007247	-0.097807
Cu9	Cu	1.887516	0.007248	0.097779
O10	O	1.875023	-0.123816	-0.082699
C11	C	1.595421	-0.019346	-0.000010
C12	C	1.418060	-0.029765	-0.000008
C13	C	1.898853	0.171559	-0.000021
C14	C	1.895512	0.270625	-0.000020
N15	N	1.887478	0.007248	-0.235371
C16	C	2.179583	0.033842	-0.000016
C17	C	2.356943	0.044260	-0.000011
C18	C	1.876150	-0.157064	-0.000005
C19	C	1.879492	-0.256129	0.000001
C20	C	2.039457	0.337824	-0.000023
C21	C	2.036307	0.430905	-0.000013
C22	C	1.889211	0.456785	-0.000007
C23	C	1.745255	0.389578	-0.000002
C24	C	1.748406	0.296498	-0.000004
C25	C	1.738698	0.583586	0.000002
C26	C	1.735547	0.676671	0.000003
C27	C	2.026599	0.717993	-0.000006
C28	C	2.029750	0.624913	-0.000009
C29	C	1.885793	0.557712	-0.000005
C30	C	1.984471	-0.040372	-0.287405
C31	C	1.984491	-0.040367	-0.391509
C32	C	1.887509	0.007254	-0.443576
C33	C	1.790512	0.054880	-0.391534
C34	C	1.790502	0.054880	-0.287433
C35	C	1.790537	0.054876	-0.608514
C36	C	1.790545	0.054875	-0.712623
C37	C	1.984526	-0.040371	-0.712590
C38	C	1.984516	-0.040371	-0.608489
C39	C	1.887517	0.007254	-0.556454
N40	N	1.887537	0.007255	0.235343
H41	H	1.440303	0.115607	-0.000010
H42	H	1.334691	-0.101117	0.000001
Br43	Br	2.116091	-0.105028	-0.537826
H44	H	2.143814	0.772713	-0.000006
H45	H	1.711553	0.093659	-0.566151
Br46	Br	2.229382	0.589791	-0.000014
H47	H	2.159239	0.316762	-0.000033
Br48	Br	2.116171	-0.105003	-0.783206
H49	H	2.063436	-0.079157	-0.245020
Br50	Br	2.116130	-0.104997	-0.462123
H51	H	1.711556	0.093659	-0.433936
Br52	Br	2.231670	0.522103	-0.000016
Br53	Br	1.535915	0.711794	0.000006
Br54	Br	1.658887	0.119525	-0.216814
H55	H	1.621473	0.528871	0.000008
H56	H	1.711571	0.093651	-0.755013
H57	H	1.631191	0.241784	-0.000002
Br58	Br	1.545622	0.424699	0.000023
