data_functionalizedCrystal
_audit_creation_method	'MofGen! by Chris Wilmer'
_symmetry_space_group_name_H-M	'P1'
_symmetry_Int_Tables_number	1
_symmetry_cell_setting	triclinic
loop_
_symmetry_equiv_pos_as_xyz
  x,y,z
_cell_length_a	15.995350
_cell_length_b	16.992695
_cell_length_c	16.053802
_cell_angle_alpha	87.249318
_cell_angle_beta	87.418149
_cell_angle_gamma	92.919701
loop_
_atom_site_label
_atom_site_type_symbol
_atom_site_fract_x
_atom_site_fract_y
_atom_site_fract_z
O1	O	1.114433	-0.104367	0.069360
O2	O	0.871492	-0.116848	0.069377
O3	O	0.991989	0.003536	0.069362
O4	O	0.993936	-0.224750	0.069375
O5	O	0.998615	0.010142	-0.069498
O6	O	0.878118	-0.110242	-0.069483
O7	O	1.121059	-0.097760	-0.069500
Zn8	Zn	1.000641	-0.102952	-0.091538
Zn9	Zn	0.991911	-0.111656	0.091415
O10	O	1.000562	-0.218144	-0.069485
C11	C	0.843576	-0.113029	-0.000051
C12	C	0.750522	-0.111483	-0.000044
C13	C	0.992796	0.036051	-0.000068
C14	C	0.985320	0.123095	-0.000067
N15	N	0.985953	-0.117591	0.216276
C16	C	0.412403	-0.105926	-0.000062
C17	C	0.454115	-0.020177	-0.000377
C18	C	0.550894	-0.021739	-0.000058
C19	C	0.580148	-0.108682	-0.000054
C20	C	0.538106	-0.154742	0.079241
C21	C	0.441324	-0.152591	0.079301
C22	C	0.448638	-0.146850	-0.078608
C23	C	0.545632	-0.146780	-0.079650
C24	C	0.674949	-0.110245	-0.000046
C25	C	0.317601	-0.104367	-0.000064
C26	C	1.148975	-0.101579	-0.000071
C27	C	1.242029	-0.103126	-0.000072
C28	C	0.999755	-0.250660	-0.000054
C29	C	1.007231	-0.337704	-0.000049
C30	C	1.057456	0.173336	-0.000073
C31	C	1.050426	0.255122	-0.000065
C32	C	0.971259	0.286666	-0.000056
C33	C	0.899118	0.236419	-0.000048
C34	C	0.906149	0.154634	-0.000050
C35	C	0.942120	0.530264	-0.000043
C36	C	0.935095	0.612055	-0.000043
C37	C	1.086403	0.630752	-0.000058
C38	C	1.093427	0.548965	-0.000066
C39	C	1.021286	0.498725	-0.000053
N40	N	0.964072	0.370265	-0.000050
N41	N	1.028474	0.415128	-0.000053
N42	N	1.006605	-0.097012	-0.216400
C43	C	1.037336	-0.066465	0.259964
C44	C	1.033166	-0.070615	0.347371
C45	C	0.977609	-0.125887	0.391089
C46	C	0.926224	-0.177018	0.347396
C47	C	0.930398	-0.172871	0.259990
C48	C	0.959394	-0.143996	0.652501
C49	C	0.955222	-0.148137	0.739913
C50	C	1.062166	-0.041735	0.739882
C51	C	1.066332	-0.037590	0.652475
C52	C	1.014950	-0.088724	0.608789
N53	N	0.973343	-0.130128	0.480434
N54	N	1.019220	-0.084485	0.519446
H55	H	0.579811	0.014205	-0.056900
Cl56	Cl	1.156984	0.133690	-0.000092
H57	H	0.418123	-0.124573	0.138573
H58	H	0.421132	-0.210036	-0.079141
H59	H	1.157892	0.523289	-0.000073
Cl60	Cl	0.586235	0.025512	0.088000
Cl61	Cl	0.865802	-0.237150	0.205069
H62	H	1.104000	-0.000105	0.775459
H63	H	1.145136	0.671666	-0.000067
Cl64	Cl	0.835565	0.651709	-0.000037
Cl65	Cl	0.851427	0.467115	-0.000024
Cl66	Cl	0.799594	0.276074	-0.000027
Cl67	Cl	0.815460	0.091474	-0.000040
H68	H	0.909977	-0.193148	0.775504
H69	H	0.429541	0.011245	0.056171
Cl70	Cl	0.894798	-0.208273	0.597587
Cl71	Cl	0.397768	-0.250035	0.084864
Cl72	Cl	0.856383	-0.246508	0.402354
H73	H	1.082573	-0.021454	0.224374
H74	H	0.436014	0.016799	-0.057242
H75	H	0.556365	-0.218757	0.082192
H76	H	0.561700	-0.128179	0.138251
H77	H	0.429095	-0.115962	-0.138711
H78	H	0.573682	-0.113120	-0.138312
H79	H	0.565468	-0.209954	-0.084437
H80	H	1.075007	-0.028985	0.382941
Cl81	Cl	1.136175	0.031896	0.597515
H82	H	1.109166	0.296026	-0.000071
