data_functionalizedCrystal
_audit_creation_method	'MofGen! by Chris Wilmer'
_symmetry_space_group_name_H-M	'P1'
_symmetry_Int_Tables_number	1
_symmetry_cell_setting	triclinic
loop_
_symmetry_equiv_pos_as_xyz
  x,y,z
_cell_length_a	19.805407
_cell_length_b	29.839131
_cell_length_c	19.805399
_cell_angle_alpha	90.037218
_cell_angle_beta	90.019573
_cell_angle_gamma	90.035228
loop_
_atom_site_label
_atom_site_type_symbol
_atom_site_fract_x
_atom_site_fract_y
_atom_site_fract_z
Zn1	Zn	1.034694	-0.178864	0.382674
Zn2	Zn	1.534694	0.321136	0.882674
Zn3	Zn	1.034592	-0.253991	0.269467
Zn4	Zn	1.534592	0.246009	0.769467
Zn5	Zn	0.921509	-0.178876	0.269499
Zn6	Zn	1.421509	0.321124	0.769499
Zn7	Zn	0.921455	-0.253967	0.382614
Zn8	Zn	1.421455	0.246033	0.882614
O9	O	0.978062	-0.216425	0.326063
O10	O	1.478062	0.283575	0.826063
O11	O	1.129397	-0.188834	0.367669
O12	O	1.629397	0.311166	0.867669
O13	O	1.019571	-0.244042	0.174755
O14	O	1.519571	0.255958	0.674755
O15	O	0.936589	-0.116007	0.284551
O16	O	1.436589	0.383993	0.784551
O17	O	1.129322	-0.244030	0.284496
O18	O	1.629322	0.255970	0.784496
O19	O	1.019745	-0.115998	0.367700
O20	O	1.519745	0.384002	0.867700
O21	O	0.936489	-0.188856	0.174778
O22	O	1.436489	0.311144	0.674778
O23	O	0.826785	-0.188832	0.284492
O24	O	1.326785	0.311168	0.784492
O25	O	0.936497	-0.243990	0.477338
O26	O	1.436497	0.256010	0.977338
O27	O	0.826746	-0.244002	0.367597
O28	O	1.326746	0.255998	0.867597
O29	O	1.019693	-0.188811	0.477383
O30	O	1.519693	0.311189	0.977383
O31	O	1.019518	-0.316855	0.284437
O32	O	1.519518	0.183145	0.784437
O33	O	0.936397	-0.316838	0.367566
O34	O	1.436397	0.183162	0.867566
C35	C	0.802206	-0.216416	0.326042
C36	C	1.302206	0.283584	0.826042
C37	C	0.726974	-0.216423	0.326048
C38	C	1.226974	0.283577	0.826048
C39	C	0.977959	-0.333147	0.326006
C40	C	1.477959	0.166853	0.826006
C41	C	0.977977	-0.383082	0.326005
C42	C	1.477977	0.116918	0.826005
C43	C	0.691627	-0.245193	0.369251
C44	C	1.191627	0.254807	0.869251
C45	C	0.620939	-0.245194	0.369261
C46	C	1.120939	0.254806	0.869261
C47	C	0.585599	-0.216427	0.326063
C48	C	1.085599	0.283573	0.826063
C49	C	0.620951	-0.187654	0.282859
C50	C	1.120951	0.312346	0.782859
C51	C	0.691638	-0.187651	0.282853
C52	C	1.191638	0.312349	0.782853
C53	C	0.335878	-0.187664	0.282881
C54	C	0.835878	0.312336	0.782881
C55	C	0.265185	-0.187669	0.282889
C56	C	0.765185	0.312331	0.782889
C57	C	0.265178	-0.245207	0.369289
C58	C	0.765178	0.254793	0.869289
C59	C	0.335866	-0.245204	0.369283
C60	C	0.835866	0.254796	0.869283
C61	C	0.371211	-0.216429	0.326081
C62	C	0.871211	0.283571	0.826081
C63	C	0.447860	-0.216428	0.326072
C64	C	0.947860	0.283572	0.826072
C65	C	0.508952	-0.216430	0.326068
C66	C	1.008952	0.283570	0.826068
C67	C	1.021353	-0.692685	0.369421
C68	C	1.521353	-0.192685	0.869421
C69	C	1.021426	-0.880358	0.369462
C70	C	1.521426	-0.380358	0.869462
O71	O	1.058205	-0.904590	0.406334
O72	O	1.558205	-0.404590	0.906334
N73	N	0.978177	-0.903867	0.326139
N74	N	1.478177	-0.403867	0.826139
C75	C	0.934904	-0.880454	0.282805
C76	C	1.434904	-0.380454	0.782805
O77	O	0.898115	-0.904755	0.245962
O78	O	1.398115	-0.404755	0.745962
C79	C	0.934828	-0.692782	0.282769
C80	C	1.434828	-0.192782	0.782769
C81	C	0.978084	-0.669276	0.326090
C82	C	1.478084	-0.169276	0.826090
C83	C	1.064605	-0.669180	0.412739
C84	C	1.564605	-0.169180	0.912739
C85	C	1.064589	-0.622264	0.412726
C86	C	1.564589	-0.122264	0.912726
C87	C	1.021320	-0.598855	0.369395
C88	C	1.521320	-0.098855	0.869395
C89	C	0.978068	-0.622360	0.326077
C90	C	1.478068	-0.122360	0.826077
C91	C	0.891551	-0.669370	0.239439
C92	C	1.391551	-0.169370	0.739439
C93	C	0.891535	-0.622449	0.239435
C94	C	1.391535	-0.122449	0.739435
C95	C	0.934791	-0.598943	0.282756
C96	C	1.434791	-0.098943	0.782756
C97	C	0.934783	-0.552035	0.282732
C98	C	1.434783	-0.052035	0.782732
N99	N	0.978032	-0.528527	0.326055
N100	N	1.478032	-0.028527	0.826055
C101	C	1.021300	-0.551937	0.369387
C102	C	1.521300	-0.051937	0.869387
C103	C	0.934948	-0.978984	0.282827
C104	C	1.434948	-0.478984	0.782827
C105	C	0.934968	-1.025902	0.282835
C106	C	1.434968	-0.525902	0.782835
C107	C	1.021489	-1.025804	0.369492
C108	C	1.521489	-0.525804	0.869492
C109	C	1.021472	-0.978885	0.369480
C110	C	1.521472	-0.478885	0.869480
C111	C	0.978197	-0.955476	0.326150
C112	C	1.478197	-0.455476	0.826150
C113	C	1.021264	-0.453411	0.369355
C114	C	1.521264	0.046589	0.869355
C115	C	1.021246	-0.406491	0.369336
C116	C	1.521246	0.093509	0.869336
C117	C	0.934722	-0.406594	0.282681
C118	C	1.434722	0.093406	0.782681
C119	C	0.934742	-0.453509	0.282698
C120	C	1.434742	0.046491	0.782698
C121	C	0.978015	-0.476917	0.326040
C122	C	1.478015	0.023083	0.826040
O123	O	0.898018	-0.527775	0.245885
O124	O	1.398018	-0.027775	0.745885
O125	O	1.058073	-0.527627	0.406235
O126	O	1.558073	-0.027627	0.906235
C127	C	1.021369	-0.739601	0.369434
C128	C	1.521369	-0.239601	0.869434
C129	C	0.978116	-0.763107	0.326116
C130	C	1.478116	-0.263107	0.826116
C131	C	0.934848	-0.739697	0.282785
C132	C	1.434848	-0.239697	0.782785
C133	C	0.978136	-0.810025	0.326124
C134	C	1.478136	-0.310025	0.826124
C135	C	1.021405	-0.833434	0.369456
C136	C	1.521405	-0.333434	0.869456
C137	C	1.064654	-0.809926	0.412779
C138	C	1.564654	-0.309926	0.912779
C139	C	1.064638	-0.763010	0.412766
C140	C	1.564638	-0.263010	0.912766
C141	C	0.891599	-0.763205	0.239462
C142	C	1.391599	-0.263205	0.739462
C143	C	0.891619	-0.810121	0.239478
C144	C	1.391619	-0.310121	0.739478
C145	C	0.934888	-0.833530	0.282809
C146	C	1.434888	-0.333530	0.782809
C147	C	1.154605	-0.216434	0.326086
C148	C	1.654605	0.283566	0.826086
C149	C	1.229837	-0.216437	0.326095
C150	C	1.729837	0.283563	0.826095
C151	C	0.978100	-0.216396	0.502606
C152	C	1.478100	0.283604	1.002606
C153	C	0.978117	-0.216384	0.577838
C154	C	1.478117	0.283616	1.077838
C155	C	0.978184	-0.099246	0.326136
C156	C	1.478184	0.400754	0.826136
C157	C	0.978236	-0.049312	0.326166
C158	C	1.478236	0.450688	0.826166
C159	C	0.978064	-0.216420	0.150208
C160	C	1.478064	0.283580	0.650208
C161	C	0.978179	-0.216306	0.074976
C162	C	1.478179	0.283694	0.574976
C163	C	1.021438	-0.187652	0.613207
C164	C	1.521438	0.312348	1.113207
C165	C	1.021445	-0.187638	0.683895
C166	C	1.521445	0.312362	1.183895
C167	C	0.978133	-0.216361	0.719214
C168	C	1.478133	0.283639	1.219214
C169	C	0.934807	-0.245095	0.683841
C170	C	1.434807	0.254905	1.183841
C171	C	0.934797	-0.245105	0.613153
C172	C	1.434797	0.254895	1.113153
C173	C	0.934845	-0.245053	0.968914
C174	C	1.434845	0.254947	1.468914
C175	C	0.934860	-0.245041	1.039606
C176	C	1.434860	0.254959	1.539606
C177	C	1.021493	-0.187586	1.039656
C178	C	1.521493	0.312414	1.539656
C179	C	1.021483	-0.187597	0.968969
C180	C	1.521483	0.312403	1.468969
C181	C	0.978155	-0.216329	0.933601
C182	C	1.478155	0.283671	1.433601
C183	C	0.978147	-0.216342	0.856953
C184	C	1.478147	0.283658	1.356953
C185	C	0.978144	-0.216350	0.795861
C186	C	1.478144	0.283650	1.295861
H187	H	0.720396	-0.268620	0.404425
H188	H	1.220396	0.231380	0.904425
O189	O	1.063457	-0.159738	0.718356
O190	O	1.563457	0.340262	1.218356
C191	C	1.054186	-0.165889	0.788320
C192	C	1.554186	0.334111	1.288320
H193	H	1.001940	-0.180603	0.797952
H194	H	1.501940	0.319397	1.297952
H195	H	1.094315	-0.189806	0.808381
H196	H	1.594315	0.310194	1.308381
C197	C	1.124597	-0.102353	0.812803
C198	C	1.624597	0.397647	1.312803
C199	C	1.060425	-0.120421	0.824634
C200	C	1.560425	0.379579	1.324634
H201	H	1.128448	-0.074307	0.835204
H202	H	1.628448	0.425693	1.335204
H203	H	1.130845	-0.098209	0.765667
H204	H	1.630845	0.401791	1.265667
H205	H	1.158030	-0.122288	0.829521
H206	H	1.658030	0.377712	1.329521
H207	H	1.026993	-0.100489	0.807908
H208	H	1.526993	0.399511	1.307908
H209	H	1.054170	-0.124561	0.871768
H210	H	1.554170	0.375439	1.371768
H211	H	1.099861	-0.743875	0.448042
H212	H	1.599861	-0.243875	0.948042
O213	O	0.849499	-0.832931	0.197464
O214	O	1.349499	-0.332931	0.697464
C215	C	0.782032	-0.821480	0.212188
C216	C	1.282032	-0.321480	0.712188
H217	H	0.778588	-0.808556	0.266255
H218	H	1.278588	-0.308556	0.766255
H219	H	0.764355	-0.794272	0.175881
H220	H	1.264355	-0.294272	0.675881
C221	C	0.741097	-0.879055	0.137876
C222	C	1.241097	-0.379055	0.637876
C223	C	0.736866	-0.863186	0.204284
C224	C	1.236866	-0.363186	0.704284
H225	H	0.713235	-0.904781	0.132998
H226	H	1.213235	-0.404781	0.632998
H227	H	0.786550	-0.886769	0.127953
H228	H	1.286550	-0.386769	0.627953
H229	H	0.726367	-0.856378	0.107627
H230	H	1.226367	-0.356378	0.607627
H231	H	0.751604	-0.885860	0.234531
H232	H	1.251604	-0.385860	0.734531
H233	H	0.691414	-0.855477	0.214211
H234	H	1.191414	-0.355477	0.714211
H235	H	0.592171	-0.164229	0.247690
H236	H	1.092171	0.335771	0.747690
H237	H	0.899575	-0.268455	0.940127
H238	H	1.399575	0.231545	1.440127
O239	O	1.063581	-0.159813	0.578870
O240	O	1.563581	0.340187	1.078870
C241	C	1.107256	-0.185396	0.537959
C242	C	1.607256	0.314604	1.037959
H243	H	1.111408	-0.220776	0.559238
H244	H	1.611408	0.279224	1.059238
H245	H	1.086318	-0.186950	0.484382
H246	H	1.586318	0.313050	0.984382
C247	C	1.172539	-0.119993	0.510764
C248	C	1.672539	0.380007	1.010764
C249	C	1.177643	-0.163446	0.536903
C250	C	1.677643	0.336554	1.036903
H251	H	1.215957	-0.106453	0.510110
H252	H	1.715957	0.393547	1.010110
H253	H	1.143113	-0.102757	0.538324
H254	H	1.643113	0.397243	1.038324
H255	H	1.155088	-0.121295	0.466119
H256	H	1.655088	0.378705	0.966119
H257	H	1.195086	-0.162144	0.581550
H258	H	1.695086	0.337856	1.081550
H259	H	1.207074	-0.180682	0.509350
H260	H	1.707074	0.319318	1.009350
O261	O	0.892702	-0.273065	0.578899
O262	O	1.392702	0.226935	1.078899
C263	C	0.854468	-0.298409	0.625228
C264	C	1.354468	0.201591	1.125228
H265	H	0.882194	-0.299953	0.675623
H266	H	1.382194	0.200047	1.175623
H267	H	0.803076	-0.281959	0.632741
H268	H	1.303076	0.218041	1.132741
C269	C	0.810620	-0.344332	0.535715
C270	C	1.310620	0.155668	1.035715
C271	C	0.844676	-0.346232	0.597610
C272	C	1.344676	0.153768	1.097610
H273	H	0.804577	-0.373831	0.518679
H274	H	1.304577	0.126169	1.018679
H275	H	0.836377	-0.327256	0.504502
H276	H	1.336377	0.172744	1.004502
H277	H	0.767797	-0.330622	0.541984
H278	H	1.267797	0.169378	1.041984
H279	H	0.887502	-0.359936	0.591338
H280	H	1.387502	0.140064	1.091338
H281	H	0.818926	-0.363311	0.628822
H282	H	1.318926	0.136689	1.128822
H283	H	0.592162	-0.268622	0.404440
H284	H	1.092162	0.231378	0.904440
H285	H	1.099810	-0.603128	0.448004
H286	H	1.599810	-0.103128	0.948004
O287	O	0.892890	-1.048664	0.240726
O288	O	1.392890	-0.548664	0.740726
C289	C	0.854710	-1.017935	0.202471
C290	C	1.354710	-0.517935	0.702471
H291	H	0.852342	-0.984479	0.230190
H292	H	1.352342	-0.484479	0.730190
H293	H	0.879525	-1.012956	0.151088
H294	H	1.379525	-0.512956	0.651088
C295	C	0.785593	-1.077380	0.158606
C296	C	1.285593	-0.577380	0.658606
C297	C	0.782679	-1.036290	0.192653
C298	C	1.282679	-0.536290	0.692653
H299	H	0.741161	-1.088702	0.152547
H300	H	1.241161	-0.588702	0.652547
H301	H	0.811317	-1.098083	0.184377
H302	H	1.311317	-0.598083	0.684377
H303	H	0.806275	-1.073225	0.115790
H304	H	1.306275	-0.573225	0.615790
H305	H	0.762005	-1.040446	0.235471
H306	H	1.262005	-0.540446	0.735471
H307	H	0.756950	-1.015588	0.166890
H308	H	1.256950	-0.515588	0.666890
H309	H	1.056754	-0.164209	0.940216
H310	H	1.556754	0.335791	1.440216
H311	H	1.099840	-0.688235	0.448029
H312	H	1.599840	-0.188235	0.948029
O313	O	1.063193	-0.383678	0.411519
O314	O	1.563193	0.116322	0.911519
C315	C	1.048372	-0.395125	0.478966
C316	C	1.548372	0.104875	0.978966
H317	H	0.994301	-0.408049	0.482333
H318	H	1.494301	0.091951	0.982333
H319	H	1.084657	-0.422330	0.496699
H320	H	1.584657	0.077670	0.996699
C321	C	1.122619	-0.337544	0.520002
C322	C	1.622619	0.162456	1.020002
C323	C	1.056206	-0.353415	0.524139
C324	C	1.556206	0.146585	1.024139
H325	H	1.127454	-0.311817	0.547868
H326	H	1.627454	0.188183	1.047868
H327	H	1.132606	-0.329834	0.474562
H328	H	1.632606	0.170166	0.974562
H329	H	1.152849	-0.360220	0.534778
H330	H	1.652849	0.139780	1.034778
H331	H	1.025979	-0.330742	0.509355
H332	H	1.525979	0.169258	1.009355
H333	H	1.046214	-0.361121	0.569577
H334	H	1.546214	0.138879	1.069577
H335	H	0.720417	-0.164221	0.247677
H336	H	1.220417	0.335779	0.747677
O337	O	1.063514	-0.159685	1.074117
O338	O	1.563514	0.340315	1.574117
C339	C	1.054248	-0.165838	1.144081
C340	C	1.554248	0.334162	1.644081
H341	H	1.001999	-0.180546	1.153718
H342	H	1.501999	0.319454	1.653718
H343	H	1.094373	-0.189761	1.164136
H344	H	1.594373	0.310239	1.664136
C345	C	1.124679	-0.102312	1.168563
C346	C	1.624679	0.397688	1.668563
C347	C	1.060503	-0.120373	1.180399
C348	C	1.560503	0.379627	1.680399
H349	H	1.128539	-0.074267	1.190966
H350	H	1.628539	0.425733	1.690966
H351	H	1.130923	-0.098167	1.121427
H352	H	1.630923	0.401833	1.621427
H353	H	1.158109	-0.122252	1.185275
H354	H	1.658109	0.377748	1.685275
H355	H	1.027075	-0.100436	1.163679
H356	H	1.527075	0.399564	1.663679
H357	H	1.054253	-0.124513	1.227533
H358	H	1.554253	0.375487	1.727533
H359	H	0.899588	-0.268431	1.068361
H360	H	1.399588	0.231569	1.568361
H361	H	0.899540	-0.268480	0.712603
H362	H	1.399540	0.231520	1.212603
H363	H	1.099887	-0.828994	0.448059
H364	H	1.599887	-0.328994	0.948059
H365	H	0.364648	-0.164237	0.247699
H366	H	0.864648	0.335763	0.747699
H367	H	0.364636	-0.268631	0.404456
H368	H	0.864636	0.231369	0.904456
H369	H	0.856327	-0.688500	0.204162
H370	H	1.356327	-0.188500	0.704162
O371	O	1.063334	-0.476192	0.411363
O372	O	1.563334	0.023808	0.911363
C373	C	1.107100	-0.503318	0.372880
C374	C	1.607100	-0.003318	0.872880
H375	H	1.083261	-0.510397	0.321568
H376	H	1.583261	-0.010397	0.821568
H377	H	1.157252	-0.485207	0.365479
H378	H	1.657252	0.014793	0.865479
C379	C	1.148642	-0.539158	0.473177
C380	C	1.648642	-0.039158	0.973177
C381	C	1.119360	-0.547855	0.410157
C382	C	1.619360	-0.047855	0.910157
H383	H	1.156208	-0.566630	0.496172
H384	H	1.656208	-0.066630	0.996172
H385	H	1.119158	-0.520881	0.499104
H386	H	1.619158	-0.020881	0.999104
H387	H	1.190432	-0.524064	0.467000
H388	H	1.690432	-0.024064	0.967000
H389	H	1.077568	-0.562944	0.416335
H390	H	1.577568	-0.062944	0.916335
H391	H	1.148838	-0.566136	0.384232
H392	H	1.648838	-0.066136	0.884232
O393	O	1.063508	-0.956123	0.411631
O394	O	1.563508	-0.456123	0.911631
C395	C	1.101712	-0.986851	0.449862
C396	C	1.601712	-0.486851	0.949862
H397	H	1.073999	-1.020311	0.452177
H398	H	1.573999	-0.520311	0.952177
H399	H	1.153135	-0.991822	0.425126
H400	H	1.653135	-0.491822	0.925126
C401	C	1.145451	-0.927409	0.519065
C402	C	1.645451	-0.427409	1.019065
C403	C	1.111411	-0.968504	0.521914
C404	C	1.611411	-0.468504	1.021914
H405	H	1.151437	-0.916091	0.563509
H406	H	1.651437	-0.416091	1.063509
H407	H	1.119714	-0.906706	0.493307
H408	H	1.619714	-0.406706	0.993307
H409	H	1.188300	-0.931557	0.498449
H410	H	1.688300	-0.431557	0.998449
H411	H	1.068560	-0.964354	0.542521
H412	H	1.568560	-0.464354	1.042521
H413	H	1.137141	-0.989206	0.547677
H414	H	1.637141	-0.489206	1.047677
H415	H	0.236391	-0.268634	0.404468
H416	H	0.736391	0.231366	0.904468
H417	H	0.236413	-0.164241	0.247712
H418	H	0.736413	0.335759	0.747712
O419	O	0.849402	-0.599759	0.197376
O420	O	1.349402	-0.099759	0.697376
C421	C	0.781939	-0.611247	0.212125
C422	C	1.281939	-0.111247	0.712125
H423	H	0.780537	-0.645299	0.238153
H424	H	1.280537	-0.145299	0.738153
H425	H	0.759112	-0.584835	0.246896
H426	H	1.259112	-0.084835	0.746896
C427	C	0.742696	-0.571653	0.114138
C428	C	1.242696	-0.071653	0.614138
C429	C	0.740974	-0.613478	0.146101
C430	C	1.240974	-0.113478	0.646101
H431	H	0.717425	-0.573027	0.073412
H432	H	1.217425	-0.073027	0.573412
H433	H	0.788147	-0.563912	0.104202
H434	H	1.288147	-0.063912	0.604202
H435	H	0.723675	-0.549648	0.143121
H436	H	1.223675	-0.049648	0.643121
H437	H	0.760002	-0.635481	0.117121
H438	H	1.260002	-0.135481	0.617121
H439	H	0.695525	-0.621223	0.156030
H440	H	1.195525	-0.121223	0.656030
O441	O	0.892664	-0.476276	0.240591
O442	O	1.392664	0.023724	0.740591
C443	C	0.854486	-0.445551	0.202329
C444	C	1.354486	0.054449	0.702329
H445	H	0.852120	-0.412091	0.230039
H446	H	1.352120	0.087909	0.730039
H447	H	0.879300	-0.440579	0.150944
H448	H	1.379300	0.059421	0.650944
C449	C	0.785363	-0.504999	0.158481
C450	C	1.285363	-0.004999	0.658481
C451	C	0.782453	-0.463904	0.192517
C452	C	1.282453	0.036096	0.692517
H453	H	0.740931	-0.516321	0.152426
H454	H	1.240931	-0.016321	0.652426
H455	H	0.811086	-0.525700	0.184257
H456	H	1.311086	-0.025700	0.684257
H457	H	0.806045	-0.500850	0.115664
H458	H	1.306045	-0.000850	0.615664
H459	H	0.761779	-0.468055	0.235337
H460	H	1.261779	0.031945	0.735337
H461	H	0.756725	-0.443205	0.166748
H462	H	1.256725	0.056795	0.666748
O463	O	0.892713	-0.383780	0.240656
O464	O	1.392713	0.116220	0.740656
C465	C	0.901989	-0.337329	0.249930
C466	C	1.401989	0.162671	0.749930
H467	H	0.924130	-0.330886	0.302183
H468	H	1.424130	0.169114	0.802183
H469	H	0.938050	-0.324015	0.209812
H470	H	1.438050	0.175985	0.709812
C471	C	0.806309	-0.321194	0.179492
C472	C	1.306309	0.178806	0.679492
C473	C	0.833497	-0.313280	0.243672
C474	C	1.333497	0.186720	0.743672
H475	H	0.764061	-0.306358	0.175629
H476	H	1.264061	0.193642	0.675629
H477	H	0.800061	-0.352488	0.173241
H478	H	1.300061	0.147512	0.673241
H479	H	0.836366	-0.310098	0.146067
H480	H	1.336366	0.189902	0.646067
H481	H	0.803444	-0.324380	0.277095
H482	H	1.303444	0.175620	0.777095
H483	H	0.839739	-0.281986	0.249928
H484	H	1.339739	0.218014	0.749928
H485	H	1.056721	-1.044872	0.404774
H486	H	1.556721	-0.544872	0.904774
H487	H	0.899707	-0.959928	0.247540
H488	H	1.399707	-0.459928	0.747540
H489	H	0.856364	-0.744149	0.204177
H490	H	1.356364	-0.244149	0.704177
