data_functionalizedCrystal
_audit_creation_method	'MofGen! by Chris Wilmer'
_symmetry_space_group_name_H-M	'P1'
_symmetry_Int_Tables_number	1
_symmetry_cell_setting	triclinic
loop_
_symmetry_equiv_pos_as_xyz
  x,y,z
_cell_length_a	14.044220
_cell_length_b	14.472310
_cell_length_c	14.044220
_cell_angle_alpha	90.001238
_cell_angle_beta	93.188878
_cell_angle_gamma	90.008418
loop_
_atom_site_label
_atom_site_type_symbol
_atom_site_fract_x
_atom_site_fract_y
_atom_site_fract_z
O1	O	1.277180	0.076746	0.230162
O2	O	1.000508	0.076770	0.221856
O3	O	1.134691	0.076749	0.087673
O4	O	1.142997	0.076767	0.364345
O5	O	1.134654	-0.076933	0.087679
O6	O	1.000471	-0.076912	0.221862
O7	O	1.277143	-0.076936	0.230167
Cu8	Cu	1.138804	-0.090956	0.226015
Cu9	Cu	1.138848	0.090790	0.226009
O10	O	1.142960	-0.076915	0.364350
C11	C	0.964868	-0.000069	0.218223
C12	C	0.858725	-0.000060	0.207379
N13	N	1.138780	-0.218787	0.226019
C14	C	0.664388	-0.000079	0.187553
C15	C	0.613258	-0.000078	0.264467
C16	C	0.505122	-0.000089	0.253435
C17	C	0.772534	-0.000069	0.198583
C18	C	1.138846	-0.592879	0.226005
C19	C	1.066762	-0.553702	0.297518
C20	C	1.066968	-0.446614	0.297819
C21	C	1.138812	-0.407287	0.226012
C22	C	1.240266	-0.446131	0.256192
C23	C	1.239871	-0.553253	0.256710
C24	C	1.110345	-0.553412	0.124155
C25	C	1.108117	-0.446285	0.124630
C26	C	1.138800	-0.302399	0.226015
C27	C	1.138866	-0.697767	0.226005
C28	C	1.312783	-0.000096	0.233800
C29	C	1.418926	-0.000098	0.244645
C30	C	1.131037	-0.000092	0.052054
C31	C	1.120193	-0.000092	-0.054088
N32	N	1.138878	0.218621	0.225997
C33	C	1.100366	-0.000077	-0.248426
C34	C	1.177281	-0.000081	-0.299556
C35	C	1.166249	-0.000072	-0.407692
C36	C	1.111397	-0.000085	-0.140280
C37	C	1.146614	-0.000072	0.399969
C38	C	1.157459	-0.000066	0.506112
H39	H	0.650697	-0.000069	0.338600
C40	C	1.314942	-0.411715	0.188182
C41	C	1.303896	-0.434906	0.081124
C42	C	1.378570	-0.400487	0.013113
C43	C	1.464289	-0.342878	0.052161
C44	C	1.475339	-0.319684	0.159224
C45	C	1.400665	-0.354102	0.227235
H46	H	1.240438	-0.477555	0.052214
H47	H	1.370389	-0.417657	-0.066143
H48	H	1.519567	-0.317399	0.001815
H49	H	1.538797	-0.277035	0.188135
H50	H	1.408846	-0.336932	0.306491
C51	C	1.000219	-0.000073	-0.298993
C52	C	0.930640	0.079729	-0.282069
C53	C	0.830494	0.079730	-0.332648
C54	C	0.799927	-0.000072	-0.400150
C55	C	0.869508	-0.079880	-0.417078
C56	C	0.969654	-0.079880	-0.366499
H57	H	0.953266	0.138809	-0.232096
H58	H	0.778986	0.138810	-0.320117
H59	H	0.725793	-0.000071	-0.437592
H60	H	0.846882	-0.138959	-0.467050
H61	H	1.021162	-0.138960	-0.379030
C62	C	0.613818	-0.000081	0.087407
C63	C	0.504110	-0.000084	0.076375
C64	C	0.453527	-0.000081	-0.023769
C65	C	0.512652	-0.000074	-0.112881
C66	C	0.622366	-0.000071	-0.101852
C67	C	0.672949	-0.000074	-0.001708
H68	H	0.460337	-0.000089	0.142344
H69	H	0.372309	-0.000083	-0.031933
H70	H	0.475207	-0.000071	-0.187014
H71	H	0.666139	-0.000066	-0.167821
H72	H	0.754167	-0.000072	0.006456
H73	H	0.991826	-0.420352	0.278595
C74	C	1.272938	-0.409882	0.355811
C75	C	1.207746	-0.345088	0.409862
C76	C	1.240411	-0.308841	0.509483
C77	C	1.338269	-0.337389	0.555053
C78	C	1.403467	-0.402187	0.501001
C79	C	1.370801	-0.438434	0.401380
H80	H	1.135301	-0.323951	0.376128
H81	H	1.192147	-0.260873	0.549495
H82	H	1.362449	-0.310557	0.628798
H83	H	1.475912	-0.423324	0.534734
H84	H	1.419066	-0.486402	0.361368
H85	H	0.991399	-0.579484	0.278487
H86	H	1.086045	-0.420976	0.373224
C87	C	1.092284	-0.589988	0.398818
C88	C	1.178214	-0.654979	0.416815
C89	C	1.203759	-0.691240	0.518120
C90	C	1.143374	-0.662511	0.601426
C91	C	1.057438	-0.597517	0.583431
C92	C	1.031893	-0.561255	0.482126
H93	H	1.222920	-0.676249	0.355145
H94	H	1.267375	-0.739354	0.531441
H95	H	1.162284	-0.689354	0.676418
H96	H	1.012733	-0.576246	0.645101
H97	H	0.968278	-0.513142	0.468805
H98	H	1.263700	-0.578226	0.331246
H99	H	1.295634	-0.579167	0.207128
H100	H	1.037514	-0.580475	0.097225
H101	H	1.251414	-0.000025	-0.262117
C102	C	1.007239	-0.411990	0.093944
C103	C	0.952960	-0.348873	0.160600
C104	C	0.852082	-0.314571	0.129917
C105	C	0.805483	-0.343387	0.032579
C106	C	0.859761	-0.406508	-0.034083
C107	C	0.960639	-0.440809	-0.003400
H108	H	0.987455	-0.327538	0.232661
H109	H	0.811902	-0.267845	0.179265
H110	H	0.730807	-0.317996	0.009865
H111	H	0.825266	-0.427842	-0.106144
H112	H	1.000820	-0.487536	-0.052748
H113	H	1.156561	-0.419518	0.068267
C114	C	1.181215	-0.587644	0.052120
C115	C	1.264538	-0.651089	0.085487
C116	C	1.335409	-0.685328	0.013462
C117	C	1.322958	-0.656122	-0.091932
C118	C	1.239632	-0.592673	-0.125305
C119	C	1.168760	-0.558434	-0.053279
H120	H	1.273758	-0.672712	0.163511
H121	H	1.397093	-0.732296	0.038167
H122	H	1.375422	-0.681467	-0.145250
H123	H	1.230412	-0.571050	-0.203328
H124	H	1.107077	-0.511466	-0.077984
