data_functionalizedCrystal
_audit_creation_method	'MofGen! by Chris Wilmer'
_symmetry_space_group_name_H-M	'P1'
_symmetry_Int_Tables_number	1
_symmetry_cell_setting	triclinic
loop_
_symmetry_equiv_pos_as_xyz
  x,y,z
_cell_length_a	6.394989
_cell_length_b	17.699083
_cell_length_c	16.176319
_cell_angle_alpha	90.001389
_cell_angle_beta	90.003737
_cell_angle_gamma	84.890363
loop_
_atom_site_label
_atom_site_type_symbol
_atom_site_fract_x
_atom_site_fract_y
_atom_site_fract_z
O1	O	-0.264132	-1.006774	-0.068625
O2	O	0.235868	-0.506774	0.431375
O3	O	-0.298496	-0.786747	-0.068651
O4	O	0.201504	-0.286747	0.431349
O5	O	0.022766	-0.899883	-0.068638
O6	O	0.522766	-0.399883	0.431362
O7	O	-0.585394	-0.893637	-0.068638
O8	O	-0.085394	-0.393637	0.431362
O9	O	0.022787	-0.899867	0.068855
O10	O	0.522787	-0.399867	0.568855
O11	O	-0.298475	-0.786730	0.068842
O12	O	0.201525	-0.286730	0.568842
O13	O	-0.264111	-1.006758	0.068868
O14	O	0.235889	-0.506758	0.568868
Cu15	Cu	-0.281291	-0.896743	0.081409
Cu16	Cu	0.218709	-0.396743	0.581409
Cu17	Cu	-0.281315	-0.896762	-0.081193
Cu18	Cu	0.218685	-0.396762	0.418807
O19	O	-0.585373	-0.893621	0.068855
O20	O	-0.085373	-0.393621	0.568855
C21	C	-0.297254	-0.758529	0.000092
C22	C	0.202746	-0.258529	0.500092
C23	C	-0.293560	-0.674473	0.000081
C24	C	0.206440	-0.174473	0.500081
C25	C	-0.265353	-1.034976	0.000123
C26	C	0.234647	-0.534976	0.500123
C27	C	-0.269047	-1.119031	0.000128
C28	C	0.230953	-0.619031	0.500128
N29	N	-0.281273	-0.896735	0.195774
N30	N	0.218727	-0.396735	0.695774
C31	C	0.100592	-0.898640	0.000105
C32	C	0.600592	-0.398640	0.500105
C33	C	0.336808	-0.894866	0.000104
C34	C	0.836808	-0.394866	0.500104
N35	N	-0.281317	-0.896776	-0.195558
N36	N	0.218683	-0.396776	0.304442
C37	C	-0.482134	-0.627777	0.000082
C38	C	0.017866	-0.127777	0.500082
C39	C	-0.478651	-0.548798	0.000092
C40	C	0.021349	-0.048798	0.500092
C41	C	-0.286591	-0.516517	0.000097
C42	C	0.213409	-0.016517	0.500097
C43	C	-0.098003	-0.563220	0.000099
C44	C	0.401997	-0.063220	0.500099
C45	C	-0.101488	-0.642197	0.000094
C46	C	0.398512	-0.142197	0.500094
C47	C	-0.083942	-0.244713	0.000119
C48	C	0.416058	0.255287	0.500119
C49	C	-0.080470	-0.165730	0.000122
C50	C	0.419530	0.334270	0.500122
C51	C	-0.461104	-0.151314	0.000118
C52	C	0.038896	0.348686	0.500118
C53	C	-0.464590	-0.230291	0.000113
C54	C	0.035410	0.269709	0.500113
C55	C	-0.276002	-0.276987	0.000119
C56	C	0.223998	0.223013	0.500119
C57	C	-0.279782	-0.362625	0.000109
C58	C	0.220218	0.137375	0.500109
C59	C	-0.282810	-0.430881	0.000101
C60	C	0.217190	0.069119	0.500101
C61	C	-0.139076	-0.946848	0.239044
C62	C	0.360924	-0.446848	0.739044
C63	C	-0.139074	-0.946852	0.325591
C64	C	0.360926	-0.446852	0.825591
C65	C	-0.281280	-0.896746	0.368867
C66	C	0.218720	-0.396746	0.868867
C67	C	-0.423484	-0.846627	0.325591
C68	C	0.076516	-0.346627	0.825591
C69	C	-0.423474	-0.846620	0.239045
C70	C	0.076526	-0.346620	0.739045
C71	C	-0.423523	-0.846653	0.674619
C72	C	0.076477	-0.346653	1.174619
C73	C	-0.423526	-0.846666	0.761171
C74	C	0.076474	-0.346666	1.261171
C75	C	-0.139123	-0.946885	0.761165
C76	C	0.360877	-0.446885	1.261165
C77	C	-0.139113	-0.946878	0.674620
C78	C	0.360887	-0.446878	1.174620
C79	C	-0.281308	-0.896757	0.631351
C80	C	0.218692	-0.396757	1.131351
C81	C	-0.281306	-0.896753	0.537507
C82	C	0.218694	-0.396753	1.037507
C83	C	-0.281294	-0.896753	0.462710
C84	C	0.218706	-0.396753	0.962710
H85	H	-0.632207	-0.510780	0.000092
H86	H	-0.132207	-0.010780	0.500092
N87	N	0.014293	-1.000896	0.192371
N88	N	0.514293	-0.500896	0.692371
H89	H	0.104376	-1.032642	0.232919
H90	H	0.604376	-0.532642	0.732919
H91	H	0.106536	-0.971042	0.156470
H92	H	0.606536	-0.471042	0.656470
N93	N	-0.671742	-0.265105	0.000117
N94	N	-0.171742	0.234895	0.500117
H95	H	-0.645334	-0.322223	0.000114
H96	H	-0.145334	0.177777	0.500114
H97	H	-0.754260	-0.248152	-0.050851
H98	H	-0.254260	0.251848	0.449149
N99	N	-0.664518	-0.100949	0.000113
N100	N	-0.164518	0.399051	0.500113
H101	H	-0.633179	-0.046018	0.000120
H102	H	-0.133179	0.453982	0.500120
H103	H	-0.748239	-0.111609	0.051080
H104	H	-0.248239	0.388391	0.551080
N105	N	0.014286	-1.000920	0.627953
N106	N	0.514286	-0.500920	1.127953
H107	H	0.106665	-0.971113	0.592055
H108	H	0.606665	-0.471113	1.092055
H109	H	-0.065546	-1.035177	0.592083
H110	H	0.434454	-0.535177	1.092083
N111	N	-0.576900	-0.792609	0.627950
N112	N	-0.076900	-0.292609	1.127950
H113	H	-0.497198	-0.758336	0.592051
H114	H	0.002802	-0.258336	1.092051
H115	H	-0.666964	-0.760921	0.668546
H116	H	-0.166964	-0.260921	1.168546
H117	H	-0.023285	-0.987657	0.360821
H118	H	0.476715	-0.487657	0.860821
N119	N	0.126683	-0.130906	0.000141
N120	N	0.626683	0.369094	0.500141
H121	H	0.136618	-0.098459	-0.050826
H122	H	0.636618	0.401541	0.449174
H123	H	0.245509	-0.172512	0.000180
H124	H	0.745509	0.327488	0.500180
H125	H	0.069618	-0.282724	0.000125
H126	H	0.569618	0.217276	0.500125
H127	H	-0.539264	-0.805826	0.360831
H128	H	-0.039264	-0.305826	0.860831
H129	H	-0.023333	-0.987694	0.796404
H130	H	0.476667	-0.487694	1.296404
H131	H	0.052069	-0.680217	0.000093
H132	H	0.552069	-0.180217	0.500093
H133	H	0.058376	-0.536930	0.000114
H134	H	0.558376	-0.036930	0.500114
N135	N	-0.576899	-0.792616	0.807850
N136	N	-0.076899	-0.292616	1.307850
H137	H	-0.666972	-0.760860	0.767308
H138	H	-0.166972	-0.260860	1.267308
H139	H	-0.497028	-0.758409	0.843766
H140	H	0.002972	-0.258409	1.343766
N141	N	-0.576832	-0.792566	0.192371
N142	N	-0.076832	-0.292566	0.692371
H143	H	-0.666923	-0.760825	0.232917
H144	H	-0.166923	-0.260825	0.732917
H145	H	-0.669070	-0.822411	0.156452
H146	H	-0.169070	-0.322411	0.656452
H147	H	-0.638531	-0.654053	0.000078
H148	H	-0.138531	-0.154053	0.500078
