data_functionalizedCrystal
_audit_creation_method	'MofGen! by Chris Wilmer'
_symmetry_space_group_name_H-M	'P1'
_symmetry_Int_Tables_number	1
_symmetry_cell_setting	triclinic
loop_
_symmetry_equiv_pos_as_xyz
  x,y,z
_cell_length_a	19.121424
_cell_length_b	19.120786
_cell_length_c	16.120256
_cell_angle_alpha	90.308049
_cell_angle_beta	95.181730
_cell_angle_gamma	95.008527
loop_
_atom_site_label
_atom_site_type_symbol
_atom_site_fract_x
_atom_site_fract_y
_atom_site_fract_z
Zn1	Zn	1.045609	-0.252347	-0.405826
Zn2	Zn	1.046976	-0.363543	-0.260708
Zn3	Zn	0.933911	-0.251419	-0.272113
Zn4	Zn	0.922896	-0.375005	-0.405755
O5	O	0.987348	-0.310579	-0.336100
O6	O	1.144464	-0.262688	-0.381833
O7	O	1.037160	-0.343485	-0.145559
O8	O	0.952766	-0.153285	-0.294653
O9	O	1.145468	-0.344384	-0.275215
O10	O	1.034829	-0.153966	-0.392892
O11	O	0.954091	-0.261108	-0.153938
O12	O	0.833776	-0.272222	-0.294584
O13	O	0.933993	-0.363919	-0.522426
O14	O	0.825684	-0.363020	-0.392770
O15	O	1.024149	-0.273802	-0.522478
O16	O	1.026479	-0.463321	-0.275146
O17	O	0.935318	-0.471742	-0.381711
C18	C	0.804145	-0.318765	-0.344907
C19	C	0.725768	-0.322284	-0.348694
C20	C	0.979870	-0.493009	-0.327200
C21	C	0.976734	-0.571051	-0.323417
C22	C	0.282273	-0.344546	-0.372737
C23	C	0.355917	-0.341244	-0.369164
C24	C	0.396928	-0.292250	-0.316349
C25	C	0.364292	-0.246562	-0.267098
C26	C	0.290649	-0.249868	-0.270668
C27	C	0.619490	-0.279902	-0.303013
C28	C	0.693137	-0.276598	-0.299449
C29	C	0.684757	-0.371281	-0.401514
C30	C	0.611113	-0.374580	-0.405083
C31	C	0.578484	-0.328894	-0.355829
C32	C	0.472204	-0.288872	-0.312696
C33	C	0.503209	-0.332276	-0.359477
C34	C	1.017952	-0.608013	-0.372833
C35	C	1.015002	-0.681343	-0.369280
C36	C	0.970839	-0.717709	-0.316307
C37	C	0.929617	-0.680741	-0.266890
C38	C	0.932563	-0.607413	-0.270448
C39	C	0.959804	-0.939097	-0.303008
C40	C	0.956863	-1.012430	-0.299452
C41	C	1.042248	-1.013026	-0.401844
C42	C	1.045194	-0.939697	-0.405393
C43	C	1.003969	-0.902736	-0.355979
C44	C	0.967825	-0.792663	-0.312672
C45	C	1.006980	-0.827783	-0.359619
C46	C	1.171267	-0.302361	-0.327259
C47	C	1.249642	-0.298859	-0.323492
C48	C	0.977690	-0.320242	-0.553547
C49	C	0.973574	-0.324361	-0.646210
C50	C	0.994874	-0.127436	-0.345053
C51	C	0.998081	-0.049392	-0.348868
C52	C	1.008811	-0.289085	-0.857182
C53	C	0.966037	-0.331851	-0.815863
C54	C	0.970232	-0.327682	-0.721460
C55	C	1.004618	-0.293253	-0.951594
C56	C	0.997012	-0.300900	-0.119500
C57	C	1.001272	-0.296578	-0.026841
H58	H	0.382481	-0.378448	-0.409262
H59	H	1.048572	-0.711434	-0.409512
H60	H	1.042935	-0.798173	-0.402753
H61	H	0.920896	-1.042037	-0.256315
H62	H	0.248886	-0.384438	-0.415750
O63	O	1.061493	-0.236446	-0.810128
H64	H	1.092183	-0.205756	-0.854956
O65	O	0.913353	-0.384499	-0.862913
H66	H	0.923907	-0.438345	-0.842994
H67	H	1.075810	-1.043128	-0.442075
H68	H	0.931869	-0.822280	-0.269539
H69	H	0.469815	-0.372168	-0.402476
H70	H	0.577727	-0.414477	-0.448088
H71	H	0.711332	-0.408476	-0.441613
H72	H	0.592932	-0.242704	-0.262904
O73	O	0.737375	-0.223757	-0.242477
H74	H	0.702315	-0.192548	-0.208821
O75	O	1.092828	-0.900479	-0.462531
H76	H	1.087957	-0.843279	-0.456697
O77	O	0.408520	-0.193716	-0.210132
H78	H	0.465211	-0.199085	-0.215929
H79	H	0.264082	-0.212663	-0.230569
H80	H	0.505603	-0.248981	-0.269695
H81	H	1.053918	-0.578409	-0.415965
O82	O	0.915358	-0.899234	-0.249697
H83	H	0.884165	-0.936842	-0.212254
H84	H	0.893655	-0.710356	-0.223762
O85	O	0.888114	-0.567541	-0.217143
H86	H	0.856915	-0.605145	-0.179702
