data_functionalizedCrystal
_audit_creation_method	'MofGen! by Chris Wilmer'
_symmetry_space_group_name_H-M	'P1'
_symmetry_Int_Tables_number	1
_symmetry_cell_setting	triclinic
loop_
_symmetry_equiv_pos_as_xyz
  x,y,z
_cell_length_a	6.817900
_cell_length_b	17.253917
_cell_length_c	11.102228
_cell_angle_alpha	97.513815
_cell_angle_beta	108.604565
_cell_angle_gamma	102.659311
loop_
_atom_site_label
_atom_site_type_symbol
_atom_site_fract_x
_atom_site_fract_y
_atom_site_fract_z
V1	V	-4.088151	-0.111296	-0.408319
O2	O	-4.071672	0.005346	-0.388134
O3	O	-4.041963	-0.220679	-0.417464
O4	O	-4.065285	-0.109585	-0.580955
O5	O	-4.048189	-0.106517	-0.223512
V6	V	-4.568183	-0.097344	-0.384764
O7	O	-4.357066	-0.141900	-0.459988
O8	O	-4.749466	-0.066739	-0.333095
O9	O	-4.391164	0.012039	-0.375619
O10	O	-4.702059	-0.213986	-0.404950
O11	O	-4.725542	-0.102123	-0.569572
O12	O	-4.367842	-0.099055	-0.212129
C13	C	-3.886676	-0.247345	-0.414103
C14	C	-3.930370	-0.336767	-0.422731
C15	C	-3.893141	-0.367290	-0.309155
C16	C	-3.934216	-0.451312	-0.317266
C17	C	-4.012505	-0.504810	-0.438955
C18	C	-4.049741	-0.474283	-0.552540
C19	C	-4.008681	-0.390262	-0.544428
C20	C	-4.141514	-0.757330	-0.475831
C21	C	-4.182567	-0.841355	-0.483934
C22	C	-4.067043	-0.818379	-0.248659
C23	C	-4.025975	-0.734357	-0.240558
C24	C	-4.063225	-0.703837	-0.354143
N25	N	-4.054485	-0.590695	-0.447249
N26	N	-4.021259	-0.617954	-0.345848
C27	C	-3.916424	-0.105631	-0.622650
C28	C	-3.979027	-0.104956	-0.763859
C29	C	-4.053137	-0.178302	-0.856333
C30	C	-4.111972	-0.177666	-0.989013
C31	C	-4.022568	-0.030330	-0.936732
C32	C	-3.963750	-0.030968	-0.804054
C33	C	-4.363791	-0.267879	-1.206180
C34	C	-4.437871	-0.341228	-1.298658
C35	C	-4.340499	-0.403894	-1.274236
C36	C	-4.169001	-0.393212	-1.157337
C37	C	-4.094905	-0.319861	-1.064864
C38	C	-4.192325	-0.257199	-1.089287
C39	C	-3.711915	0.059240	-0.586887
C40	C	-3.637804	0.132592	-0.494410
C41	C	-3.735158	0.195265	-0.518827
C42	C	-3.906623	0.184592	-0.635727
C43	C	-3.980735	0.111240	-0.728203
C44	C	-3.883380	0.048566	-0.703777
C45	C	-4.209793	0.038701	-0.378977
C46	C	-4.145339	0.128122	-0.370357
C47	C	-4.180044	-0.103011	-0.170427
C48	C	-4.096680	-0.103682	-0.029217
H49	H	-4.246312	-0.884913	-0.583032
Cl50	Cl	-4.196326	0.097815	-0.875154
H51	H	-4.036724	-0.843238	-0.156185
Cl52	Cl	-3.422222	0.146014	-0.347456
Cl53	Cl	-4.029013	0.263384	-0.666432
H54	H	-4.065582	-0.238548	-0.823611
H55	H	-4.171822	-0.732490	-0.568319
Cl56	Cl	-4.433634	-0.496104	-1.390497
Cl57	Cl	-4.148176	-0.541538	-0.705521
Cl58	Cl	-3.641964	0.287485	-0.402574
Cl59	Cl	-4.055498	-0.351891	-0.687216
Cl60	Cl	-4.046568	-0.471994	-1.126652
Cl61	Cl	-3.589516	-0.019551	-0.556181
Cl62	Cl	-3.879325	-0.306428	-0.917913
H63	H	-3.829376	-0.323736	-0.210062
Cl64	Cl	-4.653444	-0.354652	-1.445618
H65	H	-3.903903	-0.476159	-0.224780
H66	H	-3.962240	-0.690804	-0.141466
Cl67	Cl	-4.486235	-0.189102	-1.236886
H68	H	-4.010134	0.029908	-0.969476
