data_functionalizedCrystal
_audit_creation_method	'MofGen! by Chris Wilmer'
_symmetry_space_group_name_H-M	'P1'
_symmetry_Int_Tables_number	1
_symmetry_cell_setting	triclinic
loop_
_symmetry_equiv_pos_as_xyz
  x,y,z
_cell_length_a	6.817900
_cell_length_b	10.943925
_cell_length_c	10.943624
_cell_angle_alpha	91.772910
_cell_angle_beta	108.838799
_cell_angle_gamma	108.844289
loop_
_atom_site_label
_atom_site_type_symbol
_atom_site_fract_x
_atom_site_fract_y
_atom_site_fract_z
V1	V	-4.115532	-0.178599	-0.402534
O2	O	-4.073202	0.008617	-0.394889
O3	O	-4.093518	-0.354165	-0.399763
O4	O	-4.093494	-0.175837	-0.578100
O5	O	-4.073227	-0.170946	-0.215317
V6	V	-4.592325	-0.156208	-0.380143
O7	O	-4.391553	-0.227716	-0.451649
O8	O	-4.766501	-0.107090	-0.331028
O9	O	-4.391132	0.019359	-0.382914
O10	O	-4.752051	-0.343424	-0.387788
O11	O	-4.752026	-0.163861	-0.567359
O12	O	-4.391156	-0.158970	-0.204576
C13	C	-3.944085	-0.396965	-0.393408
C14	C	-4.007548	-0.540493	-0.392314
C15	C	-3.944052	-0.169487	-0.620894
C16	C	-4.007492	-0.168390	-0.764420
C17	C	-4.274915	-0.717225	-0.397745
C18	C	-4.085582	-0.611235	-0.288089
C19	C	-4.196062	-0.644571	-0.501935
C20	C	-3.931139	-0.690208	-0.280609
C21	C	-4.041699	-0.723567	-0.494552
C22	C	-3.852230	-0.617606	-0.384865
C23	C	-3.852320	-0.161003	-0.841568
C24	C	-4.041701	-0.270649	-0.947548
C25	C	-3.931176	-0.056802	-0.914182
C26	C	-4.196083	-0.278139	-0.868523
C27	C	-4.085478	-0.064195	-0.835134
C28	C	-4.274995	-0.173872	-0.941083
C29	C	-4.203939	-0.165324	-0.161776
C30	C	-4.119737	-0.166414	-0.018248
C31	C	-4.203907	0.062152	-0.389265
C32	C	-4.119684	0.205678	-0.390368
H33	H	-4.103473	-0.562326	-0.200807
O34	O	-4.328730	-0.389820	-0.843788
C35	C	-4.417440	-0.516135	-0.679919
C36	C	-4.267046	-0.389617	-0.707751
H37	H	-4.367654	-0.516001	-0.569935
H38	H	-4.399056	-0.604078	-0.727284
H39	H	-4.597078	-0.521951	-0.721947
H40	H	-4.087350	-0.383675	-0.665724
H41	H	-4.285621	-0.301735	-0.660411
H42	H	-4.454311	-0.179339	-0.984327
H43	H	-4.023857	-0.357930	-0.996488
H44	H	-4.103238	0.023090	-0.786158
O45	O	-3.797990	0.054774	-0.938747
C46	C	-3.425541	0.187552	-0.915937
C47	C	-3.576127	0.061171	-0.888011
H48	H	-3.246139	0.192752	-0.874954
H49	H	-3.442322	0.275644	-0.867722
H50	H	-3.476720	0.187779	-1.025907
H51	H	-3.525046	0.060816	-0.778065
H52	H	-3.559328	-0.026865	-0.936315
H53	H	-4.454119	-0.760720	-0.403043
O54	O	-4.020429	-0.781764	-0.598782
C55	C	-3.922997	-0.752628	-0.791618
C56	C	-3.947010	-0.686553	-0.673638
H57	H	-3.863591	-0.675677	-0.852156
H58	H	-4.090012	-0.827735	-0.854434
H59	H	-3.797452	-0.803391	-0.755546
H60	H	-4.072464	-0.635718	-0.709594
H61	H	-3.779906	-0.611516	-0.610845
O62	O	-3.798276	-0.714533	-0.168761
C63	C	-3.670810	-0.683600	0.066440
C64	C	-3.821323	-0.655929	-0.060123
H65	H	-3.689426	-0.636257	0.154306
H66	H	-3.491108	-0.641544	0.072366
H67	H	-3.720588	-0.793580	0.066335
H68	H	-3.771743	-0.545971	-0.060104
H69	H	-4.000988	-0.698075	-0.066000
O70	O	-3.638368	-0.565751	-0.378408
C71	C	-3.338557	-0.371594	-0.373102
C72	C	-3.580791	-0.430159	-0.380461
H73	H	-3.291916	-0.261956	-0.374731
H74	H	-3.318841	-0.419468	-0.460259
H75	H	-3.225525	-0.390001	-0.278764
H76	H	-3.693972	-0.411770	-0.474743
H77	H	-3.600327	-0.382281	-0.293238
H78	H	-4.307448	-0.623861	-0.595480
H79	H	-3.673119	-0.155709	-0.798120
