data_functionalizedCrystal
_audit_creation_method	'MofGen! by Chris Wilmer'
_symmetry_space_group_name_H-M	'P1'
_symmetry_Int_Tables_number	1
_symmetry_cell_setting	triclinic
loop_
_symmetry_equiv_pos_as_xyz
  x,y,z
_cell_length_a	25.639239
_cell_length_b	19.121224
_cell_length_c	19.120904
_cell_angle_alpha	90.128641
_cell_angle_beta	92.410104
_cell_angle_gamma	87.529144
loop_
_atom_site_label
_atom_site_type_symbol
_atom_site_fract_x
_atom_site_fract_y
_atom_site_fract_z
Zn1	Zn	-0.188807	-1.054808	-0.442259
Zn2	Zn	0.311193	-0.554808	0.057741
Zn3	Zn	-0.272363	-1.059701	-0.325017
Zn4	Zn	0.227637	-0.559701	0.174983
Zn5	Zn	-0.188493	-0.942575	-0.320020
Zn6	Zn	0.311507	-0.442575	0.179980
Zn7	Zn	-0.279766	-0.937508	-0.437194
Zn8	Zn	0.220234	-0.437508	0.062806
O9	O	-0.232357	-0.998648	-0.381122
O10	O	0.267643	-0.498648	0.118878
O11	O	-0.196923	-1.153566	-0.430917
O12	O	0.303077	-0.653566	0.069083
O13	O	-0.258008	-1.048333	-0.226250
O14	O	0.241992	-0.548333	0.273750
O15	O	-0.115368	-0.957535	-0.336264
O16	O	0.384632	-0.457535	0.163736
O17	O	-0.258312	-1.157161	-0.344780
O18	O	0.241688	-0.657161	0.155220
O19	O	-0.115599	-1.039993	-0.426072
O20	O	0.384401	-0.539993	0.073928
O21	O	-0.196389	-0.962280	-0.222579
O22	O	0.303611	-0.462280	0.277421
O23	O	-0.203568	-0.843794	-0.331353
O24	O	0.296432	-0.343794	0.168647
O25	O	-0.270930	-0.948900	-0.535970
O26	O	0.229070	-0.448900	-0.035970
O27	O	-0.270626	-0.840072	-0.417440
O28	O	0.229374	-0.340072	0.082560
O29	O	-0.204102	-1.035080	-0.539691
O30	O	0.295898	-0.535080	-0.039691
O31	O	-0.346512	-1.043419	-0.339869
O32	O	0.153488	-0.543419	0.160131
O33	O	-0.351951	-0.953644	-0.422285
O34	O	0.148049	-0.453644	0.077715
C35	C	-0.237867	-0.816495	-0.373305
C36	C	0.262133	-0.316495	0.126695
C37	C	-0.240237	-0.738568	-0.369977
C38	C	0.259763	-0.238568	0.130023
C39	C	-0.368202	-0.998532	-0.381085
C40	C	0.131798	-0.498532	0.118915
C41	C	-0.426316	-0.998545	-0.381096
C42	C	0.073684	-0.498545	0.118904
C43	C	-0.255243	-0.297922	-0.348926
C44	C	0.244757	0.202078	0.151074
C45	C	-0.253013	-0.371143	-0.352048
C46	C	0.246987	0.128857	0.147952
C47	C	-0.219994	-0.405880	-0.398529
C48	C	0.280006	0.094120	0.101471
C49	C	-0.189199	-0.367393	-0.441886
C50	C	0.310801	0.132607	0.058114
C51	C	-0.191426	-0.294174	-0.438761
C52	C	0.308574	0.205826	0.061239
C53	C	-0.211669	-0.626862	-0.410209
C54	C	0.288331	-0.126862	0.089791
C55	C	-0.209445	-0.700086	-0.413333
C56	C	0.290555	-0.200086	0.086667
C57	C	-0.273260	-0.703830	-0.323493
C58	C	0.226740	-0.203830	0.176507
C59	C	-0.275487	-0.630609	-0.320375
C60	C	0.224513	-0.130609	0.179625
C61	C	-0.244689	-0.592129	-0.363730
C62	C	0.255311	-0.092129	0.136270
C63	C	-0.217715	-0.480724	-0.401722
C64	C	0.282285	0.019276	0.098278
C65	C	-0.246966	-0.517287	-0.360532
C66	C	0.253034	-0.017287	0.139468
C67	C	-0.783831	-1.045508	-0.338290
C68	C	-0.283831	-0.545508	0.161710
C69	C	-0.838435	-1.045534	-0.338300
C70	C	-0.338435	-0.545534	0.161700
O71	O	-0.864252	-1.085343	-0.301865
O72	O	-0.364252	-0.585343	0.198135
N73	N	-0.868594	-0.998769	-0.381174
N74	N	-0.368594	-0.498769	0.118826
C75	C	-0.844147	-0.951979	-0.424045
C76	C	-0.344147	-0.451979	0.075955
O77	O	-0.874814	-0.912205	-0.460514
O78	O	-0.374814	-0.412205	0.039486
C79	C	-0.789544	-0.951956	-0.424038
C80	C	-0.289544	-0.451956	0.075962
C81	C	-0.759388	-0.998720	-0.381156
C82	C	-0.259388	-0.498720	0.118844
C83	C	-0.753675	-1.092268	-0.295412
C84	C	-0.253675	-0.592268	0.204588
C85	C	-0.699075	-1.092240	-0.295401
C86	C	-0.199075	-0.592240	0.204599
C87	C	-0.674631	-1.045452	-0.338267
C88	C	-0.174631	-0.545452	0.161733
C89	C	-0.704788	-0.998692	-0.381145
C90	C	-0.204788	-0.498692	0.118855
C91	C	-0.765098	-0.905170	-0.466913
C92	C	-0.265098	-0.405170	0.033087
C93	C	-0.710491	-0.905152	-0.466902
C94	C	-0.210491	-0.405152	0.033098
C95	C	-0.680335	-0.951915	-0.424020
C96	C	-0.180335	-0.451915	0.075980
C97	C	-0.625744	-0.951876	-0.424000
C98	C	-0.125744	-0.451876	0.076000
N99	N	-0.595585	-0.998641	-0.381126
N100	N	-0.095585	-0.498641	0.118874
C101	C	-0.620028	-1.045429	-0.338260
C102	C	-0.120028	-0.545429	0.161740
C103	C	-0.958816	-0.952032	-0.424059
C104	C	-0.458816	-0.452032	0.075941
C105	C	-1.013418	-0.952050	-0.424063
C106	C	-0.513418	-0.452050	0.075937
C107	C	-1.007702	-1.045607	-0.338318
C108	C	-0.507702	-0.545607	0.161682
C109	C	-0.953099	-1.045584	-0.338311
C110	C	-0.453099	-0.545584	0.161689
C111	C	-0.928657	-0.998797	-0.381185
C112	C	-0.428657	-0.498797	0.118815
C113	C	-0.505364	-1.045367	-0.338239
C114	C	-0.005364	-0.545367	0.161761
C115	C	-0.450760	-1.045333	-0.338229
C116	C	0.049240	-0.545333	0.161771
C117	C	-0.456481	-0.951779	-0.423976
C118	C	0.043519	-0.451779	0.076024
C119	C	-0.511080	-0.951810	-0.423983
C120	C	-0.011080	-0.451810	0.076017
C121	C	-0.535521	-0.998610	-0.381112
C122	C	-0.035521	-0.498610	0.118888
O123	O	-0.599891	-0.912090	-0.460419
O124	O	-0.099891	-0.412090	0.039581
O125	O	-0.589355	-1.085203	-0.301804
O126	O	-0.089355	-0.585203	0.198196
C127	C	-0.095982	-0.998783	-0.381176
C128	C	0.404018	-0.498783	0.118824
C129	C	-0.037867	-0.998841	-0.381199
C130	C	0.462133	-0.498841	0.118801
C131	C	-0.238377	-0.990879	-0.563979
C132	C	0.261623	-0.490879	-0.063979
C133	C	-0.240942	-0.987568	-0.641901
C134	C	0.259058	-0.487568	-0.141901
C135	C	-0.226822	-0.181513	-0.388962
C136	C	0.273178	0.318487	0.111038
C137	C	-0.224451	-0.259440	-0.392282
C138	C	0.275549	0.240560	0.107718
C139	C	-0.207356	-1.030879	-0.680448
C140	C	0.292644	-0.530879	-0.180448
C141	C	-0.209764	-1.027760	-0.753664
C142	C	0.290236	-0.527760	-0.253664
C143	C	-0.245763	-0.981332	-0.788332
C144	C	0.254237	-0.481332	-0.288332
C145	C	-0.279351	-0.938016	-0.749780
C146	C	0.220649	-0.438016	-0.249780
C147	C	-0.276939	-0.941132	-0.676565
C148	C	0.223061	-0.441132	-0.176565
C149	C	-0.254782	-0.969674	-1.009296
C150	C	0.245218	-0.469674	-0.509296
C151	C	-0.257192	-0.966563	-1.082516
C152	C	0.242808	-0.466563	-0.582516
C153	C	-0.187605	-1.056306	-1.086395
C154	C	0.312395	-0.556306	-0.586395
C155	C	-0.185198	-1.059422	-1.013179
C156	C	0.314802	-0.559422	-0.513179
C157	C	-0.218785	-1.016103	-0.974633
C158	C	0.281215	-0.516103	-0.474633
C159	C	-0.248227	-0.978144	-0.863171
C160	C	0.251773	-0.478144	-0.363171
C161	C	-0.216318	-1.019288	-0.899796
C162	C	0.283682	-0.519288	-0.399796
C163	C	-0.226322	-1.006428	-0.198979
C164	C	0.273678	-0.506428	0.301021
C165	C	-0.223605	-1.009874	-0.121063
C166	C	0.276395	-0.509874	0.378937
H167	H	-0.282134	-0.269644	-0.311080
H168	H	0.217866	0.230356	0.188920
Cl169	Cl	-0.176209	-0.524400	-0.460158
Cl170	Cl	0.323791	-0.024400	0.039842
H171	H	-0.674524	-1.130320	-0.260485
H172	H	-0.174524	-0.630320	0.239515
Cl173	Cl	-0.319163	-0.886679	-0.628106
Cl174	Cl	0.180837	-0.386679	-0.128106
H175	H	-0.302374	-0.602331	-0.282525
H176	H	0.197626	-0.102331	0.217475
Cl177	Cl	-0.784393	-1.151095	-0.241515
Cl178	Cl	-0.284393	-0.651095	0.258485
Cl179	Cl	-0.139942	-1.117791	-0.969601
Cl180	Cl	0.360058	-0.617791	-0.469601
H181	H	-0.938919	-0.913926	-0.458969
H182	H	-0.438919	-0.413926	0.041031
Cl183	Cl	-0.288472	-0.473616	-0.302099
Cl184	Cl	0.211528	0.026384	0.197901
Cl185	Cl	-0.425741	-0.892967	-0.477866
Cl186	Cl	0.074259	-0.392967	0.022134
H187	H	-0.160260	-1.091573	-1.117787
H188	H	0.339740	-0.591573	-0.617787
Cl189	Cl	-0.802996	-0.846386	-0.520834
Cl190	Cl	-0.302996	-0.346386	-0.020834
H191	H	-0.286508	-0.928753	-1.110741
H192	H	0.213492	-0.428753	-0.610741
Cl193	Cl	-0.412852	-1.104126	-0.284316
Cl194	Cl	0.087148	-0.604126	0.215684
H195	H	-0.282138	-0.934411	-0.977922
H196	H	0.217862	-0.434411	-0.477922
Cl197	Cl	-0.152712	-0.245797	-0.493264
Cl198	Cl	0.347288	0.254203	0.006736
H199	H	-0.525257	-1.083477	-0.303331
H200	H	-0.025257	-0.583477	0.196669
H201	H	-0.308660	-0.900210	-0.778013
H202	H	0.191340	-0.400210	-0.278013
Cl203	Cl	-0.291712	-0.419518	-0.297524
Cl204	Cl	0.208288	0.080482	0.202476
H205	H	-0.298333	-0.735169	-0.288196
H206	H	0.201667	-0.235169	0.211804
Cl207	Cl	-0.162101	-1.089252	-0.636872
Cl208	Cl	0.337899	-0.589252	-0.136872
H209	H	-0.182553	-0.728367	-0.451182
H210	H	0.317447	-0.228367	0.048818
Cl211	Cl	-0.167561	-1.082242	-0.802121
Cl212	Cl	0.332439	-0.582242	-0.302121
H213	H	-0.187006	-1.057086	-0.871566
H214	H	0.312994	-0.557086	-0.371566
H215	H	-0.928549	-1.083663	-0.303393
H216	H	-0.428549	-0.583663	0.196607
H217	H	-1.027614	-1.083706	-0.303416
H218	H	-0.527614	-0.583706	0.196584
Cl219	Cl	-0.172957	-0.578495	-0.464719
Cl220	Cl	0.327043	-0.078495	0.035281
H221	H	-0.162311	-0.395683	-0.479729
H222	H	0.337689	0.104317	0.020271
Cl223	Cl	-0.293483	-0.919782	-0.906760
Cl224	Cl	0.206517	-0.419782	-0.406760
H225	H	-1.037968	-0.913965	-0.458975
H226	H	-0.537968	-0.413965	0.041025
H227	H	-0.690593	-0.867053	-0.501817
H228	H	-0.190593	-0.367053	-0.001817
H229	H	-0.535635	-0.913734	-0.458903
H230	H	-0.035635	-0.413734	0.041097
