data_functionalizedCrystal
_audit_creation_method	'MofGen! by Chris Wilmer'
_symmetry_space_group_name_H-M	'P1'
_symmetry_Int_Tables_number	1
_symmetry_cell_setting	triclinic
loop_
_symmetry_equiv_pos_as_xyz
  x,y,z
_cell_length_a	27.731994
_cell_length_b	26.809956
_cell_length_c	14.519709
_cell_angle_alpha	89.996594
_cell_angle_beta	83.150340
_cell_angle_gamma	90.002666
loop_
_atom_site_label
_atom_site_type_symbol
_atom_site_fract_x
_atom_site_fract_y
_atom_site_fract_z
O1	O	0.641471	0.041410	0.109480
O2	O	0.974805	0.374743	0.442813
O3	O	1.308138	0.708076	0.776147
O4	O	0.500754	0.041426	0.126217
O5	O	0.834088	0.374760	0.459550
O6	O	1.167421	0.708093	0.792884
O7	O	0.574844	0.041413	-0.016456
O8	O	0.908177	0.374746	0.316877
O9	O	1.241510	0.708080	0.650210
O10	O	0.567382	0.041423	0.252153
O11	O	0.900715	0.374756	0.585487
O12	O	1.234049	0.708090	0.918820
O13	O	0.574830	-0.041546	-0.016434
O14	O	0.908163	0.291787	0.316899
O15	O	1.241496	0.625120	0.650232
O16	O	0.500740	-0.041533	0.126239
O17	O	0.834074	0.291800	0.459572
O18	O	1.167407	0.625134	0.792905
O19	O	0.641458	-0.041550	0.109502
O20	O	0.974791	0.291784	0.442835
O21	O	1.308124	0.625117	0.776169
Zn22	Zn	0.571097	-0.054713	0.117874
Zn23	Zn	0.904430	0.278620	0.451207
Zn24	Zn	1.237763	0.611954	0.784540
Zn25	Zn	0.571115	0.054590	0.117845
Zn26	Zn	0.904448	0.387923	0.451178
Zn27	Zn	1.237782	0.721256	0.784512
O28	O	0.567368	-0.041536	0.252175
O29	O	0.900701	0.291797	0.585508
O30	O	1.234035	0.625130	0.918842
C31	C	0.482738	-0.000051	0.125884
C32	C	0.816072	0.333282	0.459218
C33	C	1.149405	0.666615	0.792551
C34	C	0.429077	-0.000045	0.124850
C35	C	0.762410	0.333288	0.458183
C36	C	1.095744	0.666622	0.791516
N37	N	0.571088	-0.129309	0.117893
N38	N	0.904421	0.204025	0.451226
N39	N	1.237754	0.537358	0.784559
C40	C	0.096320	-0.045286	0.118345
C41	C	0.429653	0.288048	0.451678
C42	C	0.762986	0.621381	0.785012
C43	C	-0.105357	-0.045291	0.114412
C44	C	0.227976	0.288042	0.447745
C45	C	0.561309	0.621375	0.781078
O46	O	-0.131439	-0.083750	0.113874
O47	O	0.201894	0.249583	0.447207
O48	O	0.535228	0.582917	0.780540
N49	N	-0.130567	-0.000070	0.113911
N50	N	0.202767	0.333263	0.447245
N51	N	0.536100	0.666596	0.780578
C52	C	-0.105354	0.045155	0.114388
C53	C	0.227980	0.378489	0.447722
C54	C	0.561313	0.711822	0.781055
O55	O	-0.131423	0.083619	0.113863
O56	O	0.201911	0.416952	0.447196
O57	O	0.535244	0.750285	0.780530
C58	C	0.096323	0.045161	0.118315
C59	C	0.429656	0.378494	0.451648
C60	C	0.762990	0.711827	0.784982
C61	C	0.121529	-0.000063	0.118825
C62	C	0.454863	0.333270	0.452158
C63	C	0.788196	0.666603	0.785491
C64	C	0.121526	-0.090506	0.118854
C65	C	0.454859	0.242828	0.452187
C66	C	0.788193	0.576161	0.785520
C67	C	0.171942	-0.090504	0.119842
C68	C	0.505275	0.242829	0.453175
C69	C	0.838609	0.576163	0.786509
C70	C	0.197151	-0.045282	0.120322
C71	C	0.530485	0.288052	0.453655
C72	C	0.863818	0.621385	0.786988
C73	C	0.171945	-0.000061	0.119813
C74	C	0.505278	0.333272	0.453146
C75	C	0.838612	0.666605	0.786480
C76	C	0.121536	0.090386	0.118785
C77	C	0.454869	0.423719	0.452119
C78	C	0.788202	0.757053	0.785452
C79	C	0.171958	0.090383	0.119765
C80	C	0.505291	0.423716	0.453098
C81	C	0.838625	0.757050	0.786431
C82	C	0.197164	0.045159	0.120274
C83	C	0.530498	0.378493	0.453608
C84	C	0.863831	0.711826	0.786941
C85	C	0.247570	0.045163	0.121281
C86	C	0.580904	0.378496	0.454614
C87	C	0.914237	0.711829	0.787948
N88	N	0.272780	-0.000058	0.121781
N89	N	0.606113	0.333275	0.455115
N90	N	0.939447	0.666608	0.788448
C91	C	0.247570	-0.045281	0.121302
C92	C	0.580904	0.288053	0.454635
C93	C	0.914237	0.621386	0.787968
C94	C	-0.211237	0.045149	0.112329
C95	C	0.122097	0.378483	0.445662
C96	C	0.455430	0.711816	0.778995
C97	C	-0.261656	0.045148	0.111349
C98	C	0.071678	0.378482	0.444682
C99	C	0.405011	0.711815	0.778015
C100	C	-0.261656	-0.045299	0.111371
C101	C	0.071678	0.288035	0.444704
C102	C	0.405011	0.621368	0.778037
C103	C	-0.211236	-0.045297	0.112357
C104	C	0.122097	0.288036	0.445690
C105	C	0.455430	0.621370	0.779024
C106	C	-0.186027	-0.000072	0.112829
C107	C	0.147306	0.333262	0.446162
C108	C	0.480639	0.666595	0.779496
C109	C	0.353447	-0.045273	0.123378
C110	C	0.686781	0.288060	0.456711
C111	C	1.020114	0.621394	0.790044
C112	C	0.403867	-0.045267	0.124370
C113	C	0.737201	0.288066	0.457703
C114	C	1.070534	0.621400	0.791037
C115	C	0.403863	0.045179	0.124343
C116	C	0.737197	0.378513	0.457677
C117	C	1.070530	0.711846	0.791010
C118	C	0.353447	0.045174	0.123356
C119	C	0.686781	0.378507	0.456689
C120	C	1.020114	0.711840	0.790023
C121	C	0.328241	-0.000056	0.122870
C122	C	0.661574	0.333277	0.456204
C123	C	0.994908	0.666610	0.789537
O124	O	0.273684	0.083601	0.121809
O125	O	0.607017	0.416935	0.455142
O126	O	0.940351	0.750268	0.788476
O127	O	0.273650	-0.083738	0.121806
O128	O	0.606983	0.249595	0.455140
O129	O	0.940316	0.582929	0.788473
C130	C	0.045904	-0.045287	0.117357
C131	C	0.379237	0.288046	0.450690
C132	C	0.712571	0.621379	0.784023
C133	C	0.020697	-0.000067	0.116848
C134	C	0.354031	0.333266	0.450181
C135	C	0.687364	0.666600	0.783515
C136	C	0.045907	0.045155	0.117328
C137	C	0.379240	0.378488	0.450661
C138	C	0.712574	0.711822	0.783994
C139	C	-0.029722	-0.000068	0.115868
C140	C	0.303612	0.333265	0.449201
C141	C	0.636945	0.666598	0.782535
C142	C	-0.054931	-0.045291	0.115388
C143	C	0.278402	0.288043	0.448722
C144	C	0.611736	0.621376	0.782055
C145	C	-0.029721	-0.090512	0.115889
C146	C	0.303612	0.242822	0.449222
C147	C	0.636945	0.576155	0.782555
C148	C	0.020694	-0.090510	0.116877
C149	C	0.354028	0.242824	0.450210
C150	C	0.687361	0.576157	0.783544
C151	C	0.020697	0.090376	0.116827
C152	C	0.354031	0.423709	0.450161
C153	C	0.687364	0.757043	0.783494
C154	C	-0.029719	0.090371	0.115840
C155	C	0.303615	0.423704	0.449173
C156	C	0.636948	0.757037	0.782507
C157	C	-0.054928	0.045148	0.115360
C158	C	0.278405	0.378482	0.448694
C159	C	0.611739	0.711815	0.782027
C160	C	0.603918	-0.473941	0.054685
C161	C	0.937251	-0.140607	0.388018
C162	C	1.270584	0.192726	0.721352
C163	C	0.603929	-0.682818	0.054671
C164	C	0.937263	-0.349485	0.388004
C165	C	1.270596	-0.016152	0.721337
O166	O	0.631823	-0.709827	0.000935
O167	O	0.965156	-0.376494	0.334268
O168	O	1.298490	-0.043161	0.667602
N169	N	0.571118	-0.708936	0.117825
N170	N	0.904451	-0.375603	0.451158
N171	N	1.237784	-0.042269	0.784491
C172	C	0.538299	-0.682831	0.180983
C173	C	0.871632	-0.349497	0.514316
C174	C	1.204966	-0.016164	0.847649
O175	O	0.510388	-0.709838	0.234692
O176	O	0.843721	-0.376505	0.568026
O177	O	1.177054	-0.043171	0.901359
C178	C	0.538286	-0.473954	0.180992
C179	C	0.871619	-0.140621	0.514325
C180	C	1.204952	0.192713	0.847658
C181	C	0.571102	-0.447839	0.117840
C182	C	0.904436	-0.114506	0.451173
C183	C	1.237769	0.218827	0.784507
C184	C	0.636732	-0.447826	-0.008463
C185	C	0.970065	-0.114493	0.324871
C186	C	1.303398	0.218841	0.658204
C187	C	0.636730	-0.395610	-0.008455
C188	C	0.970064	-0.062276	0.324878
C189	C	1.303397	0.271057	0.658212
C190	C	0.603915	-0.369508	0.054700
C191	C	0.937248	-0.036175	0.388033
C192	C	1.270582	0.297159	0.721367
C193	C	0.571101	-0.395623	0.117847
C194	C	0.904434	-0.062290	0.451181
C195	C	1.237768	0.271044	0.784514
C196	C	0.505465	-0.447850	0.244145
C197	C	0.838798	-0.114516	0.577478
C198	C	1.172131	0.218817	0.910811
C199	C	0.505464	-0.395627	0.244140
C200	C	0.838797	-0.062294	0.577473
C201	C	1.172130	0.271039	0.910806
C202	C	0.538280	-0.369513	0.180988
C203	C	0.871614	-0.036179	0.514321
C204	C	1.204947	0.297154	0.847655
C205	C	0.538284	-0.317305	0.181010
C206	C	0.871618	0.016028	0.514343
C207	C	1.204951	0.349361	0.847677
N208	N	0.571096	-0.291188	0.117856
N209	N	0.904429	0.042146	0.451189
N210	N	1.237762	0.375479	0.784523
C211	C	0.603911	-0.317289	0.054701
C212	C	0.937244	0.016044	0.388034
C213	C	1.270578	0.349377	0.721368
C214	C	0.538309	-0.792494	0.180975
C215	C	0.871642	-0.459161	0.514308
C216	C	1.204976	-0.125827	0.847641
C217	C	0.538313	-0.844713	0.180974
C218	C	0.871646	-0.511380	0.514307
C219	C	1.204979	-0.178046	0.847640
C220	C	0.603943	-0.844697	0.054660
C221	C	0.937276	-0.511364	0.387994
C222	C	1.270609	-0.178030	0.721327
C223	C	0.603941	-0.792477	0.054666
C224	C	0.937274	-0.459144	0.388000
C225	C	1.270607	-0.125811	0.721333
C226	C	0.571120	-0.766377	0.117821
C227	C	0.904454	-0.433043	0.451154
C228	C	1.237787	-0.099710	0.784487
C229	C	0.603906	-0.207631	0.054722
C230	C	0.937239	0.125702	0.388055
C231	C	1.270573	0.459035	0.721389
C232	C	0.603903	-0.155410	0.054738
C233	C	0.937236	0.177923	0.388071
C234	C	1.270570	0.511256	0.721404
C235	C	0.538272	-0.155431	0.181047
C236	C	0.871605	0.177903	0.514381
C237	C	1.204938	0.511236	0.847714
C238	C	0.538276	-0.207647	0.181035
C239	C	0.871609	0.125686	0.514369
C240	C	1.204943	0.459020	0.847702
C241	C	0.571095	-0.233746	0.117865
C242	C	0.904428	0.099587	0.451198
C243	C	1.237762	0.432921	0.784532
O244	O	0.510402	-0.290264	0.234711
O245	O	0.843735	0.043069	0.568044
O246	O	1.177068	0.376403	0.901377
O247	O	0.631811	-0.290273	0.000986
O248	O	0.965144	0.043060	0.334319
O249	O	1.298478	0.376394	0.667652
C250	C	0.603919	-0.526157	0.054677
C251	C	0.937253	-0.192824	0.388011
C252	C	1.270586	0.140510	0.721344
C253	C	0.571105	-0.552272	0.117825
C254	C	0.904439	-0.218939	0.451158
C255	C	1.237772	0.114395	0.784492
C256	C	0.538290	-0.526170	0.180980
C257	C	0.871623	-0.192837	0.514313
C258	C	1.204957	0.140496	0.847646
C259	C	0.571109	-0.604491	0.117824
C260	C	0.904442	-0.271157	0.451157
C261	C	1.237776	0.062176	0.784491
C262	C	0.603924	-0.630592	0.054669
C263	C	0.937258	-0.297259	0.388002
C264	C	1.270591	0.036074	0.721336
C265	C	0.636736	-0.604475	-0.008485
C266	C	0.970069	-0.271141	0.324848
C267	C	1.303403	0.062192	0.658182
C268	C	0.636734	-0.552259	-0.008478
C269	C	0.970068	-0.218925	0.324856
C270	C	1.303401	0.114408	0.658189
C271	C	0.505478	-0.552288	0.244134
C272	C	0.838812	-0.218954	0.577467
C273	C	1.172145	0.114379	0.910800
C274	C	0.505483	-0.604504	0.244122
C275	C	0.838816	-0.271171	0.577455
C276	C	1.172150	0.062163	0.910788
C277	C	0.538298	-0.630606	0.180967
C278	C	0.871632	-0.297272	0.514300
C279	C	1.204965	0.036061	0.847634
C280	C	0.659474	-0.000071	0.109834
C281	C	0.992807	0.333262	0.443168
C282	C	1.326140	0.666596	0.776501
C283	C	0.713135	-0.000074	0.110869
C284	C	1.046468	0.333259	0.444202
C285	C	1.379801	0.666593	0.777536
C286	C	0.574489	-0.000067	-0.050799
C287	C	0.907822	0.333267	0.282534
C288	C	1.241156	0.666600	0.615868
C289	C	0.573447	-0.000067	-0.153162
C290	C	0.906780	0.333267	0.180172
C291	C	1.240114	0.666600	0.513505
N292	N	0.571128	0.129186	0.117819
N293	N	0.904461	0.462519	0.451152
N294	N	1.237795	0.795852	0.784485
C295	C	0.569611	-0.000053	-0.527989
C296	C	0.902944	0.333280	-0.194656
C297	C	1.236277	0.666613	0.138677
C298	C	0.570676	-0.000057	-0.423700
C299	C	0.904009	0.333276	-0.090367
C300	C	1.237343	0.666609	0.242966
C301	C	0.571529	-0.000061	-0.340579
C302	C	0.904862	0.333273	-0.007245
C303	C	1.238195	0.666606	0.326088
C304	C	0.572594	-0.000063	-0.236283
C305	C	0.905928	0.333270	0.097050
C306	C	1.239261	0.666603	0.430384
C307	C	0.567723	-0.000056	0.286518
C308	C	0.901056	0.333278	0.619851
C309	C	1.234389	0.666611	0.953184
C310	C	0.568765	-0.000052	0.388880
C311	C	0.902098	0.333281	0.722214
C312	C	1.235431	0.666615	1.055547
H313	H	0.424388	-0.082096	0.124788
H314	H	0.757721	0.251238	0.458121
H315	H	1.091055	0.584571	0.791455
Br316	Br	-0.063945	-0.151884	0.115244
Br317	Br	0.269388	0.181449	0.448578
Br318	Br	0.602722	0.514783	0.781911
H319	H	0.511595	-0.865972	0.232407
H320	H	0.844929	-0.532639	0.565741
H321	H	1.178262	-0.199305	0.899074
H322	H	0.041218	0.127202	0.117215
H323	H	0.374551	0.460536	0.450548
H324	H	0.707885	0.793869	0.783882
Br325	Br	-0.295860	0.106526	0.110680
Br326	Br	0.037474	0.439859	0.444013
Br327	Br	0.370807	0.773193	0.777347
Br328	Br	-0.177032	0.106533	0.112970
Br329	Br	0.156302	0.439866	0.446303
Br330	Br	0.489635	0.773200	0.779636
Br331	Br	0.493744	-0.243087	0.266756
Br332	Br	0.827077	0.090246	0.600090
Br333	Br	1.160411	0.423579	0.933423
H334	H	0.511555	-0.134171	0.232470
H335	H	0.844888	0.199163	0.565804
H336	H	1.178222	0.532496	0.899137
H337	H	0.663457	-0.531000	-0.059902
H338	H	0.996790	-0.197666	0.273431
H339	H	1.330124	0.135667	0.606765
H340	H	0.041213	-0.127336	0.117292
H341	H	0.374546	0.205998	0.450625
H342	H	0.707880	0.539331	0.783959
Br343	Br	0.460945	-0.639940	0.329841
Br344	Br	0.794278	-0.306607	0.663175
Br345	Br	1.127611	0.026727	0.996508
H346	H	0.101021	0.127212	0.118369
H347	H	0.434355	0.460545	0.451702
H348	H	0.767688	0.793879	0.785036
H349	H	0.663457	-0.625735	-0.059906
H350	H	0.996791	-0.292402	0.273428
H351	H	1.330124	0.040931	0.606761
H352	H	0.663451	-0.374350	-0.059881
H353	H	0.996784	-0.041017	0.273452
H354	H	1.330118	0.292317	0.606786
H355	H	0.424398	0.081998	0.124738
H356	H	0.757731	0.415332	0.458071
H357	H	1.091065	0.748665	0.791404
Br358	Br	0.460939	-0.516871	0.329851
Br359	Br	0.794272	-0.183538	0.663185
Br360	Br	1.127606	0.149796	0.996518
Br361	Br	0.206168	0.151764	0.120400
Br362	Br	0.539501	0.485097	0.453733
Br363	Br	0.872835	0.818431	0.787067
H364	H	0.332922	0.081999	0.122956
H365	H	0.666256	0.415332	0.456289
H366	H	0.999589	0.748666	0.789623
H367	H	0.192461	-0.127330	0.120251
H368	H	0.525794	0.206003	0.453585
H369	H	0.859128	0.539337	0.786918
Br370	Br	0.319247	-0.106657	0.122716
Br371	Br	0.652580	0.226676	0.456049
Br372	Br	0.985913	0.560009	0.789382
H373	H	0.101006	-0.127333	0.118461
H374	H	0.434339	0.206000	0.451794
H375	H	0.767673	0.539333	0.785128
Br376	Br	-0.063921	0.151752	0.115157
Br377	Br	0.269412	0.485085	0.448490
Br378	Br	0.602745	0.818419	0.781823
H379	H	0.630628	-0.134149	0.003312
H380	H	0.963961	0.199184	0.336645
H381	H	1.297295	0.532517	0.669978
Br382	Br	0.648446	-0.243043	-0.031010
Br383	Br	0.981780	0.090291	0.302323
Br384	Br	1.315113	0.423624	0.635656
H385	H	-0.190717	-0.082122	0.112773
H386	H	0.142617	0.251211	0.446106
H387	H	0.475950	0.584544	0.779440
H388	H	0.663454	-0.469073	-0.059895
H389	H	0.996787	-0.135740	0.273438
H390	H	1.330120	0.197593	0.606772
H391	H	-0.282190	-0.082120	0.110982
H392	H	0.051143	0.251213	0.444315
H393	H	0.384477	0.584546	0.777649
Br394	Br	0.460917	-0.360209	0.329851
Br395	Br	0.794250	-0.026875	0.663184
Br396	Br	1.127583	0.306458	0.996518
Br397	Br	0.648479	-0.757041	-0.031043
Br398	Br	0.981813	-0.423708	0.302291
Br399	Br	1.315146	-0.090375	0.635624
Br400	Br	0.493764	-0.757078	0.266693
Br401	Br	0.827097	-0.423744	0.600026
Br402	Br	1.160431	-0.090411	0.933360
Br403	Br	0.648477	-0.880131	-0.031049
Br404	Br	0.981811	-0.546798	0.302284
Br405	Br	1.315144	-0.213465	0.635618
H406	H	0.478742	-0.469105	0.295568
H407	H	0.812075	-0.135772	0.628901
H408	H	1.145409	0.197561	0.962235
