data_functionalizedCrystal
_audit_creation_method	'MofGen! by Chris Wilmer'
_symmetry_space_group_name_H-M	'P1'
_symmetry_Int_Tables_number	1
_symmetry_cell_setting	triclinic
loop_
_symmetry_equiv_pos_as_xyz
  x,y,z
_cell_length_a	19.188930
_cell_length_b	19.188930
_cell_length_c	17.666332
_cell_angle_alpha	90.023234
_cell_angle_beta	89.988397
_cell_angle_gamma	96.855221
loop_
_atom_site_label
_atom_site_type_symbol
_atom_site_fract_x
_atom_site_fract_y
_atom_site_fract_z
O1	O	0.087169	-0.926150	-0.063200
O2	O	0.587169	-0.426150	0.436800
O3	O	0.098903	-0.722838	-0.063149
O4	O	0.598903	-0.222838	0.436851
O5	O	-0.008620	-0.830361	-0.063161
O6	O	0.491380	-0.330361	0.436839
O7	O	0.194692	-0.818627	-0.063188
O8	O	0.694692	-0.318627	0.436812
O9	O	-0.008625	-0.830342	0.062735
O10	O	0.491375	-0.330342	0.562735
O11	O	0.098897	-0.722820	0.062747
O12	O	0.598897	-0.222820	0.562747
O13	O	0.087163	-0.926131	0.062697
O14	O	0.587163	-0.426131	0.562697
Cu15	Cu	0.093030	-0.824473	0.074217
Cu16	Cu	0.593030	-0.324473	0.574217
Cu17	Cu	0.093036	-0.824496	-0.074670
Cu18	Cu	0.593036	-0.324496	0.425330
O19	O	0.194686	-0.818608	0.062709
O20	O	0.694686	-0.318608	0.562709
C21	C	0.098520	-0.696818	-0.000194
C22	C	0.598520	-0.196818	0.499806
C23	C	0.097380	-0.619313	-0.000174
C24	C	0.597380	-0.119313	0.499826
N25	N	0.093025	-0.824463	0.178937
N26	N	0.593025	-0.324463	0.678937
C27	C	-0.034634	-0.829972	-0.000211
C28	C	0.465366	-0.329972	0.499789
C29	C	-0.112138	-0.828831	-0.000204
C30	C	0.387862	-0.328831	0.499796
C31	C	-0.157062	-0.891922	-0.000216
C32	C	0.342938	-0.391922	0.499784
C33	C	-0.229886	-0.890850	-0.000228
C34	C	0.270114	-0.390850	0.499772
C35	C	-0.257782	-0.826684	-0.000212
C36	C	0.242218	-0.326684	0.499788
C37	C	-0.212849	-0.763585	-0.000205
C38	C	0.287151	-0.263585	0.499795
C39	C	-0.140026	-0.764658	-0.000200
C40	C	0.359974	-0.264658	0.499800
N41	N	-0.365789	-0.777630	0.042645
N42	N	0.134211	-0.277630	0.542645
N43	N	-0.434968	-0.776615	0.042642
N44	N	0.065032	-0.276615	0.542642
C45	C	-0.477191	-0.823446	-0.000227
C46	C	0.022809	-0.323446	0.499773
N47	N	-0.447624	-0.871341	-0.043084
N48	N	0.052376	-0.371341	0.456916
N49	N	-0.378439	-0.872359	-0.043079
N50	N	0.121561	-0.372359	0.456921
C51	C	-0.336745	-0.825513	-0.000218
C52	C	0.163255	-0.325513	0.499782
C53	C	-0.601079	-0.885379	-0.000253
C54	C	-0.101079	-0.385379	0.499747
C55	C	-0.673904	-0.884305	-0.000270
C56	C	-0.173904	-0.384305	0.499730
C57	C	-0.656865	-0.757038	-0.000239
C58	C	-0.156865	-0.257038	0.499761
C59	C	-0.584042	-0.758114	-0.000230
C60	C	-0.084042	-0.258114	0.499770
C61	C	-0.556154	-0.822287	-0.000233
C62	C	-0.056154	-0.322287	0.499767
C63	C	0.220700	-0.818997	-0.000244
C64	C	0.720700	-0.318997	0.499756
C65	C	0.298204	-0.820138	-0.000255
C66	C	0.798204	-0.320138	0.499745
C67	C	0.087546	-0.952151	-0.000260
C68	C	0.587546	-0.452151	0.499740
C69	C	0.088687	-1.029656	-0.000285
C70	C	0.588687	-0.529656	0.499715
C71	C	0.160470	-0.574389	-0.000194
C72	C	0.660470	-0.074389	0.499806
C73	C	0.159399	-0.501566	-0.000203
C74	C	0.659399	-0.001566	0.499797
C75	C	0.095233	-0.473669	-0.000206
C76	C	0.595233	0.026331	0.499794
C77	C	0.032133	-0.518603	-0.000181
C78	C	0.532133	-0.018603	0.499819
C79	C	0.033207	-0.591425	-0.000166
C80	C	0.533207	-0.091425	0.499834
N81	N	0.046188	-0.365695	-0.043078
N82	N	0.546188	0.134305	0.456922
N83	N	0.045172	-0.296517	-0.043095
N84	N	0.545172	0.203483	0.456905
C85	C	0.091994	-0.254260	-0.000252
C86	C	0.591994	0.245740	0.499748
N87	N	0.139881	-0.283795	0.042599
N88	N	0.639881	0.216205	0.542599
N89	N	0.140899	-0.352979	0.042612
N90	N	0.640899	0.147021	0.542612
C91	C	0.094062	-0.394707	-0.000222
C92	C	0.594062	0.105293	0.499778
C93	C	0.153928	-0.130372	-0.000280
C94	C	0.653928	0.369628	0.499720
C95	C	0.152853	-0.057547	-0.000283
C96	C	0.652853	0.442453	0.499717
C97	C	0.025586	-0.074586	-0.000270
C98	C	0.525586	0.425414	0.499730
C99	C	0.026662	-0.147409	-0.000258
C100	C	0.526662	0.352591	0.499742
C101	C	0.090835	-0.175298	-0.000267
C102	C	0.590835	0.324702	0.499733
N103	N	0.093036	-0.824512	-0.179390
N104	N	0.593036	-0.324512	0.320610
C105	C	0.045437	-0.872089	0.218541
C106	C	0.545437	-0.372089	0.718541
C107	C	0.045433	-0.872093	0.297789
C108	C	0.545433	-0.372093	0.797789
C109	C	0.093030	-0.824478	0.337429
C110	C	0.593030	-0.324478	0.837429
C111	C	0.140621	-0.776842	0.297815
C112	C	0.640621	-0.276842	0.797815
C113	C	0.140619	-0.776835	0.218569
C114	C	0.640619	-0.276835	0.718569
N115	N	0.154837	-0.815401	0.461841
N116	N	0.654837	-0.315401	0.961841
N117	N	0.154837	-0.815413	0.537121
N118	N	0.654837	-0.315413	1.037121
C119	C	0.093040	-0.824496	0.576193
C120	C	0.593040	-0.324496	1.076193
N121	N	0.031239	-0.833582	0.537140
N122	N	0.531239	-0.333582	1.037140
N123	N	0.031240	-0.833574	0.461853
N124	N	0.531240	-0.333574	0.961853
C125	C	0.093038	-0.824480	0.423358
C126	C	0.593038	-0.324480	0.923358
C127	C	0.045444	-0.872130	0.701727
C128	C	0.545444	-0.372130	1.201727
C129	C	0.045440	-0.872129	0.780976
C130	C	0.545440	-0.372129	1.280976
C131	C	0.140634	-0.776881	0.781000
C132	C	0.640634	-0.276881	1.281000
C133	C	0.140632	-0.776878	0.701753
C134	C	0.640632	-0.276878	1.201753
C135	C	0.093038	-0.824506	0.662121
C136	C	0.593038	-0.324506	1.162121
H137	H	-0.266470	-0.942228	-0.000241
H138	H	0.233530	-0.442228	0.499759
N139	N	0.191959	-0.725509	0.659031
N140	N	0.691959	-0.225509	1.159031
H141	H	0.222111	-0.695344	0.696165
H142	H	0.722111	-0.195344	1.196165
H143	H	0.222761	-0.752136	0.626126
H144	H	0.722761	-0.252136	1.126126
H145	H	-0.024713	-0.183988	-0.000246
H146	H	0.475287	0.316012	0.499754
N147	N	-0.091567	-0.696608	-0.000188
N148	N	0.408433	-0.196608	0.499812
H149	H	-0.120287	-0.655794	-0.000182
H150	H	0.379713	-0.155794	0.499818
H151	H	-0.060994	-0.694274	0.046488
H152	H	0.439006	-0.194274	0.546488
N153	N	-0.686943	-0.687828	-0.000230
N154	N	-0.186943	-0.187828	0.499770
H155	H	-0.739893	-0.696720	-0.000238
H156	H	-0.239893	-0.196720	0.499762
H157	H	-0.670506	-0.660220	0.046448
H158	H	-0.170506	-0.160220	0.546448
N159	N	0.227451	-0.453104	-0.000227
N160	N	0.727451	0.046896	0.499773
H161	H	0.255453	-0.462080	-0.046902
H162	H	0.755453	0.037920	0.453098
H163	H	0.216975	-0.402760	-0.000209
H164	H	0.716975	0.097240	0.499791
N165	N	-0.722363	-0.952355	-0.000278
N166	N	-0.222363	-0.452355	0.499722
H167	H	-0.752945	-0.954760	-0.046951
H168	H	-0.252945	-0.454760	0.453049
H169	H	-0.693594	-0.993129	-0.000248
H170	H	-0.193594	-0.493129	0.499752
H171	H	0.179371	-0.738051	0.186322
H172	H	0.679371	-0.238051	0.686322
H173	H	-0.020111	-0.495885	-0.000194
H174	H	0.479889	0.004115	0.499806
N175	N	0.223137	-0.160461	-0.000276
N176	N	0.723137	0.339539	0.499724
H177	H	0.226423	-0.190317	-0.046942
H178	H	0.726423	0.309683	0.453058
H179	H	0.262904	-0.120911	-0.000254
H180	H	0.762904	0.379089	0.499746
H181	H	0.179385	-0.738109	0.813275
H182	H	0.679385	-0.238109	1.313275
H183	H	-0.018171	-0.628003	-0.000150
H184	H	0.481829	-0.128003	0.499850
H185	H	0.204232	-0.020970	-0.000295
H186	H	0.704232	0.479030	0.499705
H187	H	-0.235567	-0.711340	-0.000194
H188	H	0.264433	-0.211340	0.499806
N189	N	-0.570993	-0.954589	-0.000260
N190	N	-0.070993	-0.454589	0.499740
H191	H	-0.610505	-0.994396	-0.000276
H192	H	-0.110505	-0.494396	0.499724
H193	H	-0.541136	-0.957813	-0.046928
H194	H	-0.041136	-0.457813	0.453072
H195	H	-0.026659	-0.051874	-0.000319
H196	H	0.473341	0.448126	0.499681
H197	H	-0.547464	-0.706738	-0.000216
H198	H	-0.047464	-0.206738	0.499784
N199	N	0.229682	-0.604469	-0.000209
N200	N	0.729682	-0.104469	0.499791
H201	H	0.269487	-0.564955	-0.000225
H202	H	0.769487	-0.064955	0.499775
H203	H	0.232904	-0.634288	0.046466
H204	H	0.732904	-0.134288	0.546466
H205	H	0.006681	-0.910869	0.186275
H206	H	0.506681	-0.410869	0.686275
H207	H	-0.134360	-0.944176	-0.000222
H208	H	0.365640	-0.444176	0.499778
H209	H	0.006680	-0.910878	0.330041
H210	H	0.506680	-0.410878	0.830041
N211	N	0.191955	-0.725481	0.340564
N212	N	0.691955	-0.225481	0.840564
H213	H	0.184737	-0.732713	0.396776
H214	H	0.684737	-0.232713	0.896776
H215	H	0.241467	-0.733387	0.326693
H216	H	0.741467	-0.233387	0.826693
N217	N	-0.005888	-0.923494	0.658973
N218	N	0.494112	-0.423494	1.158973
H219	H	-0.036040	-0.953663	0.696091
H220	H	0.463960	-0.453663	1.196091
H221	H	-0.036688	-0.896860	0.626113
H222	H	0.463312	-0.396860	1.126113
H223	H	0.006684	-0.910910	0.813222
H224	H	0.506684	-0.410910	1.313222
