data_functionalizedCrystal
_audit_creation_method	'MofGen! by Chris Wilmer'
_symmetry_space_group_name_H-M	'P1'
_symmetry_Int_Tables_number	1
_symmetry_cell_setting	triclinic
loop_
_symmetry_equiv_pos_as_xyz
  x,y,z
_cell_length_a	14.519709
_cell_length_b	22.610064
_cell_length_c	14.519731
_cell_angle_alpha	89.990219
_cell_angle_beta	96.315500
_cell_angle_gamma	90.009670
loop_
_atom_site_label
_atom_site_type_symbol
_atom_site_fract_x
_atom_site_fract_y
_atom_site_fract_z
O1	O	1.223891	0.049115	-0.120888
O2	O	0.955416	0.049134	-0.135124
O3	O	1.096761	0.049112	0.006231
O4	O	1.082545	0.049137	-0.262243
O5	O	1.096720	-0.049257	0.006231
O6	O	0.955374	-0.049235	-0.135124
O7	O	1.223850	-0.049254	-0.120888
Zn8	Zn	1.089605	-0.064863	-0.128006
Zn9	Zn	1.089660	0.064743	-0.128006
O10	O	1.082504	-0.049232	-0.262243
C11	C	0.921035	-0.000049	-0.134461
C12	C	0.818654	-0.000042	-0.132473
N13	N	1.089575	-0.153316	-0.128005
C14	C	0.443757	-0.000069	-0.125153
C15	C	0.548065	-0.000062	-0.127186
C16	C	0.631202	-0.000055	-0.128813
C17	C	0.735517	-0.000048	-0.130846
C18	C	1.145688	-0.561956	-0.184055
C19	C	1.145699	-0.623876	-0.184052
O20	O	1.193372	-0.655893	-0.231701
N21	N	1.089678	-0.654853	-0.127996
C22	C	1.033648	-0.623907	-0.071931
O23	O	0.985999	-0.655941	-0.024249
C24	C	1.033642	-0.561988	-0.071929
C25	C	1.089660	-0.531014	-0.127996
C26	C	1.201702	-0.530982	-0.240116
C27	C	1.201689	-0.469066	-0.240120
C28	C	1.145662	-0.438124	-0.184061
C29	C	1.089647	-0.469098	-0.127999
C30	C	0.977618	-0.531043	-0.015859
C31	C	0.977617	-0.469120	-0.015862
C32	C	1.033635	-0.438146	-0.071929
C33	C	1.033606	-0.376241	-0.071944
N34	N	1.089628	-0.345264	-0.128000
C35	C	1.145656	-0.376206	-0.184059
C36	C	1.033666	-0.753940	-0.071938
C37	C	1.033666	-0.815858	-0.071944
C38	C	1.145719	-0.815823	-0.184065
C39	C	1.145713	-0.753904	-0.184063
C40	C	1.089688	-0.722963	-0.127995
C41	C	1.145623	-0.246178	-0.184062
C42	C	1.145602	-0.184257	-0.184064
C43	C	1.033553	-0.184298	-0.071940
C44	C	1.033570	-0.246214	-0.071942
C45	C	1.089613	-0.277152	-0.128006
O46	O	0.985961	-0.344184	-0.024316
O47	O	1.193306	-0.344164	-0.231723
C48	C	1.258230	-0.000071	-0.121551
C49	C	1.360612	-0.000074	-0.123539
C50	C	1.096075	-0.000075	0.040591
C51	C	1.094079	-0.000080	0.142971
N52	N	1.089698	0.153195	-0.128000
C53	C	1.092457	-0.000082	0.226115
C54	C	1.090430	-0.000083	0.330424
C55	C	1.088822	-0.000083	0.413563
C56	C	1.086795	-0.000085	0.517878
C57	C	1.083191	-0.000057	0.703397
C58	C	1.085187	-0.000085	0.601017
H59	H	1.191259	-0.271361	-0.229715
H60	H	1.247309	-0.443853	-0.285772
H61	H	0.931993	-0.443931	0.029798
O62	O	0.973254	-0.720561	-0.011451
H63	H	0.923765	-0.692341	-0.055535
H64	H	1.247332	-0.556168	-0.285766
O65	O	0.973127	-0.150937	-0.011455
H66	H	0.993093	-0.162845	0.062200
H67	H	1.191328	-0.728689	-0.229718
O68	O	1.206157	-0.849202	-0.244526
H69	H	1.279827	-0.837305	-0.224625
H70	H	0.987944	-0.271434	-0.026299
H71	H	1.191219	-0.159041	-0.229725
H72	H	0.988039	-0.841072	-0.026300
H73	H	0.932003	-0.556251	0.029798
