data_functionalizedCrystal
_audit_creation_method	'MofGen! by Chris Wilmer'
_symmetry_space_group_name_H-M	'P1'
_symmetry_Int_Tables_number	1
_symmetry_cell_setting	triclinic
loop_
_symmetry_equiv_pos_as_xyz
  x,y,z
_cell_length_a	6.817900
_cell_length_b	11.168129
_cell_length_c	16.015572
_cell_angle_alpha	76.766063
_cell_angle_beta	104.485554
_cell_angle_gamma	108.508637
loop_
_atom_site_label
_atom_site_type_symbol
_atom_site_fract_x
_atom_site_fract_y
_atom_site_fract_z
V1	V	-3.999072	-0.050929	-0.269395
O2	O	-3.960768	0.129811	-0.264259
O3	O	-3.976116	-0.223478	-0.267560
O4	O	-3.927036	0.005739	-0.386884
O5	O	-4.010188	-0.100993	-0.144109
V6	V	-4.482466	-0.035914	-0.254409
O7	O	-4.260614	-0.083867	-0.302268
O8	O	-4.671122	-0.002977	-0.221536
O9	O	-4.282216	0.136634	-0.256244
O10	O	-4.638167	-0.216654	-0.259545
O11	O	-4.588747	0.014149	-0.379695
O12	O	-4.331296	-0.092582	-0.136920
C13	C	-3.828071	-0.267288	-0.263312
C14	C	-3.890431	-0.407989	-0.262595
C15	C	-3.892349	-0.488130	-0.187081
C16	C	-3.956800	-0.633552	-0.186338
C17	C	-3.765464	0.025102	-0.415521
C18	C	-3.788018	0.070293	-0.511569
C19	C	-4.135799	-0.330821	-0.889219
C20	C	-4.156991	-0.288316	-0.979467
C21	C	-4.047576	-0.068411	-0.954750
C22	C	-4.026365	-0.110897	-0.864499
C23	C	-4.070483	-0.242103	-0.831741
C24	C	-3.961048	-0.022180	-0.807020
C25	C	-3.939850	-0.064663	-0.716777
C26	C	-3.983968	-0.195864	-0.684012
C27	C	-4.049284	-0.284587	-0.741497
C28	C	-3.916946	0.109026	-0.839780
C29	C	-3.851629	0.197743	-0.782302
C30	C	-3.830415	0.155261	-0.692056
C31	C	-3.874533	0.024060	-0.659291
C32	C	-3.765099	0.243983	-0.634570
C33	C	-3.743900	0.201500	-0.544327
C34	C	-3.853335	-0.018424	-0.569047
C35	C	-4.093604	0.180437	-0.260490
C36	C	-4.010482	0.321139	-0.261212
C37	C	-4.156212	-0.111952	-0.108279
C38	C	-4.112895	-0.157137	-0.012230
H39	H	-4.008728	-0.610016	-0.325867
H40	H	-3.936510	-0.447037	-0.326695
H41	H	-3.889233	-0.125265	-0.542374
H42	H	-4.011669	0.038418	-0.981435
Cl43	Cl	-4.239116	-0.399862	-1.051725
Cl44	Cl	-3.796172	0.362683	-0.823492
H45	H	-3.966710	-0.230452	-0.610529
Cl46	Cl	-4.104699	-0.449535	-0.700308
H47	H	-3.846287	-0.449082	-0.122981
H48	H	-4.171697	-0.437661	-0.862546
H49	H	-3.729204	0.350811	-0.661257
Cl50	Cl	-3.943614	0.162433	-0.953231
H51	H	-3.958535	-0.702404	-0.121686
H52	H	-3.690714	0.273743	-0.497526
