data_functionalizedCrystal
_audit_creation_method	'MofGen! by Chris Wilmer'
_symmetry_space_group_name_H-M	'P1'
_symmetry_Int_Tables_number	1
_symmetry_cell_setting	triclinic
loop_
_symmetry_equiv_pos_as_xyz
  x,y,z
_cell_length_a	12.827893
_cell_length_b	16.959453
_cell_length_c	12.827885
_cell_angle_alpha	89.966028
_cell_angle_beta	89.980728
_cell_angle_gamma	90.020148
loop_
_atom_site_label
_atom_site_type_symbol
_atom_site_fract_x
_atom_site_fract_y
_atom_site_fract_z
Zn1	Zn	1.597636	-0.314640	-0.590818
Zn2	Zn	1.597516	-0.446839	-0.416066
Zn3	Zn	1.422878	-0.314679	-0.416092
Zn4	Zn	1.422849	-0.446781	-0.590766
O5	O	1.510220	-0.380735	-0.503435
O6	O	1.743856	-0.332185	-0.567648
O7	O	1.574312	-0.429348	-0.269833
O8	O	1.446122	-0.204063	-0.439303
O9	O	1.743768	-0.429311	-0.439258
O10	O	1.574516	-0.204034	-0.567673
O11	O	1.446006	-0.332251	-0.269852
O12	O	1.276638	-0.332194	-0.439252
O13	O	1.446073	-0.429211	-0.737009
O14	O	1.276617	-0.429249	-0.567584
O15	O	1.574488	-0.332128	-0.737047
O16	O	1.574284	-0.557442	-0.439207
O17	O	1.445957	-0.557399	-0.567559
C18	C	1.238710	-0.380720	-0.503416
C19	C	1.122557	-0.380733	-0.503432
C20	C	1.070815	-0.332757	-0.567062
C21	C	0.950765	-0.332769	-0.567080
C22	C	1.510133	-0.586101	-0.503397
C23	C	1.510191	-0.673957	-0.503416
C24	C	1.577160	-1.045360	-0.570404
C25	C	1.443571	-1.045506	-0.436622
C26	C	1.443532	-0.962961	-0.436598
C27	C	1.510307	-0.921610	-0.503479
C28	C	1.577121	-0.962806	-0.570384
C29	C	1.376712	-0.921759	-0.369701
C30	C	1.376670	-0.839208	-0.369675
C31	C	1.443451	-0.797856	-0.436552
C32	C	1.510269	-0.839057	-0.503459
C33	C	1.577044	-0.797707	-0.570341
C34	C	1.643867	-0.838906	-0.637243
C35	C	1.643903	-0.921454	-0.637261
C36	C	1.443416	-0.715308	-0.436534
C37	C	1.577005	-0.715153	-0.570321
C38	C	1.782790	-0.380750	-0.503456
C39	C	1.898943	-0.380756	-0.503465
C40	C	1.510291	-0.380659	-0.776006
C41	C	1.510321	-0.380626	-0.892159
C42	C	1.510336	-0.174566	-0.503497
C43	C	1.510385	-0.086710	-0.503523
C44	C	1.573872	-0.332577	-0.943963
C45	C	1.573905	-0.332543	-1.064013
C46	C	1.510209	-0.380753	-0.231926
C47	C	1.510381	-0.380563	-0.115773
H48	H	0.943433	-0.421837	-0.448991
Br49	Br	1.664490	-0.264028	-0.869762
Br50	Br	1.048266	-0.449205	-0.412642
H51	H	1.389201	-1.079179	-0.382174
Br52	Br	1.664604	-0.263981	-1.138259
H53	H	1.455974	-0.421705	-1.071230
Br54	Br	1.667851	-1.101269	-0.661190
H55	H	1.698306	-0.955006	-0.691731
H56	H	1.322345	-0.955432	-0.315253
Br57	Br	1.419663	-0.449145	-0.966360
H58	H	1.115394	-0.291671	-0.621521
Br59	Br	0.876609	-0.264312	-0.657893
Br60	Br	1.285979	-0.783301	-0.278886
H61	H	1.698231	-0.805229	-0.691704
Br62	Br	1.667642	-0.659041	-0.661085
Br63	Br	1.352730	-0.659397	-0.345751
