data_functionalizedCrystal
_audit_creation_method	'MofGen! by Chris Wilmer'
_symmetry_space_group_name_H-M	'P1'
_symmetry_Int_Tables_number	1
_symmetry_cell_setting	triclinic
loop_
_symmetry_equiv_pos_as_xyz
  x,y,z
_cell_length_a	15.944545
_cell_length_b	27.732064
_cell_length_c	14.421503
_cell_angle_alpha	90.008357
_cell_angle_beta	89.995153
_cell_angle_gamma	83.072798
loop_
_atom_site_label
_atom_site_type_symbol
_atom_site_fract_x
_atom_site_fract_y
_atom_site_fract_z
O1	O	1.113724	0.062319	-0.077043
O2	O	1.613724	0.562319	0.422957
O3	O	0.869074	0.070008	-0.077057
O4	O	1.369074	0.570008	0.422943
O5	O	0.998990	-0.004200	-0.077053
O6	O	1.498990	0.495800	0.422947
O7	O	0.983808	0.136527	-0.077047
O8	O	1.483808	0.636527	0.422953
O9	O	0.998968	-0.004189	0.077170
O10	O	1.498968	0.495811	0.577170
O11	O	0.869052	0.070019	0.077166
O12	O	1.369052	0.570019	0.577166
O13	O	1.113702	0.062330	0.077180
O14	O	1.613702	0.562330	0.577180
Cu15	Cu	0.991375	0.066175	0.091255
Cu16	Cu	1.491375	0.566175	0.591255
Cu17	Cu	0.991401	0.066162	-0.091132
Cu18	Cu	1.491401	0.566162	0.408868
O19	O	0.983786	0.136538	0.077177
O20	O	1.483786	0.636538	0.577177
C21	C	0.837773	0.069695	0.000053
C22	C	1.337773	0.569695	0.500053
C23	C	0.744539	0.068739	0.000047
C24	C	1.244539	0.568739	0.500047
C25	C	0.474540	0.019887	0.000055
C26	C	0.974540	0.519887	0.500055
C27	C	0.524806	0.043445	0.076098
C28	C	1.024806	0.543445	0.576098
C29	C	0.408940	0.065332	0.000063
C30	C	0.908940	0.565332	0.500063
C31	C	0.524807	0.043446	-0.075954
C32	C	1.024807	0.543446	0.424046
C33	C	0.573832	0.067004	0.000053
C34	C	1.073832	0.567004	0.500053
C35	C	0.457977	0.088878	0.076169
C36	C	0.957977	0.588878	0.576169
C37	C	0.457975	0.088873	-0.075951
C38	C	0.957975	0.588873	0.424049
C39	C	0.508208	0.112464	0.000111
C40	C	1.008208	0.612464	0.500111
C41	C	0.313950	0.064368	0.000069
C42	C	0.813950	0.564368	0.500069
C43	C	0.668818	0.067972	0.000054
C44	C	1.168818	0.567972	0.500054
C45	C	0.998658	-0.022203	0.000056
C46	C	1.498658	0.477797	0.500056
C47	C	0.997692	-0.075861	0.000047
C48	C	1.497692	0.424139	0.500047
C49	C	0.914342	-0.453294	0.000038
C50	C	1.414342	0.046706	0.500038
C51	C	0.917897	-0.251618	0.000037
C52	C	1.417897	0.248382	0.500037
O53	O	0.853220	-0.220645	-0.000003
O54	O	1.353220	0.279355	0.499997
N55	N	0.994935	-0.232158	0.000042
N56	N	1.494935	0.267842	0.500042
C57	C	1.071090	-0.263121	0.000040
C58	C	1.571090	0.236879	0.500040
O59	O	1.136697	-0.241941	0.000034
O60	O	1.636697	0.258059	0.500034
C61	C	1.067533	-0.464795	0.000035
C62	C	1.567533	0.035205	0.500035
C63	C	0.990490	-0.484252	0.000040
C64	C	1.490490	0.015748	0.500040
C65	C	0.837305	-0.472752	0.000043
C66	C	1.337305	0.027248	0.500043
C67	C	0.836417	-0.523168	0.000048
C68	C	1.336417	-0.023168	0.500048
C69	C	0.912566	-0.554126	0.000049
C70	C	1.412566	-0.054126	0.500049
C71	C	0.989602	-0.534668	0.000045
C72	C	1.489602	-0.034668	0.500045
C73	C	1.143687	-0.495756	0.000026
C74	C	1.643687	0.004244	0.500026
C75	C	1.142791	-0.546178	0.000023
C76	C	1.642791	-0.046178	0.500023
C77	C	1.065748	-0.565635	0.000028
C78	C	1.565748	-0.065635	0.500028
C79	C	1.064863	-0.616042	0.000052
C80	C	1.564863	-0.116042	0.500052
N81	N	0.987825	-0.635503	0.000047
N82	N	1.487825	-0.135503	0.500047
C83	C	0.911676	-0.604544	0.000046
C84	C	1.411676	-0.104544	0.500046
C85	C	1.072951	-0.157238	0.000045
C86	C	1.572951	0.342762	0.500045
C87	C	1.073841	-0.106820	0.000048
C88	C	1.573841	0.393180	0.500048
C89	C	0.920648	-0.095321	0.000044
C90	C	1.420648	0.404679	0.500044
C91	C	0.919760	-0.145740	0.000047
C92	C	1.419760	0.354260	0.500047
C93	C	0.995914	-0.176698	0.000041
C94	C	1.495914	0.323302	0.500041
C95	C	0.909817	-0.710422	0.000058
C96	C	1.409817	-0.210422	0.500058
C97	C	0.908936	-0.760843	0.000067
C98	C	1.408936	-0.260843	0.500067
C99	C	1.062128	-0.772337	0.000067
C100	C	1.562128	-0.272337	0.500067
C101	C	1.063010	-0.721921	0.000062
C102	C	1.563010	-0.221921	0.500062
C103	C	0.986847	-0.690964	0.000055
C104	C	1.486847	-0.190964	0.500055
O105	O	1.129505	-0.647044	0.000082
O106	O	1.629505	-0.147044	0.500082
O107	O	0.846079	-0.625733	0.000031
O108	O	1.346079	-0.125733	0.500031
C109	C	0.915230	-0.402878	0.000033
C110	C	1.415230	0.097122	0.500033
C111	C	0.992266	-0.383420	0.000029
C112	C	1.492266	0.116580	0.500029
C113	C	1.068415	-0.414379	0.000030
C114	C	1.568415	0.085621	0.500030
C115	C	0.993156	-0.333002	0.000032
C116	C	1.493156	0.166998	0.500032
C117	C	0.917007	-0.302044	0.000031
C118	C	1.417007	0.197956	0.500031
C119	C	0.839969	-0.321504	0.000027
C120	C	1.339969	0.178496	0.500027
C121	C	0.839081	-0.371920	0.000032
C122	C	1.339081	0.128080	0.500032
C123	C	1.145453	-0.394919	0.000035
C124	C	1.645453	0.105081	0.500035
C125	C	1.146335	-0.344502	0.000030
C126	C	1.646335	0.155498	0.500030
C127	C	1.070186	-0.313544	0.000029
C128	C	1.570186	0.186456	0.500029
C129	C	1.145003	0.062643	0.000069
C130	C	1.645003	0.562643	0.500069
C131	C	1.238237	0.063598	0.000068
C132	C	1.738237	0.563598	0.500068
C133	C	0.984118	0.154540	0.000066
C134	C	1.484118	0.654540	0.500066
C135	C	0.985084	0.208199	0.000068
C136	C	1.485084	0.708199	0.500068
N137	N	0.991364	0.066184	0.219536
N138	N	1.491364	0.566184	0.719536
N139	N	0.991419	0.066150	-0.219413
N140	N	1.491419	0.566150	0.280587
C141	C	0.931280	0.100483	0.469188
C142	C	1.431280	0.600483	0.969188
C143	C	1.007059	0.109866	0.530996
C144	C	1.507059	0.609866	1.030996
C145	C	0.991384	0.066173	0.408698
C146	C	1.491384	0.566173	0.908698
C147	C	0.915625	0.056801	0.530984
C148	C	1.415625	0.556801	1.030984
C149	C	0.991397	0.066163	0.591419
C150	C	1.491397	0.566163	1.091419
C151	C	1.067201	0.075578	0.469145
C152	C	1.567201	0.575578	0.969145
C153	C	0.975718	0.022494	0.469127
C154	C	1.475718	0.522494	0.969127
C155	C	1.051551	0.031858	0.530907
C156	C	1.551551	0.531858	1.030907
C157	C	0.991376	0.066180	0.303437
C158	C	1.491376	0.566180	0.803437
C159	C	0.991415	0.066155	0.696678
C160	C	1.491415	0.566155	1.196678
H161	H	0.553977	0.024257	0.140385
H162	H	1.053977	0.524257	0.640385
O163	O	0.563467	0.017997	-0.161089
O164	O	1.063467	0.517997	0.338911
H165	H	0.632786	0.019234	-0.160628
H166	H	1.132786	0.519234	0.339372
O167	O	1.226783	-0.474777	0.000016
O168	O	1.726783	0.025223	0.500016
H169	H	1.230851	-0.452085	-0.062842
H170	H	1.730851	0.047915	0.437158
O171	O	0.755985	-0.392903	0.000037
O172	O	1.255985	0.107097	0.500037
H173	H	0.719439	-0.380475	-0.062826
H174	H	1.219439	0.119525	0.437174
H175	H	1.102440	0.002838	0.557836
H176	H	1.602440	0.502838	1.057836
H177	H	0.428910	0.108061	0.140527
H178	H	0.928910	0.608061	0.640527
H179	H	1.134969	-0.182440	0.000041
H180	H	1.634969	0.317560	0.500041
H181	H	0.851552	0.048879	0.558150
H182	H	1.351552	0.548879	1.058150
O183	O	0.825837	-0.781830	0.000070
O184	O	1.325837	-0.281830	0.500070
H185	H	0.773038	-0.751829	0.000059
H186	H	1.273038	-0.251829	0.500059
H187	H	0.777967	-0.296289	0.000031
H188	H	1.277967	0.203711	0.500031
O189	O	0.753318	-0.544148	0.000049
O190	O	1.253318	-0.044148	0.500049
H191	H	0.749252	-0.566851	-0.062807
H192	H	1.249252	-0.066851	0.437193
O193	O	0.454462	-0.031952	0.000144
O194	O	0.954462	0.468048	0.500144
H195	H	0.481361	-0.050703	0.063363
H196	H	0.981361	0.449297	0.563363
O197	O	0.528072	0.164343	0.000166
O198	O	1.028072	0.664343	0.500166
H199	H	0.501053	0.183093	0.063349
H200	H	1.001053	0.683093	0.563349
H201	H	0.880503	0.129521	0.442089
H202	H	1.380503	0.629521	0.942089
H203	H	1.136577	-0.090982	0.000058
H204	H	1.636577	0.409018	0.500058
H205	H	0.428789	0.108044	-0.140241
H206	H	0.928789	0.608044	0.359759
H207	H	0.847798	-0.685222	0.000052
H208	H	1.347798	-0.185222	0.500052
H209	H	1.124126	-0.797552	0.000072
H210	H	1.624126	-0.297552	0.500072
O211	O	0.755167	-0.439364	0.000056
O212	O	1.255167	0.060636	0.500056
H213	H	0.701458	-0.461373	0.000068
H214	H	1.201458	0.038627	0.500068
O215	O	0.836666	-0.166726	0.000044
O216	O	1.336666	0.333274	0.500044
H217	H	0.783869	-0.136724	0.000039
H218	H	1.283869	0.363276	0.500039
H219	H	1.020322	0.146799	0.558171
H220	H	1.520322	0.646799	1.058171
H221	H	0.858645	-0.070106	0.000047
H222	H	1.358645	0.429894	0.500047
O223	O	1.224929	-0.579569	0.000026
O224	O	1.724929	-0.079569	0.500026
H225	H	1.278645	-0.557565	0.000032
H226	H	1.778645	-0.057565	0.500032
O227	O	1.229436	-0.323518	0.000014
O228	O	1.729436	0.176482	0.500014
H229	H	1.282233	-0.353520	0.000002
H230	H	1.782233	0.146480	0.500002
H231	H	1.207464	-0.420121	0.000035
H232	H	1.707464	0.079879	0.500035
H233	H	0.962430	-0.014428	0.441931
H234	H	1.462430	0.485572	0.941931
O235	O	1.146102	-0.700929	0.000060
O236	O	1.646102	-0.200929	0.500060
H237	H	1.198903	-0.730929	0.000058
H238	H	1.698903	-0.230929	0.500058
O239	O	1.152094	0.086133	0.433328
O240	O	1.652094	0.586133	0.933328
H241	H	1.151410	0.086074	0.356368
H242	H	1.651410	0.586074	0.856368
