data_functionalizedCrystal
_audit_creation_method	'MofGen! by Chris Wilmer'
_symmetry_space_group_name_H-M	'P1'
_symmetry_Int_Tables_number	1
_symmetry_cell_setting	triclinic
loop_
_symmetry_equiv_pos_as_xyz
  x,y,z
_cell_length_a	14.044220
_cell_length_b	14.044220
_cell_length_c	12.503572
_cell_angle_alpha	93.835250
_cell_angle_beta	93.843168
_cell_angle_gamma	86.811122
loop_
_atom_site_label
_atom_site_type_symbol
_atom_site_fract_x
_atom_site_fract_y
_atom_site_fract_z
O1	O	0.225116	-1.282200	-0.089210
O2	O	0.216809	-1.005530	-0.089237
O3	O	0.082627	-1.139712	-0.089213
O4	O	0.359298	-1.148019	-0.089234
O5	O	0.092737	-1.129622	0.089427
O6	O	0.226918	-0.995440	0.089403
O7	O	0.235226	-1.272110	0.089430
Cu8	Cu	0.231995	-1.132854	0.105728
Cu9	Cu	0.220040	-1.144786	-0.105535
O10	O	0.369407	-1.137929	0.089406
C11	C	0.218228	-0.964864	0.000080
C12	C	0.207383	-0.858721	0.000070
N13	N	0.240404	-1.124469	0.254319
C14	C	0.052060	-1.131031	0.000107
C15	C	-0.054082	-1.120187	0.000107
C16	C	-0.248421	-1.100361	0.000090
C17	C	-0.299551	-1.177275	0.000094
C18	C	-0.407687	-1.166244	0.000084
C19	C	-0.140274	-1.111391	0.000099
C20	C	0.399974	-1.146609	0.000084
C21	C	0.506117	-1.157454	0.000077
C22	C	0.233807	-1.312777	0.000111
C23	C	0.244651	-1.418920	0.000114
C24	C	0.187558	-0.664382	0.000092
C25	C	0.264472	-0.613253	0.000091
C26	C	0.253441	-0.505116	0.000104
C27	C	0.198587	-0.772529	0.000080
N28	N	0.211624	-1.153179	-0.254126
C29	C	0.252782	-1.112134	0.473432
C30	C	0.199249	-1.165511	0.526768
C31	C	0.206136	-1.158648	0.648690
C32	C	0.245896	-1.118996	0.351499
H33	H	-0.285859	-1.026234	0.000080
C34	C	0.088792	-0.614296	0.000042
C35	C	0.097348	-0.515446	0.000021
C36	C	0.006386	-0.469265	-0.000044
H37	H	0.058524	-0.628615	0.062317
H38	H	0.051554	-0.635694	-0.062282
H39	H	0.134571	-0.494055	0.062339
H40	H	0.127599	-0.501098	-0.062249
H41	H	-0.030851	-0.490663	-0.062368
H42	H	-0.023874	-0.483592	0.062232
H43	H	0.012179	-0.402191	-0.000068
H44	H	0.148245	-1.216364	0.480864
C45	C	0.363236	-0.663348	-0.000010
C46	C	0.354685	-0.762203	-0.000061
C47	C	0.445640	-0.808387	-0.000184
H48	H	0.400566	-0.642019	0.062256
H49	H	0.393402	-0.648959	-0.062343
H50	H	0.324534	-0.776585	0.062266
H51	H	0.317372	-0.783560	-0.062323
H52	H	0.475805	-0.793999	-0.062517
H53	H	0.482963	-0.787050	0.062084
H54	H	0.439850	-0.875465	-0.000228
C55	C	0.320644	-1.044270	0.534770
C56	C	0.268513	-0.977877	0.599363
C57	C	0.330997	-0.915359	0.655909
H58	H	0.353360	-1.011583	0.485401
H59	H	0.365671	-1.079589	0.578698
H60	H	0.223503	-0.942562	0.555439
H61	H	0.235799	-1.010537	0.648752
H62	H	0.376024	-0.950678	0.699837
H63	H	0.363710	-0.882679	0.606532
H64	H	0.295636	-0.870310	0.699749
C65	C	-0.249522	-1.276078	-0.000049
C66	C	-0.197657	-1.292058	-0.091933
C67	C	-0.151545	-1.383055	-0.092089
H68	H	-0.295722	-1.322978	-0.000099
H69	H	-0.207207	-1.280058	0.062221
H70	H	-0.239968	-1.288086	-0.154186
H71	H	-0.151441	-1.245181	-0.091902
H72	H	-0.109230	-1.387035	-0.029819
H73	H	-0.197751	-1.429947	-0.092137
H74	H	-0.116342	-1.393905	-0.154426
