data_functionalizedCrystal
_audit_creation_method	'MofGen! by Chris Wilmer'
_symmetry_space_group_name_H-M	'P1'
_symmetry_Int_Tables_number	1
_symmetry_cell_setting	triclinic
loop_
_symmetry_equiv_pos_as_xyz
  x,y,z
_cell_length_a	12.759401
_cell_length_b	16.120484
_cell_length_c	12.759401
_cell_angle_alpha	87.114147
_cell_angle_beta	90.006940
_cell_angle_gamma	92.926992
loop_
_atom_site_label
_atom_site_type_symbol
_atom_site_fract_x
_atom_site_fract_y
_atom_site_fract_z
Zn1	Zn	1.584822	-0.332025	0.615194
Zn2	Zn	1.575814	-0.471408	0.448404
Zn3	Zn	1.409164	-0.332014	0.439529
Zn4	Zn	1.400171	-0.471405	0.624041
O5	O	1.492493	-0.401713	0.531792
O6	O	1.730648	-0.350520	0.593081
O7	O	1.553702	-0.452914	0.300205
O8	O	1.439999	-0.215348	0.455415
O9	O	1.724030	-0.452924	0.470541
O10	O	1.569054	-0.215355	0.584476
O11	O	1.431265	-0.350502	0.293685
O12	O	1.260951	-0.350499	0.463993
O13	O	1.424672	-0.452919	0.769888
O14	O	1.254343	-0.452908	0.599553
O15	O	1.560334	-0.350517	0.763389
O16	O	1.544982	-0.588075	0.479119
O17	O	1.415937	-0.588073	0.608158
C18	C	1.219526	-0.401703	0.531771
C19	C	1.102749	-0.401718	0.531788
C20	C	1.044469	-0.455124	0.602273
C21	C	0.934744	-0.455127	0.602294
C22	C	0.941590	-0.348317	0.461335
C23	C	1.051312	-0.348310	0.461320
C24	C	1.478535	-0.618325	0.545584
C25	C	1.472660	-0.710992	0.551520
C26	C	1.461939	-0.880657	0.562378
C27	C	1.523235	-0.921928	0.501223
C28	C	1.517270	-1.016336	0.507265
C29	C	1.467903	-0.786241	0.556338
C30	C	1.766525	-0.401724	0.531814
C31	C	1.883302	-0.401728	0.531824
C32	C	1.492504	-0.401718	0.805826
C33	C	1.492509	-0.401721	0.922602
C34	C	1.506534	-0.184255	0.517969
C35	C	1.512518	-0.091588	0.512078
C36	C	1.563139	-0.348409	0.974082
C37	C	1.563130	-0.348407	1.083806
C38	C	1.421857	-0.455037	1.090561
C39	C	1.421862	-0.455034	0.980839
C40	C	1.492480	-0.401726	1.258825
C41	C	1.492495	-0.401723	1.142049
H42	H	0.899697	-0.304835	0.403961
C43	C	1.344158	-0.513684	1.154620
H44	H	1.302088	-0.545429	1.108242
H45	H	1.382000	-0.550013	1.199737
H46	H	1.300436	-0.481786	1.195388
C47	C	1.640834	-0.289757	0.910025
H48	H	1.682889	-0.258000	0.956403
H49	H	1.684557	-0.321644	0.869253
H50	H	1.602981	-0.253426	0.864912
H51	H	1.364339	-0.498446	0.938923
C52	C	1.600175	-0.873889	0.424355
H53	H	1.637852	-0.912200	0.386782
H54	H	1.562117	-0.839964	0.376418
H55	H	1.648035	-0.839871	0.462453
C56	C	1.115424	-0.289562	0.383781
H57	H	1.069077	-0.257763	0.341805
H58	H	1.160574	-0.253286	0.421732
H59	H	1.156164	-0.321400	0.339956
C60	C	1.384995	-0.928696	0.639230
H61	H	1.347321	-0.890389	0.676814
H62	H	1.337148	-0.962715	0.601129
H63	H	1.423054	-0.962621	0.687176
C64	C	1.101046	-0.513863	0.679793
H65	H	1.050618	-0.545663	0.721781
H66	H	1.141504	-0.550137	0.641837
H67	H	1.145908	-0.482018	0.723606
C68	C	0.870641	-0.513872	0.679830
H69	H	0.916993	-0.545679	0.721790
H70	H	0.829905	-0.482039	0.723654
H71	H	0.825488	-0.550152	0.641879
H72	H	1.620643	-0.304994	1.125716
