data_functionalizedCrystal
_audit_creation_method	'MofGen! by Chris Wilmer'
_symmetry_space_group_name_H-M	'P1'
_symmetry_Int_Tables_number	1
_symmetry_cell_setting	triclinic
loop_
_symmetry_equiv_pos_as_xyz
  x,y,z
_cell_length_a	15.944551
_cell_length_b	19.188930
_cell_length_c	15.021413
_cell_angle_alpha	89.998889
_cell_angle_beta	89.997174
_cell_angle_gamma	83.321760
loop_
_atom_site_label
_atom_site_type_symbol
_atom_site_fract_x
_atom_site_fract_y
_atom_site_fract_z
O1	O	1.114192	0.090039	-0.073949
O2	O	1.614192	0.590039	0.426051
O3	O	0.869601	0.101141	-0.073973
O4	O	1.369601	0.601141	0.426027
O5	O	0.998955	-0.006048	-0.073943
O6	O	1.498955	0.493952	0.426057
O7	O	0.984838	0.197227	-0.073979
O8	O	1.484838	0.697227	0.426021
O9	O	0.998934	-0.006033	0.074121
O10	O	1.498934	0.493967	0.574121
O11	O	0.869580	0.101156	0.074091
O12	O	1.369580	0.601156	0.574091
O13	O	1.114171	0.090054	0.074115
O14	O	1.614171	0.590054	0.574115
Zn15	Zn	0.991873	0.095607	0.097611
Zn16	Zn	1.491873	0.595607	0.597611
Zn17	Zn	0.991900	0.095587	-0.097470
Zn18	Zn	1.491900	0.595587	0.402530
O19	O	0.984817	0.197242	0.074085
O20	O	1.484817	0.697242	0.574085
C21	C	0.838298	0.100687	0.000056
C22	C	1.338298	0.600687	0.500056
C23	C	0.745057	0.099306	0.000048
C24	C	1.245057	0.599306	0.500048
C25	C	0.998487	-0.032052	0.000091
C26	C	1.498487	0.467948	0.500091
C27	C	0.997115	-0.109560	0.000099
C28	C	1.497115	0.390440	0.500099
C29	C	0.530462	0.029563	0.000078
C30	C	1.030462	0.529563	0.500078
C31	C	0.469331	0.061941	-0.072931
C32	C	0.969331	0.561941	0.427069
C33	C	0.574341	0.096806	0.000059
C34	C	1.074341	0.596806	0.500059
C35	C	0.469332	0.061972	0.073048
C36	C	0.969332	0.561972	0.573048
C37	C	0.409437	0.094386	0.000074
C38	C	0.909437	0.594386	0.500074
C39	C	0.514438	0.129203	-0.073010
C40	C	1.014438	0.629203	0.426990
C41	C	0.514446	0.129225	0.073035
C42	C	1.014446	0.629225	0.573035
C43	C	0.453332	0.161652	0.000008
C44	C	0.953332	0.661652	0.500008
C45	C	0.669338	0.098198	0.000050
C46	C	1.169338	0.598198	0.500050
C47	C	0.314441	0.093000	0.000076
C48	C	0.814441	0.593000	0.500076
C49	C	1.073016	-0.154288	0.000111
C50	C	1.573016	0.345712	0.500111
C51	C	1.071726	-0.227115	0.000096
C52	C	1.571726	0.272885	0.500096
C53	C	0.994532	-0.255211	0.000088
C54	C	1.494532	0.244789	0.500088
C55	C	0.918622	-0.210474	0.000072
C56	C	1.418622	0.289526	0.500072
C57	C	0.919913	-0.137648	0.000077
C58	C	1.419913	0.362352	0.500077
N59	N	0.935519	-0.363364	0.050472
N60	N	1.435519	0.136636	0.550472
N61	N	0.934298	-0.432546	0.050468
N62	N	1.434298	0.067454	0.550468
C63	C	0.990637	-0.474630	0.000070
C64	C	1.490637	0.025370	0.500070
N65	N	1.048256	-0.444921	-0.050314
N66	N	1.548256	0.055079	0.449686
N67	N	1.049480	-0.375733	-0.050307
N68	N	1.549480	0.124267	0.449693
C69	C	0.993123	-0.334178	0.000082
C70	C	1.493123	0.165822	0.500082
C71	C	1.065145	-0.598326	0.000064
C72	C	1.565145	-0.098326	0.500064
C73	C	1.063852	-0.671154	0.000044
C74	C	1.563852	-0.171154	0.500044
C75	C	0.910745	-0.654511	0.000029
C76	C	1.410745	-0.154511	0.500029
C77	C	0.912040	-0.581685	0.000040
C78	C	1.412040	-0.081685	0.500040
C79	C	0.989242	-0.553597	0.000062
C80	C	1.489242	-0.053597	0.500062
C81	C	1.145474	0.090507	0.000083
C82	C	1.645474	0.590507	0.500083
C83	C	1.238715	0.091889	0.000086
C84	C	1.738715	0.591889	0.500086
C85	C	0.985285	0.223247	0.000048
C86	C	1.485285	0.723247	0.500048
C87	C	0.986657	0.300755	0.000035
C88	C	1.486657	0.800755	0.500035
N89	N	0.991860	0.095621	0.230749
N90	N	1.491860	0.595621	0.730749
N91	N	0.991919	0.095568	-0.230607
N92	N	1.491919	0.595568	0.269393
C93	C	0.932038	0.145161	0.470418
C94	C	1.432038	0.645161	0.970418
C95	C	1.007887	0.158716	0.529757
C96	C	1.507887	0.658716	1.029757
C97	C	0.991882	0.095603	0.412356
C98	C	1.491882	0.595603	0.912356
C99	C	0.916053	0.082064	0.529759
C100	C	1.416053	0.582064	1.029759
C101	C	0.991896	0.095588	0.587780
C102	C	1.491896	0.595588	1.087780
C103	C	1.067770	0.109189	0.470388
C104	C	1.567770	0.609189	0.970388
C105	C	0.975885	0.032510	0.470384
C106	C	1.475885	0.532510	0.970384
C107	C	1.051789	0.046038	0.529697
C108	C	1.551789	0.546038	1.029697
C109	C	0.991872	0.095614	0.311299
C110	C	1.491872	0.595614	0.811299
C111	C	0.991914	0.095577	0.688835
C112	C	1.491914	0.595577	1.188835
H113	H	0.564003	-0.026244	-0.000002
H114	H	1.064003	0.473756	0.499998
H115	H	0.851919	0.070620	0.555840
H116	H	1.351919	0.570620	1.055840
H117	H	0.962318	-0.020823	0.444285
H118	H	1.462318	0.479177	0.944285
H119	H	0.850233	-0.545266	0.000035
H120	H	1.350233	-0.045266	0.500035
C121	C	0.863745	0.201819	0.435245
C122	C	1.363745	0.701819	0.935245
H123	H	0.875260	0.246615	0.455574
H124	H	1.375260	0.746615	0.955574
H125	H	0.809978	0.192648	0.456443
H126	H	1.309978	0.692648	0.956443
H127	H	0.863882	0.201156	0.372007
H128	H	1.363882	0.701156	0.872007
C129	C	0.408247	0.237115	-0.000059
C130	C	0.908247	0.737115	0.499941
H131	H	0.423676	0.260881	-0.051969
H132	H	0.923676	0.760881	0.448031
H133	H	0.424376	0.261183	0.051304
H134	H	0.924376	0.761183	0.551304
H135	H	0.348866	0.235833	0.000427
H136	H	0.848866	0.735833	0.500427
C137	C	0.442332	0.023548	0.156431
C138	C	0.942332	0.523548	0.656431
H139	H	0.469023	-0.023370	0.156343
H140	H	0.969023	0.476630	0.656343
H141	H	0.382788	0.023318	0.156124
H142	H	0.882788	0.523318	0.656124
H143	H	0.458546	0.046984	0.208269
H144	H	0.958546	0.546984	0.708269
H145	H	1.133536	-0.263540	0.000102
H146	H	1.633536	0.236460	0.500102
C147	C	0.442310	0.023513	-0.156297
C148	C	0.942310	0.523513	0.343703
H149	H	0.468985	-0.023410	-0.156201
H150	H	0.968985	0.476590	0.343799
H151	H	0.458509	0.046942	-0.208144
H152	H	0.958509	0.546942	0.291856
H153	H	0.382761	0.023286	-0.155963
H154	H	0.882761	0.523286	0.344037
C155	C	0.833710	-0.241377	0.000066
C156	C	1.333710	0.258623	0.500066
H157	H	0.843811	-0.291155	0.000074
H158	H	1.343811	0.208845	0.500074
H159	H	0.802475	-0.226023	-0.051570
H160	H	1.302475	0.273977	0.448430
H161	H	0.802463	-0.226024	0.051703
H162	H	1.302463	0.273976	0.551703
H163	H	0.534328	0.157617	-0.134801
H164	H	1.034328	0.657617	0.365199
C165	C	0.541498	0.167620	0.156406
C166	C	1.041498	0.667620	0.656406
H167	H	0.526239	0.143666	0.208234
H168	H	1.026239	0.643666	0.708234
H169	H	0.514027	0.214281	0.156923
H170	H	1.014027	0.714281	0.656923
H171	H	0.600927	0.168586	0.155507
H172	H	1.100927	0.668586	0.655507
H173	H	0.858103	-0.101230	0.000068
H174	H	1.358103	0.398770	0.500068
C175	C	1.150061	-0.567426	0.000078
C176	C	1.650061	-0.067426	0.500078
H177	H	1.195082	-0.604498	0.000070
H178	H	1.695082	-0.104498	0.500070
H179	H	1.153742	-0.539367	0.051716
H180	H	1.653742	-0.039367	0.551716
H181	H	1.153753	-0.539358	-0.051557
H182	H	1.653753	-0.039358	0.448443
H183	H	1.021431	0.212066	0.555837
H184	H	1.521431	0.712066	1.055837
H185	H	0.847892	-0.677386	0.000018
H186	H	1.347892	-0.177386	0.500018
C187	C	1.157934	-0.123395	0.000119
C188	C	1.657934	0.376605	0.500119
H189	H	1.202954	-0.160468	0.000115
H190	H	1.702954	0.339532	0.500115
H191	H	1.161618	-0.095331	0.051751
H192	H	1.661618	0.404669	0.551751
H193	H	1.161625	-0.095333	-0.051522
H194	H	1.661625	0.404667	0.448478
H195	H	1.125662	-0.707571	0.000049
H196	H	1.625662	-0.207571	0.500049
H197	H	1.131917	0.120698	0.444419
H198	H	1.631917	0.620698	0.944419
H199	H	1.102459	0.004119	0.555561
H200	H	1.602459	0.504119	1.055561
