data_functionalizedCrystal
_audit_creation_method	'MofGen! by Chris Wilmer'
_symmetry_space_group_name_H-M	'P1'
_symmetry_Int_Tables_number	1
_symmetry_cell_setting	triclinic
loop_
_symmetry_equiv_pos_as_xyz
  x,y,z
_cell_length_a	11.169417
_cell_length_b	13.897448
_cell_length_c	13.897441
_cell_angle_alpha	90.029627
_cell_angle_beta	90.016405
_cell_angle_gamma	90.018571
loop_
_atom_site_label
_atom_site_type_symbol
_atom_site_fract_x
_atom_site_fract_y
_atom_site_fract_z
Zn1	Zn	1.834860	-0.383971	0.545325
Zn2	Zn	1.834736	-0.545290	0.384026
Zn3	Zn	1.634158	-0.384013	0.384049
Zn4	Zn	1.634128	-0.545228	0.545285
O5	O	1.734471	-0.464625	0.464671
O6	O	2.002794	-0.405378	0.523935
O7	O	1.808090	-0.523939	0.249048
O8	O	1.660847	-0.249026	0.405469
O9	O	2.002702	-0.523899	0.405430
O10	O	1.808302	-0.248995	0.523958
O11	O	1.660726	-0.405450	0.249065
O12	O	1.466205	-0.405390	0.405431
O13	O	1.660795	-0.523793	0.680272
O14	O	1.466182	-0.523834	0.523890
O15	O	1.808272	-0.405318	0.680301
O16	O	1.808060	-0.680263	0.405391
O17	O	1.660674	-0.680218	0.523867
C18	C	1.422646	-0.464611	0.464659
C19	C	1.289246	-0.464628	0.464676
C20	C	1.734383	-0.715240	0.464643
C21	C	1.734456	-0.822454	0.464664
C22	C	1.734582	-1.018749	0.464724
C23	C	1.734508	-0.909516	0.464693
C24	C	2.047513	-0.464641	0.464684
C25	C	2.180913	-0.464647	0.464690
C26	C	1.734544	-0.464544	0.716264
C27	C	1.734576	-0.464510	0.823478
C28	C	1.734591	-0.213032	0.464720
C29	C	1.734643	-0.105818	0.464741
C30	C	1.734467	-0.464636	0.214057
C31	C	1.734668	-0.464399	0.106844
C32	C	1.734600	-0.464483	0.910548
C33	C	1.734635	-0.464439	1.019781
