data_functionalizedCrystal
_audit_creation_method	'MofGen! by Chris Wilmer'
_symmetry_space_group_name_H-M	'P1'
_symmetry_Int_Tables_number	1
_symmetry_cell_setting	triclinic
loop_
_symmetry_equiv_pos_as_xyz
  x,y,z
_cell_length_a	17.038272
_cell_length_b	17.038272
_cell_length_c	15.021413
_cell_angle_alpha	90.004029
_cell_angle_beta	89.997778
_cell_angle_gamma	91.111556
loop_
_atom_site_label
_atom_site_type_symbol
_atom_site_fract_x
_atom_site_fract_y
_atom_site_fract_z
O1	O	1.048758	0.170527	-0.073921
O2	O	1.548758	0.670527	0.426079
O3	O	0.820947	0.167819	-0.073948
O4	O	1.320947	0.667819	0.426052
O5	O	0.933499	0.055267	-0.073928
O6	O	1.433499	0.555267	0.426072
O7	O	0.936206	0.283078	-0.073941
O8	O	1.436206	0.783078	0.426059
O9	O	0.933480	0.055283	0.074137
O10	O	1.433480	0.555283	0.574137
O11	O	0.820929	0.167835	0.074117
O12	O	1.320929	0.667835	0.574117
O13	O	1.048740	0.170543	0.074143
O14	O	1.548740	0.670543	0.574143
Zn15	Zn	0.934832	0.169191	0.097638
Zn16	Zn	1.434832	0.669191	0.597638
Zn17	Zn	0.934855	0.169170	-0.097443
Zn18	Zn	1.434855	0.669170	0.402557
O19	O	0.936188	0.283094	0.074123
O20	O	1.436188	0.783094	0.574123
C21	C	0.791645	0.165364	0.000081
C22	C	1.291645	0.665364	0.500081
C23	C	0.704361	0.158016	0.000071
C24	C	1.204361	0.658016	0.500071
C25	C	0.658752	0.225479	0.000068
C26	C	1.158752	0.725479	0.500068
C27	C	0.576740	0.218570	0.000081
C28	C	1.076740	0.718570	0.500081
C29	C	0.540339	0.144197	0.000090
C30	C	1.040339	0.644197	0.500090
C31	C	0.585954	0.076728	0.000096
C32	C	1.085954	0.576728	0.500096
C33	C	0.667965	0.083638	0.000090
C34	C	1.167965	0.583638	0.500090
C35	C	0.292951	0.119787	0.000116
C36	C	0.792951	0.619787	0.500116
C37	C	0.210935	0.112882	0.000119
C38	C	0.710935	0.612882	0.500119
C39	C	0.201726	0.254725	0.000105
C40	C	0.701726	0.754725	0.500105
C41	C	0.283739	0.261628	0.000094
C42	C	0.783739	0.761628	0.500094
C43	C	0.329347	0.194159	0.000104
C44	C	0.829347	0.694159	0.500104
C45	C	0.456510	0.137133	0.000101
C46	C	0.956510	0.637133	0.500101
C47	C	0.413174	0.201224	0.000100
C48	C	0.913174	0.701224	0.500100
C49	C	0.931027	0.025982	0.000104
C50	C	1.431027	0.525982	0.500104
C51	C	0.923679	-0.061301	0.000103
C52	C	1.423679	0.438699	0.500103
C53	C	0.991142	-0.106911	0.000112
C54	C	1.491142	0.393089	0.500112
C55	C	0.984233	-0.188923	0.000102
C56	C	1.484233	0.311077	0.500102
C57	C	0.909860	-0.225324	0.000091
C58	C	1.409860	0.274676	0.500091
C59	C	0.842391	-0.179708	0.000080
C60	C	1.342391	0.320292	0.500080
C61	C	0.849301	-0.097698	0.000082
C62	C	1.349301	0.402302	0.500082
C63	C	0.885449	-0.472712	0.000076
C64	C	1.385449	0.027288	0.500076
C65	C	0.878545	-0.554728	0.000076
C66	C	1.378545	-0.054728	0.500076
C67	C	1.020387	-0.563937	0.000097
C68	C	1.520387	-0.063937	0.500097
C69	C	1.027291	-0.481924	0.000105
C70	C	1.527291	0.018076	0.500105
C71	C	0.959822	-0.436316	0.000089
C72	C	1.459822	0.063684	0.500089
C73	C	0.902796	-0.309153	0.000084
C74	C	1.402796	0.190847	0.500084
C75	C	0.966886	-0.352488	0.000089
C76	C	1.466886	0.147512	0.500089
C77	C	1.078042	0.172997	0.000112
C78	C	1.578042	0.672997	0.500112
C79	C	1.165326	0.180346	0.000116
C80	C	1.665326	0.680346	0.500116
C81	C	0.938660	0.312379	0.000089
C82	C	1.438660	0.812379	0.500089
C83	C	0.946008	0.399663	0.000084
C84	C	1.446008	0.899663	0.500084
N85	N	0.934821	0.169205	0.230776
N86	N	1.434821	0.669205	0.730776
N87	N	0.934872	0.169150	-0.230581
N88	N	1.434872	0.669150	0.269419
C89	C	0.882767	0.221223	0.470450
C90	C	1.382767	0.721223	0.970450
C91	C	0.954743	0.241185	0.529791
C92	C	1.454743	0.741185	1.029791
C93	C	0.934840	0.169187	0.412383
C94	C	1.434840	0.669187	0.912383
C95	C	0.862884	0.149244	0.529783
C96	C	1.362884	0.649244	1.029783
C97	C	0.934852	0.169171	0.587807
C98	C	1.434852	0.669171	1.087807
C99	C	1.006854	0.189187	0.470418
C100	C	1.506854	0.689187	0.970418
C101	C	0.914946	0.097212	0.470404
C102	C	1.414946	0.597212	0.970404
C103	C	0.986972	0.117147	0.529719
C104	C	1.486972	0.617147	1.029719
C105	C	0.934832	0.169198	0.311325
C106	C	1.434832	0.669198	0.811325
C107	C	0.934868	0.169159	0.688862
C108	C	1.434868	0.669159	1.188862
H109	H	0.330076	0.064848	0.000125
H110	H	0.830076	0.564848	0.500125
O111	O	0.762174	-0.218969	0.000077
O112	O	1.262174	0.281031	0.500077
H113	H	0.755640	-0.256124	-0.060265
H114	H	1.255640	0.243876	0.439735
H115	H	0.556310	0.016172	0.000117
H116	H	1.056310	0.516172	0.500117
H117	H	1.087853	-0.452293	0.000115
H118	H	1.587853	0.047707	0.500115
O119	O	0.824505	0.279565	0.435972
O120	O	1.324505	0.779565	0.935972
H121	H	0.764954	0.263561	0.460781
H122	H	1.264954	0.763561	0.960781
H123	H	0.817978	-0.584363	0.000081
H124	H	1.317978	-0.084363	0.500081
O125	O	1.057003	-0.238109	0.000118
O126	O	1.557003	0.261891	0.500118
H127	H	1.057268	-0.275688	-0.060237
H128	H	1.557268	0.224312	0.439763
O129	O	0.822582	-0.348420	0.000091
O130	O	1.322582	0.151580	0.500091
H131	H	0.816049	-0.385573	-0.060254
H132	H	1.316049	0.114427	0.439746
H133	H	0.898089	0.036368	0.444298
H134	H	1.398089	0.536368	0.944298
H135	H	0.313370	0.322190	0.000075
H136	H	0.813370	0.822190	0.500075
H137	H	0.539608	0.273507	0.000077
H138	H	1.039608	0.773507	0.500077
H139	H	0.971580	0.302046	0.555877
H140	H	1.471580	0.802046	1.055877
O141	O	0.812683	-0.423524	0.000081
O142	O	1.312683	0.076476	0.500081
H143	H	0.759809	-0.462617	0.000089
H144	H	1.259809	0.037383	0.500089
H145	H	0.164583	0.309653	0.000098
H146	H	0.664583	0.809653	0.500098
H147	H	0.802027	0.132383	0.555862
H148	H	1.302027	0.632383	1.055862
O149	O	0.171675	0.032659	0.000137
O150	O	0.671675	0.532659	0.500137
H151	H	0.134526	0.026137	0.060485
H152	H	0.634526	0.526137	0.560485
H153	H	0.705099	0.028702	0.000092
H154	H	1.205099	0.528702	0.500092
H155	H	1.031065	0.073136	0.555579
H156	H	1.531065	0.573136	1.055579
H157	H	1.067729	0.206120	0.444451
H158	H	1.567729	0.706120	0.944451
O159	O	0.776534	-0.048505	0.000077
O160	O	1.276534	0.451495	0.500077
H161	H	0.793832	0.014637	0.000072
H162	H	1.293832	0.514637	0.500072
H163	H	0.688384	0.286042	0.000059
H164	H	1.188384	0.786042	0.500059
H165	H	0.426863	0.076578	0.000134
H166	H	0.926863	0.576578	0.500134
O167	O	0.452431	0.281439	0.000098
O168	O	0.952431	0.781439	0.500098
H169	H	0.434480	0.314117	-0.060249
H170	H	0.934480	0.814117	0.439751
O171	O	1.071362	-0.067655	0.000114
O172	O	1.571362	0.432345	0.500114
H173	H	1.104042	-0.085607	0.060459
H174	H	1.604042	0.414393	0.560459
O175	O	1.093156	-0.613126	0.000108
O176	O	1.593156	-0.113126	0.500108
H177	H	1.075860	-0.676268	0.000098
H178	H	1.575860	-0.176268	0.500098
H179	H	1.027441	-0.322847	0.000079
H180	H	1.527441	0.177153	0.500079
