data_functionalizedCrystal
_audit_creation_method	'MofGen! by Chris Wilmer'
_symmetry_space_group_name_H-M	'P1'
_symmetry_Int_Tables_number	1
_symmetry_cell_setting	triclinic
loop_
_symmetry_equiv_pos_as_xyz
  x,y,z
_cell_length_a	12.837932
_cell_length_b	10.489763
_cell_length_c	11.295658
_cell_angle_alpha	94.553339
_cell_angle_beta	85.844224
_cell_angle_gamma	90.310968
loop_
_atom_site_label
_atom_site_type_symbol
_atom_site_fract_x
_atom_site_fract_y
_atom_site_fract_z
O1	O	1.371670	-0.323451	0.099050
O2	O	1.069740	-0.307054	0.099051
O3	O	1.227565	-0.130414	0.099028
O4	O	1.213845	-0.500090	0.099073
O5	O	1.240116	-0.147288	-0.099015
O6	O	1.082292	-0.323928	-0.098992
O7	O	1.384221	-0.340325	-0.098993
Cu8	Cu	1.234403	-0.333667	-0.117075
Cu9	Cu	1.219559	-0.313712	0.117133
O10	O	1.226397	-0.516964	-0.098970
C11	C	1.037354	-0.309952	0.000029
C12	C	0.922152	-0.293433	0.000028
C13	C	1.232800	-0.091206	0.000004
C14	C	1.229686	0.050765	-0.000006
C15	C	0.771271	-0.155369	0.000009
C16	C	0.879514	-0.170881	0.000012
C17	C	0.856540	-0.400481	0.000039
C18	C	0.748297	-0.384969	0.000037
C19	C	0.705667	-0.262409	0.000024
C20	C	0.597421	-0.246896	0.000030
C21	C	0.574450	-0.476496	0.000048
C22	C	0.682693	-0.492008	0.000051
C23	C	1.129255	0.129978	-0.000003
C24	C	1.182879	0.208549	-0.097656
C25	C	1.170528	0.225157	0.097599
C26	C	1.283356	0.127460	-0.097739
C27	C	1.270985	0.144067	0.097603
C28	C	1.324683	0.222601	-0.000073
C29	C	1.416608	-0.337426	0.000032
C30	C	1.531809	-0.353944	0.000040
C31	C	1.221147	0.443825	0.000037
C32	C	1.224215	0.301848	-0.000008
N33	N	1.209119	-0.299667	0.281863
N34	N	1.244851	-0.347703	-0.281805
C35	C	1.320062	-0.448942	0.531222
C36	C	1.312166	-0.438299	0.655881
C37	C	1.185425	-0.267746	0.655841
C38	C	1.193321	-0.278388	0.531183
C39	C	1.260643	-0.368988	0.468878
C40	C	1.268545	-0.379624	0.344217
C41	C	1.141799	-0.209077	0.344179
C42	C	1.133902	-0.198435	0.468838
H43	H	0.736560	-0.055575	0.000011
O44	O	0.897839	-0.519574	0.000198
C45	C	0.857942	-0.576892	0.102786
H46	H	0.780443	-0.530099	0.136990
H47	H	0.845211	-0.683349	0.079721
H48	H	0.915909	-0.563581	0.174600
O49	O	1.315538	0.109981	0.196057
C50	C	1.417918	0.159212	0.196887
H51	H	1.425038	0.244736	0.140544
H52	H	1.435690	0.190686	0.292245
H53	H	1.475810	0.082027	0.158545
H54	H	0.717418	-0.591794	0.000057
O55	O	1.113722	0.276052	0.196206
C56	C	1.159280	0.241626	0.298998
H57	H	1.245276	0.217817	0.276073
H58	H	1.152143	0.324754	0.370512
H59	H	1.117260	0.154473	0.333528
O60	O	1.385581	-0.536767	0.470638
C61	C	1.460448	-0.473895	0.398485
H62	H	1.468603	-0.370488	0.436027
H63	H	1.538920	-0.524548	0.397075
H64	H	1.434362	-0.475809	0.304010
O65	O	0.510574	-0.580351	0.000016
C66	C	0.405891	-0.540381	0.000051
H67	H	0.403351	-0.442802	-0.037463
H68	H	0.361055	-0.612705	-0.057426
H69	H	0.368616	-0.533315	0.095066
O70	O	0.555832	-0.127934	0.000067
C71	C	0.446228	-0.137191	0.000040
H72	H	0.419193	-0.230533	0.037550
H73	H	0.408783	-0.053077	0.057524
H74	H	0.422077	-0.135446	-0.094973
O75	O	1.369996	-0.516025	0.716259
C76	C	1.431084	-0.598291	0.634530
H77	H	1.442455	-0.553782	0.545654
H78	H	1.510418	-0.613307	0.670547
H79	H	1.389779	-0.694305	0.621300
H80	H	1.130609	-0.193990	0.706592
H81	H	0.932926	-0.083718	-0.000000
O82	O	1.068447	-0.110591	0.529499
C83	C	0.993536	-0.173450	0.601607
H84	H	1.025184	-0.270611	0.620305
H85	H	0.976133	-0.113203	0.689254
H86	H	0.918719	-0.187363	0.553572
H87	H	1.046695	0.089423	-0.000098
O88	O	1.423304	0.270623	-0.000348
C89	C	1.482389	0.220333	-0.103417
H90	H	1.427611	0.188173	-0.175047
H91	H	1.537443	0.297087	-0.137503
H92	H	1.529892	0.135076	-0.081047
H93	H	1.145616	0.237212	-0.180211
H94	H	1.323364	-0.453392	0.293490
O95	O	1.340348	0.076566	-0.196210
C96	C	1.425721	0.008100	-0.161364
H97	H	1.407561	-0.021501	-0.067128
H98	H	1.440380	-0.080856	-0.225068
H99	H	1.498254	0.071291	-0.163719
H100	H	1.093415	-0.143974	0.293405
