data_functionalizedCrystal
_audit_creation_method	'MofGen! by Chris Wilmer'
_symmetry_space_group_name_H-M	'P1'
_symmetry_Int_Tables_number	1
_symmetry_cell_setting	triclinic
loop_
_symmetry_equiv_pos_as_xyz
  x,y,z
_cell_length_a	18.215405
_cell_length_b	12.827893
_cell_length_c	18.215399
_cell_angle_alpha	89.982296
_cell_angle_beta	89.972459
_cell_angle_gamma	90.022702
loop_
_atom_site_label
_atom_site_type_symbol
_atom_site_fract_x
_atom_site_fract_y
_atom_site_fract_z
Zn1	Zn	-0.292992	1.597600	-0.416076
Zn2	Zn	-0.416064	1.597477	-0.293011
Zn3	Zn	-0.293015	1.422846	-0.293028
Zn4	Zn	-0.416022	1.422804	-0.416040
O5	O	-0.354523	1.510182	-0.354539
O6	O	-0.309326	1.743820	-0.399759
O7	O	-0.399768	1.574277	-0.190029
O8	O	-0.190028	1.446097	-0.309373
O9	O	-0.399746	1.743729	-0.309343
O10	O	-0.190011	1.574488	-0.399776
O11	O	-0.309365	1.445977	-0.190041
O12	O	-0.309325	1.276605	-0.309338
O13	O	-0.399674	1.446026	-0.519029
O14	O	-0.399697	1.276574	-0.399715
O15	O	-0.309285	1.574447	-0.519056
O16	O	-0.519042	1.574237	-0.309309
O17	O	-0.519012	1.445906	-0.399698
C18	C	-0.354509	1.238672	-0.354525
C19	C	-0.354521	1.122519	-0.354536
C20	C	-0.399310	1.070746	-0.399188
C21	C	-0.399323	0.950696	-0.399201
C22	C	-0.545730	1.510082	-0.354513
C23	C	-0.627528	1.510134	-0.354527
C24	C	-0.815653	1.577019	-0.401664
C25	C	-0.892511	1.577057	-0.401678
C26	C	-0.892642	1.443474	-0.307460
C27	C	-0.815785	1.443431	-0.307450
C28	C	-0.777292	1.510210	-0.354551
C29	C	-0.931008	1.510290	-0.354574
C30	C	-1.014342	1.510331	-0.354589
C31	C	-0.693953	1.510168	-0.354538
C32	C	-0.162570	1.510311	-0.354580
C33	C	-0.080771	1.510366	-0.354598
C34	C	-0.354473	1.510246	-0.546492
C35	C	-0.354451	1.510273	-0.628291
C36	C	-0.354538	1.782752	-0.354553
C37	C	-0.354544	1.898905	-0.354559
C38	C	-0.307341	1.577166	-0.816500
C39	C	-0.307320	1.577178	-0.893358
C40	C	-0.401447	1.443453	-0.893320
C41	C	-0.401464	1.443436	-0.816462
C42	C	-0.354412	1.510299	-0.778054
C43	C	-0.354374	1.510328	-0.931771
C44	C	-0.354351	1.510341	-1.015104
C45	C	-0.354434	1.510284	-0.694715
C46	C	-0.354521	1.510179	-0.163333
C47	C	-0.354335	1.510354	-0.081534
H48	H	-0.316182	1.077966	-0.316320
H49	H	-0.923741	1.631458	-0.440043
Br50	Br	-0.944887	1.352846	-0.243542
Br51	Br	-0.763414	1.667645	-0.465587
Br52	Br	-0.463211	1.144992	-0.462891
H53	H	-0.316200	0.943421	-0.316327
Br54	Br	-0.763719	1.352743	-0.243515
H55	H	-0.268989	1.631627	-0.924657
Br56	Br	-0.465302	1.352720	-0.945449
H57	H	-0.269027	1.631606	-0.785230
H58	H	-0.439794	1.388978	-0.785159
H59	H	-0.437670	0.906173	-0.437428
