data_functionalizedCrystal
_audit_creation_method	'MofGen! by Chris Wilmer'
_symmetry_space_group_name_H-M	'P1'
_symmetry_Int_Tables_number	1
_symmetry_cell_setting	triclinic
loop_
_symmetry_equiv_pos_as_xyz
  x,y,z
_cell_length_a	18.215405
_cell_length_b	18.215407
_cell_length_c	18.215399
_cell_angle_alpha	89.980167
_cell_angle_beta	89.969449
_cell_angle_gamma	90.025333
loop_
_atom_site_label
_atom_site_type_symbol
_atom_site_fract_x
_atom_site_fract_y
_atom_site_fract_z
Zn1	Zn	-0.292983	1.125072	-0.416103
Zn2	Zn	-0.042983	1.375072	-0.166103
Zn3	Zn	0.207017	1.625072	0.083897
Zn4	Zn	0.457017	1.875072	0.333897
Zn5	Zn	-0.416054	1.124980	-0.293031
Zn6	Zn	-0.166054	1.374980	-0.043031
Zn7	Zn	0.083946	1.624980	0.206969
Zn8	Zn	0.333946	1.874980	0.456969
Zn9	Zn	-0.293007	1.002005	-0.293050
Zn10	Zn	-0.043007	1.252005	-0.043050
Zn11	Zn	0.206993	1.502005	0.206950
Zn12	Zn	0.456993	1.752005	0.456950
Zn13	Zn	-0.416013	1.001970	-0.416056
Zn14	Zn	-0.166013	1.251970	-0.166056
Zn15	Zn	0.083987	1.501970	0.083944
Zn16	Zn	0.333987	1.751970	0.333944
O17	O	-0.354514	1.063507	-0.354560
O18	O	-0.104514	1.313507	-0.104560
O19	O	0.145486	1.563507	0.145440
O20	O	0.395486	1.813507	0.395440
O21	O	-0.309316	1.228044	-0.399788
O22	O	-0.059316	1.478044	-0.149788
O23	O	0.190684	1.728044	0.100212
O24	O	0.440684	1.978044	0.350212
O25	O	-0.399759	1.108643	-0.190049
O26	O	-0.149759	1.358643	0.059951
O27	O	0.100241	1.608643	0.309951
O28	O	0.350241	1.858643	0.559951
O29	O	-0.190020	1.018382	-0.309401
O30	O	0.059980	1.268382	-0.059401
O31	O	0.309980	1.518382	0.190599
O32	O	0.559980	1.768382	0.440599
O33	O	-0.399736	1.227977	-0.309368
O34	O	-0.149736	1.477977	-0.059368
O35	O	0.100264	1.727977	0.190632
O36	O	0.350264	1.977977	0.440632
O37	O	-0.190002	1.108799	-0.399807
O38	O	0.059998	1.358799	-0.149807
O39	O	0.309998	1.608799	0.100193
O40	O	0.559998	1.858799	0.350193
O41	O	-0.309357	1.018293	-0.190063
O42	O	-0.059357	1.268293	0.059937
O43	O	0.190643	1.518293	0.309937
O44	O	0.440643	1.768293	0.559937
O45	O	-0.309317	0.899016	-0.309355
O46	O	-0.059317	1.149016	-0.059355
O47	O	0.190683	1.399016	0.190645
O48	O	0.440683	1.649016	0.440645
O49	O	-0.399666	1.018324	-0.519046
O50	O	-0.149666	1.268324	-0.269046
O51	O	0.100334	1.518324	-0.019046
O52	O	0.350334	1.768324	0.230954
O53	O	-0.399689	0.898991	-0.399727
O54	O	-0.149689	1.148991	-0.149727
O55	O	0.100311	1.398991	0.100273
O56	O	0.350311	1.648991	0.350273
O57	O	-0.309276	1.108766	-0.519081
O58	O	-0.059276	1.358766	-0.269081
O59	O	0.190724	1.608766	-0.019081
O60	O	0.440724	1.858766	0.230919
O61	O	-0.519033	1.108610	-0.309322
O62	O	-0.269033	1.358610	-0.059322
O63	O	-0.019033	1.608610	0.190678
O64	O	0.230967	1.858610	0.440678
O65	O	-0.519003	1.018235	-0.399708
O66	O	-0.269003	1.268235	-0.149708
O67	O	-0.019003	1.518235	0.100292
O68	O	0.230997	1.768235	0.350292
C69	C	-0.354502	0.872301	-0.354539
C70	C	-0.104502	1.122301	-0.104539
C71	C	0.145498	1.372301	0.145461
C72	C	0.395498	1.622301	0.395461
C73	C	-0.354514	0.790502	-0.354547
C74	C	-0.104514	1.040502	-0.104547
C75	C	0.145486	1.290502	0.145453
C76	C	0.395486	1.540502	0.395453
C77	C	-0.401645	0.602314	-0.401544
C78	C	-0.151645	0.852314	-0.151544
C79	C	0.098355	1.102314	0.098456
C80	C	0.348355	1.352314	0.348456
C81	C	-0.401647	0.525455	-0.401554
C82	C	-0.151647	0.775455	-0.151554
C83	C	0.098353	1.025455	0.098446
C84	C	0.348353	1.275455	0.348446
C85	C	-0.307397	0.525452	-0.307591
C86	C	-0.057397	0.775452	-0.057591
C87	C	0.192603	1.025452	0.192409
C88	C	0.442603	1.275452	0.442409
C89	C	-0.307392	0.602309	-0.307586
C90	C	-0.057392	0.852309	-0.057586
C91	C	0.192608	1.102309	0.192414
C92	C	0.442608	1.352309	0.442414
C93	C	-0.354520	0.640738	-0.354562
C94	C	-0.104520	0.890738	-0.104562
C95	C	0.145480	1.140738	0.145438
C96	C	0.395480	1.390738	0.395438
C97	C	-0.354528	0.487022	-0.354576
C98	C	-0.104528	0.737022	-0.104576
C99	C	0.145472	0.987022	0.145424
C100	C	0.395472	1.237022	0.395424
C101	C	-0.354530	0.403688	-0.354585
C102	C	-0.104530	0.653688	-0.104585
C103	C	0.145470	0.903688	0.145415
C104	C	0.395470	1.153688	0.395415
C105	C	-0.354517	0.724077	-0.354553
C106	C	-0.104517	0.974077	-0.104553
C107	C	0.145483	1.224077	0.145447
C108	C	0.395483	1.474077	0.395447
C109	C	-0.545721	1.063429	-0.354524
C110	C	-0.295721	1.313429	-0.104524
C111	C	-0.045721	1.563429	0.145476
C112	C	0.204279	1.813429	0.395476
C113	C	-0.627520	1.063463	-0.354534
C114	C	-0.377520	1.313463	-0.104534
C115	C	-0.127520	1.563463	0.145466
C116	C	0.122480	1.813463	0.395466
C117	C	-0.815705	1.110632	-0.307556
C118	C	-0.565705	1.360632	-0.057556
C119	C	-0.315705	1.610632	0.192444
C120	C	-0.065705	1.860632	0.442444
C121	C	-0.892563	1.110665	-0.307574
C122	C	-0.642563	1.360665	-0.057574
C123	C	-0.392563	1.610665	0.192426
C124	C	-0.142563	1.860665	0.442426
C125	C	-0.892572	1.016476	-0.401616
C126	C	-0.642572	1.266476	-0.151616
C127	C	-0.392572	1.516476	0.098384
C128	C	-0.142572	1.766476	0.348384
C129	C	-0.815715	1.016447	-0.401601
C130	C	-0.565715	1.266447	-0.151601
C131	C	-0.315715	1.516447	0.098399
C132	C	-0.065715	1.766447	0.348399
C133	C	-0.777283	1.063524	-0.354567
C134	C	-0.527283	1.313524	-0.104567
C135	C	-0.277283	1.563524	0.145433
C136	C	-0.027283	1.813524	0.395433
C137	C	-0.930999	1.063586	-0.354600
C138	C	-0.680999	1.313586	-0.104600
C139	C	-0.430999	1.563586	0.145400
C140	C	-0.180999	1.813586	0.395400
C141	C	-1.014333	1.063621	-0.354619
C142	C	-0.764333	1.313621	-0.104619
C143	C	-0.514333	1.563621	0.145381
C144	C	-0.264333	1.813621	0.395381
C145	C	-0.693944	1.063490	-0.354548
C146	C	-0.443944	1.313490	-0.104548
C147	C	-0.193944	1.563490	0.145452
C148	C	0.056056	1.813490	0.395452
C149	C	-0.162561	1.063605	-0.354611
C150	C	0.087439	1.313605	-0.104611
C151	C	0.337439	1.563605	0.145389
C152	C	0.587439	1.813605	0.395389
C153	C	-0.080763	1.063647	-0.354633
C154	C	0.169237	1.313647	-0.104633
C155	C	0.419237	1.563647	0.145367
C156	C	0.669237	1.813647	0.395367
C157	C	-0.354464	1.063552	-0.546513
C158	C	-0.104464	1.313552	-0.296513
C159	C	0.145536	1.563552	-0.046513
C160	C	0.395536	1.813552	0.203487
C161	C	-0.354442	1.063571	-0.628312
C162	C	-0.104442	1.313571	-0.378312
C163	C	0.145558	1.563571	-0.128312
C164	C	0.395558	1.813571	0.121688
C165	C	-0.354528	1.255460	-0.354581
C166	C	-0.104528	1.505460	-0.104581
C167	C	0.145472	1.755460	0.145419
C168	C	0.395472	2.005460	0.395419
C169	C	-0.354533	1.337259	-0.354591
C170	C	-0.104533	1.587259	-0.104591
C171	C	0.145467	1.837259	0.145409
C172	C	0.395467	2.087259	0.395409
C173	C	-0.307332	1.110681	-0.816525
C174	C	-0.057332	1.360681	-0.566525
C175	C	0.192668	1.610681	-0.316525
C176	C	0.442668	1.860681	-0.066525
C177	C	-0.307311	1.110690	-0.893384
C178	C	-0.057311	1.360690	-0.643384
C179	C	0.192689	1.610690	-0.393384
C180	C	0.442689	1.860690	-0.143384
C181	C	-0.401438	1.016513	-0.893336
C182	C	-0.151438	1.266513	-0.643336
C183	C	0.098562	1.516513	-0.393336
C184	C	0.348562	1.766513	-0.143336
C185	C	-0.401455	1.016501	-0.816479
C186	C	-0.151455	1.266501	-0.566479
C187	C	0.098545	1.516501	-0.316479
C188	C	0.348545	1.766501	-0.066479
C189	C	-0.354403	1.063589	-0.778075
C190	C	-0.104403	1.313589	-0.528075
C191	C	0.145597	1.563589	-0.278075
C192	C	0.395597	1.813589	-0.028075
C193	C	-0.354365	1.063610	-0.931791
C194	C	-0.104365	1.313610	-0.681791
C195	C	0.145635	1.563610	-0.431791
C196	C	0.395635	1.813610	-0.181791
C197	C	-0.354342	1.063619	-1.015125
C198	C	-0.104342	1.313619	-0.765125
C199	C	0.145658	1.563619	-0.515125
C200	C	0.395658	1.813619	-0.265125
C201	C	-0.354425	1.063579	-0.694736
C202	C	-0.104425	1.313579	-0.444736
C203	C	0.145575	1.563579	-0.194736
C204	C	0.395575	1.813579	0.055264
C205	C	-0.354512	1.063504	-0.163353
C206	C	-0.104512	1.313504	0.086647
C207	C	0.145488	1.563504	0.336647
C208	C	0.395488	1.813504	0.586647
C209	C	-0.354326	1.063628	-0.081555
C210	C	-0.104326	1.313628	0.168445
C211	C	0.145674	1.563628	0.418445
C212	C	0.395674	1.813628	0.668445
H213	H	-0.269012	0.633595	-0.269327
H214	H	-0.019012	0.883595	-0.019327
H215	H	0.230988	1.133595	0.230673
H216	H	0.480988	1.383595	0.480673
H217	H	-0.269017	1.149021	-0.785259
H218	H	-0.019017	1.399021	-0.535259
H219	H	0.230983	1.649021	-0.285259
H220	H	0.480983	1.899021	-0.035259
H221	H	-0.440020	0.494174	-0.439813
H222	H	-0.190020	0.744174	-0.189813
H223	H	0.059980	0.994174	0.060187
H224	H	0.309980	1.244174	0.310187
H225	H	-0.269028	0.494153	-0.269344
H226	H	-0.019028	0.744153	-0.019344
H227	H	0.230972	0.994153	0.230656
H228	H	0.480972	1.244153	0.480656
H229	H	-0.784430	0.978086	-0.439887
H230	H	-0.534430	1.228086	-0.189887
H231	H	-0.284430	1.478086	0.060113
H232	H	-0.034430	1.728086	0.310113
H233	H	-0.268979	1.149035	-0.924686
H234	H	-0.018979	1.399035	-0.674686
H235	H	0.231021	1.649035	-0.424686
H236	H	0.481021	1.899035	-0.174686
H237	H	-0.784415	1.148966	-0.269260
H238	H	-0.534415	1.398966	-0.019260
H239	H	-0.284415	1.648966	0.230740
H240	H	-0.034415	1.898966	0.480740
H241	H	-0.923843	1.149026	-0.269294
H242	H	-0.673843	1.399026	-0.019294
H243	H	-0.423843	1.649026	0.230706
H244	H	-0.173843	1.899026	0.480706
H245	H	-0.439748	0.978177	-0.924614
H246	H	-0.189748	1.228177	-0.674614
H247	H	0.060252	1.478177	-0.424614
H248	H	0.310252	1.728177	-0.174614
Br249	Br	-0.465336	0.952579	-0.764292
Br250	Br	-0.215336	1.202579	-0.514292
Br251	Br	0.034664	1.452579	-0.264292
Br252	Br	0.284664	1.702579	-0.014292
Br253	Br	-0.944734	0.952588	-0.465444
Br254	Br	-0.694734	1.202588	-0.215444
Br255	Br	-0.444734	1.452588	0.034556
Br256	Br	-0.194734	1.702588	0.284556
H257	H	-0.440018	0.633601	-0.439797
H258	H	-0.190018	0.883601	-0.189797
H259	H	0.059982	1.133601	0.060203
H260	H	0.309982	1.383601	0.310203
