data_functionalizedCrystal
_audit_creation_method	'MofGen! by Chris Wilmer'
_symmetry_space_group_name_H-M	'P1'
_symmetry_Int_Tables_number	1
_symmetry_cell_setting	triclinic
loop_
_symmetry_equiv_pos_as_xyz
  x,y,z
_cell_length_a	10.686285
_cell_length_b	19.805407
_cell_length_c	19.805407
_cell_angle_alpha	89.991156
_cell_angle_beta	94.374449
_cell_angle_gamma	94.372303
loop_
_atom_site_label
_atom_site_type_symbol
_atom_site_fract_x
_atom_site_fract_y
_atom_site_fract_z
Zn1	Zn	-0.502675	-1.055447	0.362091
Zn2	Zn	-0.713630	-1.064103	0.240249
Zn3	Zn	-0.502643	-0.942281	0.248918
Zn4	Zn	-0.713601	-0.950945	0.353397
O5	O	-0.608137	-1.003194	0.301164
O6	O	-0.530684	-1.151313	0.345939
O7	O	-0.685641	-1.047940	0.146682
O8	O	-0.326075	-0.950044	0.271197
O9	O	-0.685672	-1.157672	0.256422
O10	O	-0.326098	-1.033187	0.354345
O11	O	-0.530629	-0.958437	0.153051
O12	O	-0.530601	-0.848712	0.262767
O13	O	-0.685623	-0.964810	0.449267
O14	O	-0.685592	-0.855078	0.339527
O15	O	-0.530656	-1.041588	0.455654
O16	O	-0.890198	-1.056341	0.247992
O17	O	-0.890177	-0.973204	0.331121
C18	C	-0.608091	-0.827336	0.301145
C19	C	-0.608102	-0.752104	0.301152
C20	C	-0.527541	-0.713455	0.347822
C21	C	-0.527545	-0.642767	0.347823
C22	C	-0.608117	-0.610729	0.301156
C23	C	-0.688681	-0.649384	0.254480
C24	C	-0.688670	-0.720070	0.254477
C25	C	-0.688727	-0.364312	0.254492
C26	C	-0.688735	-0.293620	0.254500
C27	C	-0.527602	-0.287009	0.347838
C28	C	-0.527591	-0.357695	0.347835
C29	C	-0.608150	-0.396343	0.301157
C30	C	-0.608143	-0.472991	0.301156
C31	C	-0.608131	-0.534083	0.301159
C32	C	-0.935971	-1.016670	0.287687
C33	C	-1.076220	-1.022497	0.281944
C34	C	-0.279023	-0.989683	0.314708
C35	C	-0.138774	-0.983926	0.320479
C36	C	-0.608140	-1.003200	0.477706
C37	C	-0.608141	-1.003203	0.552938
C38	C	-0.608175	-0.179738	0.301177
C39	C	-0.608167	-0.254970	0.301168
C40	C	-0.527462	-1.043176	0.591609
C41	C	-0.527458	-1.043170	0.662297
C42	C	-0.608140	-1.003194	0.694314
C43	C	-0.688823	-0.963216	0.655638
C44	C	-0.688819	-0.963219	0.584951
C45	C	-0.688837	-0.963203	0.940711
C46	C	-0.688837	-0.963205	1.011403
C47	C	-0.527476	-1.043154	1.018057
C48	C	-0.527473	-1.043157	0.947370
C49	C	-0.608150	-1.003177	0.908701
C50	C	-0.608151	-1.003183	0.832052
C51	C	-0.608146	-1.003191	0.770961
C52	C	-0.608160	-1.003182	1.125307
C53	C	-0.608151	-1.003175	1.050075
H54	H	-0.461947	-0.611302	0.385828
O55	O	-1.140290	-1.067139	0.237251
C56	C	-1.180880	-1.101794	0.120516
C57	C	-1.108252	-1.051183	0.171049
H58	H	-1.154984	-1.088920	0.066983
H59	H	-1.286373	-1.098672	0.123625
H60	H	-1.154984	-1.155295	0.133543
H61	H	-1.134043	-0.997659	0.158056
H62	H	-1.002777	-1.054364	0.167931
H63	H	-0.754548	-0.930660	0.909234
H64	H	-1.085036	-0.946446	0.357865
O65	O	-0.448967	-1.082026	0.560621
C66	C	-0.288961	-1.161354	0.574688
C67	C	-0.377777	-1.117377	0.609866
H68	H	-0.231400	-1.189958	0.614486
H69	H	-0.222889	-1.127601	0.544326
H70	H	-0.346918	-1.199098	0.539197
H71	H	-0.319921	-1.079628	0.645390
H72	H	-0.443853	-1.151173	0.640185
O73	O	-0.448941	-1.081895	0.699893
C74	C	-0.278608	-1.084000	0.786726
C75	C	-0.367445	-1.040064	0.744186
H76	H	-0.212714	-1.050199	0.822557
H77	H	-0.220858	-1.112554	0.751729
H78	H	-0.336558	-1.121786	0.817417
H79	H	-0.309592	-1.002242	0.713490
H80	H	-0.425200	-1.011558	0.779220
O81	O	-0.448978	-1.082006	0.916380
C82	C	-0.288970	-1.161333	0.930440
C83	C	-0.377785	-1.117359	0.965623
H84	H	-0.231406	-1.189939	0.970236
H85	H	-0.222900	-1.127578	0.900079
H86	H	-0.346927	-1.199076	0.894948
H87	H	-0.319929	-1.079611	1.001147
H88	H	-0.443858	-1.151157	0.995941
O89	O	-0.767065	-0.924280	0.686711
C90	C	-0.828339	-0.811664	0.705763
C91	C	-0.739626	-0.855676	0.670550
H92	H	-0.806205	-0.756190	0.692698
H93	H	-0.814486	-0.818469	0.762936
H94	H	-0.930076	-0.827762	0.687684
H95	H	-0.637855	-0.839605	0.688574
H96	H	-0.753589	-0.848866	0.613382
H97	H	-0.754504	-0.930661	0.553467
O98	O	-0.449337	-0.744502	0.393248
C99	C	-0.388471	-0.763678	0.510939
C100	C	-0.477100	-0.728468	0.459568
H101	H	-0.410903	-0.750739	0.564569
H102	H	-0.286673	-0.745573	0.503383
H103	H	-0.402280	-0.820835	0.502888
H104	H	-0.463403	-0.671307	0.467587
H105	H	-0.578864	-0.746628	0.467136
H106	H	-0.754541	-0.930649	1.037468
O107	O	-0.449203	-0.388706	0.393194
C108	C	-0.289422	-0.374688	0.485799
C109	C	-0.378116	-0.339483	0.434459
H110	H	-0.231944	-0.334907	0.519184
H111	H	-0.223267	-0.405032	0.457530
H112	H	-0.347469	-0.410199	0.518722
H113	H	-0.320170	-0.303939	0.401522
H114	H	-0.444275	-0.309181	0.462770
O115	O	-0.449375	-0.249362	0.393113
C116	C	-0.378022	-0.137538	0.434517
C117	C	-0.466648	-0.180087	0.383197
H118	H	-0.391975	-0.081522	0.426528
H119	H	-0.276213	-0.147194	0.426907
H120	H	-0.400330	-0.152407	0.488149
H121	H	-0.444453	-0.165243	0.329545
H122	H	-0.568430	-0.170426	0.390867
H123	H	-0.754349	-0.267538	0.216495
O124	O	-0.766807	-0.401874	0.209093
C125	C	-0.783520	-0.482381	0.117031
C126	C	-0.694944	-0.439861	0.168399
H127	H	-0.725456	-0.513115	0.084126
H128	H	-0.841093	-0.447371	0.083632
H129	H	-0.849604	-0.518172	0.145347
H130	H	-0.628784	-0.404066	0.140139
H131	H	-0.637460	-0.474911	0.201797
O132	O	-0.767125	-0.618345	0.209174
C133	C	-0.981673	-0.605514	0.167342
C134	C	-0.892970	-0.640722	0.218675
H135	H	-1.083438	-0.623581	0.175015
H136	H	-0.959459	-0.618496	0.113684
H137	H	-0.967781	-0.548354	0.175354
H138	H	-0.906813	-0.697889	0.210725
H139	H	-0.915206	-0.627684	0.272314
O140	O	-0.766992	-0.757694	0.209234
C141	C	-0.937356	-0.844486	0.192972
C142	C	-0.848720	-0.801935	0.244286
H143	H	-1.003473	-0.880255	0.221291
H144	H	-0.879383	-0.875231	0.160024
H145	H	-0.994890	-0.809434	0.159605
H146	H	-0.791166	-0.836938	0.277697
H147	H	-0.906764	-0.771183	0.277186
H148	H	-0.461781	-1.075705	1.049550
