data_functionalizedCrystal
_audit_creation_method	'MofGen! by Chris Wilmer'
_symmetry_space_group_name_H-M	'P1'
_symmetry_Int_Tables_number	1
_symmetry_cell_setting	triclinic
loop_
_symmetry_equiv_pos_as_xyz
  x,y,z
_cell_length_a	19.288864
_cell_length_b	11.804365
_cell_length_c	19.288865
_cell_angle_alpha	101.783861
_cell_angle_beta	96.863755
_cell_angle_gamma	101.819883
loop_
_atom_site_label
_atom_site_type_symbol
_atom_site_fract_x
_atom_site_fract_y
_atom_site_fract_z
O1	O	0.935481	0.099426	-0.072522
O2	O	0.733209	0.099346	-0.084223
O3	O	0.840187	0.099365	0.022755
O4	O	0.828504	0.099407	-0.179500
O5	O	0.812024	-0.098696	-0.005380
O6	O	0.705046	-0.098715	-0.112357
O7	O	0.907318	-0.098635	-0.100657
Cu8	Cu	0.803611	-0.116759	-0.109076
Cu9	Cu	0.836917	0.117470	-0.075804
O10	O	0.800341	-0.098654	-0.207635
C11	C	0.693250	0.000305	-0.097915
C12	C	0.616142	0.000274	-0.096791
N13	N	0.780190	-0.281504	-0.132478
C14	C	0.571450	0.000306	-0.159554
C15	C	0.499005	0.000319	-0.158492
C16	C	0.471258	0.000324	-0.094659
C17	C	0.515959	0.000285	-0.031888
C18	C	0.588401	0.000260	-0.032954
C19	C	0.372867	0.069743	-0.034619
C20	C	0.300427	0.069775	-0.033554
C21	C	0.247823	0.000395	-0.091369
C22	C	0.267668	-0.069002	-0.150258
C23	C	0.340110	-0.069027	-0.151324
C24	C	0.392708	0.000350	-0.093496
C25	C	0.124577	0.000439	-0.152985
C26	C	0.052129	0.000445	-0.151921
C27	C	0.069087	0.000423	-0.025314
C28	C	0.141530	0.000405	-0.026381
C29	C	0.169272	0.000419	-0.090218
C30	C	0.916584	-0.655429	0.003813
C31	C	0.934301	-0.530764	0.021519
C32	C	0.895775	-0.468443	-0.016978
C33	C	0.839529	-0.530799	-0.073186
C34	C	0.821814	-0.655476	-0.090897
C35	C	0.801004	-0.468490	-0.111689
C36	C	0.744759	-0.530846	-0.167896
C37	C	0.727046	-0.655510	-0.185604
C38	C	0.765573	-0.717832	-0.147107
C39	C	0.818719	-0.343813	-0.093977
C40	C	0.723949	-0.343860	-0.188687
C41	C	0.706232	-0.468525	-0.206394
C42	C	0.947278	0.000409	-0.086964
C43	C	1.024387	0.000448	-0.088088
C44	C	0.825729	0.000331	0.034563
C45	C	0.824598	0.000320	0.111665
N46	N	0.860343	0.282215	-0.052396
C47	C	0.814800	0.000383	-0.219443
C48	C	0.815931	0.000402	-0.296544
C49	C	0.887369	0.000339	0.156364
C50	C	0.886311	0.000357	0.228814
C51	C	0.822475	0.000333	0.256558
C52	C	0.759697	0.000320	0.211850
C53	C	0.760759	0.000314	0.139404
C54	C	0.762428	-0.069064	0.354988
C55	C	0.761368	-0.069064	0.427432
C56	C	0.819199	0.000358	0.480007
C57	C	0.878100	0.069766	0.460129
C58	C	0.879161	0.069759	0.387682
C59	C	0.821317	0.000340	0.335113
C60	C	0.880827	0.000399	0.603265
C61	C	0.879767	0.000424	0.675717
C62	C	0.753150	0.000376	0.658750
C63	C	0.754213	0.000362	0.586302
C64	C	0.818053	0.000368	0.558563
H65	H	0.462609	0.000341	-0.209603
O66	O	0.956229	0.000377	0.126456
H67	H	0.974910	-0.080328	0.132975
O68	O	0.958139	-0.722640	0.045329
H69	H	0.920939	-0.779469	0.070946
O70	O	0.686503	0.000311	0.538083
H71	H	0.667414	0.081018	0.559379
H72	H	0.594032	0.000319	-0.211535
O73	O	0.914877	-0.333983	0.002119
H74	H	0.867689	-0.301160	0.017760
H75	H	0.864515	-0.293054	-0.048213
H76	H	0.356264	-0.125535	-0.199272
O77	O	0.279021	0.144604	0.029962
H78	H	0.327767	0.192819	0.069994
H79	H	0.224837	-0.125498	-0.197336
H80	H	0.980096	-0.479999	0.067282
H81	H	0.147162	0.000433	-0.204967
H82	H	0.751146	-0.819344	-0.161521
O83	O	0.039169	0.000413	0.043535
H84	H	0.068639	0.081121	0.085157
O85	O	0.666406	-0.722747	-0.246256
H86	H	0.615674	-0.698878	-0.234169
O87	O	0.189743	0.000381	0.041315
H88	H	0.158281	0.000394	0.085883
O89	O	0.645574	-0.535782	-0.267023
H90	H	0.639736	-0.632940	-0.272871
H91	H	0.927119	0.126276	0.371501
H92	H	0.701175	0.000362	0.681339
O93	O	0.954016	0.000361	0.277032
H94	H	0.942551	0.000366	0.332068
H95	H	0.692579	-0.293119	-0.220037
O96	O	0.940480	0.144660	0.516824
H97	H	0.929845	0.133021	0.570542
H98	H	0.932809	0.000409	0.580680
H99	H	0.415695	0.126247	0.012464
H100	H	0.493365	0.000305	0.020087
H101	H	0.930886	0.000446	0.712112
O102	O	0.697845	-0.143924	0.448873
H103	H	0.657803	-0.192181	0.400146
H104	H	0.015740	0.000464	-0.203033
H105	H	0.624790	0.000235	0.018157
H106	H	0.715332	-0.125602	0.312184
O107	O	0.690846	0.000292	0.241773
H108	H	0.647375	0.000287	0.198518
O109	O	0.693051	0.000273	0.091182
H110	H	0.648481	0.000251	0.122641
