data_functionalizedCrystal
_audit_creation_method	'MofGen! by Chris Wilmer'
_symmetry_space_group_name_H-M	'P1'
_symmetry_Int_Tables_number	1
_symmetry_cell_setting	triclinic
loop_
_symmetry_equiv_pos_as_xyz
  x,y,z
_cell_length_a	16.109301
_cell_length_b	15.944551
_cell_length_c	15.186229
_cell_angle_alpha	89.995303
_cell_angle_beta	89.999362
_cell_angle_gamma	83.480109
loop_
_atom_site_label
_atom_site_type_symbol
_atom_site_fract_x
_atom_site_fract_y
_atom_site_fract_z
O1	O	1.103166	0.107966	-0.073175
O2	O	1.603166	0.607966	0.426825
O3	O	0.861108	0.121402	-0.073189
O4	O	1.361108	0.621402	0.426811
O5	O	0.988747	-0.007593	-0.073174
O6	O	1.488747	0.492407	0.426826
O7	O	0.975527	0.236961	-0.073190
O8	O	1.475527	0.736961	0.426810
O9	O	0.988738	-0.007594	0.073284
O10	O	1.488738	0.492406	0.573284
O11	O	0.861099	0.121401	0.073268
O12	O	1.361099	0.621401	0.573268
O13	O	1.103157	0.107964	0.073282
O14	O	1.603157	0.607964	0.573282
Zn15	Zn	0.982127	0.114682	0.096529
Zn16	Zn	1.482127	0.614682	0.596529
Zn17	Zn	0.982138	0.114685	-0.096435
Zn18	Zn	1.482138	0.614685	0.403565
O19	O	0.975518	0.236960	0.073267
O20	O	1.475518	0.736960	0.573267
C21	C	0.830129	0.120857	0.000038
C22	C	1.330129	0.620857	0.500038
C23	C	0.737833	0.119226	0.000033
C24	C	1.237833	0.619226	0.500033
C25	C	0.988194	-0.038887	0.000055
C26	C	1.488194	0.461113	0.500055
C27	C	0.986548	-0.132133	0.000056
C28	C	1.486548	0.367867	0.500056
C29	C	0.515584	0.191975	0.000038
C30	C	1.015584	0.691975	0.500038
C31	C	0.428863	0.190435	0.000044
C32	C	0.928863	0.690435	0.500044
C33	C	0.448688	0.037387	0.000050
C34	C	0.948688	0.537387	0.500050
C35	C	0.535407	0.038927	0.000051
C36	C	1.035407	0.538927	0.500051
C37	C	0.568853	0.116224	0.000040
C38	C	1.068853	0.616224	0.500040
C39	C	0.395412	0.113143	0.000045
C40	C	0.895412	0.613143	0.500045
C41	C	0.301386	0.111473	0.000052
C42	C	0.801386	0.611473	0.500052
C43	C	0.662885	0.117894	0.000036
C44	C	1.162885	0.617894	0.500036
C45	C	0.903499	-0.346962	0.000039
C46	C	1.403499	0.153038	0.500039
C47	C	0.942060	-0.407993	0.072253
C48	C	1.442060	0.092007	0.572253
C49	C	0.983572	-0.302858	0.000049
C50	C	1.483572	0.197142	0.500049
C51	C	0.942087	-0.407975	-0.072142
C52	C	1.442087	0.092025	0.427858
C53	C	0.980691	-0.467769	0.000038
C54	C	1.480691	0.032231	0.500038
C55	C	1.022155	-0.362660	0.072323
C56	C	1.522155	0.137340	0.572323
C57	C	1.022171	-0.362636	-0.072137
C58	C	1.522171	0.137364	0.427863
C59	C	1.060790	-0.423649	0.000095
C60	C	1.560790	0.076351	0.500095
C61	C	0.985229	-0.207856	0.000055
C62	C	1.485229	0.292144	0.500055
C63	C	0.979039	-0.562770	0.000038
C64	C	1.479039	-0.062770	0.500038
C65	C	1.134136	0.108510	0.000054
C66	C	1.634136	0.608510	0.500054
C67	C	1.226432	0.110141	0.000053
C68	C	1.726432	0.610141	0.500053
C69	C	0.976071	0.268254	0.000036
C70	C	1.476071	0.768254	0.500036
C71	C	0.977717	0.361500	0.000030
C72	C	1.477717	0.861500	0.500030
N73	N	0.982125	0.114680	0.228221
N74	N	1.482125	0.614680	0.728221
N75	N	0.982146	0.114680	-0.228128
N76	N	1.482146	0.614680	0.271872
C77	C	1.038663	0.057580	0.453951
C78	C	1.538663	0.557580	0.953951
C79	C	1.038666	0.057578	0.546141
C80	C	1.538666	0.557578	1.046141
C81	C	0.925603	0.171783	0.546136
C82	C	1.425603	0.671783	1.046136
C83	C	0.925597	0.171780	0.453948
C84	C	1.425597	0.671780	0.953948
C85	C	0.982132	0.114680	0.407858
C86	C	1.482132	0.614680	0.907858
C87	C	0.982140	0.114680	0.592236
C88	C	1.482140	0.614680	1.092236
C89	C	0.982143	0.114679	0.692192
C90	C	1.482143	0.614679	1.192192
C91	C	0.982128	0.114680	0.307895
C92	C	1.482128	0.614680	0.807895
H93	H	0.385495	0.252119	0.000044
H94	H	0.885495	0.752119	0.500044
O95	O	0.416059	-0.037622	0.000015
O96	O	0.916059	0.462378	0.500015
C97	C	0.328095	-0.022741	0.000033
C98	C	0.828095	0.477259	0.500033
H99	H	0.307733	0.042815	-0.027696
H100	H	0.807733	0.542815	0.472304
H101	H	0.301469	-0.072195	-0.042487
H102	H	0.801469	0.427805	0.457513
H103	H	0.303953	-0.026809	0.070296
H104	H	0.803953	0.473191	0.570296
H105	H	0.879574	0.218274	0.583672
H106	H	1.379574	0.718274	1.083672
H107	H	0.879558	0.218278	0.416417
H108	H	1.379558	0.718278	0.916417
H109	H	0.908213	-0.428040	-0.133198
H110	H	1.408213	0.071960	0.366802
O111	O	1.140142	-0.463255	-0.000028
O112	O	1.640142	0.036745	0.499972
C113	C	1.152837	-0.513594	-0.076225
C114	C	1.652837	-0.013594	0.423775
H115	H	1.106396	-0.488552	-0.129245
H116	H	1.606396	0.011448	0.370755
H117	H	1.219233	-0.511391	-0.101374
H118	H	1.719233	-0.011391	0.398626
H119	H	1.143151	-0.581544	-0.059673
H120	H	1.643151	-0.081544	0.440327
H121	H	0.578781	-0.022762	0.000055
H122	H	1.078781	0.477238	0.500055
H123	H	0.837035	-0.313632	0.000107
H124	H	1.337035	0.186368	0.500107
O125	O	1.093605	0.002029	0.409315
O126	O	1.593605	0.502029	0.909315
C127	C	1.143514	-0.048355	0.469771
C128	C	1.643514	0.451645	0.969771
H129	H	1.109431	-0.049309	0.535489
H130	H	1.609431	0.450691	1.035489
H131	H	1.156191	-0.115434	0.443144
H132	H	1.656191	0.384566	0.943144
H133	H	1.205276	-0.021065	0.479568
H134	H	1.705276	0.478935	0.979568
O135	O	0.548113	0.267037	-0.000122
O136	O	1.048113	0.767037	0.499878
C137	C	0.597697	0.272505	-0.075964
C138	C	1.097697	0.772505	0.424036
H139	H	0.577190	0.228618	-0.128978
H140	H	1.077190	0.728618	0.371022
H141	H	0.589910	0.340205	-0.101426
H142	H	1.089910	0.840205	0.398574
H143	H	0.666084	0.253117	-0.058815
H144	H	1.166084	0.753117	0.441185
H145	H	0.908189	-0.428091	0.133301
H146	H	1.408189	0.071909	0.633301
H147	H	1.084698	0.011082	0.583667
H148	H	1.584698	0.511082	1.083667
H149	H	1.056013	-0.342516	-0.133188
H150	H	1.556013	0.157484	0.366812
O151	O	1.062464	-0.338686	0.145213
O152	O	1.562464	0.161314	0.645213
C153	C	1.063513	-0.250389	0.144345
C154	C	1.563513	0.249611	0.644345
H155	H	1.010146	-0.220174	0.101546
H156	H	1.510146	0.279826	0.601546
H157	H	1.055648	-0.224937	0.214359
H158	H	1.555648	0.275063	0.714359
H159	H	1.125593	-0.234655	0.116432
H160	H	1.625593	0.265345	0.616432
