data_functionalizedCrystal
_audit_creation_method	'MofGen! by Chris Wilmer'
_symmetry_space_group_name_H-M	'P1'
_symmetry_Int_Tables_number	1
_symmetry_cell_setting	triclinic
loop_
_symmetry_equiv_pos_as_xyz
  x,y,z
_cell_length_a	23.532355
_cell_length_b	22.010155
_cell_length_c	14.519709
_cell_angle_alpha	89.996686
_cell_angle_beta	83.253822
_cell_angle_gamma	90.002586
loop_
_atom_site_label
_atom_site_type_symbol
_atom_site_fract_x
_atom_site_fract_y
_atom_site_fract_z
O1	O	0.755787	0.050444	0.111708
O2	O	1.255787	0.550444	0.611708
O3	O	0.589993	0.050463	0.127957
O4	O	1.089993	0.550463	0.627957
O5	O	0.677286	0.050448	-0.014459
O6	O	1.177286	0.550448	0.485541
O7	O	0.668494	0.050460	0.254124
O8	O	1.168494	0.550460	0.754124
O9	O	0.677270	-0.050603	-0.014438
O10	O	1.177270	0.449397	0.485562
O11	O	0.589977	-0.050587	0.127978
O12	O	1.089977	0.449413	0.627978
O13	O	0.755771	-0.050607	0.111730
O14	O	1.255771	0.449393	0.611730
Cu15	Cu	0.672872	-0.059823	0.119856
Cu16	Cu	1.172872	0.440177	0.619856
Cu17	Cu	0.672891	0.059680	0.119831
Cu18	Cu	1.172891	0.559680	0.619831
O19	O	0.668478	-0.050591	0.254146
O20	O	1.168478	0.449409	0.754146
C21	C	0.568766	-0.000059	0.127561
C22	C	1.068766	0.499941	0.627561
C23	C	0.505542	-0.000052	0.126340
C24	C	1.005542	0.499948	0.626340
C25	C	0.113485	-0.055160	0.118679
C26	C	0.613485	0.444840	0.618679
C27	C	0.054080	-0.055163	0.117518
C28	C	0.554080	0.444837	0.617518
O29	O	0.023352	-0.102008	0.116895
O30	O	0.523352	0.397992	0.616895
N31	N	0.024378	-0.000081	0.116930
N32	N	0.524378	0.499919	0.616930
C33	C	0.054084	0.055008	0.117495
C34	C	0.554084	0.555008	0.617495
O35	O	0.023365	0.101859	0.116887
O36	O	0.523365	0.601859	0.616887
C37	C	0.113488	0.055010	0.118650
C38	C	0.613488	0.555010	0.618650
C39	C	0.143187	-0.000076	0.119247
C40	C	0.643187	0.499924	0.619247
C41	C	0.143184	-0.110242	0.119275
C42	C	0.643184	0.389758	0.619275
C43	C	0.202584	-0.110239	0.120439
C44	C	0.702584	0.389761	0.620439
C45	C	0.232286	-0.055155	0.121006
C46	C	0.732286	0.444845	0.621006
C47	C	0.202587	-0.000074	0.120410
C48	C	0.702587	0.499926	0.620410
C49	C	0.143194	0.110097	0.119208
C50	C	0.643194	0.610097	0.619208
C51	C	0.202602	0.110094	0.120362
C52	C	0.702602	0.610094	0.620362
C53	C	0.232300	0.055008	0.120959
C54	C	0.732300	0.555008	0.620959
C55	C	0.291689	0.055013	0.122141
C56	C	0.791689	0.555013	0.622141
N57	N	0.321392	-0.000069	0.122729
N58	N	0.821392	0.499931	0.622729
C59	C	0.291690	-0.055153	0.122161
C60	C	0.791690	0.444847	0.622161
C61	C	-0.070668	0.055000	0.115067
C62	C	0.429332	0.555000	0.615067
C63	C	-0.130072	0.054999	0.113919
C64	C	0.369928	0.554999	0.613919
C65	C	-0.130071	-0.055172	0.113940
C66	C	0.369929	0.444828	0.613940
C67	C	-0.070667	-0.055170	0.115095
C68	C	0.429333	0.444830	0.615095
C69	C	-0.040966	-0.000082	0.115655
C70	C	0.459034	0.499918	0.615655
C71	C	0.416435	-0.055144	0.124605
C72	C	0.916435	0.444856	0.624605
C73	C	0.475840	-0.055136	0.125773
C74	C	0.975840	0.444864	0.625773
C75	C	0.475835	0.055034	0.125746
C76	C	0.975835	0.555034	0.625746
C77	C	0.416435	0.055027	0.124584
C78	C	0.916435	0.555027	0.624584
C79	C	0.386736	-0.000067	0.124010
C80	C	0.886736	0.499933	0.624010
O81	O	0.322456	0.101834	0.122760
O82	O	0.822456	0.601834	0.622760
O83	O	0.322417	-0.101997	0.122757
O84	O	0.822417	0.398003	0.622757
N85	N	0.672863	-0.143876	0.119873
N86	N	1.172863	0.356124	0.619873
C87	C	0.711547	-0.563662	0.056778
C88	C	1.211547	-0.063662	0.556778
C89	C	0.711549	-0.627270	0.056771
C90	C	1.211549	-0.127270	0.556771
O91	O	0.744417	-0.660167	0.003138
O92	O	1.244417	-0.160167	0.503138
N93	N	0.672891	-0.659083	0.119811
N94	N	1.172891	-0.159083	0.619811
C95	C	0.634223	-0.627285	0.182855
C96	C	1.134223	-0.127285	0.682855
O97	O	0.601341	-0.660186	0.236475
O98	O	1.101341	-0.160186	0.736475
C99	C	0.634218	-0.563679	0.182857
C100	C	1.134218	-0.063679	0.682857
C101	C	0.672883	-0.531869	0.119819
C102	C	1.172883	-0.031869	0.619819
C103	C	0.750208	-0.531852	-0.006256
C104	C	1.250208	-0.031852	0.493744
C105	C	0.750206	-0.468249	-0.006248
C106	C	1.250206	0.031751	0.493752
C107	C	0.711543	-0.436456	0.056793
C108	C	1.211543	0.063544	0.556793
C109	C	0.672881	-0.468266	0.119827
C110	C	1.172881	0.031734	0.619827
C111	C	0.595548	-0.531882	0.245896
C112	C	1.095548	-0.031882	0.745896
C113	C	0.595547	-0.468271	0.245891
C114	C	1.095547	0.031729	0.745891
C115	C	0.634212	-0.436462	0.182853
C116	C	1.134212	0.063538	0.682853
C117	C	0.634216	-0.372869	0.182875
C118	C	1.134216	0.127131	0.682875
N119	N	0.672874	-0.341056	0.119836
N120	N	1.172874	0.158944	0.619836
C121	C	0.711538	-0.372849	0.056794
C122	C	1.211538	0.127151	0.556794
C123	C	0.634236	-0.760863	0.182847
C124	C	1.134236	-0.260863	0.682847
C125	C	0.634243	-0.824468	0.182851
C126	C	1.134243	-0.324468	0.682851
C127	C	0.711569	-0.824449	0.056765
C128	C	1.211569	-0.324449	0.556765
C129	C	0.711564	-0.760842	0.056767
C130	C	1.211564	-0.260842	0.556767
C131	C	0.672894	-0.729050	0.119807
C132	C	1.172894	-0.229050	0.619807
C133	C	0.711531	-0.239278	0.056816
C134	C	1.211531	0.260722	0.556816
C135	C	0.711527	-0.175669	0.056832
C136	C	1.211527	0.324331	0.556832
C137	C	0.634200	-0.175695	0.182914
C138	C	1.134200	0.324305	0.682914
C139	C	0.634205	-0.239298	0.182901
C140	C	1.134205	0.260702	0.682901
C141	C	0.672873	-0.271088	0.119845
C142	C	1.172873	0.228912	0.619845
O143	O	0.601364	-0.339932	0.236479
O144	O	1.101364	0.160068	0.736479
O145	O	0.744410	-0.339941	0.003176
O146	O	1.244410	0.160059	0.503176
C147	C	0.776997	-0.000082	0.112125
C148	C	1.276997	0.499918	0.612125
C149	C	0.840222	-0.000086	0.113346
C150	C	1.340222	0.499914	0.613346
C151	C	0.676868	-0.000078	-0.048803
C152	C	1.176868	0.499922	0.451197
C153	C	0.675640	-0.000078	-0.151170
C154	C	1.175640	0.499922	0.348830
N155	N	0.672905	0.143733	0.119806
N156	N	1.172905	0.643733	0.619806
C157	C	0.671120	-0.000062	-0.526011
C158	C	1.171120	0.499938	-0.026011
C159	C	0.672375	-0.000066	-0.421718
C160	C	1.172375	0.499934	0.078282
C161	C	0.673380	-0.000070	-0.338593
C162	C	1.173380	0.499930	0.161407
C163	C	0.674635	-0.000074	-0.234294
C164	C	1.174635	0.499926	0.265706
C165	C	0.668896	-0.000064	0.288490
C166	C	1.168896	0.499936	0.788490
C167	C	0.670124	-0.000060	0.390856
C168	C	1.170124	0.499940	0.890856
H169	H	0.392261	-0.100006	0.124147
H170	H	0.892261	0.399994	0.624147
N171	N	0.594743	-0.856957	0.247236
N172	N	1.094743	-0.356957	0.747236
N173	N	0.559363	-0.892446	0.218274
N174	N	1.059363	-0.392446	0.718274
H175	H	0.531461	-0.915389	0.263745
H176	H	1.031461	-0.415389	0.763745
N177	N	-0.160407	-0.111448	0.113363
N178	N	0.339593	0.388552	0.613363
N179	N	-0.158963	-0.148330	0.178513
N180	N	0.341037	0.351670	0.678513
H181	H	-0.180387	-0.188073	0.178107
H182	H	0.319613	0.311927	0.678107
N183	N	0.232908	-0.166514	0.121034
N184	N	0.732908	0.333486	0.621034
N185	N	0.206373	-0.215688	0.120516
N186	N	0.706373	0.284312	0.620516
H187	H	0.227786	-0.255436	0.120929
H188	H	0.727786	0.244564	0.620929
H189	H	0.781693	-0.557733	-0.057595
H190	H	1.281693	-0.057733	0.442405
H191	H	-0.046491	-0.100026	0.115582
H192	H	0.453509	0.399974	0.615582
H193	H	0.743048	-0.734946	0.005435
H194	H	1.243048	-0.234946	0.505435
H195	H	0.602726	-0.265198	0.234241
H196	H	1.102726	0.234802	0.734241
H197	H	0.743015	-0.149772	0.005499
H198	H	1.243015	0.350228	0.505499
N199	N	0.506186	-0.111402	0.126369
N200	N	1.006186	0.388598	0.626369
N201	N	0.559224	-0.111398	0.127404
N202	N	1.059224	0.388602	0.627404
H203	H	0.580655	-0.151134	0.127823
H204	H	1.080655	0.348866	0.627823
N205	N	0.112860	-0.166519	0.118690
N206	N	0.612860	0.333481	0.618690
N207	N	0.139395	-0.215690	0.119219
N208	N	0.639395	0.284310	0.619219
H209	H	0.117982	-0.255440	0.118811
H210	H	0.617982	0.244560	0.618811
N211	N	0.751048	-0.856941	-0.007644
N212	N	1.251048	-0.356941	0.492356
N213	N	0.751033	-0.913732	-0.007645
N214	N	1.251033	-0.413732	0.492355
H215	H	0.778909	-0.936682	-0.053138
H216	H	1.278909	-0.436682	0.446862
H217	H	0.602748	-0.734981	0.234190
H218	H	1.102748	-0.234981	0.734190
H219	H	0.564064	-0.557773	0.297226
H220	H	1.064064	-0.057773	0.797226
N221	N	0.594714	-0.143202	0.247304
N222	N	1.094714	0.356798	0.747304
N223	N	0.594721	-0.086411	0.247290
N224	N	1.094721	0.413589	0.747290
H225	H	0.566832	-0.063461	0.292762
H226	H	1.066832	0.436539	0.792762
N227	N	-0.040332	0.111274	0.115666
N228	N	0.459668	0.611274	0.615666
N229	N	-0.012373	0.123573	0.181325
N230	N	0.487627	0.623573	0.681325
H231	H	0.009051	0.163316	0.181747
H232	H	0.509051	0.663316	0.681747
H233	H	-0.154249	0.099855	0.113447
H234	H	0.345751	0.599855	0.613447
H235	H	0.119023	0.154954	0.118721
H236	H	0.619023	0.654954	0.618721
H237	H	0.564056	-0.442389	0.297225
H238	H	1.064056	0.057611	0.797225
N239	N	0.232932	0.166373	0.120926
N240	N	0.732932	0.666373	0.620926
N241	N	0.206403	0.215547	0.120390
N242	N	0.706403	0.715547	0.620390
H243	H	0.227822	0.255294	0.120789
H244	H	0.727822	0.755294	0.620789
H245	H	0.392251	0.099883	0.124113
H246	H	0.892251	0.599883	0.624113
N247	N	0.506189	0.111293	0.126340
N248	N	1.006189	0.611293	0.626340
N249	N	0.559227	0.111281	0.127380
N250	N	1.059227	0.611281	0.627380
H251	H	0.580666	0.151014	0.127797
H252	H	1.080666	0.651014	0.627797
H253	H	0.743017	-0.265155	0.005469
H254	H	1.243017	0.234845	0.505469
N255	N	0.789747	-0.435771	-0.070581
N256	N	1.289747	0.064229	0.429419
N257	N	0.824288	-0.464176	-0.126814
N258	N	1.324288	0.035824	0.373186
H259	H	0.852231	-0.441242	-0.172230
H260	H	1.352231	0.058758	0.327770
