data_functionalizedCrystal
_audit_creation_method	'MofGen! by Chris Wilmer'
_symmetry_space_group_name_H-M	'P1'
_symmetry_Int_Tables_number	1
_symmetry_cell_setting	triclinic
loop_
_symmetry_equiv_pos_as_xyz
  x,y,z
_cell_length_a	17.077404
_cell_length_b	12.827892
_cell_length_c	17.077396
_cell_angle_alpha	90.025067
_cell_angle_beta	90.018362
_cell_angle_gamma	90.013172
loop_
_atom_site_label
_atom_site_type_symbol
_atom_site_fract_x
_atom_site_fract_y
_atom_site_fract_z
Zn1	Zn	1.200097	-0.416090	0.443837
Zn2	Zn	1.200021	-0.590852	0.312579
Zn3	Zn	1.068828	-0.416119	0.312588
Zn4	Zn	1.068814	-0.590783	0.443805
O5	O	1.134440	-0.503461	0.378203
O6	O	1.309933	-0.439289	0.426436
O7	O	1.182593	-0.567715	0.202733
O8	O	1.086279	-0.269879	0.330016
O9	O	1.309878	-0.567686	0.330001
O10	O	1.182721	-0.269858	0.426444
O11	O	1.086206	-0.439339	0.202740
O12	O	0.958980	-0.439273	0.329985
O13	O	1.086254	-0.567568	0.553657
O14	O	0.958969	-0.567597	0.426389
O15	O	1.182707	-0.439222	0.553680
O16	O	1.182579	-0.737079	0.329970
O17	O	1.086181	-0.737028	0.426381
C18	C	0.930492	-0.503431	0.378185
C19	C	0.843242	-0.503444	0.378196
C20	C	0.802282	-0.436706	0.428486
C21	C	0.720301	-0.436713	0.428490
C22	C	0.679283	-0.503463	0.378207
C23	C	0.720249	-0.570204	0.327911
C24	C	0.802228	-0.570191	0.327904
C25	C	0.549379	-0.570228	0.327930
C26	C	0.467395	-0.570242	0.327938
C27	C	0.467452	-0.436750	0.428516
C28	C	0.549431	-0.436737	0.428509
C29	C	0.590392	-0.503479	0.378214
C30	C	1.134392	-0.774971	0.378188
C31	C	1.134443	-0.891124	0.378208
C32	C	1.086731	-0.942918	0.425880
C33	C	1.086783	-1.062969	0.425902
C34	C	1.339184	-0.503492	0.378221
C35	C	1.426434	-0.503505	0.378228
C36	C	1.134487	-0.503384	0.582947
C37	C	1.134508	-0.503351	0.670197
C38	C	1.134510	-0.230891	0.378234
C39	C	1.134540	-0.114738	0.378248
C40	C	1.134438	-0.503462	0.174255
C41	C	1.134570	-0.503201	0.087005
C42	C	1.184732	-0.436516	0.711200
C43	C	1.184742	-0.436481	0.793181
C44	C	1.134530	-0.503288	0.834156
C45	C	1.084300	-0.570126	0.793147
C46	C	1.084287	-0.570155	0.711168
C47	C	1.084331	-0.570063	0.964017
C48	C	1.084345	-0.570036	1.046002
C49	C	1.184786	-0.436389	1.046030
C50	C	1.184774	-0.436418	0.964051
C51	C	1.134544	-0.503258	0.923047
H52	H	1.045841	-0.898387	0.466676
C53	C	1.239344	-0.364152	0.666674
C54	C	1.289650	-0.423340	0.619623
C55	C	1.339973	-0.356710	0.578604
H56	H	1.209411	-0.318607	0.634632
H57	H	1.269302	-0.324357	0.702812
H58	H	1.259695	-0.463117	0.583489
H59	H	1.319600	-0.468882	0.651646
H60	H	1.369931	-0.316915	0.614743
H61	H	1.310033	-0.311169	0.546566
H62	H	1.374116	-0.396860	0.546681
H63	H	1.043381	-0.624569	0.677784
H64	H	1.045938	-1.107510	0.466719
H65	H	0.582727	-0.624574	0.286973
H66	H	1.225642	-0.382059	0.826563
C67	C	0.675675	-0.642807	0.273448
C68	C	0.628641	-0.709888	0.317814
C69	C	0.587578	-0.776796	0.267671
H70	H	0.643619	-0.602901	0.239285
H71	H	0.711788	-0.682612	0.243507
H72	H	0.592533	-0.670086	0.347741
H73	H	0.660678	-0.749816	0.351975
H74	H	0.623691	-0.816602	0.237731
H75	H	0.555526	-0.736882	0.233511
H76	H	0.555666	-0.822325	0.297767
H77	H	0.686955	-0.382371	0.469443
H78	H	1.043456	-0.624434	1.079362
H79	H	0.582826	-0.382389	0.469459
H80	H	1.175326	-0.935658	0.337408
H81	H	0.434098	-0.382404	0.469467
C82	C	1.239320	-0.363773	0.919703
C83	C	1.283296	-0.305210	0.973156
C84	C	1.333543	-0.238266	0.932332
H85	H	1.273574	-0.403650	0.887720
H86	H	1.209314	-0.318193	0.887741
H87	H	1.313300	-0.350784	1.005105
H88	H	1.249063	-0.265311	1.005141
H89	H	1.303537	-0.192686	0.900370
H90	H	1.367792	-0.278152	0.900350
H91	H	1.363382	-0.198517	0.968593
C92	C	1.029783	-0.642768	0.919638
C93	C	0.985835	-0.701301	0.973067
C94	C	0.935596	-0.768307	0.932214
H95	H	0.995510	-0.602938	0.887646
H96	H	1.059793	-0.688364	0.887683
H97	H	0.955827	-0.655710	1.005009
H98	H	1.020086	-0.741153	1.005061
H99	H	0.965606	-0.813904	0.900259
H100	H	0.901329	-0.728468	0.900223
H101	H	0.905776	-0.808036	0.968459
H102	H	1.043413	-0.624518	0.826516
C103	C	1.188880	-1.055308	0.323723
C104	C	1.144391	-0.992758	0.273389
C105	C	1.194421	-0.937999	0.223144
H106	H	1.223034	-1.012580	0.353711
H107	H	1.218834	-1.103327	0.293782
H108	H	1.114450	-0.944744	0.303328
H109	H	1.110240	-1.035460	0.243384
H110	H	1.224376	-0.986018	0.193202
H111	H	1.228573	-0.895277	0.253138
H112	H	1.164243	-0.895560	0.188982
H113	H	0.835577	-0.624535	0.286952
H114	H	1.225684	-0.381964	1.079419
H115	H	0.835673	-0.382353	0.469435
H116	H	0.434000	-0.624597	0.286994
