data_functionalizedCrystal
_audit_creation_method	'MofGen! by Chris Wilmer'
_symmetry_space_group_name_H-M	'P1'
_symmetry_Int_Tables_number	1
_symmetry_cell_setting	triclinic
loop_
_symmetry_equiv_pos_as_xyz
  x,y,z
_cell_length_a	21.295420
_cell_length_b	21.295412
_cell_length_c	21.295418
_cell_angle_alpha	90.028980
_cell_angle_beta	89.974349
_cell_angle_gamma	89.976352
loop_
_atom_site_label
_atom_site_type_symbol
_atom_site_fract_x
_atom_site_fract_y
_atom_site_fract_z
Zn1	Zn	0.962362	-0.355921	0.250654
Zn2	Zn	0.962272	-0.250650	0.355923
Zn3	Zn	0.857088	-0.250666	0.250668
Zn4	Zn	0.857061	-0.355881	0.355886
O5	O	0.909696	-0.303279	0.303283
O6	O	1.050440	-0.341966	0.264628
O7	O	0.948293	-0.162562	0.341981
O8	O	0.871101	-0.264652	0.162577
O9	O	1.050374	-0.264624	0.341968
O10	O	0.948446	-0.341982	0.162567
O11	O	0.871014	-0.162574	0.264651
O12	O	0.768995	-0.264613	0.264616
O13	O	0.871056	-0.443976	0.341906
O14	O	0.768975	-0.341914	0.341919
O15	O	0.948420	-0.444005	0.264592
O16	O	0.948267	-0.264585	0.444007
O17	O	0.870968	-0.341898	0.443981
C18	C	0.746144	-0.303261	0.303266
C19	C	0.676176	-0.303268	0.303274
C20	C	0.176724	-0.343491	0.343609
C21	C	0.242467	-0.343484	0.343609
C22	C	0.275337	-0.303299	0.303297
C23	C	0.242459	-0.263106	0.262993
C24	C	0.176717	-0.263109	0.262999
N25	N	0.378574	-0.298565	0.248180
N26	N	0.441026	-0.298565	0.248177
C27	C	0.473411	-0.303286	0.303279
N28	N	0.440986	-0.308018	0.358386
N29	N	0.378529	-0.308021	0.358389
C30	C	0.346622	-0.303291	0.303287
C31	C	0.577567	-0.343466	0.343584
C32	C	0.643311	-0.343455	0.343585
C33	C	0.643301	-0.263080	0.262964
C34	C	0.577559	-0.263088	0.262968
C35	C	0.544696	-0.303284	0.303277
C36	C	0.909745	-0.467470	0.303244
C37	C	0.909766	-0.537438	0.303227
C38	C	0.869538	-0.570301	0.262957
C39	C	0.869535	-0.636043	0.262945
C40	C	0.909773	-0.668920	0.303197
C41	C	0.950004	-0.636049	0.343475
C42	C	0.950001	-0.570308	0.343490
N43	N	0.964878	-0.772159	0.308006
N44	N	0.964879	-0.834610	0.307988
C45	C	0.909784	-0.866995	0.303155
N46	N	0.854687	-0.834569	0.298328
N47	N	0.854687	-0.772112	0.298343
C48	C	0.909781	-0.740206	0.303185
C49	C	0.869550	-0.971144	0.262870
C50	C	0.869547	-1.036888	0.262863
C51	C	0.950021	-1.036892	0.343389
C52	C	0.950019	-0.971150	0.343400
C53	C	0.909784	-0.938280	0.303137
C54	C	1.073886	-0.303298	0.303300
C55	C	1.143854	-0.303306	0.303308
C56	C	0.909622	-0.303249	0.466834
C57	C	0.909648	-0.303258	0.536803
C58	C	0.909683	-0.139728	0.303276
C59	C	0.909784	-0.069760	0.303116
C60	C	0.909787	-0.303323	0.139093
C61	C	0.909826	-0.303342	0.069124
C62	C	0.950096	-0.263124	1.036253
C63	C	0.950072	-0.263109	0.970511
C64	C	0.909784	-0.303323	0.937642
C65	C	0.869506	-0.343544	0.970521
C66	C	0.869527	-0.343554	1.036262
N67	N	0.904894	-0.358406	0.834390
N68	N	0.904879	-0.358396	0.771939
C69	C	0.909719	-0.303297	0.739567
N70	N	0.914588	-0.248208	0.772006
N71	N	0.914607	-0.248219	0.834464
C72	C	0.909757	-0.303318	0.866357
C73	C	0.949966	-0.263059	0.635411
C74	C	0.949937	-0.263043	0.569667
C75	C	0.869374	-0.343484	0.569678
C76	C	0.869399	-0.343495	0.635421
C77	C	0.909698	-0.303283	0.668283
H78	H	0.550809	-0.376195	0.376407
H79	H	0.982728	-0.230290	0.542903
H80	H	0.982866	-0.230357	0.943742
N81	N	0.828447	-0.937553	0.221759
N82	N	0.828450	-0.878856	0.221777
H83	H	0.799420	-0.855133	0.192744
N84	N	0.991120	-0.669620	0.384585
N85	N	1.027043	-0.640266	0.420534
H86	H	1.056084	-0.663974	0.449569
N87	N	0.991268	-0.222051	1.069810
N88	N	1.027224	-0.186146	1.040448
H89	H	1.056303	-0.157138	1.064148
H90	H	0.836702	-0.376286	0.943756
H91	H	0.982762	-0.543551	0.376282
H92	H	0.269235	-0.376210	0.376427
H93	H	0.982779	-0.230316	0.662169
N94	N	0.828214	-0.384562	0.536119
N95	N	0.770132	-0.380333	0.543509
H96	H	0.741059	-0.409344	0.519806
H97	H	0.550796	-0.230367	0.230149
N98	N	0.828383	-0.384639	1.069833
N99	N	0.792409	-0.420539	1.040482
H100	H	0.763351	-0.449557	1.064191
N101	N	0.143170	-0.384544	0.384798
N102	N	0.150497	-0.380264	0.442876
H103	H	0.126800	-0.409257	0.471969
H104	H	0.836608	-0.376246	0.662185
N105	N	0.828442	-1.070449	0.221727
N106	N	0.792523	-1.041089	0.185785
H107	H	0.763491	-1.064792	0.156732
H108	H	0.836778	-0.662806	0.230149
N109	N	0.276041	-0.222058	0.221823
N110	N	0.334738	-0.222060	0.221823
H111	H	0.358456	-0.193066	0.192748
N112	N	0.676880	-0.384504	0.384763
N113	N	0.647527	-0.420387	0.420749
H114	H	0.671234	-0.449379	0.449833
N115	N	0.143128	-0.222072	0.221825
N116	N	0.084431	-0.222086	0.221831
H117	H	0.060706	-0.193105	0.192750
H118	H	0.670063	-0.230358	0.230143
H119	H	0.836773	-0.543542	0.230174
N120	N	0.991117	-0.937587	0.384539
N121	N	1.027038	-0.966946	0.420479
H122	H	1.056064	-0.943243	0.449537
H123	H	0.982785	-1.063660	0.376162
