data_functionalizedCrystal
_audit_creation_method	'MofGen! by Chris Wilmer'
_symmetry_space_group_name_H-M	'P1'
_symmetry_Int_Tables_number	1
_symmetry_cell_setting	triclinic
loop_
_symmetry_equiv_pos_as_xyz
  x,y,z
_cell_length_a	9.130313
_cell_length_b	10.654558
_cell_length_c	10.654550
_cell_angle_alpha	84.486610
_cell_angle_beta	89.997501
_cell_angle_gamma	89.998263
loop_
_atom_site_label
_atom_site_type_symbol
_atom_site_fract_x
_atom_site_fract_y
_atom_site_fract_z
O1	O	-0.121775	1.667831	0.176447
O2	O	-0.121782	1.302354	0.193242
O3	O	-0.121773	1.493496	0.002106
O4	O	-0.121784	1.476690	0.367584
O5	O	0.121826	1.493487	0.002103
O6	O	0.121817	1.302345	0.193239
O7	O	0.121824	1.667822	0.176444
Cu8	Cu	0.144063	1.485083	0.184841
Cu9	Cu	-0.144021	1.485094	0.184845
O10	O	0.121815	1.476681	0.367581
C11	C	0.000017	1.255552	0.192005
C12	C	0.000014	1.116109	0.188309
N13	N	0.346686	1.485084	0.184838
C14	C	-0.132772	0.919576	0.183115
C15	C	-0.132773	1.050598	0.186577
C16	C	0.132811	1.050592	0.186567
C17	C	0.132811	0.919573	0.183096
C18	C	-0.265568	0.854070	0.181396
C19	C	-0.398366	0.919578	0.183136
C20	C	-0.398368	1.050601	0.186597
C21	C	-0.265571	1.116115	0.188319
C22	C	0.423362	1.408265	0.107953
C23	C	0.576699	1.408267	0.107960
C24	C	0.576669	1.561917	0.261741
C25	C	0.423335	1.561908	0.261739
C26	C	0.346712	1.331441	0.031052
C27	C	0.423389	1.254617	-0.045840
C28	C	0.576726	1.254618	-0.045833
C29	C	0.653386	1.331444	0.031067
N30	N	0.653356	1.485095	0.184847
C31	C	0.000022	1.714625	0.177681
C32	C	0.000015	1.854067	0.181377
C33	C	0.000025	1.492257	-0.044694
C34	C	0.000020	1.488565	-0.184137
C35	C	0.000026	1.601106	-0.263620
C36	C	0.000016	1.597630	-0.394641
C37	C	-0.000001	1.369061	-0.366684
C38	C	-0.000002	1.372539	-0.235666
C39	C	0.000047	1.717133	-0.212091
C40	C	0.000056	1.829683	-0.291575
C41	C	0.000045	1.826207	-0.422596
C42	C	0.000027	1.710180	-0.474133
C43	C	0.000014	1.477919	0.414380
C44	C	0.000010	1.481611	0.553823
H45	H	-0.265582	0.747384	0.178581
Cl46	Cl	0.000065	1.721511	-0.047381
H47	H	0.240928	1.103944	0.187972
H48	H	0.639152	1.192055	-0.108433
H49	H	-0.000005	1.280898	-0.170948
Cl50	Cl	0.000079	1.705813	-0.638848
Cl51	Cl	-0.565300	0.837224	0.180941
Cl52	Cl	0.299747	0.837216	0.180892
H53	H	-0.000014	1.274597	-0.408657
Cl54	Cl	0.153947	1.331440	0.031031
H55	H	0.360962	1.192060	-0.108441
H56	H	-0.506498	1.103936	0.188002
Cl57	Cl	-0.265578	1.280834	0.192652
H58	H	0.000037	1.917850	-0.487309
Cl59	Cl	0.846154	1.331435	0.031082
H60	H	0.639098	1.624466	0.324349
H61	H	0.000034	1.924148	-0.249604
Cl62	Cl	0.326935	1.658500	0.358379
