data_functionalizedCrystal
_audit_creation_method	'MofGen! by Chris Wilmer'
_symmetry_space_group_name_H-M	'P1'
_symmetry_Int_Tables_number	1
_symmetry_cell_setting	triclinic
loop_
_symmetry_equiv_pos_as_xyz
  x,y,z
_cell_length_a	23.532407
_cell_length_b	7.681187
_cell_length_c	8.559649
_cell_angle_alpha	85.068115
_cell_angle_beta	103.686329
_cell_angle_gamma	84.306283
loop_
_atom_site_label
_atom_site_type_symbol
_atom_site_fract_x
_atom_site_fract_y
_atom_site_fract_z
O1	O	0.741119	0.146212	-0.209304
O2	O	0.574081	0.146263	-0.237393
O3	O	0.672316	0.146231	0.009488
O4	O	0.642884	0.146244	-0.456185
O5	O	0.684413	-0.146643	0.039949
O6	O	0.586178	-0.146611	-0.206932
O7	O	0.753215	-0.146662	-0.178842
Zn8	Zn	0.671617	-0.193137	-0.188051
Zn9	Zn	0.655680	0.192738	-0.228185
O10	O	0.654980	-0.146631	-0.425723
C11	C	0.558943	-0.000168	-0.221448
C12	C	0.495815	-0.000148	-0.219300
N13	N	0.682499	-0.456486	-0.160659
C14	C	0.680595	-0.000203	0.084283
C15	C	0.687234	-0.000196	0.261768
C16	C	0.091182	-0.000224	-0.351903
C17	C	0.031866	-0.000235	-0.349904
O18	O	-0.010005	-0.000296	-0.472829
N19	N	0.015363	-0.000236	-0.203135
C20	C	0.058182	-0.000244	-0.058354
O21	O	0.038698	-0.000248	0.066668
C22	C	0.117498	-0.000246	-0.060353
C23	C	0.133996	-0.000227	-0.207133
C24	C	0.107682	-0.000207	-0.498671
C25	C	0.166994	-0.000193	-0.500669
C26	C	0.209807	-0.000196	-0.355899
C27	C	0.193308	-0.000213	-0.209131
C28	C	0.160315	-0.000267	0.084429
C29	C	0.219634	-0.000270	0.082417
C30	C	0.236132	-0.000251	-0.064363
C31	C	0.295433	-0.000202	-0.066359
N32	N	0.311936	-0.000201	-0.213128
C33	C	0.269123	-0.000198	-0.357898
C34	C	-0.066386	-0.000244	-0.054167
C35	C	-0.125701	-0.000229	-0.052167
C36	C	-0.152013	-0.000223	-0.343718
C37	C	-0.092697	-0.000225	-0.345717
C38	C	-0.049883	-0.000243	-0.200935
C39	C	0.393684	-0.000167	-0.362084
C40	C	0.453002	-0.000145	-0.364070
C41	C	0.479309	-0.000160	-0.072519
C42	C	0.419995	-0.000173	-0.070533
C43	C	0.377183	-0.000182	-0.215328
O44	O	0.337336	-0.000148	0.056502
O45	O	0.288616	-0.000218	-0.482897
C46	C	0.768353	-0.000228	-0.194788
C47	C	0.831481	-0.000236	-0.196937
N48	N	0.644803	0.456087	-0.255564
C49	C	0.646702	-0.000192	-0.500519
C50	C	0.640062	-0.000188	-0.678005
H51	H	0.466430	-0.000129	-0.483601
H52	H	0.594598	-0.000180	0.237775
H53	H	0.514177	-0.000156	0.045348
C54	C	-0.143842	-0.000238	0.109301
N55	N	-0.157502	-0.000260	0.230926
H56	H	-0.186882	-0.000229	-0.461597
H57	H	-0.031529	-0.000242	0.063738
C58	C	0.734472	0.441848	-0.029829
N59	N	0.773617	0.365272	0.068713
H60	H	0.358832	-0.000180	-0.479989
H61	H	0.732702	-0.000224	0.345999
H62	H	0.180420	-0.000177	-0.620193
C63	C	-0.074555	-0.000224	-0.507183
N64	N	-0.060893	-0.000230	-0.628805
C65	C	0.060595	-0.000211	-0.657944
N66	N	0.025131	-0.000203	-0.777920
H67	H	0.254492	-0.000285	0.200319
C68	C	0.142183	-0.000322	0.245905
N69	N	0.128529	-0.000379	0.367540
C70	C	0.592832	0.557745	-0.386386
N71	N	0.553686	0.634326	-0.484922
H72	H	0.406561	-0.000162	0.048985
