data_functionalizedCrystal
_audit_creation_method	'MofGen! by Chris Wilmer'
_symmetry_space_group_name_H-M	'P1'
_symmetry_Int_Tables_number	1
_symmetry_cell_setting	triclinic
loop_
_symmetry_equiv_pos_as_xyz
  x,y,z
_cell_length_a	10.723023
_cell_length_b	10.723023
_cell_length_c	8.140239
_cell_angle_alpha	89.997483
_cell_angle_beta	89.997738
_cell_angle_gamma	84.467548
loop_
_atom_site_label
_atom_site_type_symbol
_atom_site_fract_x
_atom_site_fract_y
_atom_site_fract_z
O1	O	1.657186	0.175021	-0.136593
O2	O	1.294033	0.191775	-0.136599
O3	O	1.483986	0.001822	-0.136589
O4	O	1.467232	0.364974	-0.136603
O5	O	1.483976	0.001819	0.136638
O6	O	1.294022	0.191773	0.136628
O7	O	1.657175	0.175018	0.136634
Zn8	Zn	1.475597	0.183395	0.180012
Zn9	Zn	1.475611	0.183398	-0.179977
O10	O	1.467222	0.364972	0.136624
C11	C	1.247528	0.190555	0.000013
C12	C	1.108974	0.186908	0.000011
C13	C	1.047196	0.185280	0.141549
C14	C	0.903993	0.181511	0.141550
C15	C	1.482762	-0.044679	0.000023
C16	C	1.479115	-0.183233	0.000017
C17	C	1.477494	-0.244998	-0.141525
C18	C	1.473725	-0.388201	-0.141534
C19	C	1.703680	0.176239	0.000018
C20	C	1.842234	0.179886	0.000010
C21	C	1.468446	0.411473	0.000009
C22	C	1.472093	0.550027	0.000003
N23	N	1.475597	0.183393	0.425694
N24	N	1.475621	0.183391	-0.425659
H25	H	1.100325	0.186671	0.262725
Cl26	Cl	0.821975	0.179360	0.328647
H27	H	0.895352	0.181293	-0.121173
Cl28	Cl	1.026961	0.184740	-0.187086
H29	H	1.478892	-0.191859	-0.262698
H30	H	1.472337	-0.441318	-0.262713
Cl31	Cl	1.476939	-0.265263	0.187109
H32	H	1.473493	-0.396866	0.121189
