data_functionalizedCrystal
_audit_creation_method	'MofGen! by Chris Wilmer'
_symmetry_space_group_name_H-M	'P1'
_symmetry_Int_Tables_number	1
_symmetry_cell_setting	triclinic
loop_
_symmetry_equiv_pos_as_xyz
  x,y,z
_cell_length_a	12.827893
_cell_length_b	18.050589
_cell_length_c	12.827893
_cell_angle_alpha	89.993168
_cell_angle_beta	90.003786
_cell_angle_gamma	89.965332
loop_
_atom_site_label
_atom_site_type_symbol
_atom_site_fract_x
_atom_site_fract_y
_atom_site_fract_z
Zn1	Zn	1.597370	0.295789	0.590851
Zn2	Zn	1.930703	0.629123	0.924185
Zn3	Zn	2.264036	0.962456	1.257518
Zn4	Zn	1.597252	0.419948	0.416113
Zn5	Zn	1.930585	0.753282	0.749446
Zn6	Zn	2.263919	1.086615	1.082780
Zn7	Zn	1.422658	0.295777	0.416125
Zn8	Zn	1.755992	0.629110	0.749458
Zn9	Zn	2.089325	0.962443	1.082792
Zn10	Zn	1.422537	0.419942	0.590813
Zn11	Zn	1.755871	0.753275	0.924146
Zn12	Zn	2.089204	1.086608	1.257480
O13	O	1.509954	0.357864	0.503476
O14	O	1.843288	0.691197	0.836809
O15	O	2.176621	1.024531	1.170142
O16	O	1.743590	0.312267	0.567683
O17	O	2.076923	0.645600	0.901016
O18	O	2.410257	0.978934	1.234350
O19	O	1.574093	0.403474	0.269879
O20	O	1.907427	0.736807	0.603212
O21	O	2.240760	1.070141	0.936545
O22	O	1.445934	0.191854	0.439324
O23	O	1.779267	0.525187	0.772657
O24	O	2.112600	0.858520	1.105991
O25	O	1.743504	0.403486	0.439304
O26	O	2.076837	0.736820	0.772637
O27	O	2.410170	1.070153	1.105970
O28	O	1.574294	0.191863	0.567695
O29	O	1.907627	0.525196	0.901028
O30	O	2.240960	0.858530	1.234361
O31	O	1.445820	0.312246	0.269887
O32	O	1.779153	0.645579	0.603221
O33	O	2.112487	0.978912	0.936554
O34	O	1.276406	0.312239	0.439287
O35	O	1.609740	0.645573	0.772620
O36	O	1.943073	0.978906	1.105953
O37	O	1.445728	0.403475	0.737054
O38	O	1.779061	0.736809	1.070387
O39	O	2.112395	1.070142	1.403721
O40	O	1.276317	0.403463	0.567629
O41	O	1.609651	0.736796	0.900962
O42	O	1.942984	1.070130	1.234296
O43	O	1.574176	0.312261	0.737082
O44	O	1.907510	0.645594	1.070416
O45	O	2.240843	0.978928	1.403749
O46	O	1.573976	0.523872	0.439266
O47	O	1.907309	0.857205	0.772600
O48	O	2.240643	1.190539	1.105933
O49	O	1.445614	0.523867	0.567617
O50	O	1.778947	0.857201	0.900951
O51	O	2.112281	1.190534	1.234284
C52	C	1.238444	0.357850	0.503456
C53	C	1.571778	0.691183	0.836789
C54	C	1.905111	1.024516	1.170122
C55	C	1.122291	0.357861	0.503472
C56	C	1.455625	0.691195	0.836805
C57	C	1.788958	1.024528	1.170139
C58	C	1.509797	0.550816	0.503459
C59	C	1.843131	0.884149	0.836793
C60	C	2.176464	1.217483	1.170126
C61	C	1.509826	0.633362	0.503487
C62	C	1.843159	0.966695	0.836820
C63	C	2.176493	1.300029	1.170154
C64	C	1.070490	0.403072	0.566882
C65	C	1.403824	0.736406	0.900215
C66	C	1.737157	1.069739	1.233549
C67	C	0.950440	0.403085	0.566900
C68	C	1.283773	0.736419	0.900234
C69	C	1.617107	1.069752	1.233567
C70	C	1.440060	0.832837	0.573261
C71	C	1.773393	1.166170	0.906594
C72	C	2.106726	1.499504	1.239928
C73	C	1.414601	0.882258	0.477904
C74	C	1.747934	1.215591	0.811238
C75	C	2.081267	1.548924	1.144571
C76	C	1.509905	0.784492	0.503501
C77	C	1.843238	1.117826	0.836835
C78	C	2.176571	1.451159	1.170168
C79	C	1.535391	0.882153	0.598870
C80	C	1.868725	1.215487	0.932203
C81	C	2.202058	1.548820	1.265536
C82	C	1.509979	0.930477	0.503524
C83	C	1.843312	1.263811	0.836857
C84	C	2.176645	1.597144	1.170190
C85	C	1.484396	0.832826	0.408094
C86	C	1.817729	1.166159	0.741428
C87	C	2.151063	1.499492	1.074761
C88	C	1.605231	0.832717	0.529124
C89	C	1.938564	1.166050	0.862457
C90	C	2.271897	1.499384	1.195791
C91	C	1.579808	0.882115	0.433702
C92	C	1.913142	1.215449	0.767035
C93	C	2.246475	1.548782	1.100368
C94	C	1.509859	0.700394	0.503490
C95	C	1.843193	1.033727	0.836823
C96	C	2.176526	1.367061	1.170157
C97	C	1.510024	1.014574	0.503524
C98	C	1.843357	1.347907	0.836858
C99	C	2.176691	1.681240	1.170191
C100	C	1.782524	0.357879	0.503496
C101	C	2.115858	0.691212	0.836830
C102	C	2.449191	1.024546	1.170163
C103	C	1.898678	0.357885	0.503505
C104	C	2.232011	0.691219	0.836838
C105	C	2.565344	1.024552	1.170172
C106	C	1.509952	0.357869	0.776046
C107	C	1.843285	0.691202	1.109379
C108	C	2.176618	1.024535	1.442712
C109	C	1.509951	0.357871	0.892199
C110	C	1.843284	0.691204	1.225532
C111	C	2.176617	1.024538	1.558865
C112	C	1.510100	1.164158	0.503516
C113	C	1.843434	1.497492	0.836849
C114	C	2.176767	1.830825	1.170183
C115	C	1.510060	1.081613	0.503537
C116	C	1.843394	1.414946	0.836870
C117	C	2.176727	1.748279	1.170203
C118	C	1.573504	0.312741	0.943997
C119	C	1.906837	0.646074	1.277331
C120	C	2.240171	0.979407	1.610664
C121	C	1.573504	0.312742	1.064048
C122	C	1.906838	0.646075	1.397381
C123	C	2.240171	0.979408	1.730714
C124	C	1.509949	0.357876	1.231966
C125	C	1.843282	0.691209	1.565299
C126	C	2.176616	1.024542	1.898632
C127	C	1.509950	0.357874	1.115813
C128	C	1.843284	0.691207	1.449146
C129	C	2.176617	1.024540	1.782479
H130	H	1.115018	0.441766	0.621160
H131	H	1.448352	0.775100	0.954493
H132	H	1.781685	1.108433	1.287826
Cl133	Cl	1.425943	0.417537	1.047050
Cl134	Cl	1.759277	0.750870	1.380384
Cl135	Cl	2.092610	1.084203	1.713717
Cl136	Cl	1.729611	0.799094	0.562623
Cl137	Cl	2.062944	1.132427	0.895957
Cl138	Cl	2.396277	1.465761	1.229290
Cl139	Cl	0.881668	0.462853	0.650715
Cl140	Cl	1.215001	0.796186	0.984048
Cl141	Cl	1.548334	1.129520	1.317382
H142	H	0.943218	0.319179	0.449211
H143	H	1.276552	0.652512	0.782544
H144	H	1.609885	0.985846	1.115878
H145	H	1.627918	0.274107	1.108593
H146	H	1.961251	0.607440	1.441927
H147	H	2.294585	0.940773	1.775260
H148	H	1.077763	0.319162	0.449202
H149	H	1.411097	0.652495	0.782536
H150	H	1.744430	0.985828	1.115869
H151	H	1.638906	0.903617	0.374650
H152	H	1.972239	1.236950	0.707983
H153	H	2.305572	1.570284	1.041316
H154	H	1.380917	0.811198	0.632171
H155	H	1.714250	1.144531	0.965504
H156	H	2.047584	1.477865	1.298837
H157	H	1.334022	0.904035	0.456253
H158	H	1.667355	1.237368	0.789586
H159	H	2.000689	1.570701	1.122919
H160	H	1.462775	0.811248	0.327429
H161	H	1.796108	1.144582	0.660763
H162	H	2.129442	1.477915	0.994096
H163	H	1.556919	0.903820	0.679513
H164	H	1.890252	1.237154	1.012846
H165	H	2.223586	1.570487	1.346179
Cl166	Cl	1.425935	0.417525	0.960941
Cl167	Cl	1.759269	0.750858	1.294274
Cl168	Cl	2.092602	1.084191	1.627607
H169	H	1.627910	0.274100	0.899467
H170	H	1.961243	0.607433	1.232801
H171	H	2.294577	0.940766	1.566134
