data_functionalizedCrystal
_audit_creation_method	'MofGen! by Chris Wilmer'
_symmetry_space_group_name_H-M	'P1'
_symmetry_Int_Tables_number	1
_symmetry_cell_setting	triclinic
loop_
_symmetry_equiv_pos_as_xyz
  x,y,z
_cell_length_a	6.817900
_cell_length_b	13.923258
_cell_length_c	14.858329
_cell_angle_alpha	83.242316
_cell_angle_beta	104.519616
_cell_angle_gamma	81.871755
loop_
_atom_site_label
_atom_site_type_symbol
_atom_site_fract_x
_atom_site_fract_y
_atom_site_fract_z
V1	V	-3.973189	0.303094	-0.130635
V2	V	-3.473189	0.803094	0.369365
O3	O	-3.956437	0.297039	0.004258
O4	O	-3.456437	0.797039	0.504258
O5	O	-3.930156	0.301295	-0.257085
O6	O	-3.430156	0.801295	0.242915
O7	O	-3.899104	0.435159	-0.129512
O8	O	-3.399104	0.935159	0.370488
O9	O	-3.987703	0.162249	-0.124198
O10	O	-3.487703	0.662249	0.375802
V11	V	-4.459450	0.286215	-0.114395
V12	V	-3.959450	0.786215	0.385605
O13	O	-4.228442	0.340120	-0.166257
O14	O	-3.728442	0.840120	0.333743
O15	O	-4.654394	0.249188	-0.078773
O16	O	-4.154394	0.749188	0.421227
O17	O	-4.279276	0.288014	0.012054
O18	O	-3.779276	0.788014	0.512054
O19	O	-4.593599	0.292269	-0.249288
O20	O	-4.093599	0.792269	0.250712
O21	O	-4.562333	0.427060	-0.120832
O22	O	-4.062333	0.927060	0.379168
O23	O	-4.310328	0.154150	-0.115519
O24	O	-3.810328	0.654150	0.384481
C25	C	-3.777293	0.296584	-0.287883
C26	C	-3.277293	0.796584	0.212117
C27	C	-3.823224	0.295994	-0.391263
C28	C	-3.323224	0.795994	0.108737
C29	C	-3.860520	0.295505	-0.475217
C30	C	-3.360520	0.795505	0.024783
C31	C	-3.907329	0.294897	-0.580543
C32	C	-3.407329	0.794897	-0.080543
C33	C	-3.944653	0.294413	-0.664492
C34	C	-3.444653	0.794413	-0.164492
C35	C	-3.991465	0.293803	-0.769824
C36	C	-3.491465	0.793803	-0.269824
C37	C	-4.135092	0.121964	-0.119884
C38	C	-3.635092	0.621964	0.380116
C39	C	-4.093584	0.013997	-0.119961
C40	C	-3.593584	0.513997	0.380039
C41	C	-4.017638	-0.183650	-0.120259
C42	C	-3.517638	0.316350	0.379741
C43	C	-3.834381	-0.227054	-0.124770
C44	C	-3.334381	0.272946	0.375230
C45	C	-3.792121	-0.337032	-0.124935
C46	C	-3.292121	0.162968	0.375065
C47	C	-4.059907	-0.073663	-0.120093
C48	C	-3.559907	0.426337	0.379907
C49	C	-3.737683	0.467340	-0.125149
C50	C	-3.237683	0.967340	0.374851
C51	C	-3.758430	0.575305	-0.125068
C52	C	-3.258430	1.075305	0.374932
C53	C	-4.095482	0.292722	0.042847
C54	C	-3.595482	0.792722	0.542847
C55	C	-4.028788	0.293319	0.146226
C56	C	-3.528788	0.793319	0.646226
H57	H	-3.709226	-0.181616	-0.128506
H58	H	-3.209226	0.318384	0.371494
O59	O	-4.166748	-0.237985	-0.115854
O60	O	-3.666748	0.262015	0.384146
C61	C	-4.090695	-0.337286	-0.116993
C62	C	-3.590695	0.162714	0.383007
H63	H	-3.957335	-0.341852	-0.150631
H64	H	-3.457335	0.158148	0.349369
H65	H	-4.218620	-0.371562	-0.159488
H66	H	-3.718620	0.128438	0.340512
H67	H	-4.034633	-0.378742	-0.041782
H68	H	-3.534633	0.121258	0.458218
