data_functionalizedCrystal
_audit_creation_method	'MofGen! by Chris Wilmer'
_symmetry_space_group_name_H-M	'P1'
_symmetry_Int_Tables_number	1
_symmetry_cell_setting	triclinic
loop_
_symmetry_equiv_pos_as_xyz
  x,y,z
_cell_length_a	14.908571
_cell_length_b	16.120484
_cell_length_c	14.908308
_cell_angle_alpha	95.986071
_cell_angle_beta	90.175053
_cell_angle_gamma	89.787312
loop_
_atom_site_label
_atom_site_type_symbol
_atom_site_fract_x
_atom_site_fract_y
_atom_site_fract_z
Zn1	Zn	1.320097	-0.434923	-0.609960
Zn2	Zn	1.321040	-0.566744	-0.466383
Zn3	Zn	1.179340	-0.418915	-0.450134
Zn4	Zn	1.162126	-0.565754	-0.607984
O5	O	1.245651	-0.496584	-0.533615
O6	O	1.445636	-0.459523	-0.598542
O7	O	1.309843	-0.540849	-0.338080
O8	O	1.204822	-0.304418	-0.465363
O9	O	1.446329	-0.556371	-0.493056
O10	O	1.308235	-0.316179	-0.582786
O11	O	1.205736	-0.432240	-0.326142
O12	O	1.051643	-0.431280	-0.463446
O13	O	1.175482	-0.554684	-0.734394
O14	O	1.038995	-0.539162	-0.579418
O15	O	1.291543	-0.458562	-0.735846
O16	O	1.293150	-0.683233	-0.491140
O17	O	1.176396	-0.682506	-0.595173
C18	C	1.012801	-0.483377	-0.519455
C19	C	0.913184	-0.477748	-0.513419
C20	C	1.233031	-0.713110	-0.544726
C21	C	1.227712	-0.805747	-0.549515
C22	C	0.712871	-0.579666	-0.622692
C23	C	0.619272	-0.574380	-0.617025
C24	C	0.632384	-0.461887	-0.496421
C25	C	0.725983	-0.467173	-0.502089
C26	C	0.766223	-0.526065	-0.565226
C27	C	0.859824	-0.531355	-0.570888
C28	C	0.872935	-0.418858	-0.450290
C29	C	0.779335	-0.413572	-0.444622
C30	C	1.218005	-0.975358	-0.558276
C31	C	1.273456	-1.016980	-0.508979
C32	C	1.268055	-1.111356	-0.513854
C33	C	1.223405	-0.880972	-0.553403
C34	C	1.479410	-0.509843	-0.547832
C35	C	1.579025	-0.515493	-0.553890
C36	C	1.231487	-0.508298	-0.768743
C37	C	1.225451	-0.513290	-0.868941
C38	C	1.258344	-0.279214	-0.522482
C39	C	1.263752	-0.186584	-0.517738
C40	C	1.334963	-0.422560	-1.058735
C41	C	1.329294	-0.427248	-1.152880
C42	C	1.208443	-0.527348	-1.151376
C43	C	1.214111	-0.522661	-1.057231
C44	C	1.277374	-0.470266	-1.010914
C45	C	1.283046	-0.465583	-0.916769
C46	C	1.162191	-0.565679	-0.915266
C47	C	1.156523	-0.570366	-1.009410
C48	C	1.259815	-0.484858	-0.299402
C49	C	1.266038	-0.479641	-0.199204
H50	H	0.745635	-0.627623	-0.674096
H51	H	1.105015	-0.613023	-1.047134
H52	H	1.324985	-0.981734	-0.463113
H53	H	1.115300	-0.604527	-0.876320
O54	O	1.156556	-1.017523	-0.612909
C55	C	1.164788	-1.103732	-0.605678
H56	H	1.197734	-1.113717	-0.538521
H57	H	1.207859	-1.133745	-0.663338
C58	C	1.030629	-1.131604	-0.693088
C59	C	1.071087	-1.143869	-0.610602
H60	H	0.972830	-1.156365	-0.696129
H61	H	1.025084	-1.073525	-0.697963
H62	H	1.066530	-1.156616	-0.741129
H63	H	1.035191	-1.118848	-0.562562
H64	H	1.076623	-1.201946	-0.605718
O65	O	1.385267	-0.381031	-1.199443
C66	C	1.437122	-0.434468	-1.259835
H67	H	1.400984	-0.496537	-1.275255
H68	H	1.505190	-0.445578	-1.228060
C69	C	1.495022	-0.317752	-1.328961
C70	C	1.450632	-0.393984	-1.347905
H71	H	1.503360	-0.292779	-1.383285
H72	H	1.460089	-0.281749	-1.288271
H73	H	1.551741	-0.327021	-1.302480
H74	H	1.393911	-0.384712	-1.374375
H75	H	1.485557	-0.429984	-1.388601
O76	O	0.898874	-0.588473	-0.632340
C77	C	0.871643	-0.573577	-0.719901
H78	H	0.849504	-0.505784	-0.719586
H79	H	0.813304	-0.616391	-0.742396
C80	C	0.977804	-0.674314	-0.785975
C81	C	0.950619	-0.591047	-0.785589
H82	H	1.026518	-0.685093	-0.826495
H83	H	0.996148	-0.684352	-0.726984
H84	H	0.929181	-0.709982	-0.804718
H85	H	0.999239	-0.555380	-0.766835
H86	H	0.932285	-0.581003	-0.844579
H87	H	1.334559	-0.422921	-0.879059
O88	O	1.146868	-0.578139	-1.196317
C89	C	1.059997	-0.553727	-1.166923
H90	H	1.060921	-0.485606	-1.137352
H91	H	1.037257	-0.594361	-1.113143
C92	C	0.993441	-0.647859	-1.283731
C93	C	0.994574	-0.564190	-1.247417
H94	H	0.953083	-0.654316	-1.333381
H95	H	1.051967	-0.664309	-1.303532
H96	H	0.974493	-0.681711	-1.238906
H97	H	1.013533	-0.530341	-1.292238
H98	H	0.936050	-0.547735	-1.227625
O99	O	0.567538	-0.626419	-0.672975
C100	C	0.586053	-0.614082	-0.763308
H101	H	0.655760	-0.585983	-0.767702
H102	H	0.534037	-0.569817	-0.788355
C103	C	0.496766	-0.732872	-0.816819
C104	C	0.582385	-0.698367	-0.822216
H105	H	0.494500	-0.784861	-0.853157
H106	H	0.484289	-0.741182	-0.755960
H107	H	0.453429	-0.695976	-0.837690
H108	H	0.625718	-0.735257	-0.801334
H109	H	0.594869	-0.690065	-0.883073
O110	O	0.740199	-0.356478	-0.383204
C111	C	0.686778	-0.397881	-0.324069
H112	H	0.711510	-0.464821	-0.323463
H113	H	0.614002	-0.398172	-0.347796
C114	C	0.662951	-0.270070	-0.228986
C115	C	0.693331	-0.352286	-0.228235
H116	H	0.666989	-0.241944	-0.169871
H117	H	0.698938	-0.242176	-0.268828
H118	H	0.602306	-0.270324	-0.248762
H119	H	0.753978	-0.352030	-0.208470
H120	H	0.657354	-0.380179	-0.188388
H121	H	0.599604	-0.413934	-0.445024
O122	O	0.924855	-0.366904	-0.394429
C123	C	0.979719	-0.414425	-0.341815
H124	H	0.988169	-0.479996	-0.377595
H125	H	0.947123	-0.418124	-0.273278
C126	C	1.061893	-0.292226	-0.284644
C127	C	1.072276	-0.372759	-0.328594
H128	H	1.118985	-0.266523	-0.276485
H129	H	1.024927	-0.260209	-0.320088
H130	H	1.034726	-0.295319	-0.227534
H131	H	1.099432	-0.369664	-0.385707
H132	H	1.109249	-0.404775	-0.293159
H133	H	1.386478	-0.379902	-1.021024
