data_functionalizedCrystal
_audit_creation_method	'MofGen! by Chris Wilmer'
_symmetry_space_group_name_H-M	'P1'
_symmetry_Int_Tables_number	1
_symmetry_cell_setting	triclinic
loop_
_symmetry_equiv_pos_as_xyz
  x,y,z
_cell_length_a	25.639239
_cell_length_b	16.625548
_cell_length_c	16.625539
_cell_angle_alpha	89.977655
_cell_angle_beta	90.031255
_cell_angle_gamma	89.961455
loop_
_atom_site_label
_atom_site_type_symbol
_atom_site_fract_x
_atom_site_fract_y
_atom_site_fract_z
Zn1	Zn	-0.208152	-1.232590	0.455931
Zn2	Zn	0.291848	-0.732590	0.955931
Zn3	Zn	-0.295590	-1.232455	0.321091
Zn4	Zn	0.204410	-0.732455	0.821091
Zn5	Zn	-0.208170	-1.097751	0.321107
Zn6	Zn	0.291830	-0.597751	0.821107
Zn7	Zn	-0.295558	-1.097684	0.455877
Zn8	Zn	0.204442	-0.597684	0.955877
O9	O	-0.251867	-1.165120	0.388502
O10	O	0.248133	-0.665120	0.888502
O11	O	-0.219756	-1.345404	0.438060
O12	O	0.280244	-0.845404	0.938060
O13	O	-0.284014	-1.214558	0.208261
O14	O	0.215986	-0.714558	0.708261
O15	O	-0.135002	-1.115723	0.339021
O16	O	0.364998	-0.615723	0.839021
O17	O	-0.283997	-1.345305	0.338994
O18	O	0.216003	-0.845305	0.838994
O19	O	-0.134989	-1.214788	0.438076
O20	O	0.365011	-0.714788	0.938076
O21	O	-0.219787	-1.115592	0.208273
O22	O	0.280213	-0.615592	0.708273
O23	O	-0.219756	-0.984910	0.338969
O24	O	0.280244	-0.484910	0.838969
O25	O	-0.283942	-1.115607	0.568717
O26	O	0.216058	-0.615607	1.068717
O27	O	-0.283960	-0.984860	0.437984
O28	O	0.216040	-0.484860	0.937984
O29	O	-0.219726	-1.214722	0.568756
O30	O	0.280274	-0.714722	1.068756
O31	O	-0.368751	-1.214492	0.338942
O32	O	0.131249	-0.714492	0.838942
O33	O	-0.368727	-1.115477	0.437968
O34	O	0.131273	-0.615477	0.937968
C35	C	-0.251857	-0.955629	0.388473
C36	C	0.248143	-0.455629	0.888473
C37	C	-0.251865	-0.866008	0.388479
C38	C	0.248135	-0.366008	0.888479
C39	C	-0.251864	-0.537832	0.388504
C40	C	0.248136	-0.037832	0.888504
C41	C	-0.251863	-0.629141	0.388494
C42	C	0.248137	-0.129141	0.888494
C43	C	-0.251865	-0.701917	0.388491
C44	C	0.248135	-0.201917	0.888491
C45	C	-0.251863	-0.793231	0.388483
C46	C	0.248137	-0.293231	0.888483
C47	C	-0.387710	-1.164984	0.388465
C48	C	0.112290	-0.664984	0.888465
C49	C	-0.445824	-1.165000	0.388476
C50	C	0.054176	-0.665000	0.888476
C51	C	-0.806187	-1.216812	0.337026
C52	C	-0.306187	-0.716812	0.837026
C53	C	-0.860791	-1.216843	0.337037
C54	C	-0.360791	-0.716843	0.837037
O55	O	-0.889027	-1.260755	0.293253
O56	O	-0.389027	-0.760755	0.793253
N57	N	-0.888106	-1.165262	0.388555
N58	N	-0.388106	-0.665262	0.888555
C59	C	-0.860815	-1.113651	0.440071
C60	C	-0.360815	-0.613651	0.940071
O61	O	-0.889063	-1.069780	0.483893
O62	O	-0.389063	-0.569780	0.983893
C63	C	-0.806211	-1.113625	0.440064
C64	C	-0.306211	-0.613625	0.940064
C65	C	-0.778899	-1.165204	0.388537
C66	C	-0.278899	-0.665204	0.888537
C67	C	-0.778874	-1.268387	0.285504
C68	C	-0.278874	-0.768387	0.785504
C69	C	-0.724273	-1.268355	0.285493
C70	C	-0.224273	-0.768355	0.785493
C71	C	-0.696985	-1.216747	0.337003
C72	C	-0.196985	-0.716747	0.837003
C73	C	-0.724298	-1.165171	0.388525
C74	C	-0.224298	-0.665171	0.888525
C75	C	-0.778921	-1.062019	0.491584
C76	C	-0.278921	-0.562019	0.991584
C77	C	-0.724314	-1.061997	0.491572
C78	C	-0.224314	-0.561997	0.991572
C79	C	-0.697001	-1.113576	0.440045
C80	C	-0.197001	-0.613576	0.940045
C81	C	-0.642410	-1.113531	0.440024
C82	C	-0.142410	-0.613531	0.940024
N83	N	-0.615094	-1.165112	0.388506
N84	N	-0.115094	-0.665112	0.888506
C85	C	-0.642382	-1.216720	0.336996
C86	C	-0.142382	-0.716720	0.836996
C87	C	-0.975485	-1.113712	0.440084
C88	C	-0.475485	-0.613712	0.940084
C89	C	-1.030088	-1.113734	0.440088
C90	C	-0.530088	-0.613734	0.940088
C91	C	-1.030060	-1.216927	0.337054
C92	C	-0.530060	-0.716927	0.837054
C93	C	-0.975457	-1.216900	0.337047
C94	C	-0.475457	-0.716900	0.837047
C95	C	-0.948170	-1.165293	0.388566
C96	C	-0.448170	-0.665293	0.888566
C97	C	-0.527717	-1.216648	0.336975
C98	C	-0.027717	-0.716648	0.836975
C99	C	-0.473112	-1.216608	0.336965
C100	C	0.026888	-0.716608	0.836965
C101	C	-0.473144	-1.113418	0.440001
C102	C	0.026856	-0.613418	0.940001
C103	C	-0.527745	-1.113454	0.440008
C104	C	-0.027745	-0.613454	0.940008
C105	C	-0.555030	-1.165076	0.388492
C106	C	-0.055030	-0.665076	0.888492
O107	O	-0.614139	-1.069644	0.483789
O108	O	-0.114139	-0.569644	0.983789
O109	O	-0.614128	-1.260591	0.293189
O110	O	-0.114128	-0.760591	0.793189
C111	C	-0.115494	-1.165278	0.388556
C112	C	0.384506	-0.665278	0.888556
C113	C	-0.057380	-1.165345	0.388580
C114	C	0.442620	-0.665345	0.888580
C115	C	-0.251828	-1.165172	0.598811
C116	C	0.248172	-0.665172	1.098811
C117	C	-0.251812	-1.165195	0.688432
C118	C	0.248188	-0.665195	1.188432
C119	C	-0.251875	-0.375429	0.388523
C120	C	0.248125	0.124571	0.888523
C121	C	-0.251869	-0.465050	0.388513
C122	C	0.248131	0.034950	0.888513
C123	C	-0.251868	-1.165114	0.179011
C124	C	0.248132	-0.665114	0.679011
C125	C	-0.251738	-1.165248	0.089390
C126	C	0.248262	-0.665248	0.589390
C127	C	-0.251753	-1.165232	1.016608
C128	C	0.248247	-0.665232	1.516608
C129	C	-0.251771	-1.165219	0.925299
C130	C	0.248229	-0.665219	1.425299
C131	C	-0.251783	-1.165214	0.852523
C132	C	0.248217	-0.665214	1.352523
C133	C	-0.251800	-1.165200	0.761208
C134	C	0.248200	-0.665200	1.261208
H135	H	-0.450875	-1.258610	0.295003
H136	H	0.049125	-0.758610	0.795003
Cl137	Cl	-0.438829	-1.048547	0.504758
Cl138	Cl	0.061171	-0.548547	1.004758
Cl139	Cl	-0.690014	-0.997117	0.556344
Cl140	Cl	-0.190014	-0.497117	1.056344
H141	H	-0.801149	-1.020014	0.533539
H142	H	-0.301149	-0.520014	1.033539
H143	H	-0.549926	-1.258684	0.295027
H144	H	-0.049926	-0.758684	0.795027
Cl145	Cl	-1.064375	-1.281805	0.272296
Cl146	Cl	-0.564375	-0.781805	0.772296
H147	H	-0.702039	-1.310357	0.243537
H148	H	-0.202039	-0.810357	0.743537
H149	H	-0.801086	-1.310417	0.243558
H150	H	-0.301086	-0.810417	0.743558
H151	H	-0.953222	-1.258901	0.295090
H152	H	-0.453222	-0.758901	0.795090
Cl153	Cl	-1.064417	-1.048879	0.504858
Cl154	Cl	-0.564417	-0.548879	1.004858
Cl155	Cl	-0.941187	-1.048821	0.504850
Cl156	Cl	-0.441187	-0.548821	1.004850
Cl157	Cl	-0.562082	-1.048595	0.504769
Cl158	Cl	-0.062082	-0.548595	1.004769
