data_functionalizedCrystal
_audit_creation_method	'MofGen! by Chris Wilmer'
_symmetry_space_group_name_H-M	'P1'
_symmetry_Int_Tables_number	1
_symmetry_cell_setting	triclinic
loop_
_symmetry_equiv_pos_as_xyz
  x,y,z
_cell_length_a	19.077105
_cell_length_b	18.101395
_cell_length_c	19.077271
_cell_angle_alpha	87.673669
_cell_angle_beta	89.892926
_cell_angle_gamma	87.727498
loop_
_atom_site_label
_atom_site_type_symbol
_atom_site_fract_x
_atom_site_fract_y
_atom_site_fract_z
Zn1	Zn	1.058238	-0.321027	-0.440430
Zn2	Zn	1.391572	0.012306	-0.107096
Zn3	Zn	1.724905	0.345640	0.226237
Zn4	Zn	1.062863	-0.450036	-0.322922
Zn5	Zn	1.396196	-0.116703	0.010412
Zn6	Zn	1.729530	0.216630	0.343745
Zn7	Zn	0.945455	-0.321441	-0.318220
Zn8	Zn	1.278789	0.011893	0.015113
Zn9	Zn	1.612122	0.345226	0.348446
Zn10	Zn	0.940687	-0.440055	-0.435676
Zn11	Zn	1.274020	-0.106722	-0.102343
Zn12	Zn	1.607353	0.226612	0.230990
O13	O	1.001811	-0.383140	-0.379312
O14	O	1.335144	-0.049806	-0.045979
O15	O	1.668478	0.283527	0.287355
O16	O	1.157183	-0.342145	-0.428799
O17	O	1.490517	-0.008811	-0.095465
O18	O	1.823850	0.324522	0.237868
O19	O	1.051220	-0.437328	-0.223965
O20	O	1.384553	-0.103995	0.109369
O21	O	1.717886	0.229338	0.442702
O22	O	0.960476	-0.217755	-0.334454
O23	O	1.293810	0.115579	-0.001120
O24	O	1.627143	0.448912	0.332213
O25	O	1.160581	-0.436927	-0.342466
O26	O	1.493914	-0.103594	-0.009133
O27	O	1.827248	0.229739	0.324201
O28	O	1.043338	-0.217451	-0.424240
O29	O	1.376671	0.115883	-0.090907
O30	O	1.710004	0.449216	0.242427
O31	O	0.964961	-0.342850	-0.220511
O32	O	1.298294	-0.009516	0.112823
O33	O	1.631627	0.323817	0.446156
O34	O	0.846491	-0.333171	-0.329845
O35	O	1.179825	0.000162	0.003489
O36	O	1.513158	0.333496	0.336822
O37	O	0.952349	-0.419915	-0.534640
O38	O	1.285683	-0.086582	-0.201307
O39	O	1.619016	0.246752	0.132027
O40	O	0.842988	-0.420316	-0.416139
O41	O	1.176321	-0.086983	-0.082806
O42	O	1.509655	0.246350	0.250528
O43	O	1.038714	-0.332466	-0.538132
O44	O	1.372047	0.000867	-0.204799
O45	O	1.705381	0.334201	0.128534
O46	O	1.046596	-0.552344	-0.337857
O47	O	1.379929	-0.219010	-0.004524
O48	O	1.713263	0.114323	0.328810
O49	O	0.956834	-0.545010	-0.420697
O50	O	1.290167	-0.211677	-0.087364
O51	O	1.623500	0.121656	0.245969
C52	C	0.819243	-0.375706	-0.371966
C53	C	1.152577	-0.042373	-0.038633
C54	C	1.485910	0.290961	0.294700
C55	C	0.741140	-0.372543	-0.368840
C56	C	1.074473	-0.039210	-0.035507
C57	C	1.407806	0.294124	0.297826
C58	C	1.001718	-0.575547	-0.379288
C59	C	1.335051	-0.242214	-0.045954
C60	C	1.668384	0.091119	0.287379
C61	C	1.001741	-0.657862	-0.379303
C62	C	1.335074	-0.324529	-0.045970
C63	C	1.668408	0.008805	0.287364
C64	C	0.702643	-0.416503	-0.412230
C65	C	1.035977	-0.083170	-0.078897
C66	C	1.369310	0.250163	0.254437
C67	C	0.629256	-0.413521	-0.409296
C68	C	0.962590	-0.080188	-0.075963
C69	C	1.295923	0.253145	0.257370
C70	C	0.594367	-0.366582	-0.362969
C71	C	0.927700	-0.033249	-0.029636
C72	C	1.261034	0.300084	0.303698
C73	C	0.632868	-0.322617	-0.319577
C74	C	0.966202	0.010716	0.013756
C75	C	1.299535	0.344050	0.347089
C76	C	0.706254	-0.325596	-0.322515
C77	C	1.039587	0.007738	0.010818
C78	C	1.372921	0.341071	0.344151
C79	C	0.375081	-0.352797	-0.349376
C80	C	0.708415	-0.019464	-0.016042
C81	C	1.041748	0.313870	0.317291
C82	C	0.301690	-0.349823	-0.346440
C83	C	0.635024	-0.016490	-0.013107
C84	C	0.968357	0.316843	0.320227
C85	C	0.298084	-0.440727	-0.436160
C86	C	0.631417	-0.107393	-0.102827
C87	C	0.964750	0.225940	0.230507
C88	C	0.371471	-0.443704	-0.439091
C89	C	0.704804	-0.110371	-0.105757
C90	C	1.038137	0.222962	0.227576
C91	C	0.409966	-0.399736	-0.395702
C92	C	0.743299	-0.066403	-0.062369
C93	C	1.076632	0.266930	0.270965
N94	N	0.519354	-0.363535	-0.359967
N95	N	0.852687	-0.030201	-0.026634
N96	N	1.186021	0.303132	0.306699
N97	N	0.484977	-0.402780	-0.398707
N98	N	0.818311	-0.069447	-0.065374
N99	N	1.151644	0.263886	0.267959
C100	C	1.001894	-0.956957	-0.379347
C101	C	1.335227	-0.623624	-0.046014
C102	C	1.668560	-0.290291	0.287320
C103	C	0.945538	-0.921048	-0.431608
C104	C	1.278872	-0.587715	-0.098275
C105	C	1.612205	-0.254382	0.235059
C106	C	0.945288	-0.835427	-0.431427
C107	C	1.278621	-0.502094	-0.098094
C108	C	1.611954	-0.168761	0.235239
C109	C	1.001818	-0.808573	-0.379326
C110	C	1.335151	-0.475239	-0.045993
C111	C	1.668485	-0.141906	0.287341
C112	C	0.984747	-0.842164	-0.304464
C113	C	1.318080	-0.508831	0.028869
C114	C	1.651413	-0.175498	0.362203
C115	C	0.984384	-0.927781	-0.304776
C116	C	1.317718	-0.594448	0.028558
C117	C	1.651051	-0.261114	0.361891
C118	C	1.075466	-0.927488	-0.401301
C119	C	1.408799	-0.594155	-0.067968
C120	C	1.742132	-0.260822	0.265365
C121	C	1.074963	-0.841748	-0.402908
C122	C	1.408296	-0.508415	-0.069574
C123	C	1.741630	-0.175082	0.263759
C124	C	1.001777	-0.724712	-0.379309
C125	C	1.335110	-0.391379	-0.045976
C126	C	1.668443	-0.058045	0.287357
C127	C	1.001934	-1.040818	-0.379359
C128	C	1.335267	-0.707485	-0.046025
C129	C	1.668600	-0.374151	0.287308
C130	C	1.185091	-0.390603	-0.386687
C131	C	1.518425	-0.057270	-0.053353
C132	C	1.851758	0.276064	0.279980
C133	C	1.263194	-0.393784	-0.389829
C134	C	1.596528	-0.060450	-0.056496
C135	C	1.929861	0.272883	0.276837
C136	C	0.994484	-0.375031	-0.562596
C137	C	1.327817	-0.041698	-0.229262
C138	C	1.661150	0.291636	0.104071
C139	C	0.991361	-0.371575	-0.640700
C140	C	1.324695	-0.038242	-0.307367
C141	C	1.658028	0.295091	0.025966
C142	C	1.001923	-0.189981	-0.379353
C143	C	1.335256	0.143352	-0.046019
C144	C	1.668590	0.476686	0.287314
C145	C	1.001971	-0.107668	-0.379370
C146	C	1.335304	0.225665	-0.046037
C147	C	1.668637	0.558999	0.287297
C148	C	0.968967	-0.346850	-1.080154
C149	C	1.302301	-0.013517	-0.746821
C150	C	1.635634	0.319816	-0.413488
C151	C	0.971904	-0.350094	-1.006767
C152	C	1.305238	-0.016761	-0.673433
C153	C	1.638571	0.316572	-0.340100
C154	C	1.018280	-0.400910	-0.971870
C155	C	1.351613	-0.067577	-0.638537
C156	C	1.684946	0.265756	-0.305204
C157	C	1.061725	-0.448480	-1.010365
C158	C	1.395059	-0.115146	-0.677032
C159	C	1.728392	0.218187	-0.343699
C160	C	1.058791	-0.445231	-1.083752
C161	C	1.392125	-0.111898	-0.750418
C162	C	1.725458	0.221435	-0.417085
C163	C	1.031873	-0.415897	-0.752582
C164	C	1.365207	-0.082563	-0.419248
C165	C	1.698540	0.250770	-0.085915
C166	C	1.034803	-0.419143	-0.679190
C167	C	1.368136	-0.085809	-0.345857
C168	C	1.701469	0.247524	-0.012524
C169	C	0.944982	-0.320756	-0.675597
C170	C	1.278315	0.012577	-0.342263
C171	C	1.611649	0.345910	-0.008930
C172	C	0.942049	-0.317515	-0.748984
C173	C	1.275382	0.015818	-0.415651
C174	C	1.608716	0.349151	-0.082318
C175	C	0.985498	-0.365082	-0.787473
C176	C	1.318831	-0.031749	-0.454140
C177	C	1.652164	0.301584	-0.120806
N178	N	1.021281	-0.404229	-0.896857
N179	N	1.354615	-0.070896	-0.563523
N180	N	1.687948	0.262438	-0.230190
N181	N	0.982499	-0.361759	-0.862486
N182	N	1.315832	-0.028426	-0.529152
N183	N	1.649166	0.304907	-0.195819
C184	C	1.009150	-0.391165	-0.196743
C185	C	1.342483	-0.057832	0.136591
C186	C	1.675817	0.275501	0.469924
C187	C	1.012408	-0.394418	-0.118644
C188	C	1.345742	-0.061084	0.214689
C189	C	1.679075	0.272249	0.548023
H190	H	0.731045	-0.454729	-0.449952
H191	H	1.064378	-0.121395	-0.116619
H192	H	1.397712	0.211938	0.216714
C193	C	0.409844	-0.495345	-0.490051
C194	C	0.743177	-0.162011	-0.156718
C195	C	1.076510	0.171322	0.176616
N196	N	0.438746	-0.534244	-0.528432
N197	N	0.772080	-0.200911	-0.195099
N198	N	1.105413	0.132422	0.138234
C199	C	0.917951	-0.290948	-1.118533
C200	C	1.251284	0.042386	-0.785200
C201	C	1.584618	0.375719	-0.451867
N202	N	0.879527	-0.248838	-1.147439
N203	N	1.212860	0.084496	-0.814105
N204	N	1.546193	0.417829	-0.480772
H205	H	1.094167	-0.483965	-1.115089
H206	H	1.427500	-0.150631	-0.781756
H207	H	1.760834	0.182702	-0.448423
H208	H	0.597916	-0.449319	-0.444628
H209	H	0.931249	-0.115986	-0.111295
H210	H	1.264583	0.217348	0.222039
C211	C	0.913000	-0.811302	-0.279452
C212	C	1.246334	-0.477969	0.053882
C213	C	1.579667	-0.144635	0.387215
N214	N	0.858959	-0.788058	-0.260616
N215	N	1.192292	-0.454725	0.072717
N216	N	1.525625	-0.121391	0.406050
C217	C	1.097274	-0.954445	-0.474007
C218	C	1.430607	-0.621112	-0.140673
C219	C	1.763940	-0.287778	0.192660
N220	N	1.113692	-0.974748	-0.528772
N221	N	1.447025	-0.641415	-0.195438
N222	N	1.780358	-0.308081	0.137895
H223	H	1.087891	-0.819604	-0.458017
H224	H	1.421224	-0.486271	-0.124683
H225	H	1.754557	-0.152937	0.208650
H226	H	0.266733	-0.476522	-0.471486
H227	H	0.600067	-0.143189	-0.138152
H228	H	0.933400	0.190145	0.195181
H229	H	0.904282	-0.276139	-0.777392
H230	H	1.237616	0.057194	-0.444058
H231	H	1.570949	0.390528	-0.110725
H232	H	0.273286	-0.311591	-0.308719
H233	H	0.606619	0.021742	0.024615
H234	H	0.939952	0.355076	0.357948
H235	H	1.118933	-0.823679	-0.367855
H236	H	1.452266	-0.490345	-0.034522
H237	H	1.785600	-0.157012	0.298811
H238	H	1.117416	-0.951121	-0.363274
H239	H	1.450749	-0.617788	-0.029941
H240	H	1.784083	-0.284455	0.303393
C241	C	0.594487	-0.270982	-0.268618
C242	C	0.927821	0.062352	0.064715
C243	C	1.261154	0.395685	0.398048
N244	N	0.565579	-0.232090	-0.230233
N245	N	0.898913	0.101243	0.103100
N246	N	1.232246	0.434576	0.436433
C247	C	0.417416	-0.304435	-0.301642
C248	C	0.750750	0.028898	0.031691
C249	C	1.084083	0.362232	0.365025
N250	N	0.449305	-0.268008	-0.265685
N251	N	0.782639	0.065326	0.067648
N252	N	1.115972	0.398659	0.400981
C253	C	0.959248	-0.804396	-0.506293
C254	C	1.292581	-0.471063	-0.172960
C255	C	1.625915	-0.137730	0.160374
N256	N	0.969760	-0.781027	-0.562686
N257	N	1.303094	-0.447694	-0.229352
N258	N	1.636427	-0.114361	0.103981
H259	H	0.737596	-0.289794	-0.287186
H260	H	1.070930	0.043539	0.046147
H261	H	1.404263	0.376872	0.379480
C262	C	1.112739	-0.504378	-0.971977
C263	C	1.446072	-0.171045	-0.638643
C264	C	1.779405	0.162289	-0.305310
N265	N	1.151161	-0.546484	-0.943063
N266	N	1.484494	-0.213150	-0.609730
N267	N	1.817828	0.120183	-0.276396
C268	C	0.924114	-0.297768	-0.964431
C269	C	1.257447	0.035565	-0.631098
C270	C	1.590780	0.368899	-0.297764
N271	N	0.888115	-0.258353	-0.932544
N272	N	1.221449	0.074980	-0.599211
N273	N	1.554782	0.408314	-0.265878
H274	H	0.909610	-0.282029	-0.644251
H275	H	1.242943	0.051304	-0.310918
H276	H	1.576276	0.384638	0.022415
C277	C	0.959318	-0.946223	-0.506707
C278	C	1.292651	-0.612890	-0.173374
C279	C	1.625984	-0.279556	0.159959
N280	N	0.969696	-0.965192	-0.563274
N281	N	1.303030	-0.631858	-0.229940
N282	N	1.636363	-0.298525	0.103393
C283	C	1.085808	-0.475060	-0.640805
C284	C	1.419141	-0.141727	-0.307472
C285	C	1.752474	0.191606	0.025861
N286	N	1.124216	-0.517182	-0.611893
N287	N	1.457550	-0.183848	-0.278560
N288	N	1.790883	0.149485	0.054773
H289	H	0.891274	-0.940954	-0.417002
H290	H	1.224607	-0.607621	-0.083669
H291	H	1.557940	-0.274288	0.249664
C292	C	0.871520	-0.805551	-0.411515
C293	C	1.204854	-0.472218	-0.078181
C294	C	1.538187	-0.138885	0.255152
N295	N	0.815951	-0.783048	-0.396533
N296	N	1.149284	-0.449715	-0.063200
N297	N	1.482617	-0.116382	0.270134
H298	H	1.067250	-0.454631	-0.783911
H299	H	1.400584	-0.121297	-0.450577
H300	H	1.733917	0.212036	-0.117244
H301	H	0.930692	-0.946322	-0.286525
H302	H	1.264026	-0.612988	0.046808
H303	H	1.597359	-0.279655	0.380142
C304	C	1.037641	-0.960334	-0.250155
C305	C	1.370974	-0.627001	0.083178
C306	C	1.704308	-0.293668	0.416512
N307	N	1.077749	-0.984850	-0.209011
N308	N	1.411083	-0.651517	0.124322
N309	N	1.744416	-0.318183	0.457655
H310	H	1.024633	-0.825179	-0.264334
H311	H	1.357967	-0.491845	0.069000
H312	H	1.691300	-0.158512	0.402333
