data_functionalizedCrystal
_audit_creation_method	'MofGen! by Chris Wilmer'
_symmetry_space_group_name_H-M	'P1'
_symmetry_Int_Tables_number	1
_symmetry_cell_setting	triclinic
loop_
_symmetry_equiv_pos_as_xyz
  x,y,z
_cell_length_a	11.792254
_cell_length_b	17.038272
_cell_length_c	10.268362
_cell_angle_alpha	90.001544
_cell_angle_beta	90.004577
_cell_angle_gamma	87.655077
loop_
_atom_site_label
_atom_site_type_symbol
_atom_site_fract_x
_atom_site_fract_y
_atom_site_fract_z
O1	O	1.516299	0.107250	0.108301
O2	O	2.016299	0.607250	0.608301
O3	O	1.186927	0.118289	0.108304
O4	O	1.686927	0.618289	0.608304
O5	O	1.349655	-0.001055	0.108292
O6	O	1.849655	0.498945	0.608292
O7	O	1.353570	0.226593	0.108313
O8	O	1.853570	0.726593	0.608313
O9	O	1.349639	-0.001051	-0.108309
O10	O	1.849639	0.498949	0.391691
O11	O	1.186911	0.118293	-0.108297
O12	O	1.686911	0.618293	0.391703
O13	O	1.516283	0.107254	-0.108300
O14	O	2.016283	0.607254	0.391700
Cu15	Cu	1.351595	0.112774	-0.128076
Cu16	Cu	1.851595	0.612774	0.371924
Cu17	Cu	1.351614	0.112769	0.128080
Cu18	Cu	1.851614	0.612769	0.628080
O19	O	1.353554	0.226597	-0.108288
O20	O	1.853554	0.726597	0.391712
C21	C	1.144567	0.117595	0.000004
C22	C	1.644567	0.617595	0.500004
C23	C	1.018372	0.115514	0.000005
C24	C	1.518372	0.615514	0.500005
C25	C	0.915887	0.113823	0.000010
C26	C	1.415887	0.613823	0.500010
C27	C	0.787315	0.111708	0.000011
C28	C	1.287315	0.611708	0.500011
C29	C	1.346086	-0.030197	-0.000008
C30	C	1.846086	0.469803	0.499992
C31	C	1.335462	-0.117037	-0.000008
C32	C	1.835462	0.382963	0.499992
C33	C	1.433002	-0.166717	-0.000010
C34	C	1.933002	0.333283	0.499990
C35	C	1.423013	-0.248312	0.000002
C36	C	1.923013	0.251688	0.500002
C37	C	1.315483	-0.280225	0.000008
C38	C	1.815483	0.219775	0.500008
C39	C	1.217937	-0.230539	0.000014
C40	C	1.717937	0.269461	0.500014
C41	C	1.227927	-0.148946	0.000011
C42	C	1.727927	0.351054	0.500011
C43	C	1.280190	-0.526140	0.000026
C44	C	1.780190	-0.026140	0.500026
C45	C	1.270208	-0.607740	0.000025
C46	C	1.770208	-0.107740	0.500025
C47	C	1.475285	-0.625508	0.000016
C48	C	1.975285	-0.125508	0.500016
C49	C	1.485266	-0.543912	0.000005
C50	C	1.985266	-0.043912	0.500005
C51	C	1.387719	-0.494233	0.000018
C52	C	1.887719	0.005767	0.500018
C53	C	1.305271	-0.363628	0.000016
C54	C	1.805271	0.136372	0.500016
C55	C	1.397933	-0.410831	0.000019
C56	C	1.897933	0.089169	0.500019
C57	C	1.558642	0.107947	0.000003
C58	C	2.058642	0.607947	0.500003
C59	C	1.684838	0.110029	0.000011
C60	C	2.184838	0.610029	0.500011
C61	C	1.357123	0.255740	0.000015
C62	C	1.857123	0.755740	0.500015
C63	C	1.367747	0.342580	0.000023
C64	C	1.867747	0.842580	0.500023
N65	N	1.351590	0.112777	-0.308242
N66	N	1.851590	0.612777	0.191758
C67	C	1.351598	0.112777	-0.426084
C68	C	1.851598	0.612777	0.073916
C69	C	1.351612	0.112770	-0.573922
C70	C	1.851612	0.612770	-0.073922
N71	N	1.351628	0.112760	0.308245
N72	N	1.851628	0.612760	0.808245
H73	H	1.502440	-0.288759	-0.000002
H74	H	2.002440	0.211241	0.499998
H75	H	1.148499	-0.108496	0.000013
H76	H	1.648499	0.391504	0.500013
O77	O	1.189296	-0.398055	0.000015
O78	O	1.689296	0.101945	0.500015
H79	H	1.123140	-0.349805	0.000020
H80	H	1.623140	0.150195	0.500020
H81	H	1.572827	-0.517935	0.000001
H82	H	2.072827	-0.017935	0.500001
H83	H	1.200760	-0.485701	0.000036
H84	H	1.700760	0.014299	0.500036
H85	H	1.485483	-0.384844	0.000043
H86	H	1.985483	0.115156	0.500043
H87	H	1.520564	-0.140740	-0.000022
H88	H	2.020564	0.359260	0.499978
O89	O	1.580494	-0.679088	0.000010
O90	O	2.080494	-0.179088	0.500010
H91	H	1.555488	-0.741187	0.000022
H92	H	2.055488	-0.241187	0.500022
O93	O	1.154225	-0.642167	0.000022
O94	O	1.654225	-0.142167	0.500022
H95	H	1.144786	-0.678925	0.088294
H96	H	1.644786	-0.178925	0.588294
O97	O	1.101958	-0.264959	0.000005
O98	O	1.601958	0.235041	0.500005
H99	H	1.092507	-0.301715	0.088278
H100	H	1.592507	0.198285	0.588278
