data_functionalizedCrystal
_audit_creation_method	'MofGen! by Chris Wilmer'
_symmetry_space_group_name_H-M	'P1'
_symmetry_Int_Tables_number	1
_symmetry_cell_setting	triclinic
loop_
_symmetry_equiv_pos_as_xyz
  x,y,z
_cell_length_a	27.732064
_cell_length_b	27.732048
_cell_length_c	13.101039
_cell_angle_alpha	93.329410
_cell_angle_beta	86.677803
_cell_angle_gamma	82.646040
loop_
_atom_site_label
_atom_site_type_symbol
_atom_site_fract_x
_atom_site_fract_y
_atom_site_fract_z
O1	O	0.643596	0.054873	-0.085041
O2	O	0.893596	0.304873	0.164959
O3	O	1.143596	0.554873	0.414959
O4	O	1.393596	0.804873	0.664959
O5	O	0.502805	0.063609	-0.085085
O6	O	0.752805	0.313609	0.164915
O7	O	1.002805	0.563609	0.414915
O8	O	1.252805	0.813609	0.664915
O9	O	0.577572	-0.011155	-0.085042
O10	O	0.827572	0.238845	0.164958
O11	O	1.077572	0.488845	0.414958
O12	O	1.327572	0.738845	0.664958
O13	O	0.568828	0.129637	-0.085084
O14	O	0.818828	0.379637	0.164916
O15	O	1.068828	0.629637	0.414916
O16	O	1.318828	0.879637	0.664916
O17	O	0.572208	-0.005782	0.085384
O18	O	0.822208	0.244218	0.335384
O19	O	1.072208	0.494218	0.585384
O20	O	1.322208	0.744218	0.835384
O21	O	0.497440	0.068982	0.085342
O22	O	0.747440	0.318982	0.335342
O23	O	0.997440	0.568982	0.585342
O24	O	1.247440	0.818982	0.835342
O25	O	0.638231	0.060246	0.085385
O26	O	0.888231	0.310246	0.335385
O27	O	1.138231	0.560246	0.585385
O28	O	1.388231	0.810246	0.835385
Zn29	Zn	0.566984	0.065467	0.112422
Zn30	Zn	0.816984	0.315467	0.362422
Zn31	Zn	1.066984	0.565467	0.612422
Zn32	Zn	1.316984	0.815467	0.862422
Zn33	Zn	0.574052	0.058388	-0.112122
Zn34	Zn	0.824052	0.308388	0.137878
Zn35	Zn	1.074052	0.558388	0.387878
Zn36	Zn	1.324052	0.808388	0.637878
O37	O	0.563463	0.135010	0.085343
O38	O	0.813463	0.385010	0.335343
O39	O	1.063463	0.635010	0.585343
O40	O	1.313463	0.885010	0.835343
C41	C	0.482116	0.066110	0.000123
C42	C	0.732116	0.316110	0.250123
C43	C	0.982116	0.566110	0.500123
C44	C	1.232116	0.816110	0.750123
C45	C	0.428462	0.065554	0.000107
C46	C	0.678462	0.315554	0.250107
C47	C	0.928462	0.565554	0.500107
C48	C	1.178462	0.815554	0.750107
C49	C	0.051387	0.017589	0.000180
C50	C	0.301387	0.267589	0.250180
C51	C	0.551387	0.517589	0.500180
C52	C	0.801387	0.767589	0.750180
C53	C	0.253048	0.019634	0.000152
C54	C	0.503048	0.269634	0.250152
C55	C	0.753048	0.519634	0.500152
C56	C	1.003048	0.769634	0.750152
O57	O	0.284299	-0.017585	0.000202
O58	O	0.534299	0.232415	0.250202
O59	O	0.784299	0.482415	0.500202
O60	O	1.034299	0.732415	0.750202
N61	N	0.272176	0.063968	0.000135
N62	N	0.522176	0.313968	0.250135
N63	N	0.772176	0.563968	0.500135
N64	N	1.022176	0.813968	0.750135
C65	C	0.240885	0.107794	0.000131
C66	C	0.490885	0.357794	0.250131
C67	C	0.740885	0.607794	0.500131
C68	C	0.990885	0.857794	0.750131
O69	O	0.261781	0.145550	0.000125
O70	O	0.511781	0.395550	0.250125
O71	O	0.761781	0.645550	0.500125
O72	O	1.011781	0.895550	0.750125
C73	C	0.039225	0.105748	0.000165
C74	C	0.289225	0.355748	0.250165
C75	C	0.539225	0.605748	0.500165
C76	C	0.789225	0.855748	0.750165
C77	C	0.020100	0.061411	0.000172
C78	C	0.270100	0.311411	0.250172
C79	C	0.520100	0.561411	0.500172
C80	C	0.770100	0.811411	0.750172
C81	C	0.032261	-0.026744	0.000188
C82	C	0.282261	0.223256	0.250188
C83	C	0.532261	0.473256	0.500188
C84	C	0.782261	0.723256	0.750188
C85	C	-0.018151	-0.027255	0.000189
C86	C	0.231849	0.222745	0.250189
C87	C	0.481849	0.472745	0.500189
C88	C	0.731849	0.722745	0.750189
C89	C	-0.049438	0.016567	0.000182
C90	C	0.200562	0.266567	0.250182
C91	C	0.450562	0.516567	0.500182
C92	C	0.700562	0.766567	0.750182
C93	C	-0.030312	0.060900	0.000174
C94	C	0.219688	0.310900	0.250174
C95	C	0.469688	0.560900	0.500174
C96	C	0.719688	0.810900	0.750174
C97	C	0.007934	0.149574	0.000168
C98	C	0.257934	0.399574	0.250168
C99	C	0.507934	0.649574	0.500168
C100	C	0.757934	0.899574	0.750168
C101	C	-0.042483	0.149058	0.000180
C102	C	0.207517	0.399058	0.250180
C103	C	0.457517	0.649058	0.500180
C104	C	0.707517	0.899058	0.750180
C105	C	-0.061608	0.104721	0.000187
C106	C	0.188392	0.354721	0.250187
C107	C	0.438392	0.604721	0.500187
C108	C	0.688392	0.854721	0.750187
C109	C	-0.112011	0.104211	0.000168
C110	C	0.137989	0.354211	0.250168
C111	C	0.387989	0.604211	0.500168
C112	C	0.637989	0.854211	0.750168
N113	N	-0.131139	0.059878	0.000185
N114	N	0.118861	0.309878	0.250185
N115	N	0.368861	0.559878	0.500185
N116	N	0.618861	0.809878	0.750185
C117	C	-0.099852	0.016055	0.000193
C118	C	0.150148	0.266055	0.250193
C119	C	0.400148	0.516055	0.500193
C120	C	0.650148	0.766055	0.750193
C121	C	0.346760	0.108865	0.000110
C122	C	0.596760	0.358865	0.250110
C123	C	0.846760	0.608865	0.500110
C124	C	1.096760	0.858865	0.750110
C125	C	0.397175	0.109376	0.000100
C126	C	0.647175	0.359376	0.250100
C127	C	0.897175	0.609376	0.500100
C128	C	1.147175	0.859376	0.750100
C129	C	0.409334	0.021217	0.000124
C130	C	0.659334	0.271217	0.250124
C131	C	0.909334	0.521217	0.500124
C132	C	1.159334	0.771217	0.750124
C133	C	0.358919	0.020705	0.000127
C134	C	0.608919	0.270705	0.250127
C135	C	0.858919	0.520705	0.500127
C136	C	1.108919	0.770705	0.750127
C137	C	0.327632	0.064531	0.000128
C138	C	0.577632	0.314531	0.250128
C139	C	0.827632	0.564531	0.500128
C140	C	1.077632	0.814531	0.750128
C141	C	-0.205722	0.014986	0.000194
C142	C	0.044278	0.264986	0.250194
C143	C	0.294278	0.514986	0.500194
C144	C	0.544278	0.764986	0.750194
C145	C	-0.256139	0.014478	0.000191
C146	C	-0.006139	0.264478	0.250191
C147	C	0.243861	0.514478	0.500191
C148	C	0.493861	0.764478	0.750191
C149	C	-0.268294	0.102638	0.000173
C150	C	-0.018294	0.352638	0.250173
C151	C	0.231706	0.602638	0.500173
C152	C	0.481706	0.852638	0.750173
C153	C	-0.217881	0.103145	0.000171
C154	C	0.032119	0.353145	0.250171
C155	C	0.282119	0.603145	0.500171
C156	C	0.532119	0.853145	0.750171
C157	C	-0.186596	0.059315	0.000185
C158	C	0.063404	0.309315	0.250185
C159	C	0.313404	0.559315	0.500185
C160	C	0.563404	0.809315	0.750185
O161	O	-0.143291	0.141411	0.000130
O162	O	0.106709	0.391411	0.250130
O163	O	0.356709	0.641411	0.500130
O164	O	0.606709	0.891411	0.750130
O165	O	-0.120759	-0.021694	0.000221
O166	O	0.129241	0.228306	0.250221
O167	O	0.379241	0.478306	0.500221
O168	O	0.629241	0.728306	0.750221
C169	C	0.101799	0.018100	0.000178
C170	C	0.351799	0.268100	0.250178
C171	C	0.601799	0.518100	0.500178
C172	C	0.851799	0.768100	0.750178
C173	C	0.120924	0.062433	0.000170
C174	C	0.370924	0.312433	0.250170
C175	C	0.620924	0.562433	0.500170
C176	C	0.870924	0.812433	0.750170
C177	C	0.089637	0.106256	0.000163
C178	C	0.339637	0.356256	0.250163
C179	C	0.589637	0.606256	0.500163
C180	C	0.839637	0.856256	0.750163
C181	C	0.171339	0.062945	0.000160
C182	C	0.421339	0.312945	0.250160
C183	C	0.671339	0.562945	0.500160
C184	C	0.921339	0.812945	0.750160
C185	C	0.202626	0.019123	0.000167
C186	C	0.452626	0.269123	0.250167
C187	C	0.702626	0.519123	0.500167
C188	C	0.952626	0.769123	0.750167
C189	C	0.183498	-0.025211	0.000184
C190	C	0.433498	0.224789	0.250184
C191	C	0.683498	0.474789	0.500184
C192	C	0.933498	0.724789	0.750184
C193	C	0.133086	-0.025722	0.000186
C194	C	0.383086	0.224278	0.250186
C195	C	0.633086	0.474278	0.500186
C196	C	0.883086	0.724278	0.750186
C197	C	0.108765	0.150589	0.000145
C198	C	0.358765	0.400589	0.250145
C199	C	0.608765	0.650589	0.500145
C200	C	0.858765	0.900589	0.750145
C201	C	0.159178	0.151097	0.000143
C202	C	0.409178	0.401097	0.250143
C203	C	0.659178	0.651097	0.500143
C204	C	0.909178	0.901097	0.750143
C205	C	0.190465	0.107274	0.000150
C206	C	0.440465	0.357274	0.250150
C207	C	0.690465	0.607274	0.500150
C208	C	0.940465	0.857274	0.750150
C209	C	0.574706	-0.026475	0.000174
C210	C	0.824706	0.223525	0.250174
C211	C	1.074706	0.473525	0.500174
C212	C	1.324706	0.723525	0.750174
C213	C	0.574153	-0.080130	0.000182
C214	C	0.824153	0.169870	0.250182
C215	C	1.074153	0.419870	0.500182
C216	C	1.324153	0.669870	0.750182
C217	C	0.614858	-0.418944	0.000142
C218	C	0.864858	-0.168944	0.250142
C219	C	1.114858	0.081056	0.500142
C220	C	1.364858	0.331056	0.750142
C221	C	0.612807	-0.620604	0.000127
C222	C	0.862807	-0.370604	0.250127
C223	C	1.112807	-0.120604	0.500127
C224	C	1.362807	0.129396	0.750127
O225	O	0.650029	-0.651859	0.000094
O226	O	0.900029	-0.401859	0.250094
O227	O	1.150029	-0.151859	0.500094
O228	O	1.400029	0.098141	0.750094
N229	N	0.568473	-0.639731	0.000114
N230	N	0.818473	-0.389731	0.250114
N231	N	1.068473	-0.139731	0.500114
N232	N	1.318473	0.110269	0.750114
C233	C	0.524648	-0.608439	0.000099
C234	C	0.774648	-0.358439	0.250099
C235	C	1.024648	-0.108439	0.500099
C236	C	1.274648	0.141561	0.750099
O237	O	0.486892	-0.629335	0.000077
O238	O	0.736892	-0.379335	0.250077
O239	O	0.986892	-0.129335	0.500077
O240	O	1.236892	0.120665	0.750077
C241	C	0.526699	-0.406780	0.000106
C242	C	0.776699	-0.156780	0.250106
C243	C	1.026699	0.093220	0.500106
C244	C	1.276699	0.343220	0.750106
C245	C	0.571036	-0.387656	0.000129
C246	C	0.821036	-0.137656	0.250129
C247	C	1.071036	0.112344	0.500129
C248	C	1.321036	0.362344	0.750129
C249	C	0.659191	-0.399819	0.000164
C250	C	0.909191	-0.149819	0.250164
C251	C	1.159191	0.100181	0.500164
C252	C	1.409191	0.350181	0.750164
C253	C	0.659703	-0.349407	0.000173
C254	C	0.909703	-0.099407	0.250173
C255	C	1.159703	0.150593	0.500173
C256	C	1.409703	0.400593	0.750173
C257	C	0.615882	-0.318119	0.000161
C258	C	0.865882	-0.068119	0.250161
C259	C	1.115882	0.181881	0.500161
C260	C	1.365882	0.431881	0.750161
C261	C	0.571548	-0.337244	0.000139
C262	C	0.821548	-0.087244	0.250139
C263	C	1.071548	0.162756	0.500139
C264	C	1.321548	0.412756	0.750139
C265	C	0.482875	-0.375490	0.000083
C266	C	0.732875	-0.125490	0.250083
C267	C	0.982875	0.124510	0.500083
C268	C	1.232875	0.374510	0.750083
C269	C	0.483392	-0.325073	0.000082
C270	C	0.733392	-0.075073	0.250082
C271	C	0.983392	0.174927	0.500082
C272	C	1.233392	0.424927	0.750082
C273	C	0.527729	-0.305949	0.000105
C274	C	0.777729	-0.055949	0.250105
C275	C	1.027729	0.194051	0.500105
C276	C	1.277729	0.444051	0.750105
C277	C	0.528239	-0.255544	0.000135
C278	C	0.778239	-0.005544	0.250135
C279	C	1.028239	0.244456	0.500135
C280	C	1.278239	0.494456	0.750135
N281	N	0.572573	-0.236417	0.000148
N282	N	0.822573	0.013583	0.250148
N283	N	1.072573	0.263583	0.500148
N284	N	1.322573	0.513583	0.750148
C285	C	0.616395	-0.267705	0.000161
C286	C	0.866395	-0.017705	0.250161
C287	C	1.116395	0.232295	0.500161
C288	C	1.366395	0.482295	0.750161
C289	C	0.523574	-0.714314	0.000097
C290	C	0.773574	-0.464314	0.250097
C291	C	1.023574	-0.214314	0.500097
C292	C	1.273574	0.035686	0.750097
C293	C	0.523061	-0.764728	0.000096
C294	C	0.773061	-0.514728	0.250096
C295	C	1.023061	-0.264728	0.500096
C296	C	1.273061	-0.014728	0.750096
C297	C	0.611221	-0.776889	0.000123
C298	C	0.861221	-0.526889	0.250123
C299	C	1.111221	-0.276889	0.500123
C300	C	1.361221	-0.026889	0.750123
C301	C	0.611733	-0.726474	0.000131
C302	C	0.861733	-0.476474	0.250131
C303	C	1.111733	-0.226474	0.500131
C304	C	1.361733	0.023526	0.750131
C305	C	0.567909	-0.695187	0.000109
C306	C	0.817909	-0.445187	0.250109
C307	C	1.067909	-0.195187	0.500109
C308	C	1.317909	0.054813	0.750109
C309	C	0.617467	-0.161835	0.000181
C310	C	0.867467	0.088165	0.250181
C311	C	1.117467	0.338165	0.500181
C312	C	1.367467	0.588165	0.750181
C313	C	0.617975	-0.111418	0.000195
C314	C	0.867975	0.138582	0.250195
C315	C	1.117975	0.388582	0.500195
C316	C	1.367975	0.638582	0.750195
C317	C	0.529816	-0.099261	0.000163
C318	C	0.779816	0.150739	0.250163
C319	C	1.029816	0.400739	0.500163
C320	C	1.279816	0.650739	0.750163
C321	C	0.529307	-0.149674	0.000154
C322	C	0.779307	0.100326	0.250154
C323	C	1.029307	0.350326	0.500154
C324	C	1.279307	0.600326	0.750154
C325	C	0.573137	-0.180960	0.000160
C326	C	0.823137	0.069040	0.250160
C327	C	1.073137	0.319040	0.500160
C328	C	1.323137	0.569040	0.750160
O329	O	0.491038	-0.224262	0.000157
O330	O	0.741038	0.025738	0.250157
O331	O	0.991038	0.275738	0.500157
O332	O	1.241038	0.525738	0.750157
O333	O	0.654146	-0.246800	0.000160
O334	O	0.904146	0.003200	0.250160
O335	O	1.154146	0.253200	0.500160
O336	O	1.404146	0.503200	0.750160
C337	C	0.614346	-0.469356	0.000133
C338	C	0.864346	-0.219356	0.250133
C339	C	1.114346	0.030644	0.500133
C340	C	1.364346	0.280644	0.750133
C341	C	0.570012	-0.488481	0.000111
C342	C	0.820012	-0.238481	0.250111
C343	C	1.070012	0.011519	0.500111
C344	C	1.320012	0.261519	0.750111
C345	C	0.526191	-0.457193	0.000098
C346	C	0.776191	-0.207193	0.250098
C347	C	1.026191	0.042807	0.500098
C348	C	1.276191	0.292807	0.750098
C349	C	0.569499	-0.538895	0.000111
C350	C	0.819499	-0.288895	0.250111
C351	C	1.069499	-0.038895	0.500111
C352	C	1.319499	0.211105	0.750111
C353	C	0.613321	-0.570183	0.000123
C354	C	0.863321	-0.320183	0.250123
C355	C	1.113321	-0.070183	0.500123
C356	C	1.363321	0.179817	0.750123
C357	C	0.657655	-0.551056	0.000136
C358	C	0.907655	-0.301056	0.250136
C359	C	1.157655	-0.051056	0.500136
C360	C	1.407655	0.198944	0.750136
C361	C	0.658167	-0.500644	0.000145
C362	C	0.908167	-0.250644	0.250145
C363	C	1.158167	-0.000644	0.500145
C364	C	1.408167	0.249356	0.750145
C365	C	0.481857	-0.476320	0.000085
C366	C	0.731857	-0.226320	0.250085
C367	C	0.981857	0.023680	0.500085
C368	C	1.231857	0.273680	0.750085
C369	C	0.481348	-0.526733	0.000077
C370	C	0.731348	-0.276733	0.250077
C371	C	0.981348	-0.026733	0.500077
C372	C	1.231348	0.223267	0.750077
C373	C	0.525170	-0.558020	0.000090
C374	C	0.775170	-0.308020	0.250090
C375	C	1.025170	-0.058020	0.500090
C376	C	1.275170	0.191980	0.750090
C377	C	0.658920	0.057744	0.000175
C378	C	0.908920	0.307744	0.250175
C379	C	1.158920	0.557744	0.500175
C380	C	1.408920	0.807744	0.750175
C381	C	0.712574	0.058300	0.000184
C382	C	0.962574	0.308300	0.250184
C383	C	1.212574	0.558300	0.500184
C384	C	1.462574	0.808300	0.750184
C385	C	0.566329	0.150330	0.000124
C386	C	0.816329	0.400330	0.250124
C387	C	1.066329	0.650330	0.500124
C388	C	1.316329	0.900330	0.750124
C389	C	0.566883	0.203984	0.000109
C390	C	0.816883	0.453984	0.250109
C391	C	1.066883	0.703984	0.500109
C392	C	1.316883	0.953984	0.750109
N393	N	0.562164	0.070298	0.265668
N394	N	0.812164	0.320298	0.515668
N395	N	1.062164	0.570298	0.765668
N396	N	1.312164	0.820298	1.015668
N397	N	0.578876	0.053553	-0.265368
N398	N	0.828876	0.303553	-0.015368
N399	N	1.078876	0.553553	0.234632
N400	N	1.328876	0.803553	0.484632
C401	C	0.555605	0.076875	0.474707
C402	C	0.805605	0.326875	0.724707
C403	C	1.055605	0.576875	0.974707
C404	C	1.305605	0.826875	1.224707
C405	C	0.585432	0.046977	0.525600
C406	C	0.835432	0.296977	0.775600
C407	C	1.085432	0.546977	1.025600
C408	C	1.335432	0.796977	1.275600
C409	C	0.581783	0.050637	0.641916
C410	C	0.831783	0.300637	0.891916
C411	C	1.081783	0.550637	1.141916
C412	C	1.331783	0.800637	1.391916
C413	C	0.559254	0.073216	0.358380
C414	C	0.809254	0.323216	0.608380
C415	C	1.059254	0.573216	0.858380
C416	C	1.309254	0.823216	1.108380
H417	H	-0.271707	-0.021628	0.000195
H418	H	-0.021707	0.228372	0.250195
H419	H	0.228293	0.478372	0.500195
H420	H	0.478293	0.728372	0.750195
Br421	Br	-0.310764	0.162108	0.000155
Br422	Br	-0.060764	0.412108	0.250155
Br423	Br	0.189236	0.662108	0.500155
Br424	Br	0.439236	0.912108	0.750155
H425	H	0.653157	-0.187303	0.000182
H426	H	0.903157	0.062697	0.250182
H427	H	1.153157	0.312697	0.500182
H428	H	1.403157	0.562697	0.750182
Br429	Br	0.719879	-0.323462	0.000176
Br430	Br	0.969879	-0.073462	0.250176
Br431	Br	1.219879	0.176538	0.500176
Br432	Br	1.469879	0.426538	0.750176
Br433	Br	0.717126	-0.593528	0.000162
Br434	Br	0.967126	-0.343528	0.250162
Br435	Br	1.217126	-0.093528	0.500162
Br436	Br	1.467126	0.156472	0.750162
Br437	Br	0.508479	0.124117	0.547680
Br438	Br	0.758479	0.374117	0.797680
Br439	Br	1.008479	0.624117	1.047680
Br440	Br	1.258479	0.874117	1.297680
Br441	Br	0.332969	-0.039468	0.000139
Br442	Br	0.582969	0.210532	0.250139
Br443	Br	0.832969	0.460532	0.500139
Br444	Br	1.082969	0.710532	0.750139
Br445	Br	-0.163271	-0.044498	0.000213
Br446	Br	0.086729	0.205502	0.250213
Br447	Br	0.336729	0.455502	0.500213
Br448	Br	0.586729	0.705502	0.750213
Br449	Br	-0.044097	-0.087430	0.000186
Br450	Br	0.205903	0.162570	0.250186
Br451	Br	0.455903	0.412570	0.500186
Br452	Br	0.705903	0.662570	0.750186
Br453	Br	0.185126	0.211274	0.000122
Br454	Br	0.435126	0.461274	0.250122
Br455	Br	0.685126	0.711274	0.500122
Br456	Br	0.935126	0.961274	0.750122
Br457	Br	0.421170	-0.552679	0.000054
Br458	Br	0.671170	-0.302679	0.250054
Br459	Br	0.921170	-0.052679	0.500054
Br460	Br	1.171170	0.197321	0.750054
H461	H	0.654081	-0.095850	0.000216
H462	H	0.904081	0.154150	0.250216
H463	H	1.154081	0.404150	0.500216
H464	H	1.404081	0.654150	0.750216
Br465	Br	0.422378	-0.433865	0.000063
Br466	Br	0.672378	-0.183865	0.250063
Br467	Br	0.922378	0.066135	0.500063
Br468	Br	1.172378	0.316135	0.750063
Br469	Br	0.632764	-0.000064	0.452627
Br470	Br	0.882764	0.249936	0.702627
Br471	Br	1.132764	0.499936	0.952627
Br472	Br	1.382764	0.749936	1.202627
H473	H	0.057731	-0.062432	0.000197
H474	H	0.307731	0.187568	0.250197
H475	H	0.557731	0.437568	0.500197
H476	H	0.807731	0.687568	0.750197
Br477	Br	0.423913	-0.282614	0.000049
Br478	Br	0.673913	-0.032614	0.250049
Br479	Br	0.923913	0.217386	0.500049
Br480	Br	1.173913	0.467386	0.750049
Br481	Br	0.451805	-0.038256	0.000130
Br482	Br	0.701805	0.211744	0.250130
Br483	Br	0.951805	0.461744	0.500130
Br484	Br	1.201805	0.711744	0.750130
Br485	Br	0.066312	0.210069	0.000132
Br486	Br	0.316312	0.460069	0.250132
Br487	Br	0.566312	0.710069	0.500132
Br488	Br	0.816312	0.960069	0.750132
Br489	Br	0.718672	-0.442273	0.000180
Br490	Br	0.968672	-0.192273	0.250180
Br491	Br	1.218672	0.057727	0.500180
Br492	Br	1.468672	0.307727	0.750180
Br493	Br	0.671906	-0.700525	0.000164
Br494	Br	0.921906	-0.450525	0.250164
Br495	Br	1.171906	-0.200525	0.500164
Br496	Br	1.421906	0.049475	0.750164
Br497	Br	0.225969	-0.084684	0.000188
Br498	Br	0.475969	0.165316	0.250188
Br499	Br	0.725969	0.415316	0.500188
Br500	Br	0.975969	0.665316	0.750188
H501	H	0.486957	-0.780293	0.000095
H502	H	0.736957	-0.530293	0.250095
H503	H	0.986957	-0.280293	0.500095
H504	H	1.236957	-0.030293	0.750095
Br505	Br	0.423124	0.169549	0.000064
Br506	Br	0.673124	0.419549	0.250064
Br507	Br	0.923124	0.669549	0.500064
Br508	Br	1.173124	0.919549	0.750064
Br509	Br	0.304306	0.168348	0.000105
Br510	Br	0.554306	0.418348	0.250105
Br511	Br	0.804306	0.668348	0.500105
Br512	Br	1.054306	0.918348	0.750105
Br513	Br	-0.084942	0.208540	0.000189
Br514	Br	0.165058	0.458540	0.250189
Br515	Br	0.415058	0.708540	0.500189
Br516	Br	0.665058	0.958540	0.750189
Br517	Br	0.464092	-0.671859	0.000066
Br518	Br	0.714092	-0.421859	0.250066
Br519	Br	0.964092	-0.171859	0.500066
Br520	Br	1.214092	0.078141	0.750066
Br521	Br	0.469135	-0.175628	0.000147
Br522	Br	0.719135	0.074372	0.250147
Br523	Br	0.969135	0.324372	0.500147
Br524	Br	1.219135	0.574372	0.750147
Br525	Br	0.107139	-0.085897	0.000188
Br526	Br	0.357139	0.164103	0.250188
Br527	Br	0.607139	0.414103	0.500188
Br528	Br	0.857139	0.664103	0.750188
Br529	Br	-0.191925	0.163316	0.000144
Br530	Br	0.058075	0.413316	0.250144
Br531	Br	0.308075	0.663316	0.500144
Br532	Br	0.558075	0.913316	0.750144
H533	H	0.023497	0.185677	0.000158
H534	H	0.273497	0.435677	0.250158
H535	H	0.523497	0.685677	0.500158
H536	H	0.773497	0.935677	0.750158
H537	H	0.446772	-0.391052	0.000058
H538	H	0.696772	-0.141052	0.250058
H539	H	0.946772	0.108948	0.500058
H540	H	1.196772	0.358948	0.750058
H541	H	0.646902	-0.802373	0.000134
H542	H	0.896902	-0.552373	0.250134
H543	H	1.146902	-0.302373	0.500134
H544	H	1.396902	-0.052373	0.750134
H545	H	0.694271	-0.485078	0.000164
H546	H	0.944271	-0.235078	0.250164
H547	H	1.194271	0.014922	0.500164
H548	H	1.444271	0.264922	0.750164
H549	H	0.494137	-0.073777	0.000156
H550	H	0.744137	0.176223	0.250156
H551	H	0.994137	0.426223	0.500156
H552	H	1.244137	0.676223	0.750156
