data_functionalizedCrystal
_audit_creation_method	'MofGen! by Chris Wilmer'
_symmetry_space_group_name_H-M	'P1'
_symmetry_Int_Tables_number	1
_symmetry_cell_setting	triclinic
loop_
_symmetry_equiv_pos_as_xyz
  x,y,z
_cell_length_a	12.759394
_cell_length_b	12.759395
_cell_length_c	12.759387
_cell_angle_alpha	89.982262
_cell_angle_beta	89.967183
_cell_angle_gamma	90.014682
loop_
_atom_site_label
_atom_site_type_symbol
_atom_site_fract_x
_atom_site_fract_y
_atom_site_fract_z
Zn1	Zn	-0.418203	1.606250	-0.593969
Zn2	Zn	-0.593924	1.606146	-0.418286
Zn3	Zn	-0.418259	1.430553	-0.418309
Zn4	Zn	-0.593841	1.430540	-0.593929
O5	O	-0.506057	1.518372	-0.506123
O6	O	-0.441525	1.753257	-0.570671
O7	O	-0.570680	1.582815	-0.271268
O8	O	-0.271231	1.453909	-0.441636
O9	O	-0.570626	1.753180	-0.441598
O10	O	-0.271190	1.582993	-0.570693
O11	O	-0.441620	1.453808	-0.271285
O12	O	-0.441539	1.283531	-0.441598
O13	O	-0.570484	1.453887	-0.740955
O14	O	-0.570538	1.283521	-0.570625
O15	O	-0.441444	1.582980	-0.740984
O16	O	-0.740934	1.582802	-0.441560
O17	O	-0.740873	1.453785	-0.570603
C18	C	-0.506036	1.245405	-0.506110
C19	C	-0.506052	1.128628	-0.506130
C20	C	-0.371837	1.128689	-0.640750
C21	C	-0.304741	1.073858	-0.708069
C22	C	-0.304760	0.964137	-0.708082
C23	C	-0.371879	0.909243	-0.640767
C24	C	-0.438974	0.964074	-0.573448
C25	C	-0.438950	1.073798	-0.573445
C26	C	-0.573183	0.964013	-0.438824
C27	C	-0.573171	1.073734	-0.438814
C28	C	-0.640302	0.909119	-0.371508
C29	C	-0.707404	0.963950	-0.304193
C30	C	-0.707383	1.073678	-0.304184
C31	C	-0.640266	1.128565	-0.371495
C32	C	-0.779024	1.518309	-0.506098
C33	C	-0.895801	1.518378	-0.506122
C34	C	-0.895811	1.652824	-0.371849
C35	C	-0.950677	1.720074	-0.304726
C36	C	-1.060399	1.720136	-0.304754
C37	C	-1.115257	1.652942	-0.371916
C38	C	-1.060391	1.585692	-0.439040
C39	C	-0.950667	1.585635	-0.439002
C40	C	-1.060381	1.451253	-0.573316
C41	C	-0.950659	1.451185	-0.573284
C42	C	-1.115239	1.384060	-0.640478
C43	C	-1.060373	1.316803	-0.707598
C44	C	-0.950644	1.316743	-0.707566
C45	C	-0.895793	1.383935	-0.640408
C46	C	-0.232023	1.518464	-0.506172
C47	C	-0.115247	1.518503	-0.506192
C48	C	-0.505948	1.518444	-0.780157
C49	C	-0.505902	1.518474	-0.896934
C50	C	-0.506078	1.792406	-0.506137
C51	C	-0.506088	1.909182	-0.506143
C52	C	-0.371503	1.384148	-0.896970
C53	C	-0.304282	1.317004	-0.951848
C54	C	-0.304244	1.317036	-1.061570
C55	C	-0.371436	1.384216	-1.116415
C56	C	-0.438657	1.451360	-1.061537
C57	C	-0.438685	1.451323	-0.951812
C58	C	-0.573060	1.585679	-1.061501
C59	C	-0.573094	1.585654	-0.951779
C60	C	-0.640252	1.652859	-1.116346
C61	C	-0.707469	1.720010	-1.061467
C62	C	-0.707503	1.719976	-0.951739
C63	C	-0.640315	1.652798	-0.896900
C64	C	-0.506089	1.518362	-0.233156
C65	C	-0.505839	1.518535	-0.116379
H66	H	-0.640238	1.217906	-0.371489
H67	H	-0.371409	1.384226	-1.205757
H68	H	-0.762042	0.919247	-0.249386
H69	H	-0.640333	1.652768	-0.807559
N70	N	-0.779945	1.792449	-1.120618
H71	H	-0.769728	1.782273	-1.198453
H72	H	-0.763616	1.867489	-1.101456
H73	H	-0.906003	1.774785	-0.250045
N74	N	-0.371526	1.384123	-0.778628
H75	H	-0.390828	1.312036	-0.752184
H76	H	-0.424294	1.436900	-0.752268
H77	H	-0.806470	1.652767	-0.371806
H78	H	-1.204580	1.384119	-0.640501
N79	N	-1.119532	1.244335	-0.780033
H80	H	-1.164975	1.287036	-0.828769
H81	H	-1.165076	1.195710	-0.737238
H82	H	-0.371880	0.819902	-0.640775
H83	H	-0.640222	1.652875	-1.205687
N84	N	-0.371814	1.247031	-0.640751
H85	H	-0.352404	1.273440	-0.568716
H86	H	-0.443921	1.273376	-0.659974
H87	H	-0.250093	1.118565	-0.762874
N88	N	-0.640308	0.790777	-0.371518
H89	H	-0.659716	0.764373	-0.443556
H90	H	-0.692993	0.764403	-0.318614
N91	N	-1.119580	1.792656	-0.232345
H92	H	-1.197411	1.782491	-0.242556
H93	H	-1.100336	1.867677	-0.248741
H94	H	-0.250119	0.919494	-0.762893
H95	H	-1.204598	1.653007	-0.371942
H96	H	-0.905978	1.261984	-0.762231
N97	N	-0.777451	1.383869	-0.640363
H98	H	-0.750949	1.455919	-0.659719
H99	H	-0.751098	1.331026	-0.693066
H100	H	-0.249578	1.262305	-0.907181
N101	N	-0.779743	1.132814	-0.231567
H102	H	-0.822258	1.081387	-0.188928
H103	H	-0.828414	1.178351	-0.274234
N104	N	-0.780015	1.792391	-0.892553
H105	H	-0.822570	1.834946	-0.943952
H106	H	-0.737277	1.841022	-0.847041
H107	H	-0.249508	1.262360	-1.106252
