data_functionalizedCrystal
_audit_creation_method	'MofGen! by Chris Wilmer'
_symmetry_space_group_name_H-M	'P1'
_symmetry_Int_Tables_number	1
_symmetry_cell_setting	triclinic
loop_
_symmetry_equiv_pos_as_xyz
  x,y,z
_cell_length_a	10.967926
_cell_length_b	12.837942
_cell_length_c	10.065875
_cell_angle_alpha	99.723749
_cell_angle_beta	93.120479
_cell_angle_gamma	89.656601
loop_
_atom_site_label
_atom_site_type_symbol
_atom_site_fract_x
_atom_site_fract_y
_atom_site_fract_z
O1	O	1.633692	0.181573	0.270742
O2	O	1.283989	0.184546	0.188491
O3	O	1.451085	0.031857	0.227801
O4	O	1.466596	0.334261	0.231432
O5	O	1.419236	0.061095	0.447297
O6	O	1.252140	0.213784	0.407987
O7	O	1.601843	0.210810	0.490238
Zn8	Zn	1.421935	0.216939	0.483962
Zn9	Zn	1.463897	0.178417	0.194767
O10	O	1.434747	0.363499	0.450928
C11	C	1.222993	0.196739	0.287638
C12	C	1.088693	0.189499	0.256051
C13	C	1.012319	0.201418	0.355674
C14	C	0.873513	0.193935	0.323029
C15	C	1.429922	0.007653	0.336316
C16	C	1.414297	-0.108029	0.332638
C17	C	1.602145	-0.341725	0.376792
C18	C	1.587470	-0.450418	0.373338
C19	C	1.370273	-0.434113	0.322267
C20	C	1.384948	-0.325420	0.325721
C21	C	1.500888	-0.279229	0.352987
C22	C	1.515561	-0.170532	0.356450
C23	C	1.298366	-0.154230	0.305370
C24	C	1.283691	-0.262924	0.301916
C25	C	1.662840	0.198617	0.391088
C26	C	1.797141	0.205855	0.422666
C27	C	1.455911	0.387703	0.342410
C28	C	1.471537	0.503383	0.346079
N29	N	1.393305	0.243229	0.681333
N30	N	1.492535	0.152119	-0.002602
C31	C	1.453928	0.187557	0.763373
C32	C	1.431904	0.207799	0.915359
H33	H	0.836144	0.178188	0.213564
O34	O	1.582884	0.069123	0.941409
H35	H	1.623932	0.031416	1.024625
O36	O	1.696686	-0.517820	0.399024
H37	H	1.667009	-0.601164	0.392034
O38	O	0.846620	0.226716	0.567673
H39	H	0.947878	0.229330	0.570562
O40	O	1.039205	0.168649	0.111053
H41	H	0.937947	0.166053	0.108167
H42	H	1.189297	-0.300548	0.279712
H43	H	1.215914	-0.103333	0.285996
H44	H	1.325094	0.305874	0.723612
O45	O	1.061811	0.222282	0.500670
H46	H	1.121135	0.155633	0.520465
O47	O	1.640605	-0.120706	0.385839
H48	H	1.708551	-0.182432	0.401793
O49	O	1.544241	0.104537	0.707378
H50	H	1.547352	0.101655	0.596786
H51	H	1.363689	0.270448	0.957632
H52	H	1.275882	-0.471743	0.300055
O53	O	1.727185	-0.291893	0.406196
H54	H	1.795134	-0.353613	0.422164
