data_functionalizedCrystal
_audit_creation_method	'MofGen! by Chris Wilmer'
_symmetry_space_group_name_H-M	'P1'
_symmetry_Int_Tables_number	1
_symmetry_cell_setting	triclinic
loop_
_symmetry_equiv_pos_as_xyz
  x,y,z
_cell_length_a	10.685976
_cell_length_b	18.101397
_cell_length_c	10.686551
_cell_angle_alpha	85.588535
_cell_angle_beta	89.651515
_cell_angle_gamma	85.657616
loop_
_atom_site_label
_atom_site_type_symbol
_atom_site_fract_x
_atom_site_fract_y
_atom_site_fract_z
Zn1	Zn	1.972142	-0.358104	-0.561821
Zn2	Zn	2.472142	0.141896	-0.061821
Zn3	Zn	1.955890	-0.490684	-0.352044
Zn4	Zn	2.455890	0.009316	0.147956
Zn5	Zn	1.746270	-0.356714	-0.368196
Zn6	Zn	2.246270	0.143286	0.131804
Zn7	Zn	1.762332	-0.471757	-0.577874
Zn8	Zn	2.262332	0.028243	-0.077874
O9	O	1.859158	-0.419315	-0.464984
O10	O	2.359158	0.080685	0.035016
O11	O	2.145519	-0.384195	-0.520515
O12	O	2.645519	0.115805	-0.020515
O13	O	1.914560	-0.480252	-0.178643
O14	O	2.414560	0.019748	0.321357
O15	O	1.776312	-0.253267	-0.393922
O16	O	2.276312	0.246733	0.106078
O17	O	2.133579	-0.481600	-0.366393
O18	O	2.633579	0.018400	0.133607
O19	O	1.942259	-0.254289	-0.536178
O20	O	2.442259	0.245711	-0.036178
O21	O	1.760553	-0.381824	-0.190510
O22	O	2.260553	0.118176	0.309490
O23	O	1.572868	-0.363471	-0.409489
O24	O	2.072868	0.136529	0.090511
O25	O	1.803687	-0.449342	-0.751288
O26	O	2.303687	0.050658	-0.251288
O27	O	1.584668	-0.447993	-0.563538
O28	O	2.084668	0.052007	-0.063538
O29	O	1.957834	-0.365842	-0.739493
O30	O	2.457834	0.134158	-0.239493
O31	O	1.930134	-0.591805	-0.381959
O32	O	2.430134	-0.091805	0.118041
O33	O	1.787928	-0.577899	-0.547875
O34	O	2.287928	-0.077899	-0.047875
C35	C	1.533254	-0.403528	-0.490009
C36	C	2.033254	0.096472	0.009991
C37	C	1.393833	-0.396791	-0.500744
C38	C	1.893833	0.103209	-0.000744
C39	C	1.859046	-0.611723	-0.464931
C40	C	2.359046	-0.111723	0.035069
C41	C	1.859117	-0.694040	-0.464942
C42	C	2.359117	-0.194040	0.035058
C43	C	1.859285	-0.993133	-0.465044
C44	C	2.359285	-0.493133	0.034956
C45	C	1.948468	-0.970524	-0.360415
C46	C	2.448468	-0.470524	0.139585
C47	C	1.948822	-0.884911	-0.360641
C48	C	2.448822	-0.384911	0.139359
C49	C	1.859202	-0.844750	-0.464992
C50	C	2.359202	-0.344750	0.035008
C51	C	1.905192	-0.871982	-0.594465
C52	C	2.405192	-0.371982	-0.094465
C53	C	1.905899	-0.957685	-0.593879
C54	C	2.405899	-0.457685	-0.093879
C55	C	1.723943	-0.956629	-0.441364
C56	C	2.223943	-0.456629	0.058636
C57	C	1.724372	-0.871135	-0.438362
C58	C	2.224372	-0.371135	0.061638
C59	C	1.859153	-0.760889	-0.464971
C60	C	2.359153	-0.260889	0.035029
C61	C	1.859338	-1.076994	-0.465073
C62	C	2.359338	-0.576994	0.034927
C63	C	2.186335	-0.435164	-0.439861
C64	C	2.686335	0.064836	0.060139
C65	C	2.325759	-0.441918	-0.429156
C66	C	2.825759	0.058082	0.070844
C67	C	1.884365	-0.405636	-0.792180
C68	C	2.384365	0.094364	-0.292180
C69	C	1.895106	-0.399806	-0.931611
C70	C	2.395106	0.100194	-0.431611
C71	C	1.859307	-0.226156	-0.465061
C72	C	2.359307	0.273844	0.034939
C73	C	1.859371	-0.143843	-0.465094
C74	C	2.359371	0.356157	0.034906
C75	C	1.834123	-0.432891	-0.139055
C76	C	2.334123	0.067109	0.360945
C77	C	1.823624	-0.438523	0.000395
C78	C	2.323624	0.061477	0.500395
H79	H	1.345454	-0.353003	-0.570255
H80	H	1.845454	0.146997	-0.070255
H81	H	1.374145	-0.485714	-0.359652
H82	H	1.874145	0.014286	0.140348
Br83	Br	2.115576	-0.857039	-0.385415
Br84	Br	2.615576	-0.357039	0.114585
H85	H	1.844343	-0.972033	-0.673970
H86	H	2.344343	-0.472033	-0.173970
H87	H	1.918766	-0.994192	-0.263778
H88	H	2.418766	-0.494192	0.236222
Br89	Br	1.898812	-0.854964	-0.200126
Br90	Br	2.398812	-0.354964	0.299874
H91	H	1.657370	-0.970460	-0.517694
H92	H	2.157370	-0.470460	-0.017694
H93	H	1.689877	-0.853623	-0.343130
H94	H	2.189877	-0.353623	0.156870
Br95	Br	2.114297	-1.012652	-0.384816
Br96	Br	2.614297	-0.512652	0.115184
H97	H	2.005131	-0.981105	-0.615123
H98	H	2.505131	-0.481105	-0.115123
H99	H	1.754212	-0.476133	-0.951149
H100	H	2.254212	0.023867	-0.451149
H101	H	1.842663	-0.845222	-0.674080
H102	H	2.342663	-0.345222	-0.174080
Br103	Br	2.068837	-0.841850	-0.630829
Br104	Br	2.568837	-0.341850	-0.130829
H105	H	1.684065	-0.980660	-0.349121
H106	H	2.184065	-0.480660	0.150879
H107	H	1.964532	-0.362200	-0.980073
H108	H	2.464532	0.137800	-0.480073
H109	H	1.653528	-0.843343	-0.509806
H110	H	2.153528	-0.343343	-0.009806
