data_functionalizedCrystal
_audit_creation_method	'MofGen! by Chris Wilmer'
_symmetry_space_group_name_H-M	'P1'
_symmetry_Int_Tables_number	1
_symmetry_cell_setting	triclinic
loop_
_symmetry_equiv_pos_as_xyz
  x,y,z
_cell_length_a	19.188930
_cell_length_b	19.188940
_cell_length_c	18.266242
_cell_angle_alpha	90.011404
_cell_angle_beta	90.015506
_cell_angle_gamma	83.146747
loop_
_atom_site_label
_atom_site_type_symbol
_atom_site_fract_x
_atom_site_fract_y
_atom_site_fract_z
O1	O	0.926144	0.087174	0.061117
O2	O	1.259477	0.420507	0.394450
O3	O	1.592811	0.753841	0.727784
O4	O	0.722833	0.098908	0.061067
O5	O	1.056167	0.432241	0.394400
O6	O	1.389500	0.765575	0.727734
O7	O	0.830352	-0.008614	0.061088
O8	O	1.163686	0.324719	0.394421
O9	O	1.497019	0.658053	0.727754
O10	O	0.818625	0.194696	0.061096
O11	O	1.151958	0.528030	0.394429
O12	O	1.485292	0.861363	0.727763
O13	O	0.830350	-0.008631	-0.060674
O14	O	1.163684	0.324702	0.272659
O15	O	1.497017	0.658036	0.605992
O16	O	0.722831	0.098891	-0.060695
O17	O	1.056165	0.432225	0.272638
O18	O	1.389498	0.765558	0.605972
O19	O	0.926142	0.087157	-0.060645
O20	O	1.259476	0.420491	0.272688
O21	O	1.592809	0.753824	0.606022
Zn22	Zn	0.824487	0.093022	-0.080002
Zn23	Zn	1.157820	0.426355	0.253331
Zn24	Zn	1.491153	0.759688	0.586664
Zn25	Zn	0.824489	0.093044	0.080424
Zn26	Zn	1.157822	0.426377	0.413758
Zn27	Zn	1.491156	0.759710	0.747091
O28	O	0.818623	0.194679	-0.060666
O29	O	1.151957	0.528013	0.272667
O30	O	1.485290	0.861346	0.606001
C31	C	0.696821	0.098520	0.000179
C32	C	1.030155	0.431853	0.333513
C33	C	1.363488	0.765186	0.666846
C34	C	0.619317	0.097379	0.000160
C35	C	0.952650	0.430712	0.333494
C36	C	1.285983	0.764046	0.666827
C37	C	0.574395	0.160470	0.000174
C38	C	0.907728	0.493803	0.333508
C39	C	1.241062	0.827136	0.666841
C40	C	0.501571	0.159398	0.000182
C41	C	0.834904	0.492731	0.333516
C42	C	1.168238	0.826065	0.666849
C43	C	0.473672	0.095232	0.000191
C44	C	0.807006	0.428566	0.333524
C45	C	1.140339	0.761899	0.666858
C46	C	0.518604	0.032133	0.000173
C47	C	0.851937	0.365467	0.333506
C48	C	1.185271	0.698800	0.666839
C49	C	0.591426	0.033207	0.000157
C50	C	0.924759	0.366540	0.333491
C51	C	1.258093	0.699873	0.666824
N52	N	0.365691	0.046191	0.041659
N53	N	0.699024	0.379524	0.374993
N54	N	1.032358	0.712858	0.708326
N55	N	0.296512	0.045176	0.041675
N56	N	0.629846	0.378509	0.375009
N57	N	0.963179	0.711842	0.708342
C58	C	0.254264	0.091994	0.000236
C59	C	0.587597	0.425327	0.333569
C60	C	0.920930	0.758661	0.666902
N61	N	0.283805	0.139877	-0.041212
N62	N	0.617139	0.473210	0.292121
N63	N	0.950472	0.806544	0.625455
N64	N	0.352990	0.140894	-0.041225
N65	N	0.686323	0.474228	0.292109
N66	N	1.019657	0.807561	0.625442
C67	C	0.394710	0.094061	0.000207
C68	C	0.728043	0.427394	0.333540
C69	C	1.061376	0.760728	0.666874
C70	C	0.130377	0.153927	0.000257
C71	C	0.463711	0.487260	0.333591
C72	C	0.797044	0.820594	0.666924
C73	C	0.057553	0.152853	0.000261
C74	C	0.390886	0.486186	0.333594
C75	C	0.724219	0.819519	0.666927
C76	C	0.074587	0.025586	0.000259
C77	C	0.407920	0.358920	0.333592
C78	C	0.741254	0.692253	0.666925
C79	C	0.147410	0.026662	0.000248
C80	C	0.480743	0.359996	0.333581
C81	C	0.814077	0.693329	0.666914
C82	C	0.175301	0.090835	0.000251
C83	C	0.508634	0.424168	0.333584
C84	C	0.841967	0.757501	0.666917
C85	C	0.829970	-0.034633	0.000207
C86	C	1.163304	0.298700	0.333540
C87	C	1.496637	0.632033	0.666873
C88	C	0.828827	-0.112138	0.000207
C89	C	1.162160	0.221196	0.333540
C90	C	1.495494	0.554529	0.666874
C91	C	0.820691	-0.665406	-0.066150
C92	C	1.154025	-0.332073	0.267183
C93	C	1.487358	0.001261	0.600516
C94	C	0.821758	-0.592581	-0.066154
C95	C	1.155092	-0.259248	0.267179
C96	C	1.488425	0.074085	0.600513
C97	C	0.822296	-0.556153	0.000218
C98	C	1.155629	-0.222819	0.333551
C99	C	1.488963	0.110514	0.666884
C100	C	0.821749	-0.592552	0.066598
C101	C	1.155082	-0.259219	0.399931
C102	C	1.488415	0.074114	0.733265
C103	C	0.820675	-0.665374	0.066600
C104	C	1.154008	-0.332041	0.399933
C105	C	1.487342	0.001292	0.733267
N106	N	0.863713	-0.447122	0.049630
N107	N	1.197046	-0.113789	0.382963
N108	N	1.530379	0.219545	0.716296
N109	N	0.864734	-0.377944	0.049623
N110	N	1.198068	-0.044611	0.382957
N111	N	1.531401	0.288722	0.716290
C112	C	0.825530	-0.336744	0.000216
C113	C	1.158863	-0.003410	0.333549
C114	C	1.492196	0.329923	0.666883
N115	N	0.785273	-0.367335	-0.049196
N116	N	1.118607	-0.034002	0.284137
N117	N	1.451940	0.299331	0.617471
N118	N	0.784255	-0.436520	-0.049192
N119	N	1.117588	-0.103186	0.284141
N120	N	1.450922	0.230147	0.617475
C121	C	0.823460	-0.477189	0.000223
C122	C	1.156793	-0.143856	0.333556
C123	C	1.490126	0.189477	0.666890
C124	C	0.827228	-0.221388	-0.066164
C125	C	1.160562	0.111946	0.267169
C126	C	1.493895	0.445279	0.600502
C127	C	0.828291	-0.148561	-0.066166
C128	C	1.161624	0.184772	0.267168
C129	C	1.494957	0.518105	0.600501
C130	C	0.828288	-0.148534	0.066589
C131	C	1.161622	0.184799	0.399922
C132	C	1.494955	0.518132	0.733255
C133	C	0.827219	-0.221358	0.066588
C134	C	1.160552	0.111975	0.399921
C135	C	1.493885	0.445308	0.733254
C136	C	0.826692	-0.257781	0.000209
C137	C	1.160026	0.075552	0.333542
C138	C	1.493359	0.408885	0.666876
C139	C	0.952154	0.087546	0.000244
C140	C	1.285488	0.420879	0.333577
C141	C	1.618821	0.754212	0.666911
C142	C	1.029659	0.088686	0.000268
C143	C	1.362992	0.422020	0.333601
C144	C	1.696325	0.755353	0.666935
C145	C	0.819005	0.220699	0.000217
C146	C	1.152338	0.554032	0.333550
C147	C	1.485672	0.887365	0.666883
C148	C	0.820148	0.298203	0.000221
C149	C	1.153482	0.631536	0.333555
C150	C	1.486815	0.964870	0.666888
N151	N	0.824490	0.093006	-0.189489
N152	N	1.157823	0.426339	0.143844
N153	N	1.491157	0.759673	0.477177
N154	N	0.824491	0.093054	0.189911
N155	N	1.157824	0.426387	0.523245
N156	N	1.491158	0.759720	0.856578
C157	C	0.866606	0.135345	0.772219
C158	C	1.199939	0.468679	1.105552
C159	C	1.533273	0.802012	1.438886
C160	C	0.866611	0.135349	0.695574
C161	C	1.199945	0.468682	1.028907
C162	C	1.533278	0.802015	1.362241
C163	C	0.824487	0.093021	0.657224
C164	C	1.157821	0.426354	0.990557
C165	C	1.491154	0.759688	1.323890
C166	C	0.782369	0.050673	0.695525
C167	C	1.115702	0.384007	1.028858
C168	C	1.449036	0.717340	1.362191
C169	C	0.782370	0.050666	0.772168
C170	C	1.115703	0.383999	1.105502
C171	C	1.449037	0.717332	1.438835
N172	N	0.763347	0.091191	0.536869
N173	N	1.096681	0.424524	0.870202
N174	N	1.430014	0.757857	1.203536
N175	N	0.763348	0.091202	0.464061
N176	N	1.096681	0.424535	0.797394
N177	N	1.430015	0.757868	1.130727
C178	C	0.824482	0.093039	0.426301
C179	C	1.157816	0.426373	0.759635
C180	C	1.491149	0.759706	1.092968
N181	N	0.885617	0.094880	0.464101
N182	N	1.218950	0.428213	0.797434
N183	N	1.552283	0.761546	1.130767
N184	N	0.885615	0.094872	0.536915
N185	N	1.218948	0.428206	0.870249
N186	N	1.552282	0.761539	1.203582
C187	C	0.824482	0.093024	0.574117
C188	C	1.157815	0.426357	0.907450
C189	C	1.491148	0.759691	1.240783
C190	C	0.866608	0.135384	0.304902
C191	C	1.199941	0.468718	0.638236
C192	C	1.533274	0.802051	0.971569
C193	C	0.866614	0.135383	0.228256
C194	C	1.199948	0.468716	0.561590
C195	C	1.533281	0.802049	0.894923
C196	C	0.782365	0.050711	0.228208
C197	C	1.115699	0.384045	0.561542
C198	C	1.449032	0.717378	0.894875
C199	C	0.782365	0.050709	0.304853
C200	C	1.115699	0.384042	0.638187
C201	C	1.449032	0.717376	0.971520
C202	C	0.824485	0.093049	0.343196
C203	C	1.157818	0.426383	0.676529
C204	C	1.491152	0.759716	1.009862
H205	H	0.183987	-0.024713	0.000240
H206	H	0.517320	0.308620	0.333574
H207	H	0.850653	0.641954	0.666907
O208	O	0.822329	-0.553262	0.138184
O209	O	1.155662	-0.219928	0.471517
O210	O	1.488995	0.113405	0.804850
H211	H	0.774540	-0.560857	0.169992
H212	H	1.107873	-0.227524	0.503326
H213	H	1.441206	0.105809	0.836659
H214	H	0.820232	-0.695003	0.120650
H215	H	1.153565	-0.361670	0.453983
H216	H	1.486899	-0.028337	0.787316
O217	O	0.160465	0.223138	0.000244
O218	O	0.493799	0.556471	0.333577
O219	O	0.827132	0.889805	0.666910
H220	H	0.142419	0.253458	0.049869
H221	H	0.475753	0.586792	0.383202
H222	H	0.809086	0.920125	0.716535
H223	H	0.748067	0.016235	0.336031
H224	H	1.081400	0.349568	0.669364
H225	H	1.414734	0.682901	1.002697
H226	H	0.748068	0.016246	0.196984
H227	H	1.081402	0.349580	0.530318
H228	H	1.414735	0.682913	0.863651
O229	O	0.826648	-0.260679	-0.137753
O230	O	1.159981	0.072654	0.195580
O231	O	1.493314	0.405987	0.528914
H232	H	0.827192	-0.223134	-0.183908
H233	H	1.160525	0.110199	0.149425
H234	H	1.493858	0.443532	0.482758
H235	H	0.900905	0.169860	0.336123
H236	H	1.234238	0.503193	0.669456
H237	H	1.567571	0.836527	1.002789
O238	O	0.912035	0.181015	0.654255
O239	O	1.245368	0.514349	0.987588
O240	O	1.578702	0.847682	1.320921
H241	H	0.896559	0.236841	0.668970
H242	H	1.229892	0.570174	1.002303
H243	H	1.563226	0.903507	1.335636
H244	H	0.900915	0.169858	0.197080
H245	H	1.234249	0.503192	0.530414
H246	H	1.567582	0.836525	0.863747
O247	O	0.820118	-0.704692	-0.137741
O248	O	1.153451	-0.371358	0.195593
O249	O	1.486785	-0.038025	0.528926
H250	H	0.772746	-0.684357	-0.169580
H251	H	1.106079	-0.351024	0.163753
H252	H	1.439412	-0.017690	0.497086
H253	H	0.495884	-0.020111	0.000190
H254	H	0.829217	0.313222	0.333523
H255	H	1.162551	0.646556	0.666856
H256	H	0.826781	-0.250989	0.120635
H257	H	1.160115	0.082344	0.453968
H258	H	1.493448	0.415678	0.787302
H259	H	0.900906	0.169819	0.803433
H260	H	1.234240	0.503153	1.136766
H261	H	1.567573	0.836486	1.470099
O262	O	0.453106	0.227448	0.000194
O263	O	0.786439	0.560781	0.333527
O264	O	1.119773	0.894114	0.666861
H265	H	0.419539	0.230000	0.049826
H266	H	0.752872	0.563334	0.383160
H267	H	1.086205	0.896667	0.716493
O268	O	0.828884	-0.109306	-0.137755
O269	O	1.162217	0.224027	0.195578
O270	O	1.495550	0.557361	0.528911
H271	H	0.828347	-0.146872	-0.183908
H272	H	1.161680	0.186462	0.149425
H273	H	1.495013	0.519795	0.482758
H274	H	0.597098	0.212724	0.000178
H275	H	0.930432	0.546057	0.333511
H276	H	1.263765	0.879390	0.666845
H277	H	0.748073	0.016187	0.803345
H278	H	1.081406	0.349521	1.136678
H279	H	1.414740	0.682854	1.470012
H280	H	0.628002	-0.018171	0.000146
H281	H	0.961336	0.315163	0.333480
H282	H	1.294669	0.648496	0.666813
H283	H	0.020977	0.204231	0.000268
H284	H	0.354310	0.537564	0.333601
H285	H	0.687644	0.870897	0.666935
H286	H	0.051873	-0.026659	0.000311
H287	H	0.385206	0.306674	0.333644
H288	H	0.718539	0.640008	0.666978
O289	O	0.822354	-0.553318	-0.137743
O290	O	1.155687	-0.219985	0.195591
O291	O	1.489021	0.113348	0.528924
H292	H	0.821813	-0.590881	-0.183898
H293	H	1.155146	-0.257547	0.149435
H294	H	1.488480	0.075786	0.482768
O295	O	0.828868	-0.109256	0.138179
O296	O	1.162202	0.224078	0.471512
O297	O	1.495535	0.557411	0.804846
H298	H	0.829710	-0.052504	0.127029
H299	H	1.163043	0.280830	0.460362
H300	H	1.496377	0.614163	0.793695
O301	O	0.736930	0.005021	0.654168
O302	O	1.070264	0.338355	0.987501
O303	O	1.403597	0.671688	1.320835
H304	H	0.743998	0.012145	0.594439
H305	H	1.077332	0.345479	0.927773
H306	H	1.410665	0.678812	1.261106
