data_functionalizedCrystal
_audit_creation_method	'MofGen! by Chris Wilmer'
_symmetry_space_group_name_H-M	'P1'
_symmetry_Int_Tables_number	1
_symmetry_cell_setting	triclinic
loop_
_symmetry_equiv_pos_as_xyz
  x,y,z
_cell_length_a	17.077404
_cell_length_b	16.625545
_cell_length_c	17.077396
_cell_angle_alpha	90.027926
_cell_angle_beta	90.018362
_cell_angle_gamma	90.023528
loop_
_atom_site_label
_atom_site_type_symbol
_atom_site_fract_x
_atom_site_fract_y
_atom_site_fract_z
Zn1	Zn	1.200040	-0.321045	0.443822
Zn2	Zn	1.199941	-0.455888	0.312557
Zn3	Zn	1.068772	-0.321068	0.312572
Zn4	Zn	1.068734	-0.455835	0.443783
O5	O	1.134372	-0.388459	0.378184
O6	O	1.309874	-0.338945	0.426419
O7	O	1.182516	-0.438036	0.202712
O8	O	1.086242	-0.208233	0.330005
O9	O	1.309801	-0.438013	0.329979
O10	O	1.182684	-0.208216	0.426434
O11	O	1.086146	-0.338984	0.202723
O12	O	0.958920	-0.338933	0.329968
O13	O	1.086177	-0.437923	0.553635
O14	O	0.958892	-0.437945	0.426368
O15	O	1.182647	-0.338894	0.553664
O16	O	1.182479	-0.568713	0.329942
O17	O	1.086081	-0.568674	0.426353
C18	C	0.930424	-0.388436	0.378166
C19	C	0.843174	-0.388446	0.378177
C20	C	0.802222	-0.336953	0.428470
C21	C	0.720242	-0.336958	0.428474
C22	C	0.679215	-0.388461	0.378188
C23	C	0.720172	-0.439956	0.327889
C24	C	0.802151	-0.439947	0.327882
C25	C	0.549302	-0.439975	0.327909
C26	C	0.467317	-0.439986	0.327917
C27	C	0.467393	-0.336986	0.428500
C28	C	0.549372	-0.336976	0.428493
C29	C	0.590324	-0.388473	0.378196
C30	C	1.134286	-0.597950	0.378159
C31	C	1.134322	-0.687571	0.378175
C32	C	1.134352	-0.760354	0.378190
C33	C	1.134398	-0.851662	0.378208
C34	C	1.134439	-0.924438	0.378218
C35	C	1.134483	-1.015753	0.378234
C36	C	1.339116	-0.388483	0.378202
C37	C	1.426366	-0.388493	0.378210
C38	C	1.134419	-0.388400	0.582928
C39	C	1.134439	-0.388374	0.670178
C40	C	1.134479	-0.178150	0.378226
C41	C	1.134524	-0.088529	0.378244
C42	C	1.134370	-0.388460	0.174236
C43	C	1.134501	-0.388258	0.086986
C44	C	1.184673	-0.336806	0.711184
C45	C	1.184683	-0.336779	0.793165
C46	C	1.134462	-0.388325	0.834137
C47	C	1.084222	-0.439897	0.793125
C48	C	1.084209	-0.439919	0.711146
C49	C	1.084254	-0.439848	0.963996
C50	C	1.084268	-0.439827	1.045980
C51	C	1.184727	-0.336708	1.046014
C52	C	1.184714	-0.336730	0.964035
C53	C	1.134476	-0.388303	0.923028
H54	H	0.582642	-0.481907	0.286949
H55	H	0.686903	-0.295029	0.469429
O56	O	1.035406	-0.489921	1.085661
C57	C	0.991071	-0.535454	1.031892
H58	H	0.988359	-0.502445	0.973460
H59	H	1.019776	-0.596701	1.023164
C60	C	0.910858	-0.587588	1.135645
C61	C	0.907521	-0.547043	1.063880
H62	H	0.859321	-0.594741	1.155377
H63	H	0.940729	-0.556914	1.171871
H64	H	0.934783	-0.638623	1.128362
H65	H	0.883606	-0.496006	1.071165
H66	H	0.877644	-0.577709	1.027655
H67	H	0.835621	-0.295015	0.469421
O68	O	1.233348	-0.286690	0.671302
C69	C	1.188673	-0.234607	0.623903
H70	H	1.129171	-0.263044	0.611602
H71	H	1.180079	-0.174847	0.655512
C72	C	1.304940	-0.185098	0.561151
C73	C	1.231861	-0.220028	0.546038
H74	H	1.331581	-0.176101	0.513121
H75	H	1.335039	-0.220185	0.593086
H76	H	1.297768	-0.135302	0.587494
H77	H	1.239034	-0.269828	0.519704
H78	H	1.201764	-0.184949	0.514096
H79	H	1.043332	-0.481831	0.930611
H80	H	0.582774	-0.295043	0.469445
H81	H	0.434046	-0.295054	0.469453
O82	O	1.035364	-0.489996	0.832803
C83	C	0.991037	-0.535531	0.779027
H84	H	0.988324	-0.502519	0.720597
H85	H	1.019751	-0.596773	0.770297
C86	C	0.910824	-0.587684	0.882772
C87	C	0.907487	-0.547134	0.811009
H88	H	0.859287	-0.594844	0.902500
H89	H	0.940689	-0.557008	0.919002
H90	H	0.934756	-0.638714	0.875487
H91	H	0.883564	-0.496100	0.818297
H92	H	0.877615	-0.577801	0.774780
O93	O	1.035527	-0.490054	0.671220
C94	C	1.080190	-0.542159	0.623810
H95	H	1.139691	-0.513729	0.611551
H96	H	1.088787	-0.601907	0.655389
C97	C	0.963907	-0.591686	0.560979
C98	C	1.036985	-0.556766	0.545918
H99	H	0.937255	-0.600700	0.512933
H100	H	0.933816	-0.556585	0.592922
H101	H	0.971082	-0.641472	0.587297
H102	H	1.029808	-0.506977	0.519610
H103	H	1.067073	-0.591859	0.513969
H104	H	0.433915	-0.481925	0.286970
H105	H	1.225613	-0.294761	0.930677
H106	H	0.686761	-0.481887	0.286942
O107	O	1.233557	-0.286662	0.832876
C108	C	1.277871	-0.241162	0.779134
H109	H	1.280560	-0.274206	0.720691
H110	H	1.249160	-0.179921	0.770421
C111	C	1.358125	-0.188962	0.882925
C112	C	1.361433	-0.229551	0.811146
H113	H	1.409669	-0.181796	0.902672
H114	H	1.328268	-0.219614	0.919133
H115	H	1.334196	-0.137932	0.875655
H116	H	1.385352	-0.280584	0.818418
H117	H	1.391295	-0.198907	0.774939
O118	O	1.233446	-0.286625	1.085964
C119	C	1.222697	-0.297663	1.167107
H120	H	1.162109	-0.324066	1.178286
H121	H	1.269243	-0.340591	1.190378
C122	C	1.304342	-0.183635	1.195475
C123	C	1.229924	-0.216057	1.209206
H124	H	1.308803	-0.133298	1.221445
H125	H	1.311586	-0.176200	1.140808
H126	H	1.343122	-0.219417	1.214868
H127	H	1.191146	-0.180280	1.189804
H128	H	1.222673	-0.223484	1.263871
H129	H	0.835492	-0.481877	0.286928
