data_functionalizedCrystal
_audit_creation_method	'MofGen! by Chris Wilmer'
_symmetry_space_group_name_H-M	'P1'
_symmetry_Int_Tables_number	1
_symmetry_cell_setting	triclinic
loop_
_symmetry_equiv_pos_as_xyz
  x,y,z
_cell_length_a	17.038272
_cell_length_b	27.732048
_cell_length_c	16.098538
_cell_angle_alpha	92.695138
_cell_angle_beta	87.069734
_cell_angle_gamma	86.877106
loop_
_atom_site_label
_atom_site_type_symbol
_atom_site_fract_x
_atom_site_fract_y
_atom_site_fract_z
O1	O	1.039664	0.102899	-0.069167
O2	O	0.812054	0.101233	-0.069192
O3	O	0.932928	0.031993	-0.069163
O4	O	0.918791	0.172139	-0.069196
O5	O	0.925867	0.036021	0.069348
O6	O	0.804994	0.105261	0.069320
O7	O	1.032604	0.106927	0.069344
Zn8	Zn	0.917678	0.106733	0.091323
Zn9	Zn	0.926980	0.101427	-0.091171
O10	O	0.911730	0.176167	0.069315
C11	C	0.779414	0.101731	0.000061
C12	C	0.692674	0.097211	0.000053
C13	C	0.929100	0.015987	0.000095
C14	C	0.928206	-0.037709	0.000102
C15	C	0.642076	0.138713	0.000043
C16	C	0.560575	0.134463	0.000056
C17	C	0.529672	0.088710	0.000072
C18	C	0.580276	0.047205	0.000083
C19	C	0.661776	0.051455	0.000077
C20	C	0.284088	0.073694	0.000098
C21	C	0.202582	0.069446	0.000102
C22	C	0.182886	0.156706	0.000076
C23	C	0.264389	0.160952	0.000064
C24	C	0.314985	0.119446	0.000080
C25	C	0.446365	0.084365	0.000082
C26	C	0.398290	0.123792	0.000076
C27	C	0.994011	-0.373515	0.000066
C28	C	0.990696	-0.575327	0.000054
O29	O	1.050870	-0.603831	0.000024
N30	N	0.919023	-0.597729	0.000047
C31	C	0.848173	-0.569676	0.000038
O32	O	0.787135	-0.593361	0.000023
C33	C	0.851490	-0.367865	0.000044
C34	C	0.923167	-0.345465	0.000059
C35	C	1.065683	-0.351115	0.000080
C36	C	1.066511	-0.300665	0.000088
C37	C	0.995667	-0.272615	0.000081
C38	C	0.923995	-0.295015	0.000067
C39	C	0.780641	-0.339813	0.000029
C40	C	0.781477	-0.289357	0.000028
C41	C	0.853155	-0.266957	0.000043
C42	C	0.853979	-0.216515	0.000067
N43	N	0.925652	-0.194113	0.000074
C44	C	0.996496	-0.222163	0.000081
C45	C	0.846437	-0.675629	0.000036
C46	C	0.845608	-0.726081	0.000036
C47	C	0.988131	-0.731729	0.000051
C48	C	0.988959	-0.681276	0.000057
C49	C	0.918111	-0.653227	0.000043
C50	C	0.998229	-0.116214	0.000098
C51	C	0.999051	-0.065759	0.000109
C52	C	0.856528	-0.060116	0.000090
C53	C	0.855706	-0.110566	0.000083
C54	C	0.926563	-0.138614	0.000084
O55	O	0.793838	-0.187981	0.000088
O56	O	1.057527	-0.198469	0.000077
C57	C	0.993184	-0.423965	0.000059
C58	C	0.921512	-0.446365	0.000044
C59	C	0.850668	-0.418315	0.000037
C60	C	0.920682	-0.496818	0.000044
C61	C	0.991526	-0.524868	0.000051
C62	C	1.063200	-0.502465	0.000058
C63	C	1.064028	-0.452015	0.000065
C64	C	0.778994	-0.440718	0.000030
C65	C	0.778172	-0.491168	0.000024
C66	C	0.849016	-0.519218	0.000031
C67	C	1.065245	0.106428	0.000089
C68	C	1.151985	0.110949	0.000092
C69	C	0.915558	0.192173	0.000055
C70	C	0.916452	0.245869	0.000043
N71	N	0.911335	0.110355	0.215871
N72	N	0.933330	0.097802	-0.215719
C73	C	0.962657	0.080979	0.259468
C74	C	0.958226	0.083517	0.346656
C75	C	0.902478	0.115434	0.390245
C76	C	0.851150	0.144812	0.346642
C77	C	0.855577	0.142270	0.259456
C78	C	0.886429	0.124638	0.653492
C79	C	0.882008	0.127178	0.740684
C80	C	0.989084	0.065882	0.740692
C81	C	0.993509	0.063346	0.653504
C82	C	0.942179	0.092721	0.609908
C83	C	0.897950	0.118031	0.479365
C84	C	0.946704	0.090122	0.520790
H85	H	0.519381	0.168259	0.000048
H86	H	0.325275	0.039897	0.000111
C87	C	0.821387	0.161840	0.787861
C88	C	0.777364	0.187011	0.731022
C89	C	0.721508	0.218938	0.774451
H90	H	0.847426	0.184154	0.821864
H91	H	0.787309	0.144106	0.821865
H92	H	0.811437	0.204744	0.697032
H93	H	0.751307	0.164710	0.697017
H94	H	0.687430	0.201204	0.808455
H95	H	0.747554	0.241248	0.808453
H96	H	0.691626	0.236017	0.735892
C97	C	1.075093	-0.146716	0.000234
C98	C	1.075144	-0.173791	0.071482
C99	C	1.145932	-0.201899	0.071636
H100	H	1.117954	-0.126201	0.000287
H101	H	1.080209	-0.167942	-0.048045
H102	H	1.070037	-0.152567	0.119748
H103	H	1.032299	-0.194315	0.071443
H104	H	1.151048	-0.223125	0.023357
H105	H	1.188788	-0.181380	0.071687
H106	H	1.145973	-0.220276	0.119972
H107	H	0.177426	0.032187	0.000113
C108	C	1.053718	0.028431	0.606297
C109	C	1.014693	-0.004303	0.556512
C110	C	1.070046	-0.036571	0.513104
H111	H	1.083473	0.011261	0.644835
H112	H	1.087977	0.045919	0.572071
H113	H	0.980448	-0.021789	0.590735
H114	H	0.984942	0.012854	0.517958
H115	H	1.104305	-0.019083	0.478878
H116	H	1.099798	-0.053737	0.551648
H117	H	1.043576	-0.058781	0.479314
C118	C	0.546841	-0.002505	-0.000031
C119	C	0.576249	-0.029869	-0.071276
C120	C	0.545476	-0.075666	-0.071408
H121	H	0.491062	0.000837	-0.000074
H122	H	0.561812	-0.018356	0.048250
H123	H	0.561273	-0.014021	-0.119544
H124	H	0.632025	-0.033225	-0.071248
H125	H	0.560447	-0.091518	-0.023127
H126	H	0.489698	-0.072319	-0.071449
H127	H	0.565430	-0.094240	-0.119742
H128	H	1.120883	-0.525312	0.000067
C129	C	1.141934	-0.427791	0.000033
C130	C	1.203791	-0.463164	0.000015
C131	C	1.275574	-0.440871	-0.000029
H132	H	1.142877	-0.406830	0.048322
H133	H	1.147729	-0.409641	-0.048288
H134	H	1.197998	-0.481306	0.048330
H135	H	1.202873	-0.484127	-0.048271
H136	H	1.281369	-0.422721	-0.048349
H137	H	1.276509	-0.419911	0.048262
H138	H	1.317553	-0.464868	-0.000049
H139	H	0.844636	0.148557	0.618003
H140	H	0.722274	-0.358042	0.000011
C141	C	1.044675	0.033927	0.788073
C142	C	1.000864	0.004077	0.838127
C143	C	1.052047	-0.025373	0.881778
H144	H	1.075285	0.053591	0.822142
H145	H	1.078499	0.014526	0.749654
H146	H	0.967054	0.023477	0.876541
H147	H	0.970256	-0.015597	0.804079
H148	H	1.085870	-0.044775	0.843359
H149	H	1.082654	-0.005705	0.915842
H150	H	1.022329	-0.045633	0.915739
C151	C	0.297782	0.210672	0.000095
C152	C	0.236025	0.246110	0.000112
C153	C	0.266757	0.291918	0.000148
H154	H	0.331608	0.212808	-0.048197
H155	H	0.326688	0.215573	0.048413
H156	H	0.207133	0.241210	-0.048202
H157	H	0.202194	0.243990	0.048400
H158	H	0.295662	0.296820	0.048467
H159	H	0.300582	0.294049	-0.048144
H160	H	0.224859	0.315969	0.000168
H161	H	0.813784	0.166191	0.223960
C162	C	0.700266	-0.515395	-0.000035
C163	C	0.638408	-0.480026	-0.000063
C164	C	0.566633	-0.502325	-0.000137
H165	H	0.694397	-0.533560	0.048248
H166	H	0.699403	-0.536344	-0.048362
H167	H	0.639269	-0.459085	0.048259
H168	H	0.644250	-0.461859	-0.048342
H169	H	0.565770	-0.523274	-0.048464
H170	H	0.560773	-0.520489	0.048147
H171	H	0.524655	-0.478331	-0.000164
C172	C	0.777951	-0.134958	-0.000056
C173	C	0.776954	-0.165827	-0.071315
C174	C	0.705344	-0.188307	-0.071474
H175	H	0.735811	-0.111080	-0.000098
H176	H	0.772197	-0.153155	0.048215
H177	H	0.782700	-0.147632	-0.119574
H178	H	0.819078	-0.189714	-0.071288
H179	H	0.699591	-0.206504	-0.023203
H180	H	0.663210	-0.164426	-0.071514
H181	H	0.704661	-0.209258	-0.119818
H182	H	0.852559	0.144019	0.514863
H183	H	0.667230	0.175970	0.000030
C184	C	1.023241	0.046391	0.212081
C185	C	1.073325	0.072633	0.161999
C186	C	1.129134	0.040779	0.118335
H187	H	0.997158	0.024123	0.178030
H188	H	1.053220	0.029254	0.250492
H189	H	1.043349	0.089762	0.123592
H190	H	1.099426	0.094898	0.196029
H191	H	1.159113	0.023642	0.156746
H192	H	1.103045	0.018514	0.084288
H193	H	1.163127	0.058580	0.084355
H194	H	0.805754	0.170798	0.382137
C195	C	1.144417	-0.276441	0.000054
C196	C	1.206275	-0.311814	0.000035
C197	C	1.278057	-0.289521	-0.000010
H198	H	1.145362	-0.255480	0.048343
H199	H	1.150212	-0.258291	-0.048267
H200	H	1.200482	-0.329956	0.048351
H201	H	1.205356	-0.332777	-0.048250
H202	H	1.283852	-0.271371	-0.048331
H203	H	1.278994	-0.268561	0.048280
H204	H	1.320036	-0.313518	-0.000030
H205	H	0.423454	0.161044	0.000068
H206	H	0.141682	0.190497	0.000064
C207	C	1.066731	-0.656898	-0.000065
C208	C	1.074998	-0.630157	-0.071317
C209	C	1.146628	-0.607692	-0.071454
H210	H	1.108870	-0.680781	-0.000102
H211	H	1.067567	-0.635905	0.048211
H212	H	1.074169	-0.651149	-0.119580
H213	H	1.032876	-0.606266	-0.071295
H214	H	1.147464	-0.586699	-0.023179
H215	H	1.188762	-0.631578	-0.071489
H216	H	1.152244	-0.589542	-0.119794
H217	H	0.721303	-0.417884	0.000023
C218	C	0.767707	-0.750309	-0.000013
C219	C	0.705849	-0.714940	-0.000043
C220	C	0.634074	-0.737238	-0.000105
H221	H	0.761842	-0.768470	0.048274
H222	H	0.766840	-0.771261	-0.048336
H223	H	0.706715	-0.693996	0.048275
H224	H	0.711688	-0.696776	-0.048326
H225	H	0.633207	-0.758190	-0.048428
H226	H	0.628217	-0.755399	0.048183
H227	H	0.592095	-0.713244	-0.000133
C228	C	0.769541	-0.645161	-0.000144
C229	C	0.769464	-0.618107	-0.071415
C230	C	0.698636	-0.590042	-0.071612
H231	H	0.764362	-0.623920	0.048101
H232	H	0.726723	-0.665719	-0.000191
H233	H	0.812270	-0.597551	-0.071361
H234	H	0.774630	-0.639335	-0.119672
H235	H	0.655818	-0.610600	-0.071659
H236	H	0.693463	-0.568805	-0.023364
H237	H	0.698571	-0.571686	-0.119972
C238	C	0.704466	-0.258987	0.000056
C239	C	0.641524	-0.289407	0.000062
C240	C	0.570571	-0.261448	0.000101
H241	H	0.704178	-0.240581	-0.048231
H242	H	0.699315	-0.237797	0.048379
H243	H	0.646673	-0.310588	-0.048256
H244	H	0.641786	-0.307813	0.048346
H245	H	0.565420	-0.240258	0.048424
H246	H	0.570290	-0.243043	-0.048187
H247	H	0.527855	-0.282083	0.000113
H248	H	0.702973	0.017659	0.000084
C249	C	1.014054	0.051607	0.393840
C250	C	1.063845	0.023126	0.337006
C251	C	1.115295	-0.006270	0.380440
H252	H	0.984565	0.031275	0.427871
H253	H	1.044683	0.071322	0.427818
H254	H	1.033219	0.003412	0.303042
H255	H	1.093352	0.043445	0.302973
H256	H	1.145924	0.013444	0.414418
H257	H	1.085799	-0.026599	0.414469
H258	H	1.149089	-0.025595	0.341885
H259	H	0.421194	0.047113	0.000118
H260	H	1.057421	-0.047523	0.000123
H261	H	0.992092	0.064133	0.485297
H262	H	1.123376	-0.373948	0.000083
H263	H	1.045815	-0.754576	0.000057
C264	C	0.779581	-0.029676	0.000247
C265	C	0.732750	-0.038164	0.071507
C266	C	0.661865	-0.010127	0.071678
H267	H	0.752537	-0.038157	-0.048006
H268	H	0.790309	0.003586	0.000294
H269	H	0.722020	-0.071419	0.071453
H270	H	0.759770	-0.029681	0.119772
H271	H	0.672594	0.023135	0.071724
H272	H	0.634829	-0.018610	0.023421
H273	H	0.630085	-0.015879	0.120030
