data_functionalizedCrystal
_audit_creation_method	'MofGen! by Chris Wilmer'
_symmetry_space_group_name_H-M	'P1'
_symmetry_Int_Tables_number	1
_symmetry_cell_setting	triclinic
loop_
_symmetry_equiv_pos_as_xyz
  x,y,z
_cell_length_a	10.489741
_cell_length_b	16.109301
_cell_length_c	8.965430
_cell_angle_alpha	89.998998
_cell_angle_beta	89.998843
_cell_angle_gamma	84.000327
loop_
_atom_site_label
_atom_site_type_symbol
_atom_site_fract_x
_atom_site_fract_y
_atom_site_fract_z
O1	O	-1.692352	-0.117292	0.123952
O2	O	-1.320996	-0.128303	0.123976
O3	O	-1.516875	-0.001830	0.123948
O4	O	-1.496472	-0.243766	0.123980
O5	O	-1.516859	-0.001838	-0.124130
O6	O	-1.320980	-0.128311	-0.124103
O7	O	-1.692335	-0.117301	-0.124126
Cu8	Cu	-1.506656	-0.122807	-0.146766
Cu9	Cu	-1.506675	-0.122797	0.146616
O10	O	-1.496456	-0.243774	-0.124099
C11	C	-1.516041	0.029146	-0.000092
C12	C	-1.513563	0.121457	-0.000094
C13	C	-1.273468	-0.127475	-0.000060
C14	C	-1.131875	-0.124987	-0.000052
C15	C	-1.739863	-0.118128	-0.000087
C16	C	-1.881456	-0.120616	-0.000085
C17	C	-1.064902	-0.044516	-0.000076
C18	C	-0.972232	-0.082526	0.122241
C19	C	-0.972250	-0.082553	-0.122345
C20	C	-1.041070	-0.163030	0.122367
C21	C	-1.041097	-0.163046	-0.122329
C22	C	-0.948453	-0.201115	0.000018
C23	C	-1.497291	-0.274750	-0.000055
C24	C	-1.499769	-0.367060	-0.000043
N25	N	-1.506652	-0.122813	-0.353115
C26	C	-1.624032	0.343048	-0.000077
C27	C	-1.621694	0.429783	-0.000065
C28	C	-1.389290	0.411341	-0.000056
C29	C	-1.391630	0.324608	-0.000057
C30	C	-1.509004	0.290464	-0.000076
C31	C	-1.504327	0.463932	-0.000061
C32	C	-1.501791	0.557974	-0.000048
C33	C	-1.511541	0.196417	-0.000086
C34	C	-1.416036	-0.181283	-0.450408
C35	C	-1.531289	-0.198106	-0.549827
C36	C	-1.391448	-0.105998	-0.549824
C37	C	-1.621962	-0.139674	-0.450345
C38	C	-1.482045	-0.047532	-0.450333
C39	C	-1.597381	-0.064324	-0.549707
N40	N	-1.506690	-0.122784	0.352965
H41	H	-1.115552	0.021636	0.000068
F42	F	-1.744123	0.485744	-0.000063
F43	F	-1.315967	-0.245971	-0.393413
H44	H	-0.941759	-0.048493	-0.225756
F45	F	-1.269194	0.268640	-0.000045
F46	F	-1.558529	-0.281301	-0.606950
H47	H	-1.071642	-0.197071	-0.225738
F48	F	-1.697670	0.000325	-0.606346
H49	H	-0.941719	-0.048473	0.225645
F50	F	-1.454761	0.035638	-0.393163
F51	F	-1.748953	0.306713	-0.000095
F52	F	-1.264379	0.447687	-0.000035
F53	F	-1.749356	-0.158344	-0.393476
F54	F	-1.264086	-0.087423	-0.606943
H55	H	-1.071411	-0.197049	0.225894
H56	H	-0.898069	-0.267337	0.000094
