data_functionalizedCrystal
_audit_creation_method	'MofGen! by Chris Wilmer'
_symmetry_space_group_name_H-M	'P1'
_symmetry_Int_Tables_number	1
_symmetry_cell_setting	triclinic
loop_
_symmetry_equiv_pos_as_xyz
  x,y,z
_cell_length_a	14.853566
_cell_length_b	10.540510
_cell_length_c	13.930277
_cell_angle_alpha	89.997952
_cell_angle_beta	89.995631
_cell_angle_gamma	84.073862
loop_
_atom_site_label
_atom_site_type_symbol
_atom_site_fract_x
_atom_site_fract_y
_atom_site_fract_z
O1	O	1.197276	0.165722	-0.079762
O2	O	0.934925	0.185466	-0.079777
O3	O	1.072100	-0.009181	-0.079769
O4	O	1.060101	0.360369	-0.079770
O5	O	1.072080	-0.009185	0.079893
O6	O	0.934905	0.185462	0.079885
O7	O	1.197257	0.165718	0.079900
Zn8	Zn	1.066078	0.175589	0.105242
Zn9	Zn	1.066103	0.175595	-0.105119
O10	O	1.060082	0.360365	0.079891
C11	C	0.901321	0.184570	0.000052
C12	C	0.801223	0.181890	0.000046
C13	C	0.377986	0.170556	-0.086969
C14	C	0.377987	0.170553	0.087100
C15	C	0.472035	0.173069	0.087097
C16	C	0.519063	0.174332	0.000060
C17	C	0.472043	0.173077	-0.086975
C18	C	0.519061	0.174337	0.174130
C19	C	0.613114	0.176855	0.174131
C20	C	0.660144	0.178108	0.087092
C21	C	0.613119	0.176852	0.000054
C22	C	0.660147	0.178115	-0.086983
C23	C	0.613124	0.176849	-0.174022
C24	C	0.519073	0.174330	-0.174013
C25	C	0.754195	0.180627	0.087083
C26	C	0.754203	0.180635	-0.086989
C27	C	1.071196	-0.056477	0.000060
C28	C	1.068521	-0.197397	0.000054
C29	C	1.163816	-0.415902	0.000425
C30	C	1.166669	-0.269338	0.000061
C31	C	1.018289	-0.241600	-0.091122
C32	C	1.016131	-0.388338	-0.091193
C33	C	1.014065	-0.388128	0.090372
C34	C	1.018720	-0.241838	0.091572
C35	C	1.230860	0.166614	0.000069
C36	C	1.330959	0.169294	0.000068
C37	C	1.060985	0.407661	0.000060
C38	C	1.063661	0.548581	0.000060
N39	N	1.066067	0.175585	0.248808
N40	N	1.066121	0.175589	-0.248685
C41	C	1.005360	0.261751	0.701074
C42	C	1.126872	0.089429	0.701050
C43	C	1.126861	0.089425	0.600555
C44	C	1.066100	0.175586	0.550314
C45	C	1.005349	0.261752	0.600569
C46	C	1.187617	0.003270	0.550292
C47	C	1.187609	0.003263	0.449790
C48	C	1.126843	0.089420	0.399548
C49	C	1.066089	0.175588	0.449809
C50	C	1.005327	0.261749	0.399568
C51	C	0.944568	0.347912	0.449827
C52	C	0.944582	0.347908	0.550326
C53	C	1.126829	0.089423	0.299049
C54	C	1.005317	0.261750	0.299063
H55	H	0.792476	0.181670	0.157949
H56	H	0.895115	0.418060	0.591253
H57	H	1.201841	-0.459824	-0.064587
H58	H	0.480763	0.173318	0.244992
H59	H	0.651392	0.177883	0.245004
H60	H	1.176302	0.019277	0.258132
N61	N	0.916457	-0.416401	0.091202
H62	H	0.875545	-0.333734	0.089072
H63	H	0.904459	-0.469970	0.033388
H64	H	0.339690	0.169534	0.157962
H65	H	0.792487	0.181659	-0.157867
N66	N	0.663847	0.178202	-0.267899
H67	H	0.640673	0.256388	-0.305954
H68	H	0.730550	0.179946	-0.254612
N69	N	0.923796	-0.175820	0.098857
H70	H	0.893516	-0.206252	0.158279
H71	H	0.926337	-0.080587	0.102880
N72	N	1.218705	-0.231025	0.086647
H73	H	1.239996	-0.309414	0.125394
H74	H	1.272747	-0.187785	0.064821
H75	H	1.237081	-0.066896	0.408876
H76	H	0.895100	0.418071	0.408909
H77	H	0.955888	0.331900	0.741997
N78	N	1.192412	-0.003488	0.755233
H79	H	1.183202	0.009590	0.826525
H80	H	1.181427	-0.093570	0.737676
H81	H	1.202046	-0.458279	0.065812
N82	N	0.918898	-0.417736	-0.096701
H83	H	0.916740	-0.513195	-0.096792
H84	H	0.884472	-0.379310	-0.039393
N85	N	1.067120	-0.204468	0.180926
H86	H	1.131431	-0.246311	0.180350
H87	H	1.067514	-0.108738	0.182689
H88	H	0.946034	-0.193416	-0.094516
N89	N	0.468358	0.172962	-0.267884
H90	H	0.401641	0.171179	-0.254671
H91	H	0.477989	0.252031	-0.305895
N92	N	0.327279	0.169179	-0.180844
H93	H	0.260561	0.167385	-0.167639
H94	H	0.336907	0.248249	-0.218855
N95	N	1.253156	-0.089645	0.604477
H96	H	1.243940	-0.076573	0.675769
H97	H	1.242177	-0.179728	0.586915
N98	N	1.219054	-0.232270	-0.086654
H99	H	1.240375	-0.311185	-0.124794
H100	H	1.178707	-0.171832	-0.128131
N101	N	0.939772	0.354673	0.244877
H102	H	0.901286	0.409249	0.291967
H103	H	0.974632	0.410888	0.203171
H104	H	1.050475	-0.428929	-0.159344
N105	N	1.064513	-0.201256	-0.181003
H106	H	1.063531	-0.105312	-0.182046
H107	H	1.129265	-0.241371	-0.181847
N108	N	1.055137	-0.444798	0.181917
H109	H	1.106315	-0.512082	0.165770
H110	H	1.079146	-0.375392	0.221480
