data_functionalizedCrystal
_audit_creation_method	'MofGen! by Chris Wilmer'
_symmetry_space_group_name_H-M	'P1'
_symmetry_Int_Tables_number	1
_symmetry_cell_setting	triclinic
loop_
_symmetry_equiv_pos_as_xyz
  x,y,z
_cell_length_a	19.077105
_cell_length_b	16.120484
_cell_length_c	19.077271
_cell_angle_alpha	90.454367
_cell_angle_beta	89.892926
_cell_angle_gamma	90.738523
loop_
_atom_site_label
_atom_site_type_symbol
_atom_site_fract_x
_atom_site_fract_y
_atom_site_fract_z
Zn1	Zn	1.042267	-0.359937	-0.455176
Zn2	Zn	1.040474	-0.504583	-0.343594
Zn3	Zn	0.929463	-0.360401	-0.332986
Zn4	Zn	0.918794	-0.493391	-0.455890
O5	O	0.982750	-0.429578	-0.396911
O6	O	1.140161	-0.383614	-0.444515
O7	O	1.029463	-0.490334	-0.244053
O8	O	0.949643	-0.244147	-0.344456
O9	O	1.138844	-0.489884	-0.362536
O10	O	1.032519	-0.243806	-0.434229
O11	O	0.947904	-0.384404	-0.236260
O12	O	0.829916	-0.373553	-0.345149
O13	O	0.931458	-0.470810	-0.553929
O14	O	0.822077	-0.471260	-0.435446
O15	O	1.022174	-0.372762	-0.553404
O16	O	1.019117	-0.619290	-0.363229
O17	O	0.929719	-0.611068	-0.445732
C18	C	0.800552	-0.421243	-0.389224
C19	C	0.722605	-0.417697	-0.385953
C20	C	0.973084	-0.645306	-0.405725
C21	C	0.969012	-0.737597	-0.409522
C22	C	0.681922	-0.466985	-0.431362
C23	C	0.608684	-0.463642	-0.428291
C24	C	0.576130	-0.411013	-0.379808
C25	C	0.616818	-0.361719	-0.334397
C26	C	0.690055	-0.365059	-0.337471
C27	C	0.357529	-0.395557	-0.365581
C28	C	0.284287	-0.392223	-0.362509
C29	C	0.276157	-0.494145	-0.456405
C30	C	0.349396	-0.497483	-0.459472
C31	C	0.390079	-0.448186	-0.414064
N32	N	0.501268	-0.407597	-0.376666
N33	N	0.464939	-0.451599	-0.417209
C34	C	0.961582	-0.906574	-0.416468
C35	C	1.004042	-0.951746	-0.377371
C36	C	0.999908	-1.045771	-0.381236
C37	C	0.965715	-0.812541	-0.412604
C38	C	1.165659	-0.437946	-0.404629
C39	C	1.243604	-0.441512	-0.407918
C40	C	0.975826	-0.420486	-0.579823
C41	C	0.972876	-0.416612	-0.657769
C42	C	0.992471	-0.213007	-0.388079
C43	C	0.996614	-0.120718	-0.384316
C44	C	0.951711	-0.388890	-1.096087
C45	C	0.954487	-0.392527	-1.022848
C46	C	0.998334	-0.449502	-0.990286
C47	C	1.039414	-0.502837	-1.030966
C48	C	1.036641	-0.499195	-1.104203
C49	C	1.011182	-0.466305	-0.771686
C50	C	1.013950	-0.469945	-0.698443
C51	C	0.929024	-0.359633	-0.690330
C52	C	0.926253	-0.356000	-0.763569
C53	C	0.967335	-0.409332	-0.804243
N54	N	1.001171	-0.453223	-0.915425
N55	N	0.964501	-0.405606	-0.879103
C56	C	0.989689	-0.438576	-0.214711
C57	C	0.992786	-0.442223	-0.136762
H58	H	0.575562	-0.503778	-0.465267
H59	H	1.043498	-0.919803	-0.340996
N60	N	0.912082	-0.946653	-0.462084
N61	N	0.866269	-0.994323	-0.437432
H62	H	0.831309	-1.022639	-0.469645
N63	N	0.382636	-0.551249	-0.509000
N64	N	0.346303	-0.595253	-0.549541
H65	H	0.369778	-0.633229	-0.584519
H66	H	0.916004	-0.342497	-1.122593
N67	N	0.912523	-0.338046	-0.981311
N68	N	0.873371	-0.287186	-1.010393
H69	H	0.843730	-0.248707	-0.981057
H70	H	0.895579	-0.316212	-0.657206
H71	H	0.708422	-0.509843	-0.470840
H72	H	0.590307	-0.318865	-0.294923
H73	H	1.044633	-0.509734	-0.804794
H74	H	0.890545	-0.309608	-0.790076
N75	N	0.731613	-0.314725	-0.291075
N76	N	0.772858	-0.347941	-0.249252
H77	H	0.802207	-0.312389	-0.216484
N78	N	0.234591	-0.544493	-0.502779
N79	N	0.169201	-0.541508	-0.500029
H80	H	0.139844	-0.577068	-0.532784
N81	N	0.251044	-0.338457	-0.312977
N82	N	0.287374	-0.294446	-0.272439
H83	H	0.263896	-0.256476	-0.237458
H84	H	1.049673	-0.516326	-0.671934
N85	N	1.084203	-0.561027	-0.997696
N86	N	1.086672	-0.564273	-0.932306
H87	H	1.118305	-0.605372	-0.908809
H88	H	0.390644	-0.355422	-0.328602
H89	H	1.070090	-0.542623	-1.137320
