data_functionalizedCrystal
_audit_creation_method	'MofGen! by Chris Wilmer'
_symmetry_space_group_name_H-M	'P1'
_symmetry_Int_Tables_number	1
_symmetry_cell_setting	triclinic
loop_
_symmetry_equiv_pos_as_xyz
  x,y,z
_cell_length_a	16.959454
_cell_length_b	16.959455
_cell_length_c	19.076919
_cell_angle_alpha	92.276161
_cell_angle_beta	92.275489
_cell_angle_gamma	90.017095
loop_
_atom_site_label
_atom_site_type_symbol
_atom_site_fract_x
_atom_site_fract_y
_atom_site_fract_z
Zn1	Zn	-0.332721	1.190436	-0.398063
Zn2	Zn	0.000613	1.523769	-0.064729
Zn3	Zn	0.333946	1.857103	0.268604
Zn4	Zn	-0.459594	1.195665	-0.280377
Zn5	Zn	-0.126261	1.528998	0.052956
Zn6	Zn	0.207073	1.862331	0.386290
Zn7	Zn	-0.327426	1.063571	-0.280372
Zn8	Zn	0.005907	1.396904	0.052962
Zn9	Zn	0.339240	1.730238	0.386295
Zn10	Zn	-0.464853	1.058231	-0.398022
Zn11	Zn	-0.131519	1.391564	-0.064689
Zn12	Zn	0.201814	1.724898	0.268645
O13	O	-0.396148	1.126976	-0.339208
O14	O	-0.062815	1.460309	-0.005875
O15	O	0.270518	1.793642	0.327458
O16	O	-0.349566	1.301740	-0.382471
O17	O	-0.016233	1.635073	-0.049137
O18	O	0.317101	1.968406	0.284196
O19	O	-0.437645	1.182565	-0.181887
O20	O	-0.104312	1.515899	0.151446
O21	O	0.229022	1.849232	0.484779
O22	O	-0.217518	1.080446	-0.295998
O23	O	0.115815	1.413780	0.037335
O24	O	0.449148	1.747113	0.370668
O25	O	-0.442779	1.305581	-0.296008
O26	O	-0.109446	1.638915	0.037326
O27	O	0.223888	1.972248	0.370659
O28	O	-0.221408	1.173654	-0.382465
O29	O	0.111925	1.506987	-0.049132
O30	O	0.445258	1.840320	0.284201
O31	O	-0.340542	1.085516	-0.181883
O32	O	-0.007209	1.418850	0.151450
O33	O	0.326125	1.752183	0.484783
O34	O	-0.345641	0.952253	-0.295959
O35	O	-0.012308	1.285586	0.037375
O36	O	0.321026	1.618919	0.370708
O37	O	-0.451741	1.071345	-0.496516
O38	O	-0.118408	1.404679	-0.163183
O39	O	0.214925	1.738012	0.170150
O40	O	-0.446608	0.948329	-0.382396
O41	O	-0.113274	1.281663	-0.049063
O42	O	0.220059	1.614996	0.284271
O43	O	-0.354665	1.168476	-0.496546
O44	O	-0.021332	1.501809	-0.163213
O45	O	0.312002	1.835143	0.170120
O46	O	-0.570902	1.177387	-0.295968
O47	O	-0.237568	1.510721	0.037365
O48	O	0.095765	1.844054	0.370698
O49	O	-0.574765	1.076415	-0.382401
O50	O	-0.241432	1.409749	-0.049068
O51	O	0.091902	1.743082	0.284265
C52	C	-0.396121	0.921611	-0.339173
C53	C	-0.062788	1.254944	-0.005840
C54	C	0.270546	1.588278	0.327494
C55	C	-0.396129	0.833754	-0.339174
C56	C	-0.062796	1.167088	-0.005841
C57	C	0.270538	1.500421	0.327492
C58	C	-0.444633	0.464268	-0.294164
C59	C	-0.111300	0.797601	0.039169
C60	C	0.222033	1.130935	0.372503
C61	C	-0.347733	0.460283	-0.384338
C62	C	-0.014400	0.793616	-0.051005
C63	C	0.318934	1.126949	0.282328
C64	C	-0.347719	0.542829	-0.384321
C65	C	-0.014386	0.876163	-0.050988
C66	C	0.318948	1.209496	0.282345
C67	C	-0.396164	0.586099	-0.339226
C68	C	-0.062831	0.919432	-0.005892
C69	C	0.270503	1.252766	0.327441
C70	C	-0.444623	0.546822	-0.294147
C71	C	-0.111289	0.880156	0.039186
C72	C	0.222044	1.213489	0.372520
C73	C	-0.299267	0.582112	-0.429404
C74	C	0.034066	0.915446	-0.096071
C75	C	0.367399	1.248779	0.237263
C76	C	-0.299252	0.664664	-0.429389
C77	C	0.034081	0.997997	-0.096056
C78	C	0.367415	1.331331	0.237277
C79	C	-0.347693	0.707935	-0.384289
C80	C	-0.014360	1.041269	-0.050956
C81	C	0.318973	1.374602	0.282377
C82	C	-0.396153	0.668653	-0.339209
C83	C	-0.062820	1.001987	-0.005875
C84	C	0.270513	1.335320	0.327458
C85	C	-0.444598	0.711923	-0.294113
C86	C	-0.111265	1.045257	0.039220
C87	C	0.222068	1.378590	0.372554
C88	C	-0.493055	0.672643	-0.249028
C89	C	-0.159722	1.005976	0.084305
C90	C	0.173612	1.339310	0.417639
C91	C	-0.493064	0.590094	-0.249047
C92	C	-0.159731	0.923427	0.084286
C93	C	0.173603	1.256760	0.417619
C94	C	-0.347684	0.790485	-0.384270
C95	C	-0.014351	1.123818	-0.050937
C96	C	0.318983	1.457151	0.282397
C97	C	-0.444588	0.794477	-0.294096
C98	C	-0.111254	1.127811	0.039237
C99	C	0.222079	1.461144	0.372571
C100	C	-0.601514	1.126910	-0.339196
C101	C	-0.268181	1.460243	-0.005863
C102	C	0.065153	1.793577	0.327470
C103	C	-0.689372	1.126953	-0.339215
C104	C	-0.356038	1.460287	-0.005881
C105	C	-0.022705	1.793620	0.327452
C106	C	-1.062888	1.074473	-0.384209
C107	C	-0.729555	1.407807	-0.050876
C108	C	-0.396222	1.741140	0.282457
C109	C	-1.058809	1.179695	-0.294279
C110	C	-0.725475	1.513029	0.039054
C111	C	-0.392142	1.846362	0.372388
C112	C	-0.976262	1.179668	-0.294273
C113	C	-0.642929	1.513001	0.039061
C114	C	-0.309596	1.846335	0.372394
C115	C	-0.937025	1.127042	-0.339234
C116	C	-0.603692	1.460375	-0.005901
C117	C	-0.270359	1.793708	0.327432
C118	C	-0.980334	1.074443	-0.384203
C119	C	-0.647001	1.407776	-0.050869
C120	C	-0.313668	1.741109	0.282464
C121	C	-0.932947	1.232260	-0.249300
C122	C	-0.599614	1.565594	0.084033
C123	C	-0.266280	1.898927	0.417367
C124	C	-0.850396	1.232235	-0.249291
C125	C	-0.517062	1.565568	0.084042
C126	C	-0.183729	1.898901	0.417375
C127	C	-0.811157	1.179612	-0.294257
C128	C	-0.477824	1.512945	0.039076
C129	C	-0.144491	1.846278	0.372410
C130	C	-0.854472	1.127011	-0.339228
C131	C	-0.521138	1.460344	-0.005894
C132	C	-0.187805	1.793678	0.327439
C133	C	-0.815234	1.074385	-0.384190
C134	C	-0.481901	1.407718	-0.050856
C135	C	-0.148568	1.741051	0.282477
C136	C	-0.858547	1.021788	-0.429164
C137	C	-0.525214	1.355121	-0.095831
C138	C	-0.191881	1.688454	0.237502
C139	C	-0.941096	1.021820	-0.429169
C140	C	-0.607763	1.355153	-0.095835
C141	C	-0.274429	1.688486	0.237498
C142	C	-0.728609	1.179579	-0.294253
C143	C	-0.395275	1.512913	0.039080
C144	C	-0.061942	1.846246	0.372414
C145	C	-0.732681	1.074354	-0.384183
C146	C	-0.399347	1.407688	-0.050850
C147	C	-0.066014	1.741021	0.282484
C148	C	-0.189981	1.127063	-0.339236
C149	C	0.143352	1.460396	-0.005902
C150	C	0.476685	1.793729	0.327431
C151	C	-0.102125	1.127099	-0.339247
C152	C	0.231208	1.460433	-0.005914
C153	C	0.564541	1.793766	0.327419
C154	C	-0.404380	1.118732	-0.522782
C155	C	-0.071047	1.452065	-0.189449
C156	C	0.262286	1.785398	0.143884
C157	C	-0.407888	1.115219	-0.601011
C158	C	-0.074555	1.448552	-0.267677
C159	C	0.258778	1.781885	0.065656
C160	C	-0.396176	1.333142	-0.339244
C161	C	-0.062843	1.666476	-0.005911
C162	C	0.270490	1.999809	0.327422
C163	C	-0.396188	1.420998	-0.339260
C164	C	-0.062855	1.754332	-0.005926
C165	C	0.270478	2.087665	0.327407
C166	C	-0.358996	1.164136	-0.637779
C167	C	-0.025663	1.497470	-0.304446
C168	C	0.307671	1.830803	0.028887
C169	C	-0.362289	1.160826	-0.711283
C170	C	-0.028956	1.494159	-0.377950
C171	C	0.304377	1.827492	-0.044616
C172	C	-0.414479	1.108601	-0.748017
C173	C	-0.081146	1.441934	-0.414684
C174	C	0.252188	1.775268	-0.081350
C175	C	-0.463373	1.059678	-0.711243
C176	C	-0.130040	1.393011	-0.377910
C177	C	0.203293	1.726345	-0.044577
C178	C	-0.460076	1.062985	-0.637741
C179	C	-0.126742	1.396318	-0.304408
C180	C	0.206591	1.729652	0.028926
C181	C	-0.429757	1.093284	-0.967844
C182	C	-0.096424	1.426617	-0.634511
C183	C	0.236909	1.759950	-0.301178
C184	C	-0.433053	1.089982	-1.041352
C185	C	-0.099720	1.423315	-0.708019
C186	C	0.233614	1.756649	-0.374685
C187	C	-0.331967	1.191129	-1.041387
C188	C	0.001366	1.524462	-0.708053
C189	C	0.334699	1.857796	-0.374720
C190	C	-0.328678	1.194435	-0.967883
C191	C	0.004655	1.527768	-0.634549
C192	C	0.337989	1.861101	-0.301216
C193	C	-0.377569	1.145509	-0.931115
C194	C	-0.044236	1.478842	-0.597782
C195	C	0.289098	1.812176	-0.264449
N196	N	-0.417848	1.105217	-0.823150
N197	N	-0.084515	1.438551	-0.489817
N198	N	0.248819	1.771884	-0.156483
N199	N	-0.374195	1.148889	-0.855984
N200	N	-0.040862	1.482222	-0.522651
N201	N	0.292471	1.815556	-0.189317
C202	C	-0.387891	1.135233	-0.156348
C203	C	-0.054558	1.468567	0.176985
C204	C	0.278775	1.801900	0.510318
C205	C	-0.384161	1.138899	-0.078120
C206	C	-0.050827	1.472233	0.255213
C207	C	0.282506	1.805566	0.588546
H208	H	-0.308233	0.822463	-0.420979
H209	H	0.025100	1.155796	-0.087646
H210	H	0.358433	1.489130	0.245688
H211	H	-0.700739	1.031502	-0.420799
H212	H	-0.367406	1.364835	-0.087466
H213	H	-0.034072	1.698169	0.245867
F214	F	-1.108984	1.018501	-0.432075
F215	F	-0.775651	1.351835	-0.098742
F216	F	-0.442318	1.685168	0.234591
F217	F	-0.310278	1.212918	-0.750412
F218	F	0.023055	1.546251	-0.417078
F219	F	0.356388	1.879585	-0.083745
F220	F	-0.816779	0.965777	-0.477011
F221	F	-0.483445	1.299111	-0.143678
F222	F	-0.150112	1.632444	0.189655
H223	H	-0.976369	0.978997	-0.465784
H224	H	-0.643035	1.312330	-0.132451
H225	H	-0.309702	1.645664	0.200883
F226	F	-0.544617	0.718703	-0.201040
F227	F	-0.211283	1.052036	0.132294
F228	F	0.122050	1.385370	0.465627
H229	H	-1.090760	1.222537	-0.257669
H230	H	-0.757427	1.555870	0.075664
H231	H	-0.424094	1.889203	0.408998
H232	H	-0.316500	1.206666	-0.607876
H233	H	0.016834	1.539999	-0.274542
H234	H	0.350167	1.873332	0.058791
F235	F	-0.544631	0.548284	-0.201070
F236	F	-0.211298	0.881617	0.132263
F237	F	0.122035	1.214950	0.465596
F238	F	-0.974710	1.288268	-0.201455
F239	F	-0.641376	1.621601	0.131879
F240	F	-0.308043	1.954934	0.465212
H241	H	-0.815135	1.275062	-0.212671
H242	H	-0.481802	1.608396	0.120662
H243	H	-0.148469	1.941729	0.453995
H244	H	-0.484083	0.432282	-0.257455
H245	H	-0.150750	0.765616	0.075878
H246	H	0.182584	1.098949	0.409212
F247	F	-0.682515	1.235546	-0.246385
F248	F	-0.349182	1.568879	0.086949
F249	F	-0.015849	1.902213	0.420282
H250	H	-0.286181	1.236964	-0.937979
H251	H	0.047152	1.570297	-0.604645
H252	H	0.380485	1.903630	-0.271312
F253	F	-0.279936	1.243194	-1.080522
F254	F	0.053397	1.576527	-0.747189
F255	F	0.386731	1.909860	-0.413855
H256	H	-0.475554	1.047452	-1.071259
H257	H	-0.142221	1.380785	-0.737925
H258	H	0.191112	1.714118	-0.404592
H259	H	-0.469580	1.053456	-0.937917
H260	H	-0.136246	1.386790	-0.604584
H261	H	0.197087	1.720123	-0.271251
H262	H	-0.499881	1.023143	-0.607805
H263	H	-0.166548	1.356476	-0.274472
H264	H	0.166786	1.689810	0.058862
F265	F	-0.496146	0.840522	-0.246094
F266	F	-0.162813	1.173856	0.087239
F267	F	0.170520	1.507189	0.420573
F268	F	-0.296185	0.414230	-0.432336
F269	F	0.037148	0.747563	-0.099003
F270	F	0.370481	1.080897	0.234331
H271	H	-0.259831	0.546876	-0.466123
H272	H	0.073502	0.880209	-0.132789
H273	H	0.406835	1.213543	0.200544
F274	F	-0.247681	0.706462	-0.477371
F275	F	0.085653	1.039795	-0.144038
F276	F	0.418986	1.373128	0.189295
F277	F	-0.518915	1.004093	-0.750340
F278	F	-0.185582	1.337426	-0.417007
F279	F	0.147752	1.670760	-0.083674
