data_functionalizedCrystal
_audit_creation_method	'MofGen! by Chris Wilmer'
_symmetry_space_group_name_H-M	'P1'
_symmetry_Int_Tables_number	1
_symmetry_cell_setting	triclinic
loop_
_symmetry_equiv_pos_as_xyz
  x,y,z
_cell_length_a	17.699083
_cell_length_b	10.540539
_cell_length_c	16.176319
_cell_angle_alpha	89.995366
_cell_angle_beta	89.998611
_cell_angle_gamma	83.904253
loop_
_atom_site_label
_atom_site_type_symbol
_atom_site_fract_x
_atom_site_fract_y
_atom_site_fract_z
O1	O	1.005122	0.160521	-0.068627
O2	O	0.784880	0.181405	-0.068653
O3	O	0.900026	-0.013836	-0.068638
O4	O	0.889976	0.355761	-0.068642
O5	O	0.900010	-0.013848	0.068855
O6	O	0.784864	0.181392	0.068840
O7	O	1.005106	0.160508	0.068866
Cu8	Cu	0.894984	0.170949	0.081407
Cu9	Cu	0.895003	0.170964	-0.081194
O10	O	0.889960	0.355749	0.068852
C11	C	0.756670	0.180650	0.000090
C12	C	0.672637	0.178405	0.000080
C13	C	0.624761	0.293007	0.000079
C14	C	0.545804	0.290890	0.000090
C15	C	0.514725	0.174170	0.000095
C16	C	0.562607	0.059559	0.000098
C17	C	0.641562	0.061677	0.000094
C18	C	0.244188	0.051014	0.000119
C19	C	0.165226	0.048904	0.000121
C20	C	0.148430	0.280227	0.000115
C21	C	0.227386	0.282345	0.000110
C22	C	0.275261	0.167735	0.000118
C23	C	0.360875	0.170032	0.000108
C24	C	0.429112	0.171872	0.000099
C25	C	0.899264	-0.061131	0.000107
C26	C	0.897009	-0.202038	0.000102
C27	C	0.810610	-0.383885	-0.000217
C28	C	0.812896	-0.237308	0.000093
C29	C	0.937479	-0.264443	0.078622
C30	C	0.934609	-0.410935	0.078688
C31	C	0.936338	-0.411471	-0.077667
C32	C	0.937113	-0.264503	-0.078705
C33	C	1.033316	0.161263	0.000122
C34	C	1.117349	0.163508	0.000126
C35	C	0.890722	0.403044	0.000105
C36	C	0.892977	0.543951	0.000104
N37	N	0.894976	0.170938	0.195773
N38	N	0.895016	0.170965	-0.195559
C39	C	0.945978	0.084521	0.239043
C40	C	0.945982	0.084519	0.325591
C41	C	0.894987	0.170942	0.368865
C42	C	0.843979	0.257364	0.325588
C43	C	0.843972	0.257358	0.239043
C44	C	0.844005	0.257387	0.674617
C45	C	0.844017	0.257389	0.761168
C46	C	0.946015	0.084549	0.761164
C47	C	0.946008	0.084543	0.674619
C48	C	0.894998	0.170959	0.631349
C49	C	0.894993	0.170958	0.537505
C50	C	0.894994	0.170951	0.462708
H51	H	0.252686	0.377390	0.000102
O52	O	0.499407	0.402332	0.000051
C53	C	0.543769	0.505805	0.000061
H54	H	0.602512	0.473405	-0.025975
H55	H	0.549589	0.541592	0.066021
C56	C	0.432866	0.654052	-0.021881
C57	C	0.505013	0.614261	-0.053866
H58	H	0.408958	0.720956	-0.055142
H59	H	0.402977	0.584342	-0.021885
H60	H	0.437726	0.683867	0.033085
H61	H	0.500151	0.584433	-0.108827
H62	H	0.534900	0.683969	-0.053873
H63	H	0.109440	0.373548	0.000113
H64	H	0.777390	-0.411872	-0.056526
H65	H	0.650060	0.388054	0.000074
O66	O	0.135160	-0.064596	0.000168
C67	C	0.194345	-0.165301	0.000155
H68	H	0.248167	-0.129890	0.026182
H69	H	0.205325	-0.200645	-0.065805
C70	C	0.105357	-0.318890	0.022117
C71	C	0.171459	-0.275400	0.054090
H72	H	0.091239	-0.386807	0.055383
H73	H	0.065481	-0.251044	0.022123
H74	H	0.114515	-0.348334	-0.032849
H75	H	0.162297	-0.245942	0.109051
H76	H	0.211333	-0.343243	0.054095
H77	H	0.802472	0.327753	0.639394
H78	H	0.909121	-0.442520	-0.137180
H79	H	0.802440	0.327726	0.203813
O80	O	0.794514	0.341268	0.367751
C81	C	0.805444	0.322726	0.453418
H82	H	0.865360	0.275159	0.465234
H83	H	0.762268	0.259153	0.477991
C84	C	0.721181	0.511028	0.483326
C85	C	0.794773	0.452615	0.497839
H86	H	0.714596	0.591148	0.510729
H87	H	0.713814	0.523518	0.425611
H88	H	0.685209	0.458038	0.503804
H89	H	0.830743	0.505597	0.477353
H90	H	0.802145	0.440137	0.555552
H91	H	0.997092	-0.459808	-0.078188
H92	H	0.283159	-0.042309	0.000126
H93	H	0.781052	-0.194117	-0.056194
O94	O	0.771241	-0.419287	0.066637
C95	C	0.817798	-0.509062	0.113683
H96	H	0.880043	-0.498329	0.100337
H97	H	0.805141	-0.609547	0.096504
C98	C	0.725219	-0.499068	0.222700
C99	C	0.801669	-0.485878	0.206313
H100	H	0.715268	-0.484773	0.279839
H101	H	0.693850	-0.438588	0.191004
H102	H	0.714681	-0.582807	0.208378
H103	H	0.812204	-0.402137	0.220626
H104	H	0.833039	-0.546344	0.238015
O105	O	0.774529	-0.186924	0.067320
C106	C	0.698478	-0.215065	0.063760
H107	H	0.694695	-0.302620	0.023215
H108	H	0.661425	-0.130268	0.036441
C109	C	0.675210	-0.134543	0.201342
C110	C	0.670565	-0.242086	0.151550
H111	H	0.657990	-0.151205	0.255495
H112	H	0.726446	-0.115579	0.203740
H113	H	0.644333	-0.063889	0.178567
H114	H	0.701449	-0.312733	0.174320
H115	H	0.619333	-0.261063	0.149157
H116	H	0.987511	0.014151	0.360821
O117	O	0.899026	-0.444033	0.148752
C118	C	0.948837	-0.529646	0.195235
H119	H	1.010058	-0.517448	0.177821
H120	H	0.936808	-0.631678	0.181544
C121	C	0.861602	-0.516794	0.309415
C122	C	0.936796	-0.501804	0.288033
H123	H	0.854173	-0.499625	0.366658
H124	H	0.828042	-0.459118	0.278098
H125	H	0.851587	-0.601822	0.298000
H126	H	0.946806	-0.416774	0.299438
H127	H	0.970358	-0.559465	0.319354
O128	O	0.995544	0.000446	0.197138
C129	C	1.040572	-0.075808	0.253893
H130	H	1.009540	-0.077170	0.315590
H131	H	1.097016	-0.034710	0.263088
C132	C	1.093548	-0.211106	0.144352
C133	C	1.055430	-0.212788	0.220126
H134	H	1.102716	-0.295600	0.123522
H135	H	1.063214	-0.159730	0.106114
H136	H	1.140579	-0.176851	0.152024
H137	H	1.008395	-0.247027	0.212451
H138	H	1.085756	-0.264173	0.258362
O139	O	0.903816	-0.213150	0.148303
C140	C	0.826669	-0.235438	0.149191
H141	H	0.818478	-0.321228	0.108518
H142	H	0.790385	-0.147734	0.124554
C143	C	0.812535	-0.156998	0.288340
C144	C	0.802476	-0.262375	0.238390
H145	H	0.797610	-0.173609	0.343362
H146	H	0.864510	-0.141978	0.287741
H147	H	0.782298	-0.083922	0.267799
H148	H	0.832720	-0.335445	0.258925
H149	H	0.750506	-0.277408	0.238994
H150	H	0.537295	-0.035477	0.000115
O151	O	0.995572	0.000468	0.632711
C152	C	1.040603	-0.075789	0.689462
H153	H	1.009573	-0.077153	0.751160
H154	H	1.097047	-0.034693	0.698654
C155	C	1.093571	-0.211083	0.579916
C156	C	1.055457	-0.212768	0.655692
H157	H	1.102737	-0.295577	0.559084
H158	H	1.063235	-0.159705	0.541680
H159	H	1.140603	-0.176831	0.587586
H160	H	1.008421	-0.247005	0.648020
H161	H	1.085785	-0.264155	0.693926
H162	H	0.998438	-0.241403	-0.083439
O163	O	0.901772	-0.214846	-0.147926
C164	C	0.841019	-0.124069	-0.125242
H165	H	0.851565	-0.086472	-0.060645
H166	H	0.785778	-0.170707	-0.125535
C167	C	0.822080	-0.058872	-0.266666
C168	C	0.835036	-0.012687	-0.187330
H169	H	0.818386	0.009832	-0.304967
H170	H	0.863008	-0.120033	-0.281950
H171	H	0.776046	-0.097736	-0.266899
H172	H	0.881073	0.026162	-0.187096
H173	H	0.794115	0.048484	-0.172048
H174	H	0.987548	0.014180	0.796403
H175	H	0.995101	-0.460010	0.082257
O176	O	0.794399	0.341385	0.803079
C177	C	0.749385	0.417676	0.746331
H178	H	0.748246	0.365635	0.684641
H179	H	0.774456	0.511929	0.737116
C180	C	0.669286	0.507909	0.855891
C181	C	0.667882	0.443987	0.780125
H182	H	0.619012	0.524145	0.876738
H183	H	0.699615	0.456515	0.894124
H184	H	0.690182	0.586446	0.848202
H185	H	0.646995	0.365446	0.787817
H186	H	0.637548	0.495369	0.741894
H187	H	0.680543	-0.031644	0.000094
H188	H	0.999250	-0.243219	0.081549
