data_functionalizedCrystal
_audit_creation_method	'MofGen! by Chris Wilmer'
_symmetry_space_group_name_H-M	'P1'
_symmetry_Int_Tables_number	1
_symmetry_cell_setting	triclinic
loop_
_symmetry_equiv_pos_as_xyz
  x,y,z
_cell_length_a	16.992694
_cell_length_b	16.992695
_cell_length_c	16.053802
_cell_angle_alpha	92.747646
_cell_angle_beta	92.750953
_cell_angle_gamma	89.331778
loop_
_atom_site_label
_atom_site_type_symbol
_atom_site_fract_x
_atom_site_fract_y
_atom_site_fract_z
O1	O	-1.053958	0.163816	-0.069305
O2	O	-0.553958	0.663816	0.430695
O3	O	-0.825559	0.161984	-0.069330
O4	O	-0.325559	0.661984	0.430670
O5	O	-0.938844	0.048699	-0.069325
O6	O	-0.438844	0.548699	0.430675
O7	O	-0.940674	0.277100	-0.069310
O8	O	-0.440674	0.777100	0.430690
O9	O	-0.932606	0.054907	0.069534
O10	O	-0.432606	0.554907	0.569534
O11	O	-0.819322	0.168192	0.069529
O12	O	-0.319322	0.668192	0.569529
O13	O	-1.047721	0.170024	0.069554
O14	O	-0.547721	0.670024	0.569554
Zn15	Zn	-0.932531	0.170093	0.091588
Zn16	Zn	-0.432531	0.670093	0.591588
Zn17	Zn	-0.940749	0.161914	-0.091364
Zn18	Zn	-0.440749	0.661914	0.408636
O19	O	-0.934437	0.283308	0.069549
O20	O	-0.434437	0.783308	0.569549
C21	C	-0.793081	0.162732	0.000096
C22	C	-0.293081	0.662732	0.500096
C23	C	-0.705597	0.155703	0.000086
C24	C	-0.205597	0.655703	0.500086
C25	C	-1.080200	0.169276	0.000126
C26	C	-0.580200	0.669276	0.500126
C27	C	-1.167684	0.176305	0.000130
C28	C	-0.667684	0.676305	0.500130
C29	C	-0.659605	0.223521	0.000091
C30	C	-0.159605	0.723521	0.500091
C31	C	-0.577404	0.216912	0.000102
C32	C	-0.077404	0.716912	0.500102
C33	C	-0.541196	0.142485	0.000102
C34	C	-0.041196	0.642485	0.500102
C35	C	-0.587193	0.074662	0.000100
C36	C	-0.087193	0.574662	0.500100
C37	C	-0.669392	0.081271	0.000095
C38	C	-0.169392	0.581271	0.500095
C39	C	-0.295881	0.115091	0.000123
C40	C	0.204119	0.615091	0.500123
C41	C	-0.213675	0.108487	0.000125
C42	C	0.286325	0.608487	0.500125
C43	C	-0.203892	0.250738	0.000129
C44	C	0.296108	0.750738	0.500129
C45	C	-0.286094	0.257341	0.000119
C46	C	0.213906	0.757341	0.500119
C47	C	-0.332083	0.189518	0.000121
C48	C	0.167917	0.689518	0.500121
N49	N	-0.457173	0.135728	0.000111
N50	N	0.042827	0.635728	0.500111
N51	N	-0.416104	0.196276	0.000118
N52	N	0.083896	0.696276	0.500118
N53	N	-0.926929	0.175676	0.216448
N54	N	-0.426929	0.675676	0.716448
C55	C	-0.939911	0.309564	0.000121
C56	C	-0.439911	0.809564	0.500121
C57	C	-0.946940	0.397049	0.000127
C58	C	-0.446940	0.897049	0.500127
C59	C	-0.933369	0.022443	0.000101
C60	C	-0.433369	0.522443	0.500101
C61	C	-0.926341	-0.065042	0.000089
C62	C	-0.426341	0.434958	0.500089
C63	C	-0.879122	0.443040	0.000120
C64	C	-0.379122	0.943040	0.500120
C65	C	-0.885731	0.525240	0.000110
C66	C	-0.385731	1.025240	0.500110
C67	C	-0.960159	0.561449	0.000114
C68	C	-0.460159	1.061449	0.500114
C69	C	-1.027982	0.515452	0.000119
C70	C	-0.527982	1.015452	0.500119
C71	C	-1.021372	0.433253	0.000123
C72	C	-0.521372	0.933253	0.500123
C73	C	-0.987554	0.806762	0.000098
C74	C	-0.487554	1.306762	0.500098
C75	C	-0.994159	0.888967	0.000097
C76	C	-0.494159	1.388967	0.500097
C77	C	-0.851908	0.898750	0.000086
C78	C	-0.351908	1.398750	0.500086
C79	C	-0.845304	0.816549	0.000095
C80	C	-0.345304	1.316549	0.500095
C81	C	-0.913127	0.770559	0.000095
C82	C	-0.413127	1.270559	0.500095
N83	N	-0.966916	0.645471	0.000107
N84	N	-0.466916	1.145471	0.500107
N85	N	-0.906369	0.686539	0.000097
N86	N	-0.406369	1.186539	0.500097
N87	N	-0.946358	0.156326	-0.216224
N88	N	-0.446358	0.656326	0.283776
C89	C	-0.975151	0.127492	0.260144
C90	C	-0.475151	0.627492	0.760144
C91	C	-0.971240	0.131405	0.347551
C92	C	-0.471240	0.631405	0.847551
C93	C	-0.919109	0.183505	0.391260
C94	C	-0.419109	0.683505	0.891260
C95	C	-0.870882	0.231691	0.347557
C96	C	-0.370882	0.731691	0.847557
C97	C	-0.874789	0.227773	0.260152
C98	C	-0.374789	0.727773	0.760152
C99	C	-0.902038	0.200594	0.652668
C100	C	-0.402038	0.700594	1.152668
C101	C	-0.898135	0.204509	0.740080
C102	C	-0.398135	0.704509	1.240080
C103	C	-0.998493	0.104222	0.740067
C104	C	-0.498493	0.604222	1.240067
C105	C	-1.002399	0.100313	0.652660
C106	C	-0.502399	0.600313	1.152660
C107	C	-0.954169	0.148495	0.608966
C108	C	-0.454169	0.648495	1.108966
N109	N	-0.915112	0.187508	0.480603
N110	N	-0.415112	0.687508	0.980603
N111	N	-0.958163	0.144488	0.519624
N112	N	-0.458163	0.644488	1.019624
H113	H	-0.689080	0.284128	0.000090
H114	H	-0.189080	0.784128	0.500090
O115	O	-0.321167	0.329684	0.000005
O116	O	0.178833	0.829684	0.500005
C117	C	-0.301324	0.368100	-0.071922
C118	C	0.198676	0.868100	0.428078
H119	H	-0.244111	0.341989	-0.095888
H120	H	0.255889	0.841989	0.404112
H121	H	-0.293296	0.433663	-0.055751
H122	H	0.206704	0.933663	0.444249
H123	H	-0.350519	0.359713	-0.122286
H124	H	0.149481	0.859713	0.377714
H125	H	-0.784698	0.787074	0.000082
H126	H	-0.284698	1.287074	0.500082
O127	O	-0.159099	0.316539	0.000171
O128	O	0.340901	0.816539	0.500171
C129	C	-0.078784	0.294750	0.000155
C130	C	0.421216	0.794750	0.500155
H131	H	-0.070584	0.233897	0.026439
H132	H	0.429416	0.733897	0.526439
H133	H	-0.042615	0.339464	0.040475
H134	H	0.457385	0.839464	0.540475
H135	H	-0.058207	0.293269	-0.066461
H136	H	0.441793	0.793269	0.433539
O137	O	-0.806870	0.407775	0.000004
O138	O	-0.306870	0.907775	0.500004
C139	C	-0.802015	0.357313	-0.071921
C140	C	-0.302015	0.857313	0.428079
H141	H	-0.863854	0.339674	-0.095888
H142	H	-0.363854	0.839674	0.404112
H143	H	-0.766537	0.302307	-0.055748
H144	H	-0.266537	0.802307	0.444252
H145	H	-0.771727	0.389151	-0.122286
H146	H	-0.271727	0.889151	0.377714
H147	H	-0.706838	0.026046	0.000090
H148	H	-0.206838	0.526046	0.500090
H149	H	-1.044848	0.057889	0.617074
H150	H	-0.544848	0.557889	1.117074
O151	O	-0.855162	0.247480	0.610360
O152	O	-0.355162	0.747480	1.110360
C153	C	-0.808303	0.294292	0.667685
C154	C	-0.308303	0.794292	1.167685
H155	H	-0.837852	0.300012	0.729984
H156	H	-0.337852	0.800012	1.229984
H157	H	-0.801357	0.355267	0.642431
H158	H	-0.301357	0.855267	1.142431
H159	H	-0.747811	0.265450	0.676994
H160	H	-0.247811	0.765450	1.176994
H161	H	-0.796690	0.936203	0.000084
H162	H	-0.296690	1.436203	0.500084
O163	O	-1.025811	0.076813	0.217818
O164	O	-0.525811	0.576813	0.717818
C165	C	-1.067547	0.035139	0.275133
C166	C	-0.567547	0.535139	0.775133
H167	H	-1.032430	0.035002	0.337442
H168	H	-0.532430	0.535002	0.837442
H169	H	-1.076749	-0.028100	0.249883
H170	H	-0.576749	0.471900	0.749883
H171	H	-1.127208	0.064813	0.284421
H172	H	-0.627208	0.564813	0.784421
O173	O	-1.017974	0.084519	0.390030
O174	O	-0.517974	0.584519	0.890030
C175	C	-0.970526	0.035558	0.440611
C176	C	-0.470526	0.535558	0.940611
H177	H	-0.909539	0.029117	0.414283
H178	H	-0.409539	0.529117	0.914283
H179	H	-0.998688	-0.024934	0.441594
H180	H	-0.498688	0.475066	0.941594
H181	H	-0.964983	0.062896	0.506855
H182	H	-0.464983	0.562896	1.006855
H183	H	-0.828432	0.274109	0.383150
H184	H	-0.328432	0.774109	0.883150
H185	H	-0.333316	0.059864	0.000125
H186	H	0.166684	0.559864	0.500125
O187	O	-1.045256	0.057447	0.782642
O188	O	-0.545256	0.557447	1.282642
C189	C	-1.030646	0.072087	0.869160
C190	C	-0.530646	0.572087	1.369160
H191	H	-0.969371	0.098088	0.881106
H192	H	-0.469371	0.598088	1.381106
H193	H	-1.034185	0.014514	0.902379
H194	H	-0.534185	0.514514	1.402379
H195	H	-1.076566	0.115496	0.893956
H196	H	-0.576566	0.615496	1.393956
H197	H	-0.855682	0.246939	0.775663
H198	H	-0.355682	0.746939	1.275663
H199	H	-0.830507	0.562682	0.000101
H200	H	-0.330507	1.062682	0.500101
H201	H	-1.088582	0.544939	0.000124
H202	H	-0.588582	1.044939	0.500124
O203	O	-1.066525	0.924013	0.000052
O204	O	-0.566525	1.424013	0.500052
C205	C	-1.124970	0.865797	0.000069
C206	C	-0.624970	1.365797	0.500069
H207	H	-1.100588	0.807457	-0.026214
H208	H	-0.600588	1.307457	0.473786
H209	H	-1.178425	0.884321	-0.040253
H210	H	-0.678425	1.384321	0.459747
H211	H	-1.143158	0.858537	0.066684
H212	H	-0.643158	1.358537	0.566684
O213	O	-1.053421	0.762058	-0.000046
O214	O	-0.553421	1.262058	0.499954
C215	C	-1.057079	0.710986	-0.071952
C216	C	-0.557079	1.210986	0.428048
H217	H	-1.020961	0.736279	-0.122219
H218	H	-0.520961	1.236279	0.377781
H219	H	-1.120993	0.704655	-0.096088
H220	H	-0.620993	1.204655	0.403912
H221	H	-1.032241	0.650727	-0.055695
H222	H	-0.532241	1.150727	0.444305
O223	O	-0.827865	0.274466	0.217666
O224	O	-0.327865	0.774466	0.717666
C225	C	-0.778937	0.226970	0.167102
C226	C	-0.278937	0.726970	0.667102
H227	H	-0.772544	0.165985	0.193447
H228	H	-0.272544	0.665985	0.693447
H229	H	-0.718423	0.255085	0.166116
H230	H	-0.218423	0.755085	0.666116
H231	H	-0.806276	0.221433	0.100856
H232	H	-0.306276	0.721433	0.600856
H233	H	-1.076597	0.395808	0.000126
H234	H	-0.576597	0.895808	0.500126
O235	O	-0.532772	0.282809	-0.000045
O236	O	-0.032772	0.782809	0.499955
C237	C	-0.553116	0.324480	-0.071953
C238	C	-0.053116	0.824480	0.428047
H239	H	-0.580821	0.282428	-0.122220
H240	H	-0.080821	0.782428	0.377780
H241	H	-0.497921	0.351320	-0.096088
H242	H	0.002079	0.851320	0.403912
H243	H	-0.597055	0.373389	-0.055700
H244	H	-0.097055	0.873389	0.444300
H245	H	-0.557705	0.014061	0.000112
H246	H	-0.057705	0.514061	0.500112
O247	O	-0.178626	0.036124	0.000162
O248	O	0.321374	0.536124	0.500162
C249	C	-0.236844	-0.022323	0.000140
C250	C	0.263156	0.477677	0.500140
H251	H	-0.292827	0.004410	0.026433
H252	H	0.207173	0.504410	0.526433
H253	H	-0.214705	-0.072172	0.040451
H254	H	0.285295	0.427828	0.540451
H255	H	-0.250077	-0.046469	-0.066478
H256	H	0.249923	0.453531	0.433522
