data_functionalizedCrystal
_audit_creation_method	'MofGen! by Chris Wilmer'
_symmetry_space_group_name_H-M	'P1'
_symmetry_Int_Tables_number	1
_symmetry_cell_setting	triclinic
loop_
_symmetry_equiv_pos_as_xyz
  x,y,z
_cell_length_a	12.759401
_cell_length_b	12.759399
_cell_length_c	12.759393
_cell_angle_alpha	90.029806
_cell_angle_beta	90.019442
_cell_angle_gamma	90.013324
loop_
_atom_site_label
_atom_site_type_symbol
_atom_site_fract_x
_atom_site_fract_y
_atom_site_fract_z
Zn1	Zn	-1.606252	0.418277	-0.594007
Zn2	Zn	-1.606145	0.593989	-0.418326
Zn3	Zn	-1.430554	0.418319	-0.418343
Zn4	Zn	-1.430541	0.593909	-0.593964
O5	O	-1.518373	0.506124	-0.506160
O6	O	-1.753258	0.441602	-0.570713
O7	O	-1.582813	0.570738	-0.271307
O8	O	-1.453911	0.271293	-0.441670
O9	O	-1.753180	0.570697	-0.441641
O10	O	-1.582995	0.271262	-0.570730
O11	O	-1.453807	0.441674	-0.271320
O12	O	-1.283531	0.441596	-0.441629
O13	O	-1.453889	0.570560	-0.740991
O14	O	-1.283522	0.570601	-0.570657
O15	O	-1.582983	0.441524	-0.741022
O16	O	-1.582801	0.741000	-0.441599
O17	O	-1.453785	0.740941	-0.570640
C18	C	-1.245405	0.506095	-0.506141
C19	C	-1.128629	0.506108	-0.506157
C20	C	-1.073808	0.439008	-0.573468
C21	C	-0.964084	0.439014	-0.573473
C22	C	-0.964011	0.573231	-0.438854
C23	C	-1.073733	0.573218	-0.438845
C24	C	-0.814165	0.315172	-0.611240
C25	C	-0.759341	0.248080	-0.678567
C26	C	-0.794997	0.232071	-0.781107
C27	C	-0.885476	0.283168	-0.816340
C28	C	-0.940295	0.350267	-0.749018
C29	C	-0.904640	0.366257	-0.646464
C30	C	-1.223654	0.697062	-0.401088
C31	C	-1.278475	0.764167	-0.333771
C32	C	-1.242820	0.780187	-0.231230
C33	C	-1.152338	0.729108	-0.196001
C34	C	-1.097517	0.662003	-0.263318
C35	C	-1.133179	0.645982	-0.365858
C36	C	-1.518308	0.779091	-0.506136
C37	C	-1.518377	0.895868	-0.506161
C38	C	-1.518446	0.506028	-0.780193
C39	C	-1.518477	0.505987	-0.896970
C40	C	-0.792406	0.506144	-0.506176
C41	C	-0.909183	0.506127	-0.506172
C42	C	-1.518466	0.232090	-0.506207
C43	C	-1.518506	0.115314	-0.506227
C44	C	-1.585632	0.950725	-0.439046
C45	C	-1.585699	1.060449	-0.439081
C46	C	-1.451248	1.060448	-0.573349
C47	C	-1.451187	0.950726	-0.573319
C48	C	-1.709709	1.210331	-0.401693
C49	C	-1.776955	1.265193	-0.334561
C50	C	-1.793119	1.229651	-0.232051
C51	C	-1.742023	1.139250	-0.196651
C52	C	-1.674769	1.084394	-0.263777
C53	C	-1.658625	1.119934	-0.366302
C54	C	-1.327176	0.800842	-0.610696
C55	C	-1.259916	0.745985	-0.677818
C56	C	-1.243741	0.781524	-0.780330
C57	C	-1.294819	0.871929	-0.815725
C58	C	-1.362078	0.926787	-0.748604
C59	C	-1.378255	0.891240	-0.646093
C60	C	-1.585654	0.573161	-0.951829
C61	C	-1.585685	0.573109	-1.061553
C62	C	-1.451353	0.438707	-1.061549
C63	C	-1.451328	0.438754	-0.951827
C64	C	-1.709611	0.610598	-1.211515
C65	C	-1.776778	0.677788	-1.266377
C66	C	-1.792864	0.780320	-1.230759
C67	C	-1.741766	0.815682	-1.140280
C68	C	-1.674591	0.748498	-1.085423
C69	C	-1.658525	0.645951	-1.121039
C70	C	-1.327401	0.401276	-0.801864
C71	C	-1.260220	0.334096	-0.747005
C72	C	-1.244123	0.231563	-0.782621
C73	C	-1.295202	0.196204	-0.873103
C74	C	-1.362384	0.263384	-0.927963
C75	C	-1.378482	0.365916	-0.892339
C76	C	-1.518360	0.506143	-0.233192
C77	C	-1.518533	0.505888	-0.116416
H78	H	-1.252699	0.684015	-0.484583
O79	O	-0.904796	0.645616	-0.366264
H80	H	-0.925815	0.627485	-0.283837
O81	O	-1.865662	1.288807	-0.159645
H82	H	-1.898481	1.357630	-0.201484
O83	O	-1.759108	0.926281	-1.101877
H84	H	-1.712287	0.939584	-1.029754
O85	O	-1.619690	0.986881	-0.225604
H86	H	-1.642835	0.919277	-0.275266
O87	O	-1.277850	0.085609	-0.911517
H88	H	-1.324651	0.072311	-0.983654
O89	O	-0.735869	0.159702	-0.853718
H90	H	-0.775858	0.157158	-0.930946
H91	H	-1.118501	0.384359	-0.628275
O92	O	-1.037882	0.405373	-0.786998
H93	H	-1.053472	0.382969	-0.869614
O94	O	-0.923936	0.265906	-0.926941
H95	H	-0.870623	0.210657	-0.967831
O96	O	-1.378759	1.119615	-0.645762
H97	H	-1.390087	1.205129	-0.634498
H98	H	-1.755182	1.110325	-0.113172
O99	O	-1.171664	0.159097	-0.723453
H100	H	-1.138846	0.200904	-0.654550
O101	O	-1.417491	0.225250	-1.025550
H102	H	-1.395022	0.142662	-1.041099
O103	O	-1.865311	0.852793	-1.289925
H104	H	-1.898141	0.810978	-1.358818
H105	H	-1.403673	1.000396	-0.777434
H106	H	-1.396681	0.383970	-1.106228
O107	O	-0.661765	0.192954	-0.640569
H108	H	-0.646191	0.215336	-0.557945
H109	H	-0.785132	0.328189	-0.527741
H110	H	-1.818383	0.648985	-1.340045
O111	O	-1.658122	0.891552	-0.366639
H112	H	-1.611113	0.841641	-0.313120
H113	H	-1.818558	1.338798	-0.363393
O114	O	-1.301953	0.852565	-0.158625
H115	H	-1.249636	0.917353	-0.133388
O116	O	-1.277385	0.910270	-0.926295
H117	H	-1.222045	0.856930	-0.967026
H118	H	-1.218619	0.362898	-0.673336
O119	O	-1.171196	0.722359	-0.852731
H120	H	-1.138392	0.653523	-0.810902
H121	H	-1.696564	1.239271	-0.485168
O122	O	-1.204822	0.648473	-0.639648
H123	H	-1.227380	0.632962	-0.557093
O124	O	-1.344631	0.762513	-0.500123
H125	H	-1.268759	0.761415	-0.457559
O126	O	-1.376065	0.819280	-0.371751
H127	H	-1.435348	0.760156	-0.395439
O128	O	-0.999930	0.606895	-0.225324
H129	H	-0.984348	0.629298	-0.142707
H130	H	-1.640341	0.627897	-0.907167
O131	O	-1.113874	0.746372	-0.085400
H132	H	-1.167202	0.801605	-0.044505
H133	H	-1.632985	0.777291	-1.011760
H134	H	-1.696530	0.527105	-1.240517
H135	H	-1.340508	0.484766	-0.772852
