data_functionalizedCrystal
_audit_creation_method	'MofGen! by Chris Wilmer'
_symmetry_space_group_name_H-M	'P1'
_symmetry_Int_Tables_number	1
_symmetry_cell_setting	triclinic
loop_
_symmetry_equiv_pos_as_xyz
  x,y,z
_cell_length_a	17.639181
_cell_length_b	17.640280
_cell_length_c	13.032268
_cell_angle_alpha	87.294217
_cell_angle_beta	109.617708
_cell_angle_gamma	70.392638
loop_
_atom_site_label
_atom_site_type_symbol
_atom_site_fract_x
_atom_site_fract_y
_atom_site_fract_z
Zn1	Zn	1.319673	-0.588901	-0.080249
Zn2	Zn	1.364963	-0.709205	0.138736
Zn3	Zn	1.192310	-0.550684	0.050167
Zn4	Zn	1.209716	-0.698830	-0.080294
O5	O	1.271665	-0.636905	0.007090
O6	O	1.443954	-0.625195	-0.014115
O7	O	1.353730	-0.676525	0.273232
O8	O	1.182966	-0.443407	-0.004182
O9	O	1.477229	-0.713582	0.146772
O10	O	1.276539	-0.471484	-0.099998
O11	O	1.226883	-0.560060	0.208160
O12	O	1.076345	-0.550000	-0.004224
O13	O	1.212632	-0.695900	-0.226532
O14	O	1.089133	-0.658843	-0.100073
O15	O	1.293417	-0.615135	-0.226500
O16	O	1.370608	-0.820176	0.146730
O17	O	1.256548	-0.812554	-0.014191
C18	C	1.052072	-0.599149	-0.061765
C19	C	0.958132	-0.583019	-0.091240
C20	C	0.735776	-0.759628	0.231053
C21	C	0.647501	-0.744460	0.203344
C22	C	0.612874	-0.652605	0.035667
C23	C	0.701147	-0.667761	0.063365
C24	C	0.762592	-0.721274	0.161058
C25	C	0.727963	-0.629408	-0.006630
C26	C	0.816229	-0.644567	0.021063
C27	C	0.877679	-0.698079	0.118750
C28	C	0.850857	-0.736433	0.188751
C29	C	0.666517	-0.575900	-0.104327
C30	C	0.693333	-0.537546	-0.174321
C31	C	0.781600	-0.552701	-0.146625
C32	C	0.843050	-0.606213	-0.048938
C33	C	0.808421	-0.514347	-0.216626
C34	C	0.896687	-0.529506	-0.188933
C35	C	0.931316	-0.621372	-0.021245
C36	C	1.320402	-0.845501	0.075860
C37	C	1.341327	-0.934755	0.105270
C38	C	1.113021	-1.208526	-0.216602
C39	C	1.132687	-1.292391	-0.188934
C40	C	1.251514	-1.300285	-0.021482
C41	C	1.231861	-1.216419	-0.049139
C42	C	1.162613	-1.170546	-0.146700
C43	C	1.281452	-1.178439	0.020764
C44	C	1.261797	-1.094580	-0.006889
C45	C	1.192551	-1.048701	-0.104444
C46	C	1.142958	-1.086686	-0.174352
C47	C	1.350696	-1.224313	0.118328
C48	C	1.400287	-1.186334	0.188231
C49	C	1.380637	-1.102474	0.160575
C50	C	1.311390	-1.056594	0.063020
C51	C	1.430230	-1.064488	0.230483
C52	C	1.410575	-0.980629	0.202831
C53	C	1.291735	-0.972735	0.035367
C54	C	1.492116	-0.674809	0.076213
C55	C	1.586059	-0.690961	0.105669
C56	C	1.249914	-0.658623	-0.265496
C57	C	1.240645	-0.667878	-0.381655
C58	C	1.222759	-0.427501	-0.061965
C59	C	1.201918	-0.338265	-0.091391
C60	C	1.276483	-0.632044	-0.433427
C61	C	1.266904	-0.641608	-0.553484
C62	C	1.293367	-0.615222	0.278611
C63	C	1.302747	-0.605769	0.394747
H64	H	0.900890	-0.780004	0.268308
F65	F	1.191264	-0.717230	-0.439893
H66	H	0.949549	-0.710413	0.141302
H67	H	1.314254	-0.594280	-0.388871
H68	H	1.229120	-0.679365	-0.598042
H69	H	1.340519	-0.568001	-0.560703
F70	F	0.547473	-0.595658	-0.068305
F71	F	0.801175	-0.816585	0.335028
H72	H	0.981348	-0.664942	0.058312
F73	F	1.325211	-1.349115	0.082346
H74	H	1.176544	-0.980415	-0.126951
F75	F	0.572576	-0.559766	-0.133796
H76	H	1.235352	-0.935384	-0.044083
F77	F	1.463350	-0.940204	0.277234
H78	H	0.625674	-0.775699	0.260348
F79	F	1.503921	-1.113319	0.334315
F80	F	0.627932	-0.480600	-0.278294
H81	H	0.758381	-0.470783	-0.296173
H82	H	1.086575	-1.049336	-0.253802
F83	F	0.925229	-0.488686	-0.263430
H84	H	1.056638	-1.171175	-0.296052
F85	F	1.473985	-1.235164	0.292058
H86	H	1.092308	-1.323313	-0.245873
H87	H	1.366698	-1.292597	0.140837
