data_functionalizedCrystal
_audit_creation_method	'MofGen! by Chris Wilmer'
_symmetry_space_group_name_H-M	'P1'
_symmetry_Int_Tables_number	1
_symmetry_cell_setting	triclinic
loop_
_symmetry_equiv_pos_as_xyz
  x,y,z
_cell_length_a	16.625548
_cell_length_b	16.625546
_cell_length_c	17.639306
_cell_angle_alpha	101.183476
_cell_angle_beta	78.775108
_cell_angle_gamma	90.023536
loop_
_atom_site_label
_atom_site_type_symbol
_atom_site_fract_x
_atom_site_fract_y
_atom_site_fract_z
Zn1	Zn	1.324776	-0.413142	-0.446893
Zn2	Zn	1.297441	-0.520726	-0.314718
Zn3	Zn	1.162703	-0.385917	-0.314736
Zn4	Zn	1.189898	-0.547929	-0.446846
O5	O	1.243704	-0.466929	-0.380798
O6	O	1.433985	-0.427422	-0.429371
O7	O	1.256746	-0.480065	-0.204117
O8	O	1.184261	-0.276702	-0.332294
O9	O	1.413901	-0.506464	-0.332264
O10	O	1.303335	-0.296704	-0.429389
O11	O	1.157755	-0.381022	-0.204130
O12	O	1.053475	-0.407399	-0.332249
O13	O	1.230611	-0.552827	-0.557456
O14	O	1.073456	-0.526429	-0.429309
O15	O	1.329705	-0.453800	-0.557490
O16	O	1.283116	-0.637161	-0.332218
O17	O	1.204106	-0.657147	-0.429292
C18	C	1.034209	-0.466912	-0.380776
C19	C	0.944590	-0.466929	-0.380785
C20	C	1.243621	-0.676413	-0.380765
C21	C	1.243665	-0.766036	-0.380777
C22	C	0.616421	-0.466941	-0.380819
C23	C	0.707727	-0.466935	-0.380807
C24	C	0.780502	-0.466935	-0.380802
C25	C	0.871814	-0.466929	-0.380791
C26	C	1.243822	-1.094229	-0.380860
C27	C	1.243776	-1.002916	-0.380839
C28	C	1.243743	-0.930135	-0.380818
C29	C	1.243698	-0.838817	-0.380798
C30	C	1.454018	-0.466945	-0.380821
C31	C	1.543641	-0.466953	-0.380830
C32	C	1.286241	-0.509385	-0.586953
C33	C	1.304368	-0.527477	-0.674804
C34	C	1.243813	-0.256630	-0.380849
C35	C	1.243860	-0.167013	-0.380870
C36	C	1.106312	-0.329183	-0.963792
C37	C	1.123363	-0.346200	-1.046342
C38	C	1.226432	-0.449323	-1.046308
C39	C	1.209392	-0.432312	-0.963757
C40	C	1.149331	-0.372241	-0.922506
C41	C	1.252411	-0.475370	-0.922470
C42	C	1.235370	-0.458363	-0.839927
C43	C	1.175310	-0.398297	-0.798670
C44	C	1.132290	-0.355234	-0.839962
C45	C	1.312468	-0.535445	-0.963723
C46	C	1.355487	-0.578503	-0.922437
C47	C	1.338450	-0.561492	-0.839891
C48	C	1.278390	-0.501426	-0.798634
C49	C	1.381470	-0.604555	-0.798599
C50	C	1.364429	-0.587547	-0.716055
C51	C	1.261349	-0.484418	-0.716091
C52	C	1.201380	-0.424579	-0.175445
C53	C	1.183409	-0.406260	-0.087595
H54	H	1.161430	-0.384456	-0.731457
C55	C	1.331058	-0.553762	-1.053344
C56	C	1.357334	-0.482639	-1.080682
C57	C	1.374476	-0.499485	-1.163235
H58	H	1.282920	-0.571516	-1.072114
H59	H	1.373015	-0.595676	-1.072028
H60	H	1.315380	-0.440739	-1.062006
H61	H	1.405476	-0.464875	-1.061934
H62	H	1.416433	-0.541399	-1.181920
H63	H	1.326336	-0.517240	-1.181997
H64	H	1.392314	-0.451234	-1.181795
C65	C	1.420693	-0.643662	-0.967370
C66	C	1.426424	-0.649329	-1.048496
C67	C	1.486492	-0.709336	-1.089911
H68	H	1.406146	-0.695098	-0.953918
H69	H	1.472109	-0.629075	-0.953893
H70	H	1.375020	-0.663920	-1.061967
H71	H	1.440982	-0.597909	-1.061971
H72	H	1.537908	-0.694750	-1.076434
H73	H	1.471939	-0.760768	-1.076452
H74	H	1.490394	-0.713184	-1.144958
C75	C	1.446783	-0.669708	-0.843291
C76	C	1.522424	-0.648032	-0.823211
C77	C	1.582607	-0.708037	-0.864357
H78	H	1.450880	-0.673726	-0.898377
H79	H	1.432206	-0.721100	-0.829725
H80	H	1.536999	-0.596654	-0.836783
H81	H	1.518355	-0.644020	-0.768133
H82	H	1.568029	-0.759430	-0.850791
H83	H	1.586696	-0.712051	-0.919440
H84	H	1.633934	-0.693342	-0.850733
C85	C	1.411103	-0.634447	-0.671321
C86	C	1.397664	-0.718356	-0.691387
C87	C	1.440651	-0.761591	-0.650200
H88	H	1.392395	-0.615821	-0.616242
H89	H	1.468096	-0.625491	-0.684863
H90	H	1.340684	-0.727307	-0.677840
H91	H	1.416376	-0.737006	-0.746459
H92	H	1.497644	-0.752635	-0.663742
H93	H	1.421939	-0.742958	-0.595123
H94	H	1.431545	-0.818528	-0.663815
H95	H	1.083390	-0.306310	-0.806373
C96	C	1.196013	-0.419307	-0.671334
C97	C	1.120366	-0.441003	-0.691388
C98	C	1.060161	-0.381053	-0.650165
H99	H	1.210519	-0.367884	-0.684839
H100	H	1.191973	-0.415357	-0.616254
H101	H	1.124408	-0.444943	-0.746456
H102	H	1.105835	-0.492416	-0.677881
H103	H	1.056120	-0.377103	-0.595085
H104	H	1.074674	-0.329634	-0.663673
H105	H	1.008826	-0.395769	-0.663761
H106	H	1.057412	-0.280259	-0.930203
H107	H	1.088330	-0.311129	-1.079954
H108	H	1.275331	-0.498235	-1.079906
