data_functionalizedCrystal
_audit_creation_method	'MofGen! by Chris Wilmer'
_symmetry_space_group_name_H-M	'P1'
_symmetry_Int_Tables_number	1
_symmetry_cell_setting	triclinic
loop_
_symmetry_equiv_pos_as_xyz
  x,y,z
_cell_length_a	16.109301
_cell_length_b	10.723024
_cell_length_c	15.186229
_cell_angle_alpha	89.997422
_cell_angle_beta	89.999362
_cell_angle_gamma	83.964675
loop_
_atom_site_label
_atom_site_type_symbol
_atom_site_fract_x
_atom_site_fract_y
_atom_site_fract_z
O1	O	1.104074	0.160391	-0.073171
O2	O	0.862130	0.180351	-0.073184
O3	O	0.988683	-0.011279	-0.073174
O4	O	0.977521	0.352021	-0.073181
O5	O	0.988674	-0.011282	0.073283
O6	O	0.862121	0.180348	0.073273
O7	O	1.104066	0.160388	0.073287
Zn8	Zn	0.983092	0.170368	0.096533
Zn9	Zn	0.983103	0.170371	-0.096431
O10	O	0.977513	0.352018	0.073276
C11	C	0.831146	0.179541	0.000043
C12	C	0.738836	0.177117	0.000037
C13	C	0.987866	-0.057770	0.000054
C14	C	0.985436	-0.196292	0.000050
C15	C	0.517200	0.285190	0.000045
C16	C	0.430466	0.282903	0.000051
C17	C	0.449003	0.055540	0.000052
C18	C	0.535735	0.057829	0.000052
C19	C	0.569831	0.172657	0.000045
C20	C	0.396365	0.168081	0.000050
C21	C	0.302324	0.165600	0.000056
C22	C	0.663877	0.175139	0.000040
C23	C	1.056249	-0.272213	0.000053
C24	C	1.053739	-0.415383	0.000050
C25	C	1.135050	0.161198	0.000058
C26	C	1.227359	0.163622	0.000057
C27	C	0.978329	0.398508	0.000047
C28	C	0.980760	0.537031	0.000044
N29	N	0.983091	0.170364	0.228226
N30	N	0.983112	0.170365	-0.228123
C31	C	1.039148	0.085539	0.453953
C32	C	1.039150	0.085536	0.546143
C33	C	0.927049	0.255194	0.546143
C34	C	0.927043	0.255190	0.453955
C35	C	0.983097	0.170364	0.407862
C36	C	0.983105	0.170365	0.592240
C37	C	0.983108	0.170362	0.692196
C38	C	0.983094	0.170365	0.307900
H39	H	0.387617	0.374539	0.000053
C40	C	0.879451	0.471198	0.425553
C41	C	0.865429	0.348441	0.403284
H42	H	0.841417	0.528760	0.394267
H43	H	0.871429	0.483336	0.487046
H44	H	0.935015	0.484754	0.410435
H45	H	0.809867	0.334881	0.418408
H46	H	0.873444	0.336298	0.341778
C47	C	0.490163	0.509697	0.000056
C48	C	0.554679	0.411408	0.000049
H49	H	0.513301	0.587619	0.000066
H50	H	0.456722	0.504083	-0.051015
H51	H	0.456718	0.504057	0.051132
H52	H	0.588120	0.417043	-0.051030
H53	H	0.588134	0.417025	0.051125
C54	C	1.185893	-0.257304	0.075341
C55	C	1.140607	-0.216895	0.000055
H56	H	1.237976	-0.223162	0.075336
H57	H	1.155164	-0.229899	0.126404
H58	H	1.195264	-0.346261	0.075333
H59	H	1.131231	-0.127938	0.000066
H60	H	1.171343	-0.244293	-0.051021
C61	C	0.877288	0.330543	0.687461
C62	C	0.865444	0.348444	0.596811
H63	H	0.839259	0.388121	0.718738
H64	H	0.867782	0.247271	0.702572
H65	H	0.932855	0.344118	0.702552
H66	H	0.809878	0.334860	0.581719
H67	H	0.874944	0.431735	0.581694
C68	C	1.088861	0.010115	0.312636
C69	C	1.100716	-0.007767	0.403286
H70	H	1.126863	-0.047505	0.281360
H71	H	1.033288	-0.003400	0.297561
H72	H	1.098408	0.093377	0.297507
H73	H	1.091163	-0.091026	0.418416
H74	H	1.156302	0.005739	0.418367
C75	C	0.324278	-0.048923	0.000042
C76	C	0.411521	-0.070676	0.000049
H77	H	0.301142	-0.126847	0.000033
H78	H	0.306259	-0.002605	0.051113
H79	H	0.306267	-0.002582	-0.051034
H80	H	0.429532	-0.117009	0.051128
H81	H	0.429547	-0.117014	-0.051027
C82	C	1.086752	-0.130459	0.574522
C83	C	1.100766	-0.007704	0.596804
H84	H	1.124797	-0.188023	0.605795
H85	H	1.031199	-0.144030	0.589640
H86	H	1.094771	-0.142579	0.513020
H87	H	1.092741	0.004420	0.658306
H88	H	1.156333	0.005872	0.581692
C89	C	0.836084	-0.154042	0.000036
C90	C	0.901080	-0.251616	0.000040
H91	H	0.784005	-0.188197	0.000023
H92	H	0.840072	-0.103893	0.051108
H93	H	0.840088	-0.103873	-0.051038
H94	H	0.897079	-0.301780	0.051117
H95	H	0.897089	-0.301785	-0.051038
C96	C	0.545353	-0.167149	0.000043
C97	C	0.593594	-0.065877	0.000048
H98	H	0.581075	-0.243514	0.000037
H99	H	0.511140	-0.163321	0.051112
H100	H	0.511137	-0.163303	-0.051034
H101	H	0.627806	-0.069719	0.051129
H102	H	0.627821	-0.069707	-0.051027
C103	C	1.117253	-0.628224	0.000042
C104	C	1.135580	-0.503440	0.000049
H105	H	1.167781	-0.682586	0.000035
H106	H	1.085782	-0.643368	0.051111
H107	H	1.085776	-0.643349	-0.051035
H108	H	1.167052	-0.488312	0.051129
H109	H	1.167065	-0.488290	-0.051026
H110	H	0.920135	-0.397741	0.000048
