data_functionalizedCrystal
_audit_creation_method	'MofGen! by Chris Wilmer'
_symmetry_space_group_name_H-M	'P1'
_symmetry_Int_Tables_number	1
_symmetry_cell_setting	triclinic
loop_
_symmetry_equiv_pos_as_xyz
  x,y,z
_cell_length_a	29.839131
_cell_length_b	14.908618
_cell_length_c	14.908294
_cell_angle_alpha	89.826006
_cell_angle_beta	93.261378
_cell_angle_gamma	93.264291
loop_
_atom_site_label
_atom_site_type_symbol
_atom_site_fract_x
_atom_site_fract_y
_atom_site_fract_z
Zn1	Zn	-0.234461	-1.345120	-0.587570
Zn2	Zn	-0.305518	-1.353650	-0.437196
Zn3	Zn	-0.225830	-1.203443	-0.428566
Zn4	Zn	-0.304982	-1.194677	-0.578844
O5	O	-0.267698	-1.274222	-0.508044
O6	O	-0.247723	-1.472074	-0.574887
O7	O	-0.291560	-1.340963	-0.310227
O8	O	-0.164112	-1.222335	-0.449698
O9	O	-0.299929	-1.478341	-0.464407
O10	O	-0.170453	-1.326425	-0.566518
O11	O	-0.233013	-1.230606	-0.303887
O12	O	-0.232493	-1.076457	-0.441237
O13	O	-0.299015	-1.207396	-0.705825
O14	O	-0.290646	-1.070017	-0.551645
O15	O	-0.247204	-1.317925	-0.712236
O16	O	-0.368310	-1.332463	-0.455945
O17	O	-0.367917	-1.215667	-0.560013
C18	C	-0.260575	-1.040612	-0.494558
C19	C	-0.257540	-0.940672	-0.488810
C20	C	-0.384414	-1.274063	-0.507990
C21	C	-0.434350	-1.274075	-0.508002
C22	C	-0.312475	-0.746224	-0.592823
C23	C	-0.309624	-0.652321	-0.587425
C24	C	-0.248986	-0.658960	-0.472622
C25	C	-0.251836	-0.752863	-0.478020
C26	C	-0.283583	-0.796492	-0.538121
C27	C	-0.286435	-0.890397	-0.543514
C28	C	-0.225795	-0.897034	-0.428716
C29	C	-0.222944	-0.803131	-0.423318
C30	C	-0.744196	-1.335138	-0.453946
C31	C	-0.931874	-1.335247	-0.453987
O32	O	-0.956306	-1.387038	-0.407985
N33	N	-0.955147	-1.274405	-0.508122
C34	C	-0.931499	-1.213535	-0.562256
O35	O	-0.955602	-1.161794	-0.608309
C36	C	-0.743823	-1.213431	-0.562219
C37	C	-0.720551	-1.274271	-0.508073
C38	C	-0.720924	-1.395974	-0.399805
C39	C	-0.674008	-1.395943	-0.399792
C40	C	-0.650363	-1.335076	-0.453919
C41	C	-0.673635	-1.274240	-0.508059
C42	C	-0.720176	-1.152567	-0.616356
C43	C	-0.673254	-1.152547	-0.616344
C44	C	-0.649983	-1.213387	-0.562198
C45	C	-0.603073	-1.213342	-0.562173
N46	N	-0.579799	-1.274184	-0.508038
C47	C	-0.603444	-1.335051	-0.453911
C48	C	-1.030032	-1.213593	-0.562270
C49	C	-1.076951	-1.213618	-0.562278
C50	C	-1.077322	-1.335331	-0.454011
C51	C	-1.030402	-1.335301	-0.453998
C52	C	-1.006758	-1.274435	-0.508135
C53	C	-0.504915	-1.334981	-0.453886
C54	C	-0.457994	-1.334942	-0.453875
C55	C	-0.457628	-1.213232	-0.562145
C56	C	-0.504544	-1.213267	-0.562154
C57	C	-0.528187	-1.274149	-0.508021
O58	O	-0.578612	-1.161585	-0.608159
O59	O	-0.579334	-1.386798	-0.407879
C60	C	-0.791113	-1.335169	-0.453959
C61	C	-0.814385	-1.274333	-0.508100
C62	C	-0.790740	-1.213467	-0.562227
C63	C	-0.861304	-1.274358	-0.508108
C64	C	-0.884948	-1.335225	-0.453981
C65	C	-0.861674	-1.396067	-0.399846
C66	C	-0.814758	-1.396036	-0.399832
C67	C	-0.814014	-1.152625	-0.616362
C68	C	-0.860931	-1.152660	-0.616371
C69	C	-0.884575	-1.213527	-0.562243
C70	C	-0.150527	-1.274406	-0.508119
C71	C	-0.100596	-1.274484	-0.508151
C72	C	-0.274012	-1.260731	-0.742568
C73	C	-0.276703	-1.254982	-0.842508
C74	C	-0.274845	-0.508745	-0.521576
C75	C	-0.277881	-0.608685	-0.527326
C76	C	-0.307466	-1.189334	-0.980032
C77	C	-0.304941	-1.194734	-0.886129
C78	C	-0.250988	-1.309832	-0.892796
C79	C	-0.253513	-1.304432	-0.986698
C80	C	-0.281753	-1.244182	-1.030313
C81	C	-0.284281	-1.238787	-1.124218
C82	C	-0.230325	-1.353879	-1.130882
C83	C	-0.227800	-1.359279	-1.036980
C84	C	-0.261377	-1.287713	-0.274435
C85	C	-0.258565	-1.293636	-0.174506
H86	H	-0.312285	-0.925918	-0.592450
H87	H	-1.011457	-1.384843	-0.409909
H88	H	-1.096581	-1.384891	-0.409938
H89	H	-0.439048	-1.384485	-0.409779
O90	O	-0.792110	-1.455176	-0.347366
C91	C	-0.768087	-1.510266	-0.401945
H92	H	-0.761923	-1.474578	-0.468222
H93	H	-0.734479	-1.524442	-0.366013
H94	H	-0.788434	-1.576325	-0.415733
O95	O	-0.311704	-1.180340	-1.166732
C96	C	-0.308413	-1.187317	-1.260395
H97	H	-0.296162	-1.255992	-1.277234
H98	H	-0.342836	-1.179112	-1.295712
H99	H	-0.283581	-1.132490	-1.283978
H100	H	-1.010784	-1.164026	-0.606356
H101	H	-0.197096	-0.767595	-0.374388
H102	H	-0.330464	-1.140282	-1.015544
O103	O	-0.205358	-1.407062	-1.179860
C104	C	-0.213649	-1.389394	-1.272095
H105	H	-0.226595	-1.319248	-1.280909
H106	H	-0.181144	-1.393485	-1.308150
H107	H	-0.239910	-1.441162	-1.301811
O108	O	-0.223536	-1.368241	-0.850304
C109	C	-0.191493	-1.320224	-0.793057
H110	H	-0.204875	-1.252857	-0.775067
H111	H	-0.184827	-1.360649	-0.729133
H112	H	-0.158869	-1.308339	-0.828679
H113	H	-0.325876	-1.150066	-0.845193
O114	O	-0.200332	-1.417825	-0.994749
C115	C	-0.178189	-1.465096	-1.059270
H116	H	-0.177310	-1.424422	-1.124083
H117	H	-0.142358	-1.476308	-1.032711
H118	H	-0.196993	-1.532782	-1.073188
H119	H	-0.338326	-0.781748	-0.641755
H120	H	-0.524160	-1.384558	-0.409808
H121	H	-0.223137	-0.623421	-0.423697
O122	O	-0.337737	-0.603628	-0.640599
C123	C	-0.366358	-0.662275	-0.694818
H124	H	-0.368927	-0.731320	-0.661830
H125	H	-0.401191	-0.634562	-0.702728
H126	H	-0.352099	-0.668367	-0.763739
O127	O	-0.527141	-1.154255	-0.614879
C128	C	-0.518644	-1.168656	-0.705632
H129	H	-0.508015	-1.240208	-0.714368
H130	H	-0.550453	-1.158347	-0.749612
H131	H	-0.490595	-1.119060	-0.726302
H132	H	-0.655062	-1.445486	-0.355705
O133	O	-0.197790	-0.945965	-0.375535
C134	C	-0.223407	-1.003564	-0.320472
H135	H	-0.258752	-1.015787	-0.352872
H136	H	-0.206782	-1.070304	-0.312277
H137	H	-0.225400	-0.971181	-0.251743
O138	O	-0.743818	-1.455136	-0.347136
C139	C	-0.713208	-1.508833	-0.299375
H140	H	-0.678577	-1.472161	-0.294116
H141	H	-0.725150	-1.522561	-0.229092
H142	H	-0.711144	-1.575196	-0.336292
H143	H	-1.095894	-1.164068	-0.606360
H144	H	-0.438369	-1.163672	-0.606212
H145	H	-0.654006	-1.102984	-0.660431
O146	O	-0.742707	-1.093435	-0.669041
C147	C	-0.711767	-1.039705	-0.716793
H148	H	-0.679510	-1.076340	-0.722038
H149	H	-0.726922	-1.025995	-0.787080
H150	H	-0.703850	-0.973335	-0.679875
H151	H	-0.879874	-1.103109	-0.660461
O152	O	-0.884598	-1.455327	-0.347319
C153	C	-0.876346	-1.543777	-0.372242
H154	H	-0.843258	-1.543590	-0.406904
H155	H	-0.874215	-1.587888	-0.309721
H156	H	-0.904893	-1.571376	-0.420253
O157	O	-0.791117	-1.093404	-0.668963
C158	C	-0.821726	-1.039732	-0.716757
H159	H	-0.854094	-1.038805	-0.679753
H160	H	-0.806310	-0.968320	-0.722190
H161	H	-0.829525	-1.068669	-0.786974
