data_functionalizedCrystal
_audit_creation_method	'MofGen! by Chris Wilmer'
_symmetry_space_group_name_H-M	'P1'
_symmetry_Int_Tables_number	1
_symmetry_cell_setting	triclinic
loop_
_symmetry_equiv_pos_as_xyz
  x,y,z
_cell_length_a	17.699097
_cell_length_b	23.532407
_cell_length_c	22.010155
_cell_angle_alpha	89.990798
_cell_angle_beta	89.980702
_cell_angle_gamma	83.068554
loop_
_atom_site_label
_atom_site_type_symbol
_atom_site_fract_x
_atom_site_fract_y
_atom_site_fract_z
O1	O	1.003716	0.072053	-0.050582
O2	O	1.503716	0.572053	0.449418
O3	O	0.783292	0.081415	-0.050573
O4	O	1.283292	0.581415	0.449427
O5	O	0.900151	-0.006178	-0.050566
O6	O	1.400151	0.493822	0.449434
O7	O	0.886857	0.159647	-0.050588
O8	O	1.386857	0.659647	0.449412
O9	O	0.900116	-0.006178	0.050484
O10	O	1.400116	0.493822	0.550484
O11	O	0.783257	0.081415	0.050478
O12	O	1.283257	0.581415	0.550478
O13	O	1.003681	0.072053	0.050469
O14	O	1.503681	0.572053	0.550469
Cu15	Cu	0.893466	0.076734	0.059700
Cu16	Cu	1.393466	0.576734	0.559700
Cu17	Cu	0.893507	0.076734	-0.059804
Cu18	Cu	1.393507	0.576734	0.440196
O19	O	0.886822	0.159646	0.050462
O20	O	1.386822	0.659646	0.550462
C21	C	0.755079	0.081078	-0.000046
C22	C	1.255079	0.581078	0.499954
C23	C	0.671067	0.080068	-0.000042
C24	C	1.171067	0.580068	0.499958
C25	C	0.899795	-0.027395	-0.000040
C26	C	1.399795	0.472605	0.499960
C27	C	0.898777	-0.090615	-0.000035
C28	C	1.398777	0.409385	0.499965
C29	C	0.155399	0.073876	-0.055149
C30	C	0.655399	0.573876	0.444851
C31	C	0.234338	0.074821	-0.055146
C32	C	0.734338	0.574821	0.444854
C33	C	0.273783	0.075295	-0.000061
C34	C	0.773783	0.575295	0.499939
C35	C	0.234285	0.074817	0.055025
C36	C	0.734285	0.574817	0.555025
C37	C	0.155348	0.073868	0.055021
C38	C	0.655348	0.573868	0.555021
C39	C	0.552630	0.078645	0.055040
C40	C	1.052630	0.578645	0.555040
C41	C	0.631572	0.079596	0.055040
C42	C	1.131572	0.579596	0.555040
C43	C	0.631620	0.079599	-0.055127
C44	C	1.131620	0.579599	0.444873
C45	C	0.552683	0.078649	-0.055130
C46	C	1.052683	0.578649	0.444870
C47	C	0.513193	0.078169	-0.000045
C48	C	1.013193	0.578169	0.499955
C49	C	0.427598	0.077143	-0.000049
C50	C	0.927598	0.577143	0.499951
C51	C	0.359375	0.076325	-0.000056
C52	C	0.859375	0.576325	0.499944
C53	C	0.961548	-0.489536	-0.000071
C54	C	1.461548	0.010464	0.499929
C55	C	0.960603	-0.548939	-0.000075
C56	C	1.460603	-0.048939	0.499925
O57	O	1.018792	-0.585514	-0.000100
O58	O	1.518792	-0.085514	0.499900
N59	N	0.891130	-0.571767	-0.000072
N60	N	1.391130	-0.071767	0.499928
C61	C	0.822598	-0.535189	-0.000070
C62	C	1.322598	-0.035189	0.499930
O63	O	0.763419	-0.560060	-0.000069
O64	O	1.263419	-0.060060	0.499931
C65	C	0.823545	-0.475787	-0.000070
C66	C	1.323545	0.024213	0.499930
C67	C	0.893022	-0.452962	-0.000067
C68	C	1.393022	0.047038	0.499933
C69	C	1.031020	-0.466710	-0.000069
C70	C	1.531020	0.033290	0.499931
C71	C	1.031965	-0.407311	-0.000063
C72	C	1.531965	0.092689	0.499937
C73	C	0.963439	-0.370738	-0.000059
C74	C	1.463439	0.129262	0.499941
C75	C	0.893967	-0.393563	-0.000062
C76	C	1.393967	0.106437	0.499938
C77	C	0.755014	-0.439210	-0.000073
C78	C	1.255014	0.060790	0.499927
C79	C	0.755966	-0.379805	-0.000073
C80	C	1.255966	0.120195	0.499927
C81	C	0.825443	-0.356980	-0.000070
C82	C	1.325443	0.143020	0.499930
C83	C	0.826386	-0.297591	-0.000052
C84	C	1.326386	0.202409	0.499948
N85	N	0.895858	-0.274763	-0.000056
N86	N	1.395858	0.225237	0.499944
C87	C	0.964385	-0.311336	-0.000059
C88	C	1.464385	0.188664	0.499941
C89	C	0.820616	-0.659937	-0.000072
C90	C	1.320616	-0.159937	0.499928
C91	C	0.819669	-0.719338	-0.000068
C92	C	1.319669	-0.219338	0.499932
C93	C	0.957674	-0.733084	-0.000074
C94	C	1.457674	-0.233084	0.499926
C95	C	0.958620	-0.673682	-0.000074
C96	C	1.458620	-0.173682	0.499926
C97	C	0.890089	-0.637109	-0.000075
C98	C	1.390089	-0.137109	0.499925
C99	C	0.966365	-0.186594	-0.000047
C100	C	1.466365	0.313406	0.499953
C101	C	0.967304	-0.127189	-0.000038
C102	C	1.467304	0.372811	0.499962
C103	C	0.829299	-0.113448	-0.000036
C104	C	1.329299	0.386552	0.499964
C105	C	0.828360	-0.172848	-0.000041
C106	C	1.328360	0.327152	0.499959
C107	C	0.896899	-0.209420	-0.000048
C108	C	1.396899	0.290580	0.499952
O109	O	0.768227	-0.260981	-0.000030
O110	O	1.268227	0.239019	0.499970
O111	O	1.023554	-0.286456	-0.000069
O112	O	1.523554	0.213544	0.499931
C113	C	1.031894	0.072390	-0.000059
C114	C	1.531894	0.572390	0.499941
C115	C	1.115906	0.073400	-0.000067
C116	C	1.615906	0.573400	0.499933
C117	C	0.887178	0.180864	-0.000066
C118	C	1.387178	0.680864	0.499934
C119	C	0.888196	0.244084	-0.000075
C120	C	1.388196	0.744084	0.499925
N121	N	0.893442	0.076734	0.143752
N122	N	1.393442	0.576734	0.643752
N123	N	0.893537	0.076730	-0.143856
N124	N	1.393537	0.576730	0.356144
C125	C	0.939151	0.111227	0.563525
C126	C	1.439151	0.611227	1.063525
C127	C	0.939160	0.111226	0.627133
C128	C	1.439160	0.611226	1.127133
O129	O	0.977996	0.140550	0.660018
O130	O	1.477996	0.640550	1.160018
N131	N	0.893522	0.076728	0.658959
N132	N	1.393522	0.576728	1.158959
C133	C	0.847878	0.042224	0.627175
C134	C	1.347878	0.542224	1.127175
O135	O	0.809061	0.012880	0.660087
O136	O	1.309061	0.512880	1.160087
C137	C	0.847874	0.042223	0.563569
C138	C	1.347874	0.542223	1.063569
C139	C	0.893509	0.076728	0.531745
C140	C	1.393509	0.576728	1.031745
C141	C	0.984783	0.145729	0.531701
C142	C	1.484783	0.645729	1.031701
C143	C	0.984772	0.145731	0.468098
C144	C	1.484772	0.645731	0.968098
C145	C	0.939131	0.111232	0.436319
C146	C	1.439131	0.611232	0.936319
C147	C	0.893499	0.076730	0.468142
C148	C	1.393499	0.576730	0.968142
C149	C	0.802235	0.007717	0.531786
C150	C	1.302235	0.507717	1.031786
C151	C	0.802235	0.007718	0.468175
C152	C	1.302235	0.507718	0.968175
C153	C	0.847870	0.042223	0.436352
C154	C	1.347870	0.542223	0.936352
C155	C	0.847847	0.042232	0.372759
C156	C	1.347847	0.542232	0.872759
N157	N	0.893484	0.076731	0.340932
N158	N	1.393484	0.576731	0.840932
C159	C	0.939126	0.111230	0.372712
C160	C	1.439126	0.611230	0.872712
C161	C	0.847892	0.042229	0.760753
C162	C	1.347892	0.542229	1.260753
C163	C	0.847892	0.042233	0.824358
C164	C	1.347892	0.542233	1.324358
C165	C	0.939174	0.111234	0.824311
C166	C	1.439174	0.611234	1.324311
C167	C	0.939170	0.111233	0.760705
C168	C	1.439170	0.611233	1.260705
C169	C	0.893530	0.076727	0.728926
C170	C	1.393530	0.576727	1.228926
C171	C	0.939101	0.111232	0.239141
C172	C	1.439101	0.611232	0.739141
C173	C	0.939084	0.111233	0.175532
C174	C	1.439084	0.611233	0.675532
C175	C	0.847805	0.042230	0.175585
C176	C	1.347805	0.542230	0.675585
C177	C	0.847818	0.042231	0.239188
C178	C	1.347818	0.542231	0.739188
C179	C	0.893472	0.076734	0.270964
C180	C	1.393472	0.576734	0.770964
O181	O	0.809033	0.012922	0.339833
O182	O	1.309033	0.512922	0.839833
O183	O	0.977944	0.140564	0.339792
O184	O	1.477944	0.640564	0.839792
H185	H	0.123288	0.073494	-0.100005
H186	H	0.623288	0.573494	0.399995
Cl187	Cl	1.045966	-0.644994	-0.000071
Cl188	Cl	1.545966	-0.144994	0.499929
H189	H	0.698438	-0.457783	-0.000079
H190	H	1.198438	0.042217	0.499921
Cl191	Cl	1.043822	-0.779073	-0.000083
Cl192	Cl	1.543822	-0.279073	0.499917
Cl193	Cl	0.502992	0.078057	0.124291
Cl194	Cl	1.002992	0.578057	0.624291
H195	H	0.810642	0.014143	0.149698
H196	H	1.310642	0.514143	0.649698
Cl197	Cl	0.790441	-0.001141	0.279196
Cl198	Cl	1.290441	0.498859	0.779196
H199	H	0.976277	0.139328	0.265006
H200	H	1.476277	0.639328	0.765006
H201	H	1.021936	0.173826	0.442193
H202	H	1.521936	0.673826	0.942193
H203	H	0.266490	0.075205	-0.099999
H204	H	0.766490	0.575205	0.400001
H205	H	1.088540	-0.388734	-0.000063
H206	H	1.588540	0.111266	0.499937
Cl207	Cl	1.042168	0.189107	0.571641
Cl208	Cl	1.542168	0.689107	1.071641
H209	H	1.022175	-0.216364	-0.000055
H210	H	1.522175	0.283636	0.499945
H211	H	1.023883	-0.108609	-0.000035
H212	H	1.523883	0.391391	0.499965
H213	H	0.765069	-0.020382	0.442304
H214	H	1.265069	0.479618	0.942304
H215	H	0.663685	0.079982	0.099899
H216	H	1.163685	0.579982	0.599899
Cl217	Cl	1.117180	-0.512679	-0.000072
Cl218	Cl	1.617180	-0.012679	0.499928
H219	H	0.763094	-0.737916	-0.000060
H220	H	1.263094	-0.237916	0.499940
H221	H	0.663783	0.079988	-0.099980
H222	H	1.163783	0.579988	0.400020
Cl223	Cl	0.503100	0.078057	-0.124383
Cl224	Cl	1.003100	0.578057	0.375617
Cl225	Cl	0.734453	-0.613965	-0.000067
Cl226	Cl	1.234453	-0.113965	0.499933
H227	H	0.700158	-0.350029	-0.000075
H228	H	1.200158	0.149971	0.499925
Cl229	Cl	0.283873	0.075411	0.124275
Cl230	Cl	0.783873	0.575411	0.624275
Cl231	Cl	0.105701	0.073264	0.124270
Cl232	Cl	0.605701	0.573264	0.624270
Cl233	Cl	0.996545	0.154609	0.720705
Cl234	Cl	1.496545	0.654609	1.220705
Cl235	Cl	0.741016	-0.201542	-0.000033
Cl236	Cl	1.241016	0.298458	0.499967
H237	H	0.773507	-0.083659	-0.000031
H238	H	1.273507	0.416341	0.499969
Cl239	Cl	0.996453	0.154618	0.135529
Cl240	Cl	1.496453	0.654618	0.635529
H241	H	0.976338	0.139326	0.850198
H242	H	1.476338	0.639326	1.350198
H243	H	0.810722	0.014142	0.850264
H244	H	1.310722	0.514142	1.350264
H245	H	0.810719	0.014132	0.734883
H246	H	1.310719	0.514132	1.234883
Cl247	Cl	0.744862	-0.035664	0.571777
Cl248	Cl	1.244862	0.464336	1.071777
