data_functionalizedCrystal
_audit_creation_method	'MofGen! by Chris Wilmer'
_symmetry_space_group_name_H-M	'P1'
_symmetry_Int_Tables_number	1
_symmetry_cell_setting	triclinic
loop_
_symmetry_equiv_pos_as_xyz
  x,y,z
_cell_length_a	12.594516
_cell_length_b	17.639155
_cell_length_c	17.639306
_cell_angle_alpha	87.838055
_cell_angle_beta	101.188703
_cell_angle_gamma	101.176288
loop_
_atom_site_label
_atom_site_type_symbol
_atom_site_fract_x
_atom_site_fract_y
_atom_site_fract_z
Zn1	Zn	-0.815974	-1.247532	-0.194296
Zn2	Zn	-0.315974	-0.747532	0.305704
Zn3	Zn	-0.952414	-1.221801	-0.067344
Zn4	Zn	-0.452414	-0.721801	0.432656
Zn5	Zn	-0.746932	-1.094911	-0.093044
Zn6	Zn	-0.246932	-0.594911	0.406956
Zn7	Zn	-0.966360	-1.120535	-0.219982
Zn8	Zn	-0.466360	-0.620535	0.280018
O9	O	-0.870420	-1.171195	-0.143666
O10	O	-0.370420	-0.671195	0.356334
O11	O	-0.857132	-1.350372	-0.155950
O12	O	-0.357132	-0.850372	0.344050
O13	O	-0.890426	-1.183477	0.035501
O14	O	-0.390426	-0.683477	0.535501
O15	O	-0.607159	-1.115202	-0.106481
O16	O	-0.107159	-0.615202	0.393519
O17	O	-0.957373	-1.331467	-0.062679
O18	O	-0.457373	-0.831467	0.437321
O19	O	-0.657884	-1.227331	-0.180871
O20	O	-0.157884	-0.727331	0.319129
O21	O	-0.739459	-1.090252	0.016619
O22	O	-0.239459	-0.590252	0.516619
O23	O	-0.752982	-0.992058	-0.131388
O24	O	-0.252982	-0.492058	0.368612
O25	O	-0.981142	-1.158874	-0.322828
O26	O	-0.481142	-0.658874	0.177172
O27	O	-0.914194	-1.010884	-0.224648
O28	O	-0.414194	-0.510884	0.275352
O29	O	-0.870654	-1.252178	-0.303957
O30	O	-0.370654	-0.752178	0.196043
O31	O	-1.103196	-1.208324	-0.087585
O32	O	-0.603196	-0.708324	0.412415
O33	O	-1.113442	-1.133924	-0.199728
O34	O	-0.613442	-0.633924	0.300272
C35	C	-0.827610	-0.973921	-0.183595
C36	C	-0.327610	-0.473921	0.316405
C37	C	-0.809327	-0.889529	-0.200694
C38	C	-0.309327	-0.389529	0.299306
C39	C	-1.009510	-0.562716	-0.013740
C40	C	-0.509510	-0.062716	0.486260
C41	C	-0.992319	-0.483419	-0.029815
C42	C	-0.492319	0.016581	0.470185
C43	C	-0.888204	-0.503132	-0.127082
C44	C	-0.388204	-0.003132	0.372918
C45	C	-0.905382	-0.582432	-0.111014
C46	C	-0.405382	-0.082432	0.388986
C47	C	-0.966037	-0.612217	-0.054342
C48	C	-0.466037	-0.112217	0.445658
C49	C	-0.861909	-0.631933	-0.151616
C50	C	-0.361909	-0.131933	0.348384
C51	C	-0.879091	-0.711227	-0.135551
C52	C	-0.379091	-0.211227	0.364449
C53	C	-0.939747	-0.741019	-0.078884
C54	C	-0.439747	-0.241019	0.421116
C55	C	-0.983220	-0.691511	-0.038278
C56	C	-0.483220	-0.191511	0.461722
C57	C	-0.801261	-0.602147	-0.208290
C58	C	-0.301261	-0.102147	0.291710
C59	C	-0.757788	-0.651648	-0.248892
C60	C	-0.257788	-0.151648	0.251108
C61	C	-0.774963	-0.730943	-0.232824
C62	C	-0.274963	-0.230943	0.267176
C63	C	-0.835618	-0.760735	-0.176157
C64	C	-0.335618	-0.260735	0.323843
C65	C	-0.731490	-0.780451	-0.273430
C66	C	-0.231490	-0.280451	0.226570
C67	C	-0.748672	-0.859744	-0.257365
C68	C	-0.248672	-0.359744	0.242635
C69	C	-0.852800	-0.840028	-0.160092
C70	C	-0.352800	-0.340028	0.339908
C71	C	-1.146945	-1.171136	-0.143667
C72	C	-0.646945	-0.671136	0.356333
C73	C	-1.265268	-1.171185	-0.143679
C74	C	-0.765268	-0.671185	0.356321
C75	C	-1.410896	-1.130755	-0.204639
C76	C	-0.910896	-0.630755	0.295361
C77	C	-1.361094	-1.203738	-0.209251
C78	C	-0.861094	-0.703738	0.290749
C79	C	-1.313511	-1.098216	-0.139100
C80	C	-0.813511	-0.598216	0.360900
C81	C	-1.426306	-1.244342	-0.148323
C82	C	-0.926306	-0.744342	0.351677
C83	C	-1.378709	-1.138766	-0.078148
C84	C	-0.878709	-0.638766	0.421852
C85	C	-1.328940	-1.211792	-0.082724
C86	C	-0.828940	-0.711792	0.417276
C87	C	-0.592825	-1.171279	-0.143678
C88	C	-0.092825	-0.671279	0.356322
C89	C	-0.474531	-1.171314	-0.143682
C90	C	0.025469	-0.671314	0.356318
C91	C	-0.935155	-1.211254	-0.341713
C92	C	-0.435155	-0.711254	0.158287
C93	C	-0.962741	-1.228325	-0.426109
C94	C	-0.462741	-0.728325	0.073891
C95	C	-0.913390	-0.369239	-0.103576
C96	C	-0.413390	0.130761	0.396424
C97	C	-0.931680	-0.453630	-0.086476
C98	C	-0.431680	0.046370	0.413524
C99	C	-0.660519	-1.041805	-0.752849
C100	C	-0.160519	-0.541805	-0.252849
C101	C	-0.686466	-1.057863	-0.832148
C102	C	-0.186466	-0.557863	-0.332148
C103	C	-0.843652	-1.154929	-0.812469
C104	C	-0.343652	-0.654929	-0.312469
C105	C	-0.817714	-1.138882	-0.733165
C106	C	-0.317714	-0.638882	-0.233165
C107	C	-0.726147	-1.082318	-0.703362
C108	C	-0.226147	-0.582318	-0.203362
C109	C	-0.883343	-1.179395	-0.683679
C110	C	-0.383343	-0.679395	-0.183679
C111	C	-0.857410	-1.163346	-0.604383
C112	C	-0.357410	-0.663346	-0.104383
C113	C	-0.765850	-1.106784	-0.574574
C114	C	-0.265850	-0.606784	-0.074574
C115	C	-0.700215	-1.066270	-0.624067
C116	C	-0.200215	-0.566270	-0.124067
C117	C	-0.974914	-1.235954	-0.713484
C118	C	-0.474914	-0.735954	-0.213484
C119	C	-1.040542	-1.276467	-0.663998
C120	C	-0.540542	-0.776467	-0.163998
C121	C	-1.014606	-1.260423	-0.584700
C122	C	-0.514606	-0.760423	-0.084700
C123	C	-0.923045	-1.203860	-0.554891
C124	C	-0.423045	-0.703860	-0.054891
C125	C	-1.080241	-1.300937	-0.535207
C126	C	-0.580241	-0.800937	-0.035207
C127	C	-1.054308	-1.284888	-0.455912
C128	C	-0.554308	-0.784888	0.044088
C129	C	-0.897113	-1.187812	-0.475595
C130	C	-0.397113	-0.687812	0.024405
C131	C	-0.805870	-1.131335	0.053619
C132	C	-0.305870	-0.631335	0.553619
C133	C	-0.778016	-1.114412	0.138044
C134	C	-0.278016	-0.614412	0.638044
H135	H	-1.058894	-0.586968	0.032412
H136	H	-0.558894	-0.086968	0.532412
H137	H	-0.787277	-0.537581	-0.221371
H138	H	-0.287277	-0.037581	0.278629
H139	H	-0.822540	-1.141760	-0.451327
H140	H	-0.322540	-0.641760	0.048673
C141	C	-1.492149	-1.327825	-0.153653
C142	C	-0.992149	-0.827825	0.346347
N143	N	-1.541745	-1.390703	-0.157671
N144	N	-1.041745	-0.890703	0.342329
H145	H	-1.115099	-1.322518	-0.688275
H146	H	-0.615099	-0.822518	-0.188275
H147	H	-0.625643	-1.020218	-0.599799
H148	H	-0.125643	-0.520218	-0.099799
C149	C	-1.247527	-1.014774	-0.133860
C150	C	-0.747527	-0.514774	0.366140
N151	N	-1.197835	-0.951924	-0.129918
N152	N	-0.697835	-0.451924	0.370082
C153	C	-0.664762	-0.747674	-0.335761
C154	C	-0.164762	-0.247674	0.164239
N155	N	-0.614495	-0.722986	-0.382705
N156	N	-0.114495	-0.222986	0.117295
H157	H	-1.293339	-1.246085	-0.031163
H158	H	-0.793339	-0.746085	0.468837
H159	H	-1.352480	-1.231216	-0.264669
H160	H	-0.852480	-0.731216	0.235331
C161	C	-0.559786	-0.979585	-0.720061
C162	C	-0.059786	-0.479585	-0.220061
N163	N	-0.483920	-0.932722	-0.695365
N164	N	0.016080	-0.432722	-0.195365
C165	C	-1.390389	-1.101621	-0.003311
C166	C	-0.890389	-0.601621	0.496689
N167	N	-1.399187	-1.073634	0.053054
N168	N	-0.899187	-0.573634	0.553054
C169	C	-0.700847	-0.914198	-0.302028
C170	C	-0.200847	-0.414198	0.197972
N171	N	-0.664826	-0.955214	-0.335671
N172	N	-0.164826	-0.455214	0.164329
C173	C	-1.049940	-0.724278	0.024066
C174	C	-0.549940	-0.224278	0.524066
N175	N	-1.100193	-0.748960	0.071020
N176	N	-0.600193	-0.248960	0.571020
C177	C	-0.737323	-1.089131	-0.487346
C178	C	-0.237323	-0.589131	0.012654
N179	N	-0.715835	-1.075835	-0.421646
N180	N	-0.215835	-0.575835	0.078354
C181	C	-0.919520	-0.872796	-0.097748
C182	C	-0.419520	-0.372796	0.402252
N183	N	-0.969774	-0.897477	-0.050794
N184	N	-0.469774	-0.397477	0.449206
H185	H	-1.154801	-1.346985	-0.559487
H186	H	-0.654801	-0.846985	-0.059487
C187	C	-0.614261	-1.013291	-0.886582
C188	C	-0.114261	-0.513291	-0.386582
N189	N	-0.559878	-0.979719	-0.927582
N190	N	-0.059878	-0.479719	-0.427582
C191	C	-0.944573	-1.216976	-0.845296
C192	C	-0.444573	-0.716976	-0.345296
N193	N	-1.020659	-1.263652	-0.870032
N194	N	-0.520659	-0.763652	-0.370032
C195	C	-1.126509	-1.329450	-0.401475
C196	C	-0.626509	-0.829450	0.098525
N197	N	-1.180897	-1.363011	-0.360473
N198	N	-0.680897	-0.863011	0.139527
H199	H	-0.953724	-0.805584	-0.065799
H200	H	-0.453724	-0.305584	0.434201
H201	H	-1.027727	-0.443116	0.003251
H202	H	-0.527727	0.056884	0.503251
H203	H	-0.996023	-1.249021	-0.778052
H204	H	-0.496023	-0.749021	-0.278052
H205	H	-0.708406	-0.627386	-0.295036
H206	H	-0.208406	-0.127386	0.204964
C207	C	-1.459307	-1.084575	-0.274310
C208	C	-0.959307	-0.584575	0.225690
N209	N	-1.495774	-1.049796	-0.326787
N210	N	-0.995774	-0.549796	0.173213
C211	C	-0.821465	-0.470356	-0.189407
C212	C	-0.321465	0.029644	0.310593
N213	N	-0.771185	-0.445669	-0.236346
N214	N	-0.271185	0.054331	0.263654
