data_functionalizedCrystal
_audit_creation_method	'MofGen! by Chris Wilmer'
_symmetry_space_group_name_H-M	'P1'
_symmetry_Int_Tables_number	1
_symmetry_cell_setting	triclinic
loop_
_symmetry_equiv_pos_as_xyz
  x,y,z
_cell_length_a	42.795324
_cell_length_b	42.779590
_cell_length_c	42.784980
_cell_angle_alpha	60.000112
_cell_angle_beta	89.999390
_cell_angle_gamma	59.987998
loop_
_atom_site_label
_atom_site_type_symbol
_atom_site_fract_x
_atom_site_fract_y
_atom_site_fract_z
O1	O	-0.214288	-0.275767	0.009302
O2	O	-0.168865	-0.211747	-0.009251
O3	O	-0.168848	-0.275765	0.054754
O4	O	-0.214305	-0.211749	-0.054702
O5	O	-0.220834	-0.223766	0.054749
O6	O	-0.220851	-0.159748	-0.009256
O7	O	-0.266274	-0.223767	0.009298
Zn8	Zn	-0.251816	-0.183501	0.000020
Zn9	Zn	-0.183323	-0.252013	0.000027
O10	O	-0.266291	-0.159749	-0.054707
C11	C	-0.079112	0.005332	-0.028111
C12	C	-0.098001	-0.013389	-0.028378
C13	C	-0.022515	-0.051278	-0.028115
C14	C	-0.041490	-0.069913	-0.028382
C15	C	-0.079101	-0.051276	-0.028117
C16	C	-0.041502	-0.013390	-0.028377
C17	C	-0.113690	0.131594	-0.017853
C18	C	-0.131508	0.167354	-0.014952
C19	C	-0.168778	0.185293	-0.013497
C20	C	-0.188096	0.224062	-0.010345
C21	C	-0.188230	0.167471	-0.014946
C22	C	-0.170414	0.131717	-0.017851
C23	C	-0.133143	0.113778	-0.019304
C24	C	-0.170748	-0.096092	-0.017875
C25	C	-0.188679	-0.116808	-0.014980
C26	C	-0.169338	-0.155545	-0.013527
C27	C	-0.188774	-0.178013	-0.010383
C28	C	-0.132063	-0.173563	-0.014974
C29	C	-0.114134	-0.152845	-0.017876
C30	C	-0.133481	-0.114107	-0.019324
C31	C	0.113950	-0.096099	-0.017868
C32	C	0.152599	-0.116819	-0.014966
C33	C	0.171992	-0.155557	-0.013515
C34	C	0.213898	-0.178026	-0.010367
C35	C	0.152736	-0.173574	-0.014962
C36	C	0.114089	-0.152853	-0.017862
C37	C	0.094697	-0.114113	-0.019318
C38	C	-0.113826	0.075006	-0.022451
C39	C	-0.098429	0.044101	-0.024961
C40	C	0.019389	-0.073744	-0.024969
C41	C	0.052791	-0.091650	-0.022462
C42	C	-0.098540	-0.073741	-0.024972
C43	C	-0.114037	-0.091646	-0.022467
C44	C	-0.356010	-0.440874	0.028197
C45	C	-0.393622	-0.422150	0.028460
C46	C	-0.356027	-0.384257	0.028191
C47	C	-0.393638	-0.365620	0.028454
C48	C	-0.412611	-0.384258	0.028192
C49	C	-0.337123	-0.422149	0.028459
C50	C	-0.264318	-0.567153	0.017962
C51	C	-0.246372	-0.602918	0.015068
C52	C	-0.265702	-0.620859	0.013616
C53	C	-0.246248	-0.659634	0.010471
C54	C	-0.302978	-0.603035	0.015061
C55	C	-0.320919	-0.567276	0.017959
C56	C	-0.301587	-0.549335	0.019410
C57	C	-0.549075	-0.339439	0.017942
C58	C	-0.587723	-0.318722	0.015043
C59	C	-0.607121	-0.279980	0.013583
C60	C	-0.649026	-0.257510	0.010434
C61	C	-0.587865	-0.261960	0.015027
C62	C	-0.549217	-0.282680	0.017933
C63	C	-0.529825	-0.321422	0.019388
C64	C	-0.264384	-0.339434	0.017939
C65	C	-0.246456	-0.318712	0.015035
C66	C	-0.265802	-0.279970	0.013577
C67	C	-0.246366	-0.257499	0.010426
C68	C	-0.303076	-0.261951	0.015020
C69	C	-0.321002	-0.282673	0.017923
C70	C	-0.301651	-0.321417	0.019386
C71	C	-0.321046	-0.510557	0.022550
C72	C	-0.336555	-0.479648	0.025054
C73	C	-0.336589	-0.361790	0.025042
C74	C	-0.321094	-0.343882	0.022533
C75	C	-0.454516	-0.361792	0.025043
C76	C	-0.487918	-0.343885	0.022535
C77	C	-0.412475	0.005352	-0.361575
C78	C	-0.393492	-0.013372	-0.380471
C79	C	-0.355875	-0.051263	-0.304973
C80	C	-0.336978	-0.069901	-0.323955
C81	C	-0.355876	-0.051263	-0.361571
C82	C	-0.393492	-0.013372	-0.323958
C83	C	-0.548962	0.131628	-0.396145
C84	C	-0.587614	0.167393	-0.413961
C85	C	-0.607004	0.185334	-0.451238
C86	C	-0.648915	0.224107	-0.470555
C87	C	-0.587738	0.167509	-0.470697
C88	C	-0.549088	0.131751	-0.452882
C89	C	-0.529700	0.113810	-0.415604
C90	C	-0.321311	-0.096083	-0.453247
C91	C	-0.303496	-0.116801	-0.471186
C92	C	-0.266221	-0.155542	-0.451845
C93	C	-0.246903	-0.178012	-0.471289
C94	C	-0.246760	-0.173562	-0.414564
C95	C	-0.264573	-0.152841	-0.396628
C96	C	-0.301852	-0.114100	-0.415974
C97	C	-0.321310	-0.096085	-0.168483
C98	C	-0.303496	-0.116806	-0.129828
C99	C	-0.266219	-0.155547	-0.110436
C100	C	-0.246903	-0.178017	-0.068524
C101	C	-0.246760	-0.173566	-0.129699
C102	C	-0.264576	-0.152845	-0.168352
C103	C	-0.301851	-0.114101	-0.187742
C104	C	-0.487791	0.075033	-0.396288
C105	C	-0.454385	0.044126	-0.380891
C106	C	-0.336560	-0.073730	-0.263062
C107	C	-0.321164	-0.091637	-0.229655
C108	C	-0.336561	-0.073729	-0.381019
C109	C	-0.321165	-0.091637	-0.396522
O110	O	0.337150	-0.223779	0.009306
O111	O	0.227709	-0.159761	-0.009240
O112	O	0.291712	-0.223787	0.054762
O113	O	0.273148	-0.159752	-0.054696
O114	O	0.291722	-0.275780	0.054757
O115	O	0.227720	-0.211754	-0.009244
O116	O	0.337161	-0.275772	0.009301
Zn117	Zn	0.282442	-0.252018	0.000027
Zn118	Zn	0.282428	-0.183515	0.000034
O119	O	0.273158	-0.211746	-0.054701
O120	O	-0.266145	0.327673	0.009342
O121	O	-0.220685	0.236755	-0.009214
O122	O	-0.220680	0.236741	0.054792
O123	O	-0.266150	0.327687	-0.054664
O124	O	-0.168709	0.236740	0.054793
O125	O	-0.168714	0.236754	-0.009213
O126	O	-0.214173	0.327672	0.009343
Zn127	Zn	-0.183192	0.282213	0.000065
Zn128	Zn	-0.251667	0.282214	0.000063
O129	O	-0.214178	0.327686	-0.054663
O130	O	-0.168850	-0.275763	-0.496831
O131	O	-0.214307	-0.211747	-0.451382
O132	O	-0.214290	-0.275765	-0.451377
O133	O	-0.168867	-0.211745	-0.496836
O134	O	-0.266276	-0.223765	-0.503364
O135	O	-0.266293	-0.159747	-0.503369
O136	O	-0.220836	-0.223763	-0.548818
Zn137	Zn	-0.251818	-0.183499	-0.534348
Zn138	Zn	-0.183325	-0.252011	-0.465852
O139	O	-0.220853	-0.159745	-0.548823
C140	C	0.310643	-0.384560	0.361636
C141	C	0.310900	-0.365917	0.324019
C142	C	0.310654	-0.441169	0.361632
C143	C	0.310912	-0.422440	0.324014
C144	C	0.310638	-0.384549	0.305033
C145	C	0.310916	-0.422451	0.380532
C146	C	0.300397	-0.339762	0.453327
C147	C	0.297498	-0.319050	0.471271
C148	C	0.296035	-0.280309	0.451932
C149	C	0.292884	-0.257845	0.471383
C150	C	0.297474	-0.262284	0.414650
C151	C	0.300378	-0.282999	0.396711
C152	C	0.301840	-0.321740	0.416052
C153	C	0.300362	-0.282577	0.168540
C154	C	0.297458	-0.261728	0.129886
C155	C	0.296004	-0.279610	0.110492
C156	C	0.292850	-0.257005	0.068580
C157	C	0.297459	-0.318347	0.129756
C158	C	0.300370	-0.339199	0.168410
C159	C	0.301819	-0.321308	0.187800
C160	C	0.300443	-0.567450	0.453310
C161	C	0.297550	-0.603212	0.471247
C162	C	0.296098	-0.621146	0.451904
C163	C	0.292960	-0.659920	0.471350
C164	C	0.297535	-0.603316	0.414623
C165	C	0.300427	-0.567555	0.396688
C166	C	0.301884	-0.549627	0.416036
C167	C	0.304985	-0.344197	0.396596
C168	C	0.307494	-0.362100	0.381089
C169	C	0.307518	-0.479943	0.381080
C170	C	0.305019	-0.510850	0.396583
C171	C	0.307484	-0.361941	0.263121
C172	C	0.304971	-0.343919	0.229713
C173	C	-0.079021	-0.384494	0.361618
C174	C	-0.041405	-0.422385	0.380518
C175	C	-0.079021	-0.384494	0.305020
C176	C	-0.041404	-0.422385	0.324006
C177	C	-0.022421	-0.441109	0.361622
C178	C	-0.097918	-0.365856	0.324001
C179	C	-0.170705	-0.282538	0.396171
C180	C	-0.188647	-0.261695	0.413984
C181	C	-0.169307	-0.279585	0.451260
C182	C	-0.188756	-0.256983	0.470573
C183	C	-0.132025	-0.318323	0.470724
C184	C	-0.114089	-0.339166	0.452913
C185	C	-0.133430	-0.321272	0.415635
C186	C	0.114066	-0.567385	0.453310
C187	C	0.152718	-0.603150	0.471253
C188	C	0.172109	-0.621091	0.451916
C189	C	0.214018	-0.659865	0.471364
C190	C	0.152843	-0.603266	0.414635
C191	C	0.114192	-0.567508	0.396695
C192	C	0.094805	-0.549568	0.416037
C193	C	-0.170704	-0.282540	0.168526
C194	C	-0.188644	-0.261693	0.129871
C195	C	-0.169303	-0.279584	0.110483
C196	C	-0.188752	-0.256982	0.068570
C197	C	-0.132024	-0.318318	0.129750
C198	C	-0.114086	-0.339161	0.168403
C199	C	-0.133431	-0.321270	0.187789
C200	C	-0.113977	-0.343875	0.396323
C201	C	-0.098472	-0.361891	0.380930
C202	C	-0.098471	-0.361892	0.263109
C203	C	-0.113976	-0.343876	0.229702
C204	C	0.019488	-0.479883	0.381074
C205	C	0.052894	-0.510791	0.396580
O206	O	-0.772184	0.327732	-0.548610
O207	O	-0.662734	0.236800	-0.503150
O208	O	-0.726717	0.236799	-0.503150
O209	O	-0.708201	0.327733	-0.548611
O210	O	-0.726718	0.236800	-0.451166
O211	O	-0.662735	0.236801	-0.451167
O212	O	-0.772184	0.327732	-0.496626
Zn213	Zn	-0.717460	0.282266	-0.465643
Zn214	Zn	-0.717459	0.282266	-0.534134
O215	O	-0.708201	0.327733	-0.496627
C216	C	0.254261	-0.050990	-0.361566
C217	C	0.253990	-0.013101	-0.380461
C218	C	0.254260	-0.050998	-0.304964
C219	C	0.253988	-0.013109	-0.323945
C220	C	0.254250	0.005618	-0.361561
C221	C	0.254000	-0.069631	-0.323950
C222	C	0.264527	-0.152930	-0.396138
C223	C	0.267428	-0.173769	-0.413955
C224	C	0.268880	-0.155875	-0.451231
C225	C	0.272033	-0.178472	-0.470549
C226	C	0.267427	-0.117139	-0.470689
C227	C	0.264521	-0.096300	-0.452874
C228	C	0.263071	-0.114197	-0.415596
C229	C	0.264473	0.131892	-0.453232
C230	C	0.267363	0.167655	-0.471170
C231	C	0.268815	0.185590	-0.451828
C232	C	0.271954	0.224362	-0.471271
C233	C	0.267371	0.167762	-0.414548
C234	C	0.264475	0.132006	-0.396613
C235	C	0.263028	0.114071	-0.415960
C236	C	0.264521	-0.152962	-0.168476
C237	C	0.267425	-0.173812	-0.129822
C238	C	0.268875	-0.155926	-0.110429
C239	C	0.272027	-0.178532	-0.068517
C240	C	0.267424	-0.117193	-0.129691
C241	C	0.264521	-0.096347	-0.168343
C242	C	0.263066	-0.114233	-0.187735
C243	C	0.259923	-0.091600	-0.396280
C244	C	0.257412	-0.073588	-0.380883
C245	C	0.257409	-0.073604	-0.263053
C246	C	0.259918	-0.091623	-0.229647
C247	C	0.257389	0.044390	-0.381007
C248	C	0.259890	0.075296	-0.396509
C249	C	-0.022480	-0.051361	0.361659
C250	C	-0.041453	-0.070001	0.380556
C251	C	-0.079082	0.005261	0.305059
C252	C	-0.097969	-0.013465	0.324042
C253	C	-0.079065	-0.051360	0.361658
C254	C	-0.041470	-0.013465	0.324042
C255	C	0.113987	-0.096185	0.396221
C256	C	0.152635	-0.116905	0.414036
C257	C	0.172031	-0.155649	0.451312
C258	C	0.213939	-0.178121	0.470628
C259	C	0.152776	-0.173671	0.470773
C260	C	0.114129	-0.152949	0.452960
C261	C	0.094735	-0.114204	0.415682
C262	C	-0.113587	-0.153325	0.453337
C263	C	-0.131392	-0.174170	0.471277
C264	C	-0.168662	-0.156280	0.451938
C265	C	-0.187967	-0.178881	0.471384
C266	C	-0.188129	-0.117538	0.414658
C267	C	-0.170328	-0.096690	0.396721
C268	C	-0.133053	-0.114590	0.416065
C269	C	-0.113674	0.131554	0.168568
C270	C	-0.131494	0.167321	0.129914
C271	C	-0.168765	0.185263	0.110523
C272	C	-0.188088	0.224042	0.068611
C273	C	-0.188214	0.167436	0.129787
C274	C	-0.170393	0.131670	0.168440
C275	C	-0.133123	0.113734	0.187829
C276	C	0.052829	-0.091738	0.396368
C277	C	0.019426	-0.073829	0.380973
C278	C	-0.098403	0.044040	0.263148
C279	C	-0.113804	0.074952	0.229741
C280	C	-0.098367	-0.073964	0.381107
C281	C	-0.113753	-0.091982	0.396611
O282	O	0.273175	-0.160097	0.496934
O283	O	0.291738	-0.224105	0.451475
O284	O	0.227736	-0.160104	0.451486
O285	O	0.337177	-0.224099	0.496923
O286	O	0.227766	-0.212118	0.503477
O287	O	0.291768	-0.276119	0.503466
O288	O	0.273205	-0.212111	0.548925
Zn289	Zn	0.282491	-0.252373	0.534450
Zn290	Zn	0.282452	-0.183843	0.465950
O291	O	0.337207	-0.276112	0.548914
C292	C	-0.356041	0.615787	-0.361530
C293	C	-0.393653	0.634427	-0.380427
C294	C	-0.356023	0.559166	-0.304930
C295	C	-0.393635	0.577892	-0.323914
C296	C	-0.412625	0.615787	-0.361530
C297	C	-0.337137	0.577892	-0.323914
C298	C	-0.264398	0.660612	-0.396091
C299	C	-0.246469	0.681332	-0.413906
C300	C	-0.265816	0.720076	-0.451182
C301	C	-0.246380	0.742549	-0.470497
C302	C	-0.303092	0.738098	-0.470643
C303	C	-0.321017	0.717375	-0.452830
C304	C	-0.301668	0.678631	-0.415552
C305	C	-0.549110	0.717751	-0.453210
C306	C	-0.587758	0.738596	-0.471150
C307	C	-0.607139	0.720706	-0.451812
C308	C	-0.649044	0.743307	-0.471257
C309	C	-0.587866	0.681965	-0.414531
C310	C	-0.549217	0.661116	-0.396594
C311	C	-0.529842	0.679016	-0.415938
C312	C	-0.264326	0.432873	-0.168439
C313	C	-0.246381	0.397106	-0.129785
C314	C	-0.265710	0.379163	-0.110395
C315	C	-0.246255	0.340385	-0.068482
C316	C	-0.302985	0.396990	-0.129659
C317	C	-0.320929	0.432757	-0.168312
C318	C	-0.301595	0.450693	-0.187700
C319	C	-0.321109	0.656165	-0.396239
C320	C	-0.336604	0.638256	-0.380844
C321	C	-0.336566	0.520387	-0.263020
C322	C	-0.321056	0.489475	-0.229613
C323	C	-0.454531	0.638391	-0.380979
C324	C	-0.487934	0.656409	-0.396483
H325	H	-0.218576	0.182082	-0.013763
O326	O	0.093371	-0.172395	0.473952
H327	H	0.068909	-0.147948	0.476715
O328	O	-0.228852	-0.219919	0.109093
H329	H	-0.229484	-0.193968	0.109685
H330	H	0.253559	0.002572	-0.411369
H331	H	0.268539	0.182166	-0.501522
H332	H	-0.306221	-0.437819	0.028883
O333	O	0.269001	-0.215548	-0.392969
H334	H	0.267509	-0.224494	-0.364054
O335	O	-0.110526	0.186571	-0.013387
H336	H	-0.129177	0.214450	-0.011126
H337	H	0.098283	-0.552783	0.469062
H338	H	0.268547	0.182371	-0.398801
O339	O	-0.243510	-0.381221	0.019516
H340	H	-0.240803	-0.408394	0.046725
O341	O	-0.110517	0.186547	0.109136
H342	H	-0.126798	0.221868	0.098385
O343	O	0.268991	-0.215586	-0.109049
H344	H	0.271258	-0.227080	-0.078913
O345	O	-0.608640	0.186789	-0.510878
H346	H	-0.594417	0.198980	-0.530602
O347	O	-0.021263	-0.110389	0.421497
H348	H	-0.019753	-0.137879	0.423173
H349	H	0.301598	-0.553041	0.366333
O350	O	0.262953	-0.054524	-0.473858
H351	H	0.264453	-0.045583	-0.502769
O352	O	-0.243454	-0.547832	0.019568
H353	H	-0.214515	-0.566246	0.018095
O354	O	-0.361129	0.451980	-0.189092
H355	H	-0.371554	0.433492	-0.169118
O356	O	-0.413800	-0.442906	0.029024
H357	H	-0.422150	-0.452893	0.055113
H358	H	-0.186182	-0.065146	0.366368
H359	H	-0.248639	0.629065	-0.365739
O360	O	-0.021303	-0.110294	-0.028951
H361	H	0.008093	-0.120169	-0.029089
H362	H	-0.219028	-0.102135	-0.013802
O363	O	-0.361204	-0.263235	0.019478
H364	H	-0.361214	-0.287692	0.046681
H365	H	-0.216119	0.666656	-0.398058
O366	O	-0.361515	-0.054302	-0.189397
H367	H	-0.372057	-0.045257	-0.169508
O368	O	-0.021211	-0.443144	0.303822
H369	H	-0.012843	-0.477599	0.319933
O370	O	-0.191391	0.112494	-0.019412
H371	H	-0.220299	0.130971	-0.017909
H372	H	-0.351367	0.732051	-0.468677
O373	O	-0.138903	0.007289	0.303856
H374	H	-0.157236	0.017265	0.319967
H375	H	-0.218565	0.182050	0.113998
O376	O	0.262952	-0.054570	-0.189119
H377	H	0.235750	-0.027346	-0.213586
O378	O	0.253418	0.007648	-0.303758
H379	H	0.253284	-0.011751	-0.274356
O380	O	0.268988	-0.097840	-0.510893
H381	H	0.294307	-0.096634	-0.511565
H382	H	-0.216407	-0.205112	-0.113907
H383	H	-0.248725	-0.167513	-0.366276
O384	O	0.311478	-0.443188	0.303820
H385	H	0.311623	-0.472735	0.323348
O386	O	-0.073474	0.112202	0.189481
H387	H	-0.062941	0.130601	0.169591
H388	H	0.263338	-0.167529	-0.184262
O389	O	-0.323834	0.377633	-0.108753
H390	H	-0.305093	0.349762	-0.078640
H391	H	-0.216107	-0.333385	0.013858
O392	O	0.302006	-0.548106	0.474173
H393	H	0.327330	-0.573974	0.500707
H394	H	0.098198	-0.064637	0.365869
O395	O	-0.191564	-0.263241	0.189436
H396	H	-0.220497	-0.232802	0.169544
H397	H	0.311348	-0.438125	0.411441
O398	O	-0.323823	-0.622386	0.013492
H399	H	-0.331319	-0.634586	0.039931
H400	H	0.311318	-0.335427	0.308781
O401	O	0.173404	-0.097473	0.393047
H402	H	0.153426	-0.067054	0.364133
H403	H	-0.083239	-0.167900	0.469091
H404	H	-0.115538	-0.205714	0.501630
H405	H	-0.116275	-0.332883	0.113961
H406	H	0.168572	-0.205216	0.501123
O407	O	-0.191615	-0.054309	-0.019445
H408	H	-0.220613	-0.045142	-0.018143
H409	H	0.263294	0.117292	-0.468987
O410	O	-0.111202	-0.215343	-0.013408
H411	H	-0.103706	-0.208597	-0.039848
H412	H	-0.533336	0.732326	-0.468964
O413	O	-0.323962	0.779889	-0.510843
H414	H	-0.305238	0.791275	-0.519959
O415	O	-0.608547	0.780385	-0.511353
H416	H	-0.588582	0.789330	-0.521786
O417	O	-0.073933	-0.172284	-0.019433
H418	H	-0.073922	-0.147829	-0.046636
O419	O	0.295901	-0.337642	0.108843
H420	H	0.297407	-0.368082	0.128732
O421	O	-0.608763	0.662663	-0.393668
H422	H	-0.638876	0.683668	-0.412402
H423	H	-0.218478	-0.102968	0.398913
O424	O	0.262918	0.112777	-0.356407
H425	H	0.264416	0.131253	-0.345967
H426	H	-0.083343	0.116992	-0.019037
O427	O	0.268984	-0.097895	-0.108779
H428	H	0.271242	-0.118893	-0.078667
O429	O	0.301976	-0.381546	0.474186
H430	H	0.327308	-0.407557	0.500715
O431	O	-0.191370	0.112447	0.189220
H432	H	-0.220282	0.130934	0.169246
O433	O	-0.324487	-0.097373	-0.109053
H434	H	-0.305839	-0.118294	-0.078916
O435	O	-0.021213	-0.443144	0.421457
H436	H	-0.040740	-0.423743	0.431464
H437	H	-0.083732	-0.370699	0.184088
O438	O	-0.413817	0.557140	-0.303727
H439	H	-0.394285	0.527592	-0.274324
H440	H	-0.026236	0.002205	0.308803
O441	O	0.093042	-0.054321	-0.019431
H442	H	0.068573	-0.027140	-0.046636
H443	H	-0.318829	-0.230404	0.013831
O444	O	-0.413852	0.674819	-0.421367
H445	H	-0.394333	0.684700	-0.431376
O446	O	-0.528431	0.619337	-0.356386
H447	H	-0.548399	0.610398	-0.345948
O448	O	-0.243585	-0.172277	-0.189127
H449	H	-0.259846	-0.180574	-0.199875
O450	O	-0.296201	0.557127	-0.303723
H451	H	-0.286199	0.576526	-0.323252
H452	H	0.296326	-0.333728	0.501625
H453	H	0.296378	-0.617726	0.501601
H454	H	0.253589	-0.100126	-0.308709
H455	H	0.098412	-0.167525	-0.019042
H456	H	0.263345	-0.167505	-0.365786
H457	H	0.296284	-0.230743	0.398908
H458	H	-0.533180	0.117025	-0.365792
O459	O	-0.138858	-0.325471	0.303808
H460	H	-0.148869	-0.315595	0.323336
H461	H	-0.116283	-0.332887	0.501074
O462	O	0.173648	-0.215353	-0.013400
H463	H	0.203756	-0.226733	-0.011144
O464	O	-0.206174	-0.622138	0.013504
H465	H	-0.195748	-0.603651	0.014995
O466	O	0.301927	-0.263560	0.356502
H467	H	0.300418	-0.233139	0.346066
O468	O	-0.361120	-0.548049	0.019515
H469	H	-0.371550	-0.566528	0.018014
H470	H	0.301545	-0.268009	0.184326
O471	O	0.301933	-0.380973	0.189187
H472	H	0.300430	-0.389905	0.169208
O473	O	-0.413848	-0.325207	0.028977
H474	H	-0.394332	-0.315321	0.029099
O475	O	0.295881	-0.219947	0.109107
H476	H	0.297373	-0.211008	0.129083
H477	H	-0.603297	0.181902	-0.398115
H478	H	-0.216034	0.382601	-0.114099
O479	O	-0.191568	-0.263244	0.355968
H480	H	-0.220505	-0.232812	0.345429
O481	O	-0.528162	-0.381227	0.019519
H482	H	-0.517413	-0.375654	-0.005043
H483	H	-0.603398	-0.333395	0.013865
O484	O	-0.243478	0.452226	-0.189351
H485	H	-0.214548	0.433828	-0.169461
H486	H	0.168631	-0.617878	0.398892
O487	O	-0.138932	0.007359	-0.028934
H488	H	-0.148943	0.036898	-0.029061
H489	H	-0.603659	-0.230417	0.013842
H490	H	-0.533542	-0.268006	0.019109
O491	O	0.295975	-0.622660	0.393758
H492	H	0.293728	-0.650526	0.412492
H493	H	-0.351664	-0.064539	-0.469002
H494	H	0.168275	-0.102147	-0.013788
O495	O	-0.021320	0.007362	-0.028940
H496	H	-0.040850	0.036907	-0.029076
H497	H	-0.083736	-0.370706	0.468762
O498	O	-0.296038	-0.110286	-0.303769
H499	H	-0.286027	-0.120162	-0.274367
H500	H	-0.408732	0.002305	-0.411381
O501	O	0.173498	-0.622370	0.511457
H502	H	0.153524	-0.603884	0.521889
H503	H	-0.408734	0.002301	-0.308721
H504	H	-0.533404	0.117243	-0.468729
H505	H	0.098508	-0.553000	0.366343
O506	O	-0.324485	-0.097373	-0.511390
H507	H	-0.353400	-0.066957	-0.521825
O508	O	-0.206549	-0.215331	-0.393707
H509	H	-0.197428	-0.226711	-0.412442
H510	H	-0.219000	-0.230155	0.398134
