data_functionalizedCrystal
_audit_creation_method	'MofGen! by Chris Wilmer'
_symmetry_space_group_name_H-M	'P1'
_symmetry_Int_Tables_number	1
_symmetry_cell_setting	triclinic
loop_
_symmetry_equiv_pos_as_xyz
  x,y,z
_cell_length_a	16.959455
_cell_length_b	13.897441
_cell_length_c	13.897448
_cell_angle_alpha	89.970373
_cell_angle_beta	90.014712
_cell_angle_gamma	89.975321
loop_
_atom_site_label
_atom_site_type_symbol
_atom_site_fract_x
_atom_site_fract_y
_atom_site_fract_z
Zn1	Zn	1.208431	-0.545538	-0.384070
Zn2	Zn	1.708431	-0.045538	0.115930
Zn3	Zn	1.208349	-0.384239	-0.545389
Zn4	Zn	1.708349	0.115761	-0.045389
Zn5	Zn	1.076249	-0.384239	-0.384101
Zn6	Zn	1.576249	0.115761	0.115899
Zn7	Zn	1.076229	-0.545475	-0.545316
Zn8	Zn	1.576229	-0.045475	-0.045316
O9	O	1.142314	-0.464873	-0.464719
O10	O	1.642314	0.035127	0.035281
O11	O	1.319031	-0.524168	-0.405487
O12	O	1.819031	-0.024168	0.094513
O13	O	1.190799	-0.249257	-0.524037
O14	O	1.690799	0.250743	-0.024037
O15	O	1.093826	-0.405662	-0.249115
O16	O	1.593826	0.094338	0.250885
O17	O	1.318970	-0.405662	-0.524007
O18	O	1.818970	0.094338	-0.024007
O19	O	1.190939	-0.524167	-0.249093
O20	O	1.690939	-0.024167	0.250907
O21	O	1.093746	-0.249257	-0.405540
O22	O	1.593746	0.250743	0.094460
O23	O	0.965636	-0.405601	-0.405469
O24	O	1.465636	0.094399	0.094531
O25	O	1.093792	-0.680465	-0.523883
O26	O	1.593792	-0.180465	-0.023883
O27	O	0.965621	-0.524060	-0.523913
O28	O	1.465621	-0.024060	-0.023913
O29	O	1.190920	-0.680511	-0.405416
O30	O	1.690920	-0.180511	0.094584
O31	O	1.190780	-0.405601	-0.680361
O32	O	1.690780	0.094399	-0.180361
O33	O	1.093712	-0.524060	-0.680308
O34	O	1.593712	-0.024060	-0.180308
C35	C	0.936948	-0.464824	-0.464688
C36	C	1.436948	0.035176	0.035312
C37	C	0.849091	-0.464826	-0.464697
C38	C	1.349091	0.035174	0.035303
C39	C	0.477574	-0.403135	-0.526372
C40	C	0.977574	0.096865	-0.026372
C41	C	0.477658	-0.526727	-0.403147
C42	C	0.977658	-0.026727	0.096853
C43	C	0.560204	-0.526704	-0.403131
C44	C	1.060204	-0.026704	0.096869
C45	C	0.601438	-0.464896	-0.464737
C46	C	1.101438	0.035104	0.035263
C47	C	0.560127	-0.403112	-0.526360
C48	C	1.060127	0.096888	-0.026360
C49	C	0.601521	-0.588494	-0.341517
C50	C	1.101521	-0.088494	0.158483
C51	C	0.684072	-0.588473	-0.341499
C52	C	1.184072	-0.088473	0.158501
C53	C	0.725308	-0.526660	-0.403101
C54	C	1.225308	-0.026660	0.096899
C55	C	0.683992	-0.464873	-0.464725
C56	C	1.183992	0.035127	0.035275
C57	C	0.725227	-0.403065	-0.526332
C58	C	1.225227	0.096935	-0.026332
C59	C	0.683912	-0.341272	-0.587952
C60	C	1.183912	0.158728	-0.087952
C61	C	0.601364	-0.341299	-0.587962
C62	C	1.101364	0.158701	-0.087962
C63	C	0.807857	-0.526634	-0.403091
C64	C	1.307857	-0.026634	0.096909
C65	C	0.807780	-0.403042	-0.526320
C66	C	1.307780	0.096958	-0.026320
C67	C	1.142363	-0.716466	-0.464638
C68	C	1.642363	-0.216466	0.035362
C69	C	1.142383	-0.823680	-0.464604
C70	C	1.642383	-0.323680	0.035396
C71	C	1.142400	-0.910750	-0.464576
C72	C	1.642400	-0.410750	0.035424
C73	C	1.142422	-1.019982	-0.464533
C74	C	1.642422	-0.519982	0.035467
C75	C	1.348482	-0.464922	-0.464751
C76	C	1.848482	0.035078	0.035249
C77	C	1.436339	-0.464943	-0.464765
C78	C	1.936339	0.035057	0.035235
C79	C	1.142257	-0.464845	-0.715334
C80	C	1.642257	0.035155	-0.215334
C81	C	1.142304	-0.464865	-0.822547
C82	C	1.642304	0.035135	-0.322547
C83	C	1.142312	-0.214258	-0.464730
C84	C	1.642312	0.285742	0.035270
C85	C	1.142444	-0.107045	-0.464493
C86	C	1.642444	0.392955	0.035507
C87	C	1.142387	-0.464925	-1.018842
C88	C	1.642387	0.035075	-0.518842
C89	C	1.142339	-0.464895	-0.909610
C90	C	1.642339	0.035105	-0.409610
C91	C	1.142394	-0.464922	-0.213126
C92	C	1.642394	0.035078	0.286874
C93	C	1.142428	-0.464943	-0.105912
C94	C	1.642428	0.035057	0.394088
H95	H	0.841491	-0.576946	-0.352923
H96	H	1.341491	-0.076946	0.147077
N97	N	0.726256	-0.651584	-0.278540
N98	N	1.226256	-0.151584	0.221460
N99	N	0.717034	-0.645342	-0.189528
N100	N	1.217034	-0.145342	0.310472
H101	H	0.746826	-0.689913	-0.145060
H102	H	1.246826	-0.189913	0.354940
H103	H	0.443932	-0.352822	-0.576538
H104	H	0.943932	0.147178	-0.076538
N105	N	0.435529	-0.589861	-0.340236
N106	N	0.935529	-0.089861	0.159764
N107	N	0.361825	-0.589878	-0.340262
N108	N	0.861825	-0.089878	0.159738
H109	H	0.332067	-0.634469	-0.295828
H110	H	0.832067	-0.134469	0.204172
N111	N	0.726048	-0.278154	-0.650882
N112	N	1.226048	0.221846	-0.150882
N113	N	0.799752	-0.278156	-0.650863
N114	N	1.299752	0.221844	-0.150863
H115	H	0.829515	-0.233581	-0.695307
H116	H	1.329515	0.266419	-0.195307
N117	N	0.559161	-0.278177	-0.650892
N118	N	1.059161	0.221823	-0.150892
N119	N	0.513065	-0.216787	-0.616885
N120	N	1.013065	0.283213	-0.116885
H121	H	0.483256	-0.172208	-0.661330
H122	H	0.983256	0.327792	-0.161330
N123	N	0.849898	-0.339890	-0.589235
N124	N	1.349898	0.160110	-0.089235
N125	N	0.840634	-0.250898	-0.582720
N126	N	1.340634	0.249102	-0.082720
H127	H	0.870380	-0.206295	-0.627153
H128	H	1.370380	0.293705	-0.127153
N129	N	0.559390	-0.651627	-0.278607
N130	N	1.059390	-0.151627	0.221393
N131	N	0.485687	-0.651634	-0.278627
N132	N	0.985687	-0.151634	0.221373
H133	H	0.455927	-0.696224	-0.234195
H134	H	0.955927	-0.196224	0.265805
