data_functionalizedCrystal
_audit_creation_method	'MofGen! by Chris Wilmer'
_symmetry_space_group_name_H-M	'P1'
_symmetry_Int_Tables_number	1
_symmetry_cell_setting	triclinic
loop_
_symmetry_equiv_pos_as_xyz
  x,y,z
_cell_length_a	25.639242
_cell_length_b	25.639240
_cell_length_c	19.805399
_cell_angle_alpha	89.969206
_cell_angle_beta	90.026812
_cell_angle_gamma	89.961937
loop_
_atom_site_label
_atom_site_type_symbol
_atom_site_fract_x
_atom_site_fract_y
_atom_site_fract_z
Zn1	Zn	0.799236	0.208234	0.382835
Zn2	Zn	1.049236	0.458234	0.632835
Zn3	Zn	1.299236	0.708234	0.882835
Zn4	Zn	1.549236	0.958234	1.132835
Zn5	Zn	0.799144	0.295668	0.269641
Zn6	Zn	1.049144	0.545668	0.519641
Zn7	Zn	1.299144	0.795668	0.769641
Zn8	Zn	1.549144	1.045668	1.019641
Zn9	Zn	0.711804	0.208241	0.269645
Zn10	Zn	0.961804	0.458241	0.519645
Zn11	Zn	1.211804	0.708241	0.769645
Zn12	Zn	1.461804	0.958241	1.019645
Zn13	Zn	0.711750	0.295632	0.382773
Zn14	Zn	0.961750	0.545632	0.632773
Zn15	Zn	1.211750	0.795632	0.882773
Zn16	Zn	1.461750	1.045632	1.132773
O17	O	0.755484	0.251944	0.326224
O18	O	1.005484	0.501944	0.576224
O19	O	1.255484	0.751944	0.826224
O20	O	1.505484	1.001944	1.076224
O21	O	0.872389	0.219844	0.367844
O22	O	1.122389	0.469844	0.617844
O23	O	1.372389	0.719844	0.867844
O24	O	1.622389	0.969844	1.117844
O25	O	0.787543	0.284088	0.174925
O26	O	1.037543	0.534088	0.424925
O27	O	1.287543	0.784088	0.674925
O28	O	1.537543	1.034088	0.924925
O29	O	0.723463	0.135075	0.284688
O30	O	0.973463	0.385075	0.534688
O31	O	1.223463	0.635075	0.784688
O32	O	1.473463	0.885075	1.034688
O33	O	0.872322	0.284082	0.284680
O34	O	1.122322	0.534082	0.534680
O35	O	1.372322	0.784082	0.784680
O36	O	1.622322	1.034082	1.034680
O37	O	0.787699	0.135070	0.367848
O38	O	1.037699	0.385070	0.617848
O39	O	1.287699	0.635070	0.867848
O40	O	1.537699	0.885070	1.117848
O41	O	0.723374	0.219856	0.174928
O42	O	0.973374	0.469856	0.424928
O43	O	1.223374	0.719856	0.674928
O44	O	1.473374	0.969856	0.924928
O45	O	0.638632	0.219821	0.284628
O46	O	0.888632	0.469821	0.534628
O47	O	1.138632	0.719821	0.784628
O48	O	1.388632	0.969821	1.034628
O49	O	0.723371	0.284021	0.477498
O50	O	0.973371	0.534021	0.727498
O51	O	1.223371	0.784021	0.977498
O52	O	1.473371	1.034021	1.227498
O53	O	0.638592	0.284028	0.367742
O54	O	0.888592	0.534028	0.617742
O55	O	1.138592	0.784028	0.867742
O56	O	1.388592	1.034028	1.117742
O57	O	0.787646	0.219810	0.477544
O58	O	1.037646	0.469810	0.727544
O59	O	1.287646	0.719810	0.977544
O60	O	1.537646	0.969810	1.227544
O61	O	0.787491	0.368829	0.284620
O62	O	1.037491	0.618829	0.534620
O63	O	1.287491	0.868829	0.784620
O64	O	1.537491	1.118829	1.034620
O65	O	0.723283	0.368802	0.367738
O66	O	0.973283	0.618802	0.617738
O67	O	1.223283	0.868802	0.867738
O68	O	1.473283	1.118802	1.117738
C69	C	0.619641	0.251922	0.326179
C70	C	0.869641	0.501922	0.576179
C71	C	1.119641	0.751922	0.826179
C72	C	1.369641	1.001922	1.076179
C73	C	0.561527	0.251925	0.326177
C74	C	0.811527	0.501925	0.576177
C75	C	1.061527	0.751925	0.826177
C76	C	1.311527	1.001925	1.076177
C77	C	0.310345	0.218456	0.283021
C78	C	0.560345	0.468456	0.533021
C79	C	0.810345	0.718456	0.783021
C80	C	1.060345	0.968456	1.033021
C81	C	0.364950	0.218451	0.283012
C82	C	0.614950	0.468451	0.533012
C83	C	0.864950	0.718451	0.783012
C84	C	1.114950	0.968451	1.033012
O85	O	0.393196	0.189963	0.246281
O86	O	0.643196	0.439963	0.496281
O87	O	0.893196	0.689963	0.746281
O88	O	1.143196	0.939963	0.996281
N89	N	0.392253	0.251931	0.326211
N90	N	0.642253	0.501931	0.576211
N91	N	0.892253	0.751931	0.826211
N92	N	1.142253	1.001931	1.076211
C93	C	0.364950	0.285415	0.369426
C94	C	0.614950	0.535415	0.619426
C95	C	0.864950	0.785415	0.869426
C96	C	1.114950	1.035415	1.119426
O97	O	0.393187	0.313892	0.406169
O98	O	0.643187	0.563892	0.656169
O99	O	0.893187	0.813892	0.906169
O100	O	1.143187	1.063892	1.156169
C101	C	0.310346	0.285417	0.369437
C102	C	0.560346	0.535417	0.619437
C103	C	0.810346	0.785417	0.869437
C104	C	1.060346	1.035417	1.119437
C105	C	0.283046	0.251938	0.326231
C106	C	0.533046	0.501938	0.576231
C107	C	0.783046	0.751938	0.826231
C108	C	1.033046	1.001938	1.076231
C109	C	0.283045	0.184979	0.239819
C110	C	0.533045	0.434979	0.489819
C111	C	0.783045	0.684979	0.739819
C112	C	1.033045	0.934979	0.989819
C113	C	0.228444	0.184985	0.239826
C114	C	0.478444	0.434985	0.489826
C115	C	0.728444	0.684985	0.739826
C116	C	0.978444	0.934985	0.989826
C117	C	0.201144	0.218467	0.283037
C118	C	0.451144	0.468467	0.533037
C119	C	0.701144	0.718467	0.783037
C120	C	0.951144	0.968467	1.033037
C121	C	0.228445	0.251944	0.326239
C122	C	0.478445	0.501944	0.576239
C123	C	0.728445	0.751944	0.826239
C124	C	0.978445	1.001944	1.076239
C125	C	0.283044	0.318898	0.412655
C126	C	0.533044	0.568898	0.662655
C127	C	0.783044	0.818898	0.912655
C128	C	1.033044	1.068898	1.162655
C129	C	0.228436	0.318896	0.412663
C130	C	0.478436	0.568896	0.662663
C131	C	0.728436	0.818896	0.912663
C132	C	0.978436	1.068896	1.162663
C133	C	0.201136	0.285417	0.369457
C134	C	0.451136	0.535417	0.619457
C135	C	0.701136	0.785417	0.869457
C136	C	0.951136	1.035417	1.119457
C137	C	0.146545	0.285431	0.369457
C138	C	0.396545	0.535431	0.619457
C139	C	0.646545	0.785431	0.869457
C140	C	0.896545	1.035431	1.119457
N141	N	0.119241	0.251951	0.326258
N142	N	0.369241	0.501951	0.576258
N143	N	0.619241	0.751951	0.826258
N144	N	0.869241	1.001951	1.076258
C145	C	0.146541	0.218469	0.283048
C146	C	0.396541	0.468469	0.533048
C147	C	0.646541	0.718469	0.783048
C148	C	0.896541	0.968469	1.033048
C149	C	0.479620	0.285408	0.369399
C150	C	0.729620	0.535408	0.619399
C151	C	0.979620	0.785408	0.869399
C152	C	1.229620	1.035408	1.119399
C153	C	0.534222	0.285409	0.369385
C154	C	0.784222	0.535409	0.619385
C155	C	1.034222	0.785409	0.869385
C156	C	1.284222	1.035409	1.119385
C157	C	0.534219	0.218444	0.282972
C158	C	0.784219	0.468444	0.532972
C159	C	1.034219	0.718444	0.782972
C160	C	1.284219	0.968444	1.032972
C161	C	0.479616	0.218446	0.282983
C162	C	0.729616	0.468446	0.532983
C163	C	0.979616	0.718446	0.782983
C164	C	1.229616	0.968446	1.032983
C165	C	0.452317	0.251928	0.326200
C166	C	0.702317	0.501928	0.576200
C167	C	0.952317	0.751928	0.826200
C168	C	1.202317	1.001928	1.076200
C169	C	0.031876	0.218484	0.283067
C170	C	0.281876	0.468484	0.533067
C171	C	0.531876	0.718484	0.783067
C172	C	0.781876	0.968484	1.033067
C173	C	-0.022729	0.218494	0.283077
C174	C	0.227271	0.468494	0.533077
C175	C	0.477271	0.718494	0.783077
C176	C	0.727271	0.968494	1.033077
C177	C	-0.022721	0.285457	0.369492
C178	C	0.227279	0.535457	0.619492
C179	C	0.477279	0.785457	0.869492
C180	C	0.727279	1.035457	1.119492
C181	C	0.031879	0.285449	0.369480
C182	C	0.281879	0.535449	0.619480
C183	C	0.531879	0.785449	0.869480
C184	C	0.781879	1.035449	1.119480
C185	C	0.059177	0.251958	0.326266
C186	C	0.309177	0.501958	0.576266
C187	C	0.559177	0.751958	0.826266
C188	C	0.809177	1.001958	1.076266
O189	O	0.118263	0.313903	0.406171
O190	O	0.368263	0.563903	0.656171
O191	O	0.618263	0.813903	0.906171
O192	O	0.868263	1.063903	1.156171
O193	O	0.118297	0.189992	0.246317
O194	O	0.368297	0.439992	0.496317
O195	O	0.618297	0.689992	0.746317
O196	O	0.868297	0.939992	0.996317
C197	C	0.755385	0.387786	0.326186
C198	C	1.005385	0.637786	0.576186
C199	C	1.255385	0.887786	0.826186
C200	C	1.505385	1.137786	1.076186
C201	C	0.755391	0.445900	0.326193
C202	C	1.005391	0.695900	0.576193
C203	C	1.255391	0.945900	0.826193
C204	C	1.505391	1.195900	1.076193
C205	C	0.788961	0.806264	0.282992
C206	C	1.038961	1.056264	0.532992
C207	C	1.288961	1.306264	0.782992
C208	C	1.538961	1.556264	1.032992
C209	C	0.788977	0.860869	0.282998
C210	C	1.038977	1.110869	0.532998
C211	C	1.288977	1.360869	0.782998
C212	C	1.538977	1.610869	1.032998
O213	O	0.817450	0.889106	0.246246
O214	O	1.067450	1.139106	0.496246
O215	O	1.317450	1.389106	0.746246
O216	O	1.567450	1.639106	0.996246
N217	N	0.755526	0.888183	0.326239
N218	N	1.005526	1.138183	0.576239
N219	N	1.255526	1.388183	0.826239
N220	N	1.505526	1.638183	1.076239
C221	C	0.722061	0.860890	0.369480
C222	C	0.972061	1.110890	0.619480
C223	C	1.222061	1.360890	0.869480
C224	C	1.472061	1.610890	1.119480
O225	O	0.693610	0.889136	0.406260
O226	O	0.943610	1.139136	0.656260
O227	O	1.193610	1.389136	0.906260
O228	O	1.443610	1.639136	1.156260
C229	C	0.722048	0.806286	0.369477
C230	C	0.972048	1.056286	0.619477
C231	C	1.222048	1.306286	0.869477
C232	C	1.472048	1.556286	1.119477
C233	C	0.755497	0.778975	0.326229
C234	C	1.005497	1.028975	0.576229
C235	C	1.255497	1.278975	0.826229
C236	C	1.505497	1.528975	1.076229
C237	C	0.822408	0.778953	0.239748
C238	C	1.072408	1.028953	0.489748
C239	C	1.322408	1.278953	0.739748
C240	C	1.572408	1.528953	0.989748
C241	C	0.822391	0.724353	0.239741
C242	C	1.072391	0.974353	0.489741
C243	C	1.322391	1.224353	0.739741
C244	C	1.572391	1.474353	0.989741
C245	C	0.788927	0.697063	0.282977
C246	C	1.038927	0.947063	0.532977
C247	C	1.288927	1.197063	0.782977
C248	C	1.538927	1.447063	1.032977
C249	C	0.755480	0.724375	0.326221
C250	C	1.005480	0.974375	0.576221
C251	C	1.255480	1.224375	0.826221
C252	C	1.505480	1.474375	1.076221
C253	C	0.688585	0.778994	0.412721
C254	C	0.938585	1.028994	0.662721
C255	C	1.188585	1.278994	0.912721
C256	C	1.438585	1.528994	1.162721
C257	C	0.688575	0.724387	0.412714
C258	C	0.938575	0.974387	0.662714
C259	C	1.188575	1.224387	0.912714
C260	C	1.438575	1.474387	1.162714
C261	C	0.722025	0.697076	0.369466
C262	C	0.972025	0.947076	0.619466
C263	C	1.222025	1.197076	0.869466
C264	C	1.472025	1.447076	1.119466
C265	C	0.721999	0.642485	0.369451
C266	C	0.971999	0.892485	0.619451
C267	C	1.221999	1.142485	0.869451
C268	C	1.471999	1.392485	1.119451
N269	N	0.755450	0.615171	0.326211
N270	N	1.005450	0.865171	0.576211
N271	N	1.255450	1.115171	0.826211
N272	N	1.505450	1.365171	1.076211
C273	C	0.788914	0.642460	0.282974
C274	C	1.038914	0.892460	0.532974
C275	C	1.288914	1.142460	0.782974
C276	C	1.538914	1.392460	1.032974
C277	C	0.722091	0.975560	0.369485
C278	C	0.972091	1.225560	0.619485
C279	C	1.222091	1.475560	0.869485
C280	C	1.472091	1.725560	1.119485
C281	C	0.722101	1.030163	0.369486
C282	C	0.972101	1.280163	0.619486
C283	C	1.222101	1.530163	0.869486
C284	C	1.472101	1.780163	1.119486
C285	C	0.789018	1.030138	0.283005
C286	C	1.039018	1.280138	0.533005
C287	C	1.289018	1.530138	0.783005
C288	C	1.539018	1.780138	1.033005
C289	C	0.789005	0.975535	0.283001
C290	C	1.039005	1.225535	0.533001
C291	C	1.289005	1.475535	0.783001
C292	C	1.539005	1.725535	1.033001
C293	C	0.755542	0.948246	0.326245
C294	C	1.005542	1.198246	0.576245
C295	C	1.255542	1.448246	0.826245
C296	C	1.505542	1.698246	1.076245
C297	C	0.788876	0.527795	0.282962
C298	C	1.038876	0.777795	0.532962
C299	C	1.288876	1.027795	0.782962
C300	C	1.538876	1.277795	1.032962
C301	C	0.788855	0.473190	0.282956
C302	C	1.038855	0.723190	0.532956
C303	C	1.288855	0.973190	0.782956
C304	C	1.538855	1.223190	1.032956
C305	C	0.721940	0.473219	0.369439
C306	C	0.971940	0.723219	0.619439
C307	C	1.221940	0.973219	0.869439
C308	C	1.471940	1.223219	1.119439
C309	C	0.721959	0.527820	0.369443
C310	C	0.971959	0.777820	0.619443
C311	C	1.221959	1.027820	0.869443
C312	C	1.471959	1.277820	1.119443
C313	C	0.755431	0.555106	0.326201
C314	C	1.005431	0.805106	0.576201
C315	C	1.255431	1.055106	0.826201
C316	C	1.505431	1.305106	1.076201
O317	O	0.693543	0.614213	0.406186
O318	O	0.943543	0.864213	0.656186
O319	O	1.193543	1.114213	0.906186
O320	O	1.443543	1.364213	1.156186
O321	O	0.817365	0.614207	0.246206
O322	O	1.067365	0.864207	0.496206
O323	O	1.317365	1.114207	0.746206
O324	O	1.567365	1.364207	0.996206
C325	C	0.891857	0.251966	0.326268
C326	C	1.141857	0.501966	0.576268
C327	C	1.391857	0.751966	0.826268
C328	C	1.641857	1.001966	1.076268
C329	C	0.949971	0.251976	0.326287
C330	C	1.199971	0.501976	0.576287
C331	C	1.449971	0.751976	0.826287
C332	C	1.699971	1.001976	1.076287
C333	C	0.755513	0.251911	0.502766
C334	C	1.005513	0.501911	0.752766
C335	C	1.255513	0.751911	1.002766
C336	C	1.505513	1.001911	1.252766
C337	C	0.755526	0.251897	0.577998
C338	C	1.005526	0.501897	0.827998
C339	C	1.255526	0.751897	1.077998
C340	C	1.505526	1.001897	1.327998
C341	C	0.755577	1.115571	0.326264
C342	C	1.005577	1.365571	0.576264
C343	C	1.255577	1.615571	0.826264
C344	C	1.505577	1.865571	1.076264
C345	C	0.755567	1.057457	0.326251
C346	C	1.005567	1.307457	0.576251
C347	C	1.255567	1.557457	0.826251
C348	C	1.505567	1.807457	1.076251
C349	C	0.755485	0.251939	0.150368
C350	C	1.005485	0.501939	0.400368
C351	C	1.255485	0.751939	0.650368
C352	C	1.505485	1.001939	0.900368
C353	C	0.755573	0.251806	0.075136
C354	C	1.005573	0.501806	0.325136
C355	C	1.255573	0.751806	0.575136
C356	C	1.505573	1.001806	0.825136
C357	C	0.788994	0.218460	0.613367
C358	C	1.038994	0.468460	0.863367
C359	C	1.288994	0.718460	1.113367
C360	C	1.538994	0.968460	1.363367
C361	C	0.789000	0.218445	0.684056
C362	C	1.039000	0.468445	0.934056
C363	C	1.289000	0.718445	1.184056
C364	C	1.539000	0.968445	1.434056
C365	C	0.755539	0.251870	0.719374
C366	C	1.005539	0.501870	0.969374
C367	C	1.255539	0.751870	1.219374
C368	C	1.505539	1.001870	1.469374
C369	C	0.722066	0.285307	0.684000
C370	C	0.972066	0.535307	0.934000
C371	C	1.222066	0.785307	1.184000
C372	C	1.472066	1.035307	1.434000
C373	C	0.722058	0.285320	0.613313
C374	C	0.972058	0.535320	0.863313
C375	C	1.222058	0.785320	1.113313
C376	C	1.472058	1.035320	1.363313
C377	C	0.722096	0.285259	0.969074
C378	C	0.972096	0.535259	1.219074
C379	C	1.222096	0.785259	1.469074
C380	C	1.472096	1.035259	1.719074
C381	C	0.722107	0.285245	1.039766
C382	C	0.972107	0.535245	1.289766
C383	C	1.222107	0.785245	1.539766
C384	C	1.472107	1.035245	1.789766
C385	C	0.789037	0.218384	1.039817
C386	C	1.039037	0.468384	1.289817
C387	C	1.289037	0.718384	1.539817
C388	C	1.539037	0.968384	1.789817
C389	C	0.789029	0.218396	0.969129
C390	C	1.039029	0.468396	1.219129
C391	C	1.289029	0.718396	1.469129
C392	C	1.539029	0.968396	1.719129
C393	C	0.755555	0.251832	0.933762
C394	C	1.005555	0.501832	1.183762
C395	C	1.255555	0.751832	1.433762
C396	C	1.505555	1.001832	1.683762
C397	C	0.755549	0.251848	0.857113
C398	C	1.005549	0.501848	1.107113
C399	C	1.255549	0.751848	1.357113
C400	C	1.505549	1.001848	1.607113
C401	C	0.755547	0.251857	0.796021
C402	C	1.005547	0.501857	1.046021
C403	C	1.255547	0.751857	1.296021
C404	C	1.505547	1.001857	1.546021
H405	H	0.556446	0.312677	0.404560
H406	H	0.806446	0.562677	0.654560
H407	H	1.056446	0.812677	0.904560
H408	H	1.306446	1.062677	1.154560
H409	H	0.816255	0.191219	0.712850
H410	H	1.066255	0.441219	0.962850
H411	H	1.316255	0.691219	1.212850
H412	H	1.566255	0.941219	1.462850
F413	F	0.450571	0.321050	0.415395
F414	F	0.700571	0.571050	0.665395
F415	F	0.950571	0.821050	0.915395
F416	F	1.200571	1.071050	1.165395
H417	H	0.694856	0.312464	1.068520
H418	H	0.944856	0.562464	1.318520
H419	H	1.194856	0.812464	1.568520
H420	H	1.444856	1.062464	1.818520
H421	H	0.694846	0.312492	0.940286
H422	H	0.944846	0.562492	1.190286
H423	H	1.194846	0.812492	1.440286
H424	H	1.444846	1.062492	1.690286
H425	H	0.816244	0.191244	0.584616
H426	H	1.066244	0.441244	0.834616
H427	H	1.316244	0.691244	1.084616
H428	H	1.566244	0.941244	1.334616
H429	H	0.694819	0.312520	0.712762
H430	H	0.944819	0.562520	0.962762
H431	H	1.194819	0.812520	1.212762
H432	H	1.444819	1.062520	1.462762
H433	H	-0.044955	0.191230	0.247891
H434	H	0.205045	0.441230	0.497891
H435	H	0.455045	0.691230	0.747891
H436	H	0.705045	0.941230	0.997891
F437	F	0.824645	0.182824	0.931545
F438	F	1.074645	0.432824	1.181545
F439	F	1.324645	0.682824	1.431545
F440	F	1.574645	0.932824	1.681545
F441	F	0.652988	0.808049	0.458758
F442	F	0.902988	1.058049	0.708758
F443	F	1.152988	1.308049	0.958758
F444	F	1.402988	1.558049	1.208758
H445	H	0.305262	0.346160	0.447838
H446	H	0.555262	0.596160	0.697838
H447	H	0.805262	0.846160	0.947838
H448	H	1.055262	1.096160	1.197838
H449	H	0.556456	0.191180	0.247789
H450	H	0.806456	0.441180	0.497789
H451	H	1.056456	0.691180	0.747789
H452	H	1.306456	0.941180	0.997789
F453	F	0.686435	0.320906	0.575671
F454	F	0.936435	0.570906	0.825671
F455	F	1.186435	0.820906	1.075671
F456	F	1.436435	1.070906	1.325671
H457	H	0.206221	0.157723	0.204644
H458	H	0.456221	0.407723	0.454644
H459	H	0.706221	0.657723	0.704644
H460	H	0.956221	0.907723	0.954644
H461	H	0.457391	0.191183	0.247803
H462	H	0.707391	0.441183	0.497803
H463	H	0.957391	0.691183	0.747803
H464	H	1.207391	0.941183	0.997803
H465	H	0.206213	0.346160	0.447859
H466	H	0.456213	0.596160	0.697859
H467	H	0.706213	0.846160	0.947859
H468	H	0.956213	1.096160	1.197859
F469	F	0.858029	0.807988	0.193727
F470	F	1.108029	1.057988	0.443727
F471	F	1.358029	1.307988	0.693727
F472	F	1.608029	1.557988	0.943727
F473	F	0.686328	0.444166	0.415454
F474	F	0.936328	0.694166	0.665454
F475	F	1.186328	0.944166	0.915454
F476	F	1.436328	1.194166	1.165454
H477	H	0.054095	0.191210	0.247881
H478	H	0.304095	0.441210	0.497881
H479	H	0.554095	0.691210	0.747881
H480	H	0.804095	0.941210	0.997881
F481	F	0.686469	0.946523	0.415510
F482	F	0.936469	1.196523	0.665510
F483	F	1.186469	1.446523	0.915510
F484	F	1.436469	1.696523	1.165510
H485	H	0.816133	0.550005	0.247752
H486	H	1.066133	0.800005	0.497752
H487	H	1.316133	1.050005	0.747752
H488	H	1.566133	1.300005	0.997752
H489	H	0.816291	0.191157	1.068622
H490	H	1.066291	0.441157	1.318622
H491	H	1.316291	0.691157	1.568622
H492	H	1.566291	0.941157	1.818622
F493	F	0.060936	0.321086	0.415458
F494	F	0.310936	0.571086	0.665458
F495	F	0.560936	0.821086	0.915458
F496	F	0.810936	1.071086	1.165458
F497	F	-0.051785	0.321095	0.415469
F498	F	0.198215	0.571095	0.665469
F499	F	0.448215	0.821095	0.915469
F500	F	0.698215	1.071095	1.165469
F501	F	0.312091	0.149338	0.193826
F502	F	0.562091	0.399338	0.443826
F503	F	0.812091	0.649338	0.693826
F504	F	1.062091	0.899338	0.943826
F505	F	0.824457	0.444126	0.236923
F506	F	1.074457	0.694126	0.486923
F507	F	1.324457	0.944126	0.736923
F508	F	1.574457	1.194126	0.986923
H509	H	0.849630	0.702119	0.204527
H510	H	1.099630	0.952119	0.454527
H511	H	1.349630	1.202119	0.704527
H512	H	1.599630	1.452119	0.954527
F513	F	0.824633	1.059191	0.236987
F514	F	1.074633	1.309191	0.486987
F515	F	1.324633	1.559191	0.736987
F516	F	1.574633	1.809191	0.986987
F517	F	0.824606	0.946473	0.236972
F518	F	1.074606	1.196473	0.486972
F519	F	1.324606	1.446473	0.736972
F520	F	1.574606	1.696473	0.986972
F521	F	0.686494	1.059223	0.415509
F522	F	0.936494	1.309223	0.665509
F523	F	1.186494	1.559223	0.915509
F524	F	1.436494	1.809223	1.165509
H525	H	0.661326	0.702172	0.447930
H526	H	0.911326	0.952172	0.697930
H527	H	1.161326	1.202172	0.947930
H528	H	1.411326	1.452172	1.197930
F529	F	0.686349	0.556887	0.415459
F530	F	0.936349	0.806887	0.665459
F531	F	1.186349	1.056887	0.915459
F532	F	1.436349	1.306887	1.165459
