data_functionalizedCrystal
_audit_creation_method	'MofGen! by Chris Wilmer'
_symmetry_space_group_name_H-M	'P1'
_symmetry_Int_Tables_number	1
_symmetry_cell_setting	triclinic
loop_
_symmetry_equiv_pos_as_xyz
  x,y,z
_cell_length_a	16.959455
_cell_length_b	21.295417
_cell_length_c	16.959447
_cell_angle_alpha	90.034146
_cell_angle_beta	90.020374
_cell_angle_gamma	90.026722
loop_
_atom_site_label
_atom_site_type_symbol
_atom_site_fract_x
_atom_site_fract_y
_atom_site_fract_z
Zn1	Zn	1.208331	-0.250647	0.447015
Zn2	Zn	1.541664	0.082687	0.780349
Zn3	Zn	1.874998	0.416020	1.113682
Zn4	Zn	1.208231	-0.355924	0.314828
Zn5	Zn	1.541565	-0.022590	0.648161
Zn6	Zn	1.874898	0.310743	0.981495
Zn7	Zn	1.076159	-0.250667	0.314839
Zn8	Zn	1.409493	0.082667	0.648172
Zn9	Zn	1.742826	0.416000	0.981505
Zn10	Zn	1.076102	-0.355877	0.446953
Zn11	Zn	1.409435	-0.022543	0.780286
Zn12	Zn	1.742769	0.310790	1.113619
O13	O	1.142206	-0.303278	0.380909
O14	O	1.475539	0.030055	0.714242
O15	O	1.808873	0.363388	1.047575
O16	O	1.318929	-0.264623	0.429502
O17	O	1.652262	0.068710	0.762835
O18	O	1.985595	0.402043	1.096169
O19	O	1.190694	-0.341989	0.204218
O20	O	1.524027	-0.008656	0.537552
O21	O	1.857361	0.324678	0.870885
O22	O	1.093758	-0.162575	0.332403
O23	O	1.427091	0.170759	0.665736
O24	O	1.760425	0.504092	0.999070
O25	O	1.318855	-0.341970	0.332385
O26	O	1.652189	-0.008636	0.665718
O27	O	1.985522	0.324697	0.999051
O28	O	1.190864	-0.162560	0.429513
O29	O	1.524197	0.170773	0.762846
O30	O	1.857531	0.504107	1.096179
O31	O	1.093661	-0.264657	0.204226
O32	O	1.426995	0.068676	0.537560
O33	O	1.760328	0.402009	0.870893
O34	O	0.965541	-0.264612	0.332342
O35	O	1.298874	0.068722	0.665676
O36	O	1.632208	0.402055	0.999009
O37	O	1.093660	-0.341890	0.557572
O38	O	1.426993	-0.008556	0.890905
O39	O	1.760327	0.324777	1.224238
O40	O	0.965499	-0.341909	0.429406
O41	O	1.298832	-0.008576	0.762739
O42	O	1.632165	0.324758	1.096072
O43	O	1.190808	-0.264578	0.557618
O44	O	1.524141	0.068756	0.890951
O45	O	1.857475	0.402089	1.224285
O46	O	1.190638	-0.444007	0.332324
O47	O	1.523972	-0.110673	0.665657
O48	O	1.857305	0.222660	0.998990
O49	O	1.093563	-0.443972	0.429395
O50	O	1.426897	-0.110639	0.762728
O51	O	1.760230	0.222694	1.096062
C52	C	0.936840	-0.303258	0.380869
C53	C	1.270173	0.030075	0.714202
C54	C	1.603506	0.363409	1.047535
C55	C	0.848983	-0.303264	0.380871
C56	C	1.182316	0.030069	0.714204
C57	C	1.515650	0.363402	1.047537
C58	C	0.477459	-0.343513	0.330314
C59	C	0.810792	-0.010179	0.663647
C60	C	1.144125	0.323154	0.996980
C61	C	0.477556	-0.263096	0.431600
C62	C	0.810890	0.070237	0.764933
C63	C	1.144223	0.403570	1.098266
C64	C	0.560102	-0.263086	0.431581
C65	C	0.893435	0.070247	0.764914
C66	C	1.226769	0.403581	1.098247
C67	C	0.601330	-0.303290	0.380928
C68	C	0.934663	0.030043	0.714261
C69	C	1.267997	0.363376	1.047595
C70	C	0.560012	-0.343505	0.330295
C71	C	0.893345	-0.010172	0.663628
C72	C	1.226679	0.323162	0.996961
C73	C	0.601426	-0.222877	0.482219
C74	C	0.934759	0.110457	0.815552
C75	C	1.268093	0.443790	1.148885
C76	C	0.683977	-0.222865	0.482202
C77	C	1.017310	0.110468	0.815535
C78	C	1.350644	0.443802	1.148869
C79	C	0.725207	-0.263067	0.431545
C80	C	1.058540	0.070267	0.764878
C81	C	1.391873	0.403600	1.098211
C82	C	0.683884	-0.303282	0.380909
C83	C	1.017217	0.030051	0.714242
C84	C	1.350550	0.363384	1.047576
C85	C	0.725112	-0.343487	0.330256
C86	C	1.058445	-0.010153	0.663590
C87	C	1.391778	0.323180	0.996923
C88	C	0.683790	-0.383700	0.279616
C89	C	1.017123	-0.050367	0.612949
C90	C	1.350457	0.282967	0.946282
C91	C	0.601242	-0.383707	0.279638
C92	C	0.934575	-0.050373	0.612971
C93	C	1.267908	0.282960	0.946304
C94	C	0.807755	-0.263060	0.431523
C95	C	1.141088	0.070273	0.764856
C96	C	1.474422	0.403607	1.098190
C97	C	0.807665	-0.343479	0.330237
C98	C	1.140998	-0.010146	0.663571
C99	C	1.474332	0.323188	0.996904
C100	C	1.142105	-0.466830	0.380869
C101	C	1.475438	-0.133497	0.714202
C102	C	1.808772	0.199837	1.047535
C103	C	1.142134	-0.536798	0.380878
C104	C	1.475468	-0.203465	0.714211
C105	C	1.808801	0.129869	1.047545
C106	C	1.192668	-0.569600	0.431479
C107	C	1.526002	-0.236267	0.764812
C108	C	1.859335	0.097067	1.098146
C109	C	1.192696	-0.635342	0.431498
C110	C	1.526030	-0.302009	0.764832
C111	C	1.859363	0.031324	1.098165
C112	C	1.142198	-0.668281	0.380903
C113	C	1.475532	-0.334947	0.714236
C114	C	1.808865	-0.001614	1.047570
C115	C	1.091655	-0.635471	0.330298
C116	C	1.424988	-0.302137	0.663632
C117	C	1.758321	0.031196	0.996965
C118	C	1.091622	-0.569730	0.330286
C119	C	1.424956	-0.236396	0.663619
C120	C	1.758289	0.096937	0.996952
N121	N	1.136233	-0.771546	0.311726
N122	N	1.469566	-0.438212	0.645060
N123	N	1.802900	-0.104879	0.978393
N124	N	1.136268	-0.833997	0.311740
N125	N	1.469601	-0.500664	0.645074
N126	N	1.802935	-0.167330	0.978407
C127	C	1.142291	-0.866355	0.380939
C128	C	1.475624	-0.533022	0.714272
C129	C	1.808957	-0.199689	1.047605
N130	N	1.148292	-0.833903	0.450124
N131	N	1.481626	-0.500569	0.783457
N132	N	1.814959	-0.167236	1.116790
N133	N	1.148261	-0.771446	0.450109
N134	N	1.481595	-0.438112	0.783442
N135	N	1.814928	-0.104779	1.116775
C136	C	1.142227	-0.739566	0.380911
C137	C	1.475561	-0.406233	0.714244
C138	C	1.808894	-0.072899	1.047578
C139	C	1.192858	-0.970443	0.431565
C140	C	1.526191	-0.637109	0.764898
C141	C	1.859524	-0.303776	1.098232
C142	C	1.192880	-1.036186	0.431586
C143	C	1.526213	-0.702853	0.764919
C144	C	1.859547	-0.369520	1.098252
C145	C	1.091842	-1.036313	0.330379
C146	C	1.425176	-0.702980	0.663712
C147	C	1.758509	-0.369647	0.997045
C148	C	1.091816	-0.970571	0.330365
C149	C	1.425149	-0.637238	0.663698
C150	C	1.758483	-0.303904	0.997031
C151	C	1.142328	-0.937640	0.380957
C152	C	1.475661	-0.604306	0.714290
C153	C	1.808994	-0.270973	1.047624
C154	C	1.348374	-0.303299	0.380949
C155	C	1.681707	0.030034	0.714282
C156	C	2.015041	0.363367	1.047616
C157	C	1.436231	-0.303308	0.380966
C158	C	1.769564	0.030025	0.714300
C159	C	2.102897	0.363358	1.047633
C160	C	1.142239	-0.303226	0.587077
C161	C	1.475572	0.030107	0.920410
C162	C	1.808905	0.363440	1.253744
C163	C	1.142253	-0.303204	0.674934
C164	C	1.475586	0.030129	1.008267
C165	C	1.808919	0.363463	1.341600
C166	C	1.142329	-0.139088	0.380966
C167	C	1.475662	0.194245	0.714299
C168	C	1.808995	0.527579	1.047633
C169	C	1.142381	-0.069120	0.380991
C170	C	1.475714	0.264213	0.714324
C171	C	1.809047	0.597547	1.047657
C172	C	1.142219	-0.303285	0.175542
C173	C	1.475552	0.030048	0.508876
C174	C	1.808885	0.363382	0.842209
C175	C	1.142358	-0.303130	0.087686
C176	C	1.475691	0.030204	0.421020
C177	C	1.809024	0.363537	0.754353
C178	C	1.091767	-0.343390	1.046388
C179	C	1.425100	-0.010057	1.379721
C180	C	1.758433	0.323276	1.713055
C181	C	1.192928	-0.262885	1.046431
C182	C	1.526261	0.070448	1.379764
C183	C	1.859595	0.403782	1.713098
C184	C	1.192907	-0.262898	0.963885
C185	C	1.526240	0.070435	1.297218
C186	C	1.859574	0.403768	1.630552
C187	C	1.142316	-0.303159	0.922587
C188	C	1.475649	0.030174	1.255920
C189	C	1.808982	0.363508	1.589253
C190	C	1.091746	-0.343406	0.963834
C191	C	1.425079	-0.010073	1.297168
C192	C	1.758412	0.323260	1.630501
C193	C	1.243482	-0.222656	0.922631
C194	C	1.576815	0.110677	1.255965
C195	C	1.910148	0.444010	1.589298
C196	C	1.243463	-0.222668	0.840080
C197	C	1.576797	0.110665	1.173414
C198	C	1.910130	0.443998	1.506747
C199	C	1.192867	-0.262926	0.798780
C200	C	1.526201	0.070407	1.132114
C201	C	1.859534	0.403740	1.465447
C202	C	1.142295	-0.303175	0.840033
C203	C	1.475628	0.030158	1.173366
C204	C	1.808961	0.363492	1.506700
C205	C	1.091704	-0.343436	0.798735
C206	C	1.425037	-0.010102	1.132068
C207	C	1.758370	0.323231	1.465401
C208	C	1.041126	-0.383681	0.839986
C209	C	1.374460	-0.050348	1.173319
C210	C	1.707793	0.282985	1.506653
C211	C	1.041150	-0.383664	0.922534
C212	C	1.374483	-0.050331	1.255868
C213	C	1.707817	0.283002	1.589201
C214	C	1.192844	-0.262943	0.716232
C215	C	1.526177	0.070390	1.049565
C216	C	1.859511	0.403723	1.382899
C217	C	1.091683	-0.343451	0.716181
C218	C	1.425016	-0.010118	1.049515
C219	C	1.758349	0.323215	1.382848
H220	H	0.567852	-0.190148	0.523462
H221	H	0.901186	0.143185	0.856795
H222	H	1.234519	0.476518	1.190129
N223	N	1.244287	-0.535979	0.483149
N224	N	1.577620	-0.202646	0.816482
N225	N	1.910953	0.130688	1.149816
N226	N	1.317225	-0.543296	0.477960
N227	N	1.650559	-0.209963	0.811293
N228	N	1.983892	0.123371	1.144626
H229	H	1.353688	-0.519556	0.514452
H230	H	1.687022	-0.186223	0.847785
H231	H	2.020355	0.147111	1.181118
N232	N	0.989488	-0.424775	0.964661
N233	N	1.322821	-0.091442	1.297994
N234	N	1.656155	0.241891	1.631327
N235	N	0.994669	-0.482865	0.955415
N236	N	1.328002	-0.149531	1.288749
N237	N	1.661335	0.183802	1.622082
H238	H	0.958178	-0.511898	0.985166
H239	H	1.291511	-0.178565	1.318499
H240	H	1.624844	0.154768	1.651832
N241	N	1.040088	-0.669127	0.278614
N242	N	1.373422	-0.335794	0.611947
N243	N	1.706755	-0.002460	0.945281
N244	N	1.067959	-0.705821	0.228284
N245	N	1.401292	-0.372488	0.561618
N246	N	1.734625	-0.039155	0.894951
H247	H	1.031539	-0.729593	0.191782
H248	H	1.364872	-0.396260	0.525116
H249	H	1.698205	-0.062927	0.858449
H250	H	1.284646	-0.189898	0.806501
H251	H	1.617979	0.143436	1.139834
H252	H	1.951313	0.476769	1.473167
N253	N	1.295139	-0.181524	0.964819
N254	N	1.628472	0.151810	1.298153
N255	N	1.961806	0.485143	1.631486
N256	N	1.289932	-0.123439	0.955627
N257	N	1.623265	0.209894	1.288960
N258	N	1.956598	0.543228	1.622294
H259	H	1.326413	-0.094385	0.985427
H260	H	1.659746	0.238948	1.318761
H261	H	1.993080	0.572282	1.652094
H262	H	0.717614	-0.190121	0.523436
H263	H	1.050947	0.143213	0.856770
H264	H	1.384281	0.476546	1.190103
N265	N	1.040094	-0.384497	1.088507
N266	N	1.373427	-0.051164	1.421840
N267	N	1.706760	0.282169	1.755174
N268	N	0.994922	-0.420434	1.051621
N269	N	1.328256	-0.087101	1.384954
N270	N	1.661589	0.246232	1.718287
H271	H	0.958422	-0.449464	1.081367
H272	H	1.291756	-0.116130	1.414700
H273	H	1.625089	0.217203	1.748034
N274	N	1.244510	-0.221839	0.674108
N275	N	1.577843	0.111495	1.007441
N276	N	1.911177	0.444828	1.340774
N277	N	1.289681	-0.185899	0.710990
N278	N	1.623015	0.147434	1.044324
N279	N	1.956348	0.480768	1.377657
H280	H	1.326173	-0.156866	0.681241
H281	H	1.659507	0.176468	1.014574
H282	H	1.992840	0.509801	1.347908
N283	N	1.039993	-0.536230	0.278593
N284	N	1.373326	-0.202896	0.611926
N285	N	1.706660	0.130437	0.945260
N286	N	0.994903	-0.565642	0.233426
N287	N	1.328236	-0.232309	0.566759
N288	N	1.661569	0.101024	0.900092
H289	H	0.958438	-0.541982	0.196916
H290	H	1.291772	-0.208649	0.530249
H291	H	1.625105	0.124684	0.863583
N292	N	1.040257	-1.069960	0.278708
N293	N	1.373590	-0.736627	0.612041
N294	N	1.706924	-0.403294	0.945374
N295	N	1.040288	-1.128657	0.278728
N296	N	1.373621	-0.795324	0.612061
N297	N	1.706954	-0.461991	0.945395
H298	H	1.003852	-1.152424	0.242237
H299	H	1.337185	-0.819091	0.575570
H300	H	1.670518	-0.485757	0.908903
H301	H	1.234031	-1.062893	0.472795
H302	H	1.567364	-0.729559	0.806128
H303	H	1.900697	-0.396226	1.139462
N304	N	0.849763	-0.384546	0.278483
N305	N	1.183097	-0.051213	0.611817
N306	N	1.516430	0.282121	0.945150
N307	N	0.812858	-0.420442	0.233274
N308	N	1.146191	-0.087109	0.566608
N309	N	1.479525	0.246225	0.899941
H310	H	0.842589	-0.449446	0.196721
H311	H	1.175922	-0.116112	0.530055
H312	H	1.509255	0.217221	0.863388
H313	H	0.717369	-0.416437	0.238379
H314	H	1.050702	-0.083104	0.571712
H315	H	1.384035	0.250229	0.905045
H316	H	1.233841	-0.662055	0.472713
H317	H	1.567174	-0.328722	0.806046
H318	H	1.900507	0.004612	1.139380
N319	N	0.559021	-0.424776	0.227919
N320	N	0.892354	-0.091443	0.561252
N321	N	1.225688	0.241891	0.894586
N322	N	0.485317	-0.424778	0.227948
N323	N	0.818651	-0.091445	0.561282
N324	N	1.151984	0.241889	0.894615
H325	H	0.455495	-0.453784	0.191424
H326	H	0.788828	-0.120451	0.524757
H327	H	1.122161	0.212883	0.858091
N328	N	1.244606	-0.221773	1.088625
N329	N	1.577939	0.111561	1.421958
N330	N	1.911272	0.444894	1.755292
N331	N	1.244621	-0.221769	1.162329
N332	N	1.577955	0.111565	1.495662
N333	N	1.911288	0.444898	1.828995
H334	H	1.281121	-0.192731	1.192132
H335	H	1.614454	0.140602	1.525466
H336	H	1.947788	0.473935	1.858799
N337	N	1.244456	-0.936809	0.483246
N338	N	1.577789	-0.603476	0.816579
N339	N	1.911123	-0.270142	1.149913
N340	N	1.289569	-0.966108	0.528429
N341	N	1.622903	-0.632775	0.861762
N342	N	1.956236	-0.299441	1.195095
H343	H	1.326012	-0.942356	0.564929
H344	H	1.659345	-0.609023	0.898262
H345	H	1.992679	-0.275690	1.231596
H346	H	0.443983	-0.230367	0.472843
H347	H	0.777317	0.102966	0.806176
H348	H	1.110650	0.436299	1.139510
N349	N	1.040186	-0.937065	0.278681
N350	N	1.373519	-0.603732	0.612015
N351	N	1.706853	-0.270399	0.945348
N352	N	0.967251	-0.944459	0.283859
N353	N	1.300584	-0.611126	0.617192
N354	N	1.633918	-0.277793	0.950525
H355	H	0.930780	-0.920798	0.247357
H356	H	1.264114	-0.587464	0.580691
H357	H	1.597447	-0.254131	0.914024
H358	H	1.050478	-0.376231	0.682562
H359	H	1.383811	-0.042898	1.015895
H360	H	1.717144	0.290435	1.349229
H361	H	0.999939	-0.416464	0.806350
H362	H	1.333272	-0.083131	1.139683
H363	H	1.666605	0.250202	1.473017
N364	N	0.435243	-0.384580	0.278588
N365	N	0.768577	-0.051246	0.611921
N366	N	1.101910	0.282087	0.945254
N367	N	0.361540	-0.384581	0.278604
N368	N	0.694873	-0.051247	0.611937
N369	N	1.028206	0.282086	0.945270
H370	H	0.331723	-0.413584	0.242071
H371	H	0.665056	-0.080251	0.575405
H372	H	0.998390	0.253083	0.908738
H373	H	0.841395	-0.230320	0.472755
H374	H	1.174729	0.103013	0.806089
H375	H	1.508062	0.436346	1.139422
