data_functionalizedCrystal
_audit_creation_method	'MofGen! by Chris Wilmer'
_symmetry_space_group_name_H-M	'P1'
_symmetry_Int_Tables_number	1
_symmetry_cell_setting	triclinic
loop_
_symmetry_equiv_pos_as_xyz
  x,y,z
_cell_length_a	16.120530
_cell_length_b	13.034570
_cell_length_c	13.033454
_cell_angle_alpha	90.866531
_cell_angle_beta	93.913305
_cell_angle_gamma	80.336380
loop_
_atom_site_label
_atom_site_type_symbol
_atom_site_fract_x
_atom_site_fract_y
_atom_site_fract_z
Zn1	Zn	1.242422	-0.403361	-0.721071
Zn2	Zn	1.742422	0.096639	-0.221071
Zn3	Zn	1.277118	-0.599065	-0.573418
Zn4	Zn	1.777118	-0.099065	-0.073418
Zn5	Zn	1.122828	-0.418713	-0.540698
Zn6	Zn	1.622828	0.081287	-0.040698
Zn7	Zn	1.118387	-0.568473	-0.734146
Zn8	Zn	1.618387	-0.068473	-0.234146
O9	O	1.190189	-0.497403	-0.642333
O10	O	1.690189	0.002597	-0.142333
O11	O	1.363504	-0.435700	-0.709707
O12	O	1.863504	0.064300	-0.209707
O13	O	1.273030	-0.594368	-0.426326
O14	O	1.773030	-0.094368	0.073674
O15	O	1.126031	-0.272099	-0.545460
O16	O	1.626031	0.227901	-0.045460
O17	O	1.388995	-0.579482	-0.601227
O18	O	1.888995	-0.079482	-0.101227
O19	O	1.213896	-0.260820	-0.677979
O20	O	1.713896	0.239180	-0.177979
O21	O	1.159674	-0.461865	-0.402287
O22	O	1.659674	0.038135	0.097713
O23	O	1.005759	-0.432201	-0.558137
O24	O	1.505759	0.067799	-0.058137
O25	O	1.118462	-0.527343	-0.875163
O26	O	1.618462	-0.027343	-0.375163
O27	O	1.002497	-0.542229	-0.700262
O28	O	1.502497	-0.042229	-0.200262
O29	O	1.209590	-0.406036	-0.865557
O30	O	1.709590	0.093964	-0.365557
O31	O	1.268724	-0.739584	-0.613905
O32	O	1.768724	-0.239584	-0.113905
O33	O	1.152105	-0.717108	-0.731990
O34	O	1.652105	-0.217108	-0.231990
C35	C	1.213718	-0.765832	-0.677940
C36	C	1.713718	-0.265832	-0.177940
C37	C	1.223856	-0.880666	-0.693213
C38	C	1.723856	-0.380666	-0.193213
C39	C	0.973926	-0.485562	-0.627069
C40	C	1.473926	0.014438	-0.127069
C41	C	0.881407	-0.480518	-0.620566
C42	C	1.381407	0.019482	-0.120566
C43	C	1.195430	-1.056220	-0.650186
C44	C	1.695430	-0.556220	-0.150186
C45	C	1.184951	-0.937532	-0.634407
C46	C	1.684951	-0.437532	-0.134407
C47	C	0.712011	-0.471283	-0.608699
C48	C	1.212011	0.028717	-0.108699
C49	C	0.669205	-0.523589	-0.676052
C50	C	1.169205	-0.023589	-0.176052
C51	C	0.574948	-0.518451	-0.669450
C52	C	1.074948	-0.018451	-0.169450
C53	C	0.806277	-0.476420	-0.615300
C54	C	1.306277	0.023580	-0.115300
C55	C	1.407296	-0.509291	-0.657658
C56	C	1.907296	-0.009291	-0.157658
C57	C	1.499814	-0.514357	-0.664189
C58	C	1.999814	-0.014357	-0.164189
C59	C	1.159660	-0.461564	-0.908409
C60	C	1.659660	0.038436	-0.408409
C61	C	1.146651	-0.446292	-1.021795
C62	C	1.646651	0.053708	-0.521795
C63	C	1.166588	-0.227924	-0.606611
C64	C	1.666588	0.272076	-0.106611
C65	C	1.156531	-0.113088	-0.591388
C66	C	1.656531	0.386912	-0.091388
C67	C	1.196937	-0.505044	-1.084240
C68	C	1.696937	-0.005044	-0.584240
C69	C	1.183492	-0.489260	-1.201430
C70	C	1.683492	0.010740	-0.701430
C71	C	1.220640	-0.533030	-0.377286
C72	C	1.720640	-0.033030	0.122714
C73	C	1.233785	-0.548020	-0.263874
C74	C	1.733785	-0.048020	0.236126
H75	H	1.236495	-1.095403	-0.712203
H76	H	1.736495	-0.595403	-0.212203
H77	H	0.703348	-0.572226	-0.738676
H78	H	1.203348	-0.072226	-0.238676
Br79	Br	0.655107	-0.390219	-0.504330
Br80	Br	1.155107	0.109781	-0.004330
Br81	Br	1.285296	-0.608347	-1.028752
Br82	Br	1.785296	-0.108347	-0.528752
H83	H	1.093648	-0.384304	-1.055092
H84	H	1.593648	0.115696	-0.555092
Br85	Br	1.095145	-0.385933	-1.256911
Br86	Br	1.595145	0.114067	-0.756911
Br87	Br	1.116516	-0.872244	-0.531018
Br88	Br	1.616516	-0.372244	-0.031018
H89	H	1.286798	-0.610004	-1.230582
H90	H	1.786798	-0.110004	-0.730582
Br91	Br	1.088099	-1.047796	-0.488004
Br92	Br	1.588099	-0.547796	0.011996
H93	H	1.264923	-0.919843	-0.755235
H94	H	1.764923	-0.419843	-0.255235
