data_functionalizedCrystal
_audit_creation_method	'MofGen! by Chris Wilmer'
_symmetry_space_group_name_H-M	'P1'
_symmetry_Int_Tables_number	1
_symmetry_cell_setting	triclinic
loop_
_symmetry_equiv_pos_as_xyz
  x,y,z
_cell_length_a	14.971486
_cell_length_b	9.065215
_cell_length_c	7.540329
_cell_angle_alpha	90.002257
_cell_angle_beta	89.996650
_cell_angle_gamma	84.314413
loop_
_atom_site_label
_atom_site_type_symbol
_atom_site_fract_x
_atom_site_fract_y
_atom_site_fract_z
O1	O	1.188373	0.192256	0.147275
O2	O	1.688373	0.692256	0.647275
O3	O	0.928144	0.215279	0.147322
O4	O	1.428144	0.715279	0.647322
O5	O	1.063639	-0.010984	0.147290
O6	O	1.563639	0.489016	0.647290
O7	O	1.052878	0.418519	0.147307
O8	O	1.552878	0.918519	0.647307
O9	O	1.063634	-0.010986	-0.147675
O10	O	1.563634	0.489014	0.352325
O11	O	0.928139	0.215278	-0.147643
O12	O	1.428139	0.715278	0.352357
O13	O	1.188368	0.192254	-0.147691
O14	O	1.688368	0.692254	0.352309
Cu15	Cu	1.058253	0.203766	-0.174599
Cu16	Cu	1.558253	0.703766	0.325401
Cu17	Cu	1.058259	0.203768	0.174231
Cu18	Cu	1.558259	0.703768	0.674231
O19	O	1.052873	0.418518	-0.147658
O20	O	1.552873	0.918518	0.352342
C21	C	0.894809	0.214249	-0.000154
C22	C	1.394809	0.714249	0.499846
C23	C	0.795489	0.211163	-0.000136
C24	C	1.295489	0.711163	0.499864
C25	C	0.739254	0.344087	-0.000133
C26	C	1.239254	0.844087	0.499867
C27	C	0.645933	0.341179	-0.000160
C28	C	1.145933	0.841179	0.499840
C29	C	0.608849	0.205346	-0.000176
C30	C	1.108849	0.705346	0.499824
C31	C	0.665092	0.072412	-0.000184
C32	C	1.165092	0.572412	0.499816
C33	C	0.758411	0.075321	-0.000170
C34	C	1.258411	0.575321	0.499830
C35	C	0.470584	0.066357	-0.000209
C36	C	0.970584	0.566357	0.499791
C37	C	0.377258	0.063446	-0.000220
C38	C	0.877258	0.563446	0.499780
C39	C	0.358106	0.332214	-0.000198
C40	C	0.858106	0.832214	0.499802
C41	C	0.451425	0.335124	-0.000184
C42	C	0.951425	0.835124	0.499816
C43	C	0.507661	0.202189	-0.000189
C44	C	1.007661	0.702189	0.499811
C45	C	1.062603	-0.065951	-0.000191
C46	C	1.562603	0.434049	0.499809
C47	C	1.059512	-0.229731	-0.000185
C48	C	1.559512	0.270269	0.499815
C49	C	1.221703	0.193284	-0.000210
C50	C	1.721703	0.693284	0.499790
C51	C	1.321023	0.196370	-0.000217
C52	C	1.821023	0.696370	0.499783
C53	C	1.053909	0.473484	-0.000174
C54	C	1.553909	0.973484	0.499826
C55	C	1.057000	0.637265	-0.000168
C56	C	1.557000	1.137265	0.499832
N57	N	1.058256	0.203763	-0.419948
N58	N	1.558256	0.703763	0.080052
N59	N	1.058263	0.203758	0.419580
N60	N	1.558263	0.703758	0.919580
H61	H	0.634891	-0.038186	-0.000223
H62	H	1.134891	0.461814	0.499777
H63	H	0.804198	-0.032919	-0.000172
H64	H	1.304198	0.467081	0.499828
O65	O	0.779245	0.490599	-0.000135
O66	O	1.279245	0.990599	0.499865
H67	H	0.756726	0.554492	0.120075
H68	H	1.256726	1.054492	0.620075
O69	O	0.585275	0.484545	-0.000157
O70	O	1.085275	0.984545	0.499843
H71	H	0.626740	0.579486	-0.000122
H72	H	1.126740	1.079486	0.499878
H73	H	0.481615	0.445731	-0.000154
H74	H	0.981615	0.945731	0.499846
O75	O	0.297452	0.475594	-0.000210
O76	O	0.797452	0.975594	0.499790
H77	H	0.338916	0.570535	-0.000175
H78	H	0.838916	1.070535	0.499825
H79	H	0.347068	-0.047161	-0.000236
H80	H	0.847068	0.452839	0.499764
O81	O	0.531244	-0.077019	-0.000206
O82	O	1.031244	0.422981	0.499794
H83	H	0.489782	-0.171962	-0.000198
H84	H	0.989782	0.328038	0.499802
