data_functionalizedCrystal
_audit_creation_method	'MofGen! by Chris Wilmer'
_symmetry_space_group_name_H-M	'P1'
_symmetry_Int_Tables_number	1
_symmetry_cell_setting	triclinic
loop_
_symmetry_equiv_pos_as_xyz
  x,y,z
_cell_length_a	6.817900
_cell_length_b	15.866870
_cell_length_c	10.943881
_cell_angle_alpha	110.423067
_cell_angle_beta	108.843448
_cell_angle_gamma	102.655915
loop_
_atom_site_label
_atom_site_type_symbol
_atom_site_fract_x
_atom_site_fract_y
_atom_site_fract_z
V1	V	-4.123329	-0.132604	-0.465661
O2	O	-4.072881	0.006400	-0.391843
O3	O	-4.108928	-0.262958	-0.524945
O4	O	-4.101195	-0.130552	-0.640251
O5	O	-4.080668	-0.126923	-0.275739
V6	V	-4.599148	-0.115979	-0.435356
O7	O	-4.401487	-0.169072	-0.532137
O8	O	-4.771188	-0.079510	-0.368880
O9	O	-4.390343	0.014375	-0.376071
O10	O	-4.766993	-0.254983	-0.509173
O11	O	-4.759207	-0.121660	-0.625277
O12	O	-4.398076	-0.118031	-0.260765
C13	C	-3.961349	-0.294736	-0.533719
C14	C	-4.031036	-0.401302	-0.583354
C15	C	-3.950671	-0.683417	-0.122938
C16	C	-4.016169	-0.783557	-0.169622
C17	C	-4.139991	-0.810893	-0.419093
C18	C	-4.074493	-0.710753	-0.372429
C19	C	-3.979838	-0.647023	-0.224350
C20	C	-4.103660	-0.674359	-0.473842
C21	C	-4.038178	-0.574228	-0.427182
C22	C	-3.943529	-0.510492	-0.279110
C23	C	-3.914356	-0.546892	-0.177691
C24	C	-4.198330	-0.738091	-0.621921
C25	C	-4.227497	-0.701697	-0.723334
C26	C	-4.162000	-0.601564	-0.676674
C27	C	-4.067351	-0.537828	-0.528602
C28	C	-4.191173	-0.565163	-0.778093
C29	C	-4.125691	-0.465033	-0.731433
C30	C	-4.001869	-0.437697	-0.481942
C31	C	-3.951484	-0.125837	-0.680800
C32	C	-4.014895	-0.125022	-0.823939
C33	C	-4.244603	-0.129537	-0.916971
C34	C	-4.126313	-0.047136	-0.943491
C35	C	-4.246108	-0.205912	-1.052426
C36	C	-3.895720	-0.042567	-0.848530
C37	C	-4.015592	-0.201415	-0.957507
C38	C	-3.897130	-0.118991	-0.983969
C39	C	-4.201264	0.046148	-0.367297
C40	C	-4.110817	0.152714	-0.317670
C41	C	-4.211129	-0.122748	-0.220211
C42	C	-4.126955	-0.123559	-0.077068
H43	H	-4.390768	-0.133902	-0.887180
O44	O	-4.319795	-0.763579	-0.867204
C45	C	-4.516616	-0.752048	-0.940032
H46	H	-4.584842	-0.719765	-0.860043
H47	H	-4.477594	-0.701402	-0.988848
C48	C	-4.608367	-0.891127	-1.159941
C49	C	-4.692174	-0.851484	-1.061699
H50	H	-4.716658	-0.952462	-1.234995
H51	H	-4.475761	-0.898894	-1.110877
H52	H	-4.575851	-0.848912	-1.200604
H53	H	-4.724662	-0.893692	-1.021024
H54	H	-4.824791	-0.843726	-1.110759
O55	O	-3.858957	-0.621407	0.020855
C56	C	-3.992609	-0.567330	0.046970
H57	H	-4.094980	-0.565760	-0.057135
H58	H	-4.109953	-0.602417	0.084730
C59	C	-3.716071	-0.464914	0.292983
C60	C	-3.841791	-0.462978	0.165122
H61	H	-3.623043	-0.400546	0.365869
H62	H	-3.626030	-0.501349	0.275391
H63	H	-3.813880	-0.494157	0.324430
H64	H	-3.743982	-0.433747	0.133667
H65	H	-3.931812	-0.426536	0.182711
O66	O	-3.987982	-0.818807	-0.070982
C67	C	-4.109556	-0.790691	0.007954
H68	H	-4.138024	-0.723421	0.003593
H69	H	-4.277670	-0.852191	-0.041440
C70	C	-3.941842	-0.850395	0.172147
C71	C	-3.976790	-0.767768	0.166801
H72	H	-3.859953	-0.836259	0.270130
H73	H	-3.859941	-0.869341	0.118964
H74	H	-4.081948	-0.901637	0.130978
H75	H	-3.836685	-0.716531	0.207953
H76	H	-4.058664	-0.748812	0.219995
H77	H	-4.217075	-0.862795	-0.539660
H78	H	-4.173715	0.018102	-0.938977
H79	H	-4.251648	-0.819623	-0.659907
O80	O	-4.283487	-0.627048	-0.921963
C81	C	-4.480307	-0.615511	-0.994779
H82	H	-4.548511	-0.583221	-0.914780
H83	H	-4.441292	-0.564869	-1.043602
C84	C	-4.572107	-0.754597	-1.214692
C85	C	-4.655886	-0.714945	-1.116437
H86	H	-4.680410	-0.815931	-1.289741
H87	H	-4.439502	-0.762368	-1.165637
H88	H	-4.539596	-0.712386	-1.255361
H89	H	-4.688369	-0.757150	-1.075756
H90	H	-4.788502	-0.707183	-1.165489
O91	O	-4.423323	-0.288351	-1.156918
C92	C	-4.366465	-0.369614	-1.163923
H93	H	-4.177107	-0.346863	-1.117876
H94	H	-4.429745	-0.400325	-1.097941
C95	C	-4.707238	-0.475574	-1.379462
C96	C	-4.474666	-0.447631	-1.322918
H97	H	-4.773989	-0.523701	-1.477536
H98	H	-4.745550	-0.420826	-1.374741
H99	H	-4.759941	-0.501160	-1.324464
H100	H	-4.421964	-0.422035	-1.377906
H101	H	-4.436348	-0.502377	-1.327653
H102	H	-3.747058	0.026527	-0.761046
H103	H	-3.924759	-0.385802	-0.361360
H104	H	-3.890221	-0.428960	-0.241122
H105	H	-3.837246	-0.494998	-0.057108
H106	H	-4.149474	-0.435401	-0.814015
H107	H	-3.750633	-0.114501	-1.013431
H108	H	-3.968254	-0.266659	-0.962002
