data_functionalizedCrystal
_audit_creation_method	'MofGen! by Chris Wilmer'
_symmetry_space_group_name_H-M	'P1'
_symmetry_Int_Tables_number	1
_symmetry_cell_setting	triclinic
loop_
_symmetry_equiv_pos_as_xyz
  x,y,z
_cell_length_a	14.519709
_cell_length_b	10.654550
_cell_length_c	9.130313
_cell_angle_alpha	90.000110
_cell_angle_beta	90.005376
_cell_angle_gamma	95.917476
loop_
_atom_site_label
_atom_site_type_symbol
_atom_site_fract_x
_atom_site_fract_y
_atom_site_fract_z
O1	O	1.224716	-0.164617	-0.121605
O2	O	0.956339	-0.184004	-0.121649
O3	O	1.096698	0.008488	-0.121620
O4	O	1.084357	-0.357109	-0.121633
O5	O	1.096696	0.008483	0.121978
O6	O	0.956338	-0.184009	0.121950
O7	O	1.224714	-0.164623	0.121994
Cu8	Cu	1.090526	-0.174316	0.144215
Cu9	Cu	1.090528	-0.174310	-0.143869
O10	O	1.084355	-0.357114	0.121966
C11	C	0.921974	-0.183103	0.000145
C12	C	0.819579	-0.180396	0.000128
N13	N	1.090531	-0.174320	0.346837
C14	C	1.095791	0.055275	0.000177
C15	C	1.093080	0.194692	0.000172
C16	C	0.444631	-0.170428	0.000195
C17	C	0.548954	-0.173196	0.000176
C18	C	0.632102	-0.175412	0.000160
C19	C	0.736431	-0.178180	0.000144
C20	C	1.259079	-0.165524	0.000197
C21	C	1.361475	-0.168231	0.000205
C22	C	1.085262	-0.403901	0.000165
C23	C	1.087973	-0.543318	0.000161
C24	C	1.175721	0.274972	0.000190
C25	C	1.173168	0.405968	0.000179
C26	C	1.005326	0.376391	0.000138
C27	C	1.007880	0.245397	0.000138
C28	C	1.260921	0.224266	0.000223
C29	C	1.343569	0.304548	0.000242
C30	C	1.341016	0.435544	0.000232
C31	C	1.255815	0.486259	0.000201
N32	N	1.090530	-0.174297	-0.346492
C33	C	1.152698	-0.089113	0.423502
C34	C	1.152695	-0.089098	0.576839
C35	C	1.028356	-0.259507	0.576833
C36	C	1.028355	-0.259515	0.423499
C37	C	1.214874	-0.003918	0.346840
C38	C	1.277047	0.081295	0.423505
C39	C	1.277044	0.081310	0.576842
C40	C	1.214869	-0.003888	0.653514
H41	H	1.412936	0.263247	0.000231
C42	C	1.431919	0.523855	0.000236
H43	H	1.418200	0.609134	0.000212
H44	H	1.466820	0.508470	0.085190
H45	H	1.466817	0.508455	-0.084717
H46	H	0.977732	-0.328897	0.361078
C47	C	0.911613	0.432169	0.000112
H48	H	0.862759	0.365594	0.000088
H49	H	0.907124	0.482657	0.085057
H50	H	0.907134	0.482653	-0.084850
C51	C	1.345422	0.175042	0.661177
H52	H	1.336514	0.162858	0.763477
H53	H	1.407056	0.161212	0.636062
H54	H	1.334870	0.258890	0.636033
C55	C	0.959978	-0.353226	0.661168
H56	H	0.968890	-0.341025	0.763469
H57	H	0.898343	-0.339406	0.636035
H58	H	0.970534	-0.437077	0.636044
H59	H	1.327663	0.150667	0.361071
H60	H	1.214866	-0.003860	0.778371
C61	C	0.916980	0.157079	0.000123
H62	H	0.930705	0.071803	0.000112
H63	H	0.882075	0.172465	0.085062
H64	H	0.882085	0.172470	-0.084845
C65	C	1.263733	0.080176	0.000226
H66	H	1.326309	0.061473	0.000237
H67	H	1.233310	0.045081	0.085164
H68	H	1.233325	0.045084	-0.084744
C69	C	1.253008	0.630352	0.000182
H70	H	1.314429	0.670904	0.000201
H71	H	1.221437	0.654520	-0.084773
H72	H	1.221438	0.654528	0.085134
H73	H	1.214884	-0.003925	0.221986
