data_functionalizedCrystal
_audit_creation_method	'MofGen! by Chris Wilmer'
_symmetry_space_group_name_H-M	'P1'
_symmetry_Int_Tables_number	1
_symmetry_cell_setting	triclinic
loop_
_symmetry_equiv_pos_as_xyz
  x,y,z
_cell_length_a	11.169417
_cell_length_b	19.805405
_cell_length_c	11.169409
_cell_angle_alpha	89.962829
_cell_angle_beta	89.980176
_cell_angle_gamma	90.027605
loop_
_atom_site_label
_atom_site_type_symbol
_atom_site_fract_x
_atom_site_fract_y
_atom_site_fract_z
Zn1	Zn	1.834826	-0.269393	-0.678502
Zn2	Zn	2.334826	0.230607	-0.178502
Zn3	Zn	1.834658	-0.382602	-0.477802
Zn4	Zn	2.334658	0.117398	0.022198
Zn5	Zn	1.634112	-0.269434	-0.477837
Zn6	Zn	2.134112	0.230566	0.022163
Zn7	Zn	1.634062	-0.382547	-0.678447
Zn8	Zn	2.134062	0.117453	-0.178447
O9	O	1.734414	-0.325994	-0.578147
O10	O	2.234414	0.174006	-0.078147
O11	O	2.002753	-0.284416	-0.651888
O12	O	2.502753	0.215584	-0.151888
O13	O	1.808005	-0.367630	-0.309857
O14	O	2.308005	0.132370	0.190143
O15	O	1.660828	-0.174712	-0.504493
O16	O	2.160828	0.325288	-0.004493
O17	O	2.002630	-0.367590	-0.504434
O18	O	2.502630	0.132410	-0.004434
O19	O	1.808292	-0.174681	-0.651921
O20	O	2.308292	0.325319	-0.151921
O21	O	1.660665	-0.284486	-0.309882
O22	O	2.160665	0.215514	0.190118
O23	O	1.466155	-0.284433	-0.504439
O24	O	1.966155	0.215567	-0.004439
O25	O	1.660743	-0.367496	-0.846404
O26	O	2.160743	0.132504	-0.346404
O27	O	1.466119	-0.367536	-0.651827
O28	O	1.966119	0.132464	-0.151827
O29	O	1.808243	-0.284362	-0.846445
O30	O	2.308243	0.215638	-0.346445
O31	O	1.807957	-0.477311	-0.504381
O32	O	2.307957	0.022689	-0.004381
O33	O	1.660580	-0.477271	-0.651794
O34	O	2.160580	0.022729	-0.151794
C35	C	1.422589	-0.325983	-0.578132
C36	C	1.922589	0.174017	-0.078132
C37	C	1.289189	-0.325995	-0.578154
C38	C	1.789189	0.174005	-0.078154
C39	C	1.734277	-0.501850	-0.578104
C40	C	2.234277	-0.001850	-0.078104
C41	C	1.734329	-0.577082	-0.578125
C42	C	2.234329	-0.077082	-0.078125
C43	C	1.811068	-0.612352	-0.654951
C44	C	2.311068	-0.112352	-0.154951
C45	C	1.811111	-0.683040	-0.654974
C46	C	2.311111	-0.183040	-0.154974
C47	C	1.734420	-0.718457	-0.578163
C48	C	2.234420	-0.218457	-0.078163
C49	C	1.657673	-0.683182	-0.501334
C50	C	2.157673	-0.183182	-0.001334
C51	C	1.657625	-0.612495	-0.501318
C52	C	2.157625	-0.112495	-0.001318
C53	C	1.657866	-0.968255	-0.501395
C54	C	2.157866	-0.468255	-0.001395
C55	C	1.657923	-1.038947	-0.501414
C56	C	2.157923	-0.538947	-0.001414
C57	C	1.811352	-1.038801	-0.655051
C58	C	2.311352	-0.538801	-0.155051
C59	C	1.811304	-0.968113	-0.655035
C60	C	2.311304	-0.468113	-0.155035
C61	C	1.734552	-0.932845	-0.578211
C62	C	2.234552	-0.432845	-0.078211
C63	C	1.734505	-0.856196	-0.578189
C64	C	2.234505	-0.356196	-0.078189
C65	C	1.734473	-0.795104	-0.578178
C66	C	2.234473	-0.295104	-0.078178
C67	C	2.047456	-0.326004	-0.578163
C68	C	2.547456	0.173996	-0.078163
C69	C	2.180856	-0.326009	-0.578170
C70	C	2.680856	0.173991	-0.078170
C71	C	1.734506	-0.325919	-0.891190
C72	C	2.234506	0.174081	-0.391190
C73	C	1.734546	-0.325886	-1.024590
C74	C	2.234546	0.174114	-0.524590
C75	C	1.734584	-0.149451	-0.578217
C76	C	2.234584	0.350549	-0.078217
C77	C	1.734657	-0.074219	-0.578247
C78	C	2.234657	0.425781	-0.078247
C79	C	1.734391	-0.326020	-0.266322
C80	C	2.234391	0.173980	0.233678
C81	C	1.734585	-0.325861	-0.132923
C82	C	2.234585	0.174139	0.367077
H83	H	1.873523	-0.583520	-0.717494
H84	H	2.373523	-0.083520	-0.217494
H85	H	1.873756	-0.939279	-0.717577
H86	H	2.373756	-0.439279	-0.217577
H87	H	1.595374	-0.939545	-0.438840
H88	H	2.095374	-0.439545	0.061160
C89	C	1.573214	-0.573695	-0.416812
C90	C	2.073214	-0.073695	0.083188
H91	H	1.584159	-0.526524	-0.427812
H92	H	2.084159	-0.026524	0.072188
H93	H	1.590822	-0.585304	-0.336189
H94	H	2.090822	-0.085304	0.163811
H95	H	1.492571	-0.585313	-0.434323
H96	H	1.992571	-0.085313	0.065677
H97	H	1.873609	-0.711754	-0.717524
H98	H	2.373609	-0.211754	-0.217524
H99	H	1.595466	-1.067782	-0.438863
H100	H	2.095466	-0.567782	0.061137
C101	C	1.895768	-1.077598	-0.739568
C102	C	2.395768	-0.577598	-0.239568
H103	H	1.884808	-1.124769	-0.728591
H104	H	2.384808	-0.624769	-0.228591
H105	H	1.976407	-1.065982	-0.722069
H106	H	2.476407	-0.565982	-0.222069
H107	H	1.878147	-1.065984	-0.820193
H108	H	2.378147	-0.565984	-0.320193
H109	H	1.595225	-0.712024	-0.438798
H110	H	2.095225	-0.212024	0.061202
