data_functionalizedCrystal
_audit_creation_method	'MofGen! by Chris Wilmer'
_symmetry_space_group_name_H-M	'P1'
_symmetry_Int_Tables_number	1
_symmetry_cell_setting	triclinic
loop_
_symmetry_equiv_pos_as_xyz
  x,y,z
_cell_length_a	11.792241
_cell_length_b	10.868271
_cell_length_c	11.792241
_cell_angle_alpha	90.005737
_cell_angle_beta	95.806584
_cell_angle_gamma	90.003536
loop_
_atom_site_label
_atom_site_type_symbol
_atom_site_fract_x
_atom_site_fract_y
_atom_site_fract_z
O1	O	1.506902	-0.102203	-0.155570
O2	O	1.176561	-0.102232	-0.171603
O3	O	1.349748	-0.102208	0.001584
O4	O	1.333715	-0.102227	-0.328757
O5	O	1.349746	0.102436	0.001594
O6	O	1.176559	0.102413	-0.171593
O7	O	1.506900	0.102441	-0.155560
Zn8	Zn	1.341729	0.134919	-0.163575
Zn9	Zn	1.341732	-0.134709	-0.163588
O10	O	1.333713	0.102418	-0.328747
C11	C	1.134269	0.000087	-0.170591
C12	C	1.008255	0.000076	-0.167576
C13	C	0.777543	0.000112	-0.162034
C14	C	0.905928	0.000092	-0.165113
N15	N	1.341735	-0.318723	-0.163588
C16	C	1.341731	-0.569729	-0.163581
C17	C	1.341730	-0.430052	-0.163589
C18	C	1.549192	0.000120	-0.156572
C19	C	1.675206	0.000123	-0.159587
C20	C	1.348740	0.000114	0.043880
C21	C	1.345726	0.000112	0.169894
N22	N	1.341736	0.318933	-0.163566
C23	C	1.334721	0.000093	-0.371043
C24	C	1.337736	0.000087	-0.497057
C25	C	1.340183	0.000091	0.400606
C26	C	1.343262	0.000102	0.272221
