data_functionalizedCrystal
_audit_creation_method	'MofGen! by Chris Wilmer'
_symmetry_space_group_name_H-M	'P1'
_symmetry_Int_Tables_number	1
_symmetry_cell_setting	triclinic
loop_
_symmetry_equiv_pos_as_xyz
  x,y,z
_cell_length_a	9.065215
_cell_length_b	19.288865
_cell_length_c	17.766277
_cell_angle_alpha	89.988397
_cell_angle_beta	89.991201
_cell_angle_gamma	84.075472
loop_
_atom_site_label
_atom_site_type_symbol
_atom_site_fract_x
_atom_site_fract_y
_atom_site_fract_z
O1	O	1.956847	0.101833	-0.062596
O2	O	2.456847	0.601833	0.437404
O3	O	1.527269	0.110188	-0.062600
O4	O	2.027269	0.610188	0.437400
O5	O	1.754470	0.004976	-0.062583
O6	O	2.254470	0.504976	0.437417
O7	O	1.729645	0.207044	-0.062613
O8	O	2.229645	0.707044	0.437387
O9	O	1.754431	0.004971	0.062606
O10	O	2.254431	0.504971	0.562606
O11	O	1.527229	0.110182	0.062589
O12	O	2.027229	0.610182	0.562589
O13	O	1.956807	0.101827	0.062593
O14	O	2.456807	0.601827	0.562593
Cu15	Cu	1.742014	0.106004	0.074021
Cu16	Cu	2.242014	0.606004	0.574021
Cu17	Cu	1.742061	0.106011	-0.074028
Cu18	Cu	2.242061	0.606011	0.425972
O19	O	1.729605	0.207039	0.062576
O20	O	2.229605	0.707039	0.562576
C21	C	1.472290	0.109383	-0.000006
C22	C	1.972290	0.609383	0.499994
C23	C	1.308531	0.106983	-0.000007
C24	C	1.808531	0.606983	0.499993
C25	C	1.753652	-0.020909	0.000014
C26	C	2.253652	0.479091	0.500014
C27	C	1.751254	-0.098031	0.000020
C28	C	2.251254	0.401969	0.500020
C29	C	1.884565	-0.141693	0.000025
C30	C	2.384565	0.358307	0.500025
C31	C	1.882313	-0.214158	0.000013
C32	C	2.382313	0.285842	0.500013
C33	C	1.746741	-0.242957	0.000012
C34	C	2.246741	0.257043	0.500012
C35	C	1.613411	-0.199286	0.000002
C36	C	2.113411	0.300714	0.500002
C37	C	1.615668	-0.126823	0.000007
C38	C	2.115668	0.373177	0.500007
C39	C	1.640151	-0.352074	0.043861
C40	C	2.140151	0.147926	0.543861
C41	C	1.637900	-0.424536	0.043862
C42	C	2.137900	0.075464	0.543862
C43	C	1.739775	-0.466457	-0.000005
C44	C	2.239775	0.033543	0.499995
C45	C	1.843926	-0.435909	-0.043863
C46	C	2.343926	0.064091	0.456137
C47	C	1.846183	-0.363446	-0.043858
C48	C	2.346183	0.136554	0.456142
C49	C	1.744279	-0.321530	0.000006
C50	C	2.244279	0.178470	0.500006
C51	C	1.870653	-0.588694	-0.000014
C52	C	2.370653	-0.088694	0.499986
C53	C	1.868395	-0.661159	-0.000031
C54	C	2.368395	-0.161159	0.499969
C55	C	1.599490	-0.646286	-0.000034
C56	C	2.099490	-0.146286	0.499966
C57	C	1.601752	-0.573822	-0.000025
C58	C	2.101752	-0.073822	0.499975
C59	C	1.737338	-0.545030	-0.000012
C60	C	2.237338	-0.045030	0.499988
C61	C	2.011785	0.102632	-0.000003
C62	C	2.511785	0.602632	0.499997
C63	C	2.175544	0.105032	-0.000007
C64	C	2.675544	0.605032	0.499993
C65	C	1.730424	0.232924	-0.000022
C66	C	2.230424	0.732924	0.499978
C67	C	1.732822	0.310046	-0.000034
C68	C	2.232822	0.810046	0.499966
N69	N	1.741992	0.105999	0.178152
N70	N	2.241992	0.605999	0.678152
N71	N	1.742095	0.106010	-0.178159
N72	N	2.242095	0.606010	0.321841
C73	C	1.842629	0.059435	0.217546
C74	C	2.342629	0.559435	0.717546
C75	C	1.842638	0.059431	0.296348
C76	C	2.342638	0.559431	0.796348
C77	C	1.742023	0.106005	0.335752
C78	C	2.242023	0.606005	0.835752
C79	C	1.641367	0.152573	0.296348
C80	C	2.141367	0.652573	0.796348
C81	C	1.641351	0.152570	0.217548
C82	C	2.141351	0.652570	0.717548
C83	C	1.722273	0.169139	0.460581
C84	C	2.222273	0.669139	0.960581
C85	C	1.722299	0.169143	0.539380
C86	C	2.222299	0.669143	1.039380
C87	C	1.742062	0.106013	0.578799
C88	C	2.242062	0.606013	1.078799
C89	C	1.761831	0.042877	0.539409
C90	C	2.261831	0.542877	1.039409
C91	C	1.761815	0.042874	0.460609
C92	C	2.261815	0.542874	0.960609
C93	C	1.742028	0.106013	0.421198
C94	C	2.242028	0.606013	0.921198
C95	C	1.842714	0.059442	0.703639
C96	C	2.342714	0.559442	1.203639
C97	C	1.842713	0.059437	0.782442
C98	C	2.342713	0.559437	1.282442
C99	C	1.641449	0.152585	0.782441
C100	C	2.141449	0.652585	1.282441
C101	C	1.641443	0.152583	0.703639
C102	C	2.141443	0.652583	1.203639
C103	C	1.742084	0.106012	0.664243
C104	C	2.242084	0.606012	1.164243
H105	H	1.994970	-0.118256	0.000034
H106	H	2.494970	0.381744	0.500034
Cl107	Cl	1.969166	0.000889	0.345881
Cl108	Cl	2.469166	0.500889	0.845881
H109	H	1.559501	0.190503	0.671562
H110	H	2.059501	0.690503	1.171562
H111	H	1.924658	0.021519	0.671561
H112	H	2.424658	0.521519	1.171561
Cl113	Cl	1.514827	0.211113	0.168020
Cl114	Cl	2.014827	0.711113	0.668020
H115	H	1.559442	0.190492	0.328435
H116	H	2.059442	0.690492	0.828435
H117	H	1.503028	-0.222739	-0.000001
H118	H	2.003028	0.277261	0.499999
H119	H	1.507106	-0.091273	0.000003
H120	H	2.007106	0.408727	0.500003
Cl121	Cl	1.514951	0.211129	0.831972
Cl122	Cl	2.014951	0.711129	1.331972
H123	H	1.777908	-0.008533	0.428541
H124	H	2.277908	0.491467	0.928541
H125	H	1.777923	-0.008529	0.571502
H126	H	2.277923	0.491471	1.071502
Cl127	Cl	2.049917	-0.269057	0.000019
Cl128	Cl	2.549917	0.230943	0.500019
Cl129	Cl	1.697564	0.248513	0.411034
Cl130	Cl	2.197564	0.748513	0.911034
Cl131	Cl	1.969138	0.000886	0.168020
Cl132	Cl	2.469138	0.500886	0.668020
Cl133	Cl	1.969230	0.000890	0.831970
Cl134	Cl	2.469230	0.500890	1.331970
H135	H	1.706212	0.220552	0.571445
H136	H	2.206212	0.720552	1.071445
H137	H	1.489104	-0.669733	-0.000040
H138	H	1.989104	-0.169733	0.499960
Cl139	Cl	1.977099	-0.325044	-0.098996
Cl140	Cl	2.477099	0.174956	0.401004
H141	H	1.926882	-0.470040	-0.079584
H142	H	2.426882	0.029960	0.420416
H143	H	1.981055	-0.565251	-0.000007
H144	H	2.481055	-0.065251	0.499993
H145	H	1.976958	-0.696709	-0.000031
H146	H	2.476958	-0.196709	0.499969
Cl147	Cl	1.434150	-0.518929	-0.000028
Cl148	Cl	1.934150	-0.018929	0.499972
Cl149	Cl	1.506975	-0.462932	0.098999
Cl150	Cl	2.006975	0.037068	0.598999
H151	H	1.557189	-0.317946	0.079587
H152	H	2.057189	0.182054	0.579587
