data_functionalizedCrystal
_audit_creation_method	'MofGen! by Chris Wilmer'
_symmetry_space_group_name_H-M	'P1'
_symmetry_Int_Tables_number	1
_symmetry_cell_setting	triclinic
loop_
_symmetry_equiv_pos_as_xyz
  x,y,z
_cell_length_a	16.625548
_cell_length_b	12.645330
_cell_length_c	16.625539
_cell_angle_alpha	89.975749
_cell_angle_beta	89.979432
_cell_angle_gamma	90.018760
loop_
_atom_site_label
_atom_site_type_symbol
_atom_site_fract_x
_atom_site_fract_y
_atom_site_fract_z
Zn1	Zn	1.232707	-0.422007	-0.455932
Zn2	Zn	1.232622	-0.599293	-0.321109
Zn3	Zn	1.097869	-0.422048	-0.321113
Zn4	Zn	1.097851	-0.599232	-0.455899
O5	O	1.165262	-0.510645	-0.388513
O6	O	1.345528	-0.445533	-0.438060
O7	O	1.214718	-0.575824	-0.208277
O8	O	1.115799	-0.273695	-0.339012
O9	O	1.345465	-0.575784	-0.339006
O10	O	1.214864	-0.273665	-0.438064
O11	O	1.115716	-0.445602	-0.208280
O12	O	0.985034	-0.445543	-0.338980
O13	O	1.115768	-0.575681	-0.568736
O14	O	0.985021	-0.575720	-0.438007
O15	O	1.214846	-0.445474	-0.568760
O16	O	1.214701	-0.747632	-0.338973
O17	O	1.115685	-0.747588	-0.438003
C18	C	0.955771	-0.510630	-0.388491
C19	C	0.866150	-0.510649	-0.388500
C20	C	0.537975	-0.510656	-0.388534
C21	C	0.629283	-0.510651	-0.388522
C22	C	0.702059	-0.510653	-0.388517
C23	C	0.793374	-0.510647	-0.388506
C24	C	1.165203	-0.786075	-0.388502
C25	C	1.165252	-0.903905	-0.388524
C26	C	1.103218	-1.071485	-0.451015
C27	C	1.102901	-0.948925	-0.450815
C28	C	1.142250	-0.948498	-0.303549
C29	C	1.141872	-1.071097	-0.303928
C30	C	1.250667	-1.070992	-0.410318
C31	C	1.250144	-0.948386	-0.412177
C32	C	1.375571	-0.510661	-0.388536
C33	C	1.465192	-0.510668	-0.388546
C34	C	1.165315	-0.510566	-0.598822
C35	C	1.165337	-0.510533	-0.688443
C36	C	1.165343	-0.234140	-0.388542
C37	C	1.165378	-0.116310	-0.388554
C38	C	1.165374	-0.510414	-1.016619
C39	C	1.165362	-0.510450	-0.925311
C40	C	1.165356	-0.510474	-0.852534
C41	C	1.165343	-0.510509	-0.761220
C42	C	1.165256	-0.510647	-0.179022
C43	C	1.165390	-0.510382	-0.089402
H44	H	1.117292	-0.918772	-0.513823
C45	C	1.273588	-0.908994	-0.496651
H46	H	1.231823	-0.865616	-0.517424
H47	H	1.281465	-0.967873	-0.531231
H48	H	1.321937	-0.869165	-0.493409
H49	H	1.117477	-1.100897	-0.514231
H50	H	1.040384	-1.102387	-0.436781
C51	C	1.316002	-0.907000	-0.355186
H52	H	1.292482	-0.861855	-0.316044
H53	H	1.354882	-0.868634	-0.385249
H54	H	1.341262	-0.964992	-0.329086
C55	C	1.057648	-1.109869	-0.279030
H56	H	1.056675	-1.184988	-0.279039
H57	H	1.018869	-1.083940	-0.316056
H58	H	1.045445	-1.084608	-0.226623
H59	H	1.185181	-1.100752	-0.255803
H60	H	1.296977	-1.099979	-0.364825
C61	C	1.058901	-0.907164	-0.278187
H62	H	1.045517	-0.934588	-0.226683
H63	H	1.019797	-0.929288	-0.316281
H64	H	1.059974	-0.832110	-0.275941
C65	C	1.201464	-0.909103	-0.238957
H66	H	1.240832	-0.864999	-0.263297
H67	H	1.227108	-0.967951	-0.214394
H68	H	1.172980	-0.870031	-0.199335
C69	C	1.017488	-0.909426	-0.431325
H70	H	0.982850	-0.968307	-0.423492
H71	H	0.998113	-0.867701	-0.474710
H72	H	1.018805	-0.867913	-0.383732
H73	H	1.271650	-1.101837	-0.471229
