data_functionalizedCrystal
_audit_creation_method	'MofGen! by Chris Wilmer'
_symmetry_space_group_name_H-M	'P1'
_symmetry_Int_Tables_number	1
_symmetry_cell_setting	triclinic
loop_
_symmetry_equiv_pos_as_xyz
  x,y,z
_cell_length_a	16.120530
_cell_length_b	11.169416
_cell_length_c	11.169409
_cell_angle_alpha	89.969126
_cell_angle_beta	92.920596
_cell_angle_gamma	92.893829
loop_
_atom_site_label
_atom_site_type_symbol
_atom_site_fract_x
_atom_site_fract_y
_atom_site_fract_z
Zn1	Zn	1.274670	0.570869	0.771606
Zn2	Zn	1.608003	0.904202	1.104939
Zn3	Zn	1.941337	1.237535	1.438273
Zn4	Zn	1.274593	0.771604	0.570923
Zn5	Zn	1.607926	1.104937	0.904256
Zn6	Zn	1.941260	1.438270	1.237589
Zn7	Zn	1.135242	0.560749	0.560762
Zn8	Zn	1.468576	0.894082	0.894096
Zn9	Zn	1.801909	1.227416	1.227429
Zn10	Zn	1.135248	0.761319	0.761395
Zn11	Zn	1.468581	1.094652	1.094728
Zn12	Zn	1.801914	1.427986	1.428062
O13	O	1.204938	0.666135	0.666172
O14	O	1.538272	0.999468	0.999505
O15	O	1.871605	1.332802	1.332838
O16	O	1.391327	0.606036	0.753510
O17	O	1.724661	0.939370	1.086844
O18	O	2.057994	1.272703	1.420177
O19	O	1.256074	0.743702	0.401622
O20	O	1.589407	1.077036	0.734956
O21	O	1.922740	1.410369	1.068289
O22	O	1.153768	0.394144	0.588752
O23	O	1.487101	0.727477	0.922086
O24	O	1.820434	1.060810	1.255419
O25	O	1.391271	0.753515	0.606069
O26	O	1.724604	1.086849	0.939402
O27	O	2.057937	1.420182	1.272736
O28	O	1.256205	0.401579	0.743658
O29	O	1.589538	0.734912	1.076992
O30	O	1.922871	1.068246	1.410325
O31	O	1.153693	0.588788	0.394158
O32	O	1.487027	0.922122	0.727491
O33	O	1.820360	1.255455	1.060824
O34	O	1.018576	0.578815	0.578851
O35	O	1.351909	0.912149	0.912185
O36	O	1.685242	1.245482	1.245518
O37	O	1.153777	0.735986	0.930702
O38	O	1.487110	1.069320	1.264035
O39	O	1.820443	1.402653	1.597369
O40	O	1.018580	0.726173	0.726255
O41	O	1.351913	1.059507	1.059589
O42	O	1.685246	1.392840	1.392922
O43	O	1.256210	0.596063	0.938204
O44	O	1.589543	0.929397	1.271537
O45	O	1.922876	1.262730	1.604871
O46	O	1.256079	0.938187	0.596168
O47	O	1.589412	1.271520	0.929501
O48	O	1.922745	1.604854	1.262835
O49	O	1.153702	0.930631	0.736107
O50	O	1.487035	1.263964	1.069441
O51	O	1.820369	1.597297	1.402774
C52	C	0.988327	0.650281	0.650343
C53	C	1.321660	0.983614	0.983677
C54	C	1.654994	1.316948	1.317010
C55	C	0.895660	0.643528	0.643601
C56	C	1.228993	0.976861	0.976934
C57	C	1.562326	1.310194	1.310267
C58	C	1.205002	0.666007	0.979219
C59	C	1.538336	0.999340	1.312552
C60	C	1.871669	1.332673	1.645885
C61	C	1.205030	0.665952	1.112621
C62	C	1.538363	0.999285	1.445954
C63	C	1.871696	1.332618	1.779288
C64	C	1.204905	0.977957	0.666160
C65	C	1.538239	1.311291	0.999493
C66	C	1.871572	1.644624	1.332827
C67	C	1.204967	1.111362	0.666201
C68	C	1.538301	1.444695	0.999534
C69	C	1.871634	1.778029	1.332867
C70	C	0.725996	0.631170	0.631300
C71	C	1.059329	0.964503	0.964634
C72	C	1.392662	1.297836	1.297967
C73	C	0.684722	0.701189	0.701130
C74	C	1.018055	1.034522	1.034464
C75	C	1.351388	1.367856	1.367797
C76	C	0.590315	0.694313	0.694286
C77	C	0.923648	1.027646	1.027620
C78	C	1.256981	1.360980	1.360953
C79	C	0.820411	0.638044	0.638143
C80	C	1.153744	0.971377	0.971476
C81	C	1.487078	1.304711	1.304809
C82	C	1.422395	0.682052	0.682062
C83	C	1.755729	1.015385	1.015395
C84	C	2.089062	1.348718	1.348729
C85	C	1.515063	0.688835	0.688834
C86	C	1.848396	1.022168	1.022167
C87	C	2.181729	1.355501	1.355500
C88	C	1.204994	0.353097	0.666211
C89	C	1.538328	0.686430	0.999544
C90	C	1.871661	1.019763	1.332878
C91	C	1.205018	0.219699	0.666228
C92	C	1.538351	0.553032	0.999561
C93	C	1.871685	0.886365	1.332895
C94	C	1.204923	0.666180	0.354346
C95	C	1.538256	0.999513	0.687679
C96	C	1.871589	1.332847	1.021012
C97	C	1.205057	0.665909	0.220956
C98	C	1.538390	0.999242	0.554289
C99	C	1.871723	1.332575	0.887623
H100	H	0.720288	0.766297	0.766056
H101	H	1.053621	1.099631	1.099389
H102	H	1.386954	1.432964	1.432722
C103	C	0.678429	0.544482	0.544765
C104	C	1.011763	0.877815	0.878098
C105	C	1.345096	1.211148	1.211431
C106	C	0.592892	0.554850	0.555070
C107	C	0.926226	0.888183	0.888404
C108	C	1.259559	1.221516	1.221737
C109	C	0.549038	0.475027	0.475361
C110	C	0.882372	0.808361	0.808695
C111	C	1.215705	1.141694	1.142028
H112	H	0.692559	0.464819	0.563383
H113	H	1.025892	0.798152	0.896716
H114	H	1.359226	1.131485	1.230050
H115	H	0.692566	0.562983	0.465075
H116	H	1.025899	0.896316	0.798408
H117	H	1.359233	1.229649	1.131742
H118	H	0.578761	0.536341	0.634742
H119	H	0.912095	0.869674	0.968076
H120	H	1.245428	1.203007	1.301409
H121	H	0.578738	0.634495	0.536442
H122	H	0.912071	0.967828	0.869775
H123	H	1.245404	1.301161	1.203108
H124	H	0.563175	0.493528	0.395671
H125	H	0.896508	0.826862	0.729005
H126	H	1.229841	1.160195	1.062338
H127	H	0.563175	0.395370	0.493986
H128	H	0.896508	0.728703	0.827320
H129	H	1.229841	1.062037	1.160653
H130	H	0.490997	0.482059	0.482335
H131	H	0.824330	0.815392	0.815668
H132	H	1.157664	1.148726	1.149002
