data_functionalizedCrystal
_audit_creation_method	'MofGen! by Chris Wilmer'
_symmetry_space_group_name_H-M	'P1'
_symmetry_Int_Tables_number	1
_symmetry_cell_setting	triclinic
loop_
_symmetry_equiv_pos_as_xyz
  x,y,z
_cell_length_a	11.026607
_cell_length_b	10.540539
_cell_length_c	10.065875
_cell_angle_alpha	98.880198
_cell_angle_beta	79.302338
_cell_angle_gamma	96.555754
loop_
_atom_site_label
_atom_site_type_symbol
_atom_site_fract_x
_atom_site_fract_y
_atom_site_fract_z
O1	O	1.632406	0.517971	-0.113482
O2	O	1.278575	0.457324	-0.113485
O3	O	1.463562	0.304709	-0.113482
O4	O	1.447418	0.670585	-0.113485
O5	O	1.428289	0.333960	0.113506
O6	O	1.243301	0.486575	0.113503
O7	O	1.597132	0.547222	0.113506
Zn8	Zn	1.414616	0.521543	0.149544
Zn9	Zn	1.461091	0.483003	-0.149523
O10	O	1.412145	0.699836	0.113503
C11	C	1.215630	0.460761	0.000009
C12	C	1.080627	0.427408	0.000007
C13	C	1.007620	0.519500	0.000005
C14	C	0.868087	0.485031	0.000004
C15	C	1.444715	0.271766	0.000010
C16	C	1.441094	0.130024	0.000002
C17	C	1.302369	-0.083873	-0.000508
C18	C	1.305961	0.063616	0.000003
C19	C	1.485983	0.099314	0.129624
C20	C	1.481354	-0.048226	0.129734
C21	C	1.524215	-0.081406	-0.128394
C22	C	1.525726	0.065627	-0.130108
C23	C	1.660077	0.543784	0.000010
C24	C	1.795082	0.577136	0.000002
C25	C	1.430992	0.732779	0.000008
C26	C	1.434615	0.874520	0.000007
N27	N	1.382908	0.547846	0.353649
N28	N	1.492809	0.456692	-0.353628
C29	C	1.450050	0.492145	0.421429
C30	C	1.425656	0.512401	0.578596
H31	H	1.269230	0.083037	-0.092915
H32	H	1.493044	0.083706	-0.225999
O33	O	1.282842	0.630887	0.430888
H34	H	1.279393	0.633775	0.542212
H35	H	0.835869	0.681507	0.000010
O36	O	0.814061	0.346782	0.000016
H37	H	0.888763	0.284567	0.000030
H38	H	1.039837	0.323041	-0.000027
O39	O	1.550114	0.409106	0.344178
H40	H	1.595580	0.371377	0.417736
H41	H	1.495746	-0.135199	-0.226639
H42	H	1.350104	0.575083	0.636915
O43	O	1.592874	0.373643	0.569132
H44	H	1.683651	0.414790	0.596460
O45	O	1.061639	0.657747	0.000005
H46	H	1.162758	0.663125	-0.000002
H47	H	1.234841	-0.113813	0.091924
O48	O	1.250763	-0.153130	-0.123613
H49	H	1.318813	-0.217953	-0.185747
O50	O	1.218574	0.119886	0.123301
H51	H	1.173588	0.041740	0.182802
H52	H	1.418236	-0.074467	0.226628
H53	H	1.577626	-0.074149	0.135615
H54	H	1.584472	0.144027	0.134445
H55	H	1.425819	0.144449	0.226084
O56	O	1.657848	0.124943	-0.140486
H57	H	1.665291	0.201584	-0.052673
H58	H	1.621956	-0.107365	-0.129265
