data_functionalizedCrystal
_audit_creation_method	'MofGen! by Chris Wilmer'
_symmetry_space_group_name_H-M	'P1'
_symmetry_Int_Tables_number	1
_symmetry_cell_setting	triclinic
loop_
_symmetry_equiv_pos_as_xyz
  x,y,z
_cell_length_a	12.784890
_cell_length_b	23.532357
_cell_length_c	11.892095
_cell_angle_alpha	93.858312
_cell_angle_beta	86.513306
_cell_angle_gamma	77.967425
loop_
_atom_site_label
_atom_site_type_symbol
_atom_site_fract_x
_atom_site_fract_y
_atom_site_fract_z
O1	O	1.417116	-0.000413	-0.093968
O2	O	1.107396	0.023990	-0.093983
O3	O	1.271622	-0.071580	-0.093952
O4	O	1.252891	0.095157	-0.093999
O5	O	1.257929	-0.063623	0.094053
O6	O	1.093703	0.031947	0.094022
O7	O	1.403424	0.007544	0.094037
Zn8	Zn	1.246389	0.021009	0.123879
Zn9	Zn	1.264430	0.010525	-0.123825
O10	O	1.239198	0.103114	0.094006
C11	C	1.060933	0.029556	0.000018
C12	C	0.942888	0.034279	0.000014
C13	C	0.763268	0.093466	-0.000005
C14	C	0.874181	0.089032	-0.000004
C15	C	0.900675	-0.016045	0.000026
C16	C	0.789761	-0.011612	0.000025
C17	C	0.721061	0.043146	0.000011
C18	C	0.610146	0.047579	0.000018
C19	C	0.636642	-0.057498	0.000039
C20	C	0.747555	-0.061932	0.000040
C21	C	1.264307	-0.088796	0.000054
C22	C	1.262897	-0.151948	0.000065
C23	C	1.261520	-0.547889	-0.102478
C24	C	1.260181	-0.607226	-0.102485
O25	O	1.265801	-0.641597	-0.189641
N26	N	1.252054	-0.632569	-0.000005
C27	C	1.245253	-0.598570	0.102488
O28	O	1.238216	-0.625574	0.189655
C29	C	1.246584	-0.539232	0.102494
C30	C	1.254724	-0.513894	0.000007
C31	C	1.269658	-0.522550	-0.204957
C32	C	1.270998	-0.463217	-0.204950
C33	C	1.264202	-0.429222	-0.102464
C34	C	1.256064	-0.454561	0.000014
C35	C	1.239777	-0.505233	0.204986
C36	C	1.241108	-0.445892	0.204982
C37	C	1.249247	-0.420554	0.102496
C38	C	1.250608	-0.361234	0.102506
N39	N	1.258736	-0.335891	0.000026
C40	C	1.265533	-0.369885	-0.102459
C41	C	1.242456	-0.723182	0.102469
C42	C	1.241132	-0.782519	0.102465
C43	C	1.256059	-0.791171	-0.102508
C44	C	1.257390	-0.731834	-0.102503
C45	C	1.250584	-0.697839	-0.000011
C46	C	1.268349	-0.245281	-0.102437
C47	C	1.269694	-0.185943	-0.102421
C48	C	1.254762	-0.177295	0.102552
C49	C	1.253423	-0.236629	0.102537
C50	C	1.260213	-0.270620	0.000033
O51	O	1.244989	-0.326826	0.189618
O52	O	1.272555	-0.342871	-0.189611
C53	C	1.449887	0.001978	0.000033
C54	C	1.567933	-0.002745	0.000030
C55	C	1.246513	0.120330	-0.000003
C56	C	1.247923	0.183482	-0.000021
N57	N	1.234085	0.028163	0.292931
N58	N	1.276743	0.003366	-0.292877
C59	C	1.362364	-0.046450	0.529603
C60	C	1.353771	-0.041445	0.647943
C61	C	1.208301	0.043174	0.647954
C62	C	1.216894	0.038170	0.529614
C63	C	1.293929	-0.006643	0.470442
C64	C	1.302527	-0.011645	0.352100
C65	C	1.157053	0.072971	0.352113
C66	C	1.148459	0.077976	0.470453
H67	H	0.602273	-0.098476	-0.000038
H68	H	1.101331	0.105386	0.303931
C69	C	1.429047	-0.085230	0.713022
H70	H	1.412893	-0.075836	0.791976
H71	H	1.501362	-0.083360	0.693612
H72	H	1.419310	-0.123512	0.693638
H73	H	1.246805	-0.257261	0.185990
H74	H	1.085736	0.114461	0.518644
C75	C	0.534578	0.107808	-0.000007
H76	H	0.575606	0.137141	-0.000030
H77	H	0.485982	0.114502	0.065550
H78	H	0.495540	0.108943	-0.065581
H79	H	1.145574	0.079656	0.696146
C80	C	1.387264	-0.060932	0.287007
H81	H	1.382592	-0.058209	0.208054
H82	H	1.374726	-0.097575	0.306409
H83	H	1.456762	-0.057413	0.306392
C84	C	1.447100	-0.095738	0.464511
H85	H	1.486626	-0.118731	0.516695
H86	H	1.494492	-0.079371	0.418331
H87	H	1.412450	-0.119530	0.418363
H88	H	0.908540	0.130008	-0.000014
H89	H	0.707330	0.138052	-0.000002
H90	H	0.956629	-0.060626	0.000028
C91	C	1.278641	-0.158073	-0.215160
H92	H	1.282484	-0.186819	-0.276195
H93	H	1.341496	-0.142525	-0.219422
H94	H	1.217440	-0.127687	-0.219422
H95	H	0.803505	-0.106514	0.000048
C96	C	1.230812	-0.533091	0.317723
H97	H	1.226941	-0.504338	0.378750
H98	H	1.291999	-0.563477	0.322008
H99	H	1.167945	-0.548636	0.321975
H100	H	1.273874	-0.272950	-0.185905
C101	C	1.279946	-0.435349	-0.317683
H102	H	1.279778	-0.395141	-0.303017
H103	H	1.220771	-0.439437	-0.359796
H104	H	1.344826	-0.454274	-0.359783
C105	C	1.277146	-0.559936	-0.317701
H106	H	1.282191	-0.536340	-0.378722
H107	H	1.214920	-0.575852	-0.321989
H108	H	1.338974	-0.590677	-0.321959
H109	H	1.264016	-0.711207	-0.185957
C110	C	1.233622	-0.408499	0.317724
H111	H	1.235575	-0.369529	0.303058
H112	H	1.292355	-0.423865	0.359841
H113	H	1.168301	-0.409028	0.359819
C114	C	1.263523	-0.828571	-0.215242
H115	H	1.261551	-0.867536	-0.200559
H116	H	1.328829	-0.828047	-0.257357
H117	H	1.204773	-0.813207	-0.257347
C118	C	1.232189	-0.810386	0.215200
H119	H	1.228326	-0.781636	0.276232
H120	H	1.293377	-0.840773	0.219471
H121	H	1.169322	-0.825930	0.219457
H122	H	1.249233	-0.149607	0.185993
C123	C	1.234989	-0.685795	0.215218
H124	H	1.229968	-0.709392	0.276243
H125	H	1.173177	-0.655049	0.219491
H126	H	1.297233	-0.669888	0.219485
