data_functionalizedCrystal
_audit_creation_method	'MofGen! by Chris Wilmer'
_symmetry_space_group_name_H-M	'P1'
_symmetry_Int_Tables_number	1
_symmetry_cell_setting	triclinic
loop_
_symmetry_equiv_pos_as_xyz
  x,y,z
_cell_length_a	12.645331
_cell_length_b	12.759400
_cell_length_c	12.759393
_cell_angle_alpha	90.031564
_cell_angle_beta	89.978122
_cell_angle_gamma	89.986337
loop_
_atom_site_label
_atom_site_type_symbol
_atom_site_fract_x
_atom_site_fract_y
_atom_site_fract_z
Zn1	Zn	1.620745	0.418233	-0.594076
Zn2	Zn	2.120745	0.918233	-0.094076
Zn3	Zn	1.620639	0.593952	-0.418396
Zn4	Zn	2.120639	1.093952	0.081604
Zn5	Zn	1.443462	0.418284	-0.418405
Zn6	Zn	1.943462	0.918284	0.081595
Zn7	Zn	1.443451	0.593867	-0.594027
Zn8	Zn	1.943451	1.093867	-0.094027
O9	O	1.532074	0.506084	-0.506226
O10	O	2.032074	1.006084	-0.006226
O11	O	1.769078	0.441556	-0.570789
O12	O	2.269078	0.941556	-0.070789
O13	O	1.597096	0.570706	-0.271376
O14	O	2.097096	1.070706	0.228624
O15	O	1.467028	0.271256	-0.441732
O16	O	1.967028	0.771256	0.058268
O17	O	1.769000	0.570656	-0.441717
O18	O	2.269000	1.070656	0.058283
O19	O	1.597277	0.271219	-0.570797
O20	O	2.097277	0.771219	-0.070797
O21	O	1.466925	0.441644	-0.271383
O22	O	1.966925	0.941644	0.228617
O23	O	1.295113	0.441562	-0.441685
O24	O	1.795113	0.941562	0.058315
O25	O	1.467009	0.570512	-0.741055
O26	O	1.967009	1.070512	-0.241055
O27	O	1.295105	0.570562	-0.570714
O28	O	1.795105	1.070562	-0.070714
O29	O	1.597266	0.441474	-0.741091
O30	O	2.097266	0.941474	-0.241091
O31	O	1.597085	0.740962	-0.441670
O32	O	2.097085	1.240962	0.058330
O33	O	1.466906	0.740900	-0.570705
O34	O	1.966906	1.240900	-0.070705
C35	C	1.256644	0.506059	-0.506196
C36	C	1.756644	1.006059	-0.006196
C37	C	1.138814	0.506074	-0.506208
C38	C	1.638814	1.006074	-0.006208
C39	C	1.532011	0.779051	-0.506204
C40	C	2.032011	1.279051	-0.006204
C41	C	1.532081	0.895828	-0.506230
C42	C	2.032081	1.395828	-0.006230
C43	C	1.532148	0.505978	-0.780260
C44	C	2.032148	1.005978	-0.280260
C45	C	1.532180	0.505933	-0.897036
C46	C	2.032180	1.005933	-0.397036
C47	C	0.971220	0.424546	-0.425484
C48	C	1.471220	0.924546	0.074516
C49	C	1.093780	0.424757	-0.425128
C50	C	1.593780	0.924757	0.074872
C51	C	1.094300	0.616752	-0.475963
C52	C	1.594300	1.116752	0.024037
C53	C	0.971702	0.616307	-0.475412
C54	C	1.471702	1.116307	0.024588
C55	C	0.971662	0.477976	-0.617489
C56	C	1.471662	0.977976	-0.117489
C57	C	1.094268	0.475504	-0.616871
C58	C	1.594268	0.975504	-0.116871
C59	C	1.808579	0.506110	-0.506257
C60	C	2.308579	1.006110	-0.006257
C61	C	1.926409	0.506121	-0.506271
C62	C	2.426409	1.006121	-0.006271
C63	C	1.532166	0.232051	-0.506271
C64	C	2.032166	0.732051	-0.006271
C65	C	1.532205	0.115274	-0.506290
C66	C	2.032205	0.615274	-0.006290
C67	C	1.599941	0.950687	-0.439116
C68	C	2.099941	1.450687	0.060884
C69	C	1.600006	1.060412	-0.439148
C70	C	2.100006	1.560412	0.060852
C71	C	1.464343	1.060407	-0.573412
C72	C	1.964343	1.560407	-0.073412
C73	C	1.464284	0.950685	-0.573384
C74	C	1.964284	1.450685	-0.073384
C75	C	1.667738	0.895831	-0.371961
C76	C	2.167738	1.395831	0.128039
C77	C	1.735602	0.950690	-0.304841
C78	C	2.235602	1.450690	0.195159
C79	C	1.735667	1.060414	-0.304873
C80	C	2.235667	1.560414	0.195127
C81	C	1.667868	1.115279	-0.372026
C82	C	2.167868	1.615279	0.127974
C83	C	1.600014	0.438737	-0.951919
C84	C	2.100014	0.938737	-0.451919
C85	C	1.600040	0.438699	-1.061643
C86	C	2.100040	0.938699	-0.561643
C87	C	1.464393	0.573062	-1.061593
C88	C	1.964393	1.073062	-0.561593
C89	C	1.464363	0.573094	-0.951871
C90	C	1.964363	1.073094	-0.451871
C91	C	1.667831	0.371575	-0.897085
C92	C	2.167831	0.871575	-0.397085
C93	C	1.735672	0.304374	-0.951967
C94	C	2.235672	0.804374	-0.451967
C95	C	1.735697	0.304336	-1.061691
C96	C	2.235697	0.804336	-0.561691
C97	C	1.667881	0.371499	-1.116533
C98	C	2.167881	0.871499	-0.616533
C99	C	1.532061	0.506114	-0.233259
C100	C	2.032061	1.006114	0.266741
C101	C	1.532235	0.505863	-0.116483
C102	C	2.032235	1.005863	0.383517
H103	H	1.123876	0.342685	-0.444085
H104	H	1.623876	0.842685	0.055915
H105	H	1.790878	0.249686	-0.907308
H106	H	2.290878	0.749686	-0.407308
O107	O	1.667810	0.371628	-0.778740
O108	O	2.167810	0.871628	-0.278740
H109	H	1.587853	0.350402	-0.749795
H110	H	2.087853	0.850402	-0.249795
H111	H	1.667935	1.204623	-0.372055
H112	H	2.167935	1.704623	0.127945
H113	H	1.123060	0.443360	-0.342711
H114	H	1.623060	0.943360	0.157289
H115	H	1.790928	0.249610	-1.106374
H116	H	2.290928	0.749610	-0.606374
O117	O	1.391255	0.645503	-1.120736
O118	O	1.891255	1.145503	-0.620736
H119	H	1.402678	0.634197	-1.206253
H120	H	1.902678	1.134197	-0.706253
H121	H	1.667895	0.371451	-1.205878
H122	H	2.167895	0.871451	-0.705878
H123	H	1.409110	0.627795	-0.907184
H124	H	1.909110	1.127795	-0.407184
H125	H	0.940374	0.442943	-0.343551
H126	H	1.440374	0.942943	0.156449
O127	O	1.667655	0.777486	-0.371933
O128	O	2.167655	1.277486	0.128067
H129	H	1.747580	0.748461	-0.393233
H130	H	2.247580	1.248461	0.106767
H131	H	1.124927	0.530584	-0.680282
H132	H	1.624927	1.030584	-0.180282
H133	H	0.941751	0.342228	-0.444238
H134	H	1.441751	0.842228	0.055762
H135	H	0.943059	0.640173	-0.394106
H136	H	1.443059	1.140173	0.105894
H137	H	0.942060	0.679144	-0.531688
H138	H	1.442060	1.179144	-0.031688
H139	H	1.409143	1.105086	-0.628084
H140	H	1.909143	1.605086	-0.128084
H141	H	1.123472	0.679156	-0.532957
H142	H	1.623472	1.179156	-0.032957
H143	H	1.790933	1.105078	-0.250228
H144	H	2.290933	1.605078	0.249772
O145	O	1.391082	0.891509	-0.645762
O146	O	1.891082	1.391509	-0.145762
H147	H	1.409222	0.912492	-0.728242
H148	H	1.909222	1.412492	-0.228242
O149	O	1.134891	0.648916	-0.369415
O150	O	1.634891	1.148916	0.130585
H151	H	1.186754	0.586259	-0.337830
H152	H	1.686754	1.086259	0.162170
H153	H	0.940761	0.398678	-0.644994
H154	H	1.440761	0.898678	-0.144994
H155	H	1.123367	0.394057	-0.639677
H156	H	1.623367	0.894057	-0.139677
H157	H	0.942685	0.537391	-0.677682
H158	H	1.442685	1.037391	-0.177682
O159	O	1.808746	0.891525	-0.232432
O160	O	2.308746	1.391525	0.267568
H161	H	1.797302	0.806011	-0.243682
H162	H	2.297302	1.306011	0.256318
