data_functionalizedCrystal
_audit_creation_method	'MofGen! by Chris Wilmer'
_symmetry_space_group_name_H-M	'P1'
_symmetry_Int_Tables_number	1
_symmetry_cell_setting	triclinic
loop_
_symmetry_equiv_pos_as_xyz
  x,y,z
_cell_length_a	26.374263
_cell_length_b	26.373608
_cell_length_c	26.370205
_cell_angle_alpha	60.005297
_cell_angle_beta	60.010839
_cell_angle_gamma	59.993700
loop_
_atom_site_label
_atom_site_type_symbol
_atom_site_fract_x
_atom_site_fract_y
_atom_site_fract_z
O1	O	0.070152	-0.740800	0.619517
O2	O	0.026377	-0.576764	0.499159
O3	O	0.130245	-0.680560	0.499088
O4	O	-0.033715	-0.637003	0.619589
O5	O	0.164701	-0.646107	0.533470
O6	O	0.060833	-0.542310	0.533541
O7	O	0.104608	-0.706346	0.653899
Cu8	Cu	0.085867	-0.621182	0.596859
Cu9	Cu	0.045119	-0.661927	0.556199
O10	O	0.000741	-0.602549	0.653971
N11	N	0.114528	-0.592529	0.625461
N12	N	0.016463	-0.690587	0.527598
C13	C	0.181428	-0.355400	0.692330
C14	C	0.181530	-0.525690	0.862573
C15	C	0.181440	-0.525667	0.692313
C16	C	0.351736	-0.525673	0.692271
C17	C	0.200174	-0.411588	0.711047
C18	C	0.200232	-0.506954	0.806384
C19	C	0.295546	-0.506943	0.711016
C20	C	0.200182	-0.506940	0.711037
C21	C	0.157567	-0.283881	0.668507
C22	C	0.157587	-0.549500	0.668479
C23	C	0.224035	-0.483107	0.734871
C24	C	0.455739	-0.507754	0.637520
C25	C	0.520749	-0.529425	0.615835
C26	C	0.520768	-0.634611	0.655947
C27	C	0.455759	-0.612939	0.677633
C28	C	0.173240	-0.251367	0.604595
C29	C	0.151546	-0.186351	0.582941
C30	C	0.098512	-0.186369	0.689113
C31	C	0.120206	-0.251385	0.710768
C32	C	0.093669	-0.533798	0.684205
C33	C	0.071992	-0.555464	0.662532
C34	C	0.178144	-0.608536	0.609422
C35	C	0.199825	-0.586869	0.631088
C36	C	0.093821	-0.533842	0.966616
C37	C	0.072187	-0.555526	1.031630
C38	C	0.178370	-0.608608	1.031591
C39	C	0.200004	-0.586926	0.966576
C40	C	0.157728	-0.549541	0.934090
C41	C	0.423247	-0.549509	0.668416
C42	C	-0.097522	-0.709158	0.508557
C43	C	-0.002050	-0.709295	0.413344
C44	C	-0.002241	-0.804604	0.508735
C45	C	-0.002225	-0.709288	0.508793
C46	C	-0.026009	-0.733087	0.484858
N47	N	0.552340	-0.592538	0.625346
O48	O	0.750867	-0.598274	0.477076
O49	O	0.751048	-0.718989	0.640960
O50	O	0.750981	-0.718715	0.537020
O51	O	0.750934	-0.598547	0.581017
O52	O	0.647701	-0.684348	0.571512
O53	O	0.647768	-0.684622	0.675452
O54	O	0.647587	-0.563907	0.511569
Cu55	Cu	0.638247	-0.621127	0.596660
Cu56	Cu	0.760388	-0.661769	0.555869
O57	O	0.647654	-0.564181	0.615509
N58	N	0.846295	-0.690358	0.527176
N59	N	0.114503	-0.154778	0.625499
O60	O	-0.033701	0.043855	0.619632
O61	O	0.130190	0.043858	0.498933
O62	O	0.026233	0.043841	0.499224
O63	O	0.070257	0.043872	0.619341
O64	O	0.060690	-0.059448	0.533654
O65	O	0.164647	-0.059431	0.533363
O66	O	0.000756	-0.059434	0.654062
Cu67	Cu	0.085848	-0.068863	0.596857
Cu68	Cu	0.045099	0.053287	0.556138
O69	O	0.104714	-0.059417	0.653771
N70	N	0.016435	0.139202	0.527497
N71	N	0.114760	-0.592585	1.063190
O72	O	0.108896	-0.740779	1.261808
O73	O	-0.011787	-0.576838	1.261822
O74	O	-0.011509	-0.680779	1.261780
O75	O	0.108618	-0.636838	1.261850
O76	O	0.022916	-0.646341	1.158496
O77	O	0.022638	-0.542399	1.158538
O78	O	0.143321	-0.706341	1.158524
Cu79	Cu	0.086123	-0.621225	1.149100
Cu80	Cu	0.045411	-0.661953	1.271246
O81	O	0.143044	-0.602399	1.158566
N82	N	0.016774	-0.690600	1.357156
C83	C	0.039504	-0.538867	0.499769
C84	C	0.168130	-0.667407	0.499680
C85	C	0.091482	-0.744243	0.653289
C86	C	-0.037145	-0.615703	0.653378
C87	C	0.699429	-0.718429	0.678853
C88	C	0.699348	-0.718091	0.550135
C89	C	0.699202	-0.564465	0.473677
C90	C	0.699287	-0.564805	0.602393
C91	C	0.168023	-0.007659	0.499484
C92	C	0.039327	-0.007807	0.499887
C93	C	-0.037119	-0.007789	0.653468
C94	C	0.091620	-0.007770	0.653109
C95	C	-0.011194	-0.538964	1.210181
C96	C	-0.010843	-0.667676	1.210109
C97	C	0.142729	-0.744214	1.210165
C98	C	0.142386	-0.615494	1.210214
H99	H	0.059391	-0.503396	0.940172
H100	H	0.214995	-0.007372	0.461496
H101	H	0.699142	-0.526565	0.426612
O102	O	0.224306	-0.678581	0.454553
C103	C	0.299062	-0.741379	0.389017
C104	C	0.235439	-0.728801	0.440134
H105	H	0.308077	-0.781973	0.377334
H106	H	0.336999	-0.753215	0.406115
H107	H	0.299191	-0.698221	0.345725
H108	H	0.235248	-0.771937	0.483444
H109	H	0.197530	-0.716938	0.422986
O110	O	0.062297	-0.154870	0.730226
C111	C	0.054058	-0.134967	0.814305
C112	C	0.095131	-0.170685	0.767787
H113	H	0.080592	-0.147730	0.844676
H114	H	0.009961	-0.147771	0.844802
H115	H	0.041225	-0.082916	0.787839
H116	H	0.108011	-0.222744	0.794202
H117	H	0.139198	-0.157829	0.737290
H118	H	0.180125	-0.606093	1.210228
H119	H	-0.084187	-0.007791	0.691362
O120	O	0.028001	-0.007862	0.454950
C121	C	-0.045796	-0.007882	0.426563
C122	C	-0.033052	-0.007822	0.477509
H123	H	-0.095161	-0.007836	0.444778
H124	H	-0.011449	-0.051129	0.413012
H125	H	-0.040222	0.035323	0.384159
H126	H	-0.038634	-0.050998	0.519946
H127	H	-0.067397	0.035454	0.491007
H128	H	0.101045	-0.007760	0.690842
H129	H	-0.049082	-0.491880	1.210184
H130	H	0.699278	-0.527058	0.611808
H131	H	-0.048566	-0.677061	1.210046
H132	H	0.699366	-0.755841	0.540718
H133	H	0.180620	-0.791296	1.210154
O134	O	-0.093352	-0.604696	0.698507
C135	C	-0.184547	-0.634828	0.766415
C136	C	-0.120913	-0.647351	0.715299
H137	H	-0.206843	-0.669315	0.780016
H138	H	-0.215854	-0.585517	0.748357
H139	H	-0.178033	-0.640405	0.808748
H140	H	-0.127369	-0.641808	0.672949
H141	H	-0.089628	-0.696657	0.733407
H142	H	0.547237	-0.686258	0.663446
O143	O	0.028466	-0.482681	0.454609
C144	C	0.069195	-0.418850	0.349922
C145	C	0.081783	-0.482502	0.401014
H146	H	0.112288	-0.418689	0.306574
H147	H	0.057425	-0.380944	0.367026
H148	H	0.028530	-0.409806	0.338330
H149	H	0.122456	-0.491605	0.412630
H150	H	0.093517	-0.520373	0.383883
O151	O	0.105108	-0.283019	0.772841
C152	C	0.142554	-0.356348	0.858888
C153	C	0.159730	-0.320582	0.788575
H154	H	0.186705	-0.386716	0.871633
H155	H	0.116118	-0.386847	0.871761
H156	H	0.112113	-0.321920	0.885334
H157	H	0.190191	-0.354965	0.762081
H158	H	0.186134	-0.290073	0.775751
H159	H	0.212798	-0.639038	1.058038
O160	O	0.010091	-0.540290	1.063152
C161	C	-0.087280	-0.545261	1.083092
C162	C	-0.016967	-0.562539	1.047345
H163	H	-0.109175	-0.563253	1.070336
H164	H	-0.109239	-0.492617	1.070310
H165	H	-0.095470	-0.567160	1.135136
H166	H	-0.008721	-0.540681	0.995293
H167	H	0.004957	-0.615188	1.060179
O168	O	0.262107	-0.602212	0.935077
C169	C	0.365142	-0.657176	0.941904
C170	C	0.294829	-0.639901	0.977651
H171	H	0.391618	-0.687661	0.976309
H172	H	0.377955	-0.613076	0.911488
H173	H	0.377904	-0.683614	0.911444
H174	H	0.282016	-0.613478	1.008144
H175	H	0.282053	-0.684023	1.008028
H176	H	0.019945	-0.542665	0.675322
O177	O	0.052614	-0.497405	0.720428
C178	C	-0.031531	-0.401731	0.728772
C179	C	0.014941	-0.442879	0.687678
H180	H	-0.062011	-0.357644	0.702314
H181	H	-0.005092	-0.388889	0.741550
H182	H	-0.061924	-0.428226	0.772898
H183	H	0.045346	-0.416423	0.643525
H184	H	-0.011536	-0.455724	0.674950
O185	O	0.219262	-0.644812	0.573087
C186	C	0.326842	-0.695201	0.522730
C187	C	0.280349	-0.654105	0.563872
H188	H	0.376241	-0.702738	0.515277
H189	H	0.319373	-0.671381	0.475947
H190	H	0.319327	-0.741951	0.546546
H191	H	0.287836	-0.607349	0.540110
H192	H	0.287829	-0.677973	0.610653
O193	O	0.209466	-0.283000	0.563602
C194	C	0.221017	-0.356366	0.526423
C195	C	0.179938	-0.320589	0.572889
H196	H	0.197154	-0.386755	0.533907
H197	H	0.267791	-0.386844	0.533899
H198	H	0.228502	-0.321945	0.477028
H199	H	0.172404	-0.354965	0.622302
H200	H	0.133190	-0.290101	0.565359
O201	O	0.261895	-0.602041	0.615852
C202	C	0.342341	-0.592216	0.625730
C203	C	0.272033	-0.574973	0.643018
H204	H	0.350560	-0.570350	0.647696
H205	H	0.364256	-0.574243	0.573091
H206	H	0.364260	-0.644864	0.643639
H207	H	0.250060	-0.522331	0.625150
H208	H	0.250163	-0.592989	0.695659
O209	O	0.424231	-0.653517	0.707543
C210	C	0.404385	-0.729973	0.701754
C211	C	0.440114	-0.684027	0.667806
H212	H	0.417223	-0.754662	0.669647
H213	H	0.352326	-0.703625	0.715656
H214	H	0.417188	-0.765680	0.745116
H215	H	0.427363	-0.648309	0.624423
H216	H	0.492165	-0.710417	0.653951
O217	O	0.552221	-0.488776	0.585807
C218	C	0.545348	-0.382163	0.548332
C219	C	0.509629	-0.428127	0.582340
H220	H	0.510928	-0.333120	0.545530
H221	H	0.575745	-0.384106	0.499432
H222	H	0.575822	-0.395249	0.574899
H223	H	0.479121	-0.415073	0.555825
H224	H	0.479271	-0.426177	0.631243
H225	H	0.429268	-0.456103	0.630015
H226	H	0.164306	-0.159876	0.530897
H227	H	0.100832	-0.791364	0.691090
H228	H	0.699474	-0.756325	0.725922
