data_functionalizedCrystal
_audit_creation_method	'MofGen! by Chris Wilmer'
_symmetry_space_group_name_H-M	'P1'
_symmetry_Int_Tables_number	1
_symmetry_cell_setting	triclinic
loop_
_symmetry_equiv_pos_as_xyz
  x,y,z
_cell_length_a	22.610064
_cell_length_b	23.532407
_cell_length_c	23.532357
_cell_angle_alpha	97.161515
_cell_angle_beta	90.001483
_cell_angle_gamma	89.997161
loop_
_atom_site_label
_atom_site_type_symbol
_atom_site_fract_x
_atom_site_fract_y
_atom_site_fract_z
O1	O	0.049118	-0.755251	0.069129
O2	O	0.049136	-0.589386	0.079132
O3	O	0.049114	-0.677335	-0.008803
O4	O	0.049140	-0.667302	0.157064
O5	O	-0.049255	-0.677319	-0.008790
O6	O	-0.049233	-0.589370	0.079145
O7	O	-0.049251	-0.755236	0.069142
Zn8	Zn	-0.064860	-0.672301	0.074145
Zn9	Zn	0.064745	-0.672321	0.074128
O10	O	-0.049229	-0.667286	0.157077
C11	C	-0.000046	-0.568162	0.078884
C12	C	-0.000040	-0.504945	0.078118
N13	N	-0.153313	-0.672291	0.074157
C14	C	-0.000072	-0.677076	-0.030013
C15	C	-0.000078	-0.676322	-0.093232
C16	C	-0.561964	-0.711267	0.035197
C17	C	-0.623884	-0.711269	0.035192
O18	O	-0.655911	-0.744384	0.002076
N19	N	-0.654850	-0.672321	0.074117
C20	C	-0.623893	-0.633362	0.113044
O21	O	-0.655918	-0.600233	0.146151
C22	C	-0.561974	-0.633357	0.113045
C23	C	-0.531011	-0.672312	0.074122
C24	C	-0.531001	-0.750218	-0.003724
C25	C	-0.469085	-0.750216	-0.003719
C26	C	-0.438133	-0.711262	0.035207
C27	C	-0.469096	-0.672310	0.074127
C28	C	-0.531018	-0.594397	0.151969
C29	C	-0.469095	-0.594395	0.151966
C30	C	-0.438133	-0.633350	0.113043
C31	C	-0.376227	-0.633354	0.113057
N32	N	-0.345261	-0.672303	0.074133
C33	C	-0.376214	-0.711257	0.035208
C34	C	-0.753927	-0.633376	0.113038
C35	C	-0.815844	-0.633383	0.113040
C36	C	-0.815831	-0.711290	0.035188
C37	C	-0.753912	-0.711284	0.035189
C38	C	-0.722961	-0.672324	0.074114
C39	C	-0.246187	-0.711249	0.035221
C40	C	-0.184265	-0.711245	0.035231
C41	C	-0.184284	-0.633337	0.113081
C42	C	-0.246200	-0.633342	0.113073
C43	C	-0.277150	-0.672301	0.074139
O44	O	-0.344161	-0.600255	0.146155
O45	O	-0.344182	-0.744375	0.002101
N46	N	0.153198	-0.672335	0.074113
C47	C	-0.000068	-0.776459	0.069390
C48	C	-0.000070	-0.839676	0.070156
C49	C	-0.000059	-0.105834	0.125353
C50	C	-0.000063	-0.046434	0.124641
O51	O	-0.000078	-0.009681	0.168428
N52	N	-0.000070	-0.023817	0.072364
C53	C	-0.000079	-0.060604	0.020794
O54	O	-0.000086	-0.035912	-0.023737
C55	C	-0.000080	-0.120003	0.021506
C56	C	-0.000067	-0.142616	0.073787
C57	C	-0.000047	-0.128448	0.177629
C58	C	-0.000042	-0.187844	0.178341
C59	C	-0.000050	-0.224626	0.126775
C60	C	-0.000062	-0.202012	0.074498
C61	C	-0.000093	-0.156788	-0.030063
C62	C	-0.000094	-0.216191	-0.029346
C63	C	-0.000081	-0.238804	0.022935
C64	C	-0.000065	-0.298190	0.023644
N65	N	-0.000058	-0.320807	0.075922
C66	C	-0.000050	-0.284025	0.127487
C67	C	-0.000079	0.064139	0.019303
C68	C	-0.000075	0.123536	0.018590
C69	C	-0.000059	0.137702	0.122437
C70	C	-0.000060	0.078303	0.123149
C71	C	-0.000072	0.041522	0.071580
C72	C	-0.000040	-0.408761	0.128977
C73	C	-0.000032	-0.468163	0.129684
C74	C	-0.000051	-0.482324	0.025837
C75	C	-0.000055	-0.422927	0.025130
C76	C	-0.000051	-0.386147	0.076704
O77	O	-0.000052	-0.334977	-0.020120
O78	O	-0.000051	-0.308725	0.172011
C79	C	0.053576	-0.671594	-0.485250
C80	C	0.053579	-0.670876	-0.544650
O81	O	0.099182	-0.670493	-0.575372
N82	N	-0.000041	-0.670512	-0.574354
C83	C	-0.053668	-0.670859	-0.544655
O84	O	-0.099276	-0.670483	-0.575375
C85	C	-0.053671	-0.671573	-0.485256
C86	C	-0.000047	-0.671943	-0.455556
C87	C	0.107195	-0.671963	-0.455550
C88	C	0.107192	-0.672681	-0.396155
C89	C	0.053569	-0.673030	-0.366460
C90	C	-0.000051	-0.672661	-0.396160
C91	C	-0.107298	-0.671916	-0.455557
C92	C	-0.107296	-0.672629	-0.396154
C93	C	-0.053672	-0.672998	-0.366454
C94	C	-0.053678	-0.673728	-0.307070
N95	N	-0.000057	-0.674092	-0.277366
C96	C	0.053566	-0.673743	-0.307061
C97	C	-0.053658	-0.669361	-0.669396
C98	C	-0.053656	-0.668652	-0.728795
C99	C	0.053592	-0.668668	-0.728785
C100	C	0.053589	-0.669381	-0.669387
C101	C	-0.000038	-0.669725	-0.639692
C102	C	0.053554	-0.675252	-0.182327
C103	C	0.053545	-0.675973	-0.122927
C104	C	-0.053702	-0.675954	-0.122941
C105	C	-0.053694	-0.675236	-0.182336
C106	C	-0.000061	-0.674883	-0.212027
O107	O	-0.099257	-0.674109	-0.276310
O108	O	0.099166	-0.674112	-0.276333
C109	C	-0.000042	-0.667545	0.178287
C110	C	-0.000032	-0.668300	0.241506
H111	H	-0.159057	-0.742969	0.003536
C112	C	0.112579	-0.668278	-0.761460
N113	N	0.157005	-0.667983	-0.786073
C114	C	-0.000057	0.178174	0.179161
N115	N	-0.000056	0.208659	0.221882
H116	H	-0.000105	-0.138388	-0.072635
C117	C	-0.000032	-0.368311	0.185712
N118	N	-0.000023	-0.337844	0.228445
C119	C	0.112579	-0.669782	-0.636721
N120	N	0.157012	-0.670083	-0.612120
H121	H	-0.097359	-0.674940	-0.206520
C122	C	-0.849897	-0.590533	0.155862
N123	N	-0.875543	-0.558254	0.188115
C124	C	-0.112646	-0.668251	-0.761459
N125	N	-0.157080	-0.667944	-0.786059
C126	C	-0.565064	-0.551538	0.194783
N127	N	-0.590706	-0.519252	0.227032
C128	C	-0.000106	-0.256648	-0.086078
N129	N	-0.000112	-0.287118	-0.128808
C130	C	-0.000062	-0.398052	-0.032382
N131	N	-0.000072	-0.379320	-0.075700
H132	H	-0.556197	-0.781939	-0.035424
H133	H	-0.000031	-0.206249	0.220913
C134	C	-0.112656	-0.669749	-0.636739
N135	N	-0.157093	-0.670041	-0.612145
C136	C	-0.166289	-0.671502	-0.488213
N137	N	-0.210725	-0.671186	-0.512809
C138	C	-0.000066	-0.522795	-0.030883
N139	N	-0.000084	-0.553280	-0.073604
C140	C	-0.719859	-0.754134	-0.007633
N141	N	-0.694213	-0.786409	-0.039889
C142	C	-0.435053	-0.551540	0.194793
N143	N	-0.409413	-0.519266	0.227054
H144	H	-0.150966	-0.672900	-0.371979
H145	H	-0.000043	-0.098505	0.219623
C146	C	-0.849891	-0.754136	-0.007635
N147	N	-0.875546	-0.786406	-0.039887
C148	C	-0.150225	-0.590487	0.155895
N149	N	-0.124569	-0.558210	0.188139
H150	H	-0.097360	-0.676241	-0.098753
H151	H	-0.000076	0.141942	-0.023982
C152	C	-0.280222	-0.754107	-0.007607
N153	N	-0.305857	-0.786390	-0.039864
C154	C	-0.000052	0.053435	0.180662
N155	N	-0.000049	0.034707	0.223983
C156	C	0.112538	-0.676378	-0.090260
N157	N	0.156971	-0.676681	-0.065657
C158	C	-0.280260	-0.590493	0.155894
N159	N	-0.305910	-0.558215	0.188143
C160	C	0.112553	-0.674874	-0.214980
N161	N	0.156990	-0.674595	-0.239575
C162	C	0.166190	-0.671603	-0.488208
N163	N	0.210629	-0.671346	-0.512804
C164	C	-0.435034	-0.793064	-0.046543
N165	N	-0.409391	-0.825337	-0.078804
C166	C	-0.719885	-0.590540	0.155887
N167	N	-0.694249	-0.558283	0.188169
H168	H	0.150858	-0.672980	-0.371978
H169	H	-0.000084	0.034193	-0.022694
C170	C	-0.000022	-0.493033	0.187199
N171	N	-0.000018	-0.511764	0.230519
