data_functionalizedCrystal
_audit_creation_method	'MofGen! by Chris Wilmer'
_symmetry_space_group_name_H-M	'P1'
_symmetry_Int_Tables_number	1
_symmetry_cell_setting	triclinic
loop_
_symmetry_equiv_pos_as_xyz
  x,y,z
_cell_length_a	21.395364
_cell_length_b	21.395361
_cell_length_c	21.395355
_cell_angle_alpha	89.978489
_cell_angle_beta	89.975448
_cell_angle_gamma	90.045659
loop_
_atom_site_label
_atom_site_type_symbol
_atom_site_fract_x
_atom_site_fract_y
_atom_site_fract_z
Zn1	Zn	0.957859	-0.249261	-0.354248
Zn2	Zn	1.457859	0.250739	0.145752
Zn3	Zn	0.957762	-0.354021	-0.249466
Zn4	Zn	1.457762	0.145979	0.250534
Zn5	Zn	0.853074	-0.249289	-0.249485
Zn6	Zn	1.353074	0.250711	0.250515
Zn7	Zn	0.853043	-0.354032	-0.354206
Zn8	Zn	1.353043	0.145968	0.145794
O9	O	0.905435	-0.301651	-0.301851
O10	O	1.405435	0.198349	0.198149
O11	O	1.045524	-0.263142	-0.340358
O12	O	1.545524	0.236858	0.159642
O13	O	0.943847	-0.340135	-0.161790
O14	O	1.443847	0.159865	0.338210
O15	O	0.867028	-0.161607	-0.263408
O16	O	1.367028	0.338393	0.236592
O17	O	1.045453	-0.340108	-0.263375
O18	O	1.545453	0.159892	0.236625
O19	O	0.944013	-0.161587	-0.340378
O20	O	1.444013	0.338413	0.159622
O21	O	0.866933	-0.263188	-0.161805
O22	O	1.366933	0.236812	0.338195
O23	O	0.765392	-0.263199	-0.263367
O24	O	1.265392	0.236801	0.236633
O25	O	0.866975	-0.340127	-0.441889
O26	O	1.366975	0.159873	0.058111
O27	O	0.765370	-0.340154	-0.340305
O28	O	1.265370	0.159846	0.159695
O29	O	0.943983	-0.263152	-0.441921
O30	O	1.443983	0.236848	0.058079
O31	O	0.943817	-0.441700	-0.263333
O32	O	1.443817	0.058300	0.236667
O33	O	0.866881	-0.441709	-0.340286
O34	O	1.366881	0.058291	0.159714
C35	C	0.905352	-0.464438	-0.301816
C36	C	1.405352	0.035562	0.198184
C37	C	0.905374	-0.534080	-0.301822
C38	C	1.405374	-0.034080	0.198178
C39	C	0.742647	-0.301681	-0.301834
C40	C	1.242647	0.198319	0.198166
C41	C	0.673006	-0.301709	-0.301841
C42	C	1.173006	0.198291	0.198159
C43	C	0.945470	-0.566768	-0.261794
C44	C	1.445470	-0.066768	0.238206
C45	C	0.945499	-0.632203	-0.261808
C46	C	1.445499	-0.132203	0.238192
C47	C	0.905421	-0.664948	-0.301844
C48	C	1.405421	-0.164948	0.198156
C49	C	0.865322	-0.632252	-0.341880
C50	C	1.365322	-0.132252	0.158120
C51	C	0.865298	-0.566818	-0.341869
C52	C	1.365298	-0.066818	0.158131
C53	C	0.849006	-0.768678	-0.306754
C54	C	1.349006	-0.268678	0.193246
C55	C	0.849029	-0.834111	-0.306760
C56	C	1.349029	-0.334111	0.193240
C57	C	0.905494	-0.866769	-0.301881
C58	C	1.405494	-0.366769	0.198119
C59	C	0.961938	-0.833986	-0.296982
C60	C	1.461938	-0.333986	0.203018
C61	C	0.961915	-0.768551	-0.296971
C62	C	1.461915	-0.268551	0.203029
C63	C	0.905442	-0.735900	-0.301860
C64	C	1.405442	-0.235900	0.198140
C65	C	0.945625	-0.970409	-0.261866
C66	C	1.445625	-0.470409	0.238134
C67	C	0.945655	-1.035846	-0.261884
C68	C	1.445655	-0.535846	0.238116
C69	C	0.865473	-1.035893	-0.341952
C70	C	1.365473	-0.535893	0.158048
C71	C	0.865448	-0.970458	-0.341937
C72	C	1.365448	-0.470458	0.158063
C73	C	0.905523	-0.937720	-0.301890
C74	C	1.405523	-0.437720	0.198110
C75	C	0.640352	-0.261698	-0.341988
C76	C	1.140352	0.238302	0.158012
C77	C	0.574917	-0.261682	-0.341991
C78	C	1.074917	0.238318	0.158009
C79	C	0.542137	-0.301687	-0.301852
C80	C	1.042137	0.198313	0.198148
C81	C	0.574799	-0.341701	-0.261697
C82	C	1.074799	0.158299	0.238303
C83	C	0.640233	-0.341712	-0.261692
C84	C	1.140233	0.158288	0.238308
C85	C	0.438413	-0.358112	-0.296812
C86	C	0.938413	0.141888	0.203188
C87	C	0.372980	-0.358102	-0.296822
C88	C	0.872980	0.141898	0.203178
C89	C	0.340317	-0.301653	-0.301866
C90	C	0.840317	0.198347	0.198134
C91	C	0.373094	-0.245212	-0.306914
C92	C	0.873094	0.254788	0.193086
C93	C	0.438528	-0.245223	-0.306908
C94	C	0.938528	0.254777	0.193092
C95	C	0.471185	-0.301679	-0.301854
C96	C	0.971185	0.198321	0.198146
C97	C	0.236711	-0.261620	-0.342018
C98	C	0.736711	0.238380	0.157982
C99	C	0.171274	-0.261603	-0.342016
C100	C	0.671274	0.238397	0.157984
C101	C	0.171157	-0.341627	-0.261726
C102	C	0.671157	0.158373	0.238274
C103	C	0.236593	-0.341640	-0.261725
C104	C	0.736593	0.158360	0.238275
C105	C	0.269365	-0.301637	-0.301874
C106	C	0.769365	0.198363	0.198126
C107	C	1.068858	-0.301621	-0.301869
C108	C	1.568858	0.198379	0.198131
C109	C	1.138499	-0.301608	-0.301877
C110	C	1.638499	0.198392	0.198123
C111	C	0.905487	-0.301638	-0.465275
C112	C	1.405487	0.198362	0.034725
C113	C	0.905509	-0.301633	-0.534916
C114	C	1.405509	0.198367	-0.034916
C115	C	0.905535	-0.138227	-0.301900
C116	C	1.405535	0.361773	0.198100
C117	C	0.905577	-0.068586	-0.301921
C118	C	1.405577	0.431414	0.198079
C119	C	0.945605	-0.261550	-0.567646
C120	C	1.445605	0.238450	-0.067646
C121	C	0.945604	-0.261523	-0.633082
C122	C	1.445604	0.238477	-0.133082
C123	C	0.905514	-0.301590	-0.665784
C124	C	1.405514	0.198410	-0.165784
C125	C	0.865410	-0.341675	-0.633046
C126	C	1.365410	0.158325	-0.133046
C127	C	0.865407	-0.341697	-0.567612
C128	C	1.365407	0.158303	-0.067612
C129	C	0.900538	-0.358007	-0.769447
C130	C	1.400538	0.141993	-0.269447
C131	C	0.900545	-0.357986	-0.834880
C132	C	1.400545	0.142014	-0.334880
C133	C	0.905518	-0.301524	-0.867605
C134	C	1.405518	0.198476	-0.367605
C135	C	0.910497	-0.245080	-0.834889
C136	C	1.410497	0.254920	-0.334889
C137	C	0.910494	-0.245101	-0.769455
C138	C	1.410494	0.254899	-0.269455
C139	C	0.905512	-0.301571	-0.736737
C140	C	1.405512	0.198429	-0.236737
C141	C	0.945615	-0.261409	-0.971288
C142	C	1.445615	0.238591	-0.471288
C143	C	0.945610	-0.261381	-1.036725
C144	C	1.445610	0.238619	-0.536725
C145	C	0.865419	-0.341538	-1.036688
C146	C	1.365419	0.158462	-0.536688
C147	C	0.865421	-0.341561	-0.971252
C148	C	1.365421	0.158439	-0.471252
C149	C	0.905522	-0.301497	-0.938556
C150	C	1.405522	0.198503	-0.438556
C151	C	0.905419	-0.301618	-0.139064
C152	C	1.405419	0.198382	0.360936
C153	C	0.905518	-0.301447	-0.069423
C154	C	1.405518	0.198553	0.430577
H155	H	0.978103	-0.540114	-0.229188
H156	H	1.478103	-0.040114	0.270812
C157	C	0.821195	-0.530860	-0.385913
C158	C	1.321195	-0.030860	0.114087
N159	N	0.787979	-0.503775	-0.419090
N160	N	1.287979	-0.003775	0.080910
C161	C	0.821319	-0.385613	-1.072657
C162	C	1.321319	0.114387	-0.572657
N163	N	0.788101	-0.418811	-1.099751
N164	N	1.288101	0.081189	-0.599751
H165	H	0.667032	-0.229125	-0.374681
H166	H	1.167032	0.270875	0.125319
C167	C	0.272513	-0.385660	-0.217564
C168	C	0.772513	0.114340	0.282436
N169	N	0.299568	-0.418818	-0.184299
N170	N	0.799568	0.081182	0.315701
H171	H	0.346298	-0.404059	-0.292715
H172	H	0.846298	0.095941	0.207285
C173	C	0.538991	-0.217669	-0.386161
C174	C	1.038991	0.282331	0.113839
N175	N	0.511933	-0.184519	-0.419432
N176	N	1.011933	0.315481	0.080568
C177	C	0.538740	-0.385707	-0.217545
C178	C	1.038740	0.114293	0.282455
N179	N	0.511581	-0.418853	-0.184288
N180	N	1.011581	0.081147	0.315712
H181	H	0.465213	-0.199267	-0.311016
H182	H	0.965213	0.300733	0.188984
H183	H	0.914547	-0.199143	-0.742821
H184	H	1.414547	0.300857	-0.242821
C185	C	0.821234	-0.668273	-0.385916
C186	C	1.321234	-0.168273	0.114084
N187	N	0.788026	-0.695403	-0.419087
N188	N	1.288026	-0.195403	0.080913
C189	C	0.989719	-0.217431	-0.669093
C190	C	1.489719	0.282569	-0.169093
N191	N	1.022947	-0.184223	-0.696214
N192	N	1.522947	0.315777	-0.196214
C193	C	0.337170	-0.183112	-0.312457
C194	C	0.837170	0.316888	0.187543
N195	N	0.310108	-0.136340	-0.316631
N196	N	0.810108	0.363660	0.183369
H197	H	0.263396	-0.229044	-0.374706
H198	H	0.763396	0.270956	0.125294
C199	C	0.474336	-0.420215	-0.291266
C200	C	0.974336	0.079785	0.208734
N201	N	0.501393	-0.466989	-0.287090
N202	N	1.001393	0.033011	0.212910
C203	C	0.989606	-0.668167	-0.217770
C204	C	1.489606	-0.168167	0.282230
N205	N	1.022827	-0.695253	-0.184598
N206	N	1.522827	-0.195253	0.315402
H207	H	0.144689	-0.229017	-0.374708
H208	H	0.644689	0.270983	0.125292
C209	C	0.821298	-0.385794	-0.531607
C210	C	1.321298	0.114206	-0.031607
N211	N	0.788075	-0.419010	-0.504487
N212	N	1.288075	0.080990	-0.004487
H213	H	0.144469	-0.374200	-0.229045
H214	H	0.644469	0.125800	0.270955
C215	C	0.989720	-0.217283	-1.072728
C216	C	1.489720	0.282717	-0.572728
N217	N	1.022945	-0.184069	-1.099846
N218	N	1.522945	0.315931	-0.599846
C219	C	0.786939	-0.870166	-0.312147
C220	C	1.286939	-0.370166	0.187853
N221	N	0.740171	-0.897321	-0.316206
N222	N	1.240171	-0.397321	0.183794
H223	H	1.007873	-0.741861	-0.292984
H224	H	1.507873	-0.241861	0.207016
C225	C	0.821314	-0.385658	-0.935247
C226	C	1.321314	0.114342	-0.435247
N227	N	0.788088	-0.418872	-0.908129
N228	N	1.288088	0.081128	-0.408129
H229	H	0.914547	-0.199103	-0.861533
H230	H	1.414547	0.300897	-0.361533
H231	H	0.832766	-0.374296	-0.659676
H232	H	1.332766	0.125704	-0.159676
H233	H	0.978258	-0.228926	-0.541029
H234	H	1.478258	0.271074	-0.041029
H235	H	0.978265	-0.228783	-0.944666
H236	H	1.478265	0.271217	-0.444666
C237	C	1.024056	-0.869904	-0.291619
C238	C	1.524056	-0.369904	0.208381
N239	N	1.070841	-0.896961	-0.287580
N240	N	1.570841	-0.396961	0.212420
H241	H	0.896494	-0.403946	-0.861512
H242	H	1.396494	0.096054	-0.361512
C243	C	0.676153	-0.385732	-0.217527
C244	C	1.176153	0.114268	0.282473
N245	N	0.703209	-0.418890	-0.184263
N246	N	1.203209	0.081110	0.315737
C247	C	0.895079	-0.420125	-0.733456
C248	C	1.395079	0.079875	-0.233456
N249	N	0.890972	-0.466912	-0.706348
N250	N	1.390972	0.033088	-0.206348
C251	C	0.989718	-0.934395	-0.217823
C252	C	1.489718	-0.434395	0.282177
N253	N	1.022931	-0.907271	-0.184653
N254	N	1.522931	-0.407271	0.315347
H255	H	0.832843	-1.062554	-0.374552
H256	H	1.332843	-0.562554	0.125448
C257	C	0.989766	-1.071802	-0.217847
C258	C	1.489766	-0.571802	0.282153
N259	N	1.022990	-1.098886	-0.184676
N260	N	1.522990	-0.598886	0.315324
H261	H	0.803022	-0.742094	-0.310730
H262	H	1.303022	-0.242094	0.189270
C263	C	0.821351	-0.934500	-0.385984
C264	C	1.321351	-0.434500	0.114016
N265	N	0.788142	-0.907416	-0.419170
N266	N	1.288142	-0.407416	0.080830
