data_functionalizedCrystal
_audit_creation_method	'MofGen! by Chris Wilmer'
_symmetry_space_group_name_H-M	'P1'
_symmetry_Int_Tables_number	1
_symmetry_cell_setting	triclinic
loop_
_symmetry_equiv_pos_as_xyz
  x,y,z
_cell_length_a	11.792241
_cell_length_b	19.188930
_cell_length_c	10.268362
_cell_angle_alpha	89.989600
_cell_angle_beta	89.999626
_cell_angle_gamma	83.669099
loop_
_atom_site_label
_atom_site_type_symbol
_atom_site_fract_x
_atom_site_fract_y
_atom_site_fract_z
O1	O	1.505476	0.095695	-0.108190
O2	O	2.005476	0.595695	0.391810
O3	O	1.174988	0.105558	-0.108222
O4	O	1.674988	0.605558	0.391778
O5	O	1.349769	-0.000975	-0.108179
O6	O	1.849769	0.499025	0.391821
O7	O	1.330695	0.202228	-0.108232
O8	O	1.830695	0.702228	0.391768
O9	O	1.349754	-0.000980	0.108421
O10	O	1.849754	0.499020	0.608421
O11	O	1.174973	0.105553	0.108379
O12	O	1.674973	0.605553	0.608379
O13	O	1.505461	0.095691	0.108411
O14	O	2.005461	0.595691	0.608411
Cu15	Cu	1.340216	0.100622	0.128172
Cu16	Cu	1.840216	0.600622	0.628172
Cu17	Cu	1.340233	0.100627	-0.127983
Cu18	Cu	1.840233	0.600627	0.372017
O19	O	1.330680	0.202224	0.108368
O20	O	1.830680	0.702224	0.608368
C21	C	1.132699	0.104936	0.000075
C22	C	1.632699	0.604936	0.500075
C23	C	1.006713	0.103082	0.000064
C24	C	1.506713	0.603082	0.500064
C25	C	0.776051	0.099672	0.000102
C26	C	1.276051	0.599672	0.500102
C27	C	0.904408	0.101566	0.000081
C28	C	1.404408	0.601566	0.500081
C29	C	1.349144	-0.026992	0.000125
C30	C	1.849144	0.473008	0.500125
C31	C	1.347290	-0.104507	0.000136
C32	C	1.847290	0.395493	0.500136
C33	C	1.449846	-0.148850	0.000152
C34	C	1.949846	0.351150	0.500152
C35	C	1.448104	-0.221684	0.000131
C36	C	1.948104	0.278316	0.500131
C37	C	1.343800	-0.250171	0.000120
C38	C	1.843800	0.249829	0.500120
C39	C	1.241230	-0.205818	0.000096
C40	C	1.741230	0.294182	0.500096
C41	C	1.242975	-0.132986	0.000104
C42	C	1.742975	0.367014	0.500104
N43	N	1.264067	-0.358629	0.073825
N44	N	1.764067	0.141371	0.573825
N45	N	1.262416	-0.427817	0.073820
N46	N	1.762416	0.072183	0.573820
C47	C	1.338536	-0.469609	0.000093
C48	C	1.838536	0.030391	0.500093
N49	N	1.416387	-0.439602	-0.073614
N50	N	1.916387	0.060398	0.426386
N51	N	1.418041	-0.370407	-0.073603
N52	N	1.918041	0.129593	0.426397
C53	C	1.341896	-0.329144	0.000110
C54	C	1.841896	0.170856	0.500110
C55	C	1.439211	-0.592928	0.000084
C56	C	1.939211	-0.092928	0.500084
C57	C	1.437464	-0.665762	0.000055
C58	C	1.937464	-0.165762	0.500055
C59	C	1.230588	-0.649895	0.000034
C60	C	1.730588	-0.149895	0.500034
C61	C	1.232337	-0.577062	0.000050
C62	C	1.732337	-0.077062	0.500050
C63	C	1.336652	-0.548583	0.000081
C64	C	1.836652	-0.048583	0.500081
C65	C	1.547751	0.096313	0.000111
C66	C	2.047751	0.596313	0.500111
C67	C	1.673737	0.098167	0.000114
C68	C	2.173737	0.598167	0.500114
C69	C	1.331305	0.228240	0.000062
C70	C	1.831305	0.728240	0.500062
C71	C	1.333159	0.305755	0.000042
C72	C	1.833159	0.805755	0.500042
N73	N	1.340211	0.100617	0.308338
N74	N	1.840211	0.600617	0.808338
N75	N	1.340247	0.100625	-0.308149
N76	N	1.840247	0.600625	0.191851
C77	C	1.340228	0.100625	0.574009
C78	C	1.840228	0.600625	1.074009
C79	C	1.340215	0.100623	0.426171
C80	C	1.840215	0.600623	0.926171
H81	H	1.534787	-0.125667	0.000173
H82	H	2.034787	0.374333	0.500173
O83	O	1.129236	-0.677524	-0.000209
O84	O	1.629236	-0.177524	0.499791
C85	C	0.951868	-0.686196	-0.112409
C86	C	1.451868	-0.186196	0.387591
C87	C	1.066623	-0.654869	-0.112304
C88	C	1.566623	-0.154869	0.387696
H89	H	0.901203	-0.667879	-0.203015
H90	H	1.401203	-0.167879	0.296985
H91	H	0.968165	-0.745871	-0.112500
H92	H	1.468165	-0.245871	0.387500
H93	H	0.901245	-0.667987	-0.021725
H94	H	1.401245	-0.167987	0.478275
H95	H	1.117305	-0.673024	-0.202973
H96	H	1.617305	-0.173024	0.297027
H97	H	1.050246	-0.595197	-0.112146
H98	H	1.550246	-0.095197	0.387854
H99	H	1.159459	-0.096881	0.000091
H100	H	1.659459	0.403119	0.500091
O101	O	1.540635	-0.565373	0.000034
O102	O	2.040635	-0.065373	0.500034
C103	C	1.745640	-0.588796	0.000105
C104	C	2.245640	-0.088796	0.500105
C105	C	1.630859	-0.620091	0.000138
C106	C	2.130859	-0.120091	0.500138
H107	H	1.818616	-0.633020	0.000217
H108	H	2.318616	-0.133020	0.500217
H109	H	1.751704	-0.555107	-0.090559
H110	H	2.251704	-0.055107	0.409441
H111	H	1.751570	-0.555083	0.090735
H112	H	2.251570	-0.055083	0.590735
H113	H	1.624852	-0.653836	-0.090430
H114	H	2.124852	-0.153836	0.409570
H115	H	1.624844	-0.653740	0.090863
H116	H	2.124844	-0.153740	0.590863
H117	H	1.156305	-0.229017	0.000084
H118	H	1.656305	0.270983	0.500084
O119	O	1.547836	-0.264669	0.000208
O120	O	2.047836	0.235331	0.500208
C121	C	1.753210	-0.272726	0.000176
C122	C	2.253210	0.227274	0.500176
C123	C	1.640350	-0.223968	0.000118
C124	C	2.140350	0.276032	0.500118
H125	H	1.828037	-0.239839	0.000076
H126	H	2.328037	0.260161	0.500076
H127	H	1.757625	-0.307217	0.090844
H128	H	2.257625	0.192783	0.590844
H129	H	1.757512	-0.307225	-0.090450
H130	H	2.257512	0.192775	0.409550
H131	H	1.635973	-0.189425	0.090684
H132	H	2.135973	0.310575	0.590684
H133	H	1.635982	-0.189525	-0.090609
H134	H	2.135982	0.310475	0.409391
O135	O	1.537064	-0.708867	-0.000165
O136	O	2.037064	-0.208867	0.499835
C137	C	1.655143	-0.800313	-0.112341
C138	C	2.155143	-0.300313	0.387659
C139	C	1.542314	-0.751525	-0.112266
C140	C	2.042314	-0.251525	0.387734
H141	H	1.659413	-0.834824	-0.202950
H142	H	2.159413	-0.334824	0.297050
H143	H	1.730035	-0.767476	-0.112400
H144	H	2.230035	-0.267476	0.387600
H145	H	1.659473	-0.834790	-0.021660
H146	H	2.159473	-0.334790	0.478340
H147	H	1.537873	-0.717038	-0.202931
H148	H	2.037873	-0.217038	0.297069
H149	H	1.467475	-0.784404	-0.112139
H150	H	1.967475	-0.284404	0.387861
H151	H	1.148825	-0.540957	0.000044
H152	H	1.648825	-0.040957	0.500044
