data_functionalizedCrystal
_audit_creation_method	'MofGen! by Chris Wilmer'
_symmetry_space_group_name_H-M	'P1'
_symmetry_Int_Tables_number	1
_symmetry_cell_setting	triclinic
loop_
_symmetry_equiv_pos_as_xyz
  x,y,z
_cell_length_a	14.519731
_cell_length_b	12.996460
_cell_length_c	10.723024
_cell_angle_alpha	89.995205
_cell_angle_beta	84.078361
_cell_angle_gamma	89.993791
loop_
_atom_site_label
_atom_site_type_symbol
_atom_site_fract_x
_atom_site_fract_y
_atom_site_fract_z
O1	O	1.224694	-0.085566	0.163703
O2	O	1.474694	0.164434	0.413703
O3	O	1.724694	0.414434	0.663703
O4	O	1.974694	0.664434	0.913703
O5	O	0.956318	-0.085568	0.182938
O6	O	1.206318	0.164432	0.432938
O7	O	1.456318	0.414432	0.682938
O8	O	1.706318	0.664432	0.932938
O9	O	1.096696	-0.085563	-0.008313
O10	O	1.346696	0.164437	0.241687
O11	O	1.596696	0.414437	0.491687
O12	O	1.846696	0.664437	0.741687
O13	O	1.084315	-0.085571	0.354954
O14	O	1.334315	0.164429	0.604954
O15	O	1.584315	0.414429	0.854954
O16	O	1.834315	0.664429	1.104954
O17	O	1.096680	0.085571	-0.008323
O18	O	1.346680	0.335571	0.241677
O19	O	1.596680	0.585571	0.491677
O20	O	1.846680	0.835571	0.741677
O21	O	0.956301	0.085566	0.182928
O22	O	1.206301	0.335566	0.432928
O23	O	1.456301	0.585566	0.682928
O24	O	1.706301	0.835566	0.932928
O25	O	1.224677	0.085567	0.163693
O26	O	1.474677	0.335567	0.413693
O27	O	1.724677	0.585567	0.663693
O28	O	1.974677	0.835567	0.913693
Cu29	Cu	1.090488	0.101193	0.173310
Cu30	Cu	1.340488	0.351193	0.423310
Cu31	Cu	1.590488	0.601193	0.673310
Cu32	Cu	1.840488	0.851193	0.923310
Cu33	Cu	1.090507	-0.101193	0.173321
Cu34	Cu	1.340507	0.148807	0.423321
Cu35	Cu	1.590507	0.398807	0.673321
Cu36	Cu	1.840507	0.648807	0.923321
O37	O	1.084299	0.085563	0.354944
O38	O	1.334299	0.335563	0.604944
O39	O	1.584299	0.585563	0.854944
O40	O	1.834299	0.835563	1.104944
C41	C	0.921945	-0.000001	0.182032
C42	C	1.171945	0.249999	0.432032
C43	C	1.421945	0.499999	0.682032
C44	C	1.671945	0.749999	0.932032
C45	C	0.819551	-0.000001	0.179331
C46	C	1.069551	0.249999	0.429331
C47	C	1.319551	0.499999	0.679331
C48	C	1.569551	0.749999	0.929331
C49	C	0.736396	-0.000006	0.177137
C50	C	0.986396	0.249994	0.427137
C51	C	1.236396	0.499994	0.677137
C52	C	1.486396	0.749994	0.927137
C53	C	0.632073	-0.000006	0.174395
C54	C	0.882073	0.249994	0.424395
C55	C	1.132073	0.499994	0.674395
C56	C	1.382073	0.749994	0.924395
C57	C	0.548923	-0.000006	0.172218
C58	C	0.798923	0.249994	0.422218
C59	C	1.048923	0.499994	0.672218
C60	C	1.298923	0.749994	0.922218
C61	C	0.444594	-0.000008	0.169476
C62	C	0.694594	0.249992	0.419476
C63	C	0.944594	0.499992	0.669476
C64	C	1.194594	0.749992	0.919476
N65	N	1.090481	0.243540	0.173301
N66	N	1.340481	0.493540	0.423301
N67	N	1.590481	0.743540	0.673301
N68	N	1.840481	0.993540	0.923301
C69	C	1.090499	0.663354	0.173326
C70	C	1.340499	0.913354	0.423326
C71	C	1.590499	1.163354	0.673326
C72	C	1.840499	1.413354	0.923326
C73	C	1.090491	0.546549	0.173324
C74	C	1.340491	0.796549	0.423324
C75	C	1.590491	1.046549	0.673324
C76	C	1.840491	1.296549	0.923324
C77	C	1.090490	0.453451	0.173315
C78	C	1.340490	0.703451	0.423315
C79	C	1.590490	0.953451	0.673315
C80	C	1.840490	1.203451	0.923315
C81	C	1.090482	0.336638	0.173310
C82	C	1.340482	0.586638	0.423310
C83	C	1.590482	0.836638	0.673310
C84	C	1.840482	1.086638	0.923310
C85	C	1.259049	-0.000002	0.164599
C86	C	1.509049	0.249998	0.414599
C87	C	1.759049	0.499998	0.664599
C88	C	2.009049	0.749998	0.914599
C89	C	1.361443	-0.000008	0.167300
C90	C	1.611443	0.249992	0.417300
C91	C	1.861443	0.499992	0.667300
C92	C	2.111443	0.749992	0.917300
C93	C	1.095787	0.000003	-0.054809
C94	C	1.345787	0.250003	0.195191
C95	C	1.595787	0.500003	0.445191
C96	C	1.845787	0.750003	0.695191
C97	C	1.093091	-0.000001	-0.193338
C98	C	1.343091	0.249999	0.056662
C99	C	1.593091	0.499999	0.306662
C100	C	1.843091	0.749999	0.556662
N101	N	1.090512	0.756460	0.173325
N102	N	1.340512	1.006460	0.423325
N103	N	1.590512	1.256460	0.673325
N104	N	1.840512	1.506460	0.923325
C105	C	1.171640	-0.000002	-0.269047
C106	C	1.421640	0.249998	-0.019047
C107	C	1.671640	0.499998	0.230953
C108	C	1.921640	0.749998	0.480953
C109	C	1.168855	-0.000006	-0.412225
C110	C	1.418855	0.249994	-0.162225
C111	C	1.668855	0.499994	0.087775
C112	C	1.918855	0.749994	0.337775
C113	C	1.085208	-0.000005	0.401440
C114	C	1.335208	0.249995	0.651440
C115	C	1.585208	0.499995	0.901440
C116	C	1.835208	0.749995	1.151440
C117	C	1.087904	-0.000008	0.539970
C118	C	1.337904	0.249992	0.789970
C119	C	1.587904	0.499992	1.039970
C120	C	1.837904	0.749992	1.289970
H121	H	1.240949	0.000004	-0.227866
H122	H	1.490949	0.250004	0.022134
H123	H	1.740949	0.500004	0.272134
H124	H	1.990949	0.750004	0.522134
H125	H	1.236099	-0.000002	-0.477280
H126	H	1.486099	0.249998	-0.227280
H127	H	1.736099	0.499998	0.022720
H128	H	1.986099	0.749998	0.272720
O129	O	0.998818	-0.000000	-0.373882
O130	O	1.248818	0.250000	-0.123882
O131	O	1.498818	0.500000	0.126118
O132	O	1.748818	0.750000	0.376118
H133	H	0.996013	-0.069753	-0.313877
H134	H	1.246013	0.180247	-0.063877
H135	H	1.496013	0.430247	0.186123
H136	H	1.746013	0.680247	0.436123
O137	O	1.001280	0.000003	-0.247880
O138	O	1.251280	0.250003	0.002120
O139	O	1.501280	0.500003	0.252120
O140	O	1.751280	0.750003	0.502120
H141	H	0.961505	-0.069750	-0.215927
H142	H	1.211505	0.180250	0.034073
H143	H	1.461505	0.430250	0.284073
H144	H	1.711505	0.680250	0.534073
