data_functionalizedCrystal
_audit_creation_method	'MofGen! by Chris Wilmer'
_symmetry_space_group_name_H-M	'P1'
_symmetry_Int_Tables_number	1
_symmetry_cell_setting	triclinic
loop_
_symmetry_equiv_pos_as_xyz
  x,y,z
_cell_length_a	11.169417
_cell_length_b	18.101397
_cell_length_c	11.169409
_cell_angle_alpha	89.960119
_cell_angle_beta	89.980487
_cell_angle_gamma	90.021715
loop_
_atom_site_label
_atom_site_type_symbol
_atom_site_fract_x
_atom_site_fract_y
_atom_site_fract_z
Zn1	Zn	1.834878	-0.294745	-0.678470
Zn2	Zn	1.834732	-0.418611	-0.477760
Zn3	Zn	1.634164	-0.294791	-0.477805
Zn4	Zn	1.634136	-0.418552	-0.678406
O5	O	1.734477	-0.356675	-0.578110
O6	O	2.002808	-0.311182	-0.651853
O7	O	1.808077	-0.402230	-0.309816
O8	O	1.660862	-0.191152	-0.504469
O9	O	2.002701	-0.402186	-0.504393
O10	O	1.808326	-0.191118	-0.651897
O11	O	1.660720	-0.311260	-0.309850
O12	O	1.466210	-0.311202	-0.504408
O13	O	1.660814	-0.402084	-0.846365
O14	O	1.466190	-0.402129	-0.651788
O15	O	1.808298	-0.311124	-0.846411
O16	O	1.808049	-0.522236	-0.504331
O17	O	1.660672	-0.522193	-0.651745
C18	C	1.422653	-0.356665	-0.578097
C19	C	1.289253	-0.356678	-0.578119
C20	C	1.734375	-0.549085	-0.578052
C21	C	1.734440	-0.631399	-0.578068
C22	C	1.734594	-0.930490	-0.578177
C23	C	1.827061	-0.899162	-0.485180
C24	C	1.827381	-0.813543	-0.485421
C25	C	1.734518	-0.782108	-0.578122
C26	C	1.768813	-0.813102	-0.704626
C27	C	1.769528	-0.898747	-0.704120
C28	C	1.607585	-0.899004	-0.545764
C29	C	1.608212	-0.813355	-0.542941
C30	C	1.734473	-0.698248	-0.578098
C31	C	1.734642	-1.014350	-0.578209
C32	C	2.047520	-0.356685	-0.578125
C33	C	2.180920	-0.356690	-0.578131
C34	C	1.734569	-0.356593	-0.891153
C35	C	1.734609	-0.356557	-1.024553
C36	C	1.734613	-0.163513	-0.578195
C37	C	1.734671	-0.081199	-0.578231
C38	C	1.734455	-0.356703	-0.266286
C39	C	1.734648	-0.356530	-0.132886
H40	H	1.805924	-0.792591	-0.391619
H41	H	1.576387	-0.920674	-0.455117
O42	O	1.880283	-0.922422	-0.737032
C43	C	1.906992	-0.896039	-0.852803
H44	H	1.850654	-0.844936	-0.872348
H45	H	2.006010	-0.881101	-0.858186
H46	H	1.885912	-0.940744	-0.921489
O47	O	1.801933	-0.923717	-0.372855
C48	C	1.886384	-0.894688	-0.291724
H49	H	1.927284	-0.842206	-0.330692
H50	H	1.840163	-0.881241	-0.203376
H51	H	1.959992	-0.937140	-0.275498
H52	H	1.582353	-0.793106	-0.449843
O53	O	1.878427	-0.787533	-0.737796
C54	C	1.964692	-0.810508	-0.653512
H55	H	1.930681	-0.861552	-0.604259
H56	H	2.051823	-0.824364	-0.701688
H57	H	1.981327	-0.764186	-0.586438
H58	H	1.535611	-0.791964	-0.605715
O59	O	1.938681	-0.924843	-0.510282
C60	C	1.982301	-0.965281	-0.411585
H61	H	1.903808	-0.985872	-0.355464
H62	H	2.036532	-1.014474	-0.444972
H63	H	2.041836	-0.928196	-0.354513
O64	O	1.525534	-0.923257	-0.626646
C65	C	1.582552	-0.968431	-0.712174
H66	H	1.668620	-0.991814	-0.672545
H67	H	1.520397	-1.015754	-0.738098
H68	H	1.604744	-0.934257	-0.795040
H69	H	1.703524	-0.792736	-0.775779
H70	H	1.921462	-0.792996	-0.506866
H71	H	1.705130	-0.919467	-0.775797
