data_functionalizedCrystal
_audit_creation_method	'MofGen! by Chris Wilmer'
_symmetry_space_group_name_H-M	'P1'
_symmetry_Int_Tables_number	1
_symmetry_cell_setting	triclinic
loop_
_symmetry_equiv_pos_as_xyz
  x,y,z
_cell_length_a	10.654545
_cell_length_b	10.654550
_cell_length_c	9.730223
_cell_angle_alpha	89.996763
_cell_angle_beta	89.997167
_cell_angle_gamma	84.483991
loop_
_atom_site_label
_atom_site_type_symbol
_atom_site_fract_x
_atom_site_fract_y
_atom_site_fract_z
O1	O	1.667842	0.176372	-0.114272
O2	O	1.302363	0.193184	-0.114278
O3	O	1.493506	0.002038	-0.114270
O4	O	1.476700	0.367517	-0.114280
O5	O	1.493493	0.002033	0.114310
O6	O	1.302351	0.193178	0.114302
O7	O	1.667830	0.176366	0.114308
Zn8	Zn	1.485088	0.184771	0.150597
Zn9	Zn	1.485105	0.184778	-0.150567
O10	O	1.476687	0.367512	0.114300
C11	C	1.255559	0.191948	0.000011
C12	C	1.116115	0.188258	0.000009
C13	C	1.050604	0.186518	0.124609
C14	C	0.919585	0.183031	0.124609
C15	C	0.919599	0.183028	-0.124601
C16	C	1.050617	0.186507	-0.124600
C17	C	1.492266	-0.044762	0.000018
C18	C	1.488574	-0.184206	0.000014
C19	C	1.601115	-0.263693	0.000019
C20	C	1.597639	-0.394714	0.000010
C21	C	1.369069	-0.366747	-0.000006
C22	C	1.372547	-0.235729	-0.000006
C23	C	1.717142	-0.212170	0.000039
C24	C	1.829693	-0.291659	0.000046
C25	C	1.826217	-0.422680	0.000037
C26	C	1.710189	-0.474212	0.000020
C27	C	1.714634	0.177602	0.000015
C28	C	1.854078	0.181292	0.000008
C29	C	1.477927	0.414312	0.000008
C30	C	1.481619	0.553755	0.000004
N31	N	1.485086	0.184766	0.356133
N32	N	1.485117	0.184774	-0.356104
C33	C	1.569753	0.100163	0.428063
C34	C	1.569766	0.100163	0.571946
C35	C	1.400440	0.269381	0.571957
C36	C	1.400423	0.269374	0.428077
H37	H	0.866254	0.181603	-0.226053
H38	H	1.719986	-0.105488	0.000051
F39	F	1.310342	0.359426	0.648534
H40	H	1.103958	0.187920	-0.226070
H41	H	1.103929	0.187944	0.226074
F42	F	0.849868	0.181180	0.257226
F43	F	1.946001	-0.507274	0.000030
F44	F	1.953171	-0.236813	0.000048
F45	F	1.706495	-0.613658	0.000055
H46	H	1.274605	-0.408715	-0.000018
H47	H	1.280905	-0.171007	-0.000009
H48	H	1.331471	0.338268	0.369508
H49	H	1.638690	0.031268	0.369490
H50	H	1.638708	0.031270	0.630507
