data_functionalizedCrystal
_audit_creation_method	'MofGen! by Chris Wilmer'
_symmetry_space_group_name_H-M	'P1'
_symmetry_Int_Tables_number	1
_symmetry_cell_setting	triclinic
loop_
_symmetry_equiv_pos_as_xyz
  x,y,z
_cell_length_a	23.532407
_cell_length_b	23.532407
_cell_length_c	22.610064
_cell_angle_alpha	90.000603
_cell_angle_beta	89.997161
_cell_angle_gamma	97.151322
loop_
_atom_site_label
_atom_site_type_symbol
_atom_site_fract_x
_atom_site_fract_y
_atom_site_fract_z
O1	O	0.755263	-0.069127	-0.049117
O2	O	1.088597	0.264206	0.284217
O3	O	1.421930	0.597540	0.617550
O4	O	0.589400	-0.079130	-0.049135
O5	O	0.922733	0.254203	0.284198
O6	O	1.256067	0.587536	0.617532
O7	O	0.677333	0.008803	-0.049114
O8	O	1.010667	0.342136	0.284219
O9	O	1.344000	0.675470	0.617552
O10	O	0.667330	-0.157060	-0.049137
O11	O	1.000664	0.176273	0.284196
O12	O	1.333997	0.509606	0.617529
O13	O	0.677318	0.008790	0.049255
O14	O	1.010651	0.342124	0.382588
O15	O	1.343985	0.675457	0.715921
O16	O	0.589385	-0.079143	0.049234
O17	O	0.922718	0.254190	0.382568
O18	O	1.256051	0.587524	0.715901
O19	O	0.755248	-0.069140	0.049252
O20	O	1.088581	0.264193	0.382586
O21	O	1.421915	0.597527	0.715919
Zn22	Zn	0.672314	-0.074144	0.064862
Zn23	Zn	1.005647	0.259190	0.398195
Zn24	Zn	1.338980	0.592523	0.731528
Zn25	Zn	0.672334	-0.074127	-0.064744
Zn26	Zn	1.005668	0.259207	0.268589
Zn27	Zn	1.339001	0.592540	0.601923
O28	O	0.667315	-0.157073	0.049232
O29	O	1.000648	0.176260	0.382565
O30	O	1.333981	0.509593	0.715899
C31	C	0.568176	-0.078882	0.000048
C32	C	0.901510	0.254451	0.333381
C33	C	1.234843	0.587785	0.666714
C34	C	0.504959	-0.078116	0.000041
C35	C	0.838293	0.255217	0.333374
C36	C	1.171626	0.588551	0.666708
C37	C	0.105856	-0.125350	0.000061
C38	C	0.439190	0.207984	0.333395
C39	C	0.772523	0.541317	0.666728
C40	C	0.046456	-0.124638	0.000065
C41	C	0.379789	0.208695	0.333398
C42	C	0.713123	0.542029	0.666732
O43	O	0.009711	-0.168424	0.000081
O44	O	0.343045	0.164909	0.333414
O45	O	0.676378	0.498243	0.666747
N46	N	0.023830	-0.072362	0.000071
N47	N	0.357163	0.260972	0.333405
N48	N	0.690496	0.594305	0.666738
C49	C	0.060607	-0.020794	0.000080
C50	C	0.393941	0.312540	0.333413
C51	C	0.727274	0.645873	0.666746
O52	O	0.035908	0.023737	0.000086
O53	O	0.369241	0.357070	0.333419
O54	O	0.702574	0.690404	0.666753
C55	C	0.120006	-0.021506	0.000080
C56	C	0.453340	0.311828	0.333414
C57	C	0.786673	0.645161	0.666747
C58	C	0.142629	-0.073785	0.000068
C59	C	0.475962	0.259548	0.333401
C60	C	0.809296	0.592881	0.666735
C61	C	0.128479	-0.177625	0.000050
C62	C	0.461813	0.155708	0.333383
C63	C	0.795146	0.489042	0.666716
C64	C	0.187876	-0.178336	0.000045
C65	C	0.521209	0.154997	0.333378
C66	C	0.854542	0.488330	0.666712
C67	C	0.224649	-0.126772	0.000052
C68	C	0.557982	0.206561	0.333385
C69	C	0.891315	0.539895	0.666718
C70	C	0.202025	-0.074497	0.000063
C71	C	0.535359	0.258837	0.333397
C72	C	0.868692	0.592170	0.666730
C73	C	0.156783	0.030062	0.000093
C74	C	0.490116	0.363395	0.333426
C75	C	0.823450	0.696729	0.666760
C76	C	0.216185	0.029345	0.000094
C77	C	0.549519	0.362679	0.333427
C78	C	0.882852	0.696012	0.666761
C79	C	0.238808	-0.022934	0.000082
C80	C	0.572141	0.310399	0.333415
C81	C	0.905475	0.643732	0.666748
C82	C	0.298194	-0.023643	0.000065
C83	C	0.631528	0.309690	0.333398
C84	C	0.964861	0.643023	0.666732
N85	N	0.320820	-0.075920	0.000059
N86	N	0.654154	0.257414	0.333392
N87	N	0.987487	0.590747	0.666726
C88	C	0.284048	-0.127484	0.000052
C89	C	0.617381	0.205849	0.333386
C90	C	0.950714	0.539183	0.666719
C91	C	-0.064135	-0.019302	0.000080
C92	C	0.269198	0.314031	0.333413
C93	C	0.602532	0.647365	0.666746
C94	C	-0.123533	-0.018589	0.000075
C95	C	0.209800	0.314744	0.333408
C96	C	0.543134	0.648077	0.666742
C97	C	-0.137680	-0.122434	0.000061
C98	C	0.195653	0.210899	0.333395
C99	C	0.528986	0.544232	0.666728
C100	C	-0.078281	-0.123146	0.000062
C101	C	0.255052	0.210187	0.333395
C102	C	0.588385	0.543520	0.666729
C103	C	-0.041509	-0.071578	0.000074
C104	C	0.291824	0.261755	0.333407
C105	C	0.625158	0.595088	0.666740
C106	C	0.408784	-0.128974	0.000042
C107	C	0.742118	0.204360	0.333375
C108	C	1.075451	0.537693	0.666708
C109	C	0.468186	-0.129680	0.000034
C110	C	0.801520	0.203653	0.333368
C111	C	1.134853	0.536986	0.666701
C112	C	0.482329	-0.025836	0.000051
C113	C	0.815662	0.307497	0.333384
C114	C	1.148995	0.640831	0.666718
C115	C	0.422932	-0.025129	0.000055
C116	C	0.756265	0.308204	0.333389
C117	C	1.089598	0.641538	0.666722
C118	C	0.386160	-0.076702	0.000052
C119	C	0.719494	0.256631	0.333386
C120	C	1.052827	0.589964	0.666719
O121	O	0.334974	0.020119	0.000052
O122	O	0.668307	0.353453	0.333385
O123	O	1.001640	0.686786	0.666719
O124	O	0.308755	-0.172007	0.000054
O125	O	0.642089	0.161326	0.333387
O126	O	0.975422	0.494660	0.666721
C127	C	0.677071	0.030013	0.000072
C128	C	1.010404	0.363346	0.333405
C129	C	1.343738	0.696679	0.666738
C130	C	0.676305	0.093230	0.000076
C131	C	1.009638	0.426563	0.333409
C132	C	1.342972	0.759896	0.666743
C133	C	0.776472	-0.069388	0.000069
C134	C	1.109805	0.263945	0.333402
C135	C	1.443138	0.597278	0.666735
C136	C	0.839689	-0.070154	0.000071
C137	C	1.173022	0.263179	0.333405
C138	C	1.506355	0.596513	0.666738
C139	C	0.667577	-0.178283	0.000045
C140	C	1.000910	0.155051	0.333378
C141	C	1.334244	0.488384	0.666711
C142	C	0.668343	-0.241500	0.000036
C143	C	1.001676	0.091833	0.333370
C144	C	1.335010	0.425167	0.666703
N145	N	0.672304	-0.074155	0.153314
N146	N	1.005637	0.259179	0.486647
N147	N	1.338971	0.592512	0.819981
C148	C	0.723539	0.492333	0.000049
C149	C	1.056872	0.825666	0.333382
C150	C	1.390205	1.158999	0.666716
C151	C	0.722827	0.551733	0.000044
C152	C	1.056160	0.885066	0.333378
C153	C	1.389494	1.218400	0.666711
O154	O	0.766613	0.588478	0.000027
O155	O	1.099946	0.921811	0.333361
O156	O	1.433280	1.255144	0.666694
N157	N	0.670551	0.574359	0.000039
N158	N	1.003884	0.907693	0.333372
N159	N	1.337217	1.241026	0.666706
C160	C	0.618983	0.537582	0.000032
C161	C	0.952316	0.870915	0.333366
C162	C	1.285649	1.204248	0.666699
O163	O	0.574452	0.562281	0.000027
O164	O	0.907785	0.895615	0.333360
O165	O	1.241119	1.228948	0.666693
C166	C	0.619695	0.478182	0.000033
C167	C	0.953028	0.811516	0.333366
C168	C	1.286361	1.144849	0.666699
C169	C	0.671974	0.455560	0.000044
C170	C	1.005308	0.788893	0.333377
C171	C	1.338641	1.122227	0.666711
C172	C	0.775814	0.469710	0.000060
C173	C	1.109147	0.803043	0.333393
C174	C	1.442481	1.136376	0.666726
C175	C	0.776525	0.410313	0.000065
C176	C	1.109859	0.743647	0.333399
C177	C	1.443192	1.076980	0.666732
C178	C	0.724961	0.373540	0.000060
C179	C	1.058294	0.706874	0.333394
C180	C	1.391628	1.040207	0.666727
C181	C	0.672685	0.396164	0.000050
C182	C	1.006019	0.729497	0.333383
C183	C	1.339352	1.062830	0.666716
C184	C	0.568127	0.441406	0.000022
C185	C	0.901460	0.774739	0.333355
C186	C	1.234794	1.108073	0.666688
C187	C	0.568844	0.382004	0.000021
C188	C	0.902177	0.715337	0.333355
C189	C	1.235510	1.048670	0.666688
C190	C	0.621123	0.359381	0.000033
C191	C	0.954457	0.692714	0.333366
C192	C	1.287790	1.026048	0.666699
C193	C	0.621832	0.299995	0.000050
C194	C	0.955166	0.633328	0.333384
C195	C	1.288499	0.966661	0.666717
N196	N	0.674109	0.277368	0.000056
N197	N	1.007442	0.610702	0.333389
N198	N	1.340775	0.944035	0.666722
C199	C	0.725673	0.314141	0.000061
C200	C	1.059006	0.647475	0.333394
C201	C	1.392340	0.980808	0.666727
C202	C	0.617491	0.662324	0.000031
C203	C	0.950824	0.995657	0.333364
C204	C	1.284158	1.328991	0.666697
C205	C	0.616778	0.721722	0.000034
C206	C	0.950112	1.055055	0.333368
C207	C	1.283445	1.388389	0.666701
C208	C	0.720623	0.735869	0.000045
C209	C	1.053957	1.069203	0.333379
C210	C	1.387290	1.402536	0.666712
C211	C	0.721335	0.676470	0.000046
C212	C	1.054669	1.009804	0.333379
C213	C	1.388002	1.343137	0.666712
C214	C	0.669767	0.639698	0.000036
C215	C	1.003101	0.973031	0.333369
C216	C	1.336434	1.306365	0.666702
C217	C	0.727163	0.189405	0.000073
C218	C	1.060496	0.522738	0.333406
C219	C	1.393829	0.856071	0.666740
C220	C	0.727869	0.130003	0.000081
C221	C	1.061203	0.463336	0.333414
C222	C	1.394536	0.796669	0.666748
C223	C	0.624025	0.115860	0.000067
C224	C	0.957358	0.449194	0.333400
C225	C	1.290692	0.782527	0.666734
C226	C	0.623318	0.175257	0.000062
C227	C	0.956651	0.508591	0.333395
C228	C	1.289985	0.841924	0.666729
C229	C	0.674891	0.212029	0.000063
C230	C	1.008225	0.545362	0.333396
C231	C	1.341558	0.878695	0.666730
O232	O	0.578070	0.263215	0.000065
O233	O	0.911403	0.596549	0.333398
O234	O	1.244736	0.929882	0.666732
O235	O	0.770196	0.289433	0.000058
O236	O	1.103529	0.622767	0.333392
O237	O	1.436863	0.956100	0.666725
N238	N	0.672349	-0.074111	-0.153196
N239	N	1.005682	0.259222	0.180137
N240	N	1.339015	0.592556	0.513470
C241	C	0.711273	-0.035196	0.561965
C242	C	1.044606	0.298138	0.895298
C243	C	1.377940	0.631471	1.228631
C244	C	0.711276	-0.035192	0.623884
C245	C	1.044609	0.298142	0.957218
C246	C	1.377942	0.631475	1.290551
O247	O	0.744384	-0.002076	0.655911
O248	O	1.077718	0.331258	0.989244
O249	O	1.411051	0.664591	1.322578
N250	N	0.672334	-0.074115	0.654851
N251	N	1.005667	0.259219	0.988185
N252	N	1.339001	0.592552	1.321518
C253	C	0.633383	-0.113041	0.623895
C254	C	0.966716	0.220292	0.957228
C255	C	1.300049	0.553626	1.290562
O256	O	0.600259	-0.146147	0.655920
O257	O	0.933593	0.187186	0.989254
O258	O	1.266926	0.520519	1.322587
C259	C	0.633377	-0.113042	0.561976
C260	C	0.966711	0.220291	0.895309
C261	C	1.300044	0.553625	1.228643
C262	C	0.672326	-0.074120	0.531013
C263	C	1.005659	0.259213	0.864346
C264	C	1.338992	0.592547	1.197679
C265	C	0.750218	0.003724	0.531001
C266	C	1.083551	0.337057	0.864334
C267	C	1.416884	0.670390	1.197668
C268	C	0.750215	0.003719	0.469085
C269	C	1.083549	0.337052	0.802419
C270	C	1.416882	0.670385	1.135752
C271	C	0.711268	-0.035206	0.438133
C272	C	1.044601	0.298128	0.771467
C273	C	1.377935	0.631461	1.104800
C274	C	0.672323	-0.074125	0.469097
C275	C	1.005657	0.259208	0.802430
C276	C	1.338990	0.592542	1.135764
C277	C	0.594424	-0.151965	0.531021
C278	C	0.927757	0.181369	0.864354
C279	C	1.261091	0.514702	1.197688
C280	C	0.594422	-0.151962	0.469098
C281	C	0.927755	0.181371	0.802431
C282	C	1.261089	0.514705	1.135765
C283	C	0.633370	-0.113040	0.438134
C284	C	0.966704	0.220293	0.771468
C285	C	1.300037	0.553626	1.104801
C286	C	0.633374	-0.113054	0.376229
C287	C	0.966707	0.220279	0.709563
C288	C	1.300041	0.553613	1.042896
N289	N	0.672316	-0.074131	0.345262
N290	N	1.005649	0.259202	0.678596
N291	N	1.338983	0.592536	1.011929
C292	C	0.711263	-0.035207	0.376214
C293	C	1.044596	0.298127	0.709548
C294	C	1.377930	0.631460	1.042881
C295	C	0.633396	-0.113035	0.753928
C296	C	0.966729	0.220298	1.087262
C297	C	1.300063	0.553631	1.420595
C298	C	0.633403	-0.113037	0.815846
C299	C	0.966737	0.220296	1.149179
C300	C	1.300070	0.553629	1.482513
C301	C	0.711296	-0.035187	0.815831
C302	C	1.044629	0.298146	1.149165
C303	C	1.377962	0.631479	1.482498
C304	C	0.711291	-0.035188	0.753913
C305	C	1.044624	0.298145	1.087246
C306	C	1.377957	0.631479	1.420579
C307	C	0.672338	-0.074112	0.722962
C308	C	1.005671	0.259221	1.056295
C309	C	1.339004	0.592555	1.389628
C310	C	0.711255	-0.035220	0.246187
C311	C	1.044589	0.298113	0.579520
C312	C	1.377922	0.631446	0.912854
C313	C	0.711251	-0.035230	0.184266
C314	C	1.044584	0.298103	0.517599
C315	C	1.377918	0.631436	0.850933
C316	C	0.633357	-0.113078	0.184286
C317	C	0.966690	0.220255	0.517619
C318	C	1.300023	0.553588	0.850953
C319	C	0.633363	-0.113071	0.246202
C320	C	0.966696	0.220263	0.579535
C321	C	1.300029	0.553596	0.912869
C322	C	0.672314	-0.074137	0.277151
C323	C	1.005648	0.259196	0.610484
C324	C	1.338981	0.592530	0.943818
O325	O	0.600281	-0.146152	0.344163
O326	O	0.933614	0.187182	0.677497
O327	O	1.266948	0.520515	1.010830
O328	O	0.744376	-0.002101	0.344182
O329	O	1.077709	0.331233	0.677515
O330	O	1.411042	0.664566	1.010848
H331	H	0.486602	-0.172255	0.000024
H332	H	0.819935	0.161079	0.333357
H333	H	1.153269	0.494412	0.666691
H334	H	0.575496	0.632386	0.000028
H335	H	0.908829	0.965720	0.333361
H336	H	1.242162	1.299053	0.666694
C337	C	0.788763	-0.022378	0.114533
C338	C	1.122096	0.310955	0.447867
C339	C	1.455430	0.644288	0.781200
C340	C	0.753989	0.007595	0.150187
C341	C	1.087322	0.340929	0.483521
C342	C	1.420656	0.674262	0.816854
H343	H	0.815125	0.004073	0.093487
H344	H	1.148458	0.337406	0.426820
H345	H	1.481792	0.670740	0.760153
H346	H	0.765565	-0.045594	0.087273
H347	H	1.098898	0.287739	0.420606
H348	H	1.432232	0.621073	0.753940
H349	H	0.809190	-0.045934	0.138664
H350	H	1.142523	0.287399	0.471997
H351	H	1.475857	0.620732	0.805331
H352	H	0.733559	0.031149	0.126056
H353	H	1.066892	0.364482	0.459390
H354	H	1.400225	0.697815	0.792723
H355	H	0.777190	0.030821	0.177451
H356	H	1.110523	0.364155	0.510784
H357	H	1.443857	0.697488	0.844118
H358	H	-0.167632	-0.164421	0.000059
H359	H	0.165701	0.168913	0.333392
H360	H	0.499035	0.502246	0.666725
C361	C	0.579669	0.019171	0.000063
C362	C	0.913002	0.352504	0.333396
C363	C	1.246336	0.685837	0.666730
C364	C	0.522757	0.030842	0.000063
C365	C	0.856090	0.364175	0.333397
C366	C	1.189424	0.697508	0.666730
H367	H	0.604628	0.054162	0.000078
H368	H	0.937961	0.387495	0.333411
H369	H	1.271294	0.720829	0.666744
H370	H	0.586494	-0.002267	-0.034245
H371	H	0.919827	0.331066	0.299088
H372	H	1.253160	0.664400	0.632422
H373	H	0.586484	-0.002291	0.034362
H374	H	0.919817	0.331042	0.367696
H375	H	1.253150	0.664376	0.701029
H376	H	0.515941	0.052300	-0.034239
H377	H	0.849274	0.385633	0.299095
H378	H	1.182608	0.718967	0.632428
H379	H	0.515929	0.052289	0.034375
H380	H	0.849263	0.385622	0.367708
H381	H	1.182596	0.718955	0.701041
H382	H	-0.141947	0.023982	0.000076
H383	H	0.191387	0.357315	0.333409
H384	H	0.524720	0.690648	0.666742
C385	C	0.176758	0.132632	0.000129
C386	C	0.510092	0.465965	0.333462
C387	C	0.843425	0.799299	0.666796
C388	C	0.131927	0.087531	0.000115
C389	C	0.465260	0.420864	0.333448
C390	C	0.798594	0.754197	0.666782
H391	H	0.161413	0.168112	0.000148
H392	H	0.494746	0.501446	0.333481
H393	H	0.828080	0.834779	0.666815
H394	H	0.199629	0.130201	-0.034176
H395	H	0.532962	0.463535	0.299157
H396	H	0.866295	0.796868	0.632491
H397	H	0.199632	0.130174	0.034431
H398	H	0.532965	0.463507	0.367765
H399	H	0.866299	0.796840	0.701098
H400	H	0.109056	0.089986	-0.034190
H401	H	0.442389	0.423320	0.299144
H402	H	0.775723	0.756653	0.632477
H403	H	0.109047	0.089962	0.034423
H404	H	0.442381	0.423296	0.367757
H405	H	0.775714	0.756629	0.701090
H406	H	-0.034198	0.022693	0.000084
H407	H	0.299136	0.356027	0.333417
H408	H	0.632469	0.689360	0.666751
C409	C	0.291194	0.088802	-0.050465
C410	C	0.624527	0.422135	0.282869
C411	C	0.957861	0.755468	0.616202
C412	C	0.256607	0.086031	0.000104
C413	C	0.589941	0.419364	0.333437
C414	C	0.923274	0.752697	0.666771
H415	H	0.316150	0.123795	-0.050457
H416	H	0.649483	0.457128	0.282877
H417	H	0.982817	0.790461	0.616210
H418	H	0.267728	0.086928	-0.084760
H419	H	0.601061	0.420262	0.248573
H420	H	0.934394	0.753595	0.581906
H421	H	0.313168	0.057564	-0.050466
H422	H	0.646502	0.390898	0.282868
H423	H	0.979835	0.724231	0.616201
H424	H	0.234630	0.117266	0.000103
H425	H	0.567963	0.450599	0.333436
H426	H	0.901296	0.783933	0.666769
H427	H	0.280076	0.087910	0.034408
H428	H	0.613410	0.421243	0.367742
H429	H	0.946743	0.754576	0.701075
C430	C	0.788841	-0.022453	0.315801
C431	C	1.122175	0.310880	0.649134
C432	C	1.455508	0.644213	0.982468
C433	C	0.754073	0.007574	0.280200
C434	C	1.087406	0.340907	0.613533
C435	C	1.420739	0.674241	0.946867
H436	H	0.815273	0.003966	0.336800
H437	H	1.148607	0.337299	0.670134
H438	H	1.481940	0.670632	1.003467
H439	H	0.809183	-0.046057	0.291645
H440	H	1.142517	0.287276	0.624978
H441	H	1.475850	0.620610	0.958311
H442	H	0.765645	-0.045625	0.343109
H443	H	1.098978	0.287708	0.676442
H444	H	1.432312	0.621041	1.009775
H445	H	0.777269	0.030743	0.252889
H446	H	1.110602	0.364076	0.586223
H447	H	1.443936	0.697410	0.919556
H448	H	0.733729	0.031188	0.304358
H449	H	1.067063	0.364521	0.637692
H450	H	1.400396	0.697854	0.971025
C451	C	0.827804	0.016481	0.600614
C452	C	1.161137	0.349814	0.933947
C453	C	1.494470	0.683147	1.267281
C454	C	0.793034	0.046512	0.565018
C455	C	1.126368	0.379845	0.898352
C456	C	1.459701	0.713178	1.231685
H457	H	0.854238	0.042897	0.621614
H458	H	1.187571	0.376230	0.954947
H459	H	1.520905	0.709564	1.288280
H460	H	0.848143	-0.007122	0.576454
H461	H	1.181477	0.326211	0.909787
H462	H	1.514810	0.659544	1.243121
H463	H	0.804608	-0.006693	0.627921
H464	H	1.137942	0.326640	0.961255
H465	H	1.471275	0.659974	1.294588
H466	H	0.816229	0.069682	0.537708
H467	H	1.149563	0.403015	0.871041
H468	H	1.482896	0.736349	1.204375
H469	H	0.772693	0.070124	0.589180
H470	H	1.106026	0.403458	0.922514
H471	H	1.439360	0.736791	1.255847
H472	H	0.580748	0.193677	0.000069
H473	H	0.914081	0.527011	0.333403
H474	H	1.247414	0.860344	0.666736
H475	H	0.781929	0.035414	0.443878
H476	H	1.115262	0.368747	0.777212
H477	H	1.448595	0.702080	1.110545
C478	C	0.788282	0.041762	0.760132
C479	C	1.121615	0.375096	1.093465
C480	C	1.454949	0.708429	1.426799
C481	C	0.754099	0.007600	0.719881
C482	C	1.087432	0.340934	1.053214
C483	C	1.420766	0.674267	1.386547
H484	H	0.814708	0.068182	0.739123
H485	H	1.148041	0.401515	1.072456
H486	H	1.481374	0.734848	1.405790
H487	H	0.808632	0.018157	0.784276
H488	H	1.141965	0.351490	1.117609
H489	H	1.475299	0.684824	1.450942
H490	H	0.764688	0.062124	0.784289
H491	H	1.098021	0.395457	1.117622
H492	H	1.431355	0.728791	1.450956
H493	H	0.777693	-0.012765	0.695726
H494	H	1.111026	0.320569	1.029060
H495	H	1.444359	0.653902	1.362393
H496	H	0.733748	0.031209	0.695727
H497	H	1.067081	0.364542	1.029060
H498	H	1.400414	0.697875	1.362393
H499	H	0.404512	0.017441	0.000056
H500	H	0.737845	0.350775	0.333390
H501	H	1.071178	0.684108	0.666723
H502	H	0.762610	0.765821	0.000047
H503	H	1.095943	1.099154	0.333380
H504	H	1.429276	1.432488	0.666714
H505	H	0.743008	-0.003492	0.841044
H506	H	1.076341	0.329841	1.174377
H507	H	1.409675	0.663175	1.507710
H508	H	0.378851	-0.170970	0.000041
H509	H	0.712185	0.162363	0.333375
H510	H	1.045518	0.495697	0.666708
H511	H	0.770443	0.111587	0.000092
H512	H	1.103777	0.444920	0.333425
H513	H	1.437110	0.778254	0.666759
C514	C	0.556410	-0.189987	0.809626
C515	C	0.889743	0.143347	1.142959
C516	C	1.223076	0.476680	1.476292
C517	C	0.590593	-0.155825	0.849877
C518	C	0.923926	0.177509	1.183210
C519	C	1.257260	0.510842	1.516544
H520	H	0.529976	-0.216398	0.830635
H521	H	0.863309	0.116935	1.163968
H522	H	1.196643	0.450269	1.497301
H523	H	0.579999	-0.210353	0.785477
H524	H	0.913332	0.122981	1.118810
H525	H	1.246665	0.456314	1.452144
H526	H	0.536064	-0.166376	0.785474
H527	H	0.869398	0.166957	1.118807
H528	H	1.202731	0.500290	1.452140
H529	H	0.610942	-0.179435	0.874026
H530	H	0.944275	0.153899	1.207360
H531	H	1.277609	0.487232	1.540693
H532	H	0.567001	-0.135457	0.874036
H533	H	0.900334	0.197876	1.207369
H534	H	1.233668	0.531209	1.540703
H535	H	0.769159	0.219337	0.000071
H536	H	1.102492	0.552671	0.333405
H537	H	1.435826	0.886004	0.666738
C538	C	0.879096	0.430282	0.000070
C539	C	1.212429	0.763615	0.333403
C540	C	1.545763	1.096949	0.666736
C541	C	0.833993	0.385452	0.000070
C542	C	1.167327	0.718785	0.333403
C543	C	1.500660	1.052119	0.666736
H544	H	0.914576	0.414935	0.000067
H545	H	1.247909	0.748269	0.333401
H546	H	1.581242	1.081602	0.666734
H547	H	0.876652	0.453153	0.034371
H548	H	1.209985	0.786486	0.367704
H549	H	1.543318	1.119820	0.701037
H550	H	0.876653	0.453155	-0.034237
H551	H	1.209986	0.786488	0.299097
H552	H	1.543320	1.119822	0.632430
H553	H	0.836434	0.362581	0.034378
H554	H	1.169767	0.695915	0.367712
H555	H	1.503100	1.029248	0.701045
H556	H	0.836439	0.362571	-0.034235
H557	H	1.169772	0.695905	0.299098
H558	H	1.503105	1.029238	0.632432
H559	H	0.601677	-0.144736	0.728731
H560	H	0.935010	0.188597	1.062065
H561	H	1.268344	0.521930	1.395398
C562	C	0.517423	-0.228903	0.524789
C563	C	0.850756	0.104430	0.858123
C564	C	1.184090	0.437764	1.191456
C565	C	0.551607	-0.194747	0.565045
C566	C	0.884941	0.138586	0.898378
C567	C	1.218274	0.471919	1.231712
H568	H	0.490986	-0.255314	0.545795
H569	H	0.824319	0.078019	0.879128
H570	H	1.157653	0.411353	1.212462
H571	H	0.541011	-0.249270	0.500640
H572	H	0.874344	0.084064	0.833973
H573	H	1.207678	0.417397	1.167307
H574	H	0.497081	-0.205288	0.500638
H575	H	0.830415	0.128045	0.833972
H576	H	1.163748	0.461378	1.167305
H577	H	0.571952	-0.218362	0.589193
H578	H	0.905286	0.114972	0.922527
H579	H	1.238619	0.448305	1.255860
H580	H	0.528016	-0.174379	0.589205
H581	H	0.861350	0.158954	0.922538
H582	H	1.194683	0.492287	1.255871
H583	H	0.562700	-0.183658	0.443901
H584	H	0.896033	0.149675	0.777234
H585	H	1.229367	0.483009	1.110567
C586	C	0.556363	-0.190016	0.239994
C587	C	0.889696	0.143317	0.573327
C588	C	1.223029	0.476651	0.906660
C589	C	0.590549	-0.155851	0.280241
C590	C	0.923882	0.177482	0.613574
C591	C	1.257215	0.510815	0.946907
H592	H	0.529925	-0.216420	0.261006
H593	H	0.863258	0.116913	0.594339
H594	H	1.196592	0.450246	0.927673
H595	H	0.579949	-0.210390	0.215850
H596	H	0.913283	0.122944	0.549184
H597	H	1.246616	0.456277	0.882517
H598	H	0.536022	-0.166406	0.215836
H599	H	0.869355	0.166927	0.549169
H600	H	1.202688	0.500260	0.882503
H601	H	0.610893	-0.179461	0.304396
H602	H	0.944226	0.153873	0.637729
H603	H	1.277560	0.487206	0.971062
H604	H	0.566959	-0.135476	0.304394
H605	H	0.900292	0.197857	0.637728
H606	H	1.233626	0.531191	0.971061
H607	H	0.601648	-0.144772	0.159075
H608	H	0.934981	0.188562	0.492409
H609	H	1.268315	0.521895	0.825742
C610	C	0.194078	-0.267065	-0.050533
C611	C	0.527411	0.066268	0.282800
C612	C	0.860744	0.399601	0.616133
C613	C	0.212729	-0.235808	0.000037
C614	C	0.546062	0.097525	0.333370
C615	C	0.879396	0.430858	0.666703
H616	H	0.209414	-0.302551	-0.050535
H617	H	0.542747	0.030783	0.282799
H618	H	0.876080	0.364116	0.616132
H619	H	0.206731	-0.245849	-0.084828
H620	H	0.540065	0.087484	0.248505
H621	H	0.873398	0.420818	0.581839
H622	H	0.153438	-0.274002	-0.050527
H623	H	0.486771	0.059331	0.282806
H624	H	0.820104	0.392664	0.616140
H625	H	0.253369	-0.228868	0.000028
H626	H	0.586702	0.104465	0.333361
H627	H	0.920036	0.437799	0.666695
H628	H	0.200079	-0.257029	0.034340
H629	H	0.533412	0.076304	0.367673
H630	H	0.866745	0.409637	0.701007
H631	H	0.574207	0.740136	0.000035
H632	H	0.907540	1.073469	0.333369
H633	H	1.240874	1.406802	0.666702
H634	H	-0.059867	-0.165717	0.000055
H635	H	0.273467	0.167616	0.333389
H636	H	0.606800	0.500950	0.666722
C637	C	0.053485	-0.237066	-0.050533
C638	C	0.386818	0.096267	0.282801
C639	C	0.720151	0.429600	0.616134
C640	C	0.088064	-0.234311	0.000038
C641	C	0.421397	0.099022	0.333371
C642	C	0.754730	0.432356	0.666704
H643	H	0.028535	-0.272063	-0.050541
H644	H	0.361868	0.061270	0.282792
H645	H	0.695201	0.394603	0.616126
H646	H	0.076957	-0.235174	-0.084827
H647	H	0.410290	0.098159	0.248506
H648	H	0.743623	0.431492	0.581839
H649	H	0.031504	-0.205834	-0.050520
H650	H	0.364837	0.127499	0.282814
H651	H	0.698171	0.460833	0.616147
H652	H	0.110047	-0.265541	0.000022
H653	H	0.443381	0.067792	0.333355
H654	H	0.776714	0.401125	0.666689
H655	H	0.064589	-0.236209	0.034341
H656	H	0.397922	0.097125	0.367674
H657	H	0.731255	0.430458	0.701008
H658	H	0.525555	0.459814	0.000009
H659	H	0.858889	0.793148	0.333342
H660	H	1.192222	1.126481	0.666675
H661	H	0.763906	0.658056	0.000054
H662	H	1.097239	0.991389	0.333388
H663	H	1.430573	1.324722	0.666721
C664	C	0.820850	0.567044	0.000061
C665	C	1.154183	0.900377	0.333394
C666	C	1.487517	1.233711	0.666728
C667	C	0.832500	0.510125	0.000064
C668	C	1.165833	0.843459	0.333398
C669	C	1.499167	1.176792	0.666731
H670	H	0.855849	0.591991	0.000063
H671	H	1.189182	0.925324	0.333396
H672	H	1.522516	1.258658	0.666730
H673	H	0.799400	0.573873	0.034359
H674	H	1.132733	0.907206	0.367693
H675	H	1.466066	1.240539	0.701026
H676	H	0.799408	0.573871	-0.034248
H677	H	1.132742	0.907205	0.299085
H678	H	1.466075	1.240538	0.632419
H679	H	0.853938	0.503297	0.034376
H680	H	1.187272	0.836630	0.367709
H681	H	1.520605	1.169963	0.701043
H682	H	0.853960	0.503294	-0.034237
H683	H	1.187293	0.836627	0.299096
H684	H	1.520626	1.169961	0.632429
C685	C	0.466125	0.373990	0.000004
C686	C	0.799458	0.707324	0.333337
C687	C	1.132791	1.040657	0.666671
C688	C	0.512157	0.341584	0.000013
C689	C	0.845490	0.674917	0.333346
C690	C	1.178823	1.008251	0.666680
H691	H	0.431130	0.349037	0.000003
H692	H	0.764463	0.682370	0.333336
H693	H	1.097797	1.015703	0.666670
H694	H	0.468016	0.397449	-0.034299
H695	H	0.801349	0.730782	0.299034
H696	H	1.134682	1.064116	0.632368
H697	H	0.468006	0.397456	0.034308
H698	H	0.801339	0.730790	0.367642
H699	H	1.134672	1.064123	0.700975
H700	H	0.510278	0.318121	-0.034294
H701	H	0.843611	0.651454	0.299040
H702	H	1.176945	0.984788	0.632373
H703	H	0.510265	0.318115	0.034319
H704	H	0.843598	0.651449	0.367653
H705	H	1.176931	0.984782	0.700986
C706	C	0.521306	0.107828	0.000047
C707	C	0.854639	0.441161	0.333380
C708	C	1.187973	0.774495	0.666713
C709	C	0.567347	0.075433	0.000058
C710	C	0.900680	0.408766	0.333391
C711	C	1.234013	0.742099	0.666724
H712	H	0.486316	0.082867	0.000041
H713	H	0.819649	0.416201	0.333374
H714	H	1.152983	0.749534	0.666707
H715	H	0.523195	0.131290	-0.034254
H716	H	0.856529	0.464623	0.299079
H717	H	1.189862	0.797956	0.632413
H718	H	0.523179	0.131291	0.034353
H719	H	0.856512	0.464624	0.367687
H720	H	1.189845	0.797957	0.701020
H721	H	0.565476	0.051973	-0.034251
H722	H	0.898810	0.385306	0.299082
H723	H	1.232143	0.718640	0.632415
H724	H	0.565456	0.051961	0.034362
H725	H	0.898790	0.385294	0.367695
H726	H	1.232123	0.718628	0.701029
