data_functionalizedCrystal
_audit_creation_method	'MofGen! by Chris Wilmer'
_symmetry_space_group_name_H-M	'P1'
_symmetry_Int_Tables_number	1
_symmetry_cell_setting	triclinic
loop_
_symmetry_equiv_pos_as_xyz
  x,y,z
_cell_length_a	10.654550
_cell_length_b	10.489711
_cell_length_c	9.130313
_cell_angle_alpha	90.002424
_cell_angle_beta	90.000042
_cell_angle_gamma	84.505956
loop_
_atom_site_label
_atom_site_type_symbol
_atom_site_fract_x
_atom_site_fract_y
_atom_site_fract_z
O1	O	1.667899	0.179159	-0.121777
O2	O	1.302427	0.196228	-0.121781
O3	O	1.493499	0.002089	-0.121783
O4	O	1.476827	0.373298	-0.121775
O5	O	1.493496	0.002094	0.121816
O6	O	1.302425	0.196233	0.121818
O7	O	1.667897	0.179164	0.121822
Cu8	Cu	1.485160	0.187699	0.144063
Cu9	Cu	1.485163	0.187693	-0.144021
O10	O	1.476825	0.373303	0.121824
C11	C	1.255627	0.194978	0.000018
C12	C	1.116183	0.191228	0.000016
C13	C	1.492246	-0.045440	0.000013
C14	C	1.488503	-0.187069	0.000000
C15	C	1.603408	-0.369512	0.000016
C16	C	1.546010	-0.277337	0.120121
C17	C	1.545981	-0.277366	-0.120048
C18	C	1.424373	-0.347229	0.120233
C19	C	1.424361	-0.347268	-0.120045
C20	C	1.366875	-0.255121	0.000090
C21	C	1.714696	0.180414	0.000020
C22	C	1.854141	0.184164	0.000012
C23	C	1.933585	0.069858	0.000004
C24	C	2.064607	0.073389	0.000011
C25	C	2.036728	0.305542	0.000029
C26	C	1.905709	0.302010	0.000032
C27	C	1.882018	-0.047987	-0.000015
C28	C	1.961463	-0.162303	-0.000025
C29	C	2.092485	-0.158772	-0.000018
C30	C	2.144062	-0.040925	-0.000001
C31	C	1.478077	0.420832	0.000025
C32	C	1.481821	0.562461	0.000028
N33	N	1.485168	0.187703	0.346685
N34	N	1.485166	0.187679	-0.346644
C35	C	1.569796	0.101767	0.423336
C36	C	1.569793	0.101752	0.576673
C37	C	1.400528	0.273619	0.576694
C38	C	1.400527	0.273627	0.423360
C39	C	1.654437	0.015843	0.346661
C40	C	1.739073	-0.070098	0.423312
C41	C	1.739070	-0.070113	0.576649
C42	C	1.654430	0.015813	0.653335
H43	H	1.703343	-0.419250	0.000136
C44	C	1.654432	0.015791	0.822011
N45	N	1.654440	0.015779	0.949056
C46	C	1.832156	-0.164628	0.338956
N47	N	1.902263	-0.235833	0.275420
C48	C	1.832153	-0.164667	0.660961
N49	N	1.902267	-0.235888	0.724462
H50	H	1.654450	0.015850	0.221807
C51	C	1.307403	0.368132	0.339039
N52	N	1.237247	0.439303	0.275529
H53	H	1.597450	-0.246434	-0.221586
C54	C	2.179871	-0.284519	-0.000020
N55	N	2.245689	-0.379237	-0.000029
H56	H	1.775334	-0.050876	-0.000025
H57	H	1.372957	-0.378265	-0.221591
H58	H	2.250750	-0.038059	0.000019
C59	C	1.615507	-0.235512	0.257306
N60	N	1.667858	-0.204018	0.360631
C61	C	1.904726	-0.291927	-0.000036
N62	N	1.861993	-0.389562	-0.000044
C63	C	1.307433	0.368132	0.661055
N64	N	1.237313	0.439323	0.724595
C65	C	1.354935	-0.388812	0.257570
N66	N	1.302642	-0.420135	0.361013
H67	H	1.266850	-0.205608	0.000155
C68	C	2.093469	0.435165	0.000034
N69	N	2.136206	0.532798	0.000032
H70	H	1.841023	0.395088	0.000044
