data_functionalizedCrystal
_audit_creation_method	'MofGen! by Chris Wilmer'
_symmetry_space_group_name_H-M	'P1'
_symmetry_Int_Tables_number	1
_symmetry_cell_setting	triclinic
loop_
_symmetry_equiv_pos_as_xyz
  x,y,z
_cell_length_a	12.759401
_cell_length_b	19.121063
_cell_length_c	12.759393
_cell_angle_alpha	92.402542
_cell_angle_beta	89.982961
_cell_angle_gamma	92.469017
loop_
_atom_site_label
_atom_site_type_symbol
_atom_site_fract_x
_atom_site_fract_y
_atom_site_fract_z
Zn1	Zn	1.588306	-0.279566	-0.611771
Zn2	Zn	1.580669	-0.397035	-0.443566
Zn3	Zn	1.412610	-0.279603	-0.436113
Zn4	Zn	1.405064	-0.396981	-0.619204
O5	O	1.496662	-0.338296	-0.527664
O6	O	1.734313	-0.295156	-0.589467
O7	O	1.558337	-0.381496	-0.295559
O8	O	1.442270	-0.181314	-0.453184
O9	O	1.728703	-0.381460	-0.465888
O10	O	1.571353	-0.181287	-0.582240
O11	O	1.434865	-0.295220	-0.290083
O12	O	1.264588	-0.295167	-0.460392
O13	O	1.429410	-0.381367	-0.765237
O14	O	1.259045	-0.381403	-0.594908
O15	O	1.564037	-0.295103	-0.759776
O16	O	1.551021	-0.495312	-0.473095
O17	O	1.422005	-0.495272	-0.602136
C18	C	1.223696	-0.338283	-0.527649
C19	C	1.106918	-0.338295	-0.527668
C20	C	1.484894	-0.520776	-0.539254
C21	C	1.479955	-0.598842	-0.544247
C22	C	1.049193	-0.383270	-0.597604
C23	C	0.939468	-0.383279	-0.597616
C24	C	0.945205	-0.293335	-0.457747
C25	C	1.054927	-0.293323	-0.457741
C26	C	1.045879	-0.435201	-0.678354
C27	C	0.936155	-0.435209	-0.678366
C28	C	1.544859	-0.635515	-0.479464
C29	C	1.540220	-0.708866	-0.484167
C30	C	1.470672	-0.745542	-0.553647
C31	C	1.405766	-0.708864	-0.618437
C32	C	1.410410	-0.635515	-0.613740
C33	C	1.453290	-0.967011	-0.571195
C34	C	1.448649	-1.040365	-0.575886
C35	C	1.583105	-1.040362	-0.441616
C36	C	1.587739	-0.967011	-0.436920
C37	C	1.522837	-0.930339	-0.501714
C38	C	1.465927	-0.820519	-0.558453
C39	C	1.527588	-0.855364	-0.496912
C40	C	1.770695	-0.338310	-0.527680
C41	C	1.887471	-0.338316	-0.527686
C42	C	1.496733	-0.338225	-0.801693
C43	C	1.496764	-0.338194	-0.918467
C44	C	1.508505	-0.155104	-0.516052
C45	C	1.513552	-0.077038	-0.511103
C46	C	1.426732	-0.383075	-1.085897
C47	C	1.426690	-0.383095	-0.976175
C48	C	1.566876	-0.293264	-0.970488
C49	C	1.566912	-0.293241	-1.080209
C50	C	1.345799	-0.434941	-1.089179
C51	C	1.345758	-0.434961	-0.979457
C52	C	1.496655	-0.338317	-0.254698
C53	C	1.496841	-0.338150	-0.137911
H54	H	1.101924	-0.256696	-0.400799
O55	O	1.086554	-0.503607	-0.643918
H56	H	1.173610	-0.500775	-0.645323
O57	O	1.642525	-0.244778	-1.136303
H58	H	1.597820	-0.209030	-1.184021
O59	O	1.373636	-1.079934	-0.650826
H60	H	1.392510	-1.065815	-0.732398
O61	O	1.653106	-1.079919	-0.371742
H62	H	1.702242	-1.042092	-0.322634
O63	O	1.245031	-0.409146	-0.932745
H64	H	1.178086	-0.443580	-0.961816
O65	O	1.642462	-0.244834	-0.908255
H66	H	1.630666	-0.252400	-0.823220
H67	H	0.903401	-0.415793	-0.754482
H68	H	0.902871	-0.489592	-0.659894
O69	O	1.383260	-0.927461	-0.641044
H70	H	1.334103	-0.965290	-0.690127
H71	H	1.601488	-0.605657	-0.422881
H72	H	1.593071	-0.738722	-0.431413
H73	H	1.644371	-0.937150	-0.380343
H74	H	1.349142	-0.738732	-0.675015
H75	H	1.357560	-0.605656	-0.666494
H76	H	1.265380	-0.420364	-1.118034
O77	O	1.602612	-0.815806	-0.421990
H78	H	1.557735	-0.782441	-0.366360
H79	H	1.371618	-0.486605	-1.126481
H80	H	1.364082	-0.489355	-0.953119
H81	H	0.902860	-0.256721	-0.400815
H82	H	1.076616	-0.420694	-0.758838
O83	O	1.390898	-0.860084	-0.633370
H84	H	1.435772	-0.893454	-0.688995
