data_functionalizedCrystal
_audit_creation_method	'MofGen! by Chris Wilmer'
_symmetry_space_group_name_H-M	'P1'
_symmetry_Int_Tables_number	1
_symmetry_cell_setting	triclinic
loop_
_symmetry_equiv_pos_as_xyz
  x,y,z
_cell_length_a	14.853567
_cell_length_b	14.853567
_cell_length_c	13.930277
_cell_angle_alpha	90.000757
_cell_angle_beta	89.995144
_cell_angle_gamma	96.365070
loop_
_atom_site_label
_atom_site_type_symbol
_atom_site_fract_x
_atom_site_fract_y
_atom_site_fract_z
O1	O	1.196368	-0.117704	-0.079770
O2	O	1.696368	0.382296	0.420230
O3	O	0.933909	-0.131725	-0.079782
O4	O	1.433909	0.368275	0.420218
O5	O	1.072149	0.006516	-0.079779
O6	O	1.572149	0.506516	0.420221
O7	O	1.058128	-0.255944	-0.079774
O8	O	1.558128	0.244056	0.420226
O9	O	1.072130	0.006519	0.079883
O10	O	1.572130	0.506519	0.579883
O11	O	0.933890	-0.131722	0.079879
O12	O	1.433890	0.368278	0.579879
O13	O	1.196349	-0.117701	0.079892
O14	O	1.696349	0.382299	0.579892
Zn15	Zn	1.065116	-0.124711	0.105235
Zn16	Zn	1.565116	0.375289	0.605235
Zn17	Zn	1.065142	-0.124715	-0.105126
Zn18	Zn	1.565142	0.375285	0.394874
O19	O	1.058109	-0.255941	0.079888
O20	O	1.558109	0.244059	0.579888
C21	C	1.071504	0.040106	0.000049
C22	C	1.571504	0.540106	0.500049
C23	C	1.069601	0.140189	0.000041
C24	C	1.569601	0.640189	0.500041
C25	C	0.900311	-0.131088	0.000047
C26	C	1.400311	0.368912	0.500047
C27	C	0.800227	-0.129184	0.000042
C28	C	1.300227	0.370816	0.500042
C29	C	1.229947	-0.118337	0.000061
C30	C	1.729947	0.381663	0.500061
C31	C	1.330031	-0.120241	0.000059
C32	C	1.830031	0.379759	0.500059
C33	C	1.742565	-0.210407	0.000044
C34	C	2.242565	0.289593	0.500044
C35	C	1.763846	-0.046174	0.000041
C36	C	2.263846	0.453826	0.500041
C37	C	1.669812	-0.044384	0.000047
C38	C	2.169812	0.455616	0.500047
C39	C	1.612150	-0.125607	0.000049
C40	C	2.112150	0.374393	0.500049
C41	C	1.648522	-0.208619	0.000047
C42	C	2.148522	0.291381	0.500047
C43	C	1.633433	0.038627	0.000040
C44	C	2.133433	0.538627	0.500040
C45	C	1.539394	0.040421	0.000044
C46	C	2.039394	0.540421	0.500044
C47	C	1.481730	-0.040803	0.000053
C48	C	1.981730	0.459197	0.500053
C49	C	1.518108	-0.123819	0.000052
C50	C	2.018108	0.376181	0.500052
C51	C	1.460446	-0.205042	0.000054
C52	C	1.960446	0.294958	0.500054
C53	C	1.496821	-0.288059	0.000060
C54	C	1.996821	0.211941	0.500060
C55	C	1.590859	-0.289843	0.000056
C56	C	2.090859	0.210157	0.500056
C57	C	1.387693	-0.039019	0.000057
C58	C	1.887693	0.460981	0.500057
C59	C	1.366403	-0.203254	0.000057
C60	C	1.866403	0.296746	0.500057
C61	C	1.058754	-0.289531	0.000058
C62	C	1.558754	0.210469	0.500058
C63	C	1.060657	-0.389615	0.000060
C64	C	1.560657	0.110385	0.500060
N65	N	1.065106	-0.124708	0.248801
N66	N	1.565106	0.375292	0.748801
C67	C	0.979435	0.552723	0.000055
C68	C	1.479435	1.052723	0.500055
C69	C	1.143668	0.574004	0.000063
C70	C	1.643668	1.074004	0.500063
C71	C	1.145458	0.479971	0.000057
C72	C	1.645458	0.979971	0.500057
C73	C	1.064235	0.422309	0.000052
C74	C	1.564235	0.922309	0.500052
C75	C	0.981223	0.458680	0.000052
C76	C	1.481223	0.958680	0.500052
C77	C	1.228469	0.443591	0.000066
C78	C	1.728469	0.943591	0.500066
C79	C	1.230262	0.349552	0.000062
C80	C	1.730262	0.849552	0.500062
C81	C	1.149039	0.291889	0.000050
C82	C	1.649039	0.791889	0.500050
C83	C	1.066023	0.328266	0.000049
C84	C	1.566023	0.828266	0.500049
C85	C	0.984800	0.270604	0.000044
C86	C	1.484800	0.770604	0.500044
C87	C	0.901783	0.306979	0.000036
C88	C	1.401783	0.806979	0.500036
C89	C	0.899999	0.401017	0.000040
C90	C	1.399999	0.901017	0.500040
C91	C	1.150823	0.197851	0.000046
C92	C	1.650823	0.697851	0.500046
C93	C	0.986588	0.176561	0.000041
C94	C	1.486588	0.676561	0.500041
N95	N	1.065160	-0.124711	-0.248692
N96	N	1.565160	0.375289	0.251308
C97	C	1.003926	-0.185904	0.701069
C98	C	1.503926	0.314096	1.201069
C99	C	1.126382	-0.063519	0.701042
C100	C	1.626382	0.436481	1.201042
C101	C	1.126371	-0.063516	0.600546
C102	C	1.626371	0.436484	1.100546
C103	C	1.065138	-0.124709	0.550307
C104	C	1.565138	0.375291	1.050307
C105	C	1.003916	-0.185904	0.600564
C106	C	1.503916	0.314096	1.100564
C107	C	1.187598	-0.002328	0.550282
C108	C	1.687598	0.497672	1.050282
C109	C	1.187591	-0.002323	0.449780
C110	C	1.687591	0.497677	0.949780
C111	C	1.126353	-0.063512	0.399539
C112	C	1.626353	0.436488	0.899539
C113	C	1.065127	-0.124710	0.449802
C114	C	1.565127	0.375290	0.949802
C115	C	1.003894	-0.185902	0.399563
C116	C	1.503894	0.314098	0.899563
C117	C	0.942664	-0.247096	0.449825
C118	C	1.442664	0.252904	0.949825
C119	C	0.942677	-0.247094	0.550323
C120	C	1.442677	0.252906	1.050323
C121	C	1.126339	-0.063515	0.299040
C122	C	1.626339	0.436485	0.799040
C123	C	1.003883	-0.185903	0.299058
C124	C	1.503883	0.314097	0.799058
H125	H	1.319460	-0.269396	0.000065
H126	H	1.819460	0.230604	0.500065
F127	F	1.230105	0.635374	0.000082
F128	F	1.730105	1.135374	0.500082
F129	F	1.500689	0.128773	0.000032
F130	F	2.000689	0.628773	0.500032
H131	H	1.449861	-0.354190	0.000056
H132	H	1.949861	0.145810	0.500056
H133	H	0.892811	-0.296924	0.408909
H134	H	1.392811	0.203076	0.908909
H135	H	1.620484	-0.357431	0.000059
H136	H	2.120484	0.142569	0.500059
F137	F	0.815343	0.245601	0.000038
F138	F	1.315343	0.745601	0.500038
F139	F	1.781278	-0.298755	0.000052
F140	F	2.281278	0.201245	0.500052
F141	F	1.825215	0.040263	0.000035
F142	F	2.325215	0.540263	0.500035
H143	H	1.680388	0.104754	0.000033
H144	H	2.180388	0.604754	0.500033
F145	F	0.877518	-0.312217	0.603818
F146	F	1.377518	0.187783	1.103818
F147	F	1.252754	0.062805	0.396295
F148	F	1.752754	0.562805	0.896295
H149	H	1.358080	0.028572	0.000046
H150	H	1.858080	0.528572	0.500046
F151	F	0.938705	-0.251030	0.245598
F152	F	1.438705	0.248970	0.745598
H153	H	1.176196	-0.013696	0.258122
H154	H	1.676196	0.486304	0.758122
H155	H	0.832411	0.430643	0.000035
H156	H	1.332411	0.930643	0.500035
F157	F	1.191553	0.001598	0.754509
F158	F	1.691553	0.501598	1.254509
F159	F	0.900137	0.115200	0.000029
F160	F	1.400137	0.615200	0.500029
H161	H	0.911844	0.582344	0.000045
H162	H	1.411844	1.082344	0.500045
F163	F	1.314905	0.504963	0.000090
F164	F	1.814905	1.004963	0.500090
F165	F	1.318615	0.310847	0.000058
F166	F	1.818615	0.810847	0.500058
F167	F	1.239169	0.159141	0.000070
F168	F	1.739169	0.659141	0.500070
F169	F	1.252770	0.062790	0.603749
F170	F	1.752770	0.562790	1.103749
F171	F	0.938760	-0.251025	0.754558
F172	F	1.438760	0.248975	1.254558
