data_functionalizedCrystal
_audit_creation_method	'MofGen! by Chris Wilmer'
_symmetry_space_group_name_H-M	'P1'
_symmetry_Int_Tables_number	1
_symmetry_cell_setting	triclinic
loop_
_symmetry_equiv_pos_as_xyz
  x,y,z
_cell_length_a	14.519709
_cell_length_b	10.489716
_cell_length_c	12.996460
_cell_angle_alpha	89.997908
_cell_angle_beta	90.000034
_cell_angle_gamma	84.104640
loop_
_atom_site_label
_atom_site_type_symbol
_atom_site_fract_x
_atom_site_fract_y
_atom_site_fract_z
O1	O	1.224769	0.167206	-0.085423
O2	O	0.956398	0.186896	-0.085454
O3	O	1.096702	-0.008613	-0.085441
O4	O	1.084465	0.362714	-0.085435
O5	O	1.096687	-0.008624	0.085692
O6	O	0.956384	0.186885	0.085680
O7	O	1.224754	0.167195	0.085710
Cu8	Cu	1.090568	0.177039	0.101321
Cu9	Cu	1.090585	0.177052	-0.101064
O10	O	1.084450	0.362704	0.085698
C11	C	0.922026	0.185973	0.000109
C12	C	0.819630	0.183223	0.000097
C13	C	0.444680	0.173100	0.000144
C14	C	0.549003	0.175911	0.000131
C15	C	0.632152	0.178161	0.000120
C16	C	0.736481	0.180973	0.000108
C17	C	1.095775	-0.056141	0.000122
C18	C	1.093025	-0.197743	0.000113
C19	C	1.179063	-0.296314	0.000132
C20	C	1.133606	-0.373195	-0.084249
C21	C	1.133571	-0.373170	0.084476
C22	C	1.047603	-0.272759	-0.084338
C23	C	1.047581	-0.272729	0.084463
C24	C	1.002060	-0.349560	0.000062
C25	C	1.259126	0.168118	0.000145
C26	C	1.361523	0.170868	0.000151
C27	C	1.085377	0.410232	0.000132
C28	C	1.088128	0.551834	0.000135
N29	N	1.090562	0.177029	0.243668
N30	N	1.090598	0.177051	-0.243411
C31	C	1.090584	0.177053	0.663483
C32	C	1.090575	0.177051	0.546677
C33	C	1.090573	0.177042	0.453579
C34	C	1.090564	0.177038	0.336767
H35	H	1.169932	-0.417064	-0.155579
C36	C	1.182646	-0.432407	0.180852
C37	C	1.188267	-0.578073	0.198996
C38	C	1.237350	-0.637307	0.295365
C39	C	1.280810	-0.550875	0.373591
C40	C	1.275190	-0.405201	0.355449
C41	C	1.226108	-0.345966	0.259079
H42	H	1.156094	-0.642063	0.141087
H43	H	1.241510	-0.745145	0.308795
H44	H	1.317144	-0.594724	0.444929
H45	H	1.307364	-0.341211	0.413358
H46	H	1.221948	-0.238128	0.245650
H47	H	1.253902	-0.272417	0.000054
C48	C	0.900886	-0.381525	-0.000006
C49	C	0.835985	-0.336026	-0.089342
C50	C	0.734813	-0.367994	-0.089415
C51	C	0.698540	-0.445461	-0.000152
C52	C	0.763442	-0.490965	0.089191
C53	C	0.864614	-0.458997	0.089264
H54	H	0.862836	-0.278677	-0.155426
H55	H	0.686769	-0.334309	-0.155553
H56	H	0.623646	-0.469126	-0.000206
H57	H	0.736591	-0.548314	0.155274
H58	H	0.912658	-0.492682	0.155402
H59	H	1.011309	-0.229073	-0.155753
H60	H	1.011286	-0.228837	0.155796
