data_functionalizedCrystal
_audit_creation_method	'MofGen! by Chris Wilmer'
_symmetry_space_group_name_H-M	'P1'
_symmetry_Int_Tables_number	1
_symmetry_cell_setting	triclinic
loop_
_symmetry_equiv_pos_as_xyz
  x,y,z
_cell_length_a	23.532407
_cell_length_b	23.532355
_cell_length_c	16.776229
_cell_angle_alpha	89.998671
_cell_angle_beta	89.999121
_cell_angle_gamma	97.161913
loop_
_atom_site_label
_atom_site_type_symbol
_atom_site_fract_x
_atom_site_fract_y
_atom_site_fract_z
O1	O	-0.068995	0.755281	-0.066167
O2	O	0.431005	1.255281	0.433833
O3	O	-0.079030	0.589413	-0.066191
O4	O	0.420970	1.089413	0.433809
O5	O	0.008920	0.677349	-0.066188
O6	O	0.508920	1.177349	0.433812
O7	O	-0.156945	0.667345	-0.066170
O8	O	0.343055	1.167345	0.433830
O9	O	0.008925	0.677337	0.066388
O10	O	0.508925	1.177337	0.566388
O11	O	-0.079024	0.589402	0.066386
O12	O	0.420976	1.089402	0.566386
O13	O	-0.068990	0.755269	0.066409
O14	O	0.431010	1.255269	0.566409
Zn15	Zn	-0.074006	0.672333	0.087447
Zn16	Zn	0.425994	1.172333	0.587447
Zn17	Zn	-0.074013	0.672349	-0.087228
Zn18	Zn	0.425987	1.172349	0.412772
O19	O	-0.156940	0.667334	0.066407
O20	O	0.343060	1.167334	0.566407
C21	C	-0.078776	0.568191	0.000094
C22	C	0.421224	1.068191	0.500094
C23	C	-0.078022	0.504972	0.000085
C24	C	0.421978	1.004972	0.500085
C25	C	-0.073281	0.112952	0.072385
C26	C	0.426719	0.612952	0.572385
C27	C	-0.072564	0.053553	0.072388
C28	C	0.427436	0.553553	0.572388
O29	O	-0.072171	0.022829	0.133848
O30	O	0.427829	0.522829	0.633848
N31	N	-0.072211	0.023850	0.000121
N32	N	0.427789	0.523850	0.500121
C33	C	-0.072570	0.053552	-0.072154
C34	C	0.427430	0.553552	0.427846
O35	O	-0.072203	0.022833	-0.133623
O36	O	0.427797	0.522833	0.366377
C37	C	-0.073283	0.112950	-0.072156
C38	C	0.426717	0.612950	0.427844
C39	C	-0.073641	0.142649	0.000115
C40	C	0.426359	0.642649	0.500115
C41	C	-0.073639	0.142650	0.144651
C42	C	0.426361	0.642650	0.644651
C43	C	-0.074357	0.202046	0.144648
C44	C	0.425643	0.702046	0.644648
C45	C	-0.074718	0.231742	0.072378
C46	C	0.425282	0.731742	0.572378
C47	C	-0.074360	0.202044	0.000112
C48	C	0.425640	0.702044	0.500112
C49	C	-0.073638	0.142651	-0.144431
C50	C	0.426362	0.642651	0.355569
C51	C	-0.074351	0.202054	-0.144427
C52	C	0.425649	0.702054	0.355573
C53	C	-0.074709	0.231752	-0.072155
C54	C	0.425291	0.731752	0.427845
C55	C	-0.075439	0.291136	-0.072161
C56	C	0.424561	0.791136	0.427839
N57	N	-0.075792	0.320838	0.000107
N58	N	0.424208	0.820838	0.500107
C59	C	-0.075431	0.291141	0.072376
C60	C	0.424569	0.791141	0.572376
C61	C	-0.071070	-0.071190	-0.072144
C62	C	0.428930	0.428810	0.427856
C63	C	-0.070361	-0.130588	-0.072143
C64	C	0.429639	0.369412	0.427857
C65	C	-0.070354	-0.130583	0.072400
C66	C	0.429646	0.369417	0.572400
C67	C	-0.071068	-0.071184	0.072397
C68	C	0.428932	0.428816	0.572397
C69	C	-0.071423	-0.041488	0.000123
C70	C	0.428577	0.458512	0.500123
C71	C	-0.076941	0.415875	0.072364
C72	C	0.423059	0.915875	0.572364
C73	C	-0.077662	0.475275	0.072354
C74	C	0.422338	0.975275	0.572354
C75	C	-0.077665	0.475265	-0.072188
C76	C	0.422335	0.975265	0.427812
C77	C	-0.076948	0.415870	-0.072179
C78	C	0.423052	0.915870	0.427821
C79	C	-0.076583	0.386177	0.000104
C80	C	0.423417	0.886177	0.500104
O81	O	-0.075830	0.321898	-0.133589
O82	O	0.424170	0.821898	0.366411
O83	O	-0.075790	0.321868	0.133834
O84	O	0.424210	0.821868	0.633834
C85	C	-0.178158	0.667594	0.000121
C86	C	0.321842	1.167594	0.500121
C87	C	-0.241375	0.668360	0.000129
C88	C	0.258625	1.168360	0.500129
C89	C	-0.640487	0.621125	0.000081
C90	C	-0.140487	1.121125	0.500081
C91	C	-0.699887	0.621837	0.000076
C92	C	-0.199887	1.121837	0.500076
O93	O	-0.736640	0.578050	0.000040
O94	O	-0.236640	1.078050	0.500040
N95	N	-0.722504	0.674114	0.000084
N96	N	-0.222504	1.174114	0.500084
C97	C	-0.685717	0.725684	0.000090
C98	C	-0.185717	1.225684	0.500090
O99	O	-0.710408	0.770216	0.000096
O100	O	-0.210408	1.270216	0.500096
C101	C	-0.626318	0.724972	0.000090
C102	C	-0.126318	1.224972	0.500090
C103	C	-0.603705	0.672691	0.000090
C104	C	-0.103705	1.172691	0.500090
C105	C	-0.617874	0.568849	0.000080
C106	C	-0.117874	1.068849	0.500080
C107	C	-0.558478	0.568137	0.000087
C108	C	-0.058478	1.068137	0.500087
C109	C	-0.521695	0.619703	0.000095
C110	C	-0.021695	1.119703	0.500095
C111	C	-0.544309	0.671980	0.000097
C112	C	-0.044309	1.171980	0.500097
C113	C	-0.589532	0.776541	0.000090
C114	C	-0.089532	1.276541	0.500090
C115	C	-0.530129	0.775824	0.000089
C116	C	-0.030129	1.275824	0.500089
C117	C	-0.507516	0.723543	0.000089
C118	C	-0.007516	1.223543	0.500089
C119	C	-0.448130	0.722834	0.000112
C120	C	0.051870	1.222834	0.500112
N121	N	-0.425514	0.670556	0.000103
N122	N	0.074486	1.170556	0.500103
C123	C	-0.462296	0.618991	0.000095
C124	C	0.037704	1.118991	0.500095
C125	C	-0.810459	0.727175	0.000089
C126	C	-0.310459	1.227175	0.500089
C127	C	-0.869857	0.727888	0.000095
C128	C	-0.369857	1.227888	0.500095
C129	C	-0.884023	0.624041	0.000079
C130	C	-0.384023	1.124041	0.500079
C131	C	-0.824624	0.623329	0.000079
C132	C	-0.324624	1.123329	0.500079
C133	C	-0.787842	0.674898	0.000081
C134	C	-0.287842	1.174898	0.500081
C135	C	-0.337560	0.617501	0.000110
C136	C	0.162440	1.117501	0.500110
C137	C	-0.278158	0.616794	0.000121
C138	C	0.221842	1.116794	0.500121
C139	C	-0.263996	0.720642	0.000132
C140	C	0.236004	1.220642	0.500132
C141	C	-0.323393	0.721349	0.000126
C142	C	0.176607	1.221349	0.500126
C143	C	-0.360174	0.669774	0.000112
C144	C	0.139826	1.169774	0.500112
O145	O	-0.411343	0.766598	0.000144
O146	O	0.088657	1.266598	0.500144
O147	O	-0.437597	0.574467	0.000079
O148	O	0.062403	1.074467	0.500079
C149	C	0.030139	0.677088	0.000096
C150	C	0.530139	1.177088	0.500096
C151	C	0.093356	0.676322	0.000083
C152	C	0.593356	1.176322	0.500083
C153	C	-0.069244	0.776491	0.000123
C154	C	0.430756	1.276491	0.500123
C155	C	-0.069998	0.839710	0.000127
C156	C	0.430002	1.339710	0.500127
N157	N	-0.074001	0.672327	0.206658
N158	N	0.425999	1.172327	0.706658
N159	N	-0.074014	0.672360	-0.206440
N160	N	0.425986	1.172360	0.293560
C161	C	-0.035073	0.711277	0.248376
C162	C	0.464927	1.211277	0.748376
C163	C	-0.035072	0.711280	0.331828
C164	C	0.464928	1.211280	0.831828
C165	C	-0.074003	0.672336	0.373561
C166	C	0.425997	1.172336	0.873561
C167	C	-0.112933	0.633382	0.331837
C168	C	0.387067	1.133382	0.831837
C169	C	-0.112931	0.633377	0.248386
C170	C	0.387069	1.133377	0.748386
C171	C	-0.112945	0.633403	0.668384
C172	C	0.387055	1.133403	1.168384
C173	C	-0.112945	0.633412	0.751841
C174	C	0.387055	1.133412	1.251841
C175	C	-0.035086	0.711306	0.751826
C176	C	0.464914	1.211306	1.251826
C177	C	-0.035083	0.711301	0.668376
C178	C	0.464917	1.211301	1.168376
C179	C	-0.074011	0.672345	0.626659
C180	C	0.425989	1.172345	1.126659
C181	C	-0.074011	0.672341	0.536171
C182	C	0.425989	1.172341	1.036171
C183	C	-0.074007	0.672342	0.464048
C184	C	0.425993	1.172342	0.964048
H185	H	-0.071365	-0.047016	-0.131002
H186	H	0.428635	0.452984	0.368998
H187	H	-0.144642	0.601685	0.634425
H188	H	0.355358	1.101685	1.134425
H189	H	-0.076649	0.391705	0.131223
H190	H	0.423351	0.891705	0.631223
N191	N	-0.154920	0.591373	0.376844
N192	N	0.345080	1.091373	0.876844
H193	H	-0.149017	0.597287	0.436040
H194	H	0.350983	1.097287	0.936040
H195	H	-0.195289	0.597718	0.362253
H196	H	0.304711	1.097718	0.862253
H197	H	-0.647817	0.526855	0.000071
H198	H	-0.147817	1.026855	0.500071
N199	N	-0.377225	0.561876	0.000095
N200	N	0.122775	1.061876	0.500095
H201	H	-0.353879	0.528655	0.000096
H202	H	0.146121	1.028655	0.500096
H203	H	-0.402182	0.559902	0.049240
H204	H	0.097818	1.059902	0.549240
N205	N	0.006914	0.753285	0.203368
N206	N	0.506914	1.253285	0.703368
H207	H	0.031575	0.777958	0.242462
H208	H	0.531575	1.277958	0.742462
H209	H	0.031979	0.731624	0.168747
H210	H	0.531979	1.231624	0.668747
H211	H	-0.341805	0.763920	0.000138
H212	H	0.158195	1.263920	0.500138
N213	N	-0.534092	0.511748	0.000092
N214	N	-0.034092	1.011748	0.500092
H215	H	-0.566414	0.479195	0.000087
H216	H	-0.066414	0.979195	0.500087
H217	H	-0.509753	0.509189	-0.049053
H218	H	-0.009753	1.009189	0.450947
N219	N	-0.069983	-0.162618	-0.150093
N220	N	0.430017	0.337382	0.349907
H221	H	-0.070321	-0.134787	-0.195871
H222	H	0.429679	0.365213	0.304129
H223	H	-0.034375	-0.182440	-0.153247
H224	H	0.465625	0.317560	0.346753
N225	N	-0.800237	0.566941	0.000082
N226	N	-0.300237	1.066941	0.500082
H227	H	-0.832557	0.534385	0.000080
H228	H	-0.332557	1.034385	0.500080
H229	H	-0.775900	0.564382	-0.049066
H230	H	-0.275900	1.064382	0.450934
N231	N	-0.078051	0.507299	-0.150135
N232	N	0.421949	1.007299	0.349865
H233	H	-0.113656	0.527126	-0.153356
H234	H	0.386344	1.027126	0.346644
H235	H	-0.043014	0.536733	-0.153303
H236	H	0.456986	1.036733	0.346697
H237	H	-0.073345	0.118481	-0.203282
H238	H	0.426655	0.618481	0.296718
H239	H	-0.144649	0.601697	0.785818
H240	H	0.355351	1.101697	1.285818
N241	N	-0.224313	0.776253	0.000145
N242	N	0.275687	1.276253	0.500145
H243	H	-0.199351	0.778270	-0.049000
H244	H	0.300649	1.278270	0.451000
H245	H	-0.247685	0.809453	0.000176
H246	H	0.252315	1.309453	0.500176
H247	H	-0.070060	-0.154773	0.131245
H248	H	0.429940	0.345227	0.631245
H249	H	-0.003374	0.742995	0.365795
H250	H	0.496626	1.242995	0.865795
N251	N	-0.078043	0.507310	0.150305
N252	N	0.421957	1.007310	0.650305
H253	H	-0.113651	0.527132	0.153532
H254	H	0.386349	1.027132	0.653532
H255	H	-0.077681	0.479450	0.196042
H256	H	0.422319	0.979450	0.696042
H257	H	-0.003384	0.743014	0.634400
H258	H	0.496616	1.243014	1.134400
N259	N	-0.074739	0.234085	-0.222380
N260	N	0.425261	0.734085	0.277620
H261	H	-0.039727	0.263550	-0.225606
H262	H	0.460273	0.763550	0.274394
H263	H	-0.074425	0.206217	-0.268114
H264	H	0.425575	0.706217	0.231886
H265	H	-0.076665	0.391687	-0.131028
H266	H	0.423335	0.891687	0.368972
N267	N	-0.154921	0.591366	0.203393
N268	N	0.345079	1.091366	0.703393
H269	H	-0.180023	0.612980	0.168762
H270	H	0.319977	1.112980	0.668762
H271	H	-0.133246	0.566282	0.168824
H272	H	0.366754	1.066282	0.668824
N273	N	-0.074744	0.234073	0.222598
N274	N	0.425256	0.734073	0.722598
H275	H	-0.074406	0.206240	0.268375
H276	H	0.425594	0.706240	0.768375
H277	H	-0.039730	0.263538	0.225748
H278	H	0.460270	0.763538	0.725748
H279	H	-0.003387	0.743024	0.785801
H280	H	0.496613	1.243024	1.285801
H281	H	-0.259750	0.574219	0.000124
H282	H	0.240250	1.074219	0.500124
H283	H	-0.071360	-0.047008	0.131248
H284	H	0.428640	0.452992	0.631248
N285	N	-0.073248	0.110627	0.222605
N286	N	0.426752	0.610627	0.722605
H287	H	-0.073195	0.138514	0.268376
H288	H	0.426805	0.638514	0.768376
H289	H	-0.108460	0.081427	0.225997
H290	H	0.391540	0.581427	0.725997
N291	N	-0.923706	0.568424	0.000070
N292	N	-0.423706	1.068424	0.500070
H293	H	-0.948663	0.566414	-0.049079
H294	H	-0.448663	1.066414	0.450921
H295	H	-0.900333	0.535225	0.000097
H296	H	-0.400333	1.035225	0.500097
N297	N	-0.894243	0.784276	0.000113
N298	N	-0.394243	1.284276	0.500113
H299	H	-0.861923	0.816832	0.000120
H300	H	-0.361923	1.316832	0.500120
H301	H	-0.918576	0.786842	-0.049037
H302	H	-0.418576	1.286842	0.450963
N303	N	-0.770788	0.782800	0.000100
N304	N	-0.270788	1.282800	0.500100
H305	H	-0.794133	0.816022	0.000108
H306	H	-0.294133	1.316022	0.500108
H307	H	-0.745837	0.784763	0.049250
H308	H	-0.245837	1.284763	0.549250
H309	H	-0.500183	0.817819	0.000086
H310	H	-0.000183	1.317819	0.500086
N311	N	-0.613911	0.832930	0.000092
N312	N	-0.113911	1.332930	0.500092
H313	H	-0.581589	0.865483	0.000092
H314	H	-0.081589	1.365483	0.500092
H315	H	-0.638244	0.835493	-0.049058
H316	H	-0.138244	1.335493	0.450942
