data_functionalizedCrystal
_audit_creation_method	'MofGen! by Chris Wilmer'
_symmetry_space_group_name_H-M	'P1'
_symmetry_Int_Tables_number	1
_symmetry_cell_setting	triclinic
loop_
_symmetry_equiv_pos_as_xyz
  x,y,z
_cell_length_a	12.759401
_cell_length_b	12.759400
_cell_length_c	17.077396
_cell_angle_alpha	89.974414
_cell_angle_beta	89.983593
_cell_angle_gamma	90.014845
loop_
_atom_site_label
_atom_site_type_symbol
_atom_site_fract_x
_atom_site_fract_y
_atom_site_fract_z
Zn1	Zn	1.606234	-0.418262	-0.443794
Zn2	Zn	2.106234	0.081738	0.056206
Zn3	Zn	1.606135	-0.593962	-0.312534
Zn4	Zn	2.106135	-0.093962	0.187466
Zn5	Zn	1.430542	-0.418298	-0.312549
Zn6	Zn	1.930542	0.081702	0.187451
Zn7	Zn	1.430524	-0.593900	-0.443765
Zn8	Zn	1.930524	-0.093900	0.056235
O9	O	1.518359	-0.506106	-0.378160
O10	O	2.018359	-0.006106	0.121840
O11	O	1.753242	-0.441580	-0.426388
O12	O	2.253242	0.058420	0.073612
O13	O	1.582808	-0.570702	-0.202689
O14	O	2.082808	-0.070702	0.297311
O15	O	1.453897	-0.271273	-0.329977
O16	O	1.953897	0.228727	0.170023
O17	O	1.753169	-0.570666	-0.329952
O18	O	2.253169	-0.070666	0.170048
O19	O	1.582977	-0.271246	-0.426402
O20	O	2.082977	0.228754	0.073598
O21	O	1.453801	-0.441642	-0.202700
O22	O	1.953801	0.058358	0.297300
O23	O	1.283519	-0.441582	-0.329949
O24	O	1.783519	0.058418	0.170051
O25	O	1.453867	-0.570560	-0.553616
O26	O	1.953867	-0.070560	-0.053616
O27	O	1.283506	-0.570595	-0.426353
O28	O	1.783506	-0.070595	0.073647
O29	O	1.582960	-0.441519	-0.553637
O30	O	2.082960	0.058481	-0.053637
O31	O	1.582791	-0.740975	-0.329924
O32	O	2.082791	-0.240975	0.170076
O33	O	1.453771	-0.740929	-0.426339
O34	O	1.953771	-0.240929	0.073661
C35	C	1.245391	-0.506086	-0.378150
C36	C	1.745391	-0.006086	0.121850
C37	C	1.128615	-0.506103	-0.378164
C38	C	1.628615	-0.006103	0.121836
C39	C	1.073773	-0.573388	-0.428278
C40	C	1.573773	-0.073388	0.071722
C41	C	0.964049	-0.573401	-0.428287
C42	C	1.464049	-0.073401	0.071713
C43	C	0.964018	-0.438842	-0.328060
C44	C	1.464018	0.061158	0.171940
C45	C	1.073740	-0.438824	-0.328056
C46	C	1.573740	0.061176	0.171944
C47	C	1.128649	-0.640667	-0.478387
C48	C	1.628649	-0.140667	0.021613
C49	C	1.073807	-0.707958	-0.528505
C50	C	1.573807	-0.207958	-0.028505
C51	C	0.964083	-0.707972	-0.528513
C52	C	1.464083	-0.207972	-0.028513
C53	C	0.909200	-0.640694	-0.478404
C54	C	1.409200	-0.140694	0.021596
C55	C	1.518296	-0.779073	-0.378144
C56	C	2.018296	-0.279073	0.121856
C57	C	1.518366	-0.895850	-0.378163
C58	C	2.018366	-0.395850	0.121837
C59	C	1.585621	-0.950701	-0.328016
C60	C	2.085621	-0.450701	0.171984
C61	C	1.585686	-1.060425	-0.328040
C62	C	2.085686	-0.560425	0.171960
C63	C	1.451231	-1.060437	-0.428362
C64	C	1.951231	-0.560437	0.071638
C65	C	1.451172	-0.950715	-0.428341
C66	C	1.951172	-0.450715	0.071659
C67	C	1.652815	-0.895835	-0.277838
C68	C	2.152815	-0.395835	0.222162
C69	C	1.720075	-0.950687	-0.227686
C70	C	2.220075	-0.450687	0.272314
C71	C	1.720139	-1.060411	-0.227710
C72	C	2.220139	-0.560411	0.272290
C73	C	1.652944	-1.115283	-0.277887
C74	C	2.152944	-0.615283	0.222113
C75	C	1.792392	-0.506126	-0.378172
C76	C	2.292392	-0.006126	0.121828
C77	C	1.909169	-0.506134	-0.378176
C78	C	2.409169	-0.006134	0.121824
C79	C	1.518422	-0.506028	-0.582905
C80	C	2.018422	-0.006028	-0.082905
C81	C	1.518449	-0.505995	-0.670155
C82	C	2.018449	-0.005995	-0.170155
C83	C	1.518450	-0.232072	-0.378194
C84	C	2.018450	0.267928	0.121806
C85	C	1.518489	-0.115296	-0.378208
C86	C	2.018489	0.384704	0.121792
C87	C	1.585671	-0.438798	-0.711157
C88	C	2.085671	0.061202	-0.211157
C89	C	1.585683	-0.438763	-0.793138
C90	C	2.085683	0.061237	-0.293138
C91	C	1.518479	-0.505931	-0.834114
C92	C	2.018479	-0.005931	-0.334114
C93	C	1.451251	-0.573131	-0.793106
C94	C	1.951251	-0.073131	-0.293106
C95	C	1.451234	-0.573160	-0.711127
C96	C	1.951234	-0.073160	-0.211127
C97	C	1.451293	-0.573068	-0.963976
C98	C	1.951293	-0.073068	-0.463976
C99	C	1.451311	-0.573041	-1.045961
C100	C	1.951311	-0.073041	-0.545961
C101	C	1.585743	-0.438671	-1.045987
C102	C	2.085743	0.061329	-0.545987
C103	C	1.585725	-0.438700	-0.964008
C104	C	2.085725	0.061300	-0.464008
C105	C	1.518498	-0.505902	-0.923005
C106	C	2.018498	-0.005902	-0.423005
C107	C	1.518356	-0.506107	-0.174213
C108	C	2.018356	-0.006107	0.325787
C109	C	1.518532	-0.505844	-0.086963
C110	C	2.018532	-0.005844	0.413037
H111	H	0.919434	-0.762756	-0.569327
H112	H	1.419434	-0.262756	-0.069327
H113	H	1.396485	-0.627868	-0.677744
H114	H	1.896485	-0.127868	-0.177744
O115	O	1.658197	-0.366293	-0.837359
O116	O	2.158197	0.133707	-0.337359
H117	H	1.611206	-0.312810	-0.874706
H118	H	2.111206	0.187190	-0.374706
O119	O	1.792567	-0.891512	-0.173582
O120	O	2.292567	-0.391512	0.326418
H121	H	1.781225	-0.806000	-0.181988
H122	H	2.281225	-0.306000	0.318012
H123	H	1.118500	-0.762727	-0.569307
H124	H	1.618500	-0.262727	-0.069307
H125	H	1.396586	-0.627733	-1.079322
H126	H	1.896586	-0.127733	-0.579322
O127	O	1.378755	-0.645570	-0.837299
O128	O	1.878755	-0.145570	-0.337299
H129	H	1.425763	-0.699023	-0.874642
H130	H	1.925763	-0.199023	-0.374642
H131	H	1.774913	-1.105067	-0.186880
H132	H	2.274913	-0.605067	0.313120
O133	O	1.246993	-0.640663	-0.478375
O134	O	1.746993	-0.140663	0.021625
H135	H	1.275951	-0.561446	-0.494338
H136	H	1.775951	-0.061446	0.005662
O137	O	1.378741	-1.119614	-0.482465
O138	O	1.878741	-0.619614	0.017535
H139	H	1.390070	-1.205126	-0.474046
H140	H	1.890070	-0.705126	0.025954
H141	H	0.819856	-0.640701	-0.478421
H142	H	1.319856	-0.140701	0.021579
H143	H	1.640399	-0.384105	-0.677800
H144	H	2.140399	0.115895	-0.177800
O145	O	0.904830	-0.366310	-0.273993
O146	O	1.404830	0.133690	0.226007
H147	H	0.819320	-0.377642	-0.282404
H148	H	1.319320	0.122358	0.217596
H149	H	1.118393	-0.384027	-0.287254
H150	H	1.618393	0.115973	0.212746
H151	H	1.396533	-0.627774	-0.930594
H152	H	1.896533	-0.127774	-0.430594
H153	H	1.640455	-0.384012	-0.930647
H154	H	2.140455	0.115988	-0.430647
O155	O	1.652747	-0.777491	-0.277818
O156	O	2.152747	-0.277491	0.222182
H157	H	1.710774	-0.748552	-0.234508
H158	H	2.210774	-0.248552	0.265492
H159	H	1.640480	-0.383951	-1.079375
H160	H	2.140480	0.116049	-0.579375
O161	O	1.653008	-1.233630	-0.277911
O162	O	2.153008	-0.733630	0.222089
H163	H	1.732256	-1.262483	-0.293826
H164	H	2.232256	-0.762483	0.206174
O165	O	1.378626	-0.891542	-0.482420
O166	O	1.878626	-0.391542	0.017580
H167	H	1.331898	-0.948124	-0.517305
H168	H	1.831898	-0.448124	-0.017305
