data_functionalizedCrystal
_audit_creation_method	'MofGen! by Chris Wilmer'
_symmetry_space_group_name_H-M	'P1'
_symmetry_Int_Tables_number	1
_symmetry_cell_setting	triclinic
loop_
_symmetry_equiv_pos_as_xyz
  x,y,z
_cell_length_a	12.645331
_cell_length_b	25.639240
_cell_length_c	12.645323
_cell_angle_alpha	90.039057
_cell_angle_beta	90.022676
_cell_angle_gamma	90.031736
loop_
_atom_site_label
_atom_site_type_symbol
_atom_site_fract_x
_atom_site_fract_y
_atom_site_fract_z
Zn1	Zn	1.620620	-0.208161	0.599342
Zn2	Zn	2.120620	0.291839	1.099342
Zn3	Zn	1.620455	-0.295600	0.422038
Zn4	Zn	2.120455	0.204400	0.922038
Zn5	Zn	1.443335	-0.208179	0.422086
Zn6	Zn	1.943335	0.291821	0.922086
Zn7	Zn	1.443270	-0.295566	0.599253
Zn8	Zn	1.943270	0.204434	1.099253
O9	O	1.531920	-0.251876	0.510680
O10	O	2.031920	0.248124	1.010680
O11	O	1.768946	-0.219767	0.575839
O12	O	2.268946	0.280233	1.075839
O13	O	1.596918	-0.284025	0.273697
O14	O	2.096918	0.215975	0.773697
O15	O	1.466948	-0.135011	0.445657
O16	O	1.966948	0.364989	0.945657
O17	O	1.768824	-0.284008	0.445574
O18	O	2.268824	0.215992	0.945574
O19	O	1.597199	-0.134998	0.575886
O20	O	2.097199	0.365002	1.075886
O21	O	1.466788	-0.219797	0.273732
O22	O	1.966788	0.280203	0.773732
O23	O	1.294979	-0.219764	0.445571
O24	O	1.794979	0.280236	0.945571
O25	O	1.466838	-0.283949	0.747612
O26	O	1.966838	0.216051	1.247612
O27	O	1.294931	-0.283967	0.575735
O28	O	1.794931	0.216033	1.075735
O29	O	1.597136	-0.219734	0.747677
O30	O	2.097136	0.280266	1.247677
O31	O	1.596855	-0.368760	0.445489
O32	O	2.096855	0.131240	0.945489
O33	O	1.466678	-0.368735	0.575688
O34	O	1.966678	0.131265	1.075688
C35	C	1.256490	-0.251864	0.510649
C36	C	1.756490	0.248136	1.010649
C37	C	1.138660	-0.251871	0.510661
C38	C	1.638660	0.248129	1.010661
C39	C	0.971091	-0.211295	0.429227
C40	C	1.471091	0.288705	0.929227
C41	C	1.093651	-0.211400	0.428868
C42	C	1.593651	0.288600	0.928868
C43	C	1.094111	-0.306949	0.480119
C44	C	1.594111	0.193051	0.980119
C45	C	0.971512	-0.306727	0.479563
C46	C	1.471512	0.193273	0.979563
C47	C	0.971518	-0.237893	0.622952
C48	C	1.471518	0.262107	1.122952
C49	C	1.094125	-0.236663	0.622329
C50	C	1.594125	0.263337	1.122329
C51	C	1.531770	-0.387719	0.510597
C52	C	2.031770	0.112281	1.010597
C53	C	1.531803	-0.445833	0.510597
C54	C	2.031803	0.054167	1.010597
C55	C	1.599775	-0.806151	0.578612
C56	C	2.099775	-0.306151	1.078612
C57	C	1.599807	-0.860755	0.578634
C58	C	2.099807	-0.360755	1.078634
O59	O	1.657421	-0.888953	0.636378
O60	O	2.157421	-0.388953	1.136378
N61	N	1.532067	-0.888115	0.510782
N62	N	2.032067	-0.388115	1.010782
C63	C	1.464284	-0.860868	0.442912
C64	C	1.964284	-0.360868	0.942912
O65	O	1.406669	-0.889154	0.385202
O66	O	1.906669	-0.389154	0.885202
C67	C	1.464249	-0.806265	0.442897
C68	C	1.964249	-0.306265	0.942897
C69	C	1.532000	-0.778908	0.510745
C70	C	2.032000	-0.278908	1.010745
C71	C	1.667521	-0.778793	0.646456
C72	C	2.167521	-0.278793	1.146456
C73	C	1.667490	-0.724193	0.646433
C74	C	2.167490	-0.224193	1.146433
C75	C	1.599715	-0.696950	0.578566
C76	C	2.099715	-0.196950	1.078566
C77	C	1.531970	-0.724307	0.510722
C78	C	2.031970	-0.224307	1.010722
C79	C	1.396461	-0.779019	0.375033
C80	C	1.896461	-0.279019	0.875033
C81	C	1.396431	-0.724412	0.375024
C82	C	1.896431	-0.224412	0.875024
C83	C	1.464182	-0.697055	0.442872
C84	C	1.964182	-0.197055	0.942872
C85	C	1.464165	-0.642464	0.442832
C86	C	1.964165	-0.142464	0.942832
N87	N	1.531904	-0.615103	0.510683
N88	N	2.031904	-0.115103	1.010683
C89	C	1.599679	-0.642346	0.578550
C90	C	2.099679	-0.142346	1.078550
C91	C	1.464364	-0.975539	0.442951
C92	C	1.964364	-0.475539	0.942951
C93	C	1.464404	-1.030141	0.442960
C94	C	1.964404	-0.530141	0.942960
C95	C	1.599925	-1.030024	0.578684
C96	C	2.099925	-0.530024	1.078684
C97	C	1.599889	-0.975421	0.578668
C98	C	2.099889	-0.475421	1.078668
C99	C	1.532103	-0.948179	0.510803
C100	C	2.032103	-0.448179	1.010803
C101	C	1.599612	-0.527681	0.578496
C102	C	2.099612	-0.027681	1.078496
C103	C	1.599578	-0.473076	0.578464
C104	C	2.099578	0.026924	1.078464
C105	C	1.464054	-0.473198	0.442745
C106	C	1.964054	0.026802	0.942745
C107	C	1.464090	-0.527798	0.442773
C108	C	1.964090	-0.027798	0.942773
C109	C	1.531873	-0.555039	0.510657
C110	C	2.031873	-0.055039	1.010657
O111	O	1.406577	-0.614231	0.385120
O112	O	1.906577	-0.114231	0.885120
O113	O	1.657275	-0.614054	0.636261
O114	O	2.157275	-0.114054	1.136261
C115	C	1.808425	-0.251889	0.510711
C116	C	2.308425	0.248111	1.010711
C117	C	1.926255	-0.251895	0.510724
C118	C	2.426255	0.248105	1.010724
C119	C	1.531998	-0.251836	0.787185
C120	C	2.031998	0.248164	1.287185
C121	C	1.532031	-0.251819	0.905015
C122	C	2.032031	0.248181	1.405015
C123	C	1.532099	-0.115503	0.510786
C124	C	2.032099	0.384497	1.010786
C125	C	1.532176	-0.057389	0.510832
C126	C	2.032176	0.442611	1.010832
C127	C	1.531903	-0.251879	0.235250
C128	C	2.031903	0.248121	0.735250
C129	C	1.532075	-0.251749	0.117421
C130	C	2.032075	0.248251	0.617421
C131	C	1.449808	-0.292026	1.072539
C132	C	1.949808	0.207974	1.572539
C133	C	1.450023	-0.292225	0.949979
C134	C	1.950023	0.207775	1.449979
C135	C	1.643723	-0.266773	0.949528
C136	C	2.143723	0.233227	1.449528
C137	C	1.643272	-0.267025	1.072126
C138	C	2.143272	0.232975	1.572126
C139	C	1.503620	-0.196432	1.072241
C140	C	2.003620	0.303568	1.572241
C141	C	1.501127	-0.196764	0.949634
C142	C	2.001127	0.303236	1.449634
H143	H	0.942860	-0.318601	0.397518
H144	H	1.442860	0.181399	0.897518
H145	H	1.408875	-0.451008	0.387485
H146	H	1.908875	0.048992	0.887485
F147	F	1.341225	-0.279910	1.111058
F148	F	1.841225	0.220090	1.611058
H149	H	1.668260	-0.306787	0.918819
H150	H	2.168260	0.193213	1.418819
F151	F	1.392217	-0.946551	0.370708
F152	F	1.892217	-0.446551	0.870708
F153	F	1.132207	-0.183689	0.652442
F154	F	1.632207	0.316311	1.152442
H155	H	1.706645	-0.238962	1.101818
H156	H	2.206645	0.261038	1.601818
F157	F	1.341767	-0.279991	0.910636
F158	F	1.841767	0.220009	1.410636
F159	F	0.933620	-0.276543	0.702323
F160	F	1.433620	0.223457	1.202323
H161	H	1.423594	-0.182801	1.103152
H162	H	1.923594	0.317199	1.603152
H163	H	0.941649	-0.170330	0.448169
H164	H	1.441649	0.329670	0.948169
F165	F	1.672057	-1.059028	0.650916
F166	F	2.172057	-0.559028	1.150916
F167	F	0.930747	-0.223248	0.321166
F168	F	1.430747	0.276752	0.821166
F169	F	1.131918	-0.223494	0.320164
F170	F	1.631918	0.276506	0.820164
H171	H	1.654754	-0.450803	0.633714
H172	H	2.154754	0.049197	1.133714
F173	F	1.324281	-0.695423	0.302790
F174	F	1.824281	-0.195423	0.802790
F175	F	1.474068	-0.345287	1.112856
F176	F	1.974068	0.154713	1.612856
H177	H	1.655058	-0.953149	0.633917
H178	H	2.155058	-0.453149	1.133917
H179	H	1.418932	-0.185486	0.920541
H180	H	1.918932	0.314514	1.420541
H181	H	1.124768	-0.264076	0.686301
H182	H	1.624768	0.235924	1.186301
F183	F	1.671754	-0.556665	0.650745
F184	F	2.171754	-0.056665	1.150745
F185	F	0.932739	-0.347605	0.553758
F186	F	1.432739	0.152395	1.053758
H187	H	1.722656	-0.701921	0.701684
H188	H	2.222656	-0.201921	1.201684
H189	H	1.556672	-0.165168	0.919029
H190	H	2.056672	0.334832	1.419029
H191	H	1.341291	-0.801284	0.319783
H192	H	1.841291	-0.301284	0.819783
H193	H	1.408930	-0.550074	0.387517
H194	H	1.908930	-0.050074	0.887517
H195	H	1.706661	-0.238364	0.920407
H196	H	2.206661	0.261636	1.420407
F197	F	1.581939	-0.157208	1.110182
F198	F	2.081939	0.342792	1.610182
H199	H	1.123773	-0.170558	0.448015
H200	H	1.623773	0.329442	0.948015
H201	H	1.123264	-0.338007	0.537613
H202	H	1.623264	0.161993	1.037613
H203	H	1.124760	-0.319027	0.398954
H204	H	1.624760	0.180973	0.898954
H205	H	1.468806	-0.333234	0.920644
H206	H	1.968806	0.166766	1.420644
F207	F	1.739659	-0.807779	0.718700
F208	F	2.239659	-0.307779	1.218700
H209	H	0.940643	-0.198432	0.650724
H210	H	1.440643	0.301568	1.150724
F211	F	1.392307	-1.059251	0.370733
F212	F	1.892307	-0.559251	0.870733
F213	F	1.674801	-0.319880	1.109499
F214	F	2.174801	0.180120	1.609499
