data_functionalizedCrystal
_audit_creation_method	'MofGen! by Chris Wilmer'
_symmetry_space_group_name_H-M	'P1'
_symmetry_Int_Tables_number	1
_symmetry_cell_setting	triclinic
loop_
_symmetry_equiv_pos_as_xyz
  x,y,z
_cell_length_a	14.971486
_cell_length_b	15.995350
_cell_length_c	14.048226
_cell_angle_alpha	89.995798
_cell_angle_beta	89.998499
_cell_angle_gamma	83.553252
loop_
_atom_site_label
_atom_site_type_symbol
_atom_site_fract_x
_atom_site_fract_y
_atom_site_fract_z
O1	O	1.186822	0.109116	-0.079046
O2	O	1.686822	0.609116	0.420954
O3	O	0.926407	0.122183	-0.079072
O4	O	1.426407	0.622183	0.420928
O5	O	1.063733	-0.006231	-0.079057
O6	O	1.563733	0.493769	0.420943
O7	O	1.049496	0.237530	-0.079061
O8	O	1.549496	0.737530	0.420939
O9	O	1.063717	-0.006238	0.079264
O10	O	1.563717	0.493762	0.579264
O11	O	0.926391	0.122176	0.079250
O12	O	1.426391	0.622176	0.579250
O13	O	1.186806	0.109109	0.079275
O14	O	1.686806	0.609109	0.579275
Zn15	Zn	1.056596	0.115641	0.104399
Zn16	Zn	1.556596	0.615641	0.604399
Zn17	Zn	1.056617	0.115651	-0.104196
Zn18	Zn	1.556617	0.615651	0.395804
O19	O	1.049480	0.237523	0.079261
O20	O	1.549480	0.737523	0.579261
C21	C	0.893075	0.121595	0.000086
C22	C	1.393075	0.621595	0.500086
C23	C	0.793780	0.119844	0.000076
C24	C	1.293780	0.619844	0.500076
C25	C	0.736468	0.195284	0.000076
C26	C	1.236468	0.695284	0.500076
C27	C	0.643171	0.193633	0.000090
C28	C	1.143171	0.693633	0.500090
C29	C	0.607187	0.116542	0.000098
C30	C	1.107187	0.616542	0.500098
C31	C	0.664505	0.041097	0.000100
C32	C	1.164505	0.541097	0.500100
C33	C	0.757801	0.042748	0.000093
C34	C	1.257801	0.542748	0.500093
C35	C	0.470047	0.037660	0.000113
C36	C	0.970047	0.537660	0.500113
C37	C	0.376745	0.036008	0.000119
C38	C	0.876745	0.536008	0.500119
C39	C	0.355417	0.188545	0.000111
C40	C	0.855417	0.688545	0.500111
C41	C	0.448712	0.190197	0.000104
C42	C	0.948712	0.690197	0.500104
C43	C	0.506025	0.114751	0.000104
C44	C	1.006025	0.614751	0.500104
C45	C	1.063137	-0.037430	0.000101
C46	C	1.563137	0.462570	0.500101
C47	C	1.061372	-0.130382	0.000096
C48	C	1.561372	0.369618	0.500096
C49	C	1.055035	-0.468136	0.000098
C50	C	1.555035	0.031864	0.500098
C51	C	0.957234	-0.420800	-0.000266
C52	C	1.457234	0.079200	0.499734
C53	C	0.958999	-0.324108	0.000091
C54	C	1.458999	0.175892	0.500091
C55	C	1.058178	-0.300572	0.000097
C56	C	1.558178	0.199428	0.500097
C57	C	1.106408	-0.341606	0.090509
C58	C	1.606408	0.158394	0.590509
C59	C	1.103951	-0.438244	0.090584
C60	C	1.603951	0.061756	0.590584
C61	C	1.105990	-0.438591	-0.089456
C62	C	1.605990	0.061409	0.410544
C63	C	1.105967	-0.341646	-0.090651
C64	C	1.605967	0.158354	0.409349
C65	C	1.059960	-0.205873	0.000099
C66	C	1.559960	0.294127	0.500099
C67	C	1.053256	-0.562835	0.000103
C68	C	1.553256	-0.062835	0.500103
C69	C	1.220138	0.109697	0.000116
C70	C	1.720138	0.609697	0.500116
C71	C	1.319433	0.111448	0.000119
C72	C	1.819433	0.611448	0.500119
C73	C	1.050077	0.268722	0.000100
C74	C	1.550077	0.768722	0.500100
C75	C	1.051841	0.361674	0.000099
C76	C	1.551841	0.861674	0.500099
N77	N	1.056587	0.115634	0.246760
N78	N	1.556587	0.615634	0.746760
N79	N	1.056633	0.115652	-0.246557
N80	N	1.556633	0.615652	0.253443
C81	C	1.117414	0.058795	0.296584
C82	C	1.617414	0.558795	0.796584
C83	C	1.117421	0.058795	0.396242
C84	C	1.617421	0.558795	0.896242
C85	C	1.056603	0.115637	0.446073
C86	C	1.556603	0.615637	0.946073
C87	C	0.995769	0.172478	0.396242
C88	C	1.495769	0.672478	0.896242
C89	C	0.995760	0.172474	0.296586
C90	C	1.495760	0.672474	0.796586
C91	C	0.995795	0.172484	0.603956
C92	C	1.495795	0.672484	1.103956
C93	C	0.995806	0.172490	0.703619
C94	C	1.495806	0.672490	1.203619
C95	C	1.117456	0.058805	0.703612
C96	C	1.617456	0.558805	1.203612
C97	C	1.117446	0.058801	0.603956
C98	C	1.617446	0.558801	1.103956
C99	C	1.056614	0.115643	0.554132
C100	C	1.556614	0.615643	1.054132
H101	H	0.804464	-0.018683	0.000092
H102	H	1.304464	0.481317	0.500092
H103	H	0.920818	-0.296284	0.065005
H104	H	1.420818	0.203716	0.565005
H105	H	1.178098	-0.470280	-0.090060
H106	H	1.678098	0.029720	0.409940
H107	H	1.166950	0.012513	0.436809
H108	H	1.666950	0.512513	0.936809
H109	H	1.166943	0.012511	0.256018
H110	H	1.666943	0.512511	0.756018
H111	H	1.068768	-0.456584	0.158165
H112	H	1.568768	0.043416	0.658165
O113	O	1.199056	-0.480876	0.096047
O114	O	1.699056	0.019124	0.596047
H115	H	1.246598	-0.432441	0.098630
H116	H	1.746598	0.067559	0.598630
O117	O	0.905673	-0.446805	0.085130
O118	O	1.405673	0.053195	0.585130
H119	H	0.836737	-0.413032	0.084181
H120	H	1.336737	0.086968	0.584181
H121	H	0.918150	-0.439368	-0.065103
H122	H	1.418150	0.060632	0.434897
H123	H	0.516709	-0.023776	0.000115
H124	H	1.016709	0.476224	0.500115
H125	H	0.308748	0.249976	0.000115
H126	H	0.808748	0.749976	0.500115
H127	H	1.179272	-0.327407	0.093875
H128	H	1.679272	0.172593	0.593875
O129	O	1.063646	-0.465825	-0.180234
O130	O	1.563646	0.034175	0.319766
H131	H	1.005803	-0.500726	-0.162531
H132	H	1.505803	-0.000726	0.337469
H133	H	1.166973	0.012520	0.563384
H134	H	1.666973	0.512520	1.063384
H135	H	0.347450	-0.026766	0.000126
H136	H	0.847450	0.473234	0.500126
H137	H	0.765759	0.258060	0.000070
H138	H	1.265759	0.758060	0.500070
H139	H	1.166988	0.012522	0.744185
H140	H	1.666988	0.512522	1.244185
H141	H	0.921086	-0.295721	-0.064720
H142	H	1.421086	0.204279	0.435280
O143	O	0.625693	-0.042051	0.000114
O144	O	1.125693	0.457949	0.500114
H145	H	0.681222	-0.094232	0.000123
H146	H	1.181222	0.405768	0.500123
H147	H	1.072896	-0.313261	0.157786
H148	H	1.572896	0.186739	0.657786
O149	O	0.581359	0.275003	0.000094
O150	O	1.081359	0.775003	0.500094
H151	H	0.538331	0.277900	-0.064425
H152	H	1.038331	0.777900	0.435575
O153	O	1.059332	-0.305529	-0.179258
O154	O	1.559332	0.194471	0.320742
H155	H	1.002357	-0.258516	-0.158762
H156	H	1.502357	0.241484	0.341238
O157	O	0.930194	0.233779	0.757372
O158	O	1.430194	0.733779	1.257372
H159	H	0.887877	0.273291	0.705986
H160	H	1.387877	0.773291	1.205986
O161	O	0.930180	0.233793	0.449990
O162	O	1.430180	0.733793	0.949990
H163	H	0.887878	0.273313	0.398598
H164	H	1.387878	0.773313	0.898598
O165	O	1.201776	-0.321213	-0.097884
O166	O	1.701776	0.178787	0.402116
H167	H	1.216899	-0.281290	-0.036634
H168	H	1.716899	0.218710	0.463366
H169	H	0.946227	0.218756	0.256020
H170	H	1.446227	0.718756	0.756020
H171	H	0.946256	0.218769	0.563393
H172	H	1.446256	0.718769	1.063393
H173	H	0.478007	0.252971	0.000089
H174	H	0.978007	0.752971	0.500089
