data_functionalizedCrystal
_audit_creation_method	'MofGen! by Chris Wilmer'
_symmetry_space_group_name_H-M	'P1'
_symmetry_Int_Tables_number	1
_symmetry_cell_setting	triclinic
loop_
_symmetry_equiv_pos_as_xyz
  x,y,z
_cell_length_a	19.188933
_cell_length_b	19.188930
_cell_length_c	13.101039
_cell_angle_alpha	93.345801
_cell_angle_beta	86.655175
_cell_angle_gamma	83.145175
loop_
_atom_site_label
_atom_site_type_symbol
_atom_site_fract_x
_atom_site_fract_y
_atom_site_fract_z
O1	O	0.929996	0.083310	-0.085191
O2	O	1.429996	0.583310	0.414809
O3	O	0.726685	0.095042	-0.085202
O4	O	1.226685	0.595042	0.414798
O5	O	0.834206	-0.012479	-0.085176
O6	O	1.334206	0.487521	0.414824
O7	O	0.822474	0.190831	-0.085217
O8	O	1.322474	0.690831	0.414783
O9	O	0.826492	-0.004751	0.085252
O10	O	1.326492	0.495249	0.585252
O11	O	0.718970	0.102769	0.085226
O12	O	1.218970	0.602769	0.585226
O13	O	0.922281	0.091037	0.085237
O14	O	1.422281	0.591037	0.585237
Zn15	Zn	0.819401	0.098130	0.112290
Zn16	Zn	1.319401	0.598130	0.612290
Zn17	Zn	0.829565	0.087949	-0.112256
Zn18	Zn	1.329565	0.587949	0.387744
O19	O	0.814759	0.198558	0.085211
O20	O	1.314759	0.698558	0.585211
C21	C	0.696817	0.098526	0.000011
C22	C	1.196817	0.598526	0.500011
C23	C	0.619312	0.097384	0.000007
C24	C	1.119312	0.597384	0.500007
C25	C	0.070262	0.085027	-0.092880
C26	C	0.570262	0.585027	0.407120
C27	C	0.143086	0.086095	-0.092885
C28	C	0.643086	0.586095	0.407115
C29	C	0.175298	0.090845	0.000015
C30	C	0.675298	0.590845	0.500015
C31	C	0.134681	0.094508	0.092926
C32	C	0.634681	0.594508	0.592926
C33	C	0.061859	0.093433	0.092928
C34	C	0.561859	0.593433	0.592928
N35	N	0.281188	0.135398	0.069157
N36	N	0.781188	0.635398	0.569157
N37	N	0.350366	0.136421	0.069149
N38	N	0.850366	0.636421	0.569149
C39	C	0.394707	0.094083	0.000016
C40	C	0.894707	0.594083	0.500016
N41	N	0.367255	0.050692	-0.069124
N42	N	0.867255	0.550692	0.430876
N43	N	0.298071	0.049672	-0.069119
N44	N	0.798071	0.549672	0.430881
C45	C	0.254261	0.092011	0.000024
C46	C	0.754261	0.592011	0.500024
C47	C	0.514279	0.091572	-0.092893
C48	C	1.014279	0.591572	0.407107
C49	C	0.587106	0.092636	-0.092894
C50	C	1.087106	0.592636	0.407106
C51	C	0.578698	0.101056	0.092920
C52	C	1.078698	0.601056	0.592920
C53	C	0.505875	0.099985	0.092918
C54	C	1.005875	0.599985	0.592918
C55	C	0.473669	0.095246	0.000008
C56	C	0.973669	0.595246	0.500008
C57	C	0.829969	-0.034626	0.000040
C58	C	1.329969	0.465374	0.500040
C59	C	0.828828	-0.112130	0.000049
C60	C	1.328828	0.387870	0.500049
C61	C	0.891918	-0.157053	0.000058
C62	C	1.391918	0.342947	0.500058
C63	C	0.890847	-0.229878	0.000041
C64	C	1.390847	0.270122	0.500041
C65	C	0.826682	-0.257775	0.000037
C66	C	1.326682	0.242225	0.500037
C67	C	0.763583	-0.212842	0.000023
C68	C	1.263583	0.287158	0.500023
C69	C	0.764656	-0.140020	0.000029
C70	C	1.264656	0.359980	0.500029
N71	N	0.775009	-0.363151	0.058034
N72	N	1.275009	0.136849	0.558034
N73	N	0.773994	-0.432330	0.058030
N74	N	1.273994	0.067670	0.558030
C75	C	0.823444	-0.477185	0.000016
C76	C	1.323444	0.022815	0.500016
N77	N	0.873959	-0.450248	-0.057982
N78	N	1.373959	0.049752	0.442018
N79	N	0.874976	-0.381063	-0.057974
N80	N	1.374976	0.118937	0.442026
C81	C	0.825511	-0.336738	0.000029
C82	C	1.325511	0.163262	0.500029
C83	C	0.885378	-0.601073	0.000005
C84	C	1.385378	-0.101073	0.500005
C85	C	0.884305	-0.673899	-0.000018
C86	C	1.384305	-0.173899	0.499982
C87	C	0.757038	-0.656861	-0.000026
C88	C	1.257038	-0.156861	0.499974
C89	C	0.758114	-0.584038	-0.000013
C90	C	1.258114	-0.084038	0.499987
C91	C	0.822285	-0.556148	0.000007
C92	C	1.322285	-0.056148	0.500007
C93	C	0.952149	0.087554	0.000022
C94	C	1.452149	0.587554	0.500022
C95	C	1.029654	0.088695	0.000018
C96	C	1.529654	0.588695	0.500018
C97	C	0.818997	0.220705	-0.000008
C98	C	1.318997	0.720705	0.499992
C99	C	0.820138	0.298209	-0.000024
C100	C	1.320138	0.798209	0.499976
N101	N	0.812469	0.105078	0.265537
N102	N	1.312469	0.605078	0.765537
N103	N	0.836502	0.080996	-0.265503
N104	N	1.336502	0.580996	0.234497
C105	C	0.803038	0.114537	0.474577
C106	C	1.303038	0.614537	0.974577
C107	C	0.845931	0.071539	0.525463
C108	C	1.345931	0.571539	1.025463
C109	C	0.840684	0.076802	0.641781
C110	C	1.340684	0.576802	1.141781
C111	C	0.808285	0.109275	0.358250
C112	C	1.308285	0.609275	0.858250
H113	H	0.160913	0.098374	0.168566
H114	H	0.660913	0.598374	0.668566
H115	H	0.044045	0.081166	-0.168535
H116	H	0.544045	0.581166	0.331465
N117	N	0.899804	0.017547	0.467471
N118	N	1.399804	0.517547	0.967471
H119	H	0.891010	-0.031138	0.486083
H120	H	1.391010	0.468862	0.986083
H121	H	0.895943	0.021454	0.391412
H122	H	1.395943	0.521454	0.891412
N123	N	0.694372	-0.242921	0.000020
N124	N	1.194372	0.257079	0.500020
H125	H	0.693950	-0.275614	-0.063158
H126	H	1.193950	0.224386	0.436842
H127	H	0.688268	-0.269860	0.063239
H128	H	1.188268	0.230140	0.563239
H129	H	0.935683	-0.710476	-0.000017
H130	H	1.435683	-0.210476	0.499983
H131	H	0.944172	-0.134351	0.000071
H132	H	1.444172	0.365649	0.500071
H133	H	0.762378	0.155299	0.518365
H134	H	1.262378	0.655299	1.018365
H135	H	0.176155	0.083113	-0.168536
H136	H	0.676155	0.583113	0.331464
H137	H	0.028796	0.096422	0.168579
H138	H	0.528796	0.596422	0.668579
H139	H	0.488057	0.087711	-0.168546
H140	H	0.988057	0.587711	0.331454
H141	H	0.604925	0.104921	0.168561
H142	H	1.104925	0.604921	0.668561
H143	H	0.620169	0.089644	-0.168546
H144	H	1.120169	0.589644	0.331454
H145	H	0.942225	-0.266461	0.000044
H146	H	1.442225	0.233539	0.500044
H147	H	0.472811	0.102974	0.168566
H148	H	0.972811	0.602974	0.668566
H149	H	0.937631	-0.578364	0.000017
H150	H	1.437631	-0.078364	0.500017
N151	N	0.696606	-0.091561	0.000019
N152	N	1.196606	0.408439	0.500019
H153	H	0.655793	-0.120281	0.000011
H154	H	1.155793	0.379719	0.500011
H155	H	0.691419	-0.058121	0.063204
H156	H	1.191419	0.441879	0.563204
H157	H	0.704793	-0.679575	-0.000034
H158	H	1.204793	-0.179575	0.499966
H159	H	0.706738	-0.547460	-0.000014
H160	H	1.206738	-0.047460	0.499986
