data_functionalizedCrystal
_audit_creation_method	'MofGen! by Chris Wilmer'
_symmetry_space_group_name_H-M	'P1'
_symmetry_Int_Tables_number	1
_symmetry_cell_setting	triclinic
loop_
_symmetry_equiv_pos_as_xyz
  x,y,z
_cell_length_a	14.421503
_cell_length_b	14.519709
_cell_length_c	14.519709
_cell_angle_alpha	83.680145
_cell_angle_beta	90.010234
_cell_angle_gamma	89.988844
loop_
_atom_site_label
_atom_site_type_symbol
_atom_site_fract_x
_atom_site_fract_y
_atom_site_fract_z
O1	O	-0.076993	-1.223853	-0.120899
O2	O	0.256340	-0.890520	0.212435
O3	O	0.589674	-0.557187	0.545768
O4	O	-0.077022	-0.955376	-0.135135
O5	O	0.256312	-0.622043	0.198198
O6	O	0.589645	-0.288710	0.531531
O7	O	-0.076998	-1.096733	0.006221
O8	O	0.256335	-0.763400	0.339555
O9	O	0.589669	-0.430066	0.672888
O10	O	-0.077016	-1.082497	-0.262256
O11	O	0.256317	-0.749163	0.071078
O12	O	0.589650	-0.415830	0.404411
O13	O	0.077225	-1.096749	0.006241
O14	O	0.410559	-0.763416	0.339574
O15	O	0.743892	-0.430083	0.672908
O16	O	0.077202	-0.955393	-0.135116
O17	O	0.410535	-0.622059	0.198218
O18	O	0.743869	-0.288726	0.531551
O19	O	0.077230	-1.223870	-0.120879
O20	O	0.410564	-0.890536	0.212454
O21	O	0.743897	-0.557203	0.545788
Cu22	Cu	0.091298	-1.089633	-0.127996
Cu23	Cu	0.424631	-0.756299	0.205338
Cu24	Cu	0.757965	-0.422966	0.538671
Cu25	Cu	-0.091089	-1.089613	-0.128019
Cu26	Cu	0.242244	-0.756280	0.205314
Cu27	Cu	0.575578	-0.422947	0.538648
O28	O	0.077207	-1.082513	-0.262236
O29	O	0.410540	-0.749179	0.071097
O30	O	0.743874	-0.415846	0.404431
C31	C	0.000087	-0.921025	-0.134462
C32	C	0.333420	-0.587691	0.198871
C33	C	0.666753	-0.254358	0.532205
C34	C	0.000076	-0.818643	-0.132474
C35	C	0.333409	-0.485310	0.200859
C36	C	0.666743	-0.151977	0.534193
N37	N	-0.219370	-1.089600	-0.128029
N38	N	0.113963	-0.756267	0.205305
N39	N	0.447296	-0.422934	0.538638
C40	C	0.000114	-1.096078	0.040591
C41	C	0.333447	-0.762744	0.373924
C42	C	0.666780	-0.429411	0.707258
C43	C	0.000114	-1.094090	0.142972
C44	C	0.333447	-0.760756	0.476306
C45	C	0.666781	-0.427423	0.809639
C46	C	-0.469029	-1.024113	-0.193260
C47	C	-0.135696	-0.690780	0.140073
C48	C	0.197638	-0.357446	0.473406
C49	C	-0.530831	-1.006291	-0.109831
C50	C	-0.197497	-0.672958	0.223503
C51	C	0.135836	-0.339624	0.556836
C52	C	-0.408532	-1.089618	-0.128010
C53	C	-0.075198	-0.756284	0.205324
C54	C	0.258135	-0.422951	0.538657
C55	C	-0.530824	-1.107414	-0.211421
C56	C	-0.197491	-0.774080	0.121912
C57	C	0.135843	-0.440747	0.455245
C58	C	-0.591253	-1.089632	-0.127999
C59	C	-0.257920	-0.756299	0.205334
C60	C	0.075414	-0.422966	0.538668
C61	C	-0.468973	-1.071754	-0.044538
C62	C	-0.135639	-0.738421	0.288796
C63	C	0.197694	-0.405088	0.622129
C64	C	-0.468961	-1.172913	-0.146183
C65	C	-0.135627	-0.839580	0.187150
C66	C	0.197706	-0.506247	0.520483
C67	C	-0.530734	-1.155127	-0.062694
C68	C	-0.197401	-0.821794	0.270640
C69	C	0.135932	-0.488460	0.603973
C70	C	-0.303271	-1.089607	-0.128017
C71	C	0.030063	-0.756274	0.205316
C72	C	0.363396	-0.422940	0.538649
C73	C	-0.696512	-1.089644	-0.127982
C74	C	-0.363179	-0.756311	0.205351
C75	C	-0.029845	-0.422977	0.538685
N76	N	0.219579	-1.089653	-0.127979
N77	N	0.552913	-0.756320	0.205355
N78	N	0.886246	-0.422986	0.538688
C79	C	0.000120	-1.258221	-0.121553
C80	C	0.333454	-0.924888	0.211781
C81	C	0.666787	-0.591555	0.545114
C82	C	0.000125	-1.360602	-0.123541
C83	C	0.333458	-1.027269	0.209793
C84	C	0.666792	-0.693936	0.543126
C85	C	0.000119	-0.443748	-0.125154
C86	C	0.333452	-0.110414	0.208179
C87	C	0.666785	0.222919	0.541512
C88	C	0.000106	-0.548056	-0.127187
C89	C	0.333440	-0.214722	0.206146
C90	C	0.666773	0.118611	0.539480
C91	C	0.000096	-0.631192	-0.128814
C92	C	0.333430	-0.297859	0.204519
C93	C	0.666763	0.035474	0.537853
C94	C	0.000086	-0.735507	-0.130847
C95	C	0.333419	-0.402173	0.202486
C96	C	0.666753	-0.068840	0.535820
C97	C	0.000093	-1.083168	-0.296605
C98	C	0.333427	-0.749835	0.036728
C99	C	0.666760	-0.416502	0.370061
C100	C	0.000087	-1.085156	-0.398987
C101	C	0.333420	-0.751823	-0.065653
C102	C	0.666754	-0.418490	0.267680
C103	C	0.000089	-1.086770	0.517868
C104	C	0.333422	-0.753437	0.851201
C105	C	0.666756	-0.420103	1.184535
C106	C	0.000096	-1.088803	0.413560
C107	C	0.333430	-0.755469	0.746893
C108	C	0.666763	-0.422136	1.080227
C109	C	0.000102	-1.090430	0.330423
C110	C	0.333436	-0.757096	0.663757
C111	C	0.666769	-0.423763	0.997090
C112	C	0.000108	-1.092463	0.226109
C113	C	0.333441	-0.759129	0.559442
C114	C	0.666775	-0.425796	0.892776
H115	H	-0.441934	-0.968675	-0.248382
H116	H	-0.108600	-0.635342	0.084952
H117	H	0.224733	-0.302008	0.418285
C118	C	-0.567556	-0.911148	-0.089048
C119	C	-0.234222	-0.577814	0.244286
C120	C	0.099111	-0.244481	0.577619
H121	H	-0.603777	-0.918502	-0.034084
H122	H	-0.270443	-0.585169	0.299249
H123	H	0.062890	-0.251836	0.632583
H124	H	-0.604746	-0.885100	-0.139312
H125	H	-0.271413	-0.551767	0.194021
H126	H	0.061920	-0.218433	0.527355
H127	H	-0.516792	-0.871146	-0.080912
H128	H	-0.183458	-0.537813	0.252421
H129	H	0.149875	-0.204479	0.585754
H130	H	-0.557657	-1.210532	-0.007448
H131	H	-0.224324	-0.877199	0.325885
H132	H	0.109009	-0.543865	0.659218
H133	H	-0.557976	-1.122471	-0.281968
H134	H	-0.224642	-0.789138	0.051365
H135	H	0.108691	-0.455805	0.384698
C136	C	-0.432432	-1.051308	0.050781
C137	C	-0.099099	-0.717975	0.384114
C138	C	0.234235	-0.384642	0.717447
H139	H	-0.366559	-1.051395	0.050184
H140	H	-0.033225	-0.718061	0.383518
H141	H	0.300108	-0.384728	0.716851
H142	H	-0.454052	-1.097569	0.097156
H143	H	-0.120719	-0.764235	0.430489
H144	H	0.212615	-0.430902	0.763823
H145	H	-0.454131	-0.992330	0.063795
H146	H	-0.120798	-0.658997	0.397129
H147	H	0.212536	-0.325664	0.730462
C148	C	-0.432209	-1.268030	-0.167000
C149	C	-0.098876	-0.934696	0.166334
C150	C	0.234458	-0.601363	0.499667
H151	H	-0.453348	-1.280576	-0.226324
H152	H	-0.120015	-0.947243	0.107009
H153	H	0.213318	-0.613909	0.440342
H154	H	-0.454254	-1.314689	-0.121251
H155	H	-0.120921	-0.981356	0.212082
H156	H	0.212413	-0.648023	0.545415
H157	H	-0.366342	-1.267496	-0.166290
H158	H	-0.033008	-0.934163	0.167043
H159	H	0.300325	-0.600829	0.500377
