data_functionalizedCrystal
_audit_creation_method	'MofGen! by Chris Wilmer'
_symmetry_space_group_name_H-M	'P1'
_symmetry_Int_Tables_number	1
_symmetry_cell_setting	triclinic
loop_
_symmetry_equiv_pos_as_xyz
  x,y,z
_cell_length_a	17.699097
_cell_length_b	17.000371
_cell_length_c	16.176319
_cell_angle_alpha	89.992539
_cell_angle_beta	89.988988
_cell_angle_gamma	79.443839
loop_
_atom_site_label
_atom_site_type_symbol
_atom_site_fract_x
_atom_site_fract_y
_atom_site_fract_z
O1	O	0.997546	0.100717	-0.068815
O2	O	1.497546	0.600717	0.431185
O3	O	0.776321	0.113803	-0.068802
O4	O	1.276321	0.613803	0.431198
O5	O	0.900670	-0.008632	-0.068803
O6	O	1.400670	0.491368	0.431197
O7	O	0.873197	0.223153	-0.068813
O8	O	1.373197	0.723153	0.431187
O9	O	0.900654	-0.008640	0.068690
O10	O	1.400654	0.491360	0.568690
O11	O	0.776305	0.113796	0.068691
O12	O	1.276305	0.613796	0.568691
O13	O	0.997530	0.100710	0.068678
O14	O	1.497530	0.600710	0.568678
Cu15	Cu	0.886916	0.107252	0.081239
Cu16	Cu	1.386916	0.607252	0.581239
Cu17	Cu	0.886935	0.107261	-0.081363
Cu18	Cu	1.386935	0.607261	0.418637
O19	O	0.873181	0.223145	0.068680
O20	O	1.373181	0.723145	0.568680
C21	C	0.748147	0.113329	-0.000053
C22	C	1.248147	0.613329	0.499947
C23	C	0.664221	0.111917	-0.000048
C24	C	1.164221	0.611917	0.499952
C25	C	0.149072	0.103266	-0.075029
C26	C	0.649072	0.603266	0.424971
C27	C	0.227930	0.104587	-0.075025
C28	C	0.727930	0.604587	0.424975
C29	C	0.267345	0.105245	-0.000074
C30	C	0.767345	0.605245	0.499926
C31	C	0.227898	0.104573	0.074878
C32	C	0.727898	0.604573	0.574878
C33	C	0.149042	0.103246	0.074873
C34	C	0.649042	0.603246	0.574873
C35	C	0.545916	0.109924	0.074900
C36	C	1.045916	0.609924	0.574900
C37	C	0.624777	0.111253	0.074899
C38	C	1.124777	0.611253	0.574899
C39	C	0.624803	0.111265	-0.074998
C40	C	1.124803	0.611265	0.425002
C41	C	0.545947	0.109938	-0.075003
C42	C	1.045947	0.609938	0.424997
C43	C	0.506509	0.109262	-0.000052
C44	C	1.006509	0.609262	0.499948
C45	C	0.421002	0.107828	-0.000057
C46	C	0.921002	0.607828	0.499943
C47	C	0.352849	0.106685	-0.000068
C48	C	0.852849	0.606685	0.499932
C49	C	0.902137	-0.038292	-0.000057
C50	C	1.402137	0.461708	0.499943
C51	C	0.906525	-0.126659	-0.000058
C52	C	1.406525	0.373341	0.499942
C53	C	0.839002	-0.158557	-0.000058
C54	C	1.339002	0.341443	0.499942
C55	C	0.843129	-0.241588	-0.000056
C56	C	1.343129	0.258412	0.499944
C57	C	0.914781	-0.292719	-0.000060
C58	C	1.414781	0.207281	0.499940
C59	C	0.982309	-0.260816	-0.000058
C60	C	1.482309	0.239184	0.499942
C61	C	0.978181	-0.177786	-0.000054
C62	C	1.478181	0.322214	0.499946
C63	C	0.930726	-0.543895	-0.000067
C64	C	1.430726	-0.043895	0.499933
C65	C	0.934849	-0.626929	-0.000073
C66	C	1.434849	-0.126929	0.499927
C67	C	0.795668	-0.607696	-0.000069
C68	C	1.295668	-0.107696	0.499931
C69	C	0.791547	-0.524666	-0.000070
C70	C	1.291547	-0.024666	0.499930
C71	C	0.859075	-0.492770	-0.000064
C72	C	1.359075	0.007230	0.499936
C73	C	0.919001	-0.377590	-0.000061
C74	C	1.419001	0.122410	0.499939
C75	C	0.854854	-0.407900	-0.000057
C76	C	1.354854	0.092100	0.499943
C77	C	1.025704	0.101184	-0.000072
C78	C	1.525704	0.601184	0.499928
C79	C	1.109630	0.102596	-0.000083
C80	C	1.609630	0.602596	0.499917
C81	C	0.871714	0.252805	-0.000068
C82	C	1.371714	0.752805	0.499932
C83	C	0.867326	0.341172	-0.000073
C84	C	1.367326	0.841172	0.499927
N85	N	0.886909	0.107245	0.195604
N86	N	1.386909	0.607245	0.695604
N87	N	0.886948	0.107262	-0.195728
N88	N	1.386948	0.607262	0.304272
C89	C	0.941985	0.053053	0.238868
C90	C	1.441985	0.553053	0.738868
C91	C	0.941989	0.053052	0.325415
C92	C	1.441989	0.553052	0.825415
C93	C	0.886920	0.107248	0.368697
C94	C	1.386920	0.607248	0.868697
C95	C	0.831838	0.161443	0.325427
C96	C	1.331838	0.661443	0.825427
C97	C	0.831832	0.161439	0.238882
C98	C	1.331832	0.661439	0.738882
C99	C	0.831863	0.161457	0.674456
C100	C	1.331863	0.661457	1.174456
C101	C	0.831875	0.161458	0.761007
C102	C	1.331875	0.661458	1.261007
C103	C	0.942020	0.053070	0.760988
C104	C	1.442020	0.553070	1.260988
C105	C	0.942014	0.053067	0.674443
C106	C	1.442014	0.553067	1.174443
C107	C	0.886930	0.107258	0.631181
C108	C	1.386930	0.607258	1.131181
C109	C	0.886926	0.107258	0.537337
C110	C	1.386926	0.607258	1.037337
C111	C	0.886927	0.107253	0.462539
C112	C	1.386927	0.607253	0.962539
H113	H	0.513816	0.109362	0.135929
H114	H	1.013816	0.609362	0.635929
Br115	Br	1.016756	-0.020482	0.615705
Br116	Br	1.516756	0.479518	1.115705
Br117	Br	0.281389	0.105461	0.176599
Br118	Br	0.781389	0.605461	0.676599
H119	H	0.740690	-0.633675	-0.000073
H120	H	1.240690	-0.133675	0.499927
H121	H	0.733200	-0.483040	-0.000069
H122	H	1.233200	0.016960	0.499931
H123	H	0.656866	0.111789	0.135936
H124	H	1.156866	0.611789	0.635936
Br125	Br	0.757615	-0.338508	-0.000045
Br126	Br	1.257615	0.161492	0.499955
H127	H	0.985713	-0.517936	-0.000064
H128	H	1.485713	-0.017936	0.499936
H129	H	1.040650	-0.302453	-0.000056
H130	H	1.540650	0.197547	0.499944
Br131	Br	0.757078	0.234984	0.180167
Br132	Br	1.257078	0.734984	0.680167
H133	H	1.033166	-0.151817	-0.000053
H134	H	1.533166	0.348183	0.499947
H135	H	0.513859	0.109406	-0.136036
H136	H	1.013859	0.609406	0.363964
H137	H	0.116985	0.102736	-0.136063
H138	H	0.616985	0.602736	0.363937
Br139	Br	0.678332	0.112179	-0.176720
Br140	Br	1.178332	0.612179	0.323280
H141	H	0.986870	0.008942	0.796222
H142	H	1.486870	0.508942	1.296222
H143	H	0.116929	0.102709	0.135902
H144	H	0.616929	0.602709	0.635902
H145	H	0.780655	-0.116931	-0.000058
H146	H	1.280655	0.383069	0.499942
Br147	Br	1.032098	-0.696323	-0.000088
Br148	Br	1.532098	-0.196323	0.499912
H149	H	0.977340	-0.419230	-0.000066
H150	H	1.477340	0.080770	0.499934
Br151	Br	0.281456	0.105488	-0.176742
Br152	Br	0.781456	0.605488	0.323258
H153	H	0.786996	0.205567	0.360673
H154	H	1.286996	0.705567	0.860673
H155	H	0.787014	0.205583	0.639238
H156	H	1.287014	0.705583	1.139238
Br157	Br	1.016731	-0.020497	0.180137
Br158	Br	1.516731	0.479503	0.680137
H159	H	0.788144	-0.267555	-0.000062
H160	H	1.288144	0.232445	0.499938
H161	H	0.986835	0.008924	0.360639
H162	H	1.486835	0.508924	0.860639
H163	H	0.787029	0.205593	0.796246
H164	H	1.287029	0.705593	1.296246
