data_functionalizedCrystal
_audit_creation_method	'MofGen! by Chris Wilmer'
_symmetry_space_group_name_H-M	'P1'
_symmetry_Int_Tables_number	1
_symmetry_cell_setting	triclinic
loop_
_symmetry_equiv_pos_as_xyz
  x,y,z
_cell_length_a	27.732048
_cell_length_b	27.732048
_cell_length_c	26.809956
_cell_angle_alpha	89.999364
_cell_angle_beta	89.996742
_cell_angle_gamma	82.642655
loop_
_atom_site_label
_atom_site_type_symbol
_atom_site_fract_x
_atom_site_fract_y
_atom_site_fract_z
O1	O	0.640931	0.057510	-0.041421
O2	O	0.500138	0.066256	-0.041436
O3	O	0.574907	-0.008514	-0.041419
O4	O	0.566162	0.132280	-0.041439
O5	O	0.574893	-0.008502	0.041541
O6	O	0.500123	0.066267	0.041523
O7	O	0.640917	0.057522	0.041539
Zn8	Zn	0.570518	0.061896	0.054702
Zn9	Zn	0.570536	0.061881	-0.054600
O10	O	0.566147	0.132291	0.041521
C11	C	0.574716	-0.026515	0.000062
C12	C	0.574164	-0.080170	0.000066
C13	C	0.482124	0.066078	0.000041
C14	C	0.428469	0.065525	0.000036
C15	C	0.614867	-0.418985	0.000045
C16	C	0.612816	-0.620645	0.000038
O17	O	0.650037	-0.651900	0.000021
N18	N	0.568481	-0.639768	0.000034
C19	C	0.524656	-0.608474	0.000028
O20	O	0.486899	-0.629367	0.000019
C21	C	0.526707	-0.406815	0.000031
C22	C	0.571045	-0.387694	0.000041
C23	C	0.659202	-0.399864	0.000054
C24	C	0.659714	-0.349452	0.000059
C25	C	0.615892	-0.318161	0.000054
C26	C	0.571557	-0.337282	0.000045
C27	C	0.482882	-0.375521	0.000022
C28	C	0.483399	-0.325104	0.000021
C29	C	0.527737	-0.305983	0.000031
C30	C	0.528247	-0.255580	0.000045
N31	N	0.572583	-0.236456	0.000050
C32	C	0.616405	-0.267747	0.000054
C33	C	0.523582	-0.714348	0.000027
C34	C	0.523069	-0.764762	0.000027
C35	C	0.611230	-0.776930	0.000036
C36	C	0.611742	-0.726514	0.000040
C37	C	0.567917	-0.695224	0.000031
C38	C	0.617477	-0.161878	0.000064
C39	C	0.617986	-0.111461	0.000071
C40	C	0.529825	-0.099298	0.000059
C41	C	0.529316	-0.149710	0.000055
C42	C	0.573147	-0.180999	0.000056
O43	O	0.491047	-0.224296	0.000057
O44	O	0.654156	-0.246844	0.000053
C45	C	0.614355	-0.469397	0.000041
C46	C	0.570021	-0.488518	0.000032
C47	C	0.526198	-0.457228	0.000027
C48	C	0.569508	-0.538933	0.000032
C49	C	0.613330	-0.570223	0.000036
C50	C	0.657665	-0.551100	0.000041
C51	C	0.658177	-0.500688	0.000045
C52	C	0.481863	-0.476351	0.000023
C53	C	0.481355	-0.526764	0.000019
C54	C	0.525177	-0.558054	0.000023
C55	C	0.089654	0.106229	0.000051
C56	C	-0.112006	0.104178	0.000056
O57	O	-0.143262	0.141398	0.000073
N58	N	-0.131130	0.059843	0.000062
C59	C	-0.099835	0.016017	0.000069
O60	O	-0.120728	-0.021740	0.000079
C61	C	0.101824	0.018068	0.000068
C62	C	0.120944	0.062407	0.000057
C63	C	0.108775	0.150563	0.000042
C64	C	0.159187	0.151076	0.000038
C65	C	0.190477	0.107253	0.000044
C66	C	0.171356	0.062919	0.000054
C67	C	0.133117	-0.025757	0.000079
C68	C	0.183535	-0.025240	0.000080
C69	C	0.202655	0.019098	0.000069
C70	C	0.253059	0.019609	0.000056
N71	N	0.272183	0.063944	0.000050
C72	C	0.240892	0.107766	0.000044
C73	C	-0.205709	0.014943	0.000069
C74	C	-0.256124	0.014430	0.000068
C75	C	-0.268291	0.102591	0.000056
C76	C	-0.217876	0.103104	0.000053
C77	C	-0.186585	0.059278	0.000063
C78	C	0.346761	0.108839	0.000036
C79	C	0.397178	0.109347	0.000030
C80	C	0.409341	0.021186	0.000044
C81	C	0.358929	0.020678	0.000048
C82	C	0.327639	0.064508	0.000045
O83	O	0.284343	-0.017592	0.000045
O84	O	0.261794	0.145518	0.000045
C85	C	0.039242	0.105716	0.000055
C86	C	0.020120	0.061382	0.000065
C87	C	0.051411	0.017560	0.000071
C88	C	-0.030294	0.060869	0.000065
C89	C	-0.061585	0.104691	0.000059
C90	C	-0.042461	0.149026	0.000053
C91	C	0.007951	0.149539	0.000049
C92	C	0.032287	-0.026775	0.000077
C93	C	-0.018125	-0.027284	0.000080
C94	C	-0.049416	0.016538	0.000074
C95	C	0.658931	0.057699	0.000060
C96	C	0.712586	0.058252	0.000062
C97	C	0.566338	0.150292	0.000039
C98	C	0.566891	0.203947	0.000031
N99	N	0.570509	0.061906	0.129298
N100	N	0.570549	0.061867	-0.129196
C101	C	0.603640	0.028781	0.473932
C102	C	0.603652	0.028774	0.682810
O103	O	0.631801	0.000613	0.709820
N104	N	0.570539	0.061870	0.708925
C105	C	0.537419	0.094969	0.682818
O106	O	0.509252	0.123116	0.709824
C107	C	0.537406	0.094974	0.473941
C108	C	0.570524	0.061878	0.447829
C109	C	0.636755	-0.004312	0.447819
C110	C	0.636754	-0.004308	0.395603
C111	C	0.603637	0.028789	0.369500
C112	C	0.570522	0.061882	0.395612
C113	C	0.504284	0.128070	0.447835
C114	C	0.504283	0.128067	0.395613
C115	C	0.537401	0.094972	0.369500
C116	C	0.537405	0.094983	0.317293
N117	N	0.570517	0.061887	0.291177
C118	C	0.603633	0.028790	0.317281
C119	C	0.537429	0.094965	0.792481
C120	C	0.537433	0.094964	0.844700
C121	C	0.603665	0.028768	0.844689
C122	C	0.603663	0.028772	0.792469
C123	C	0.570542	0.061868	0.766366
C124	C	0.603628	0.028801	0.207623
C125	C	0.603625	0.028809	0.155402
C126	C	0.537392	0.095003	0.155418
C127	C	0.537396	0.094997	0.207635
C128	C	0.570516	0.061892	0.233735
O129	O	0.509266	0.123126	0.290250
O130	O	0.631789	0.000640	0.290266
C131	C	0.603642	0.028777	0.526149
C132	C	0.570527	0.061870	0.552261
C133	C	0.537410	0.094968	0.526158
C134	C	0.570531	0.061870	0.604480
C135	C	0.603647	0.028773	0.630584
C136	C	0.636759	-0.004324	0.604468
C137	C	0.636758	-0.004320	0.552252
C138	C	0.504298	0.128064	0.552273
C139	C	0.504303	0.128058	0.604489
C140	C	0.537419	0.094961	0.630593
H141	H	0.654093	-0.095896	0.000080
O142	O	0.480962	-0.684024	0.000045
C143	C	0.441727	-0.711721	0.000030
H144	H	0.454289	-0.749441	0.015735
H145	H	0.411041	-0.692904	0.024115
H146	H	0.428123	-0.715213	-0.039770
O147	O	0.653755	-0.807399	0.000014
C148	C	0.643789	-0.855994	0.000024
H149	H	0.605835	-0.857643	-0.015679
H150	H	0.671742	-0.879042	-0.024065
H151	H	0.645731	-0.870592	0.039823
O152	O	0.701819	-0.430187	0.000083
C153	C	0.741053	-0.402488	0.000077
H154	H	0.728484	-0.364768	0.015778
H155	H	0.771731	-0.421302	0.024170
H156	H	0.754670	-0.398998	-0.039720
O157	O	0.480029	-0.783390	-0.000044
C158	C	0.477095	-0.812176	-0.043017
H159	H	0.515291	-0.825017	-0.057335
H160	H	0.458071	-0.845050	-0.033359
H161	H	0.455549	-0.789741	-0.073106
H162	H	0.446777	-0.391080	0.000011
O163	O	0.440781	-0.294778	0.000035
C164	C	0.401542	-0.322470	0.000013
H165	H	0.414098	-0.360191	0.015719
H166	H	0.370854	-0.303651	0.024093
H167	H	0.387945	-0.325961	-0.039790
H168	H	0.510457	0.121917	0.771232
O169	O	-0.072813	0.191627	0.000114
C170	C	-0.064209	0.218570	0.043082
H171	H	-0.025874	0.206416	0.057405
H172	H	-0.068058	0.258912	0.033414
H173	H	-0.091738	0.212169	0.073170
H174	H	0.630630	0.001822	0.771211
O175	O	-0.274752	-0.028609	0.000138
C176	C	-0.303543	-0.031546	0.043110
H177	H	-0.316384	0.006649	0.057429
H178	H	-0.336416	-0.050568	0.033449
H179	H	-0.281111	-0.053095	0.073199
H180	H	0.647846	-0.710950	0.000047
O181	O	-0.036718	-0.070346	0.000000
C182	C	-0.065526	-0.073289	-0.042954
H183	H	-0.053791	-0.048125	-0.072993
H184	H	-0.060711	-0.112284	-0.057367
H185	H	-0.105370	-0.061838	-0.033238
O186	O	0.505241	0.127104	0.129979
C187	C	0.512351	0.120012	0.078291
H188	H	0.530712	0.081457	0.071162
H189	H	0.475706	0.125635	0.058446
H190	H	0.536384	0.147209	0.063468
H191	H	0.695819	-0.333889	0.000065
O192	O	0.700266	-0.581452	-0.000023
C193	C	0.727208	-0.572844	-0.042992
H194	H	0.715055	-0.534507	-0.057313
H195	H	0.767550	-0.576693	-0.033327
H196	H	0.720807	-0.600370	-0.073081
H197	H	0.493213	-0.165279	0.000061
O198	O	0.505200	0.127069	0.870041
C199	C	0.457411	0.119546	0.857273
H200	H	0.457468	0.080844	0.842921
H201	H	0.433110	0.125274	0.891615
H202	H	0.443012	0.146435	0.826961
H203	H	0.023514	0.185643	0.000042
H204	H	0.057760	-0.062462	0.000083
H205	H	0.494146	-0.073812	0.000057
O206	O	0.505180	0.127163	0.232926
C207	C	0.475959	0.156384	0.198686
H208	H	0.475569	0.136574	0.161459
H209	H	0.437300	0.164017	0.213772
H210	H	0.491379	0.192190	0.193139
O211	O	0.701217	-0.482060	-0.000016
C212	C	0.704168	-0.453273	-0.042987
H213	H	0.665977	-0.440430	-0.057314
H214	H	0.723190	-0.420402	-0.033321
H215	H	0.725724	-0.475709	-0.073071
O216	O	0.438238	-0.545254	-0.000012
C217	C	0.399673	-0.506819	-0.000003
H218	H	0.412970	-0.472666	-0.015701
H219	H	0.368701	-0.517123	-0.024098
H220	H	0.386164	-0.499589	0.039794
H221	H	0.663725	-0.031269	0.530995
O222	O	0.415670	0.152462	0.000043
C223	C	0.377238	0.191029	0.000028
H224	H	0.343086	0.177741	0.015738
H225	H	0.387546	0.222010	0.024108
H226	H	0.370004	0.204522	-0.039773
O227	O	0.472065	0.160237	0.473115
C228	C	0.442846	0.189450	0.438868
H229	H	0.442456	0.169631	0.401646
H230	H	0.404187	0.197089	0.453953
H231	H	0.458268	0.225254	0.433311
O232	O	0.316322	0.151383	-0.000037
C233	C	0.286807	0.153725	-0.043008
H234	H	0.284532	0.115375	-0.057323
H235	H	0.248782	0.172029	-0.033349
H236	H	0.303240	0.175665	-0.073100
H237	H	0.663720	-0.031258	0.374345
O238	O	0.668861	-0.036523	0.629854
C239	C	0.643193	-0.066154	0.660069
H240	H	0.605081	-0.066706	0.644330
H241	H	0.663200	-0.104714	0.660666
H242	H	0.640542	-0.051005	0.699643
O243	O	0.635790	-0.003304	0.129983
C244	C	0.665415	0.022328	0.099722
H245	H	0.666033	0.060433	0.115458
H246	H	0.703956	0.002279	0.099069
H247	H	0.650213	0.025000	0.060170
O248	O	0.660022	-0.192316	0.000134
C249	C	0.662364	-0.221835	0.043105
H250	H	0.624014	-0.224112	0.057421
H251	H	0.680668	-0.259859	0.033443
H252	H	0.684303	-0.205405	0.073196
H253	H	0.446177	-0.450879	0.000018
O254	O	0.177676	0.194189	0.000056
C255	C	0.139240	0.232752	0.000040
H256	H	0.105088	0.219458	0.015746
H257	H	0.149542	0.263732	0.024125
H258	H	0.132009	0.246248	-0.039760
O259	O	0.078335	0.193105	-0.000034
C260	C	0.048825	0.195447	-0.043009
H261	H	0.046548	0.157097	-0.057323
H262	H	0.010799	0.213754	-0.033354
H263	H	0.065262	0.217385	-0.073099
O264	O	0.472175	0.160239	0.370202
C265	C	0.497833	0.189897	0.340006
H266	H	0.535801	0.170386	0.332176
H267	H	0.477597	0.197687	0.303289
H268	H	0.500848	0.225599	0.360135
H269	H	-0.202311	0.139207	0.000047
O270	O	-0.298671	0.145174	-0.000035
C271	C	-0.290049	0.172123	-0.042995
H272	H	-0.272625	0.146475	-0.073026
H273	H	-0.325965	0.191776	-0.057415
H274	H	-0.264584	0.199909	-0.033282
O275	O	0.472083	0.160228	0.629775
C276	C	0.442863	0.189446	0.595531
H277	H	0.442473	0.169631	0.558307
H278	H	0.404204	0.197082	0.610617
H279	H	0.458284	0.225250	0.589979
O280	O	-0.175338	-0.027645	-0.000014
C281	C	-0.183967	-0.054593	-0.042970
H282	H	-0.201379	-0.028941	-0.073003
H283	H	-0.148054	-0.074258	-0.057391
H284	H	-0.209443	-0.082368	-0.033254
H285	H	0.117558	-0.061861	0.000088
O286	O	0.213861	-0.067857	0.000065
C287	C	0.186168	-0.107096	0.000086
H288	H	0.148448	-0.094539	-0.015618
H289	H	0.204988	-0.137782	-0.023995
H290	H	0.182677	-0.120698	0.039889
O291	O	0.340432	-0.022434	0.000073
C292	C	0.378864	-0.061002	0.000060
H293	H	0.413017	-0.047711	0.015760
H294	H	0.368556	-0.091977	0.024151
H295	H	0.386094	-0.074504	-0.039739
H296	H	0.434827	-0.014492	0.000047
H297	H	0.477330	0.155015	0.531024
O298	O	0.635781	-0.003422	0.232919
C299	C	0.628275	-0.051219	0.220162
H300	H	0.609638	-0.051025	0.182251
H301	H	0.664787	-0.075274	0.218366
H302	H	0.604331	-0.066007	0.249554
O303	O	0.668975	-0.036482	0.473094
C304	C	0.698188	-0.065695	0.438839
H305	H	0.698573	-0.045874	0.401617
H306	H	0.736850	-0.073333	0.453913
H307	H	0.682766	-0.101498	0.433286
O308	O	0.635786	-0.003366	0.870128
C309	C	0.628691	0.003743	0.921816
H310	H	0.590128	0.022081	0.928946
H311	H	0.634337	-0.032901	0.941664
H312	H	0.655871	0.027795	0.936633
