data_functionalizedCrystal
_audit_creation_method	'MofGen! by Chris Wilmer'
_symmetry_space_group_name_H-M	'P1'
_symmetry_Int_Tables_number	1
_symmetry_cell_setting	triclinic
loop_
_symmetry_equiv_pos_as_xyz
  x,y,z
_cell_length_a	15.944551
_cell_length_b	15.944551
_cell_length_c	14.421503
_cell_angle_alpha	90.003141
_cell_angle_beta	90.003340
_cell_angle_gamma	96.501262
loop_
_atom_site_label
_atom_site_type_symbol
_atom_site_fract_x
_atom_site_fract_y
_atom_site_fract_z
O1	O	0.108320	-1.114529	-0.077017
O2	O	0.121677	-0.869980	-0.077040
O3	O	-0.007276	-0.998933	-0.077020
O4	O	0.237273	-0.985576	-0.077038
O5	O	-0.007257	-0.998911	0.077204
O6	O	0.121696	-0.869958	0.077183
O7	O	0.108340	-1.114508	0.077206
Cu8	Cu	0.115020	-0.992231	0.091277
Cu9	Cu	0.114997	-0.992256	-0.091110
O10	O	0.237293	-0.985555	0.077186
C11	C	0.121132	-0.838675	0.000069
C12	C	0.119470	-0.745429	0.000060
C13	C	-0.038561	-0.998367	0.000092
C14	C	-0.131807	-0.996705	0.000093
C15	C	0.108885	-1.145813	0.000096
C16	C	0.110547	-1.239059	0.000098
C17	C	-0.346663	-0.912801	0.000072
C18	C	-0.407671	-0.951753	0.076117
C19	C	-0.302533	-0.993698	0.000085
C20	C	-0.407674	-0.951793	-0.075935
C21	C	-0.467445	-0.990787	0.000074
C22	C	-0.362312	-1.032672	0.076193
C23	C	-0.362308	-1.032701	-0.075927
C24	C	-0.423298	-1.071711	0.000136
C25	C	-0.207530	-0.995372	0.000092
C26	C	-0.562446	-0.989119	0.000073
C27	C	0.268577	-0.986120	0.000072
C28	C	0.361823	-0.987782	0.000066
N29	N	0.115035	-0.992219	0.219558
C30	C	0.035565	-0.530572	0.000084
C31	C	0.074518	-0.469563	-0.075959
C32	C	0.116462	-0.574703	0.000071
C33	C	0.074556	-0.469564	0.076093
C34	C	0.113551	-0.409790	0.000086
C35	C	0.155437	-0.514922	-0.076035
C36	C	0.155464	-0.514929	0.076086
C37	C	0.194476	-0.453937	0.000024
C38	C	0.118137	-0.669705	0.000062
C39	C	0.111883	-0.314789	0.000089
N40	N	0.114975	-0.992275	-0.219392
C41	C	0.174636	-0.932581	0.469202
C42	C	0.190943	-1.008481	0.531011
C43	C	0.115015	-0.992240	0.408719
C44	C	0.098727	-0.916359	0.531005
C45	C	0.114997	-0.992253	0.591441
C46	C	0.131360	-1.068178	0.469167
C47	C	0.039111	-0.976007	0.469156
C48	C	0.055386	-1.051961	0.530936
C49	C	0.115027	-0.992231	0.303458
C50	C	0.114985	-0.992270	0.696700
H51	H	-0.427771	-0.917527	0.140401
H52	H	-0.025051	-0.962240	0.441965
H53	H	0.040333	-0.449469	0.140379
H54	H	-0.342314	-1.066850	0.140554
H55	H	0.261683	-0.420779	-0.000023
H56	H	0.189660	-0.535052	0.140373
H57	H	-0.456457	-1.138919	0.000186
H58	H	0.189620	-0.534918	-0.140394
H59	H	0.225096	-0.882181	0.442096
O60	O	0.267569	-1.024735	0.563388
C61	C	0.417053	-0.980269	0.568622
C62	C	0.330324	-0.961759	0.531916
H63	H	0.467816	-0.929374	0.543176
H64	H	0.416169	-0.980687	0.647667
H65	H	0.431384	-1.044494	0.542144
H66	H	0.315938	-0.897532	0.558326
H67	H	0.331252	-0.961396	0.452873
O68	O	0.147962	-1.144679	0.436751
C69	C	0.166609	-1.230493	0.302400
C70	C	0.147780	-1.143827	0.338987
H71	H	0.166451	-1.229838	0.223354
H72	H	0.231129	-1.244415	0.328385
H73	H	0.116123	-1.281412	0.328386
H74	H	0.198212	-1.092852	0.313016
H75	H	0.083235	-1.129977	0.313009
O76	O	-0.044497	-0.570416	-0.000118
C77	C	-0.147439	-0.666886	-0.079743
C78	C	-0.056747	-0.621829	-0.079612
H79	H	-0.157377	-0.708450	-0.144017
H80	H	-0.157892	-0.707660	-0.014928
H81	H	-0.194213	-0.617850	-0.080406
H82	H	-0.009916	-0.670806	-0.078982
H83	H	-0.046365	-0.581039	-0.144422
O84	O	-0.306959	-0.832682	0.000313
C85	C	-0.284939	-0.699526	0.080725
C86	C	-0.329942	-0.790241	0.080573
H87	H	-0.303518	-0.665181	0.145598
H88	H	-0.213689	-0.701487	0.080121
H89	H	-0.304340	-0.664733	0.016521
H90	H	-0.310611	-0.825086	0.144766
H91	H	-0.401183	-0.788219	0.081128
O92	O	-0.338317	-1.073374	-0.152713
C93	C	-0.333998	-1.076754	-0.319680
C94	C	-0.361198	-1.030608	-0.232789
H95	H	-0.352502	-1.042206	-0.384443
H96	H	-0.262673	-1.078134	-0.318634
H97	H	-0.366736	-1.144130	-0.320283
H98	H	-0.328520	-0.963212	-0.232129
H99	H	-0.432531	-1.029296	-0.233868
H100	H	0.004956	-1.102474	0.557872
O101	O	-0.431532	-0.910860	-0.152606
C102	C	-0.419311	-0.780807	-0.239207
C103	C	-0.392213	-0.827075	-0.152357
H104	H	-0.387548	-0.713054	-0.239024
H105	H	-0.399729	-0.814582	-0.304038
H106	H	-0.490777	-0.780521	-0.238825
H107	H	-0.320752	-0.827374	-0.152649
H108	H	-0.411857	-0.793284	-0.087565
H109	H	0.040294	-0.449461	-0.140243
O110	O	0.082394	-0.839730	0.563296
C111	C	0.126849	-0.690246	0.568591
C112	C	0.145426	-0.776974	0.531947
H113	H	0.177807	-0.639486	0.543276
H114	H	0.062663	-0.675845	0.542058
H115	H	0.126350	-0.691212	0.647633
H116	H	0.145969	-0.776072	0.452909
H117	H	0.209598	-0.791340	0.558551
