data_functionalizedCrystal
_audit_creation_method	'MofGen! by Chris Wilmer'
_symmetry_space_group_name_H-M	'P1'
_symmetry_Int_Tables_number	1
_symmetry_cell_setting	triclinic
loop_
_symmetry_equiv_pos_as_xyz
  x,y,z
_cell_length_a	21.295420
_cell_length_b	21.295418
_cell_length_c	11.169409
_cell_angle_alpha	90.039711
_cell_angle_beta	90.023225
_cell_angle_gamma	90.023182
loop_
_atom_site_label
_atom_site_type_symbol
_atom_site_fract_x
_atom_site_fract_y
_atom_site_fract_z
Zn1	Zn	0.962360	-0.250629	0.678590
Zn2	Zn	0.962271	-0.355917	0.477881
Zn3	Zn	0.857086	-0.250658	0.477912
Zn4	Zn	0.857059	-0.355857	0.678514
O5	O	0.909694	-0.303265	0.578224
O6	O	1.050438	-0.264609	0.651984
O7	O	0.948292	-0.341992	0.309935
O8	O	0.871100	-0.162565	0.504578
O9	O	1.050372	-0.341964	0.504524
O10	O	0.948444	-0.162543	0.652015
O11	O	0.871013	-0.264658	0.309958
O12	O	0.768993	-0.264600	0.504504
O13	O	0.871053	-0.341860	0.846474
O14	O	0.768973	-0.341889	0.651885
O15	O	0.948418	-0.264550	0.846530
O16	O	0.948266	-0.443999	0.504451
O17	O	0.870967	-0.443954	0.651855
C18	C	0.746143	-0.303241	0.578190
C19	C	0.676174	-0.303246	0.578204
C20	C	0.176750	-0.263082	0.655150
C21	C	0.242493	-0.263077	0.655149
C22	C	0.275335	-0.303284	0.578252
C23	C	0.242429	-0.343511	0.501371
C24	C	0.176688	-0.343519	0.501382
N25	N	0.378526	-0.308039	0.473162
N26	N	0.440978	-0.308028	0.473155
C27	C	0.473410	-0.303264	0.578217
N28	N	0.441031	-0.298499	0.683288
N29	N	0.378574	-0.298507	0.683293
C30	C	0.346620	-0.303280	0.578233
C31	C	0.577593	-0.263038	0.655099
C32	C	0.643337	-0.263037	0.655101
C33	C	0.643272	-0.343468	0.501312
C34	C	0.577530	-0.343472	0.501321
C35	C	0.544694	-0.303253	0.578213
C36	C	0.909620	-0.466817	0.578167
C37	C	0.909647	-0.536785	0.578183
C38	C	0.950095	-1.036245	0.501665
C39	C	0.950071	-0.970503	0.501636
C40	C	0.909783	-0.937624	0.578308
C41	C	0.869504	-0.970494	0.654993
C42	C	0.869525	-1.036235	0.655011
N43	N	0.904892	-0.834362	0.683329
N44	N	0.904877	-0.771911	0.683308
C45	C	0.909717	-0.739550	0.578258
N46	N	0.914587	-0.771999	0.473226
N47	N	0.914606	-0.834457	0.473248
C48	C	0.909756	-0.866339	0.578297
C49	C	0.949964	-0.635402	0.501542
C50	C	0.949936	-0.569659	0.501511
C51	C	0.869372	-0.569651	0.654879
C52	C	0.869397	-0.635394	0.654898
C53	C	0.909697	-0.668265	0.578231
C54	C	1.073884	-0.303290	0.578259
C55	C	1.143852	-0.303300	0.578274
C56	C	0.909742	-0.303195	0.891267
C57	C	0.909763	-0.303166	1.024667
C58	C	0.909785	-0.139075	0.578308
C59	C	0.909824	-0.069107	0.578344
C60	C	0.909682	-0.303289	0.266400
C61	C	0.909784	-0.303142	0.133000
H62	H	0.269174	-0.376250	0.438764
H63	H	0.982777	-0.662168	0.439113
H64	H	0.982727	-0.542902	0.439063
O65	O	0.675365	-0.223937	0.729617
C66	C	0.713379	-0.183231	0.661413
H67	H	0.723198	-0.205384	0.570387
H68	H	0.759623	-0.174818	0.710321
H69	H	0.688056	-0.136576	0.648380
O70	O	0.830175	-0.537819	0.729395
C71	C	0.794648	-0.580925	0.797108
H72	H	0.792501	-0.627812	0.747960
H73	H	0.745041	-0.561962	0.809810
H74	H	0.817675	-0.587858	0.888305
O75	O	0.830372	-0.667387	0.729459
C76	C	0.866203	-0.705341	0.807071
H77	H	0.913923	-0.715174	0.764829
H78	H	0.840573	-0.751582	0.823127
H79	H	0.873087	-0.679959	0.896016
O80	O	0.675236	-0.382559	0.426781
C81	C	0.713255	-0.423262	0.494972
H82	H	0.723134	-0.401110	0.585998
H83	H	0.759469	-0.431668	0.446051
H84	H	0.687906	-0.469921	0.508007
O85	O	0.545621	-0.224065	0.729855
C86	C	0.507612	-0.259954	0.807269
H87	H	0.497740	-0.307635	0.764776
H88	H	0.461394	-0.234328	0.823444
H89	H	0.532966	-0.266920	0.896186
O90	O	0.545667	-0.382555	0.426519
C91	C	0.588749	-0.418055	0.358666
H92	H	0.635618	-0.392264	0.354592
H93	H	0.569728	-0.424717	0.264085
H94	H	0.595737	-0.465888	0.402452
O95	O	0.830461	-0.938530	0.729603
C96	C	0.866266	-0.900433	0.807157
H97	H	0.915848	-0.920209	0.814667
H98	H	0.843472	-0.899662	0.899478
H99	H	0.868433	-0.850624	0.770040
O100	O	0.830341	-1.068189	0.729336
C101	C	0.789728	-1.106292	0.660947
H102	H	0.785858	-1.086526	0.566407
H103	H	0.741272	-1.107057	0.704268
H104	H	0.809213	-1.156102	0.656864
H105	H	0.269283	-0.230323	0.717749
O106	O	0.144952	-0.223998	0.729960
C107	C	0.188091	-0.188487	0.797791
H108	H	0.234948	-0.214268	0.801850
H109	H	0.169125	-0.181826	0.892379
H110	H	0.195085	-0.140654	0.753998
H111	H	0.982908	-1.063005	0.439232
H112	H	0.149903	-0.376271	0.438779
H113	H	0.982865	-0.943742	0.439192
