data_functionalizedCrystal
_audit_creation_method	'MofGen! by Chris Wilmer'
_symmetry_space_group_name_H-M	'P1'
_symmetry_Int_Tables_number	1
_symmetry_cell_setting	triclinic
loop_
_symmetry_equiv_pos_as_xyz
  x,y,z
_cell_length_a	14.472310
_cell_length_b	14.853567
_cell_length_c	14.853567
_cell_angle_alpha	83.634930
_cell_angle_beta	90.002737
_cell_angle_gamma	89.989940
loop_
_atom_site_label
_atom_site_type_symbol
_atom_site_fract_x
_atom_site_fract_y
_atom_site_fract_z
O1	O	0.076769	-1.196377	-0.117698
O2	O	0.076784	-0.933917	-0.131719
O3	O	0.076779	-1.072158	0.006521
O4	O	0.076774	-1.058136	-0.255939
O5	O	-0.076903	-1.072122	0.006513
O6	O	-0.076898	-0.933881	-0.131727
O7	O	-0.076913	-1.196341	-0.117706
Cu8	Cu	-0.090938	-1.065108	-0.124717
Cu9	Cu	0.090809	-1.065150	-0.124708
O10	O	-0.076908	-1.058101	-0.255946
C11	C	-0.000055	-0.900311	-0.131088
C12	C	-0.000049	-0.800227	-0.129184
N13	N	-0.218769	-1.065085	-0.124724
C14	C	-0.000059	-1.071504	0.040106
C15	C	-0.000051	-1.069601	0.140189
C16	C	-0.592860	-1.065149	-0.124704
C17	C	-0.553691	-0.990930	-0.198425
C18	C	-0.446603	-0.991102	-0.198695
C19	C	-0.407269	-1.065116	-0.124714
C20	C	-0.446112	-1.159209	-0.145377
C21	C	-0.553233	-1.158792	-0.145902
C22	C	-0.553386	-1.046113	-0.030102
C23	C	-0.446258	-1.043957	-0.030730
C24	C	-0.302381	-1.065104	-0.124717
C25	C	-0.697748	-1.065168	-0.124703
N26	N	0.218640	-1.065180	-0.124695
C27	C	-0.000072	-1.229947	-0.118337
C28	C	-0.000072	-1.330031	-0.120241
C29	C	-0.000068	-0.387693	-0.039019
C30	C	-0.000070	-0.366412	-0.203251
C31	C	-0.000067	-0.460446	-0.205042
C32	C	-0.000063	-0.518108	-0.123819
C33	C	-0.000062	-0.481736	-0.040806
C34	C	-0.000059	-0.496825	-0.288053
C35	C	-0.000055	-0.590864	-0.289846
C36	C	-0.000057	-0.648528	-0.208623
C37	C	-0.000057	-0.612150	-0.125607
C38	C	-0.000054	-0.669812	-0.044384
C39	C	-0.000060	-0.633437	0.038633
C40	C	-0.000065	-0.539399	0.040417
C41	C	-0.000053	-0.742565	-0.210407
C42	C	-0.000048	-0.763855	-0.046172
C43	C	-0.000067	-1.058754	-0.289531
C44	C	-0.000069	-1.060657	-0.389615
C45	C	-0.000064	-0.979435	0.552723
C46	C	-0.000073	-1.143668	0.574004
C47	C	-0.000067	-1.145458	0.479971
C48	C	-0.000062	-1.064235	0.422309
C49	C	-0.000061	-0.981223	0.458680
C50	C	-0.000077	-1.228469	0.443591
C51	C	-0.000073	-1.230262	0.349552
C52	C	-0.000061	-1.149039	0.291889
C53	C	-0.000059	-1.066023	0.328266
C54	C	-0.000053	-0.984800	0.270604
C55	C	-0.000045	-0.901783	0.306979
C56	C	-0.000048	-0.899999	0.401017
C57	C	-0.000057	-1.150823	0.197851
C58	C	-0.000051	-0.986588	0.176561
H59	H	-0.420343	-0.921165	-0.186366
C60	C	-0.000076	-0.302988	-0.292588
H61	H	-0.000084	-0.241773	-0.279634
H62	H	0.053513	-0.314032	-0.326624
H63	H	-0.053678	-0.314019	-0.326619
C64	C	-0.000044	-0.827280	0.043173
H65	H	-0.000044	-0.888496	0.030222
H66	H	0.053544	-0.816245	0.077212
H67	H	-0.053647	-0.816237	0.077198
C68	C	-0.000050	-0.888121	0.592726
H69	H	-0.000038	-0.840007	0.544914
H70	H	-0.053638	-0.883990	0.628968
H71	H	0.053554	-0.884026	0.628967
H72	H	-0.000077	-0.358072	0.028572
H73	H	-0.420631	-1.215762	-0.093116
C74	C	-0.410105	-1.112232	0.046867
H75	H	-0.370587	-1.154729	0.022855
H76	H	-0.376661	-1.080898	0.088760
H77	H	-0.460774	-1.143213	0.076849
C78	C	-0.000041	-0.808689	0.441027
H79	H	-0.000026	-0.760570	0.393220
H80	H	-0.053633	-0.804564	0.477264
H81	H	0.053558	-0.804596	0.477274
C82	C	-0.588531	-0.896145	-0.182056
H83	H	-0.627282	-0.900981	-0.130119
H84	H	-0.537293	-0.858355	-0.172587
H85	H	-0.622535	-0.870627	-0.233364
C86	C	-0.000080	-1.233007	0.637424
H87	H	-0.000085	-1.282702	0.602293
H88	H	0.053509	-1.235733	0.674560
H89	H	-0.053683	-1.235711	0.674541
H90	H	-0.419277	-1.176363	-0.213588
H91	H	-0.000047	-0.835652	0.260019
H92	H	-0.000091	-1.294596	0.490546
H93	H	-0.578211	-1.175549	-0.214898
C94	C	-0.000050	-0.433403	-0.377391
H95	H	-0.000034	-0.468533	-0.427087
H96	H	-0.053643	-0.396267	-0.380117
H97	H	0.053548	-0.396287	-0.380092
H98	H	-0.000092	-0.509774	0.108005
H99	H	-0.420971	-1.003270	-0.268895
C100	C	-0.000068	-1.242129	0.157841
H101	H	-0.000071	-1.290246	0.205650
H102	H	-0.053658	-1.246224	0.121590
H103	H	0.053533	-1.246257	0.121608
H104	H	-0.579141	-1.215752	-0.094330
C105	C	-0.000070	-1.321575	0.309547
H106	H	-0.000067	-1.369691	0.357357
H107	H	-0.053656	-1.325680	0.273294
H108	H	0.053535	-1.325694	0.273317
H109	H	-0.580603	-1.002931	-0.268230
H110	H	-0.580449	-0.978984	-0.010262
C111	C	-0.000060	-0.630869	-0.381159
H112	H	-0.000070	-0.583059	-0.429274
H113	H	0.053530	-0.667123	-0.385273
H114	H	-0.053662	-0.667098	-0.385268
C115	C	-0.411970	-0.950452	-0.009546
H116	H	-0.374045	-0.924412	-0.057768
H117	H	-0.463468	-0.912095	-0.002856
H118	H	-0.377221	-0.957167	0.045051
C119	C	-0.000042	-0.782576	-0.301713
H120	H	-0.000046	-0.734766	-0.349830
H121	H	0.053551	-0.818827	-0.305817
H122	H	-0.053640	-0.818807	-0.305831
H123	H	-0.578714	-1.100236	0.024760
H124	H	-0.000042	-0.920445	0.129618
H125	H	-0.000051	-0.680397	0.104764
