data_functionalizedCrystal
_audit_creation_method	'MofGen! by Chris Wilmer'
_symmetry_space_group_name_H-M	'P1'
_symmetry_Int_Tables_number	1
_symmetry_cell_setting	triclinic
loop_
_symmetry_equiv_pos_as_xyz
  x,y,z
_cell_length_a	18.050591
_cell_length_b	12.594516
_cell_length_c	12.594509
_cell_angle_alpha	90.026199
_cell_angle_beta	90.017207
_cell_angle_gamma	90.015948
loop_
_atom_site_label
_atom_site_type_symbol
_atom_site_fract_x
_atom_site_fract_y
_atom_site_fract_z
Zn1	Zn	-1.135400	0.423713	-0.601758
Zn2	Zn	-1.135324	0.601723	-0.423786
Zn3	Zn	-1.011206	0.423759	-0.423800
Zn4	Zn	-1.011194	0.601650	-0.601729
O5	O	-1.073281	0.512711	-0.512768
O6	O	-1.239314	0.447338	-0.578156
O7	O	-1.118833	0.578166	-0.274842
O8	O	-1.027718	0.274807	-0.447424
O9	O	-1.239259	0.578121	-0.447401
O10	O	-1.118962	0.274773	-0.578170
O11	O	-1.027644	0.447416	-0.274852
O12	O	-0.907280	0.447345	-0.447396
O13	O	-1.027697	0.577996	-0.750678
O14	O	-0.907271	0.578040	-0.578119
O15	O	-1.118950	0.447267	-0.750700
O16	O	-1.118821	0.750659	-0.447372
O17	O	-1.027623	0.750605	-0.578106
C18	C	-0.880329	0.512690	-0.512757
C19	C	-0.797783	0.512707	-0.512777
C20	C	-0.548974	0.583933	-0.583764
C21	C	-0.598341	0.609847	-0.486616
C22	C	-0.500663	0.512748	-0.512771
C23	C	-0.598378	0.486864	-0.609916
C24	C	-0.646648	0.512731	-0.512779
C25	C	-0.548942	0.538713	-0.415571
C26	C	-0.548975	0.415684	-0.538937
C27	C	-0.598319	0.441562	-0.441722
C28	C	-0.416564	0.512761	-0.512768
C29	C	-0.730744	0.512718	-0.512771
C30	C	-1.073232	0.789252	-0.512758
C31	C	-1.073279	0.907558	-0.512789
C32	C	-1.073331	0.512618	-0.790389
C33	C	-1.073352	0.512578	-0.908695
C34	C	-0.266986	0.512740	-0.512777
C35	C	-0.349532	0.512769	-0.512771
C36	C	-1.073350	0.235090	-0.512802
C37	C	-1.073379	0.116785	-0.512816
C38	C	-1.023672	0.976820	-0.583845
C39	C	-1.005577	1.047685	-0.486724
C40	C	-1.091442	1.047491	-0.609927
C41	C	-1.055149	0.976865	-0.415616
C42	C	-1.141045	0.976664	-0.538885
C43	C	-1.122976	1.047498	-0.441696
C44	C	-1.023734	0.583641	-0.977936
C45	C	-1.091499	0.609648	-1.048720
C46	C	-1.005640	0.486508	-1.048709
C47	C	-1.141152	0.538636	-0.977921
C48	C	-1.055247	0.415450	-0.977903
C49	C	-1.123059	0.441420	-1.048656
C50	C	-1.073274	0.512727	-0.236227
C51	C	-1.073397	0.512467	-0.117922
H52	H	-0.620092	0.464978	-0.692068
O53	O	-0.624303	0.707752	-0.460353
C54	C	-0.668353	0.747284	-0.543915
H55	H	-0.690031	0.678240	-0.593572
H56	H	-0.717053	0.793619	-0.509667
H57	H	-0.633599	0.801958	-0.596074
H58	H	-0.527318	0.560698	-0.333397
O59	O	-1.173132	0.369671	-1.085649
C60	C	-1.172199	0.369792	-1.197589
H61	H	-1.116637	0.401438	-1.226734
H62	H	-1.180512	0.285371	-1.228042
H63	H	-1.218691	0.422664	-1.228509
H64	H	-0.619849	0.381356	-0.381619
O65	O	-1.209554	0.564831	-0.941041
C66	C	-1.261834	0.490237	-0.977937
H67	H	-1.232484	0.412706	-0.998223
H68	H	-1.304907	0.475107	-0.913511
H69	H	-1.290387	0.522577	-1.051911
O70	O	-1.209375	0.939593	-0.565305
C71	C	-1.257213	1.025903	-0.584761
H72	H	-1.223128	1.098863	-0.606743
H73	H	-1.296190	1.005272	-0.652960
H74	H	-1.291002	1.043364	-0.510316
O75	O	-0.522988	0.317880	-0.565498
C76	C	-0.478954	0.325727	-0.657608
H77	H	-0.457309	0.410370	-0.665773
H78	H	-0.430233	0.268496	-0.651312
H79	H	-0.513712	0.304659	-0.730219
H80	H	-0.981646	0.945785	-0.643847
O81	O	-0.523154	0.655951	-0.655173
C82	C	-0.548324	0.758169	-0.627199
H83	H	-0.562161	0.760070	-0.538909
H84	H	-0.503149	0.818916	-0.644849
H85	H	-0.600013	0.778178	-0.675216
H86	H	-1.039890	0.333382	-0.946774
O87	O	-0.937343	0.460306	-1.085985
C88	C	-0.938492	0.459642	-1.197920
H89	H	-0.985784	0.511868	-1.227400
H90	H	-0.883641	0.491592	-1.229406
H91	H	-0.946978	0.374933	-1.227468
O92	O	-0.937218	1.084856	-0.460570
C93	C	-0.885027	1.048831	-0.535651
H94	H	-0.914521	1.028882	-0.613188
H95	H	-0.842181	1.113652	-0.550528
H96	H	-0.856176	0.974831	-0.503951
O97	O	-1.109638	1.084378	-0.707993
C98	C	-1.057125	1.048388	-0.782629
H99	H	-1.028812	0.973918	-0.751046
H100	H	-1.086202	1.029225	-0.860686
H101	H	-1.013899	1.112917	-0.796506
O102	O	-0.973632	0.655294	-0.940831
C103	C	-0.919845	0.602446	-0.879232
H104	H	-0.917581	0.515252	-0.903344
H105	H	-0.863370	0.640591	-0.892923
H106	H	-0.935088	0.608759	-0.791620
O107	O	-1.036768	0.939838	-0.317674
C108	C	-1.036924	0.827895	-0.318846
H109	H	-1.028618	0.798556	-0.403651
H110	H	-0.990082	0.797080	-0.266540
H111	H	-1.092196	0.797531	-0.287297
O112	O	-1.172991	1.084248	-0.369802
C113	C	-1.153630	1.048046	-0.267578
H114	H	-1.092006	1.028370	-0.265476
H115	H	-1.166149	1.112653	-0.206756
H116	H	-1.187079	0.973843	-0.247842
H117	H	-1.106836	0.691739	-1.079827
