data_functionalizedCrystal
_audit_creation_method	'MofGen! by Chris Wilmer'
_symmetry_space_group_name_H-M	'P1'
_symmetry_Int_Tables_number	1
_symmetry_cell_setting	triclinic
loop_
_symmetry_equiv_pos_as_xyz
  x,y,z
_cell_length_a	10.654550
_cell_length_b	26.809956
_cell_length_c	10.654550
_cell_angle_alpha	90.004293
_cell_angle_beta	84.484931
_cell_angle_gamma	90.012826
loop_
_atom_site_label
_atom_site_type_symbol
_atom_site_fract_x
_atom_site_fract_y
_atom_site_fract_z
O1	O	1.667863	0.041442	0.176396
O2	O	1.302384	0.041451	0.193203
O3	O	1.493526	0.041443	0.002060
O4	O	1.476720	0.041450	0.367539
O5	O	1.493467	-0.041516	0.002059
O6	O	1.302325	-0.041508	0.193202
O7	O	1.667803	-0.041517	0.176396
Zn8	Zn	1.485054	-0.054684	0.184798
Zn9	Zn	1.485133	0.054618	0.184800
O10	O	1.476661	-0.041509	0.367538
C11	C	1.255556	-0.000027	0.191968
C12	C	1.116113	-0.000024	0.188276
N13	N	1.485010	-0.129280	0.184797
C14	C	1.036628	-0.000023	0.300818
C15	C	0.905607	-0.000032	0.297341
C16	C	0.933570	-0.000040	0.068772
C17	C	1.064588	-0.000035	0.072250
C18	C	1.561947	-0.473907	0.261666
C19	C	1.561988	-0.682784	0.261665
O20	O	1.627369	-0.709789	0.327007
N21	N	1.485163	-0.708907	0.184787
C22	C	1.408328	-0.682807	0.107898
O23	O	1.342994	-0.709819	0.042499
C24	C	1.408295	-0.473930	0.107892
C25	C	1.485116	-0.447810	0.184785
C26	C	1.638763	-0.447787	0.338551
C27	C	1.638747	-0.395570	0.338555
C28	C	1.561915	-0.369474	0.261675
C29	C	1.485100	-0.395594	0.184789
C30	C	1.331468	-0.447832	0.030997
C31	C	1.331469	-0.395609	0.031000
C32	C	1.408290	-0.369489	0.107893
C33	C	1.408252	-0.317282	0.107913
N34	N	1.485077	-0.291159	0.184791
C35	C	1.561909	-0.317255	0.261672
C36	C	1.408349	-0.792470	0.107908
C37	C	1.408355	-0.844689	0.107911
C38	C	1.562017	-0.844663	0.261677
C39	C	1.562003	-0.792443	0.261680
C40	C	1.485174	-0.766348	0.184786
C41	C	1.561868	-0.207597	0.261676
C42	C	1.561842	-0.155376	0.261678
C43	C	1.408185	-0.155407	0.107907
C44	C	1.408207	-0.207624	0.107910
C45	C	1.485058	-0.233717	0.184798
O46	O	1.342916	-0.290245	0.042595
O47	O	1.627254	-0.290234	0.327040
C48	C	1.561963	-0.526123	0.261661
C49	C	1.485148	-0.552243	0.184776
C50	C	1.408316	-0.526147	0.107895
C51	C	1.485154	-0.604462	0.184779
C52	C	1.561986	-0.630558	0.261660
C53	C	1.638811	-0.604435	0.338538
C54	C	1.638795	-0.552219	0.338542
C55	C	1.331491	-0.552270	0.031017
C56	C	1.331512	-0.604486	0.031020
C57	C	1.408344	-0.630582	0.107901
C58	C	1.714631	-0.000037	0.177630
C59	C	1.854074	-0.000038	0.181322
C60	C	1.492263	-0.000036	-0.044738
C61	C	1.488571	-0.000035	-0.184181
N62	N	1.485187	0.129214	0.184791
C63	C	1.601112	-0.000038	-0.263667
C64	C	1.597636	-0.000031	-0.394688
C65	C	1.369066	-0.000022	-0.366725
C66	C	1.372544	-0.000025	-0.235706
C67	C	1.477925	-0.000029	0.414336
C68	C	1.481616	-0.000026	0.553779
H69	H	1.078574	-0.000018	0.395294
Br70	Br	1.742985	-0.360130	0.442940
H71	H	1.268943	-0.625748	-0.031592
Br72	Br	1.172472	-0.000042	-0.080497
H73	H	1.624398	-0.134112	0.324299
H74	H	1.695588	-0.000045	-0.221720
Br75	Br	0.797737	-0.000033	0.450083
Br76	Br	1.743074	-0.639862	0.442882
H77	H	0.891602	-0.000052	-0.025693
Br78	Br	1.666169	-0.243002	0.366024
Br79	Br	1.211609	-0.000007	-0.436660
H80	H	1.701335	-0.469029	0.401157
H81	H	1.624557	-0.771180	0.324293
H82	H	1.280893	-0.000021	-0.170985
Br83	Br	1.304045	-0.757063	0.003566
Br84	Br	1.666291	-0.880089	0.366012
H85	H	1.345637	-0.228892	0.045314
H86	H	1.345785	-0.865952	0.045312
H87	H	1.701350	-0.530957	0.401156
H88	H	1.268914	-0.469090	-0.031619
H89	H	1.268905	-0.374365	-0.031618
Br90	Br	1.303915	-0.119981	0.003578
Br91	Br	1.227188	-0.516861	-0.073312
H92	H	1.689279	-0.000033	-0.459401
