data_functionalizedCrystal
_audit_creation_method	'MofGen! by Chris Wilmer'
_symmetry_space_group_name_H-M	'P1'
_symmetry_Int_Tables_number	1
_symmetry_cell_setting	triclinic
loop_
_symmetry_equiv_pos_as_xyz
  x,y,z
_cell_length_a	13.339070
_cell_length_b	15.021413
_cell_length_c	13.339070
_cell_angle_alpha	90.007525
_cell_angle_beta	64.370706
_cell_angle_gamma	90.009942
loop_
_atom_site_label
_atom_site_type_symbol
_atom_site_fract_x
_atom_site_fract_y
_atom_site_fract_z
O1	O	1.496809	0.074055	-0.550514
O2	O	1.182000	0.074051	-0.478254
O3	O	1.303274	0.074050	-0.356979
O4	O	1.375534	0.074056	-0.671788
O5	O	1.303254	-0.074014	-0.356995
O6	O	1.181980	-0.074013	-0.478270
O7	O	1.496789	-0.074009	-0.550530
Zn8	Zn	1.339381	-0.097519	-0.514403
Zn9	Zn	1.339408	0.097562	-0.514381
O10	O	1.375514	-0.074008	-0.671805
C11	C	1.140874	0.000019	-0.466056
C12	C	1.018360	0.000017	-0.429672
N13	N	1.339371	-0.230657	-0.514419
C14	C	0.732973	0.000037	-0.712571
C15	C	0.848081	0.000041	-0.746759
C16	C	0.890657	0.000035	-0.667490
C17	C	0.818112	0.000025	-0.554028
C18	C	0.702992	0.000027	-0.519837
C19	C	0.860676	0.000025	-0.474756
C20	C	0.788132	0.000016	-0.361294
C21	C	0.673023	0.000018	-0.327109
C22	C	0.630448	0.000024	-0.406377
C23	C	0.975796	0.000023	-0.508947
C24	C	0.945816	0.000013	-0.316213
C25	C	0.830707	0.000009	-0.282025
C26	C	1.283271	-0.470340	-0.570457
C27	C	1.388482	-0.529672	-0.619622
C28	C	1.339391	-0.412264	-0.514400
C29	C	1.234215	-0.529673	-0.465266
C30	C	1.339403	-0.587688	-0.514381
C31	C	1.444666	-0.470290	-0.563628
C32	C	1.290321	-0.470285	-0.409211
C33	C	1.395592	-0.529591	-0.458355
C34	C	1.339384	-0.311206	-0.514413
C35	C	1.339421	-0.688743	-0.514370
C36	C	1.537914	0.000026	-0.562728
C37	C	1.660428	0.000033	-0.599111
C38	C	1.291058	0.000019	-0.315872
C39	C	1.254675	0.000022	-0.193358
N40	N	1.339424	0.230699	-0.514358
C41	C	1.387730	0.000025	-0.712912
C42	C	1.424114	0.000028	-0.835426
C43	C	1.537574	0.000025	0.092030
C44	C	1.571761	0.000018	-0.023079
C45	C	1.492492	0.000019	-0.065654
C46	C	1.379030	0.000028	0.006890
C47	C	1.344839	0.000029	0.122010
C48	C	1.299758	0.000022	-0.035674
C49	C	1.186296	0.000031	0.036871
C50	C	1.152111	0.000033	0.151979
C51	C	1.231380	0.000031	0.194555
C52	C	1.333949	0.000021	-0.150794
C53	C	1.141215	0.000025	-0.120813
C54	C	1.107028	0.000033	-0.005705
H55	H	1.034852	0.000027	-0.601328
H56	H	1.248784	-0.444179	-0.320279
H57	H	0.984385	0.000040	-0.695333
H58	H	0.907140	0.000056	-0.839139
H59	H	0.771625	0.000008	-0.189642
H60	H	1.235894	-0.444324	-0.617934
Cl61	Cl	1.582073	-0.430193	-0.627932
H62	H	1.203550	0.000041	0.288284
H63	H	1.426331	0.000014	-0.209849
H64	H	1.602102	0.000017	0.126707
Cl65	Cl	0.679443	0.000059	-0.812209
H66	H	0.980479	0.000012	-0.251665
H67	H	1.145264	-0.555759	-0.423722
H68	H	1.429995	-0.555758	-0.708572
H69	H	1.443126	-0.555444	-0.410957
H70	H	1.520335	0.000012	-0.159382
H71	H	1.664142	0.000009	-0.082137
H72	H	0.536718	0.000020	-0.378547
Cl73	Cl	1.041556	0.000020	-0.174328
H74	H	1.059723	0.000033	0.211043
H75	H	1.014645	0.000039	0.053377
H76	H	0.613959	0.000019	-0.234720
