data_functionalizedCrystal
_audit_creation_method	'MofGen! by Chris Wilmer'
_symmetry_space_group_name_H-M	'P1'
_symmetry_Int_Tables_number	1
_symmetry_cell_setting	triclinic
loop_
_symmetry_equiv_pos_as_xyz
  x,y,z
_cell_length_a	16.109301
_cell_length_b	22.010155
_cell_length_c	16.109301
_cell_angle_alpha	90.002829
_cell_angle_beta	96.538519
_cell_angle_gamma	90.005741
loop_
_atom_site_label
_atom_site_type_symbol
_atom_site_fract_x
_atom_site_fract_y
_atom_site_fract_z
O1	O	1.103138	0.050489	-0.106856
O2	O	1.603138	0.550489	0.393144
O3	O	0.861076	0.050499	-0.120155
O4	O	1.361076	0.550499	0.379845
O5	O	0.988757	0.050487	0.007526
O6	O	1.488757	0.550487	0.507526
O7	O	0.975457	0.050500	-0.234536
O8	O	1.475457	0.550500	0.265464
O9	O	0.988733	-0.050563	0.007507
O10	O	1.488733	0.449437	0.507507
O11	O	0.861053	-0.050552	-0.120174
O12	O	1.361053	0.449448	0.379826
O13	O	1.103115	-0.050562	-0.106875
O14	O	1.603115	0.449438	0.393125
Cu15	Cu	0.982082	-0.059783	-0.113526
Cu16	Cu	1.482082	0.440217	0.386474
Cu17	Cu	0.982109	0.059720	-0.113504
Cu18	Cu	1.482109	0.559720	0.386496
O19	O	0.975434	-0.050550	-0.234555
O20	O	1.475434	0.449450	0.265445
C21	C	0.830090	-0.000025	-0.119626
C22	C	1.330090	0.499975	0.380374
C23	C	0.737794	-0.000022	-0.118011
C24	C	1.237794	0.499978	0.381989
N25	N	0.982068	-0.143836	-0.113542
N26	N	1.482068	0.356164	0.386458
C27	C	0.515522	-0.000025	-0.190018
C28	C	1.015522	0.499975	0.309982
C29	C	0.428801	-0.000029	-0.188494
C30	C	0.928801	0.499971	0.311506
C31	C	0.448676	-0.000035	-0.037006
C32	C	0.948676	0.499965	0.462994
C33	C	0.535394	-0.000035	-0.038530
C34	C	1.035394	0.499965	0.461470
C35	C	0.568815	-0.000027	-0.115039
C36	C	1.068815	0.499973	0.384961
C37	C	0.395376	-0.000031	-0.111990
C38	C	0.895376	0.499969	0.388010
C39	C	0.301350	-0.000035	-0.110337
C40	C	0.801350	0.499965	0.389663
C41	C	0.662847	-0.000024	-0.116693
C42	C	1.162847	0.499976	0.383307
C43	C	1.038649	-0.563620	-0.056975
C44	C	1.538649	-0.063620	0.443025
C45	C	1.038653	-0.627228	-0.056969
C46	C	1.538653	-0.127228	0.443031
O47	O	1.086727	-0.660124	-0.008884
O48	O	1.586727	-0.160124	0.491116
N49	N	0.982109	-0.659043	-0.113486
N50	N	1.482109	-0.159043	0.386514
C51	C	0.925551	-0.627247	-0.170007
C52	C	1.425551	-0.127247	0.329993
O53	O	0.877455	-0.660149	-0.218078
O54	O	1.377455	-0.160149	0.281922
C55	C	0.925544	-0.563641	-0.170008
C56	C	1.425544	-0.063641	0.329992
C57	C	0.982098	-0.531829	-0.113493
C58	C	1.482098	-0.031829	0.386507
C59	C	1.095198	-0.531809	-0.000463
C60	C	1.595198	-0.031809	0.499537
C61	C	1.095195	-0.468205	-0.000470
C62	C	1.595195	0.031795	0.499530
C63	C	1.038643	-0.436414	-0.056988
C64	C	1.538643	0.063586	0.443012
C65	C	0.982095	-0.468226	-0.113500
C66	C	1.482095	0.031774	0.386500
C67	C	0.868982	-0.531846	-0.226525
C68	C	1.368982	-0.031846	0.273475
C69	C	0.868980	-0.468235	-0.226520
C70	C	1.368980	0.031765	0.273480
C71	C	0.925534	-0.436424	-0.170005
C72	C	1.425534	0.063576	0.329995
C73	C	0.925540	-0.372831	-0.170025
C74	C	1.425540	0.127169	0.329975
N75	N	0.982084	-0.341016	-0.113508
N76	N	1.482084	0.158984	0.386492
C77	C	1.038636	-0.372807	-0.056990
C78	C	1.538636	0.127193	0.443010
C79	C	0.925569	-0.760825	-0.170000
C80	C	1.425569	-0.260825	0.330000
C81	C	0.925580	-0.824430	-0.170003
C82	C	1.425580	-0.324430	0.329997
C83	C	1.038681	-0.824407	-0.056964
C84	C	1.538681	-0.324407	0.443036
C85	C	1.038674	-0.760800	-0.056965
C86	C	1.538674	-0.260800	0.443035
C87	C	0.982114	-0.729010	-0.113482
C88	C	1.482114	-0.229010	0.386518
C89	C	1.038626	-0.239236	-0.057009
C90	C	1.538626	0.260764	0.442991
C91	C	1.038620	-0.175627	-0.057023
C92	C	1.538620	0.324373	0.442977
C93	C	0.925516	-0.175656	-0.170059
C94	C	1.425516	0.324344	0.329941
C95	C	0.925524	-0.239260	-0.170048
C96	C	1.425524	0.260740	0.329952
C97	C	0.982082	-0.271048	-0.113516
C98	C	1.482082	0.228952	0.386484
O99	O	0.877488	-0.339895	-0.218083
O100	O	1.377488	0.160105	0.281917
O101	O	1.086717	-0.339898	-0.008919
O102	O	1.586717	0.160102	0.491081
C103	C	1.134101	-0.000036	-0.107404
C104	C	1.634101	0.499964	0.392596
C105	C	1.226397	-0.000036	-0.109019
C106	C	1.726397	0.499964	0.390981
C107	C	0.988206	-0.000038	0.038491
C108	C	1.488206	0.499962	0.538491
C109	C	0.986591	-0.000039	0.130786
C110	C	1.486591	0.499961	0.630786
N111	N	0.982129	0.143773	-0.113482
N112	N	1.482129	0.643773	0.386518
C113	C	0.975984	-0.000023	-0.265521
C114	C	1.475984	0.499977	0.234479
C115	C	0.977600	-0.000019	-0.357816
C116	C	1.477600	0.499981	0.142184
C117	C	1.058599	-0.000032	0.353059
C118	C	1.558599	0.499968	0.853059
C119	C	1.057075	-0.000027	0.439779
C120	C	1.557075	0.499973	0.939779
C121	C	0.905586	-0.000024	0.419905
C122	C	1.405586	0.499976	0.919905
C123	C	0.907111	-0.000024	0.333186
C124	C	1.407111	0.499976	0.833186
C125	C	0.983620	-0.000032	0.299766
C126	C	1.483620	0.499968	0.799766
C127	C	0.980571	-0.000026	0.473205
C128	C	1.480571	0.499974	0.973205
C129	C	0.978918	-0.000021	0.567231
C130	C	1.478918	0.499979	1.067231
C131	C	0.985273	-0.000036	0.205734
C132	C	1.485273	0.499964	0.705734
H133	H	0.542730	-0.000023	-0.252317
H134	H	1.042730	0.499977	0.247683
H135	H	1.120897	-0.000037	0.325851
H136	H	1.620897	0.499963	0.825851
H137	H	0.385413	-0.000029	-0.249550
H138	H	0.885413	0.499971	0.250450
H139	H	0.578788	-0.000038	0.022530
H140	H	1.078788	0.499962	0.522530
H141	H	0.421454	-0.000045	0.025285
H142	H	0.921454	0.499955	0.525285
N143	N	1.099679	-0.858702	0.003998
N144	N	1.599679	-0.358702	0.503998
H145	H	1.091095	-0.903823	-0.004580
H146	H	1.591095	-0.403823	0.495420
H147	H	1.090093	-0.847584	0.062983
H148	H	1.590093	-0.347584	0.562983
N149	N	0.807978	-0.433950	-0.287487
N150	N	1.307978	0.066050	0.212513
H151	H	0.816552	-0.388827	-0.278920
H152	H	1.316552	0.111173	0.221080
H153	H	0.749007	-0.445075	-0.277859
H154	H	1.249007	0.054925	0.222141
H155	H	1.084676	-0.149728	-0.011002
H156	H	1.584676	0.350272	0.488998
H157	H	0.822931	-0.557738	-0.272544
H158	H	1.322931	-0.057738	0.227456
H159	H	0.843295	-0.000019	0.447127
H160	H	1.343295	0.499981	0.947127
N161	N	1.156186	-0.433897	0.060491
N162	N	1.656186	0.066103	0.560491
H163	H	1.215188	-0.444965	0.050899
H164	H	1.715188	0.055035	0.550899
H165	H	1.146553	-0.444983	0.119473
H166	H	1.646553	0.055017	0.619473
N167	N	0.864541	-0.273581	-0.231007
N168	N	1.364541	0.226419	0.268993
H169	H	0.874098	-0.262519	-0.290020
H170	H	1.374098	0.237481	0.209980
H171	H	0.805565	-0.262503	-0.221346
H172	H	1.305565	0.237497	0.278654
N173	N	1.099631	-0.273517	0.003958
N174	N	1.599631	0.226483	0.503958
H175	H	1.135452	-0.243705	0.039749
H176	H	1.635452	0.256295	0.539749
H177	H	1.136376	-0.299903	-0.027886
H178	H	1.636376	0.200097	0.472114
H179	H	1.141249	-0.557687	0.045565
H180	H	1.641249	-0.057687	0.545565
N181	N	1.099660	-0.726484	0.003992
N182	N	1.599660	-0.226484	0.503992
H183	H	1.158664	-0.737544	-0.005600
H184	H	1.658664	-0.237544	0.494400
H185	H	1.090032	-0.737567	0.062976
H186	H	1.590032	-0.237567	0.562976
H187	H	0.879537	-0.850327	-0.216032
H188	H	1.379537	-0.350327	0.283968
H189	H	0.879513	-0.734944	-0.216030
H190	H	1.379513	-0.234944	0.283970
N191	N	1.137942	-0.000031	0.497264
N192	N	1.637942	0.499969	0.997264
H193	H	1.171332	0.037425	0.486517
H194	H	1.671332	0.537425	0.986517
H195	H	1.171245	-0.037518	0.486488
H196	H	1.671245	0.462482	0.986488
H197	H	0.879474	-0.149762	-0.216078
H198	H	1.379474	0.350238	0.283922
N199	N	0.826237	-0.000019	0.275698
N200	N	1.326237	0.499981	0.775698
H201	H	0.777538	-0.000019	0.310026
H202	H	1.277538	0.499981	0.810026
H203	H	0.823564	-0.037479	0.239280
H204	H	1.323564	0.462521	0.739280
