data_functionalizedCrystal
_audit_creation_method	'MofGen! by Chris Wilmer'
_symmetry_space_group_name_H-M	'P1'
_symmetry_Int_Tables_number	1
_symmetry_cell_setting	triclinic
loop_
_symmetry_equiv_pos_as_xyz
  x,y,z
_cell_length_a	16.109318
_cell_length_b	14.586319
_cell_length_c	16.109304
_cell_angle_alpha	89.997377
_cell_angle_beta	83.465600
_cell_angle_gamma	90.002271
loop_
_atom_site_label
_atom_site_type_symbol
_atom_site_fract_x
_atom_site_fract_y
_atom_site_fract_z
O1	O	1.103126	0.076158	0.106930
O2	O	1.353126	0.326158	0.356930
O3	O	1.603126	0.576158	0.606930
O4	O	1.853126	0.826158	0.856930
O5	O	0.861066	0.076176	0.120214
O6	O	1.111066	0.326176	0.370214
O7	O	1.361066	0.576176	0.620214
O8	O	1.611066	0.826176	0.870214
O9	O	0.988745	0.076167	-0.007458
O10	O	1.238745	0.326167	0.242542
O11	O	1.488745	0.576167	0.492542
O12	O	1.738745	0.826167	0.742542
O13	O	0.975448	0.076167	0.234602
O14	O	1.225448	0.326167	0.484602
O15	O	1.475448	0.576167	0.734602
O16	O	1.725448	0.826167	0.984602
O17	O	0.988729	-0.076314	-0.007451
O18	O	1.238729	0.173686	0.242549
O19	O	1.488729	0.423686	0.492549
O20	O	1.738729	0.673686	0.742549
O21	O	0.861051	-0.076305	0.120222
O22	O	1.111051	0.173695	0.370222
O23	O	1.361051	0.423695	0.620222
O24	O	1.611051	0.673695	0.870222
O25	O	1.103111	-0.076323	0.106937
O26	O	1.353111	0.173677	0.356937
O27	O	1.603111	0.423677	0.606937
O28	O	1.853111	0.673677	0.856937
Cu29	Cu	0.982079	-0.090236	0.113580
Cu30	Cu	1.232079	0.159764	0.363580
Cu31	Cu	1.482079	0.409764	0.613580
Cu32	Cu	1.732079	0.659764	0.863580
Cu33	Cu	0.982098	0.090090	0.113571
Cu34	Cu	1.232098	0.340090	0.363571
Cu35	Cu	1.482098	0.590090	0.613571
Cu36	Cu	1.732098	0.840090	0.863571
O37	O	0.975432	-0.076314	0.234610
O38	O	1.225432	0.173686	0.484610
O39	O	1.475432	0.423686	0.734610
O40	O	1.725432	0.673686	0.984610
C41	C	0.830084	-0.000062	0.119677
C42	C	1.080084	0.249938	0.369677
C43	C	1.330084	0.499938	0.619677
C44	C	1.580084	0.749938	0.869677
C45	C	0.737789	-0.000055	0.118056
C46	C	0.987789	0.249945	0.368056
C47	C	1.237789	0.499945	0.618056
C48	C	1.487789	0.749945	0.868056
N49	N	0.982072	-0.217068	0.113586
N50	N	1.232072	0.032932	0.363586
N51	N	1.482072	0.282932	0.613586
N52	N	1.732072	0.532932	0.863586
C53	C	0.438724	0.083046	0.112817
C54	C	0.688724	0.333046	0.362817
C55	C	0.938724	0.583046	0.612817
C56	C	1.188724	0.833046	0.862817
C57	C	0.525445	0.083052	0.114335
C58	C	0.775445	0.333052	0.364335
C59	C	1.025445	0.583052	0.614335
C60	C	1.275445	0.833052	0.864335
C61	C	0.525447	-0.083191	0.114332
C62	C	0.775447	0.166809	0.364332
C63	C	1.025447	0.416809	0.614332
C64	C	1.275447	0.666809	0.864332
C65	C	0.438728	-0.083196	0.112808
C66	C	0.688728	0.166804	0.362808
C67	C	0.938728	0.416804	0.612808
C68	C	1.188728	0.666804	0.862808
C69	C	0.395368	-0.000074	0.112055
C70	C	0.645368	0.249926	0.362055
C71	C	0.895368	0.499926	0.612055
C72	C	1.145368	0.749926	0.862055
C73	C	0.568809	-0.000064	0.115096
C74	C	0.818809	0.249936	0.365096
C75	C	1.068809	0.499936	0.615096
C76	C	1.318809	0.749936	0.865096
C77	C	0.662836	-0.000059	0.116741
C78	C	0.912836	0.249941	0.366741
C79	C	1.162836	0.499941	0.616741
C80	C	1.412836	0.749941	0.866741
C81	C	0.301336	-0.000079	0.110408
C82	C	0.551336	0.249921	0.360408
C83	C	0.801336	0.499921	0.610408
C84	C	1.051336	0.749921	0.860408
C85	C	1.032495	-0.452078	0.164018
C86	C	1.282495	-0.202078	0.414018
C87	C	1.532495	0.047922	0.664018
C88	C	1.782495	0.297922	0.914018
C89	C	1.032504	-0.548060	0.164012
C90	C	1.282504	-0.298060	0.414012
C91	C	1.532504	-0.048060	0.664012
C92	C	1.782504	0.201940	0.914012
C93	C	0.931686	-0.548061	0.063122
C94	C	1.181686	-0.298061	0.313122
C95	C	1.431686	-0.048061	0.563122
C96	C	1.681686	0.201939	0.813122
C97	C	0.931683	-0.452082	0.063123
C98	C	1.181683	-0.202082	0.313123
C99	C	1.431683	0.047918	0.563123
C100	C	1.681683	0.297918	0.813123
C101	C	0.982086	-0.404093	0.113576
C102	C	1.232086	-0.154093	0.363576
C103	C	1.482086	0.095907	0.613576
C104	C	1.732086	0.345907	0.863576
C105	C	0.982098	-0.596054	0.113569
C106	C	1.232098	-0.346054	0.363569
C107	C	1.482098	-0.096054	0.613569
C108	C	1.732098	0.153946	0.863569
C109	C	0.982107	-0.700121	0.113562
C110	C	1.232107	-0.450121	0.363562
C111	C	1.482107	-0.200121	0.613562
C112	C	1.732107	0.049879	0.863562
C113	C	0.982078	-0.300019	0.113582
C114	C	1.232078	-0.050019	0.363582
C115	C	1.482078	0.199981	0.613582
C116	C	1.732078	0.449981	0.863582
C117	C	1.134093	-0.000082	0.107474
C118	C	1.384093	0.249918	0.357474
C119	C	1.634093	0.499918	0.607474
C120	C	1.884093	0.749918	0.857474
C121	C	1.226388	-0.000084	0.109095
C122	C	1.476388	0.249916	0.359095
C123	C	1.726388	0.499916	0.609095
C124	C	1.976388	0.749916	0.859095
C125	C	0.988198	-0.000071	-0.038430
C126	C	1.238198	0.249929	0.211570
C127	C	1.488198	0.499929	0.461570
C128	C	1.738198	0.749929	0.711570
C129	C	0.986582	-0.000065	-0.130725
C130	C	1.236582	0.249935	0.119275
C131	C	1.486582	0.499935	0.369275
C132	C	1.736582	0.749935	0.619275
N133	N	0.982111	0.216922	0.113559
N134	N	1.232111	0.466922	0.363559
N135	N	1.482111	0.716922	0.613559
N136	N	1.732111	0.966922	0.863559
C137	C	0.982857	0.083049	-0.343067
C138	C	1.232857	0.333049	-0.093067
C139	C	1.482857	0.583049	0.156933
C140	C	1.732857	0.833049	0.406933
C141	C	0.981331	0.083049	-0.429787
C142	C	1.231331	0.333049	-0.179787
C143	C	1.481331	0.583049	0.070213
C144	C	1.731331	0.833049	0.320213
C145	C	0.981318	-0.083194	-0.429776
C146	C	1.231318	0.166806	-0.179776
C147	C	1.481318	0.416806	0.070224
C148	C	1.731318	0.666806	0.320224
C149	C	0.982838	-0.083193	-0.343056
C150	C	1.232838	0.166807	-0.093056
C151	C	1.482838	0.416807	0.156944
C152	C	1.732838	0.666807	0.406944
C153	C	0.983612	-0.000068	-0.299704
C154	C	1.233612	0.249932	-0.049704
C155	C	1.483612	0.499932	0.200296
C156	C	1.733612	0.749932	0.450296
C157	C	0.980565	-0.000070	-0.473144
C158	C	1.230565	0.249930	-0.223144
C159	C	1.480565	0.499930	0.026856
C160	C	1.730565	0.749930	0.276856
C161	C	0.978911	-0.000072	-0.567170
C162	C	1.228911	0.249928	-0.317170
C163	C	1.478911	0.499928	-0.067170
C164	C	1.728911	0.749928	0.182830
C165	C	0.985265	-0.000066	-0.205672
C166	C	1.235265	0.249934	0.044328
C167	C	1.485265	0.499934	0.294328
C168	C	1.735265	0.749934	0.544328
C169	C	0.975979	-0.000073	0.265581
C170	C	1.225979	0.249927	0.515581
C171	C	1.475979	0.499927	0.765581
C172	C	1.725979	0.749927	1.015581
C173	C	0.977595	-0.000074	0.357876
C174	C	1.227595	0.249926	0.607876
C175	C	1.477595	0.499926	0.857876
C176	C	1.727595	0.749926	1.107876
H177	H	0.403423	0.150729	0.112203
H178	H	0.653423	0.400729	0.362203
H179	H	0.903423	0.650729	0.612203
H180	H	1.153423	0.900729	0.862203
H181	H	0.980714	0.150731	-0.465088
H182	H	1.230714	0.400731	-0.215088
H183	H	1.480714	0.650731	0.034912
H184	H	1.730714	0.900731	0.284912
H185	H	0.560761	-0.150866	0.114946
H186	H	0.810761	0.099134	0.364946
H187	H	1.060761	0.349134	0.614946
H188	H	1.310761	0.599134	0.864946
H189	H	0.983484	0.150735	-0.307772
H190	H	1.233484	0.400735	-0.057772
H191	H	1.483484	0.650735	0.192228
H192	H	1.733484	0.900735	0.442228
Br193	Br	0.863265	-0.386952	-0.005338
Br194	Br	1.113265	-0.136952	0.244662
Br195	Br	1.363265	0.113048	0.494662
Br196	Br	1.613265	0.363048	0.744662
Br197	Br	0.980265	-0.196001	-0.488615
Br198	Br	1.230265	0.053999	-0.238615
Br199	Br	1.480265	0.303999	0.011385
Br200	Br	1.730265	0.553999	0.261385
H201	H	1.073537	-0.413009	0.205100
H202	H	1.323537	-0.163009	0.455100
H203	H	1.573537	0.086991	0.705100
H204	H	1.823537	0.336991	0.955100
Br205	Br	0.584283	0.195863	0.115362
Br206	Br	0.834283	0.445863	0.365362
Br207	Br	1.084283	0.695863	0.615362
Br208	Br	1.334283	0.945863	0.865362
Br209	Br	0.379883	-0.196011	0.111769
Br210	Br	0.629883	0.053989	0.361769
Br211	Br	0.879883	0.303989	0.611769
Br212	Br	1.129883	0.553989	0.861769
Br213	Br	0.983849	-0.196003	-0.284200
Br214	Br	1.233849	0.053997	-0.034200
Br215	Br	1.483849	0.303997	0.215800
Br216	Br	1.733849	0.553997	0.465800
H217	H	1.073554	-0.587125	0.205085
H218	H	1.323554	-0.337125	0.455085
H219	H	1.573554	-0.087125	0.705085
H220	H	1.823554	0.162875	0.955085
H221	H	0.890649	-0.587146	0.022046
H222	H	1.140649	-0.337146	0.272046
H223	H	1.390649	-0.087146	0.522046
H224	H	1.640649	0.162854	0.772046
