data_functionalizedCrystal
_audit_creation_method	'MofGen! by Chris Wilmer'
_symmetry_space_group_name_H-M	'P1'
_symmetry_Int_Tables_number	1
_symmetry_cell_setting	triclinic
loop_
_symmetry_equiv_pos_as_xyz
  x,y,z
_cell_length_a	18.050589
_cell_length_b	12.827893
_cell_length_c	12.827885
_cell_angle_alpha	90.021189
_cell_angle_beta	89.970449
_cell_angle_gamma	89.973570
loop_
_atom_site_label
_atom_site_type_symbol
_atom_site_fract_x
_atom_site_fract_y
_atom_site_fract_z
Zn1	Zn	-0.295659	-1.597576	-0.590904
Zn2	Zn	-0.419867	-1.597431	-0.416165
Zn3	Zn	-0.295691	-1.422818	-0.416172
Zn4	Zn	-0.419808	-1.422764	-0.590859
O5	O	-0.357756	-1.510147	-0.503525
O6	O	-0.312147	-1.743793	-0.567740
O7	O	-0.403433	-1.574230	-0.269930
O8	O	-0.191762	-1.446083	-0.439372
O9	O	-0.403402	-1.743687	-0.439360
O10	O	-0.191739	-1.574478	-0.567747
O11	O	-0.312202	-1.445943	-0.269935
O12	O	-0.312144	-1.276575	-0.439328
O13	O	-0.403301	-1.445991	-0.737101
O14	O	-0.403332	-1.276535	-0.567670
O15	O	-0.312089	-1.574425	-0.737134
O16	O	-0.523784	-1.574178	-0.439317
O17	O	-0.523740	-1.445851	-0.567664
C18	C	-0.357736	-1.238638	-0.503496
C19	C	-0.357745	-1.122484	-0.503508
C20	C	-0.312668	-1.070752	-0.567132
C21	C	-0.312677	-0.950702	-0.567146
C22	C	-0.550708	-1.510021	-0.503507
C23	C	-0.633254	-1.510063	-0.503535
C24	C	-0.832708	-1.440347	-0.573306
C25	C	-0.882155	-1.414870	-0.477948
C26	C	-0.784384	-1.510166	-0.503549
C27	C	-0.882019	-1.535694	-0.598917
C28	C	-0.930370	-1.510263	-0.503570
C29	C	-0.832744	-1.484639	-0.408140
C30	C	-0.832604	-1.605506	-0.529174
C31	C	-0.882029	-1.580066	-0.433751
C32	C	-0.700286	-1.510107	-0.503538
C33	C	-1.014466	-1.510322	-0.503570
C34	C	-0.164051	-1.510303	-0.503565
C35	C	-0.081505	-1.510369	-0.503582
C36	C	-0.357685	-1.510219	-0.776095
C37	C	-0.357655	-1.510249	-0.892248
C38	C	-0.357771	-0.782718	-0.503546
C39	C	-0.357762	-0.898871	-0.503534
C40	C	-0.312511	-1.573809	-0.944049
C41	C	-0.312479	-1.573842	-1.064100
C42	C	-0.357774	-1.510137	-0.232015
C43	C	-0.357595	-1.510309	-0.115862
H44	H	-0.396342	-1.077898	-0.449046
Cl45	Cl	-0.417354	-0.967545	-0.419433
Cl46	Cl	-0.799469	-1.451220	-0.283596
H47	H	-0.273833	-1.628261	-1.108647
Cl48	Cl	-0.253070	-1.139582	-0.651216
H49	H	-0.903936	-1.334289	-0.456293
Cl50	Cl	-0.417287	-1.426262	-0.960987
H51	H	-0.396248	-1.455894	-1.071321
Cl52	Cl	-0.915255	-1.671291	-0.342587
Cl53	Cl	-0.253094	-0.882021	-0.651255
Cl54	Cl	-0.252856	-1.657764	-0.875310
H55	H	-0.810825	-1.686069	-0.550874
H56	H	-0.811052	-1.381217	-0.632213
Cl57	Cl	-0.915441	-1.568969	-0.723422
