data_functionalizedCrystal
_audit_creation_method	'MofGen! by Chris Wilmer'
_symmetry_space_group_name_H-M	'P1'
_symmetry_Int_Tables_number	1
_symmetry_cell_setting	triclinic
loop_
_symmetry_equiv_pos_as_xyz
  x,y,z
_cell_length_a	10.723023
_cell_length_b	11.026607
_cell_length_c	9.798715
_cell_angle_alpha	89.998891
_cell_angle_beta	89.996770
_cell_angle_gamma	96.526782
loop_
_atom_site_label
_atom_site_type_symbol
_atom_site_fract_x
_atom_site_fract_y
_atom_site_fract_z
O1	O	1.693992	0.170514	-0.113473
O2	O	1.334362	0.186836	-0.113478
O3	O	1.484371	0.001774	-0.113471
O4	O	1.543983	0.355576	-0.113480
O5	O	1.484357	0.001773	0.113511
O6	O	1.334348	0.186836	0.113504
O7	O	1.693977	0.170513	0.113509
Zn8	Zn	1.514160	0.178674	0.149545
Zn9	Zn	1.514179	0.178675	-0.149514
O10	O	1.543968	0.355576	0.113502
C11	C	1.287599	0.185649	0.000012
C12	C	1.148278	0.182095	0.000010
C13	C	1.086156	0.180511	0.117593
C14	C	0.942161	0.176838	0.117593
C15	C	1.473367	-0.043529	0.000018
C16	C	1.440583	-0.178516	0.000013
C17	C	1.531104	-0.251568	0.000012
C18	C	1.497223	-0.391084	0.000007
C19	C	1.740740	0.171701	0.000016
C20	C	1.880062	0.175254	0.000009
C21	C	1.554973	0.400878	0.000010
C22	C	1.587756	0.535865	0.000006
N23	N	1.514156	0.178673	0.353645
N24	N	1.514191	0.178667	-0.353613
C25	C	1.577067	0.100628	0.421425
C26	C	1.577086	0.100624	0.578587
H27	H	0.888738	0.175482	0.218260
H28	H	1.094858	0.180730	-0.100656
H29	H	1.338003	-0.219261	0.000003
O30	O	1.648444	0.012111	0.655775
H31	H	1.582360	-0.047243	0.720883
O32	O	1.723645	-0.410175	0.000005
H33	H	1.770830	-0.440937	-0.092518
O34	O	1.361331	-0.445035	-0.000000
H35	H	1.314139	-0.414258	0.092511
H36	H	1.460333	0.245492	0.588108
H37	H	1.460304	0.245483	0.411967
O38	O	1.156899	0.182323	0.250949
H39	H	1.258899	0.184935	0.230022
O40	O	0.950816	0.177052	-0.133344
H41	H	0.933236	0.259137	-0.192713
O42	O	1.666990	-0.197616	0.000016
H43	H	1.672277	-0.096501	0.000028
O44	O	1.648355	0.012082	0.344190
H45	H	1.637137	0.025968	0.232868
