data_functionalizedCrystal
_audit_creation_method	'MofGen! by Chris Wilmer'
_symmetry_space_group_name_H-M	'P1'
_symmetry_Int_Tables_number	1
_symmetry_cell_setting	triclinic
loop_
_symmetry_equiv_pos_as_xyz
  x,y,z
_cell_length_a	15.538191
_cell_length_b	11.026607
_cell_length_c	10.065875
_cell_angle_alpha	100.697662
_cell_angle_beta	95.296196
_cell_angle_gamma	102.070945
loop_
_atom_site_label
_atom_site_type_symbol
_atom_site_fract_x
_atom_site_fract_y
_atom_site_fract_z
O1	O	0.356970	-1.470678	-0.113462
O2	O	0.315173	-1.135783	-0.113467
O3	O	0.209996	-1.368422	-0.113470
O4	O	0.462147	-1.238039	-0.113459
O5	O	0.230155	-1.324016	0.113519
O6	O	0.335332	-1.091377	0.113522
O7	O	0.377128	-1.426272	0.113528
Zn8	Zn	0.359431	-1.251774	0.149564
Zn9	Zn	0.332871	-1.310281	-0.149504
O10	O	0.482306	-1.193633	0.113530
C11	C	0.317542	-1.071766	0.000026
C12	C	0.294556	-0.947177	0.000024
C13	C	0.187293	-1.359861	0.000020
C14	C	0.089608	-1.400496	0.000008
N15	N	0.377558	-1.211853	0.353670
C16	C	-0.266634	-0.996816	0.000030
C17	C	-0.358420	-1.035024	0.000034
C18	C	-0.344418	-1.249941	0.000037
C19	C	-0.252629	-1.211752	0.000026
C20	C	-0.213744	-1.085188	0.000025
C21	C	-0.199740	-1.300124	0.000021
C22	C	-0.107959	-1.261936	0.000018
C23	C	-0.069067	-1.135376	0.000020
C24	C	-0.121963	-1.047000	0.000021
C25	C	-0.238625	-1.426686	0.000032
C26	C	-0.185736	-1.515058	0.000027
C27	C	-0.093954	-1.476872	0.000014
C28	C	-0.055062	-1.350313	0.000016
C29	C	-0.041058	-1.565249	0.000013
C30	C	0.050724	-1.527061	0.000009
C31	C	0.036719	-1.312125	0.000013
C32	C	0.505009	-1.202195	0.000037
C33	C	0.602692	-1.161561	0.000041
C34	C	0.374759	-1.490290	0.000031
C35	C	0.397744	-1.614881	0.000025
C36	C	0.358023	-0.845415	0.000026
C37	C	0.334268	-0.716645	0.000023
N38	N	0.314738	-1.350215	-0.353610
C39	C	0.339171	-1.296387	0.421448
C40	C	0.353131	-1.265668	0.578616
H41	H	0.068380	-1.209065	0.000001
H42	H	0.005669	-1.104284	0.000025
C43	C	0.237099	-0.705580	0.000019
H44	H	0.200361	-0.786121	0.000027
H45	H	0.218462	-0.677385	-0.079136
H46	H	0.232526	-0.646417	0.079187
C47	C	-0.228515	-1.654271	0.000022
H48	H	-0.290753	-1.664361	0.000016
H49	H	-0.203564	-1.676692	0.079171
H50	H	-0.217631	-1.707647	-0.079151
C51	C	0.108909	-1.624261	-0.000000
H52	H	0.169140	-1.583386	0.000011
H53	H	0.089715	-1.690162	-0.079156
H54	H	0.103778	-1.659187	0.079166
C55	C	0.494913	-0.625950	0.000021
H56	H	0.498133	-0.711047	0.000011
H57	H	0.530308	-0.571338	0.079173
H58	H	0.516236	-0.602316	-0.079149
H59	H	-0.072731	-1.668295	0.000028
C60	C	0.197391	-0.936104	0.000020
H61	H	0.160654	-1.016645	0.000028
H62	H	0.178755	-0.907909	-0.079135
H63	H	0.192819	-0.876941	0.079188
H64	H	0.420754	-1.116735	0.411997
C65	C	0.280810	-1.424879	0.342665
H66	H	0.279088	-1.428672	0.247365
H67	H	0.222298	-1.433618	0.366017
H68	H	0.305053	-1.491625	0.365996
H69	H	-0.090302	-0.943940	0.000010
H70	H	0.429947	-0.853624	0.000036
C71	C	0.411495	-1.137169	0.657394
H72	H	0.413226	-1.133383	0.752693
H73	H	0.387262	-1.070423	0.634060
H74	H	0.470012	-1.128441	0.634044
C75	C	0.256373	-1.478716	0.567621
H76	H	0.234095	-1.527763	0.630528
H77	H	0.290877	-1.522835	0.511864
H78	H	0.208125	-1.464820	0.511891
C79	C	-0.223851	-0.857599	0.000019
H80	H	-0.161615	-0.847520	0.000008
H81	H	-0.234736	-0.804208	0.079171
H82	H	-0.248799	-0.835195	-0.079152
H83	H	-0.376090	-1.352989	0.000044
C84	C	-0.416600	-0.937811	0.000040
H85	H	-0.476830	-0.978676	0.000054
H86	H	-0.411469	-0.902876	-0.079112
H87	H	-0.397399	-0.871916	0.079210
C88	C	-0.339582	-1.468699	0.000040
H89	H	-0.355164	-1.556727	0.000059
H90	H	-0.369967	-1.453141	-0.079117
H91	H	-0.355895	-1.422157	0.079205
