data_functionalizedCrystal
_audit_creation_method	'MofGen! by Chris Wilmer'
_symmetry_space_group_name_H-M	'P1'
_symmetry_Int_Tables_number	1
_symmetry_cell_setting	triclinic
loop_
_symmetry_equiv_pos_as_xyz
  x,y,z
_cell_length_a	17.699097
_cell_length_b	15.021413
_cell_length_c	17.699083
_cell_angle_alpha	90.000526
_cell_angle_beta	96.714278
_cell_angle_gamma	89.996777
loop_
_atom_site_label
_atom_site_type_symbol
_atom_site_fract_x
_atom_site_fract_y
_atom_site_fract_z
O1	O	1.004058	0.074108	-0.095754
O2	O	0.783681	0.074094	-0.108196
O3	O	0.900095	0.074093	0.008214
O4	O	0.887643	0.074108	-0.212163
O5	O	0.900109	-0.073971	0.008207
O6	O	0.783694	-0.073971	-0.108203
O7	O	1.004071	-0.073956	-0.095761
Zn8	Zn	0.893885	-0.097472	-0.101983
Zn9	Zn	0.893867	0.097609	-0.101973
O10	O	0.887657	-0.073956	-0.212171
C11	C	0.755491	0.000060	-0.107752
C12	C	0.671473	0.000054	-0.106409
N13	N	0.893903	-0.230610	-0.101989
C14	C	0.155747	0.080799	-0.098176
C15	C	0.234692	0.080795	-0.099432
C16	C	0.274165	0.000081	-0.100065
C17	C	0.234691	-0.080633	-0.099435
C18	C	0.155749	-0.080628	-0.098173
C19	C	0.553055	-0.080656	-0.104522
C20	C	0.632002	-0.080655	-0.105786
C21	C	0.631998	0.080766	-0.105781
C22	C	0.553056	0.080772	-0.104519
C23	C	0.513589	0.000058	-0.103885
C24	C	0.427989	0.000064	-0.102521
C25	C	0.359763	0.000075	-0.101434
C26	C	0.947743	-0.470269	-0.048149
C27	C	0.879381	-0.529604	-0.033572
C28	C	0.893885	-0.412216	-0.101979
C29	C	0.962231	-0.529624	-0.116512
C30	C	0.893874	-0.587641	-0.101969
C31	C	0.825488	-0.470245	-0.087369
C32	C	0.908383	-0.470259	-0.170338
C33	C	0.839971	-0.529567	-0.155791
C34	C	0.893892	-0.311159	-0.101984
C35	C	0.893859	-0.688696	-0.101965
C36	C	1.032261	0.000079	-0.096205
C37	C	1.116279	0.000091	-0.097547
C38	C	0.899656	0.000061	0.036408
C39	C	0.898317	0.000060	0.120426
N40	N	0.893855	0.230747	-0.101961
C41	C	0.888096	0.000078	-0.240364
C42	C	0.889435	0.000084	-0.324382
C43	C	0.966650	0.000064	0.169044
C44	C	0.965388	0.000071	0.247987
C45	C	0.895792	0.000070	0.278311
C46	C	0.827454	0.000069	0.229687
C47	C	0.828717	0.000068	0.150745
C48	C	0.822359	0.000076	0.548050
C49	C	0.821101	0.000075	0.626998
C50	C	0.959030	0.000080	0.645292
C51	C	0.960293	0.000078	0.566350
C52	C	0.891955	0.000083	0.517733
C53	C	0.893325	0.000076	0.432134
C54	C	0.894422	0.000070	0.363909
H55	H	0.123613	0.146525	-0.097665
H56	H	0.520920	0.146497	-0.104008
H57	H	0.993242	-0.444232	-0.002601
O58	O	0.670216	0.159254	-0.106424
C59	C	0.618448	0.230492	-0.105580
H60	H	0.559000	0.206830	-0.128632
H61	H	0.618102	0.255313	-0.044751
C62	C	0.715688	0.335809	-0.127376
C63	C	0.642673	0.306748	-0.155696
H64	H	0.730632	0.382849	-0.158287
H65	H	0.750566	0.287815	-0.127942
H66	H	0.715391	0.356486	-0.076685
H67	H	0.642974	0.286061	-0.206382
H68	H	0.607796	0.354740	-0.155140
O69	O	0.762289	0.000182	0.103592
C70	C	0.720029	0.076876	0.117303
H71	H	0.738719	0.102441	0.177223
H72	H	0.730299	0.130575	0.074144
C73	C	0.611790	0.022184	0.036047
C74	C	0.634741	0.053578	0.109644
H75	H	0.559180	0.007815	0.031320
H76	H	0.640262	-0.029485	0.026807
H77	H	0.620354	0.066938	0.000089
H78	H	0.626186	0.008821	0.145600
H79	H	0.606266	0.105240	0.118890
H80	H	0.266824	0.146515	-0.099939
O81	O	0.670237	-0.159145	-0.106359
C82	C	0.618473	-0.230385	-0.105545
H83	H	0.565377	-0.206723	-0.080693
H84	H	0.602027	-0.255207	-0.166105
C85	C	0.721086	-0.335697	-0.086943
C86	C	0.655874	-0.306637	-0.056413
H87	H	0.744156	-0.382735	-0.056639
H88	H	0.755960	-0.287702	-0.087494
H89	H	0.707371	-0.356376	-0.137409
H90	H	0.669591	-0.285948	-0.005952
H91	H	0.621003	-0.354630	-0.055852
O92	O	0.514714	-0.159039	-0.103768
C93	C	0.477736	-0.163861	-0.037519
H94	H	0.507598	-0.118051	0.007893
H95	H	0.415938	-0.142189	-0.051371
C96	C	0.443810	-0.316553	-0.063558
C97	C	0.480491	-0.260293	-0.007780
H98	H	0.445505	-0.376037	-0.045215
H99	H	0.468720	-0.313304	-0.108193
H100	H	0.392315	-0.298482	-0.075096
H101	H	0.531987	-0.278357	0.003750
H102	H	0.455589	-0.263548	0.036858
H103	H	0.266837	-0.146351	-0.099945
O104	O	0.117519	-0.159107	-0.097599
C105	C	0.169287	-0.230349	-0.098410
H106	H	0.222382	-0.206692	-0.123263
H107	H	0.185736	-0.255167	-0.037848
C108	C	0.066683	-0.335659	-0.117006
C109	C	0.131892	-0.306604	-0.147538
H110	H	0.043616	-0.382699	-0.147307
H111	H	0.031805	-0.287663	-0.116457
H112	H	0.080400	-0.356335	-0.066539
H113	H	0.118173	-0.285919	-0.198000
H114	H	0.166767	-0.354599	-0.148096
H115	H	0.867108	-0.555672	0.024242
O116	O	1.031697	0.000117	0.295322
C117	C	1.015662	0.000103	0.371501
H118	H	0.956217	0.028131	0.374418
H119	H	1.018581	-0.070927	0.394344
C120	C	1.147517	0.023755	0.416333
C121	C	1.074508	0.058186	0.419917
H122	H	1.183817	0.059580	0.446200
H123	H	1.158321	0.023760	0.365010
H124	H	1.149939	-0.035437	0.435368
H125	H	1.072084	0.117372	0.400874
H126	H	1.063705	0.058192	0.471238
O127	O	0.785517	-0.560293	-0.210107
C128	C	0.747111	-0.487678	-0.247662
H129	H	0.753359	-0.426607	-0.209202
H130	H	0.772667	-0.473052	-0.302559
C131	C	0.654521	-0.585622	-0.313717
C132	C	0.662190	-0.510615	-0.266478
H133	H	0.602139	-0.599771	-0.325327
H134	H	0.680397	-0.634545	-0.288419
H135	H	0.675823	-0.573424	-0.359459
H136	H	0.640898	-0.522818	-0.220733
H137	H	0.636308	-0.461695	-0.291769
H138	H	0.767671	-0.444272	-0.075007
O139	O	1.025346	0.000125	0.692628
C140	C	1.009313	0.000108	0.768808
H141	H	0.949870	0.028140	0.771728
H142	H	1.012229	-0.070924	0.791647
C143	C	1.141171	0.023748	0.813638
C144	C	1.068163	0.058184	0.817226
H145	H	1.177473	0.059568	0.843506
H146	H	1.151973	0.023756	0.762315
H147	H	1.143590	-0.035446	0.832669
H148	H	1.065742	0.117371	0.798186
H149	H	1.057362	0.058187	0.868547
O150	O	0.923181	-0.439170	-0.239256
C151	C	0.995327	-0.469390	-0.254370
H152	H	1.031354	-0.486060	-0.198503
H153	H	0.988339	-0.531472	-0.291582
C154	C	0.990658	-0.375546	-0.364695
C155	C	1.034910	-0.396013	-0.296077
H156	H	1.015074	-0.330286	-0.390425
H157	H	0.942051	-0.355188	-0.354515
H158	H	0.984838	-0.427287	-0.395696
H159	H	1.040721	-0.344275	-0.265074
H160	H	1.083519	-0.416360	-0.306253
O161	O	0.753425	0.000120	0.656330
C162	C	0.693378	0.000104	0.596493
H163	H	0.714492	0.028135	0.542901
H164	H	0.672305	-0.070928	0.585284
C165	C	0.601798	0.023747	0.684488
C166	C	0.627729	0.058182	0.618666
H167	H	0.561301	0.059569	0.698166
H168	H	0.642252	0.023755	0.724802
H169	H	0.584243	-0.035445	0.675138
H170	H	0.645293	0.117369	0.628019
H171	H	0.587277	0.058186	0.578354
O172	O	0.759914	0.000028	0.259267
C173	C	0.773450	0.000050	0.339369
H174	H	0.832550	-0.027979	0.358014
H175	H	0.769816	0.071083	0.361338
C176	C	0.640722	-0.023595	0.349104
C177	C	0.713307	-0.058027	0.372004
H178	H	0.603622	-0.059416	0.369236
H179	H	0.631601	-0.023606	0.295138
H180	H	0.637704	0.035598	0.367413
H181	H	0.716327	-0.117216	0.353687
H182	H	0.722427	-0.058028	0.425968
H183	H	1.020034	-0.555706	-0.128808
O184	O	1.034323	0.000107	0.139716
C185	C	1.094364	0.000092	0.199560
H186	H	1.073240	0.028121	0.253149
H187	H	1.115445	-0.070939	0.210769
C188	C	1.185952	0.023741	0.111577
C189	C	1.160009	0.058173	0.177395
H190	H	1.226447	0.059564	0.097904
H191	H	1.145502	0.023747	0.071259
H192	H	1.203514	-0.035451	0.120927
H193	H	1.142439	0.117360	0.168041
H194	H	1.200458	0.058178	0.217711
H195	H	1.016965	0.000075	0.541665
H196	H	0.766714	0.000079	0.508475
