data_functionalizedCrystal
_audit_creation_method	'MofGen! by Chris Wilmer'
_symmetry_space_group_name_H-M	'P1'
_symmetry_Int_Tables_number	1
_symmetry_cell_setting	triclinic
loop_
_symmetry_equiv_pos_as_xyz
  x,y,z
_cell_length_a	30.711274
_cell_length_b	30.700811
_cell_length_c	30.706014
_cell_angle_alpha	89.995180
_cell_angle_beta	59.988173
_cell_angle_gamma	119.999809
loop_
_atom_site_label
_atom_site_type_symbol
_atom_site_fract_x
_atom_site_fract_y
_atom_site_fract_z
O1	O	0.384095	-0.298797	-0.012975
O2	O	0.294917	-0.235465	0.012884
O3	O	0.384116	-0.235435	-0.076315
O4	O	0.294896	-0.298827	0.076224
O5	O	0.311695	-0.307880	-0.076315
O6	O	0.222497	-0.307911	0.012884
O7	O	0.311674	-0.371242	-0.012975
Cu8	Cu	0.260473	-0.346191	-0.000045
Cu9	Cu	0.346119	-0.260516	-0.000046
O10	O	0.222475	-0.371273	0.076224
C11	C	0.071064	-0.031757	0.039176
C12	C	0.018293	-0.058211	0.039544
C13	C	0.071062	-0.110634	0.039179
C14	C	0.018291	-0.136968	0.039547
C15	C	-0.007785	-0.110632	0.039176
C16	C	0.097020	-0.058212	0.039547
C17	C	0.213067	0.158457	0.024894
C18	C	0.242099	0.212323	0.020855
C19	C	0.217184	0.239346	0.018826
C20	C	0.248666	0.297755	0.014437
C21	C	0.163234	0.212497	0.020841
C22	C	0.134202	0.158633	0.024886
C23	C	0.159121	0.131612	0.026913
C24	C	-0.183643	-0.158791	0.024890
C25	C	-0.233451	-0.183616	0.020852
C26	C	-0.258437	-0.235560	0.018823
C27	C	-0.312435	-0.262478	0.014437
C28	C	-0.233615	-0.262681	0.020841
C29	C	-0.183816	-0.237861	0.024889
C30	C	-0.158830	-0.185910	0.026910
C31	C	0.213060	-0.158797	0.024906
C32	C	0.242094	-0.183621	0.020863
C33	C	0.217177	-0.235567	0.018837
C34	C	0.248657	-0.262485	0.014452
C35	C	0.163231	-0.262686	0.020849
C36	C	0.134202	-0.237860	0.024890
C37	C	0.159118	-0.185915	0.026923
C38	C	0.127640	0.073206	0.031295
C39	C	0.102546	0.026650	0.034790
C40	C	0.102542	-0.137549	0.034796
C41	C	0.127634	-0.159003	0.031304
C42	C	-0.061783	-0.137546	0.034790
C43	C	-0.104827	-0.158999	0.031295
C44	C	0.535316	-0.110473	-0.425078
C45	C	0.509368	-0.136799	-0.451533
C46	C	0.614189	-0.031568	-0.503953
C47	C	0.588120	-0.058014	-0.530288
C48	C	0.535341	-0.110445	-0.503953
C49	C	0.588096	-0.058042	-0.451533
C50	C	0.472832	-0.158707	-0.234869
C51	C	0.443961	-0.183553	-0.181003
C52	C	0.389998	-0.235510	-0.153982
C53	C	0.358684	-0.262449	-0.095575
C54	C	0.364910	-0.262621	-0.180831
C55	C	0.393786	-0.237777	-0.234694
C56	C	0.447749	-0.185818	-0.261713
C57	C	0.393362	-0.238196	-0.552115
C58	C	0.364340	-0.263189	-0.576941
C59	C	0.389268	-0.236221	-0.628884
C60	C	0.357802	-0.263312	-0.655803
C61	C	0.443227	-0.184256	-0.656004
C62	C	0.472252	-0.159268	-0.631184
C63	C	0.447311	-0.186243	-0.579233
C64	C	0.790067	0.158659	-0.552114
C65	C	0.839880	0.212535	-0.576937
C66	C	0.864881	0.239575	-0.628883
C67	C	0.918889	0.297992	-0.655800
C68	C	0.840066	0.212738	-0.656001
C69	C	0.790253	0.158864	-0.631176
C70	C	0.765261	0.131826	-0.579233
C71	C	0.479053	-0.158881	-0.320118
C72	C	0.504008	-0.137410	-0.366673
C73	C	0.668197	0.026847	-0.530867
C74	C	0.711249	0.073409	-0.552321
C75	C	0.503871	-0.137541	-0.530868
C76	C	0.478786	-0.159140	-0.552321
O77	O	-0.456742	-0.371237	-0.012989
O78	O	-0.330113	-0.307902	0.012862
O79	O	-0.330072	-0.307876	-0.076333
O80	O	-0.456784	-0.371262	0.076207
O81	O	-0.330070	-0.235430	-0.076336
O82	O	-0.330112	-0.235456	0.012859
O83	O	-0.456741	-0.298790	-0.012992
Cu84	Cu	-0.393426	-0.260508	-0.000066
Cu85	Cu	-0.393428	-0.346184	-0.000063
O86	O	-0.456783	-0.298816	0.076204
C87	C	0.469503	-0.371903	-0.018870
C88	C	0.523241	-0.345025	-0.015173
C89	C	0.443427	-0.424324	-0.019240
C90	C	0.390649	-0.371906	-0.018864
C91	C	0.360078	-0.345030	-0.015160
C92	C	0.364693	-0.424326	-0.019234
C93	C	0.390654	-0.450780	-0.018869
C94	C	0.360087	-0.508236	-0.015172
C95	C	0.443422	-0.345570	-0.019234
O96	O	0.311686	0.469557	-0.012991
O97	O	0.222512	0.317016	0.012860
O98	O	0.311713	0.406231	-0.076335
O99	O	0.222485	0.380341	0.076205
O100	O	0.384132	0.406230	-0.076332
O101	O	0.294931	0.317014	0.012863
O102	O	0.384104	0.469555	-0.012988
Cu103	Cu	0.346130	0.393284	-0.000062
Cu104	Cu	0.260487	0.393286	-0.000065
O105	O	0.294903	0.380339	0.076208
O106	O	1.063218	0.469794	-0.692114
O107	O	0.936562	0.317239	-0.628780
O108	O	0.936548	0.406422	-0.628762
O109	O	1.063233	0.380611	-0.692133
O110	O	0.936572	0.406449	-0.701207
O111	O	0.936587	0.317267	-0.701226
O112	O	1.063243	0.469821	-0.764560
Cu113	Cu	0.999917	0.393546	-0.739508
Cu114	Cu	0.999888	0.393514	-0.653832
O115	O	1.063257	0.380639	-0.764578
O116	O	0.294826	-0.298883	-0.764562
O117	O	0.383971	-0.235556	-0.701227
O118	O	0.294798	-0.235565	-0.701209
O119	O	0.384000	-0.298873	-0.764580
O120	O	0.222357	-0.308036	-0.628763
O121	O	0.311530	-0.308027	-0.628781
O122	O	0.222385	-0.371354	-0.692116
Cu123	Cu	0.260343	-0.346307	-0.653834
Cu124	Cu	0.346013	-0.260602	-0.739509
O125	O	0.311559	-0.371344	-0.692134
C126	C	0.137015	-0.450871	0.234767
C127	C	0.083266	-0.508335	0.261645
C128	C	0.163081	-0.424425	0.261104
C129	C	0.215895	-0.371968	0.155890
C130	C	0.246485	-0.345070	0.098432
C131	C	0.241841	-0.345643	0.182346
C132	C	0.215863	-0.371996	0.234769
C133	C	0.246419	-0.345127	0.261649
C134	C	0.163113	-0.424398	0.182345
C135	C	-0.609460	-0.371978	0.234752
C136	C	-0.640040	-0.345108	0.261631
C137	C	-0.635430	-0.424407	0.261088
C138	C	-0.530575	-0.371954	0.155873
C139	C	-0.476811	-0.345058	0.098414
C140	C	-0.556665	-0.424383	0.182329
C141	C	-0.609460	-0.450854	0.234753
C142	C	-0.640039	-0.508318	0.261633
C143	C	-0.556665	-0.345627	0.182328
C144	C	0.215874	0.374429	0.234750
C145	C	0.246430	0.378123	0.261630
C146	C	0.163093	0.374058	0.261083
C147	C	0.215905	0.374444	0.155871
C148	C	0.246494	0.378153	0.098414
C149	C	0.163124	0.374072	0.182325
C150	C	0.137027	0.374432	0.234746
C151	C	0.083280	0.378127	0.261623
C152	C	0.241851	0.374070	0.182328
C153	C	0.071317	-0.031593	-0.503994
C154	C	0.097287	-0.058041	-0.530329
C155	C	-0.007568	-0.110493	-0.425113
C156	C	0.018521	-0.136820	-0.451568
C157	C	0.071317	-0.110470	-0.503992
C158	C	0.018522	-0.058064	-0.451570
C159	C	0.133763	0.158630	-0.552164
C160	C	0.162628	0.212503	-0.576992
C161	C	0.216607	0.239540	-0.628941
C162	C	0.247914	0.297955	-0.655861
C163	C	0.241716	0.212699	-0.656062
C164	C	0.212846	0.158828	-0.631236
C165	C	0.158867	0.131794	-0.579285
C166	C	0.213369	-0.158597	-0.631759
C167	C	0.242410	-0.183416	-0.656760
C168	C	0.217485	-0.235369	-0.629808
C169	C	0.248971	-0.262281	-0.656908
C170	C	0.163511	-0.262505	-0.577852
C171	C	0.134466	-0.237690	-0.552855
C172	C	0.159405	-0.185731	-0.579814
C173	C	-0.183523	-0.158714	-0.234896
C174	C	-0.233353	-0.183554	-0.181026
C175	C	-0.258352	-0.235509	-0.154003
C176	C	-0.312380	-0.262444	-0.095593
C177	C	-0.233515	-0.262619	-0.180850
C178	C	-0.183684	-0.237777	-0.234717
C179	C	-0.158695	-0.185824	-0.261739
C180	C	0.127569	0.073381	-0.552367
C181	C	0.102620	0.026820	-0.530911
C182	C	-0.061595	-0.137425	-0.366706
C183	C	-0.104663	-0.158894	-0.320148
C184	C	0.102808	-0.137377	-0.531096
C185	C	0.127909	-0.158825	-0.552703
O186	O	-0.705198	-0.683070	0.298771
O187	O	-0.616009	-0.530519	0.235422
O188	O	-0.705168	-0.619708	0.235422
O189	O	-0.616039	-0.593881	0.298771
O190	O	-0.777620	-0.619728	0.307869
O191	O	-0.688461	-0.530539	0.307869
O192	O	-0.777651	-0.683090	0.371218
Cu193	Cu	-0.739672	-0.606816	0.346159
Cu194	Cu	-0.653988	-0.606793	0.260481
O195	O	-0.688492	-0.593901	0.371218
C196	C	0.614235	0.432611	-0.503977
C197	C	0.588168	0.432985	-0.530314
C198	C	0.535357	0.432598	-0.425102
C199	C	0.509410	0.432972	-0.451559
C200	C	0.535388	0.432612	-0.503980
C201	C	0.588138	0.432971	-0.451556
C202	C	0.790116	0.418336	-0.552134
C203	C	0.839935	0.414302	-0.576959
C204	C	0.864941	0.412284	-0.628906
C205	C	0.918951	0.407900	-0.655822
C206	C	0.840127	0.414305	-0.656028
C207	C	0.790318	0.418346	-0.631206
C208	C	0.765312	0.420361	-0.579257
C209	C	0.473014	0.418355	-0.631748
C210	C	0.444170	0.414322	-0.656750
C211	C	0.390206	0.412289	-0.629802
C212	C	0.358922	0.407909	-0.656902
C213	C	0.365090	0.414296	-0.577848
C214	C	0.393938	0.418338	-0.552850
C215	C	0.447903	0.420364	-0.579806
C216	C	0.472859	0.418285	-0.234889
C217	C	0.443980	0.414231	-0.181020
C218	C	0.390015	0.412200	-0.154000
C219	C	0.358698	0.407802	-0.095591
C220	C	0.364930	0.414218	-0.180848
C221	C	0.393810	0.418270	-0.234714
C222	C	0.447779	0.420308	-0.261732
C223	C	0.711298	0.424738	-0.552343
C224	C	0.668245	0.428229	-0.530891
C225	C	0.504044	0.428203	-0.366696
C226	C	0.479087	0.424701	-0.320140
C227	C	0.504109	0.428232	-0.531086
C228	C	0.479177	0.424742	-0.552693
H229	H	-0.003532	-0.036971	0.040140
H230	H	0.463528	-0.162300	-0.698302
H231	H	0.286025	0.234179	0.019214
H232	H	0.465246	-0.302500	-0.019822
H233	H	-0.163466	-0.259854	-0.256573
H234	H	0.322226	-0.445565	-0.019822
H235	H	0.373486	0.419972	-0.510551
H236	H	-0.163611	-0.259948	0.026534
C237	C	0.075682	0.129441	0.026993
C238	C	0.085518	0.110587	-0.016211
C239	C	0.031623	0.083687	-0.014286
H240	H	0.064949	0.153195	0.025183
H241	H	0.043183	0.100220	0.059417
H242	H	0.118007	0.139803	-0.048626
H243	H	0.096243	0.086826	-0.014409
H244	H	-0.000876	0.054466	0.018138
H245	H	0.020893	0.107444	-0.016095
H246	H	0.038287	0.070887	-0.043596
C247	C	0.762857	0.129206	-0.495728
C248	C	0.713935	0.076278	-0.479797
C249	C	0.688855	0.049127	-0.427860
H250	H	0.748244	0.146098	-0.472150
H251	H	0.793646	0.129792	-0.494883
H252	H	0.683152	0.075695	-0.480638
H253	H	0.728533	0.059371	-0.503361
H254	H	0.719644	0.049713	-0.427015
H255	H	0.674245	0.066024	-0.404286
H256	H	0.655662	0.013212	-0.417046
C257	C	0.133833	-0.452768	0.318575
C258	C	0.073304	-0.467422	0.350710
C259	C	0.046339	-0.493522	0.403657
H260	H	0.156862	-0.429522	0.330597
H261	H	0.133562	-0.483786	0.320669
H262	H	0.073578	-0.436408	0.348618
H263	H	0.050260	-0.490673	0.338704
H264	H	0.046068	-0.524540	0.405752
H265	H	0.069372	-0.470273	0.415674
H266	H	0.005265	-0.503472	0.425467
H267	H	0.516185	-0.116960	-0.653269
H268	H	-0.253570	-0.161475	-0.159170
H269	H	0.141294	-0.445631	0.161107
H270	H	-0.534828	-0.445614	0.161087
C271	C	0.300247	0.241995	-0.712501
C272	C	0.288301	0.216904	-0.747051
C273	C	0.342206	0.243881	-0.799049
H274	H	0.331310	0.241391	-0.713408
H275	H	0.313849	0.277921	-0.723435
H276	H	0.274708	0.180988	-0.736120
H277	H	0.257248	0.217508	-0.746160
H278	H	0.355807	0.279806	-0.809982
H279	H	0.373264	0.243275	-0.799950
H280	H	0.334106	0.226863	-0.822498
C281	C	0.136344	-0.318953	-0.548601
C282	C	0.076710	-0.353503	-0.535468
C283	C	0.051669	-0.405507	-0.508527
H284	H	0.134816	-0.319871	-0.516922
H285	H	0.161334	-0.329880	-0.570922
H286	H	0.051726	-0.342579	-0.513148
H287	H	0.078220	-0.352601	-0.567138
H288	H	0.076660	-0.416434	-0.530848
H289	H	0.050146	-0.406420	-0.476849
H290	H	0.011207	-0.428956	-0.499617
H291	H	-0.163305	-0.116493	0.026539
H292	H	0.141252	0.373453	0.304156
H293	H	-0.003532	-0.180040	0.040140
H294	H	0.465256	-0.445560	-0.019835
C295	C	0.298540	0.373370	0.154039
C296	C	0.346777	0.418773	0.151430
C297	C	0.399004	0.418145	0.125379
H298	H	0.310423	0.373234	0.118949
H299	H	0.289364	0.342281	0.173235
H300	H	0.355952	0.449854	0.132234
H301	H	0.334913	0.418918	0.186512
H302	H	0.389828	0.387056	0.144575
H303	H	0.410882	0.418008	0.090291
H304	H	0.431737	0.448948	0.123610
C305	C	0.366330	-0.267550	-0.495757
C306	C	0.364288	-0.314153	-0.494692
C307	C	0.339400	-0.341201	-0.442787
H308	H	0.325830	-0.276581	-0.472187
H309	H	0.391341	-0.245253	-0.484845
H310	H	0.339277	-0.336446	-0.505598
H311	H	0.404780	-0.305137	-0.518251
H312	H	0.364411	-0.318904	-0.431874
H313	H	0.298902	-0.350229	-0.419220
H314	H	0.338017	-0.372822	-0.442058
H315	H	-0.677913	-0.445657	0.304162
H316	H	-0.003320	-0.179901	-0.430328
H317	H	0.284314	-0.302565	0.161105
C318	C	0.135416	0.241645	-0.547480
C319	C	0.133335	0.240548	-0.500865
C320	C	0.108279	0.267395	-0.473667
H321	H	0.094913	0.224638	-0.538452
H322	H	0.160343	0.277614	-0.569679
H323	H	0.108408	0.204586	-0.478670
H324	H	0.173830	0.257558	-0.509878
H325	H	0.133206	0.303363	-0.495867
H326	H	0.067778	0.250385	-0.464643
H327	H	0.106869	0.266658	-0.442039
H328	H	-0.534861	-0.302563	0.161075
C329	C	0.153957	-0.029603	-0.587750
C330	C	0.171239	0.022078	-0.605249
C331	C	0.223446	0.048291	-0.658137
H332	H	0.144839	-0.048716	-0.609715
H333	H	0.186773	-0.027758	-0.589789
H334	H	0.138430	0.020230	-0.603215
H335	H	0.180368	0.041205	-0.583299
H336	H	0.256261	0.050136	-0.660175
H337	H	0.214323	0.029174	-0.680097
H338	H	0.235181	0.083361	-0.670015
H339	H	-0.163189	-0.116417	-0.256898
C340	C	0.134151	0.373372	0.153915
C341	C	0.176955	0.418783	0.108262
C342	C	0.150290	0.418154	0.082077
H343	H	0.098924	0.373227	0.177129
H344	H	0.122264	0.342288	0.143897
H345	H	0.188834	0.449859	0.118281
H346	H	0.212184	0.418938	0.085036
H347	H	0.138402	0.387070	0.072059
H348	H	0.115063	0.418007	0.105295
H349	H	0.179330	0.448962	0.051096
C350	C	-0.010518	-0.029671	-0.423346
C351	C	0.023646	0.022005	-0.457754
C352	C	-0.003090	0.048172	-0.431774
H353	H	-0.010758	-0.027811	-0.392355
H354	H	-0.051590	-0.048834	-0.413381
H355	H	0.064708	0.041163	-0.467711
H356	H	0.023889	0.020161	-0.488745
H357	H	-0.044162	0.029009	-0.421809
H358	H	-0.003329	0.050028	-0.400784
H359	H	0.020083	0.083235	-0.455117
C360	C	0.240015	-0.102440	0.027219
C361	C	0.196854	-0.102628	0.075077
C362	C	0.221664	-0.050724	0.077227
H363	H	0.249848	-0.079715	-0.002026
H364	H	0.276289	-0.089832	0.025468
H365	H	0.160591	-0.115230	0.076823
H366	H	0.187018	-0.125343	0.104330
H367	H	0.257938	-0.038115	0.075476
H368	H	0.231495	-0.028003	0.047980
H369	H	0.192385	-0.050845	0.109700
H370	H	0.089811	0.136623	-0.509864
H371	H	0.233291	0.136978	-0.653321
C372	C	0.240516	-0.102198	-0.661127
C373	C	0.293984	-0.083753	-0.711980
C374	C	0.319001	-0.031805	-0.739049
H375	H	0.250390	-0.079472	-0.641738
H376	H	0.211342	-0.102199	-0.664391
H377	H	0.323152	-0.083749	-0.708714
H378	H	0.284127	-0.106464	-0.731383
H379	H	0.289827	-0.031805	-0.742313
H380	H	0.328871	-0.009084	-0.719656
H381	H	0.355278	-0.019285	-0.773558
H382	H	0.770120	0.419993	-0.653293
C383	C	0.617109	0.433720	-0.423128
C384	C	0.582924	0.433941	-0.371458
C385	C	0.609584	0.434619	-0.345251
H386	H	0.658190	0.464814	-0.442253
H387	H	0.617290	0.402926	-0.421268
H388	H	0.582750	0.464731	-0.373320
H389	H	0.541844	0.402849	-0.352320
H390	H	0.609765	0.403826	-0.343391
H391	H	0.650665	0.465714	-0.364380
H392	H	0.586391	0.434765	-0.310189
H393	H	0.610015	0.433591	-0.573388
C394	C	0.866696	0.241634	-0.547403
C395	C	0.821050	0.240507	-0.500767
C396	C	0.845729	0.267303	-0.473544
H397	H	0.899926	0.277607	-0.569561
H398	H	0.881163	0.224594	-0.538404
H399	H	0.806593	0.257549	-0.509767
H400	H	0.787817	0.204542	-0.478596
H401	H	0.860195	0.250263	-0.464545
H402	H	0.878958	0.303274	-0.495705
H403	H	0.814761	0.266538	-0.441896
H404	H	0.286357	-0.161318	-0.699060
C405	C	0.075796	-0.267170	-0.496494
C406	C	0.028042	-0.271971	-0.496582
C407	C	-0.026017	-0.299133	-0.444673
H408	H	0.082238	-0.247834	-0.473706
H409	H	0.065070	-0.301682	-0.484015
H410	H	0.038766	-0.237465	-0.509054
H411	H	0.021581	-0.291310	-0.519360
H412	H	-0.036743	-0.333645	-0.432194
H413	H	-0.019568	-0.279795	-0.421889
H414	H	-0.058425	-0.302398	-0.444727
H415	H	0.770052	0.137016	-0.653261
H416	H	-0.253875	-0.304926	-0.158845
C417	C	0.452803	0.433791	-0.423163
C418	C	0.435531	0.434032	-0.371498
C419	C	0.383396	0.434796	-0.345330
H420	H	0.419947	0.403030	-0.421288
H421	H	0.462014	0.464916	-0.442332
H422	H	0.426317	0.402911	-0.352333
H423	H	0.468371	0.464792	-0.373357
H424	H	0.392607	0.465922	-0.364499
H425	H	0.350546	0.404035	-0.343459
H426	H	0.371674	0.434965	-0.310274
H427	H	0.464407	0.412584	-0.159163
C428	C	0.531438	-0.102307	-0.264118
C429	C	0.547239	-0.083890	-0.229085
C430	C	0.601227	-0.031942	-0.256014
H431	H	0.524901	-0.079571	-0.276960
H432	H	0.563885	-0.102299	-0.293307
H433	H	0.514800	-0.083894	-0.199906
H434	H	0.553789	-0.106612	-0.216242
H435	H	0.633674	-0.031934	-0.285203
H436	H	0.594685	-0.009210	-0.268855
H437	H	0.611959	-0.019441	-0.232250
H438	H	0.860422	0.234758	-0.698298
C439	C	0.531430	0.420460	-0.264122
C440	C	0.547208	0.417808	-0.229078
C441	C	0.601154	0.419803	-0.255990
H442	H	0.563913	0.452897	-0.293316
H443	H	0.524834	0.391167	-0.276948
H444	H	0.553808	0.447098	-0.216261
H445	H	0.514741	0.385373	-0.199884
H446	H	0.594557	0.390509	-0.268815
H447	H	0.633631	0.452240	-0.285183
H448	H	0.611862	0.417998	-0.232215
H449	H	0.769763	0.419979	-0.509836
C450	C	0.866765	0.412086	-0.547415
C451	C	0.834195	0.414702	-0.496605
C452	C	0.858888	0.412655	-0.469370
H453	H	0.908872	0.441365	-0.566736
H454	H	0.863489	0.379635	-0.544077
H455	H	0.837476	0.447149	-0.499944
H456	H	0.792088	0.385426	-0.477269
H457	H	0.855612	0.380205	-0.466032
H458	H	0.900995	0.441935	-0.488696
H459	H	0.836789	0.414425	-0.434891
C460	C	0.867341	0.412081	-0.712412
C461	C	0.916265	0.408097	-0.728343
C462	C	0.941343	0.406039	-0.780279
H463	H	0.881953	0.443594	-0.735991
H464	H	0.836552	0.381866	-0.713254
H465	H	0.947049	0.438309	-0.727505
H466	H	0.901669	0.376585	-0.704777
H467	H	0.910553	0.375824	-0.781121
H468	H	0.955951	0.437553	-0.803853
H469	H	0.974536	0.403331	-0.791092
C470	C	0.366501	0.420488	-0.263778
C471	C	0.313072	0.417858	-0.228593
C472	C	0.287903	0.419908	-0.255349
H473	H	0.356550	0.391215	-0.276614
H474	H	0.395621	0.452943	-0.292959
H475	H	0.283957	0.385407	-0.199422
H476	H	0.323006	0.447129	-0.215755
H477	H	0.317023	0.452363	-0.284529
H478	H	0.277955	0.390635	-0.268183
H479	H	0.251652	0.418129	-0.231481
H480	H	0.516955	0.420008	-0.653700
C481	C	-0.260319	-0.154086	0.018677
C482	C	-0.227782	-0.103283	0.021319
C483	C	-0.252522	-0.076068	0.019328
H484	H	-0.302426	-0.173431	0.047966
H485	H	-0.257055	-0.150734	-0.013762
H486	H	-0.231052	-0.106637	0.053755
H487	H	-0.185676	-0.083924	-0.007967
H488	H	-0.249258	-0.072716	-0.013111
H489	H	-0.294629	-0.095418	0.048617
H490	H	-0.230446	-0.041594	0.021115
H491	H	0.373358	-0.259855	-0.256550
H492	H	0.286019	-0.161536	0.019224
C493	C	0.471512	0.412119	-0.713143
C494	C	0.524934	0.414745	-0.731390
C495	C	0.550134	0.412709	-0.783333
H496	H	0.481477	0.441398	-0.735943
H497	H	0.442402	0.379669	-0.713198
H498	H	0.554038	0.447192	-0.731339
H499	H	0.514986	0.385468	-0.708604
H500	H	0.521024	0.380258	-0.783388
H501	H	0.560095	0.441988	-0.806129
H502	H	0.586380	0.414485	-0.795718
C503	C	0.306482	0.412060	-0.548665
C504	C	0.286584	0.408080	-0.581670
C505	C	0.232590	0.406010	-0.554801
H506	H	0.314412	0.443567	-0.539700
H507	H	0.275419	0.381839	-0.517017
H508	H	0.317640	0.438298	-0.613308
H509	H	0.278641	0.376574	-0.590636
H510	H	0.201527	0.375789	-0.523153
H511	H	0.240525	0.437517	-0.545837
H512	H	0.219079	0.403304	-0.577189
H513	H	0.320986	0.412562	-0.158844
H514	H	0.139482	-0.036972	0.040143
H515	H	0.233362	0.136461	0.026545
H516	H	0.142951	0.234503	0.019192
H517	H	-0.253965	-0.304979	0.019197
H518	H	0.090273	-0.259946	0.026535
H519	H	0.142943	-0.304984	0.019199
H520	H	0.609956	-0.036755	-0.573357
H521	H	0.466900	-0.179880	-0.430293
C522	C	0.617097	-0.029819	-0.423124
C523	C	0.582926	-0.064240	-0.371455
C524	C	0.609620	-0.038258	-0.345270
H525	H	0.617304	0.001161	-0.421255
H526	H	0.658180	-0.019833	-0.442278
H527	H	0.541854	-0.074218	-0.352305
H528	H	0.582717	-0.095220	-0.373308
H529	H	0.650702	-0.028272	-0.364424
H530	H	0.609825	-0.007278	-0.343405
H531	H	0.586442	-0.061610	-0.310211
H532	H	0.464389	-0.161475	-0.159147
H533	H	0.320407	-0.305496	-0.554855
C534	C	0.306304	-0.319016	-0.151395
C535	C	0.286376	-0.334968	-0.098473
C536	C	0.232383	-0.386914	-0.071340
H537	H	0.314244	-0.342582	-0.168303
H538	H	0.275252	-0.319864	-0.151973
H539	H	0.317421	-0.334124	-0.097897
H540	H	0.278423	-0.311416	-0.081550
H541	H	0.201330	-0.387761	-0.071918
H542	H	0.240329	-0.410475	-0.088252
H543	H	0.218852	-0.397742	-0.035428
