data_functionalizedCrystal
_audit_creation_method	'MofGen! by Chris Wilmer'
_symmetry_space_group_name_H-M	'P1'
_symmetry_Int_Tables_number	1
_symmetry_cell_setting	triclinic
loop_
_symmetry_equiv_pos_as_xyz
  x,y,z
_cell_length_a	13.897448
_cell_length_b	17.640112
_cell_length_c	17.639306
_cell_angle_alpha	87.804122
_cell_angle_beta	101.185321
_cell_angle_gamma	101.242525
loop_
_atom_site_label
_atom_site_type_symbol
_atom_site_fract_x
_atom_site_fract_y
_atom_site_fract_z
Zn1	Zn	-0.123982	1.247749	-0.195067
Zn2	Zn	-0.260324	1.222014	-0.068092
Zn3	Zn	-0.136711	1.095102	-0.093720
Zn4	Zn	-0.322923	1.120730	-0.220664
O5	O	-0.210985	1.171399	-0.144386
O6	O	-0.110543	1.350607	-0.156786
O7	O	-0.223055	1.183683	0.034774
O8	O	-0.000032	1.115396	-0.107176
O9	O	-0.210713	1.331699	-0.063498
O10	O	0.009319	1.227545	-0.181636
O11	O	-0.132237	1.090441	0.015946
O12	O	-0.192937	0.992230	-0.131997
O13	O	-0.317404	1.159075	-0.323535
O14	O	-0.329746	1.011059	-0.225262
O15	O	-0.171243	1.252396	-0.304729
O16	O	-0.403617	1.208533	-0.088319
O17	O	-0.449608	1.134120	-0.200413
C18	C	-0.269516	0.974090	-0.184189
C19	C	-0.294583	0.889684	-0.201234
C20	C	-0.020539	0.563038	-0.014897
C21	C	-0.044115	0.483727	-0.030924
C22	C	-0.186711	0.503354	-0.127875
C23	C	-0.163145	0.582668	-0.111858
C24	C	-0.080058	0.612503	-0.055368
C25	C	-0.222663	0.632134	-0.152329
C26	C	-0.199102	0.711440	-0.136310
C27	C	-0.116021	0.741281	-0.079821
C28	C	-0.056496	0.691810	-0.039349
C29	C	-0.305754	0.602296	-0.208815
C30	C	-0.365272	0.651762	-0.249286
C31	C	-0.341707	0.731071	-0.233271
C32	C	-0.258626	0.760912	-0.176782
C33	C	-0.401231	0.780542	-0.273743
C34	C	-0.377669	0.859849	-0.257725
C35	C	-0.235064	0.840218	-0.160764
C36	C	-0.461611	1.171339	-0.144375
C37	C	-0.568815	1.171388	-0.144382
C38	C	-0.765095	1.171477	-0.144413
C39	C	-0.655872	1.171426	-0.144399
C40	C	0.040623	1.171483	-0.144409
C41	C	0.147844	1.171519	-0.144419
C42	C	-0.249886	1.211465	-0.342456
C43	C	-0.266464	1.228538	-0.426861
C44	C	-0.152225	1.369478	-0.104428
C45	C	-0.127186	1.453888	-0.087401
C46	C	-0.084600	1.041986	-0.753494
C47	C	-0.100192	1.058047	-0.832802
C48	C	-0.194751	1.155129	-0.813179
C49	C	-0.179163	1.139080	-0.733866
C50	C	-0.124087	1.082507	-0.704031
C51	C	-0.218650	1.179600	-0.684403
C52	C	-0.203067	1.163548	-0.605099
C53	C	-0.147997	1.106977	-0.575257
C54	C	-0.108504	1.066455	-0.624726
C55	C	-0.273731	1.236169	-0.714241
C56	C	-0.313218	1.276689	-0.664778
C57	C	-0.297630	1.260641	-0.585471
C58	C	-0.242559	1.204070	-0.555629
C59	C	-0.337122	1.301163	-0.536002
C60	C	-0.321539	1.285111	-0.456697
C61	C	-0.226976	1.188018	-0.476325
C62	C	-0.172152	1.131532	0.052922
C63	C	-0.155259	1.114606	0.137357
H64	H	-0.167395	0.864513	-0.114775
C65	C	0.070863	0.595861	0.047242
N66	N	0.139704	0.620583	0.094045
C67	C	-0.443140	0.914264	-0.302248
N68	N	-0.492454	0.955251	-0.335783
H69	H	0.004365	0.443455	0.002031
H70	H	-0.063644	1.020396	-0.600431
H71	H	-0.286414	1.249238	-0.778817
C72	C	-0.166386	1.125788	-0.443501
N73	N	-0.120753	1.078917	-0.418778
H74	H	-0.358065	1.322748	-0.689082
H75	H	-0.039740	0.995927	-0.729199
H76	H	-0.135318	1.093903	-0.510683
C77	C	0.034907	0.724633	0.022790
N78	N	0.103747	0.749355	0.069593
C79	C	-0.278102	0.470526	-0.190013
N80	N	-0.346937	0.445802	-0.236820
H81	H	-0.068029	1.025049	-0.873074
H82	H	-0.324935	0.537719	-0.221855
H83	H	-0.381973	1.347219	-0.560308
C84	C	-0.456664	0.618934	-0.311424
N85	N	-0.525498	0.594209	-0.358231
H86	H	-0.468886	0.756237	-0.319732
C87	C	-0.364985	1.329681	-0.402286
N88	N	-0.397716	1.363248	-0.361303
C89	C	-0.090100	0.828522	-0.062202
N90	N	-0.070575	0.894232	-0.048933
C91	C	-0.255598	1.217188	-0.846042
N92	N	-0.301522	1.263872	-0.870805
