data_functionalizedCrystal
_audit_creation_method	'MofGen! by Chris Wilmer'
_symmetry_space_group_name_H-M	'P1'
_symmetry_Int_Tables_number	1
_symmetry_cell_setting	triclinic
loop_
_symmetry_equiv_pos_as_xyz
  x,y,z
_cell_length_a	25.639242
_cell_length_b	25.639240
_cell_length_c	12.594509
_cell_angle_alpha	90.041310
_cell_angle_beta	90.021966
_cell_angle_gamma	90.025061
loop_
_atom_site_label
_atom_site_type_symbol
_atom_site_fract_x
_atom_site_fract_y
_atom_site_fract_z
Zn1	Zn	0.799286	-0.208242	0.601781
Zn2	Zn	1.299286	0.291758	1.101781
Zn3	Zn	0.799207	-0.295685	0.423762
Zn4	Zn	1.299207	0.204315	0.923762
Zn5	Zn	0.711851	-0.208253	0.423808
Zn6	Zn	1.211851	0.291747	0.923808
Zn7	Zn	0.711816	-0.295637	0.601690
Zn8	Zn	1.211816	0.204363	1.101690
O9	O	0.755540	-0.251954	0.512760
O10	O	1.255540	0.248046	1.012760
O11	O	0.872441	-0.219857	0.578186
O12	O	1.372441	0.280143	1.078186
O13	O	0.787600	-0.284111	0.274822
O14	O	1.287600	0.215889	0.774822
O15	O	0.723496	-0.135087	0.447474
O16	O	1.223496	0.364913	0.947474
O17	O	0.872382	-0.284101	0.447396
O18	O	1.372382	0.215899	0.947396
O19	O	0.787735	-0.135079	0.578230
O20	O	1.287735	0.364921	1.078230
O21	O	0.723420	-0.219876	0.274856
O22	O	1.223420	0.280124	0.774856
O23	O	0.638681	-0.219830	0.447386
O24	O	1.138681	0.280170	0.947386
O25	O	0.723438	-0.284019	0.750648
O26	O	1.223438	0.215981	1.250648
O27	O	0.638656	-0.284030	0.578075
O28	O	1.138656	0.215970	1.078075
O29	O	0.787702	-0.219811	0.750715
O30	O	1.287702	0.280189	1.250715
O31	O	0.787567	-0.368844	0.447307
O32	O	1.287567	0.131156	0.947307
O33	O	0.723361	-0.368808	0.578030
O34	O	1.223361	0.131192	1.078030
C35	C	0.619697	-0.251926	0.512726
C36	C	1.119697	0.248074	1.012726
C37	C	0.561583	-0.251927	0.512737
C38	C	1.061583	0.248073	1.012737
C39	C	0.755466	-0.387797	0.512677
C40	C	1.255466	0.112203	1.012677
C41	C	0.755482	-0.445911	0.512677
C42	C	1.255482	0.054089	1.012677
C43	C	0.310428	-0.218562	0.580987
C44	C	0.810428	0.281438	1.080987
C45	C	0.365032	-0.218557	0.580981
C46	C	0.865032	0.281443	1.080981
O47	O	0.393302	-0.190167	0.639002
O48	O	0.893302	0.309833	1.139002
N49	N	0.392309	-0.251948	0.512773
N50	N	0.892309	0.248052	1.012773
C51	C	0.364979	-0.285351	0.444574
C52	C	0.864979	0.214649	0.944574
O53	O	0.393194	-0.313752	0.386557
O54	O	0.893194	0.186248	0.886557
C55	C	0.310376	-0.285358	0.444586
C56	C	0.810376	0.214642	0.944586
C57	C	0.283102	-0.251961	0.512791
C58	C	0.783102	0.248039	1.012791
C59	C	0.283154	-0.185168	0.649187
C60	C	0.783154	0.314832	1.149187
C61	C	0.228553	-0.185173	0.649192
C62	C	0.728553	0.314827	1.149192
C63	C	0.201227	-0.218571	0.580996
C64	C	0.701227	0.281429	1.080996
C65	C	0.228501	-0.251965	0.512795
C66	C	0.728501	0.248035	1.012795
C67	C	0.283047	-0.318763	0.376393
C68	C	0.783047	0.181237	0.876393
C69	C	0.228440	-0.318767	0.376412
C70	C	0.728440	0.181233	0.876412
C71	C	0.201166	-0.285370	0.444617
C72	C	0.701166	0.214630	0.944617
C73	C	0.146574	-0.285369	0.444604
C74	C	0.646574	0.214631	0.944604
N75	N	0.119297	-0.251977	0.512812
N76	N	0.619297	0.248023	1.012812
C77	C	0.146624	-0.218579	0.581008
C78	C	0.646624	0.281421	1.081008
C79	C	0.479650	-0.285333	0.444554
C80	C	0.979650	0.214667	0.944554
C81	C	0.534252	-0.285324	0.444536
C82	C	1.034252	0.214676	0.944536
C83	C	0.534302	-0.218530	0.580945
C84	C	1.034302	0.281470	1.080945
C85	C	0.479698	-0.218538	0.580957
C86	C	0.979698	0.281462	1.080957
C87	C	0.452373	-0.251942	0.512763
C88	C	0.952373	0.248058	1.012763
C89	C	0.031959	-0.218591	0.581011
C90	C	0.531959	0.281409	1.081011
C91	C	-0.022647	-0.218597	0.581007
C92	C	0.477353	0.281403	1.081007
C93	C	-0.022691	-0.285391	0.444602
C94	C	0.477309	0.214609	0.944602
C95	C	0.031909	-0.285384	0.444602
C96	C	0.531909	0.214616	0.944602
C97	C	0.059233	-0.251982	0.512816
C98	C	0.559233	0.248018	1.012816
O99	O	0.118270	-0.313746	0.386615
O100	O	0.618270	0.186254	0.886615
O101	O	0.118402	-0.190187	0.639024
O102	O	0.618402	0.309813	1.139024
C103	C	0.789005	-0.806231	0.580968
C104	C	1.289005	-0.306231	1.080968
C105	C	0.789021	-0.860836	0.580990
C106	C	1.289021	-0.360836	1.080990
O107	O	0.817436	-0.889036	0.638967
O108	O	1.317436	-0.389036	1.138967
N109	N	0.755612	-0.888193	0.512863
N110	N	1.255612	-0.388193	1.012863
C111	C	0.722183	-0.860944	0.444719
C112	C	1.222183	-0.360944	0.944719
O113	O	0.693767	-0.889228	0.386775
O114	O	1.193767	-0.389228	0.886775
C115	C	0.722165	-0.806341	0.444703
C116	C	1.222165	-0.306341	0.944703
C117	C	0.755579	-0.778986	0.512826
C118	C	1.255579	-0.278986	1.012826
C119	C	0.822417	-0.778876	0.649086
C120	C	1.322417	-0.278876	1.149086
C121	C	0.822402	-0.724276	0.649063
C122	C	1.322402	-0.224276	1.149063
C123	C	0.788976	-0.697030	0.580921
C124	C	1.288976	-0.197030	1.080921
C125	C	0.755564	-0.724385	0.512803
C126	C	1.255564	-0.224385	1.012803
C127	C	0.688733	-0.779092	0.376565
C128	C	1.188733	-0.279092	0.876565
C129	C	0.688718	-0.724485	0.376555
C130	C	1.188718	-0.224485	0.876555
C131	C	0.722132	-0.697130	0.444679
C132	C	1.222132	-0.197130	0.944679
C133	C	0.722124	-0.642539	0.444638
C134	C	1.222124	-0.142539	0.944638
N135	N	0.755532	-0.615181	0.512764
N136	N	1.255532	-0.115181	1.012764
C137	C	0.788958	-0.642427	0.580906
C138	C	1.288958	-0.142427	1.080906
C139	C	0.722222	-0.975615	0.444758
C140	C	1.222222	-0.475615	0.944758
C141	C	0.722242	-1.030217	0.444767
C142	C	1.222242	-0.530217	0.944767
C143	C	0.789079	-1.030105	0.581040
C144	C	1.289079	-0.530105	1.081040
C145	C	0.789062	-0.975501	0.581024
C146	C	1.289062	-0.475501	1.081024
C147	C	0.755630	-0.948257	0.512884
C148	C	1.255630	-0.448257	1.012884
C149	C	0.788925	-0.527762	0.580851
C150	C	1.288925	-0.027762	1.080851
C151	C	0.788908	-0.473157	0.580819
C152	C	1.288908	0.026843	1.080819
C153	C	0.722069	-0.473273	0.444550
C154	C	1.222069	0.026727	0.944550
C155	C	0.722087	-0.527874	0.444578
C156	C	1.222087	-0.027874	0.944578
C157	C	0.755517	-0.555117	0.512737
C158	C	1.255517	-0.055117	1.012737
O159	O	0.693722	-0.614304	0.386693
O160	O	1.193722	-0.114304	0.886693
O161	O	0.817364	-0.614136	0.638850
O162	O	1.317364	-0.114136	1.138850
C163	C	0.891913	-0.251983	0.512796
C164	C	1.391913	0.248017	1.012796
C165	C	0.950027	-0.251995	0.512811
C166	C	1.450027	0.248005	1.012811
C167	C	0.755575	-0.251909	0.790381
C168	C	1.255575	0.248091	1.290381
C169	C	0.755590	-0.251889	0.908687
C170	C	1.255590	0.248111	1.408687
C171	C	0.755628	-0.115581	0.512867
C172	C	1.255628	0.384419	1.012867
C173	C	0.755666	-0.057467	0.512913
C174	C	1.255666	0.442533	1.012913
C175	C	0.755535	-0.251962	0.236219
C176	C	1.255535	0.248038	0.736219
C177	C	0.755621	-0.251834	0.117915
C178	C	1.255621	0.248166	0.617915
C179	C	0.720648	-0.286792	0.977904
C180	C	1.220648	0.213208	1.477904
C181	C	0.768352	-0.299573	1.048689
C182	C	1.268352	0.200427	1.548689
C183	C	0.707923	-0.239076	1.048701
C184	C	1.207923	0.260924	1.548701
C185	C	0.803319	-0.264695	0.977914
C186	C	1.303319	0.235305	1.477914
C187	C	0.742858	-0.204176	0.977919
C188	C	1.242858	0.295824	1.477919
C189	C	0.790595	-0.216939	1.048673
C190	C	1.290595	0.283061	1.548673
H191	H	-0.044851	-0.191398	0.636547
H192	H	0.455149	0.308602	1.136547
F193	F	0.728742	-0.151481	0.937254
F194	F	1.228742	0.348519	1.437254
H195	H	0.667599	-0.228262	1.079795
H196	H	1.167599	0.271738	1.579795
F197	F	0.686640	-0.946623	0.372222
F198	F	1.186640	-0.446623	0.872222
H199	H	0.849636	-0.801054	0.704582
H200	H	1.349636	-0.301054	1.204582
F201	F	0.061031	-0.183040	0.653611
F202	F	0.561031	0.316960	1.153611
F203	F	0.682055	-0.325431	0.937286
F204	F	1.182055	0.174569	1.437286
F205	F	0.856040	-0.278895	0.937448
F206	F	1.356040	0.221105	1.437448
H207	H	0.816296	-1.052298	0.636526
H208	H	1.316296	-0.552298	1.136526
F209	F	0.857963	-0.695169	0.721576
F210	F	1.357963	-0.195169	1.221576
F211	F	0.686684	-1.059324	0.372247
F212	F	1.186684	-0.559324	0.872247
F213	F	0.824625	-0.946393	0.653530
F214	F	1.324625	-0.446393	1.153530
F215	F	0.199533	-0.149630	0.721793
F216	F	0.699533	0.350370	1.221793
F217	F	0.653167	-0.808194	0.304060
F218	F	1.153167	-0.308194	0.804060
H219	H	0.661492	-0.702305	0.321069
H220	H	1.161492	-0.202305	0.821069
H221	H	0.820192	-0.187399	1.079550
H222	H	1.320192	0.312601	1.579550
H223	H	0.694882	-0.550148	0.389099
H224	H	1.194882	-0.050148	0.889099
H225	H	0.779138	-0.339900	1.079776
H226	H	1.279138	0.160100	1.579776
F227	F	0.312229	-0.149619	0.721780
F228	F	0.812229	0.350381	1.221780
F229	F	0.563394	-0.182984	0.653526
F230	F	1.063394	0.317016	1.153526
F231	F	0.450676	-0.182993	0.653551
F232	F	0.950676	0.317007	1.153551
F233	F	0.450573	-0.320884	0.371958
F234	F	0.950573	0.179116	0.871958
F235	F	0.312062	-0.354303	0.303785
F236	F	0.812062	0.145697	0.803785
F237	F	0.563273	-0.320861	0.371925
F238	F	1.063273	0.179139	0.871925
F239	F	0.686497	-0.444267	0.372032
F240	F	1.186497	0.055733	0.872032
H241	H	0.206194	-0.345971	0.320881
H242	H	0.706194	0.154029	0.820881
H243	H	-0.044950	-0.312582	0.389074
H244	H	0.455050	0.187418	0.889074
F245	F	0.824475	-0.444046	0.653326
F246	F	1.324475	0.055954	1.153326
F247	F	0.060937	-0.320930	0.372015
F248	F	0.560937	0.179070	0.872015
H249	H	0.816142	-0.549937	0.636360
H250	H	1.316142	-0.049937	1.136360
