data_functionalizedCrystal
_audit_creation_method	'MofGen! by Chris Wilmer'
_symmetry_space_group_name_H-M	'P1'
_symmetry_Int_Tables_number	1
_symmetry_cell_setting	triclinic
loop_
_symmetry_equiv_pos_as_xyz
  x,y,z
_cell_length_a	12.759400
_cell_length_b	25.639242
_cell_length_c	12.759393
_cell_angle_alpha	90.032630
_cell_angle_beta	89.970195
_cell_angle_gamma	89.990696
loop_
_atom_site_label
_atom_site_type_symbol
_atom_site_fract_x
_atom_site_fract_y
_atom_site_fract_z
Zn1	Zn	-0.418365	-0.799361	-0.594353
Zn2	Zn	-0.594081	-0.799307	-0.418675
Zn3	Zn	-0.418400	-0.711923	-0.418652
Zn4	Zn	-0.593986	-0.711919	-0.594276
O5	O	-0.506208	-0.755627	-0.506489
O6	O	-0.441699	-0.872519	-0.571090
O7	O	-0.570830	-0.787694	-0.271651
O8	O	-0.271374	-0.723546	-0.441982
O9	O	-0.570796	-0.872479	-0.442021
O10	O	-0.271349	-0.787786	-0.571068
O11	O	-0.441758	-0.723493	-0.271634
O12	O	-0.441667	-0.638757	-0.441908
O13	O	-0.570636	-0.723539	-0.741308
O14	O	-0.570669	-0.638754	-0.570938
O15	O	-0.441607	-0.787782	-0.741364
O16	O	-0.741089	-0.787690	-0.441947
O17	O	-0.741020	-0.723487	-0.570960
C18	C	-0.506162	-0.619785	-0.506413
C19	C	-0.506168	-0.561671	-0.506405
C20	C	-0.438920	-0.310470	-0.439393
C21	C	-0.438911	-0.365074	-0.439383
O22	O	-0.381675	-0.393305	-0.382362
N23	N	-0.506180	-0.392397	-0.506448
C24	C	-0.573455	-0.365112	-0.573535
O25	O	-0.630670	-0.393366	-0.630578
C26	C	-0.573458	-0.310509	-0.573549
C27	C	-0.506192	-0.283189	-0.506472
C28	C	-0.371659	-0.283150	-0.372322
C29	C	-0.371670	-0.228550	-0.372331
C30	C	-0.438942	-0.201269	-0.439411
C31	C	-0.506203	-0.228589	-0.506481
C32	C	-0.640726	-0.283225	-0.640641
C33	C	-0.640723	-0.228618	-0.640650
C34	C	-0.573458	-0.201298	-0.573573
C35	C	-0.573486	-0.146707	-0.573570
N36	N	-0.506217	-0.119385	-0.506505
C37	C	-0.438945	-0.146665	-0.439425
C38	C	-0.573441	-0.479783	-0.573500
C39	C	-0.573444	-0.534385	-0.573481
C40	C	-0.438899	-0.534343	-0.439330
C41	C	-0.438902	-0.479740	-0.439345
C42	C	-0.506173	-0.452460	-0.506435
C43	C	-0.438974	-0.032000	-0.439448
C44	C	-0.438994	0.022605	-0.439460
C45	C	-0.573535	0.022559	-0.573615
C46	C	-0.573519	-0.032042	-0.573599
C47	C	-0.506230	-0.059320	-0.506513
O48	O	-0.630690	-0.118442	-0.630565
O49	O	-0.381730	-0.118405	-0.382401
C50	C	-0.779175	-0.755596	-0.506470
C51	C	-0.895952	-0.755631	-0.506498
C52	C	-0.950711	-0.789066	-0.573770
C53	C	-1.060435	-0.789096	-0.573799
C54	C	-1.060632	-0.722253	-0.439273
C55	C	-0.950909	-0.722221	-0.439251
C56	C	-1.210267	-0.807788	-0.697775
C57	C	-1.265030	-0.841232	-0.765039
C58	C	-1.229331	-0.892234	-0.781273
C59	C	-1.138872	-0.909803	-0.730228
C60	C	-1.084115	-0.876362	-0.662957
C61	C	-1.119812	-0.825353	-0.646743
C62	C	-0.801075	-0.703534	-0.315272
C63	C	-0.746316	-0.670096	-0.247995
C64	C	-0.782013	-0.619093	-0.231751
C65	C	-0.872475	-0.601526	-0.282777
C66	C	-0.927234	-0.634964	-0.350054
C67	C	-0.891530	-0.685966	-0.366301
C68	C	-0.232175	-0.755673	-0.506531
C69	C	-0.115398	-0.755692	-0.506549
C70	C	-0.506107	-0.755666	-0.780523
C71	C	-0.506064	-0.755683	-0.897299
C72	C	-0.506252	0.108000	-0.506552
C73	C	-0.506266	0.049886	-0.506540
C74	C	-0.438868	-0.789137	-0.952192
C75	C	-0.438823	-0.789146	-1.061916
C76	C	-0.573178	-0.722245	-1.061845
C77	C	-0.573217	-0.722234	-0.952123
C78	C	-0.314871	-0.807863	-1.211901
C79	C	-0.247685	-0.841326	-1.266797
C80	C	-0.231586	-0.892341	-1.231227
C81	C	-0.282690	-0.909905	-1.140761
C82	C	-0.349884	-0.876446	-1.085870
C83	C	-0.365962	-0.825423	-1.121439
C84	C	-0.697171	-0.703522	-0.802137
C85	C	-0.764371	-0.670065	-0.747244
C86	C	-0.780480	-0.619048	-0.782812
C87	C	-0.729395	-0.601486	-0.873281
C88	C	-0.662195	-0.634943	-0.928174
C89	C	-0.646084	-0.685959	-0.892598
C90	C	-0.506233	-0.755618	-0.233522
C91	C	-0.505980	-0.755703	-0.116746
H92	H	-0.695501	-0.206410	-0.695288
H93	H	-0.384176	-0.054204	-0.384825
H94	H	-0.269584	-0.951449	-1.111812
H95	H	-0.628300	-0.054287	-0.628211
H96	H	-0.627854	-0.695014	-1.106496
H97	H	-0.384185	-0.816372	-0.907558
H98	H	-1.273927	-0.919464	-0.836041
H99	H	-1.239335	-0.766257	-0.684574
H100	H	-0.684052	-0.745063	-0.773162
H101	H	-0.737419	-0.591868	-0.176965
H102	H	-0.628230	-0.457575	-0.628131
H103	H	-1.109820	-0.951336	-0.743442
H104	H	-1.338682	-0.826922	-0.806600
H105	H	-0.835210	-0.591810	-0.738114
H106	H	-0.176881	-0.919586	-1.275931
H107	H	-1.105391	-0.695053	-0.384521
H108	H	-1.000894	-0.620657	-0.391603
H109	H	-0.695502	-0.305460	-0.695262
H110	H	-0.672660	-0.684404	-0.206442
H111	H	-1.010467	-0.890667	-0.621395
H112	H	-0.901542	-0.559995	-0.269548
H113	H	-0.905967	-0.816270	-0.628528
H114	H	-0.771991	-0.745062	-0.328508
H115	H	-0.628309	0.044780	-0.628226
H116	H	-0.391495	-0.890747	-1.012218
H117	H	-0.384216	0.044846	-0.384835
H118	H	-0.316896	-0.206311	-0.317710
H119	H	-0.316873	-0.305356	-0.317698
H120	H	-0.206076	-0.827020	-1.340455
H121	H	-0.327964	-0.766321	-1.240866
H122	H	-0.620599	-0.620640	-1.001839
H123	H	-0.742515	-0.559945	-0.902245
H124	H	-0.805977	-0.684370	-0.673586
H125	H	-0.384121	-0.556565	-0.384712
H126	H	-0.384125	-0.457500	-0.384728
H127	H	-0.628230	-0.556624	-0.628091
