data_functionalizedCrystal
_audit_creation_method	'MofGen! by Chris Wilmer'
_symmetry_space_group_name_H-M	'P1'
_symmetry_Int_Tables_number	1
_symmetry_cell_setting	triclinic
loop_
_symmetry_equiv_pos_as_xyz
  x,y,z
_cell_length_a	14.519709
_cell_length_b	11.792254
_cell_length_c	12.996460
_cell_angle_alpha	90.000957
_cell_angle_beta	90.007122
_cell_angle_gamma	83.939371
loop_
_atom_site_label
_atom_site_type_symbol
_atom_site_fract_x
_atom_site_fract_y
_atom_site_fract_z
O1	O	0.126462	1.506193	0.085568
O2	O	0.376462	1.756193	0.335568
O3	O	0.626462	2.006193	0.585568
O4	O	0.876462	2.256193	0.835568
O5	O	0.139477	1.175782	0.085571
O6	O	0.389477	1.425782	0.335571
O7	O	0.639477	1.675782	0.585571
O8	O	0.889477	1.925782	0.835571
O9	O	-0.001237	1.349748	0.085560
O10	O	0.248763	1.599748	0.335560
O11	O	0.498763	1.849748	0.585560
O12	O	0.748763	2.099748	0.835560
O13	O	0.267176	1.332227	0.085579
O14	O	0.517176	1.582227	0.335579
O15	O	0.767176	1.832227	0.585579
O16	O	1.017176	2.082227	0.835579
O17	O	-0.001246	1.349745	-0.085574
O18	O	0.248754	1.599745	0.164426
O19	O	0.498754	1.849745	0.414426
O20	O	0.748754	2.099745	0.664426
O21	O	0.139468	1.175779	-0.085563
O22	O	0.389468	1.425779	0.164437
O23	O	0.639468	1.675779	0.414437
O24	O	0.889468	1.925779	0.664437
O25	O	0.126453	1.506190	-0.085565
O26	O	0.376453	1.756190	0.164435
O27	O	0.626453	2.006190	0.414435
O28	O	0.876453	2.256190	0.664435
Cu29	Cu	0.132959	1.340984	-0.101190
Cu30	Cu	0.382959	1.590984	0.148810
Cu31	Cu	0.632959	1.840984	0.398810
Cu32	Cu	0.882959	2.090984	0.648810
Cu33	Cu	0.132970	1.340988	0.101195
Cu34	Cu	0.382970	1.590988	0.351195
Cu35	Cu	0.632970	1.840988	0.601195
Cu36	Cu	0.882970	2.090988	0.851195
O37	O	0.267166	1.332224	-0.085555
O38	O	0.517166	1.582224	0.164445
O39	O	0.767166	1.832224	0.414445
O40	O	1.017166	2.082224	0.664445
C41	C	0.138652	1.133494	0.000004
C42	C	0.388652	1.383494	0.250004
C43	C	0.638652	1.633494	0.500004
C44	C	0.888652	1.883494	0.750004
C45	C	0.136199	1.007495	0.000005
C46	C	0.386199	1.257495	0.250005
C47	C	0.636199	1.507495	0.500005
C48	C	0.886199	1.757495	0.750005
C49	C	0.134205	0.905169	0.000009
C50	C	0.384205	1.155169	0.250009
C51	C	0.634205	1.405169	0.500009
C52	C	0.884205	1.655169	0.750009
C53	C	0.131711	0.776796	0.000010
C54	C	0.381711	1.026796	0.250010
C55	C	0.631711	1.276796	0.500010
C56	C	0.881711	1.526796	0.750010
C57	C	-0.035604	1.348930	-0.000007
C58	C	0.214396	1.598930	0.249993
C59	C	0.464396	1.848930	0.499993
C60	C	0.714396	2.098930	0.749993
C61	C	-0.137994	1.346483	-0.000007
C62	C	0.112006	1.596483	0.249993
C63	C	0.362006	1.846483	0.499993
C64	C	0.612006	2.096483	0.749993
C65	C	-0.512923	1.337475	0.000019
C66	C	-0.262923	1.587475	0.250019
C67	C	-0.012923	1.837475	0.500019
C68	C	0.237077	2.087475	0.750019
C69	C	-0.408606	1.339976	0.000012
C70	C	-0.158606	1.589976	0.250012
C71	C	0.091394	1.839976	0.500012
C72	C	0.341394	2.089976	0.750012
C73	C	-0.325462	1.341979	0.000005
C74	C	-0.075462	1.591979	0.250005
C75	C	0.174538	1.841979	0.500005
C76	C	0.424538	2.091979	0.750005
C77	C	-0.221138	1.344481	-0.000001
C78	C	0.028862	1.594481	0.249999
C79	C	0.278862	1.844481	0.499999
C80	C	0.528862	2.094481	0.749999
C81	C	0.301534	1.333042	0.000014
C82	C	0.551534	1.583042	0.250014
C83	C	0.801534	1.833042	0.500014
C84	C	1.051534	2.083042	0.750014
C85	C	0.403924	1.335489	0.000022
C86	C	0.653924	1.585489	0.250022
C87	C	0.903924	1.835489	0.500022
C88	C	1.153924	2.085489	0.750022
C89	C	0.127277	1.548478	0.000003
C90	C	0.377277	1.798478	0.250003
C91	C	0.627277	2.048478	0.500003
C92	C	0.877277	2.298478	0.750003
C93	C	0.129731	1.674477	0.000010
C94	C	0.379731	1.924477	0.250010
C95	C	0.629731	2.174477	0.500010
C96	C	0.879731	2.424477	0.750010
N97	N	0.132971	1.340991	0.243543
N98	N	0.382971	1.590991	0.493543
N99	N	0.632971	1.840991	0.743543
N100	N	0.882971	2.090991	0.993543
N101	N	0.132951	1.340990	-0.243537
N102	N	0.382951	1.590990	0.006463
N103	N	0.632951	1.840990	0.256463
N104	N	0.882951	2.090990	0.506463
C105	C	0.132962	1.340985	0.663357
C106	C	0.382962	1.590985	0.913357
C107	C	0.632962	1.840985	1.163357
C108	C	0.882962	2.090985	1.413357
C109	C	0.132968	1.340983	0.546552
C110	C	0.382968	1.590983	0.796552
C111	C	0.632968	1.840983	1.046552
C112	C	0.882968	2.090983	1.296552
C113	C	0.132966	1.340987	0.453453
C114	C	0.382966	1.590987	0.703453
C115	C	0.632966	1.840987	0.953453
C116	C	0.882966	2.090987	1.203453
C117	C	0.132972	1.340987	0.336641
C118	C	0.382972	1.590987	0.586641
C119	C	0.632972	1.840987	0.836641
C120	C	0.882972	2.090987	1.086641
