data_functionalizedCrystal
_audit_creation_method	'MofGen! by Chris Wilmer'
_symmetry_space_group_name_H-M	'P1'
_symmetry_Int_Tables_number	1
_symmetry_cell_setting	triclinic
loop_
_symmetry_equiv_pos_as_xyz
  x,y,z
_cell_length_a	16.120484
_cell_length_b	21.395362
_cell_length_c	21.395364
_cell_angle_alpha	89.974112
_cell_angle_beta	87.117689
_cell_angle_gamma	87.057600
loop_
_atom_site_label
_atom_site_type_symbol
_atom_site_fract_x
_atom_site_fract_y
_atom_site_fract_z
Zn1	Zn	-0.331680	-0.945128	0.367216
Zn2	Zn	-0.471073	-0.939760	0.267746
Zn3	Zn	-0.331713	-0.840375	0.262418
Zn4	Zn	-0.471096	-0.835008	0.372452
O5	O	-0.401391	-0.890067	0.317458
O6	O	-0.350148	-1.032095	0.354059
O7	O	-0.452591	-0.926576	0.179362
O8	O	-0.215040	-0.858763	0.271899
O9	O	-0.452559	-1.028151	0.280980
O10	O	-0.215016	-0.935725	0.348893
O11	O	-0.350203	-0.853558	0.175447
O12	O	-0.350226	-0.751984	0.276976
O13	O	-0.452599	-0.849616	0.459435
O14	O	-0.452630	-0.748041	0.357817
O15	O	-0.350170	-0.930521	0.455588
O16	O	-0.587745	-0.921371	0.286057
O17	O	-0.587762	-0.844410	0.362984
C18	C	-0.401435	-0.727278	0.317387
C19	C	-0.401474	-0.657635	0.317372
C20	C	-0.618005	-0.881743	0.325680
C21	C	-0.710673	-0.878239	0.329219
C22	C	-0.401383	-0.890068	0.480881
C23	C	-0.401380	-0.890069	0.550522
C24	C	-0.880339	-0.871845	0.335692
C25	C	-0.921602	-0.908402	0.299234
C26	C	-1.016010	-0.904844	0.302836
C27	C	-0.785923	-0.875402	0.332091
C28	C	-0.183931	-0.898442	0.309217
C29	C	-0.091262	-0.902010	0.305706
C30	C	-0.401347	-1.053492	0.317530
C31	C	-0.401328	-1.123134	0.317560
C32	C	-0.454866	-0.622883	0.359409
C33	C	-0.454846	-0.557448	0.359436
C34	C	-0.401442	-0.526768	0.317416
C35	C	-0.348039	-0.561529	0.275376
C36	C	-0.348055	-0.626963	0.275354
C37	C	-0.394722	-0.423317	0.260755
C38	C	-0.394712	-0.357884	0.260776
C39	C	-0.401387	-0.324950	0.317483
C40	C	-0.408091	-0.357455	0.374172
C41	C	-0.408107	-0.422888	0.374150
C42	C	-0.401418	-0.455817	0.317435
C43	C	-0.454761	-0.219245	0.359553
C44	C	-0.454734	-0.153810	0.359581
C45	C	-0.347931	-0.157892	0.275515
C46	C	-0.347953	-0.223326	0.275492
C47	C	-0.401372	-0.253999	0.317510
C48	C	-0.348055	-0.932167	1.050317
C49	C	-0.348056	-0.932173	0.984881
C50	C	-0.401383	-0.890052	0.954161
C51	C	-0.454728	-0.847931	0.988882
C52	C	-0.454731	-0.847930	1.054316
C53	C	-0.407977	-0.833350	0.850717
C54	C	-0.407969	-0.833350	0.785283
C55	C	-0.401380	-0.890055	0.752340
C56	C	-0.394782	-0.946762	0.784837
C57	C	-0.394784	-0.946761	0.850271
C58	C	-0.401387	-0.890048	0.883208
C59	C	-0.348044	-0.932183	0.646675
C60	C	-0.348052	-0.932190	0.581238
C61	C	-0.454719	-0.847943	0.585240
C62	C	-0.454716	-0.847941	0.650675
C63	C	-0.401374	-0.890060	0.681388
C64	C	-0.401409	-0.890058	1.154671
C65	C	-0.401389	-0.890050	1.085029
H66	H	-0.886024	-0.942370	0.265317
H67	H	-0.389282	-0.450127	0.214574
H68	H	-0.304555	-0.536546	0.241164
N69	N	-0.509403	-0.521939	0.402366
N70	N	-0.562473	-0.483352	0.382273
H71	H	-0.601006	-0.458275	0.412590
N72	N	-0.293568	-0.975200	0.678064
N73	N	-0.240450	-0.955195	0.712555
H74	H	-0.201976	-0.985576	0.734725
H75	H	-0.304624	-0.966466	1.075319
N76	N	-0.414954	-0.456082	0.432057
N77	N	-0.420917	-0.426676	0.482687
H78	H	-0.425751	-0.450118	0.523585
N79	N	-0.509195	-0.804894	1.089777
N80	N	-0.479869	-0.766095	1.125157
H81	H	-0.518332	-0.735699	1.150203
H82	H	-0.304573	-0.655258	0.241123
N83	N	-0.924977	-0.829230	0.378227
N84	N	-0.973667	-0.787529	0.357943
H85	H	-1.005202	-0.757431	0.387980
H86	H	-0.498363	-0.647852	0.393625
N87	N	-0.509328	-0.250583	0.402466
N88	N	-0.586249	-0.240287	0.401138
H89	H	-0.624788	-0.262418	0.431445
H90	H	-0.413525	-0.330641	0.420348
N91	N	-0.293569	-0.975201	0.949423
N92	N	-0.245950	-1.012803	0.976854
H93	H	-0.207466	-1.043191	0.951813
N94	N	-0.509274	-0.118318	0.402532
N95	N	-0.556960	-0.145716	0.440044
H96	H	-0.595480	-0.120650	0.470380
H97	H	-0.304445	-0.132913	0.241304
H98	H	-0.304479	-0.251622	0.241258
N99	N	-0.387877	-0.324694	0.202867
N100	N	-0.381908	-0.354105	0.152240
H101	H	-0.377082	-0.330666	0.111339
N102	N	-0.388064	-1.004696	0.751205
N103	N	-0.382181	-1.055320	0.780227
H104	H	-0.377436	-1.096235	0.756473
N105	N	-0.388045	-1.004686	0.883456
N106	N	-0.382158	-1.055314	0.854042
H107	H	-0.377400	-1.096226	0.877479
N108	N	-0.293572	-0.975224	0.545788
N109	N	-0.245956	-1.012826	0.573222
H110	H	-0.207479	-1.043221	0.548184
H111	H	-0.498142	-0.813649	0.560228
N112	N	-0.509205	-0.804917	0.686128
N113	N	-0.556822	-0.767315	0.658694
H114	H	-0.595312	-0.736930	0.683732
N115	N	-0.414701	-0.775423	0.752101
N116	N	-0.420595	-0.724798	0.781520
H117	H	-0.425350	-0.683884	0.758087
H118	H	-0.413344	-0.787171	0.877534
N119	N	-0.509200	-0.804913	0.957495
N120	N	-0.509190	-0.804918	0.899072
H121	H	-0.547664	-0.774537	0.876904
