data_functionalizedCrystal
_audit_creation_method	'MofGen! by Chris Wilmer'
_symmetry_space_group_name_H-M	'P1'
_symmetry_Int_Tables_number	1
_symmetry_cell_setting	triclinic
loop_
_symmetry_equiv_pos_as_xyz
  x,y,z
_cell_length_a	17.699083
_cell_length_b	10.654550
_cell_length_c	16.176319
_cell_angle_alpha	89.994395
_cell_angle_beta	89.998611
_cell_angle_gamma	83.883959
loop_
_atom_site_label
_atom_site_type_symbol
_atom_site_fract_x
_atom_site_fract_y
_atom_site_fract_z
O1	O	1.005088	0.158809	-0.068628
O2	O	0.784841	0.179470	-0.068655
O3	O	0.900029	-0.013688	-0.068638
O4	O	0.889901	0.351967	-0.068646
O5	O	0.900013	-0.013701	0.068855
O6	O	0.784825	0.179458	0.068838
O7	O	1.005072	0.158797	0.068865
Cu8	Cu	0.894947	0.169126	0.081406
Cu9	Cu	0.894966	0.169141	-0.081196
O10	O	0.889885	0.351955	0.068848
C11	C	0.756632	0.178724	0.000088
C12	C	0.672599	0.176503	0.000078
C13	C	0.624699	0.289883	0.000076
C14	C	0.545743	0.287788	0.000086
C15	C	0.514688	0.172313	0.000093
C16	C	0.562594	0.058924	0.000098
C17	C	0.641549	0.061020	0.000093
C18	C	0.244177	0.050470	0.000118
C19	C	0.165216	0.048383	0.000121
C20	C	0.148371	0.277239	0.000112
C21	C	0.227326	0.279334	0.000107
C22	C	0.275225	0.165946	0.000116
C23	C	0.360839	0.168219	0.000106
C24	C	0.429076	0.170039	0.000097
C25	C	0.899277	-0.060479	0.000107
C26	C	0.897052	-0.199884	0.000104
C27	C	0.964873	-0.280557	0.000115
C28	C	0.962778	-0.411541	0.000109
C29	C	0.825036	-0.381166	0.000085
C30	C	0.827132	-0.250185	0.000085
C31	C	1.034794	-0.230256	0.000134
C32	C	1.102620	-0.310930	0.000146
C33	C	1.100525	-0.441914	0.000140
C34	C	1.030603	-0.492224	0.000122
C35	C	1.033282	0.159543	0.000120
C36	C	1.117314	0.161764	0.000125
C37	C	0.890637	0.398746	0.000100
C38	C	0.892861	0.538151	0.000098
N39	N	0.894940	0.169115	0.195771
N40	N	0.894980	0.169142	-0.195561
C41	C	0.945960	0.083619	0.239042
C42	C	0.945964	0.083618	0.325590
C43	C	0.894950	0.169120	0.368863
C44	C	0.843924	0.254619	0.325586
C45	C	0.843917	0.254614	0.239040
C46	C	0.843950	0.254643	0.674614
C47	C	0.843962	0.254644	0.761165
C48	C	0.945997	0.083647	0.761163
C49	C	0.945990	0.083642	0.674618
C50	C	0.894962	0.169136	0.631348
C51	C	0.894957	0.169135	0.537503
C52	C	0.894958	0.169128	0.462706
H53	H	0.537303	-0.035099	0.000115
H54	H	0.771906	-0.184498	0.000077
O55	O	1.170491	-0.261914	0.000049
C56	C	1.175841	-0.187068	-0.071167
H57	H	1.116363	-0.154256	-0.094915
H58	H	1.206460	-0.101391	-0.055144
H59	H	1.209027	-0.245031	-0.121027
O60	O	0.794423	0.337587	0.632460
C61	C	0.805365	0.319282	0.546793
H62	H	0.833117	0.219374	0.534971
H63	H	0.748122	0.333397	0.513907
H64	H	0.843702	0.390272	0.522227
H65	H	0.987508	0.014000	0.360821
H66	H	1.155752	-0.507596	0.000141
O67	O	1.028663	-0.619483	0.000001
C68	C	1.065731	-0.671553	-0.071217
H69	H	1.107156	-0.604934	-0.094948
H70	H	1.098182	-0.766652	-0.055203
H71	H	1.021829	-0.685177	-0.121086
O72	O	0.654772	0.402137	-0.000042
C73	C	0.630364	0.471231	-0.071262
H74	H	0.575433	0.437170	-0.094997
H75	H	0.619952	0.575841	-0.055248
H76	H	0.675967	0.456556	-0.121128
H77	H	0.987533	0.014023	0.639387
H78	H	0.802384	0.324232	0.360824
O79	O	0.687973	-0.049234	0.000054
C80	C	0.643635	-0.151607	0.000079
H81	H	0.584882	-0.119552	-0.025949
H82	H	0.672340	-0.231029	-0.039838
H83	H	0.637831	-0.187020	0.066043
O84	O	0.757184	-0.430243	0.000111
C85	C	0.769878	-0.563150	0.000094
H86	H	0.828777	-0.594091	0.026132
H87	H	0.725094	-0.603237	0.040007
H88	H	0.766027	-0.599595	-0.065869
O89	O	0.794434	0.337841	0.197040
C90	C	0.807372	0.462134	0.218188
H91	H	0.867970	0.462627	0.241971
H92	H	0.798990	0.525172	0.161266
H93	H	0.765620	0.499110	0.268425
O94	O	0.499104	0.397810	0.000110
C95	C	0.422757	0.371205	0.000096
H96	H	0.419212	0.272581	0.026141
H97	H	0.387369	0.443499	0.040003
H98	H	0.399953	0.376021	-0.065867
O99	O	0.257398	0.391589	-0.000012
C100	C	0.232989	0.460681	-0.071231
H101	H	0.178059	0.426618	-0.094967
H102	H	0.222577	0.565291	-0.055219
H103	H	0.278593	0.446007	-0.121097
O104	O	1.036930	-0.103042	0.000250
C105	C	1.075376	-0.067631	0.071482
H106	H	1.114375	-0.151989	0.095227
H107	H	1.110641	0.012533	0.055481
H108	H	1.032202	-0.034800	0.121336
H109	H	0.987505	0.014000	0.203815
O110	O	0.995527	0.000410	0.803108
C111	C	0.982561	-0.123879	0.781984
H112	H	0.953387	-0.123662	0.719149
H113	H	1.039125	-0.185845	0.779023
H114	H	0.944688	-0.162636	0.830698
H115	H	0.109361	0.369564	0.000109
H116	H	0.139935	-0.045657	0.000127
O117	O	0.290666	-0.059707	-0.000025
C118	C	0.276479	-0.129837	-0.071221
H119	H	0.249850	-0.063449	-0.120994
H120	H	0.332221	-0.180376	-0.095123
H121	H	0.235895	-0.202394	-0.055119
H122	H	0.802418	0.324272	0.796397
