data_functionalizedCrystal
_audit_creation_method	'MofGen! by Chris Wilmer'
_symmetry_space_group_name_H-M	'P1'
_symmetry_Int_Tables_number	1
_symmetry_cell_setting	triclinic
loop_
_symmetry_equiv_pos_as_xyz
  x,y,z
_cell_length_a	10.654550
_cell_length_b	10.654550
_cell_length_c	9.730223
_cell_angle_alpha	90.000043
_cell_angle_beta	89.995747
_cell_angle_gamma	95.515069
loop_
_atom_site_label
_atom_site_type_symbol
_atom_site_fract_x
_atom_site_fract_y
_atom_site_fract_z
O1	O	0.176399	-1.667839	-0.114187
O2	O	0.676399	-1.167839	0.385813
O3	O	0.193205	-1.302361	-0.114212
O4	O	0.693205	-0.802361	0.385788
O5	O	0.002062	-1.493503	-0.114190
O6	O	0.502062	-0.993503	0.385810
O7	O	0.367541	-1.476697	-0.114209
O8	O	0.867541	-0.976697	0.385791
O9	O	0.002057	-1.493490	0.114390
O10	O	0.502057	-0.993490	0.614390
O11	O	0.193199	-1.302348	0.114368
O12	O	0.693199	-0.802348	0.614368
O13	O	0.176393	-1.667827	0.114393
O14	O	0.676393	-1.167827	0.614393
Zn15	Zn	0.184796	-1.485085	0.150672
Zn16	Zn	0.684796	-0.985085	0.650672
Zn17	Zn	0.184802	-1.485102	-0.150492
Zn18	Zn	0.684802	-0.985102	0.349508
O19	O	0.367536	-1.476684	0.114371
O20	O	0.867536	-0.976684	0.614371
C21	C	-0.044738	-1.492263	0.000099
C22	C	0.455262	-0.992263	0.500099
C23	C	-0.184181	-1.488571	0.000096
C24	C	0.315819	-0.988571	0.500096
C25	C	0.191968	-1.255556	0.000075
C26	C	0.691968	-0.755556	0.500075
C27	C	0.188276	-1.116113	0.000065
C28	C	0.688276	-0.616113	0.500065
C29	C	0.177630	-1.714631	0.000103
C30	C	0.677630	-1.214631	0.500103
C31	C	0.181322	-1.854074	0.000104
C32	C	0.681322	-1.354074	0.500104
C33	C	-0.263667	-1.601112	0.000104
C34	C	0.236333	-1.101112	0.500104
C35	C	-0.394688	-1.597636	0.000087
C36	C	0.105312	-1.097636	0.500087
C37	C	-0.366725	-1.369066	0.000061
C38	C	0.133275	-0.869066	0.500061
C39	C	-0.235706	-1.372544	0.000068
C40	C	0.264294	-0.872544	0.500068
C41	C	0.414336	-1.477925	0.000079
C42	C	0.914336	-0.977925	0.500079
C43	C	0.553779	-1.481617	0.000072
C44	C	1.053779	-0.981617	0.500072
N45	N	0.184790	-1.485083	0.356209
N46	N	0.684790	-0.985083	0.856209
C47	C	0.300818	-1.036628	0.000064
C48	C	0.800818	-0.536628	0.500064
C49	C	0.297341	-0.905607	0.000088
C50	C	0.797341	-0.405607	0.500088
C51	C	0.068772	-0.933570	0.000109
C52	C	0.568772	-0.433570	0.500109
C53	C	0.072250	-1.064588	0.000095
C54	C	0.572250	-0.564588	0.500095
N55	N	0.184798	-1.485114	-0.356028
N56	N	0.684798	-0.985114	0.143972
C57	C	0.100188	-1.569750	0.428144
C58	C	0.600188	-1.069750	0.928144
C59	C	0.100189	-1.569763	0.572027
C60	C	0.600189	-1.069763	1.072027
C61	C	0.269404	-1.400438	0.572026
C62	C	0.769404	-0.900438	1.072026
C63	C	0.269396	-1.400420	0.428146
C64	C	0.769396	-0.900420	0.928146
H65	H	-0.221720	-1.695588	0.000124
H66	H	0.278280	-1.195588	0.500124
H67	H	-0.019401	-1.129309	0.000100
H68	H	0.480599	-0.629309	0.500100
H69	H	-0.459401	-1.689279	0.000090
H70	H	0.040599	-1.189279	0.500090
H71	H	0.338290	-1.331508	0.630612
H72	H	0.838290	-0.831508	1.130612
H73	H	0.031297	-1.638705	0.630593
H74	H	0.531297	-1.138705	1.130593
F75	F	-0.054705	-0.878722	0.000135
F76	F	0.445295	-0.378722	0.500135
H77	H	-0.408693	-1.274601	0.000041
H78	H	0.091307	-0.774601	0.500041
F79	F	0.359440	-1.310297	0.351581
F80	F	0.859440	-0.810297	0.851581
H81	H	0.031295	-1.638687	0.369576
H82	H	0.531295	-1.138687	0.869576
H83	H	-0.170985	-1.280893	0.000058
H84	H	0.329015	-0.780893	0.500058
F85	F	0.424303	-1.091460	0.000037
F86	F	0.924303	-0.591460	0.500037
H87	H	0.388984	-0.840894	0.000089
H88	H	0.888984	-0.340894	0.500089
