data_functionalizedCrystal
_audit_creation_method	'MofGen! by Chris Wilmer'
_symmetry_space_group_name_H-M	'P1'
_symmetry_Int_Tables_number	1
_symmetry_cell_setting	triclinic
loop_
_symmetry_equiv_pos_as_xyz
  x,y,z
_cell_length_a	25.639239
_cell_length_b	13.897449
_cell_length_c	13.897441
_cell_angle_alpha	90.023394
_cell_angle_beta	90.034305
_cell_angle_gamma	90.039513
loop_
_atom_site_label
_atom_site_type_symbol
_atom_site_fract_x
_atom_site_fract_y
_atom_site_fract_z
Zn1	Zn	-0.208123	1.474562	0.545425
Zn2	Zn	0.125211	1.807895	0.878758
Zn3	Zn	0.458544	2.141229	1.212091
Zn4	Zn	-0.295565	1.474397	0.384116
Zn5	Zn	0.037768	1.807730	0.717449
Zn6	Zn	0.371102	2.141063	1.050782
Zn7	Zn	-0.208147	1.313251	0.384136
Zn8	Zn	0.125187	1.646584	0.717469
Zn9	Zn	0.458520	1.979918	1.050802
Zn10	Zn	-0.295530	1.313174	0.545361
Zn11	Zn	0.037803	1.646507	0.878694
Zn12	Zn	0.371137	1.979840	1.212027
O13	O	-0.251841	1.393846	0.464759
O14	O	0.081492	1.727179	0.798093
O15	O	0.414826	2.060513	1.131426
O16	O	-0.219727	1.609522	0.524045
O17	O	0.113607	1.942855	0.857379
O18	O	0.446940	2.276188	1.190712
O19	O	-0.283994	1.452984	0.249137
O20	O	0.049340	1.786317	0.582470
O21	O	0.382673	2.119650	0.915803
O22	O	-0.134978	1.334751	0.405566
O23	O	0.198355	1.668084	0.738899
O24	O	0.531688	2.001417	1.072233
O25	O	-0.283970	1.609400	0.405532
O26	O	0.049363	1.942734	0.738865
O27	O	0.382696	2.276067	1.072199
O28	O	-0.134961	1.453265	0.524065
O29	O	0.198373	1.786599	0.857398
O30	O	0.531706	2.119932	1.190731
O31	O	-0.219768	1.334591	0.249151
O32	O	0.113566	1.667924	0.582485
O33	O	0.446899	2.001257	0.915818
O34	O	-0.219734	1.178259	0.405504
O35	O	0.113600	1.511593	0.738837
O36	O	0.446933	1.844926	1.072171
O37	O	-0.283910	1.334619	0.680351
O38	O	0.049423	1.667952	1.013684
O39	O	0.382756	2.001286	1.347018
O40	O	-0.283934	1.178202	0.523956
O41	O	0.049399	1.511536	0.857289
O42	O	0.382733	1.844869	1.190622
O43	O	-0.219693	1.453190	0.680398
O44	O	0.113641	1.786524	1.013731
O45	O	0.446974	2.119857	1.347065
O46	O	-0.368726	1.452909	0.405470
O47	O	-0.035392	1.786242	0.738803
O48	O	0.297941	2.119575	1.072137
O49	O	-0.368700	1.334459	0.523936
O50	O	-0.035367	1.667792	0.857270
O51	O	0.297967	2.001125	1.190603
C52	C	-0.251833	1.143232	0.464726
C53	C	0.081500	1.476565	0.798059
C54	C	0.414834	1.809898	1.131392
C55	C	-0.251842	1.036018	0.464734
C56	C	0.081491	1.369351	0.798067
C57	C	0.414824	1.702684	1.131401
C58	C	-0.251844	0.948948	0.464750
C59	C	0.081489	1.282281	0.798084
C60	C	0.414823	1.615615	1.131417
C61	C	-0.251848	0.839715	0.464780
C62	C	0.081486	1.173049	0.798113
C63	C	0.414819	1.506382	1.131446
C64	C	-0.387684	1.393684	0.464715
C65	C	-0.054350	1.727017	0.798048
C66	C	0.278983	2.060350	1.131382
C67	C	-0.445798	1.393703	0.464728
C68	C	-0.112464	1.727036	0.798062
C69	C	0.220869	2.060369	1.131395
C70	C	-0.806162	1.455684	0.403179
C71	C	-0.472828	1.789017	0.736512
C72	C	-0.139495	2.122350	1.069846
C73	C	-0.860766	1.455721	0.403192
C74	C	-0.527433	1.789054	0.736525
C75	C	-0.194099	2.122388	1.069859
O76	O	-0.889003	1.508251	0.350812
O77	O	-0.555670	1.841585	0.684145
O78	O	-0.222337	2.174918	1.017479
N79	N	-0.888080	1.394015	0.464823
N80	N	-0.554747	1.727349	0.798157
N81	N	-0.221413	2.060682	1.131490
C82	C	-0.860787	1.332275	0.526452
C83	C	-0.527454	1.665609	0.859786
C84	C	-0.194121	1.998942	1.193119
O85	O	-0.889034	1.279794	0.578876
O86	O	-0.555701	1.613127	0.912210
O87	O	-0.222367	1.946460	1.245543
C88	C	-0.806184	1.332243	0.526444
C89	C	-0.472851	1.665577	0.859777
C90	C	-0.139517	1.998910	1.193110
C91	C	-0.778873	1.393946	0.464801
C92	C	-0.445539	1.727280	0.798135
C93	C	-0.112206	2.060613	1.131468
C94	C	-0.778850	1.517382	0.341543
C95	C	-0.445517	1.850716	0.674876
C96	C	-0.112183	2.184049	1.008209
C97	C	-0.724250	1.517343	0.341529
C98	C	-0.390916	1.850677	0.674862
C99	C	-0.057583	2.184010	1.008195
C100	C	-0.696961	1.455606	0.403151
C101	C	-0.363627	1.788939	0.736485
C102	C	-0.030294	2.122273	1.069818
C103	C	-0.724272	1.393907	0.464788
C104	C	-0.390939	1.727241	0.798121
C105	C	-0.057605	2.060574	1.131454
C106	C	-0.778892	1.270509	0.588077
C107	C	-0.445559	1.603842	0.921410
C108	C	-0.112225	1.937176	1.254744
C109	C	-0.724285	1.270483	0.588063
C110	C	-0.390952	1.603816	0.921397
C111	C	-0.057618	1.937150	1.254730
C112	C	-0.696974	1.332186	0.526421
C113	C	-0.363640	1.665519	0.859755
C114	C	-0.030307	1.998852	1.193088
C115	C	-0.642382	1.332131	0.526396
C116	C	-0.309049	1.665464	0.859729
C117	C	0.024284	1.998798	1.193063
N118	N	-0.615068	1.393837	0.464765
N119	N	-0.281735	1.727170	0.798098
N120	N	0.051598	2.060503	1.131432
C121	C	-0.642357	1.455574	0.403142
C122	C	-0.309024	1.788907	0.736476
C123	C	0.024309	2.122241	1.069809
C124	C	-0.975458	1.332348	0.526467
C125	C	-0.642125	1.665681	0.859801
C126	C	-0.308791	1.999015	1.193134
C127	C	-1.030060	1.332374	0.526472
C128	C	-0.696727	1.665707	0.859805
C129	C	-0.363394	1.999041	1.193139
C130	C	-1.030035	1.455822	0.403212
C131	C	-0.696702	1.789155	0.736546
C132	C	-0.363368	2.122488	1.069879
C133	C	-0.975432	1.455790	0.403204
C134	C	-0.642098	1.789123	0.736537
C135	C	-0.308765	2.122456	1.069870
C136	C	-0.948144	1.394054	0.464836
C137	C	-0.614810	1.727387	0.798169
C138	C	-0.281477	2.060720	1.131503
C139	C	-0.527692	1.455487	0.403117
C140	C	-0.194359	1.788821	0.736451
C141	C	0.138974	2.122154	1.069784
C142	C	-0.473087	1.455440	0.403106
C143	C	-0.139753	1.788773	0.736439
C144	C	0.193580	2.122107	1.069773
C145	C	-0.473117	1.331997	0.526369
C146	C	-0.139783	1.665330	0.859702
C147	C	0.193550	1.998663	1.193035
C148	C	-0.527717	1.332040	0.526377
C149	C	-0.194384	1.665373	0.859710
C150	C	0.138949	1.998706	1.193043
C151	C	-0.555004	1.393793	0.464748
C152	C	-0.221670	1.727126	0.798081
C153	C	0.111663	2.060460	1.131414
O154	O	-0.614110	1.279630	0.578752
O155	O	-0.280777	1.612964	0.912085
O156	O	0.052556	1.946297	1.245419
O157	O	-0.614104	1.508056	0.350736
O158	O	-0.280770	1.841389	0.684070
O159	O	0.052563	2.174722	1.017403
C160	C	-0.115468	1.394035	0.464825
C161	C	0.217865	1.727368	0.798158
C162	C	0.551199	2.060702	1.131491
C163	C	-0.057354	1.394116	0.464853
C164	C	0.275979	1.727449	0.798186
C165	C	0.609313	2.060782	1.131519
C166	C	-0.251795	1.393914	0.716352
C167	C	0.081538	1.727248	1.049686
C168	C	0.414872	2.060581	1.383019
C169	C	-0.251775	1.393944	0.823566
C170	C	0.081558	1.727277	1.156900
C171	C	0.414891	2.060610	1.490233
C172	C	-0.251850	1.645439	0.464794
C173	C	0.081484	1.978772	0.798127
C174	C	0.414817	2.312105	1.131460
C175	C	-0.251853	1.752653	0.464808
C176	C	0.081480	2.085986	0.798142
C177	C	0.414813	2.419319	1.131475
C178	C	-0.251849	1.393833	0.214145
C179	C	0.081484	1.727167	0.547478
C180	C	0.414817	2.060500	0.880812
C181	C	-0.251722	1.393991	0.106931
C182	C	0.081611	1.727324	0.440265
C183	C	0.414945	2.060658	0.773598
C184	C	-0.251740	1.393970	1.019862
C185	C	0.081593	1.727303	1.353195
C186	C	0.414927	2.060636	1.686528
C187	C	-0.251761	1.393952	0.910629
C188	C	0.081572	1.727286	1.243962
C189	C	0.414906	2.060619	1.577296
H190	H	-0.450851	1.505686	0.352906
H191	H	-0.117518	1.839019	0.686240
H192	H	0.215815	2.172352	1.019573
C193	C	-0.522168	1.577495	0.281267
C194	C	-0.188834	1.910828	0.614601
C195	C	0.144499	2.244162	0.947934
C196	C	-0.557680	1.523359	0.335367
C197	C	-0.224347	1.856693	0.668701
C198	C	0.108987	2.190026	1.002034
H199	H	-0.540682	1.619387	0.239435
H200	H	-0.207348	1.952721	0.572769
H201	H	0.125985	2.286054	0.906102
H202	H	-0.500836	1.614353	0.323326
H203	H	-0.167502	1.947686	0.656659
H204	H	0.165831	2.281020	0.989993
H205	H	-0.500907	1.535456	0.244338
H206	H	-0.167574	1.868789	0.577672
H207	H	0.165759	2.202122	0.911005
H208	H	-0.578938	1.565399	0.372302
H209	H	-0.245605	1.898732	0.705636
H210	H	0.087729	2.232065	1.038969
H211	H	-0.579021	1.486499	0.293304
H212	H	-0.245688	1.819832	0.626637
H213	H	0.087646	2.153165	0.959970
C214	C	-0.456368	1.168630	0.573222
C215	C	-0.123034	1.501963	0.906555
C216	C	0.210299	1.835296	1.239889
C217	C	-0.443115	1.264143	0.594112
C218	C	-0.109782	1.597477	0.927445
C219	C	0.223551	1.930810	1.260779
H220	H	-0.437843	1.126747	0.615048
H221	H	-0.104510	1.460080	0.948381
H222	H	0.228824	1.793413	1.281714
H223	H	-0.492791	1.159821	0.582055
H224	H	-0.159458	1.493154	0.915388
H225	H	0.173875	1.826487	1.248721
H226	H	-0.447448	1.154542	0.508398
H227	H	-0.114114	1.487876	0.841731
H228	H	0.219219	1.821209	1.175065
H229	H	-0.452039	1.278233	0.658934
H230	H	-0.118706	1.611567	0.992268
H231	H	0.214628	1.944900	1.325601
H232	H	-0.406684	1.272957	0.585287
H233	H	-0.073351	1.606290	0.918621
H234	H	0.259983	1.939623	1.251954
C235	C	-0.729726	1.639380	0.219712
C236	C	-0.396393	1.972713	0.553046
C237	C	-0.063060	2.306047	0.886379
C238	C	-0.694234	1.585184	0.273783
C239	C	-0.360900	1.918518	0.607117
C240	C	-0.027567	2.251851	0.940450
H241	H	-0.711197	1.681271	0.177895
H242	H	-0.377864	2.014604	0.511228
H243	H	-0.044531	2.347938	0.844562
H244	H	-0.751057	1.597386	0.182778
H245	H	-0.417724	1.930719	0.516111
H246	H	-0.084390	2.264052	0.849444
H247	H	-0.750990	1.676251	0.261797
H248	H	-0.417657	2.009584	0.595131
H249	H	-0.084324	2.342918	0.928464
H250	H	-0.672972	1.548308	0.231699
H251	H	-0.339639	1.881641	0.565032
H252	H	-0.006305	2.214974	0.898365
H253	H	-0.672894	1.627184	0.310721
H254	H	-0.339561	1.960517	0.644054
H255	H	-0.006227	2.293850	0.977388
C256	C	-1.113732	1.510804	0.348633
C257	C	-0.780399	1.844137	0.681966
C258	C	-0.447065	2.177470	1.015300
C259	C	-1.060038	1.523772	0.335560
C260	C	-0.726705	1.857106	0.668894
C261	C	-0.393372	2.190439	1.002227
H262	H	-1.132254	1.552779	0.306896
H263	H	-0.798921	1.886112	0.640230
H264	H	-0.465588	2.219445	0.973563
H265	H	-1.122740	1.446042	0.334376
H266	H	-0.789407	1.779375	0.667710
H267	H	-0.456073	2.112708	1.001043
H268	H	-1.122616	1.524812	0.413491
H269	H	-0.789283	1.858145	0.746824
H270	H	-0.455949	2.191478	1.080158
H271	H	-1.051154	1.509757	0.270704
H272	H	-0.717820	1.843091	0.604037
H273	H	-0.384487	2.176424	0.937370
H274	H	-1.051027	1.588549	0.349810
H275	H	-0.717693	1.921883	0.683143
H276	H	-0.384360	2.255216	1.016477
C277	C	-0.840137	1.647261	0.328338
C278	C	-0.506803	1.980594	0.661671
C279	C	-0.173470	2.313927	0.995004
C280	C	-0.808819	1.585319	0.273834
C281	C	-0.475486	1.918652	0.607168
C282	C	-0.142152	2.251986	0.940501
H283	H	-0.858626	1.689225	0.286540
H284	H	-0.525293	2.022558	0.619873
H285	H	-0.191959	2.355891	0.953206
H286	H	-0.864238	1.610528	0.364995
H287	H	-0.530905	1.943861	0.698328
H288	H	-0.197572	2.277194	1.031661
H289	H	-0.818781	1.684050	0.370431
H290	H	-0.485448	2.017384	0.703765
H291	H	-0.152115	2.350717	1.037098
H292	H	-0.830174	1.548524	0.231745
H293	H	-0.496841	1.881857	0.565079
H294	H	-0.163508	2.215191	0.898412
H295	H	-0.784714	1.622056	0.237161
H296	H	-0.451381	1.955389	0.570494
H297	H	-0.118048	2.288723	0.903827
C298	C	-0.662951	1.140679	0.601349
C299	C	-0.329617	1.474013	0.934683
C300	C	0.003716	1.807346	1.268016
C301	C	-0.694291	1.202618	0.655813
C302	C	-0.360957	1.535951	0.989146
C303	C	-0.027624	1.869284	1.322479
H304	H	-0.644433	1.098787	0.643176
H305	H	-0.311100	1.432120	0.976509
H306	H	0.022234	1.765454	1.309843
H307	H	-0.684290	1.103822	0.559302
H308	H	-0.350956	1.437155	0.892636
H309	H	-0.017623	1.770489	1.225969
H310	H	-0.638869	1.177427	0.564645
H311	H	-0.305535	1.510760	0.897979
H312	H	0.027798	1.844093	1.231312
H313	H	-0.718376	1.165870	0.692512
H314	H	-0.385042	1.499204	1.025845
H315	H	-0.051709	1.832537	1.359178
H316	H	-0.672950	1.239479	0.697877
H317	H	-0.339617	1.572812	1.031210
H318	H	-0.006283	1.906145	1.364543
H319	H	-0.953198	1.506034	0.353010
H320	H	-0.619865	1.839367	0.686343
H321	H	-0.286531	2.172701	1.019677
H322	H	-0.549955	1.281799	0.576574
H323	H	-0.216622	1.615133	0.909907
H324	H	0.116711	1.948466	1.243240
H325	H	-1.052293	1.282120	0.576658
H326	H	-0.718959	1.615454	0.909991
H327	H	-0.385626	1.948787	1.243325
C328	C	-0.914018	1.318815	0.656208
C329	C	-0.580684	1.652148	0.989542
C330	C	-0.247351	1.985482	1.322875
C331	C	-0.945465	1.264471	0.594211
C332	C	-0.612132	1.597805	0.927544
C333	C	-0.278799	1.931138	1.260877
H334	H	-0.895507	1.276910	0.698033
H335	H	-0.562173	1.610244	1.031366
H336	H	-0.228840	1.943577	1.364700
H337	H	-0.889935	1.355545	0.619506
H338	H	-0.556601	1.688879	0.952840
H339	H	-0.223268	2.022212	1.286173
H340	H	-0.935287	1.360833	0.693143
H341	H	-0.601954	1.694167	1.026477
H342	H	-0.268621	2.027500	1.359810
H343	H	-0.924195	1.222457	0.557270
H344	H	-0.590862	1.555791	0.890603
H345	H	-0.257529	1.889124	1.223937
H346	H	-0.969551	1.227724	0.630916
H347	H	-0.636218	1.561058	0.964250
H348	H	-0.302885	1.894391	1.297583
C349	C	-0.773409	1.148509	0.709929
C350	C	-0.440075	1.481843	1.043262
C351	C	-0.106742	1.815176	1.376595
C352	C	-0.808903	1.202688	0.655844
C353	C	-0.475570	1.536022	0.989177
C354	C	-0.142236	1.869355	1.322511
H355	H	-0.791937	1.106643	0.751772
H356	H	-0.458604	1.439976	1.085106
H357	H	-0.125270	1.773310	1.418439
H358	H	-0.752152	1.111622	0.667861
H359	H	-0.418819	1.444955	1.001194
H360	H	-0.085485	1.778288	1.334528
H361	H	-0.752071	1.190523	0.746845
H362	H	-0.418738	1.523856	1.080178
H363	H	-0.085405	1.857190	1.413512
H364	H	-0.830238	1.160675	0.618922
H365	H	-0.496905	1.494008	0.952255
H366	H	-0.163571	1.827341	1.285589
H367	H	-0.830169	1.239579	0.697917
H368	H	-0.496836	1.572912	1.031250
H369	H	-0.163502	1.906245	1.364584
