data_functionalizedCrystal
_audit_creation_method	'MofGen! by Chris Wilmer'
_symmetry_space_group_name_H-M	'P1'
_symmetry_Int_Tables_number	1
_symmetry_cell_setting	triclinic
loop_
_symmetry_equiv_pos_as_xyz
  x,y,z
_cell_length_a	10.654541
_cell_length_b	19.188924
_cell_length_c	9.130307
_cell_angle_alpha	90.007334
_cell_angle_beta	90.002630
_cell_angle_gamma	83.812946
loop_
_atom_site_label
_atom_site_type_symbol
_atom_site_fract_x
_atom_site_fract_y
_atom_site_fract_z
O1	O	1.665764	0.098055	0.121762
O2	O	1.300086	0.107399	0.121776
O3	O	1.493482	0.001140	0.121751
O4	O	1.472368	0.204314	0.121786
O5	O	1.493468	0.001135	-0.121848
O6	O	1.300072	0.107395	-0.121823
O7	O	1.665749	0.098050	-0.121837
Cu8	Cu	1.482909	0.102722	-0.144073
Cu9	Cu	1.482926	0.102727	0.144011
O10	O	1.472353	0.204309	-0.121813
C11	C	1.253296	0.106711	-0.000022
C12	C	1.113896	0.104660	-0.000018
C13	C	1.083230	0.231721	0.000022
C14	C	1.002410	0.294285	0.000048
C15	C	0.871433	0.292353	0.000049
C16	C	0.821275	0.227850	0.000020
C17	C	0.902096	0.165286	-0.000006
C18	C	1.033074	0.167225	-0.000002
C19	C	0.932761	0.038226	-0.000057
C20	C	1.063738	0.040156	-0.000047
C21	C	0.882603	-0.026277	-0.000086
C22	C	0.963425	-0.088843	-0.000101
C23	C	1.094409	-0.086908	-0.000101
C24	C	1.144559	-0.022408	-0.000073
C25	C	1.492793	-0.024878	-0.000050
C26	C	1.490744	-0.102396	-0.000054
C27	C	1.489796	-0.138799	0.132733
C28	C	1.487854	-0.211634	0.132744
C29	C	1.486885	-0.248066	-0.000039
C30	C	1.487826	-0.211654	-0.132842
C31	C	1.489756	-0.138819	-0.132850
N32	N	1.555312	-0.367284	-0.098868
N33	N	1.553482	-0.436474	-0.098852
C34	C	1.481068	-0.467513	-0.000024
N35	N	1.410570	-0.426749	0.098809
N36	N	1.412406	-0.357553	0.098797
C37	C	1.484792	-0.327043	-0.000045
C38	C	1.478012	-0.582892	0.132783
C39	C	1.476062	-0.655728	0.132789
C40	C	1.476047	-0.655747	-0.132801
C41	C	1.477984	-0.582912	-0.132803
C42	C	1.478973	-0.546489	-0.000007
C43	C	1.712540	0.098738	-0.000036
C44	C	1.851940	0.100790	-0.000031
C45	C	1.473043	0.230327	-0.000009
C46	C	1.475091	0.307845	0.000005
N47	N	1.482906	0.102718	-0.346696
C48	C	1.331074	0.017233	-0.346765
C49	C	1.255172	-0.025511	-0.423466
C50	C	1.255190	-0.025512	-0.576800
C51	C	1.331116	0.017238	-0.653435
C52	C	1.407019	0.059982	-0.576734
C53	C	1.406995	0.059976	-0.423397
C54	C	1.558842	0.145470	-0.576665
C55	C	1.558832	0.145468	-0.423331
C56	C	1.634768	0.188220	-0.653300
C57	C	1.710679	0.230962	-0.576599
C58	C	1.710659	0.230960	-0.423256
C59	C	1.634735	0.188212	-0.346630
N60	N	1.482939	0.102726	0.346634
H61	H	0.805627	0.343298	0.000060
N62	N	1.181573	-0.154390	-0.000120
H63	H	1.272160	-0.143382	-0.000113
H64	H	1.165369	-0.182467	-0.090439
H65	H	0.775954	-0.027846	-0.000093
N66	N	1.224499	0.233801	0.000023
H67	H	1.262068	0.209318	0.090315
H68	H	1.243909	0.284169	-0.000008
N69	N	1.479036	-0.543648	-0.276027
H70	H	1.480407	-0.491980	-0.255884
H71	H	1.400866	-0.551097	-0.334014
N72	N	1.486847	-0.250914	0.275963
H73	H	1.408221	-0.275851	0.281895
H74	H	1.487815	-0.216751	0.360007
H75	H	0.714625	0.226283	0.000003
H76	H	1.251206	-0.020826	-0.000056
H77	H	1.193377	-0.060314	-0.639250
N78	N	1.331070	0.017222	-0.181385
H79	H	1.243009	0.032418	-0.144451
H80	H	1.390734	0.050778	-0.144544
H81	H	1.772486	0.265769	-0.639007
N82	N	1.056506	0.363854	0.000075
H83	H	1.151743	0.355588	0.000074
H84	H	1.026919	0.391255	0.090392
H85	H	1.772462	0.265771	-0.360815
H86	H	0.922575	-0.141356	-0.000124
N87	N	1.490858	-0.099514	0.275956
H88	H	1.489961	-0.133631	0.360078
H89	H	1.413826	-0.064010	0.281746
H90	H	1.475248	-0.685409	-0.240915
H91	H	1.487033	-0.241321	-0.240955
H92	H	1.478810	-0.553234	0.240914
N93	N	1.490781	-0.099551	-0.276075
H94	H	1.489870	-0.133679	-0.360194
H95	H	1.569417	-0.074620	-0.281863
H96	H	1.193352	-0.060316	-0.361053
N97	N	1.331324	0.016922	-0.818813
H98	H	1.243332	0.032017	-0.856085
H99	H	1.359891	-0.031961	-0.854992
H100	H	1.475284	-0.685365	0.240924
H101	H	1.634771	0.188220	-0.778152
H102	H	1.634715	0.188204	-0.221778
