data_functionalizedCrystal
_audit_creation_method	'MofGen! by Chris Wilmer'
_symmetry_space_group_name_H-M	'P1'
_symmetry_Int_Tables_number	1
_symmetry_cell_setting	triclinic
loop_
_symmetry_equiv_pos_as_xyz
  x,y,z
_cell_length_a	19.188905
_cell_length_b	19.188925
_cell_length_c	9.130313
_cell_angle_alpha	89.995839
_cell_angle_beta	89.989353
_cell_angle_gamma	83.138552
loop_
_atom_site_label
_atom_site_type_symbol
_atom_site_fract_x
_atom_site_fract_y
_atom_site_fract_z
O1	O	0.926153	0.087084	-0.122040
O2	O	0.722839	0.098837	-0.121989
O3	O	0.830365	-0.008696	-0.122008
O4	O	0.818627	0.194617	-0.122021
O5	O	0.830358	-0.008699	0.121591
O6	O	0.722832	0.098834	0.121610
O7	O	0.926146	0.087081	0.121559
Cu8	Cu	0.824488	0.092957	0.143827
Cu9	Cu	0.824497	0.092961	-0.144257
O10	O	0.818620	0.194614	0.121578
C11	C	0.829982	-0.034708	-0.000209
C12	C	0.828843	-0.112213	-0.000212
C13	C	0.696824	0.098458	-0.000183
C14	C	0.619319	0.097324	-0.000164
C15	C	0.884308	-0.673988	-0.000263
C16	C	0.885384	-0.601165	-0.000249
C17	C	0.822291	-0.556225	-0.000234
C18	C	0.758117	-0.584113	-0.000195
C19	C	0.757043	-0.656935	-0.000193
N20	N	0.776617	-0.435539	-0.083138
N21	N	0.777642	-0.366362	-0.083142
C22	C	0.825525	-0.336816	-0.000236
N23	N	0.872355	-0.379062	0.082657
N24	N	0.871332	-0.448246	0.082655
C25	C	0.823450	-0.477261	-0.000235
C26	C	0.890863	-0.229973	-0.000251
C27	C	0.891937	-0.157148	-0.000229
C28	C	0.764668	-0.140097	-0.000189
C29	C	0.763596	-0.212921	-0.000197
C30	C	0.826695	-0.257855	-0.000235
C31	C	0.582931	0.096781	-0.132954
C32	C	0.510107	0.095708	-0.132972
C33	C	0.473676	0.095164	-0.000193
C34	C	0.510072	0.095711	0.132614
C35	C	0.582894	0.096791	0.132629
N36	N	0.364654	0.053734	0.098624
N37	N	0.295477	0.052707	0.098602
C38	C	0.254270	0.091911	-0.000228
N39	N	0.284854	0.132174	-0.099057
N40	N	0.354038	0.133198	-0.099038
C41	C	0.394714	0.093993	-0.000194
C42	C	0.138918	0.090206	-0.133046
C43	C	0.066093	0.089137	-0.133059
C44	C	0.066060	0.089133	0.132531
C45	C	0.138883	0.090209	0.132540
C46	C	0.175308	0.090742	-0.000253
C47	C	0.952161	0.087461	-0.000250
C48	C	1.029666	0.088594	-0.000279
C49	C	0.819003	0.220627	-0.000224
C50	C	0.820142	0.298131	-0.000231
N51	N	0.824487	0.092954	0.346450
N52	N	0.824503	0.092958	-0.346880
C53	C	0.872116	0.045359	0.423093
C54	C	0.872122	0.045359	0.576430
C55	C	0.776870	0.140556	0.576466
C56	C	0.776861	0.140553	0.423132
H57	H	0.935689	-0.710569	-0.000285
H58	H	0.910895	0.006601	0.360662
F59	F	0.471298	0.095136	0.273927
H60	H	0.738072	0.179311	0.360724
H61	H	0.937637	-0.578460	-0.000275
H62	H	0.713296	-0.103508	-0.000164
F63	F	0.621693	0.097351	-0.274284
H64	H	0.910905	0.006601	0.638829
F65	F	0.690969	-0.536284	-0.000173
F66	F	0.471373	0.095130	-0.274310
F67	F	0.695301	-0.242595	-0.000175
H68	H	0.036398	0.088694	0.240642
H69	H	0.168511	0.090646	0.240672
H70	H	0.612520	0.097234	0.240765
F71	F	0.177686	0.090779	-0.274374
F72	F	0.027365	0.088565	-0.274400
H73	H	0.942242	-0.266560	-0.000281
F74	F	0.688746	-0.686608	-0.000161
F75	F	0.960234	-0.127477	-0.000266
F76	F	0.726186	0.191213	0.658087
