data_functionalizedCrystal
_audit_creation_method	'MofGen! by Chris Wilmer'
_symmetry_space_group_name_H-M	'P1'
_symmetry_Int_Tables_number	1
_symmetry_cell_setting	triclinic
loop_
_symmetry_equiv_pos_as_xyz
  x,y,z
_cell_length_a	27.731988
_cell_length_b	27.732064
_cell_length_c	13.930277
_cell_angle_alpha	89.999521
_cell_angle_beta	90.001665
_cell_angle_gamma	97.366104
loop_
_atom_site_label
_atom_site_type_symbol
_atom_site_fract_x
_atom_site_fract_y
_atom_site_fract_z
O1	O	-0.640951	0.057379	-0.079698
O2	O	-0.500154	0.066155	-0.079726
O3	O	-0.574922	-0.008630	-0.079715
O4	O	-0.566184	0.132164	-0.079709
O5	O	-0.574911	-0.008632	0.079947
O6	O	-0.500144	0.066153	0.079936
O7	O	-0.640941	0.057378	0.079964
Zn8	Zn	-0.570541	0.061765	0.105299
Zn9	Zn	-0.570555	0.061767	-0.105062
O10	O	-0.566174	0.132163	0.079952
C11	C	-0.482142	0.065974	0.000101
C12	C	-0.428485	0.065433	0.000090
C13	C	-0.574732	-0.026638	0.000113
C14	C	-0.574176	-0.080292	0.000104
C15	C	-0.095760	0.062023	0.087165
C16	C	0.105899	0.059965	0.087179
O17	O	0.131976	0.059677	0.161197
N18	N	0.131108	0.059710	0.000148
C19	C	0.105899	0.059967	-0.086893
O20	O	0.131968	0.059698	-0.160918
C21	C	-0.095759	0.062021	-0.086906
C22	C	-0.120965	0.062281	0.000130
C23	C	-0.120966	0.062282	0.174194
C24	C	-0.171378	0.062799	0.174190
C25	C	-0.196583	0.063057	0.087156
C26	C	-0.171377	0.062798	0.000126
C27	C	-0.120968	0.062274	-0.173946
C28	C	-0.171386	0.062786	-0.173942
C29	C	-0.196592	0.063046	-0.086905
C30	C	-0.246993	0.063573	-0.086913
N31	N	-0.272202	0.063827	0.000118
C32	C	-0.246997	0.063569	0.087152
C33	C	0.211773	0.058889	-0.086879
C34	C	0.262187	0.058376	-0.086876
C35	C	0.262183	0.058374	0.087196
C36	C	0.211768	0.058890	0.087192
C37	C	0.186563	0.059144	0.000152
C38	C	-0.352865	0.064656	0.087136
C39	C	-0.403280	0.065175	0.087124
C40	C	-0.403272	0.065175	-0.086948
C41	C	-0.352861	0.064658	-0.086936
C42	C	-0.327658	0.064397	0.000114
O43	O	-0.273102	0.063855	-0.160891
O44	O	-0.273076	0.063828	0.161166
C45	C	-0.045349	0.061506	0.087169
C46	C	-0.020143	0.061247	0.000140
C47	C	-0.045348	0.061504	-0.086895
C48	C	0.030272	0.060734	0.000143
C49	C	0.055477	0.060476	0.087177
C50	C	0.030268	0.060731	0.174208
C51	C	-0.020144	0.061248	0.174204
C52	C	-0.020139	0.061250	-0.173926
C53	C	0.030273	0.060733	-0.173914
C54	C	0.055478	0.060475	-0.086880
C55	C	-0.526207	-0.457354	0.000090
C56	C	-0.528253	-0.255695	0.000090
O57	O	-0.491031	-0.224434	0.000044
N58	N	-0.572589	-0.236577	0.000098
C59	C	-0.616416	-0.267877	0.000101
O60	O	-0.654173	-0.246989	0.000098
C61	C	-0.614369	-0.469536	0.000095
C62	C	-0.570031	-0.488651	0.000096
C63	C	-0.481872	-0.476470	0.000090
C64	C	-0.481361	-0.526882	0.000096
C65	C	-0.525185	-0.558178	0.000101
C66	C	-0.569520	-0.539063	0.000101
C67	C	-0.658196	-0.500835	0.000091
C68	C	-0.657680	-0.551253	0.000087
C69	C	-0.613342	-0.570368	0.000088
C70	C	-0.612833	-0.620771	0.000112
N71	N	-0.568497	-0.639889	0.000104
C72	C	-0.524673	-0.608593	0.000098
C73	C	-0.617488	-0.162003	0.000106
C74	C	-0.618000	-0.111588	0.000109
C75	C	-0.529837	-0.099409	0.000096
C76	C	-0.529325	-0.149825	0.000100
C77	C	-0.573152	-0.181121	0.000097
C78	C	-0.523603	-0.714462	0.000110
C79	C	-0.523096	-0.764879	0.000120
C80	C	-0.611259	-0.777054	0.000128
C81	C	-0.611766	-0.726641	0.000123
C82	C	-0.567934	-0.695346	0.000111
O83	O	-0.650035	-0.652060	0.000147
O84	O	-0.486922	-0.629491	0.000079
C85	C	-0.526718	-0.406942	0.000085
C86	C	-0.571053	-0.387827	0.000085
C87	C	-0.614877	-0.419123	0.000091
C88	C	-0.571565	-0.337412	0.000088
C89	C	-0.527741	-0.306116	0.000083
C90	C	-0.483406	-0.325234	0.000074
C91	C	-0.482895	-0.375646	0.000079
C92	C	-0.659213	-0.400005	0.000099
C93	C	-0.659720	-0.349593	0.000095
C94	C	-0.615896	-0.318296	0.000089
C95	C	0.341047	0.057563	0.000139
C96	C	0.287392	0.058118	0.000158
C97	C	-0.566364	0.150170	0.000122
C98	C	-0.566920	0.203824	0.000125
N99	N	-0.570535	0.061763	0.248865
N100	N	-0.570564	0.061765	-0.248628
C101	C	-0.537446	0.094869	0.701130
C102	C	-0.603676	0.028661	0.701109
C103	C	-0.603670	0.028660	0.600613
C104	C	-0.570553	0.061764	0.550371
C105	C	-0.537441	0.094870	0.600625
C106	C	-0.636785	-0.004442	0.550352
C107	C	-0.636781	-0.004444	0.449850
C108	C	-0.603660	0.028658	0.399606
C109	C	-0.570547	0.061764	0.449866
C110	C	-0.537429	0.094869	0.399624
C111	C	-0.504313	0.127973	0.449882
C112	C	-0.504320	0.127972	0.550381
C113	C	-0.603653	0.028659	0.299108
C114	C	-0.537423	0.094869	0.299119
H115	H	-0.423800	0.065388	0.158003
H116	H	-0.663751	-0.031392	0.591263
H117	H	-0.447723	-0.299743	0.000076
H118	H	-0.694900	-0.425483	0.000103
C119	C	-0.665704	-0.196423	0.000120
N120	N	-0.702021	-0.222346	0.000138
H121	H	0.050792	0.060526	-0.244796
C122	C	-0.199108	0.063067	-0.269696
N123	N	-0.219987	0.063281	-0.341818
H124	H	-0.332336	0.064455	-0.157808
H125	H	-0.510453	0.121825	0.258218
C126	C	-0.673205	-0.040863	0.394576
N127	N	-0.700639	-0.068296	0.352942
H128	H	-0.332350	0.064447	0.158021
H129	H	-0.477350	0.154929	0.408963
H130	H	0.191256	0.059096	-0.157762
H131	H	-0.630618	0.001708	0.258192
H132	H	-0.191896	0.063007	0.245064
C133	C	0.289909	0.058095	-0.182624
N134	N	0.310786	0.057879	-0.254744
H135	H	-0.100454	0.062062	-0.244821
C136	C	-0.640103	-0.007751	0.756379
N137	N	-0.667541	-0.035179	0.798012
H138	H	-0.100450	0.062071	0.245072
C139	C	-0.432585	-0.547901	0.000085
N140	N	-0.395844	-0.563730	0.000072
H141	H	-0.487911	-0.688987	0.000100
C142	C	-0.467893	0.164381	0.605672
N143	N	-0.440456	0.191804	0.647321
C144	C	-0.501017	0.131279	0.756413
N145	N	-0.473577	0.158703	0.798055
H146	H	-0.040656	0.061458	-0.244801
H147	H	0.282714	0.058165	0.158063
C148	C	0.184046	0.059171	0.182938
N149	N	0.163167	0.059380	0.255059
H150	H	-0.423803	0.065387	-0.157809
C151	C	-0.047864	0.061529	0.269952
N152	N	-0.068741	0.061739	0.342075
C153	C	-0.660540	-0.705614	0.000128
N154	N	-0.697278	-0.689780	0.000120
C155	C	0.058003	0.060446	0.269946
N156	N	0.078895	0.060228	0.342052
C157	C	-0.480550	-0.170846	0.000092
N158	N	-0.443810	-0.186677	0.000083
C159	C	-0.474318	-0.785902	0.000117
N160	N	-0.437580	-0.801735	0.000113
H161	H	-0.446184	-0.450993	0.000083
C162	C	-0.708499	-0.328573	0.000095
N163	N	-0.745239	-0.312743	0.000087
H164	H	-0.654104	-0.096030	0.000123
C165	C	-0.481630	-0.064974	0.000082
N166	N	-0.445323	-0.039035	0.000064
H167	H	-0.446790	-0.391204	0.000081
C168	C	-0.706973	-0.479821	0.000085
N169	N	-0.743714	-0.463994	0.000078
H170	H	-0.693370	-0.576732	0.000080
H171	H	-0.646939	-0.802544	0.000137
