data_functionalizedCrystal
_audit_creation_method	'MofGen! by Chris Wilmer'
_symmetry_space_group_name_H-M	'P1'
_symmetry_Int_Tables_number	1
_symmetry_cell_setting	triclinic
loop_
_symmetry_equiv_pos_as_xyz
  x,y,z
_cell_length_a	10.654545
_cell_length_b	14.853559
_cell_length_c	9.130313
_cell_angle_alpha	89.997672
_cell_angle_beta	89.996934
_cell_angle_gamma	84.057266
loop_
_atom_site_label
_atom_site_type_symbol
_atom_site_fract_x
_atom_site_fract_y
_atom_site_fract_z
O1	O	1.666522	0.126607	-0.121777
O2	O	1.300917	0.138675	-0.121782
O3	O	1.493491	0.001463	-0.121778
O4	O	1.473948	0.263819	-0.121781
O5	O	1.493478	0.001459	0.121821
O6	O	1.300904	0.138671	0.121816
O7	O	1.666509	0.126603	0.121822
Cu8	Cu	1.483705	0.132637	0.144062
Cu9	Cu	1.483721	0.132642	-0.144022
O10	O	1.473935	0.263815	0.121818
C11	C	1.254122	0.137788	0.000016
C12	C	1.114706	0.135140	0.000014
C13	C	1.049207	0.133891	0.132801
C14	C	0.918214	0.131387	0.132801
C15	C	0.918229	0.131385	-0.132784
C16	C	1.049221	0.133882	-0.132783
C17	C	1.492601	-0.032132	0.000019
C18	C	1.489953	-0.132231	0.000011
C19	C	1.478727	-0.555463	-0.132776
C20	C	1.478713	-0.555463	0.132805
C21	C	1.481211	-0.461416	0.132807
C22	C	1.482466	-0.414389	0.000015
C23	C	1.481222	-0.461408	-0.132778
C24	C	1.482442	-0.414389	0.265597
C25	C	1.484939	-0.320336	0.265604
C26	C	1.486203	-0.273308	0.132810
C27	C	1.484960	-0.320333	0.000012
C28	C	1.486215	-0.273306	-0.132780
C29	C	1.484981	-0.320330	-0.265580
C30	C	1.482486	-0.414380	-0.265572
C31	C	1.488699	-0.179258	0.132802
C32	C	1.488709	-0.179250	-0.132783
C33	C	1.713304	0.127490	0.000020
C34	C	1.852720	0.130139	0.000013
C35	C	1.474825	0.297411	0.000018
C36	C	1.477473	0.397509	0.000016
N37	N	1.483703	0.132633	0.346684
N38	N	1.483732	0.132638	-0.346645
C39	C	1.569004	0.071901	0.423338
C40	C	1.569016	0.071901	0.576675
C41	C	1.398423	0.193373	0.576691
C42	C	1.398406	0.193368	0.423357
H43	H	1.102521	0.134914	0.240932
C44	C	1.121274	0.135260	-0.278855
H45	H	1.063512	0.134167	-0.357944
H46	H	1.181869	0.083754	-0.284371
H47	H	1.162878	0.188722	-0.284371
H48	H	1.638456	0.022446	0.360915
C49	C	1.490051	-0.127531	0.278858
H50	H	1.491710	-0.064782	0.259840
H51	H	1.562809	-0.149366	0.333432
H52	H	1.416448	-0.136521	0.333406
H53	H	1.328938	0.242823	0.360941
C54	C	1.490088	-0.127527	-0.278857
H55	H	1.488988	-0.169003	-0.357939
H56	H	1.564233	-0.097253	-0.284377
H57	H	1.417872	-0.084421	-0.284381
H58	H	1.638473	0.022447	0.639082
C59	C	1.304615	0.260184	0.661035
H60	H	1.316850	0.251497	0.763334
H61	H	1.220785	0.249836	0.635930
H62	H	1.318359	0.320447	0.635887
C63	C	1.486360	-0.268598	-0.411646
H64	H	1.485261	-0.310067	-0.490737
H65	H	1.560504	-0.238322	-0.417157
H66	H	1.414142	-0.225493	-0.417161
C67	C	0.846189	0.130015	-0.278848
H68	H	0.758792	0.128359	-0.259834
H69	H	0.877149	0.077945	-0.333412
H70	H	0.858169	0.182913	-0.333404
H71	H	0.864890	0.130370	0.240929
H72	H	1.481480	-0.452675	-0.373690
H73	H	1.477728	-0.593755	-0.240898
H74	H	1.477683	-0.593757	0.240918
C75	C	1.481073	-0.466119	0.411653
H76	H	1.479430	-0.528868	0.392632
H77	H	1.408305	-0.444295	0.466224
H78	H	1.554667	-0.457123	0.466206
H79	H	1.485948	-0.282057	0.373738
