data_functionalizedCrystal
_audit_creation_method	'MofGen! by Chris Wilmer'
_symmetry_space_group_name_H-M	'P1'
_symmetry_Int_Tables_number	1
_symmetry_cell_setting	triclinic
loop_
_symmetry_equiv_pos_as_xyz
  x,y,z
_cell_length_a	14.908571
_cell_length_b	12.759400
_cell_length_c	12.759393
_cell_angle_alpha	90.031564
_cell_angle_beta	86.685322
_cell_angle_gamma	93.289010
loop_
_atom_site_label
_atom_site_type_symbol
_atom_site_fract_x
_atom_site_fract_y
_atom_site_fract_z
Zn1	Zn	1.379284	0.511027	-0.686595
Zn2	Zn	1.379193	0.686740	-0.510909
Zn3	Zn	1.228413	0.500928	-0.500804
Zn4	Zn	1.228403	0.676511	-0.676425
O5	O	1.303823	0.593801	-0.593683
O6	O	1.505518	0.542843	-0.671774
O7	O	1.359158	0.662146	-0.362545
O8	O	1.248468	0.355250	-0.525476
O9	O	1.505451	0.671938	-0.542699
O10	O	1.359312	0.362669	-0.661976
O11	O	1.248380	0.525631	-0.355121
O12	O	1.102165	0.515712	-0.515615
O13	O	1.248451	0.654504	-0.824798
O14	O	1.102158	0.644712	-0.644644
O15	O	1.359303	0.532924	-0.832269
O16	O	1.359148	0.832401	-0.532838
O17	O	1.248363	0.824886	-0.654442
C18	C	1.069427	0.578007	-0.577930
C19	C	0.969152	0.571275	-0.571216
C20	C	1.303769	0.866765	-0.593657
C21	C	1.303829	0.983546	-0.593687
C22	C	1.303886	0.593700	-0.867721
C23	C	1.303913	0.593656	-0.984499
C24	C	0.780764	0.693162	-0.692776
C25	C	0.686547	0.686840	-0.686471
C26	C	0.686497	0.552306	-0.552307
C27	C	0.780714	0.558627	-0.558612
C28	C	0.827845	0.629059	-0.628847
C29	C	0.922064	0.635385	-0.635146
C30	C	0.922013	0.500846	-0.500989
C31	C	0.827795	0.494525	-0.494684
C32	C	1.539134	0.609658	-0.609498
C33	C	1.639409	0.616415	-0.616237
C34	C	1.303901	0.319773	-0.593733
C35	C	1.303935	0.202999	-0.593755
C36	C	1.361579	1.042290	-0.530446
C37	C	1.361634	1.152018	-0.530483
C38	C	1.246182	1.144246	-0.657003
C39	C	1.246132	1.034521	-0.656971
C40	C	1.428231	1.046778	-0.457398
C41	C	1.428287	1.156506	-0.457434
C42	C	1.361641	0.530344	-1.043254
C43	C	1.361663	0.530307	-1.152979
C44	C	1.246225	0.656905	-1.145186
C45	C	1.246200	0.656935	-1.035462
C46	C	1.428291	0.457257	-1.047754
C47	C	1.428313	0.457220	-1.157480
C48	C	1.303812	0.593830	-0.320715
C49	C	1.303960	0.593590	-0.203949
H50	H	0.960437	0.692736	-0.692334
H51	H	0.819139	0.750515	-0.749959
H52	H	1.199189	0.708486	-0.987628
C53	C	0.634757	0.757357	-0.756789
C54	C	0.686603	0.834826	-0.834042
C55	C	0.634813	0.905345	-0.904365
C56	C	0.531177	0.898395	-0.897436
C57	C	0.479325	0.820924	-0.820180
C58	C	0.531115	0.750404	-0.749857
H59	H	0.763325	0.839973	-0.839175
H60	H	0.673198	0.962694	-0.961555
H61	H	0.492839	0.950598	-0.949493
H62	H	0.402603	0.815776	-0.815047
H63	H	0.492730	0.693055	-0.692667
H64	H	1.494644	0.490891	-1.018174
C65	C	1.403033	0.345646	-1.005849
C66	C	1.469345	0.288584	-0.940938
C67	C	1.444087	0.176978	-0.899032
C68	C	1.352515	0.122433	-0.922037
C69	C	1.286196	0.179495	-0.986952
C70	C	1.311455	0.291102	-1.028858
H71	H	1.537138	0.328961	-0.923905
H72	H	1.493181	0.134737	-0.850978
H73	H	1.333817	0.039815	-0.891016
H74	H	1.218404	0.139118	-1.003985
H75	H	1.262361	0.333343	-1.076912
C76	C	1.182750	0.726519	-1.201245
C77	C	1.080190	0.711041	-1.179265
C78	C	1.016715	0.780661	-1.235320
C79	C	1.055800	0.865760	-1.313355
C80	C	1.158365	0.881242	-1.335339
C81	C	1.221840	0.811621	-1.279284
H82	H	1.051252	0.648043	-1.121496
H83	H	0.940789	0.769200	-1.219046
H84	H	1.008812	0.917297	-1.354851
H85	H	1.187303	0.944240	-1.393108
H86	H	1.297766	0.823083	-1.295558
C87	C	1.182616	0.969897	-0.726545
C88	C	1.221649	0.896992	-0.811663
C89	C	1.158131	0.832366	-0.881240
C90	C	1.055581	0.840644	-0.865699
C91	C	1.016543	0.913552	-0.780576
C92	C	1.080060	0.978178	-0.710999
H93	H	1.297567	0.890862	-0.823172
H94	H	1.187030	0.778395	-0.944254
H95	H	1.008562	0.792804	-0.917204
H96	H	0.940625	0.919683	-0.769068
H97	H	1.051161	1.032149	-0.647986
C98	C	0.973797	0.430333	-0.430649
C99	C	0.960858	0.310036	-0.438535
C100	C	1.012639	0.239532	-0.368188
C101	C	1.077360	0.289324	-0.289956
C102	C	1.090302	0.409627	-0.282067
C103	C	1.038521	0.480131	-0.352414
H104	H	0.912945	0.273171	-0.496450
H105	H	1.003058	0.150475	-0.374028
H106	H	1.115692	0.237132	-0.237881
H107	H	1.138215	0.446491	-0.224152
H108	H	1.048102	0.569187	-0.346573
H109	H	0.648107	0.494957	-0.495131
H110	H	0.789409	0.437179	-0.437503
C111	C	1.394551	0.350508	-1.201218
C112	C	1.310965	0.343205	-1.266904
C113	C	1.277200	0.236497	-1.310641
C114	C	1.327022	0.137092	-1.288693
C115	C	1.410613	0.144392	-1.223003
C116	C	1.444378	0.251100	-1.179266
H117	H	1.274080	0.416794	-1.283155
H118	H	1.215320	0.231094	-1.359269
H119	H	1.302027	0.058101	-1.321070
H120	H	1.447499	0.070803	-1.206752
H121	H	1.506258	0.256502	-1.130638
H122	H	1.403222	1.011148	-0.378392
C123	C	1.522691	0.493039	-1.204068
C124	C	1.564157	0.602524	-1.177691
C125	C	1.658527	0.638351	-1.224283
C126	C	1.711431	0.564694	-1.297254
C127	C	1.669965	0.455202	-1.323635
C128	C	1.575595	0.419375	-1.277042
H129	H	1.524994	0.657055	-1.123670
H130	H	1.689222	0.719404	-1.204754
H131	H	1.781289	0.591215	-1.331745
H132	H	1.709128	0.400670	-1.377656
H133	H	1.544900	0.338322	-1.296572
C134	C	1.182716	1.200322	-0.726609
C135	C	1.182770	1.321015	-0.726652
C136	C	1.119302	1.377088	-0.796260
C137	C	1.055778	1.312467	-0.865825
C138	C	1.055721	1.191766	-0.865785
C139	C	1.119190	1.135694	-0.796177
H140	H	1.229796	1.368858	-0.675153
H141	H	1.119344	1.466439	-0.796289
H142	H	1.008795	1.353975	-0.917353
H143	H	1.008696	1.143924	-0.917284
H144	H	1.119147	1.046343	-0.796148
H145	H	1.498080	1.021621	-0.483939
C146	C	1.517957	1.208414	-0.502913
C147	C	1.519362	1.279740	-0.600382
C148	C	1.609028	1.331652	-0.645861
C149	C	1.697289	1.312239	-0.593871
C150	C	1.695887	1.240910	-0.496396
C151	C	1.606221	1.188997	-0.450917
H152	H	1.454023	1.294114	-0.638874
H153	H	1.610065	1.384455	-0.718019
H154	H	1.763665	1.350668	-0.627537
H155	H	1.761226	1.226536	-0.457905
H156	H	1.605184	1.136195	-0.378759
H157	H	1.409621	1.185112	-0.374800
