data_functionalizedCrystal
_audit_creation_method	'MofGen! by Chris Wilmer'
_symmetry_space_group_name_H-M	'P1'
_symmetry_Int_Tables_number	1
_symmetry_cell_setting	triclinic
loop_
_symmetry_equiv_pos_as_xyz
  x,y,z
_cell_length_a	10.723023
_cell_length_b	10.723024
_cell_length_c	7.681481
_cell_angle_alpha	84.204337
_cell_angle_beta	95.778398
_cell_angle_gamma	84.467709
loop_
_atom_site_label
_atom_site_type_symbol
_atom_site_fract_x
_atom_site_fract_y
_atom_site_fract_z
O1	O	1.645492	0.186736	-0.146420
O2	O	1.282339	0.203490	-0.146424
O3	O	1.472292	0.013536	-0.146415
O4	O	1.455538	0.376690	-0.146428
O5	O	1.495672	-0.009897	0.146444
O6	O	1.305719	0.180057	0.146435
O7	O	1.668871	0.163302	0.146439
Zn8	Zn	1.491007	0.167959	0.192935
Zn9	Zn	1.460203	0.198833	-0.192919
O10	O	1.478918	0.353256	0.146431
C11	C	1.247529	0.190554	0.000005
C12	C	1.108975	0.186907	0.000004
C13	C	0.916117	0.169373	0.151707
C14	C	1.059321	0.173142	0.151712
C15	C	1.482763	-0.044680	0.000012
C16	C	1.479115	-0.183234	0.000006
C17	C	1.585402	-0.258217	0.000005
C18	C	1.581634	-0.401420	-0.000002
C19	C	1.703681	0.176238	0.000006
C20	C	1.842234	0.179886	-0.000004
C21	C	1.468447	0.411473	-0.000001
C22	C	1.472094	0.550027	-0.000006
N23	N	1.512039	0.146887	0.456270
N24	N	1.439181	0.219895	-0.456255
H25	H	1.045491	0.195899	-0.129888
O26	O	0.898872	0.195489	-0.172053
H27	H	0.947208	0.282551	-0.179586
O28	O	1.709640	-0.202833	-0.000008
H29	H	1.773006	-0.243979	0.119347
O30	O	1.610569	0.048170	0.555871
H31	H	1.607840	0.050907	0.699508
O32	O	1.340661	0.318605	0.444138
H33	H	1.289767	0.369621	0.539069
O34	O	1.351558	-0.364636	-0.000000
H35	H	1.305955	-0.392436	0.119372
H36	H	0.873353	0.157588	0.281587
H37	H	1.385328	-0.225055	-0.000007
O38	O	1.702167	-0.486763	0.000001
H39	H	1.766829	-0.478075	0.119376
O40	O	1.143406	0.161234	0.323775
H41	H	1.242686	0.166075	0.296778
