data_functionalizedCrystal
_audit_creation_method	'MofGen! by Chris Wilmer'
_symmetry_space_group_name_H-M	'P1'
_symmetry_Int_Tables_number	1
_symmetry_cell_setting	triclinic
loop_
_symmetry_equiv_pos_as_xyz
  x,y,z
_cell_length_a	11.026607
_cell_length_b	9.616153
_cell_length_c	10.967829
_cell_angle_alpha	102.130112
_cell_angle_beta	96.380563
_cell_angle_gamma	90.006666
loop_
_atom_site_label
_atom_site_type_symbol
_atom_site_fract_x
_atom_site_fract_y
_atom_site_fract_z
O1	O	1.614539	0.241101	0.523507
O2	O	2.114539	0.741101	1.023507
O3	O	1.260735	0.226817	0.463895
O4	O	1.760735	0.726817	0.963895
O5	O	1.445793	0.190861	0.313884
O6	O	1.945793	0.690861	0.813884
O7	O	1.429480	0.277057	0.673517
O8	O	1.929480	0.777057	1.173517
O9	O	1.445768	-0.040431	0.313883
O10	O	1.945768	0.459569	0.813883
O11	O	1.260709	-0.004475	0.463893
O12	O	1.760709	0.495525	0.963893
O13	O	1.614513	0.009809	0.523505
O14	O	2.114513	0.509809	1.023505
Zn15	Zn	1.437607	-0.034055	0.493699
Zn16	Zn	1.937607	0.465945	0.993699
Zn17	Zn	1.437641	0.270681	0.493701
Zn18	Zn	1.937641	0.770681	0.993701
O19	O	1.429454	0.045765	0.673516
O20	O	1.929454	0.545765	1.173516
C21	C	1.215419	0.108536	0.452897
C22	C	1.715419	0.608536	0.952897
C23	C	1.080432	0.100680	0.420113
C24	C	1.580432	0.600680	0.920113
N25	N	1.437593	-0.242030	0.493699
N26	N	1.937593	0.257970	0.993699
C27	C	1.007382	0.122377	0.510634
C28	C	1.507382	0.622377	1.010634
C29	C	0.867865	0.114258	0.476753
C30	C	1.367865	0.614258	0.976753
C31	C	1.338297	-0.443263	0.573539
C32	C	1.838297	0.056737	1.073539
C33	C	1.338515	-0.281993	0.573965
C34	C	1.838515	0.218007	1.073965
C35	C	1.564692	-0.286822	0.550688
C36	C	2.064692	0.213178	1.050688
C37	C	1.564151	-0.447896	0.551289
C38	C	2.064151	0.052104	1.051289
C39	C	1.411056	-0.494750	0.356810
C40	C	1.911056	0.005250	0.856810
C41	C	1.408138	-0.333470	0.357032
C42	C	1.908138	0.166530	0.857032
C43	C	1.659828	0.128093	0.534504
C44	C	2.159828	0.628093	1.034504
C45	C	1.794816	0.135958	0.567287
C46	C	2.294816	0.635958	1.067287
C47	C	1.444592	0.064012	0.267127
C48	C	1.944592	0.564012	0.767127
C49	C	1.441035	0.030628	0.127805
C50	C	1.941035	0.530628	0.627805
N51	N	1.437664	0.478654	0.493694
N52	N	1.937664	0.978654	0.993694
C53	C	1.439462	0.135562	0.065697
C54	C	1.939462	0.635562	0.565697
C55	C	1.435786	0.101061	-0.078300
C56	C	1.935786	0.601061	0.421700
C57	C	1.430656	0.172618	0.720273
C58	C	1.930656	0.672618	1.220273
C59	C	1.434213	0.206010	0.859596
C60	C	1.934213	0.706010	1.359596
H61	H	1.048130	0.146955	0.613215
H62	H	1.548130	0.646955	1.113215
Br63	Br	1.436449	0.398333	-0.051373
Br64	Br	1.936449	0.898333	0.448627
H65	H	1.640459	-0.499908	0.496951
H66	H	2.140459	0.000092	0.996951
Br67	Br	1.438728	-0.161687	0.038758
Br68	Br	1.938728	0.338313	0.538758
Br69	Br	1.433479	-0.091262	-0.167342
Br70	Br	1.933479	0.408738	0.332658
H71	H	1.355172	-0.459701	0.673926
H72	H	1.855172	0.040299	1.173926
Br73	Br	1.441782	0.327878	0.154744
Br74	Br	1.941782	0.827878	0.654744
H75	H	1.039684	0.076129	0.317532
H76	H	1.539684	0.576129	0.817532
H77	H	1.314638	-0.305476	0.314446
H78	H	1.814638	0.194524	0.814446
Br79	Br	0.799968	0.073260	0.305764
Br80	Br	1.299968	0.573260	0.805764
H81	H	0.835557	0.160537	0.669876
H82	H	1.335557	0.660537	1.169876
Br83	Br	1.181087	-0.231347	0.510447
Br84	Br	1.681087	0.268653	1.010447
H85	H	1.355612	-0.219210	0.674951
H86	H	1.855612	0.280790	1.174951
Br87	Br	1.180386	-0.523072	0.510267
Br88	Br	1.680386	-0.023072	1.010267
H89	H	1.587431	-0.461349	0.651987
H90	H	2.087431	0.038651	1.151987
Br91	Br	1.690947	-0.245052	0.458326
Br92	Br	2.190947	0.254948	0.958326
H93	H	1.475720	-0.308613	0.292626
H94	H	1.975720	0.191387	0.792626
H95	H	1.588492	-0.222529	0.650418
H96	H	2.088492	0.277471	1.150418
Br97	Br	1.259827	-0.581657	0.277280
Br98	Br	1.759827	-0.081657	0.777280
H99	H	1.483507	-0.547189	0.297056
H100	H	1.983507	-0.047189	0.797056
