data_functionalizedCrystal
_audit_creation_method	'MofGen! by Chris Wilmer'
_symmetry_space_group_name_H-M	'P1'
_symmetry_Int_Tables_number	1
_symmetry_cell_setting	triclinic
loop_
_symmetry_equiv_pos_as_xyz
  x,y,z
_cell_length_a	16.992701
_cell_length_b	16.992695
_cell_length_c	8.140239
_cell_angle_alpha	90.003573
_cell_angle_beta	90.001604
_cell_angle_gamma	90.667696
loop_
_atom_site_label
_atom_site_type_symbol
_atom_site_fract_x
_atom_site_fract_y
_atom_site_fract_z
O1	O	1.050847	0.166905	0.136629
O2	O	1.550847	0.666905	0.636629
O3	O	0.822447	0.165076	0.136629
O4	O	1.322447	0.665076	0.636629
O5	O	0.935731	0.051791	0.136616
O6	O	1.435731	0.551791	0.636616
O7	O	0.937562	0.280191	0.136642
O8	O	1.437562	0.780191	0.636642
O9	O	0.935727	0.051790	-0.136611
O10	O	1.435727	0.551790	0.363389
O11	O	0.822443	0.165075	-0.136598
O12	O	1.322443	0.665075	0.363402
O13	O	1.050843	0.166904	-0.136598
O14	O	1.550843	0.666904	0.363402
Zn15	Zn	0.936642	0.165989	-0.179979
Zn16	Zn	1.436642	0.665989	0.320021
Zn17	Zn	0.936647	0.165991	0.180010
Zn18	Zn	1.436647	0.665991	0.680010
O19	O	0.937558	0.280190	-0.136585
O20	O	1.437558	0.780190	0.363415
C21	C	0.793085	0.162720	0.000016
C22	C	1.293085	0.662720	0.500016
C23	C	0.705600	0.155692	0.000016
C24	C	1.205600	0.655692	0.500016
C25	C	0.933373	0.022430	0.000003
C26	C	1.433373	0.522430	0.500003
C27	C	0.926345	-0.065055	0.000003
C28	C	1.426345	0.434945	0.500003
C29	C	0.213682	0.108471	0.000016
C30	C	0.713682	0.608471	0.500016
C31	C	0.295882	0.115080	0.000007
C32	C	0.795882	0.615080	0.500007
C33	C	0.332089	0.189508	0.000023
C34	C	0.832089	0.689508	0.500023
C35	C	0.286091	0.257331	0.000032
C36	C	0.786091	0.757331	0.500032
C37	C	0.203892	0.250720	0.000029
C38	C	0.703892	0.750720	0.500029
C39	C	0.577403	0.216905	0.000022
C40	C	1.077403	0.716905	0.500022
C41	C	0.659608	0.223510	0.000029
C42	C	1.159608	0.723510	0.500029
C43	C	0.669394	0.081258	0.000002
C44	C	1.169394	0.581258	0.500002
C45	C	0.587192	0.074655	0.000009
C46	C	1.087192	0.574655	0.500009
C47	C	0.541202	0.142477	0.000009
C48	C	1.041202	0.642477	0.500009
N49	N	0.416111	0.196266	0.000019
N50	N	0.916111	0.696266	0.500019
N51	N	0.457181	0.135719	0.000001
N52	N	0.957181	0.635719	0.500001
C53	C	0.994163	-0.111046	0.000001
C54	C	1.494163	0.388954	0.500001
C55	C	0.987554	-0.193247	0.000017
C56	C	1.487554	0.306753	0.500017
C57	C	0.913126	-0.229454	0.000023
C58	C	1.413126	0.270546	0.500023
C59	C	0.845303	-0.183457	0.000029
C60	C	1.345303	0.316543	0.500029
C61	C	0.851913	-0.101258	0.000026
C62	C	1.351913	0.398742	0.500026
C63	C	0.885732	-0.474768	0.000045
C64	C	1.385732	0.025232	0.500045
C65	C	0.879127	-0.556974	0.000044
C66	C	1.379127	-0.056974	0.500044
C67	C	1.021378	-0.566758	0.000035
C68	C	1.521378	-0.066758	0.500035
C69	C	1.027981	-0.484557	0.000021
C70	C	1.527981	0.015443	0.500021
C71	C	0.960158	-0.438566	0.000036
C72	C	1.460158	0.061434	0.500036
N73	N	0.906369	-0.313476	0.000033
N74	N	1.406369	0.186524	0.500033
N75	N	0.966916	-0.354546	0.000037
N76	N	1.466916	0.145454	0.500037
C77	C	1.080205	0.169260	0.000019
C78	C	1.580205	0.669260	0.500019
C79	C	1.167689	0.176288	0.000030
C80	C	1.667689	0.676288	0.500030
C81	C	0.939916	0.309550	0.000032
C82	C	1.439916	0.809550	0.500032
C83	C	0.946945	0.397035	0.000042
C84	C	1.446945	0.897035	0.500042
N85	N	0.936644	0.165988	-0.425661
N86	N	1.436644	0.665988	0.074339
N87	N	0.936651	0.165986	0.425692
N88	N	1.436651	0.665986	0.925692
H89	H	0.184208	0.047863	0.000014
H90	H	0.684208	0.547863	0.500014
F91	F	0.813547	-0.425832	0.000066
F92	F	1.313547	0.074168	0.500066
F93	F	0.799907	-0.595506	0.000042
F94	F	1.299907	-0.095506	0.500042
H95	H	0.706848	0.026041	-0.000000
H96	H	1.206848	0.526041	0.500000
F97	F	0.548665	-0.004562	0.000039
F98	F	1.048665	0.495438	0.500039
F99	F	0.698140	0.302730	0.000045
F100	F	1.198140	0.802730	0.500045
H101	H	0.539967	0.272131	0.000030
H102	H	1.039967	0.772131	0.500030
H103	H	0.315577	0.317932	0.000034
H104	H	0.815577	0.817932	0.500034
H105	H	0.784702	-0.212943	0.000044
H106	H	1.284702	0.287057	0.500044
F107	F	0.154944	0.322901	0.000034
F108	F	0.654944	0.822901	0.500034
H109	H	1.054770	-0.081572	-0.000013
H110	H	1.554770	0.418428	0.499987
F111	F	0.779731	-0.052310	0.000033
F112	F	1.279731	0.447690	0.500033
F113	F	0.344827	0.042899	-0.000016
F114	F	0.844827	0.542899	0.499984
F115	F	1.059735	-0.242191	0.000012
F116	F	1.559735	0.257809	0.500012
F117	F	1.107197	-0.446028	0.000057
F118	F	1.607197	0.053972	0.500057
H119	H	1.076596	-0.604212	0.000025
H120	H	1.576596	-0.104212	0.500025
