data_functionalizedCrystal
_audit_creation_method	'MofGen! by Chris Wilmer'
_symmetry_space_group_name_H-M	'P1'
_symmetry_Int_Tables_number	1
_symmetry_cell_setting	triclinic
loop_
_symmetry_equiv_pos_as_xyz
  x,y,z
_cell_length_a	18.215407
_cell_length_b	13.032781
_cell_length_c	13.032268
_cell_angle_alpha	103.289483
_cell_angle_beta	97.162109
_cell_angle_gamma	97.204541
loop_
_atom_site_label
_atom_site_type_symbol
_atom_site_fract_x
_atom_site_fract_y
_atom_site_fract_z
Zn1	Zn	1.021919	-0.499071	-0.654220
Zn2	Zn	1.021840	-0.654154	-0.499167
Zn3	Zn	0.916754	-0.476566	-0.476637
Zn4	Zn	0.880934	-0.676629	-0.676706
O5	O	0.960362	-0.576605	-0.576682
O6	O	1.124890	-0.519655	-0.633669
O7	O	1.022858	-0.611773	-0.347559
O8	O	0.945728	-0.330922	-0.481355
O9	O	1.124832	-0.633594	-0.519753
O10	O	1.022993	-0.347456	-0.611824
O11	O	0.945652	-0.481300	-0.331006
O12	O	0.809021	-0.503093	-0.503159
O13	O	0.884678	-0.671899	-0.822343
O14	O	0.782704	-0.650078	-0.650148
O15	O	0.988260	-0.541448	-0.805822
O16	O	0.988124	-0.805765	-0.541557
O17	O	0.884601	-0.822277	-0.671994
C18	C	0.769160	-0.576583	-0.576650
C19	C	0.687358	-0.576602	-0.576664
C20	C	0.485478	-0.653233	-0.653130
C21	C	0.408618	-0.653238	-0.653143
C22	C	0.435993	-0.499999	-0.500261
C23	C	0.512852	-0.499990	-0.500252
C24	C	0.537592	-0.576613	-0.576686
C25	C	0.383873	-0.576627	-0.576708
C26	C	0.300537	-0.576632	-0.576722
C27	C	0.620933	-0.576607	-0.576674
C28	C	0.932485	-0.852562	-0.611684
C29	C	0.920623	-0.970622	-0.626693
C30	C	0.954333	-1.137079	-0.584401
C31	C	0.966595	-1.015058	-0.568888
C32	C	1.152310	-0.576628	-0.576716
C33	C	1.234106	-0.576638	-0.576730
C34	C	0.932482	-0.611691	-0.853695
C35	C	0.920602	-0.626642	-0.971741
C36	C	0.988365	-0.299573	-0.541568
C37	C	1.000299	-0.181519	-0.526604
C38	C	0.966555	-0.568764	-1.016196
C39	C	0.954277	-0.584215	-1.138203
C40	C	0.988183	-0.541579	-0.300738
C41	C	1.000236	-0.526328	-0.182654
H42	H	0.415839	-0.437617	-0.438030
H43	H	0.905837	-0.645204	-1.190464
H44	H	0.555286	-0.437590	-0.438002
H45	H	0.905905	-1.189369	-0.645371
H46	H	0.872191	-1.022907	-0.687668
C47	C	1.065728	-1.110891	-0.444238
C48	C	1.049887	-1.024110	-0.351193
C49	C	1.115319	-0.953484	-0.268825
C50	C	1.196591	-0.969640	-0.279502
C51	C	1.212436	-1.056425	-0.372552
C52	C	1.147004	-1.127050	-0.454920
H53	H	0.989721	-1.012147	-0.343285
H54	H	1.103589	-0.889240	-0.199944
H55	H	1.245028	-0.917359	-0.218529
H56	H	1.272602	-1.068387	-0.380459
H57	H	1.158734	-1.191294	-0.523801
C58	C	1.031987	-0.486367	-0.945598
C59	C	1.016151	-0.393385	-0.858743
C60	C	1.081585	-0.310987	-0.788147
C61	C	1.162855	-0.321571	-0.804404
C62	C	1.178694	-0.414557	-0.891262
C63	C	1.113260	-0.496955	-0.961859
H64	H	0.955987	-0.385547	-0.846705
H65	H	1.069859	-0.242153	-0.723849
H66	H	1.211293	-0.260576	-0.752144
H67	H	1.238859	-0.422395	-0.903301
H68	H	1.124986	-0.565789	-1.026157
H69	H	0.366189	-0.715629	-0.715393
C70	C	1.065671	-0.443925	-1.112061
C71	C	1.146941	-0.454507	-1.128319
C72	C	1.212375	-0.372106	-1.057726
C73	C	1.196538	-0.279123	-0.970873
C74	C	1.115264	-0.268537	-0.954611
C75	C	1.049831	-0.350938	-1.025205
H76	H	1.158668	-0.523342	-1.192616
H77	H	1.272539	-0.379942	-1.069765
H78	H	1.244976	-0.218124	-0.918616
H79	H	1.103538	-0.199702	-0.890314
H80	H	0.989667	-0.343102	-1.013166
H81	H	1.015032	-0.962774	-0.507921
H82	H	0.872166	-0.687627	-1.024006
H83	H	0.505619	-0.715622	-0.715369
