data_functionalizedCrystal
_audit_creation_method	'MofGen! by Chris Wilmer'
_symmetry_space_group_name_H-M	'P1'
_symmetry_Int_Tables_number	1
_symmetry_cell_setting	triclinic
loop_
_symmetry_equiv_pos_as_xyz
  x,y,z
_cell_length_a	8.559649
_cell_length_b	14.519709
_cell_length_c	7.088929
_cell_angle_alpha	83.763835
_cell_angle_beta	95.324505
_cell_angle_gamma	76.729405
loop_
_atom_site_label
_atom_site_type_symbol
_atom_site_fract_x
_atom_site_fract_y
_atom_site_fract_z
O1	O	2.103667	-0.020641	-0.158979
O2	O	1.638599	0.026978	-0.158986
O3	O	1.883465	-0.131956	-0.158965
O4	O	1.858800	0.138293	-0.159000
O5	O	1.916189	-0.153239	0.159013
O6	O	1.671322	0.005695	0.158992
O7	O	2.136391	-0.041923	0.158999
Cu8	Cu	1.906845	-0.020057	0.188029
Cu9	Cu	1.868145	0.005112	-0.188016
O10	O	1.891524	0.117011	0.158978
C11	C	1.595441	0.019945	0.000002
C12	C	1.418091	0.030687	-0.000000
C13	C	1.898678	-0.176875	0.000024
C14	C	1.895234	-0.279009	0.000025
C15	C	1.882550	-0.652991	-0.000025
C16	C	1.886072	-0.548937	-0.000010
C17	C	1.888892	-0.466003	0.000002
C18	C	1.892414	-0.361942	0.000013
C19	C	2.179548	-0.034890	0.000007
C20	C	2.356897	-0.045631	-0.000003
C21	C	1.876311	0.161930	-0.000015
C22	C	1.879754	0.264065	-0.000029
N23	N	1.934076	-0.037761	0.452520
N24	N	1.840927	0.022808	-0.452507
H25	H	1.440193	-0.119194	0.000005
C26	C	1.628811	0.160728	0.567200
C27	C	1.710594	0.107544	0.437276
H28	H	1.548356	0.213045	0.499143
H29	H	1.579126	0.121270	0.645285
H30	H	1.703488	0.183953	0.645265
H31	H	1.635918	0.084313	0.359220
H32	H	1.760279	0.147009	0.359158
C33	C	1.351247	0.168332	0.163424
C34	C	1.305668	0.129994	-0.000032
H35	H	1.281838	0.229644	0.163393
H36	H	1.343127	0.127477	0.274289
H37	H	1.459682	0.173890	0.163425
H38	H	1.197236	0.124430	-0.000026
H39	H	1.313772	0.170860	-0.110926
C40	C	2.033409	-0.208144	0.514515
C41	C	2.064415	-0.122502	0.562746
H42	H	2.113879	-0.260457	0.582558
H43	H	1.930089	-0.212719	0.547260
H44	H	2.035260	-0.209343	0.381015
H45	H	2.062553	-0.121300	0.696244
H46	H	2.167762	-0.117926	0.530014
