data_functionalizedCrystal
_audit_creation_method	'MofGen! by Chris Wilmer'
_symmetry_space_group_name_H-M	'P1'
_symmetry_Int_Tables_number	1
_symmetry_cell_setting	triclinic
loop_
_symmetry_equiv_pos_as_xyz
  x,y,z
_cell_length_a	19.319731
_cell_length_b	19.318970
_cell_length_c	19.315557
_cell_angle_alpha	60.007379
_cell_angle_beta	60.014690
_cell_angle_gamma	59.991495
loop_
_atom_site_label
_atom_site_type_symbol
_atom_site_fract_x
_atom_site_fract_y
_atom_site_fract_z
O1	O	0.095954	-1.011347	0.845684
O2	O	0.036156	-0.787405	0.681392
O3	O	0.177960	-0.929104	0.681276
O4	O	-0.045850	-0.869648	0.845799
O5	O	0.225008	-0.882072	0.728208
O6	O	0.083204	-0.740373	0.728324
O7	O	0.143002	-0.964315	0.892616
Cu8	Cu	0.117399	-0.848050	0.814755
Cu9	Cu	0.061759	-0.903670	0.759252
O10	O	0.001198	-0.822616	0.892732
N11	N	0.156535	-0.808935	0.853797
N12	N	0.022631	-0.942793	0.720211
C13	C	0.182113	-0.653200	0.879374
C14	C	0.182221	-0.783395	1.009518
C15	C	0.312319	-0.783375	0.879314
C16	C	0.182127	-0.783371	0.879357
C17	C	0.214696	-0.750836	0.911890
C18	C	-0.132988	-0.968144	0.694232
C19	C	-0.002674	-0.968326	0.564242
C20	C	-0.002907	-1.098444	0.694459
C21	C	-0.002887	-0.968321	0.694542
C22	C	-0.035363	-1.000810	0.661869
N23	N	0.389025	-0.808944	0.853717
O24	O	0.660019	-0.816766	0.651282
O25	O	0.660312	-0.981573	0.874999
O26	O	0.660193	-0.981192	0.733108
O27	O	0.660138	-0.817147	0.793174
O28	O	0.519202	-0.934278	0.780210
O29	O	0.519321	-0.934658	0.922102
O30	O	0.519028	-0.769852	0.698384
Cu31	Cu	0.506300	-0.847971	0.814544
Cu32	Cu	0.673039	-0.903453	0.758840
O33	O	0.519147	-0.770232	0.840276
N34	N	0.790314	-0.942480	0.719658
N35	N	0.156514	-0.576494	0.853827
O36	O	-0.045823	-0.305328	0.845846
O37	O	0.177892	-0.305317	0.681053
O38	O	0.035967	-0.305340	0.681465
O39	O	0.096102	-0.305306	0.845434
O40	O	0.083020	-0.446347	0.728459
O41	O	0.224945	-0.446325	0.728047
O42	O	0.001230	-0.446335	0.892839
Cu43	Cu	0.117383	-0.459205	0.814734
Cu44	Cu	0.061738	-0.292448	0.759159
O45	O	0.143154	-0.446313	0.892428
N46	N	0.022597	-0.175159	0.720067
N47	N	0.156703	-0.808977	1.086224
O48	O	0.148753	-1.011298	1.357359
O49	O	-0.016009	-0.787491	1.357400
O50	O	-0.015627	-0.929387	1.357339
O51	O	0.148372	-0.869401	1.357420
O52	O	0.031342	-0.882367	1.216340
O53	O	0.030961	-0.740471	1.216400
O54	O	0.195723	-0.964278	1.216360
Cu55	Cu	0.117631	-0.848081	1.203506
Cu56	Cu	0.062083	-0.903688	1.370254
O57	O	0.195341	-0.822381	1.216420
N58	N	0.023010	-0.942801	1.487536
C59	C	0.054075	-0.735670	0.682223
C60	C	0.229681	-0.911148	0.682079
C61	C	0.125082	-1.016051	0.891784
C62	C	-0.050524	-0.840572	0.891928
C63	C	0.589851	-0.980810	0.926735
C64	C	0.589706	-0.980340	0.751019
C65	C	0.589484	-0.770613	0.646650
C66	C	0.589634	-0.771085	0.822364
C67	C	0.229543	-0.375646	0.681799
C68	C	0.053845	-0.375847	0.682366
C69	C	-0.050480	-0.375832	0.892036
C70	C	0.125277	-0.375807	0.891527
C71	C	-0.015214	-0.735785	1.286905
C72	C	-0.014732	-0.911497	1.286802
C73	C	0.194928	-1.015984	1.286855
C74	C	0.194457	-0.840261	1.286926
H75	H	0.293962	-0.923825	0.630414
O76	O	0.256671	-1.092668	1.286954
C77	C	0.349350	-1.217143	1.360021
C78	C	0.279444	-1.130307	1.360005
H79	H	0.367771	-1.247608	1.419085
H80	H	0.407204	-1.208283	1.301061
H81	H	0.324782	-1.259855	1.359951
H82	H	0.303933	-1.087551	1.360104
H83	H	0.221604	-1.139232	1.418960
O84	O	0.140442	-1.092854	0.953239
C85	C	0.241060	-1.232415	0.992254
C86	C	0.223772	-1.145482	0.922575
H87	H	0.308437	-1.274983	0.967494
H88	H	0.194137	-1.263022	1.010791
H89	H	0.233417	-1.223575	1.050091
H90	H	0.231426	-1.154248	0.864693
H91	H	0.270692	-1.114905	0.904110
H92	H	-0.066941	-0.671507	1.286916
H93	H	-0.066232	-0.924309	1.286721
O94	O	0.255846	-0.824805	1.286905
C95	C	0.294603	-0.724112	1.286998
C96	C	0.225011	-0.741497	1.287003
H97	H	0.269692	-0.656765	1.287095
H98	H	0.352456	-0.731640	1.227974
H99	H	0.313164	-0.771094	1.345990
H100	H	0.206378	-0.694530	1.228051
H101	H	0.167204	-0.733998	1.346066
H102	H	0.293660	-0.375252	0.629934
H103	H	0.041301	-0.671339	0.630625
H104	H	-0.114808	-0.827900	0.943589
O105	O	0.590098	-1.042560	1.003349
C106	C	0.663253	-1.132133	1.105414
C107	C	0.663088	-1.062215	1.018625
H108	H	0.722250	-1.148033	1.117800
H109	H	0.663345	-1.191251	1.105535
H110	H	0.604243	-1.108832	1.157190
H111	H	0.722088	-1.085436	0.966800
H112	H	0.662953	-1.003112	1.018576
O113	O	0.589693	-1.041717	0.735562
C114	C	0.589681	-1.080513	0.634825
C115	C	0.589678	-1.010923	0.652223
H116	H	0.589687	-1.055648	0.567441
H117	H	0.530708	-1.099079	0.681733
H118	H	0.648718	-1.138361	0.642409
H119	H	0.530681	-0.953030	0.644628
H120	H	0.648690	-0.992429	0.605318
H121	H	0.589389	-0.718870	0.582402
H122	H	0.040966	-0.375849	0.630853
H123	H	0.589622	-0.719555	0.835218
H124	H	-0.114728	-0.375837	0.943771
H125	H	0.138154	-0.375795	0.943037
