data_functionalizedCrystal
_audit_creation_method	'MofGen! by Chris Wilmer'
_symmetry_space_group_name_H-M	'P1'
_symmetry_Int_Tables_number	1
_symmetry_cell_setting	triclinic
loop_
_symmetry_equiv_pos_as_xyz
  x,y,z
_cell_length_a	15.995292
_cell_length_b	15.995350
_cell_length_c	14.586319
_cell_angle_alpha	89.997955
_cell_angle_beta	90.007026
_cell_angle_gamma	83.480495
loop_
_atom_site_label
_atom_site_type_symbol
_atom_site_fract_x
_atom_site_fract_y
_atom_site_fract_z
O1	O	1.111018	0.107689	0.076261
O2	O	1.361018	0.357689	0.326261
O3	O	1.611018	0.607689	0.576261
O4	O	1.861018	0.857689	0.826261
O5	O	0.867236	0.121067	0.076256
O6	O	1.117236	0.371067	0.326256
O7	O	1.367236	0.621067	0.576256
O8	O	1.617236	0.871067	0.826256
O9	O	0.995791	-0.007511	0.076258
O10	O	1.245791	0.242489	0.326258
O11	O	1.495791	0.492489	0.576258
O12	O	1.745791	0.742489	0.826258
O13	O	0.982463	0.236267	0.076259
O14	O	1.232463	0.486267	0.326259
O15	O	1.482463	0.736267	0.576259
O16	O	1.732463	0.986267	0.826259
O17	O	0.995775	-0.007503	-0.076223
O18	O	1.245775	0.242497	0.173777
O19	O	1.495775	0.492497	0.423777
O20	O	1.745775	0.742497	0.673777
O21	O	0.867221	0.121075	-0.076224
O22	O	1.117221	0.371075	0.173776
O23	O	1.367221	0.621075	0.423776
O24	O	1.617221	0.871075	0.673776
O25	O	1.111002	0.107697	-0.076220
O26	O	1.361002	0.357697	0.173780
O27	O	1.611002	0.607697	0.423780
O28	O	1.861002	0.857697	0.673780
Cu29	Cu	0.989110	0.114386	-0.090145
Cu30	Cu	1.239110	0.364386	0.159855
Cu31	Cu	1.489110	0.614386	0.409855
Cu32	Cu	1.739110	0.864386	0.659855
Cu33	Cu	0.989129	0.114377	0.090181
Cu34	Cu	1.239129	0.364377	0.340181
Cu35	Cu	1.489129	0.614377	0.590181
Cu36	Cu	1.739129	0.864377	0.840181
O37	O	0.982448	0.236275	-0.076222
O38	O	1.232448	0.486275	0.173778
O39	O	1.482448	0.736275	0.423778
O40	O	1.732448	0.986275	0.673778
C41	C	0.836033	0.120527	0.000016
C42	C	1.086033	0.370527	0.250016
C43	C	1.336033	0.620527	0.500016
C44	C	1.586033	0.870527	0.750016
C45	C	0.743080	0.118894	0.000014
C46	C	0.993080	0.368894	0.250014
C47	C	1.243080	0.618894	0.500014
C48	C	1.493080	0.868894	0.750014
C49	C	0.405341	0.112893	0.000024
C50	C	0.655341	0.362893	0.250024
C51	C	0.905341	0.612893	0.500024
C52	C	1.155341	0.862893	0.750024
C53	C	0.428654	0.205697	0.000365
C54	C	0.678654	0.455697	0.250365
C55	C	0.928654	0.705697	0.500365
C56	C	1.178654	0.955697	0.750365
C57	C	0.525329	0.207461	0.000018
C58	C	0.775329	0.457461	0.250018
C59	C	1.025329	0.707461	0.500018
C60	C	1.275329	0.957461	0.750018
C61	C	0.572897	0.115871	0.000020
C62	C	0.822897	0.365871	0.250020
C63	C	1.072897	0.615871	0.500020
C64	C	1.322897	0.865871	0.750020
C65	C	0.543787	0.069477	-0.087051
C66	C	0.793787	0.319477	0.162949
C67	C	1.043787	0.569477	0.412949
C68	C	1.293787	0.819477	0.662949
C69	C	0.446996	0.068360	-0.087120
C70	C	0.696996	0.318360	0.162880
C71	C	0.946996	0.568360	0.412880
C72	C	1.196996	0.818360	0.662880
C73	C	0.447158	0.066456	0.086279
C74	C	0.697158	0.316456	0.336279
C75	C	0.947158	0.566456	0.586279
C76	C	1.197158	0.816456	0.836279
C77	C	0.543651	0.069896	0.087426
C78	C	0.793651	0.319896	0.337426
C79	C	1.043651	0.569896	0.587426
C80	C	1.293651	0.819896	0.837426
C81	C	0.667593	0.117549	0.000014
C82	C	0.917593	0.367549	0.250014
C83	C	1.167593	0.617549	0.500014
C84	C	1.417593	0.867549	0.750014
C85	C	0.310646	0.111212	0.000024
C86	C	0.560646	0.361212	0.250024
C87	C	0.810646	0.611212	0.500024
C88	C	1.060646	0.861212	0.750024
C89	C	0.995232	-0.038702	0.000019
C90	C	1.245232	0.211298	0.250019
C91	C	1.495232	0.461298	0.500019
C92	C	1.745232	0.711298	0.750019
C93	C	0.993580	-0.131652	0.000024
C94	C	1.243580	0.118348	0.250024
C95	C	1.493580	0.368348	0.500024
C96	C	1.743580	0.618348	0.750024
C97	C	0.987648	-0.469398	0.000021
C98	C	1.237648	-0.219398	0.250021
C99	C	1.487648	0.030602	0.500021
C100	C	1.737648	0.280602	0.750021
C101	C	0.896094	-0.421945	0.000361
C102	C	1.146094	-0.171945	0.250361
C103	C	1.396094	0.078055	0.500361
C104	C	1.646094	0.328055	0.750361
C105	C	0.897746	-0.325255	0.000018
C106	C	1.147746	-0.075255	0.250018
C107	C	1.397746	0.174745	0.500018
C108	C	1.647746	0.424745	0.750018
C109	C	0.990591	-0.301838	0.000023
C110	C	1.240591	-0.051838	0.250023
C111	C	1.490591	0.198162	0.500023
C112	C	1.740591	0.448162	0.750023
C113	C	1.035740	-0.342921	-0.087048
C114	C	1.285740	-0.092921	0.162952
C115	C	1.535740	0.157079	0.412952
C116	C	1.785740	0.407079	0.662952
C117	C	1.033440	-0.439556	-0.087121
C118	C	1.283440	-0.189556	0.162879
C119	C	1.533440	0.060444	0.412879
C120	C	1.783440	0.310444	0.662879
C121	C	1.035349	-0.439923	0.086278
C122	C	1.285349	-0.189923	0.336278
C123	C	1.535349	0.060077	0.586278
C124	C	1.785349	0.310077	0.836278
C125	C	1.035327	-0.342978	0.087429
C126	C	1.285327	-0.092978	0.337429
C127	C	1.535327	0.157022	0.587429
C128	C	1.785327	0.407022	0.837429
C129	C	0.992259	-0.207141	0.000021
C130	C	1.242259	0.042859	0.250021
C131	C	1.492259	0.292859	0.500021
C132	C	1.742259	0.542859	0.750021
C133	C	0.985983	-0.564095	0.000017
C134	C	1.235983	-0.314095	0.250017
C135	C	1.485983	-0.064095	0.500017
C136	C	1.735983	0.185905	0.750017
C137	C	1.142206	0.108237	0.000023
C138	C	1.392206	0.358237	0.250023
C139	C	1.642206	0.608237	0.500023
C140	C	1.892206	0.858237	0.750023
C141	C	1.235159	0.109870	0.000030
C142	C	1.485159	0.359870	0.250030
C143	C	1.735159	0.609870	0.500030
C144	C	1.985159	0.859870	0.750030
C145	C	0.983006	0.267466	0.000019
C146	C	1.233006	0.517466	0.250019
C147	C	1.483006	0.767466	0.500019
C148	C	1.733006	1.017466	0.750019
C149	C	0.984658	0.360416	0.000020
C150	C	1.234658	0.610416	0.250020
C151	C	1.484658	0.860416	0.500020
C152	C	1.734658	1.110416	0.750020
N153	N	0.989103	0.114392	-0.216977
N154	N	1.239103	0.364392	0.033023
N155	N	1.489103	0.614392	0.283023
N156	N	1.739103	0.864392	0.533023
C157	C	1.039899	0.165182	-0.451982
C158	C	1.289899	0.415182	-0.201982
C159	C	1.539899	0.665182	0.048018
C160	C	1.789899	0.915182	0.298018
C161	C	1.039908	0.165176	-0.547963
C162	C	1.289908	0.415176	-0.297963
C163	C	1.539908	0.665176	-0.047963
C164	C	1.789908	0.915176	0.202037
C165	C	0.938345	0.063570	-0.547975
C166	C	1.188345	0.313570	-0.297975
C167	C	1.438345	0.563570	-0.047975
C168	C	1.688345	0.813570	0.202025
C169	C	0.938341	0.063572	-0.451996
C170	C	1.188341	0.313572	-0.201996
C171	C	1.438341	0.563572	0.048004
C172	C	1.688341	0.813572	0.298004
C173	C	0.989116	0.114382	-0.404002
C174	C	1.239116	0.364382	-0.154002
C175	C	1.489116	0.614382	0.095998
C176	C	1.739116	0.864382	0.345998
C177	C	0.989129	0.114375	-0.595962
C178	C	1.239129	0.364375	-0.345962
C179	C	1.489129	0.614375	-0.095962
C180	C	1.739129	0.864375	0.154038
C181	C	0.989138	0.114368	-0.700029
C182	C	1.239138	0.364368	-0.450029
C183	C	1.489138	0.614368	-0.200029
C184	C	1.739138	0.864368	0.049971
C185	C	0.989109	0.114388	-0.299928
C186	C	1.239109	0.364388	-0.049928
C187	C	1.489109	0.614388	0.200072
C188	C	1.739109	0.864388	0.450072
N189	N	0.989142	0.114365	0.217013
N190	N	1.239142	0.364365	0.467013
N191	N	1.489142	0.614365	0.717013
N192	N	1.739142	0.864365	0.967013
H193	H	0.563839	0.101701	-0.151851
H194	H	0.813839	0.351701	0.098149
H195	H	1.063839	0.601701	0.348149
H196	H	1.313839	0.851701	0.598149
O197	O	0.568251	0.114643	0.172751
O198	O	0.818251	0.364643	0.422751
O199	O	1.068251	0.614643	0.672751
O200	O	1.318251	0.864643	0.922751
H201	H	0.610740	0.070622	0.215185
H202	H	0.860740	0.320622	0.465185
H203	H	1.110740	0.570622	0.715185
H204	H	1.360740	0.820622	0.965185
O205	O	0.847820	-0.447876	-0.081887
O206	O	1.097820	-0.197876	0.168113
O207	O	1.347820	0.052124	0.418113
O208	O	1.597820	0.302124	0.668113
H209	H	0.827783	-0.391692	-0.124544
H210	H	1.077783	-0.141692	0.125456
H211	H	1.327783	0.108308	0.375456
H212	H	1.577783	0.358308	0.625456
H213	H	1.102852	-0.471698	0.086867
H214	H	1.352852	-0.221698	0.336867
H215	H	1.602852	0.028302	0.586867
H216	H	1.852852	0.278302	0.836867
O217	O	0.883577	0.008778	-0.400221
O218	O	1.133577	0.258778	-0.150221
O219	O	1.383577	0.508778	0.099779
O220	O	1.633577	0.758778	0.349779
H221	H	0.816650	0.026969	-0.418633
H222	H	1.066650	0.276969	-0.168633
H223	H	1.316650	0.526969	0.081367
H224	H	1.566650	0.776969	0.331367
H225	H	1.081244	0.206555	-0.412908
H226	H	1.331244	0.456555	-0.162908
H227	H	1.581244	0.706555	0.087092
H228	H	1.831244	0.956555	0.337092
O229	O	0.850419	-0.288329	-0.082814
O230	O	1.100419	-0.038329	0.167186
O231	O	1.350419	0.211671	0.417186
O232	O	1.600419	0.461671	0.667186
H233	H	0.784311	-0.303041	-0.079791
H234	H	1.034311	-0.053041	0.170209
H235	H	1.284311	0.196959	0.420209
H236	H	1.534311	0.446959	0.670209
H237	H	0.400664	0.241465	0.062809
H238	H	0.650664	0.491465	0.312809
H239	H	0.900664	0.741465	0.562809
H240	H	1.150664	0.991465	0.812809
O241	O	0.883571	0.008777	-0.599739
O242	O	1.133571	0.258777	-0.349739
O243	O	1.383571	0.508777	-0.099739
O244	O	1.633571	0.758777	0.150261
H245	H	0.892096	0.017317	-0.674541
H246	H	1.142096	0.267317	-0.424541
H247	H	1.392096	0.517317	-0.174541
H248	H	1.642096	0.767317	0.075459
O249	O	0.550550	0.255597	0.082684
O250	O	0.800550	0.505597	0.332684
O251	O	1.050550	0.755597	0.582684
O252	O	1.300550	1.005597	0.832684
H253	H	0.493646	0.277825	0.123269
H254	H	0.743646	0.527825	0.373269
H255	H	0.993646	0.777825	0.623269
H256	H	1.243646	1.027825	0.873269
H257	H	0.433165	-0.001854	0.086869
H258	H	0.683165	0.248146	0.336869
H259	H	0.933165	0.498146	0.586869
H260	H	1.183165	0.748146	0.836869
O261	O	0.390230	0.252825	-0.081891
O262	O	0.640230	0.502825	0.168109
O263	O	0.890230	0.752825	0.418109
O264	O	1.140230	1.002825	0.668109
H265	H	0.354602	0.210438	-0.123016
H266	H	0.604602	0.460438	0.126984
H267	H	0.854602	0.710438	0.376984
H268	H	1.104602	0.960438	0.626984
O269	O	0.587316	-0.018662	0.094388
O270	O	0.837316	0.231338	0.344388
O271	O	1.087316	0.481338	0.594388
O272	O	1.337316	0.731338	0.844388
H273	H	0.656346	-0.016675	0.098639
H274	H	0.906346	0.233325	0.348639
H275	H	1.156346	0.483325	0.598639
H276	H	1.406346	0.733325	0.848639
H277	H	1.103034	-0.327630	0.092690
H278	H	1.353034	-0.077630	0.342690
H279	H	1.603034	0.172370	0.592690
H280	H	1.853034	0.422370	0.842690
O281	O	0.549724	0.255783	-0.082868
O282	O	0.799724	0.505783	0.167132
O283	O	1.049724	0.755783	0.417132
O284	O	1.299724	1.005783	0.667132
H285	H	0.492436	0.277985	-0.122857
H286	H	0.742436	0.527985	0.127143
H287	H	0.992436	0.777985	0.377143
H288	H	1.242436	1.027985	0.627143
O289	O	0.411453	0.110937	-0.173329
O290	O	0.661453	0.360937	0.076671
O291	O	0.911453	0.610937	0.326671
O292	O	1.161453	0.860937	0.576671
H293	H	0.463421	0.132132	-0.214574
H294	H	0.713421	0.382132	0.035426
H295	H	0.963421	0.632132	0.285426
H296	H	1.213421	0.882132	0.535426
H297	H	1.100657	-0.471818	-0.091068
H298	H	1.350657	-0.221818	0.158932
H299	H	1.600657	0.028182	0.408932
H300	H	1.850657	0.278182	0.658932
O301	O	1.094682	0.219970	-0.599707
O302	O	1.344682	0.469970	-0.349707
O303	O	1.594682	0.719970	-0.099707
O304	O	1.844682	0.969970	0.150293
H305	H	1.139693	0.179842	-0.643414
H306	H	1.389693	0.429842	-0.393414
H307	H	1.639693	0.679842	-0.143414
H308	H	1.889693	0.929842	0.106586
O309	O	1.126089	-0.324220	-0.091348
O310	O	1.376089	-0.074220	0.158652
O311	O	1.626089	0.175780	0.408652
O312	O	1.876089	0.425780	0.658652
H313	H	1.160090	-0.349890	-0.029325
H314	H	1.410090	-0.099890	0.220675
H315	H	1.660090	0.150110	0.470675
H316	H	1.910090	0.400110	0.720675
O317	O	0.409738	0.104947	0.173706
O318	O	0.659738	0.354947	0.423706
O319	O	0.909738	0.604947	0.673706
O320	O	1.159738	0.854947	0.923706
H321	H	0.460033	0.129013	0.215203
H322	H	0.710033	0.379013	0.465203
H323	H	0.960033	0.629013	0.715203
H324	H	1.210033	0.879013	0.965203
H325	H	0.575654	0.002079	-0.090288
H326	H	0.825654	0.252079	0.159712
H327	H	1.075654	0.502079	0.409712
H328	H	1.325654	0.752079	0.659712
O329	O	0.427710	-0.021766	-0.092371
O330	O	0.677710	0.228234	0.157629
O331	O	0.927710	0.478234	0.407629
O332	O	1.177710	0.728234	0.657629
H333	H	0.487493	-0.064360	-0.094857
H334	H	0.737493	0.185640	0.155143
H335	H	0.987493	0.435640	0.405143
H336	H	1.237493	0.685640	0.655143
H337	H	0.859507	-0.440472	0.062802
H338	H	1.109507	-0.190472	0.312802
H339	H	1.359507	0.059528	0.562802
H340	H	1.609507	0.309528	0.812802
O341	O	0.850719	-0.287588	0.082680
O342	O	1.100719	-0.037588	0.332680
O343	O	1.350719	0.212412	0.582680
O344	O	1.600719	0.462412	0.832680
H345	H	0.826587	-0.338428	0.123261
H346	H	1.076587	-0.088428	0.373261
H347	H	1.326587	0.161572	0.623261
H348	H	1.576587	0.411572	0.873261
H349	H	1.000504	-0.457847	-0.152213
H350	H	1.250504	-0.207847	0.097787
H351	H	1.500504	0.042153	0.347787
H352	H	1.750504	0.292153	0.597787
O353	O	0.994195	-0.305319	-0.172890
O354	O	1.244195	-0.055319	0.077110
O355	O	1.494195	0.194681	0.327110
O356	O	1.744195	0.444681	0.577110
H357	H	0.941397	-0.257384	-0.153759
H358	H	1.191397	-0.007384	0.096241
H359	H	1.441397	0.242616	0.346241
H360	H	1.691397	0.492616	0.596241
H361	H	1.005422	-0.460460	0.152273
H362	H	1.255422	-0.210460	0.402273
H363	H	1.505422	0.039540	0.652273
H364	H	1.755422	0.289540	0.902273
H365	H	1.002318	-0.315725	0.151842
H366	H	1.252318	-0.065725	0.401842
H367	H	1.502318	0.184275	0.651842
H368	H	1.752318	0.434275	0.901842
