data_functionalizedCrystal
_audit_creation_method	'MofGen! by Chris Wilmer'
_symmetry_space_group_name_H-M	'P1'
_symmetry_Int_Tables_number	1
_symmetry_cell_setting	triclinic
loop_
_symmetry_equiv_pos_as_xyz
  x,y,z
_cell_length_a	16.992694
_cell_length_b	19.188930
_cell_length_c	15.455313
_cell_angle_alpha	92.650876
_cell_angle_beta	87.142206
_cell_angle_gamma	86.906503
loop_
_atom_site_label
_atom_site_type_symbol
_atom_site_fract_x
_atom_site_fract_y
_atom_site_fract_z
O1	O	1.043326	0.145160	-0.072038
O2	O	0.815047	0.143535	-0.072064
O3	O	0.935773	0.043078	-0.072033
O4	O	0.922600	0.245617	-0.072069
O5	O	0.928870	0.048798	0.072227
O6	O	0.808144	0.149255	0.072197
O7	O	1.036422	0.150879	0.072222
Cu8	Cu	0.921653	0.150589	0.085382
Cu9	Cu	0.929817	0.143825	-0.085223
O10	O	0.915696	0.251336	0.072192
C11	C	0.782390	0.144306	0.000064
C12	C	0.695368	0.138072	0.000055
C13	C	0.644922	0.198212	0.000045
C14	C	0.563155	0.192351	0.000058
C15	C	0.531836	0.126351	0.000075
C16	C	0.582288	0.066208	0.000087
C17	C	0.664053	0.072069	0.000080
C18	C	0.288320	0.102059	0.000102
C19	C	0.206548	0.096203	0.000106
C20	C	0.187420	0.222347	0.000079
C21	C	0.269188	0.228202	0.000067
C22	C	0.319633	0.168059	0.000084
N23	N	0.448257	0.120360	0.000085
N24	N	0.403210	0.174051	0.000079
C25	C	0.931895	0.019902	0.000099
C26	C	0.930614	-0.057677	0.000107
C27	C	1.001452	-0.098455	0.000119
C28	C	1.000250	-0.171350	0.000105
C29	C	0.928204	-0.203463	0.000096
C30	C	0.857356	-0.162676	0.000079
C31	C	0.858561	-0.089783	0.000085
N32	N	0.870784	-0.312744	0.049185
N33	N	0.869644	-0.381990	0.049181
C34	C	0.924569	-0.423085	0.000078
N35	N	0.980688	-0.392319	-0.049011
N36	N	0.981830	-0.323067	-0.049004
C37	C	0.926889	-0.282503	0.000090
C38	C	0.994108	-0.542904	0.000074
C39	C	0.992903	-0.615801	0.000054
C40	C	0.850007	-0.607124	0.000038
C41	C	0.851215	-0.534230	0.000048
C42	C	0.923267	-0.502124	0.000070
C43	C	1.069079	0.150109	0.000093
C44	C	1.156102	0.156342	0.000096
C45	C	0.919575	0.274513	0.000057
C46	C	0.920856	0.352092	0.000044
N47	N	0.915916	0.155346	0.205376
N48	N	0.935560	0.139063	-0.205217
C49	C	0.967222	0.112686	0.250783
C50	C	0.962891	0.116291	0.341590
C51	C	0.907257	0.162559	0.386988
C52	C	0.855945	0.205221	0.341574
C53	C	0.860273	0.201613	0.250769
C54	C	0.888576	0.178116	0.658564
C55	C	0.884253	0.181723	0.749376
C56	C	0.991199	0.092792	0.749385
C57	C	0.995525	0.089190	0.658578
C58	C	0.944211	0.131849	0.613173
N59	N	0.902830	0.166246	0.479807
N60	N	0.948634	0.128158	0.520355
H61	H	0.670415	0.251956	0.000031
O62	O	1.064167	-0.511826	0.000041
C63	C	1.205769	-0.528122	0.000091
C64	C	1.126484	-0.563406	0.000112
H65	H	1.256172	-0.569807	0.000167
H66	H	1.212842	-0.496619	-0.060293
H67	H	1.206980	-0.491808	0.060453
H68	H	1.125217	-0.599753	-0.060208
H69	H	1.119442	-0.594866	0.060536
O70	O	0.838699	0.219628	0.614600
C71	C	0.732138	0.308190	0.624182
C72	C	0.788591	0.261226	0.674084
H73	H	0.691601	0.341822	0.672253
H74	H	0.767843	0.343327	0.581675
H75	H	0.695141	0.274145	0.581664
H76	H	0.825601	0.295216	0.716650
H77	H	0.752840	0.226084	0.716537
O78	O	1.012712	0.074755	0.385597
C79	C	1.057742	-0.042929	0.413440
C80	C	1.001286	0.004029	0.363536
H81	H	1.048512	-0.100121	0.395636
H82	H	1.121361	-0.031053	0.395550
H83	H	1.045110	-0.032373	0.486136
H84	H	1.013847	-0.006501	0.290829
H85	H	0.937685	-0.007856	0.381498
O86	O	0.780008	-0.638282	-0.000126
C87	C	0.661064	-0.656083	-0.074855
C88	C	0.740326	-0.620766	-0.074784
H89	H	0.628952	-0.641923	-0.135201
H90	H	0.672324	-0.715195	-0.074916
H91	H	0.623212	-0.637238	-0.014458
H92	H	0.778219	-0.639555	-0.135171
H93	H	0.729009	-0.561659	-0.074678
O94	O	0.337398	0.043682	-0.000008
C95	C	0.444340	-0.025905	-0.074771
C96	C	0.388819	0.040244	-0.074742
H97	H	0.485917	-0.028713	-0.135196
H98	H	0.480275	-0.023937	-0.014443
H99	H	0.407885	-0.074067	-0.074722
H100	H	0.425213	0.088441	-0.074822
H101	H	0.352881	0.038215	-0.135065
H102	H	0.818493	0.236350	0.213800
H103	H	1.032976	0.058060	0.786362
H104	H	1.050591	-0.649002	0.000059
O105	O	1.071470	-0.067310	-0.000021
C106	C	1.197568	-0.055414	-0.074710
C107	C	1.118299	-0.090724	-0.074669
H108	H	1.235458	-0.074342	-0.135048
H109	H	1.186317	0.003693	-0.074765
H110	H	1.229637	-0.069491	-0.014305
H111	H	1.086190	-0.076703	-0.135064
H112	H	1.129604	-0.149823	-0.074570
O113	O	0.514265	0.250840	0.000009
C114	C	0.503919	0.376578	0.000031
C115	C	0.559377	0.310393	0.000063
H116	H	0.540369	0.424744	0.000093
H117	H	0.468052	0.374641	-0.060351
H118	H	0.462268	0.379344	0.060394
H119	H	0.601075	0.307585	-0.060260
H120	H	0.595188	0.312357	0.060485
O121	O	0.801794	0.250087	0.385635
C122	C	0.664021	0.284438	0.413391
C123	C	0.725263	0.233571	0.363456
H124	H	0.602133	0.271113	0.395464
H125	H	0.669674	0.279687	0.486102
H126	H	0.674929	0.340213	0.395529
H127	H	0.714394	0.177775	0.381245
H128	H	0.719595	0.238383	0.290757
O129	O	0.782448	-0.494534	0.000161
C130	C	0.697282	-0.404278	0.074919
C131	C	0.775196	-0.449176	0.074894
H132	H	0.691386	-0.367605	0.135343
H133	H	0.697152	-0.372270	0.014590
H134	H	0.645595	-0.439763	0.074868
H135	H	0.826926	-0.413743	0.074976
H136	H	0.775257	-0.481191	0.135218
O137	O	0.299642	0.292298	-0.000123
C138	C	0.384424	0.369137	-0.074913
C139	C	0.349986	0.296526	-0.074796
H140	H	0.425147	0.372574	-0.135270
H141	H	0.334345	0.411131	-0.074984
H142	H	0.419320	0.377445	-0.014528
H143	H	0.315099	0.288151	-0.135171
H144	H	0.400100	0.254570	-0.074680
H145	H	0.146339	0.271312	0.000067
O146	O	0.551965	0.002052	-0.000014
C147	C	0.546829	-0.110503	-0.074760
C148	C	0.581240	-0.037878	-0.074739
H149	H	0.570471	-0.142802	-0.135177
H150	H	0.564764	-0.138109	-0.014423
H151	H	0.479723	-0.104342	-0.074718
H152	H	0.648348	-0.043975	-0.074811
H153	H	0.563242	-0.010297	-0.135069
O154	O	1.069050	-0.211009	-0.000031
C155	C	1.154173	-0.301332	-0.074718
C156	C	1.076244	-0.256456	-0.074684
H157	H	1.160006	-0.338097	-0.135059
H158	H	1.205912	-0.265901	-0.074757
H159	H	1.154268	-0.333255	-0.014316
H160	H	1.076071	-0.224526	-0.135075
H161	H	1.024540	-0.291925	-0.074599
H162	H	0.181052	0.042455	0.000119
H163	H	0.798696	-0.188827	0.000070
O164	O	1.049590	0.044182	0.614615
C165	C	1.155238	-0.043617	0.624210
C166	C	1.094033	0.007310	0.674106
H167	H	1.191198	-0.073430	0.672286
H168	H	1.123580	-0.082129	0.581737
H169	H	1.196285	-0.012950	0.581659
H170	H	1.052969	-0.023298	0.716704
H171	H	1.125742	0.045823	0.716524
H172	H	0.705127	0.023097	0.000088
H173	H	0.838947	0.219403	0.786335
H174	H	1.012529	0.075013	0.213826
H175	H	0.800874	-0.056581	0.000075
