data_functionalizedCrystal
_audit_creation_method	'MofGen! by Chris Wilmer'
_symmetry_space_group_name_H-M	'P1'
_symmetry_Int_Tables_number	1
_symmetry_cell_setting	triclinic
loop_
_symmetry_equiv_pos_as_xyz
  x,y,z
_cell_length_a	16.176319
_cell_length_b	19.288864
_cell_length_c	19.288857
_cell_angle_alpha	83.134677
_cell_angle_beta	90.004272
_cell_angle_gamma	89.982449
loop_
_atom_site_label
_atom_site_type_symbol
_atom_site_fract_x
_atom_site_fract_y
_atom_site_fract_z
O1	O	0.069016	-0.921346	-0.086637
O2	O	0.569016	-0.421346	0.413363
O3	O	0.068959	-0.719085	-0.098325
O4	O	0.568959	-0.219085	0.401675
O5	O	0.068979	-0.826063	0.008650
O6	O	0.568979	-0.326063	0.508650
O7	O	0.068996	-0.814369	-0.193612
O8	O	0.568996	-0.314369	0.306388
O9	O	-0.068514	-0.826053	0.008630
O10	O	0.431486	-0.326053	0.508630
O11	O	-0.068534	-0.719075	-0.098345
O12	O	0.431466	-0.219075	0.401655
O13	O	-0.068478	-0.921336	-0.086656
O14	O	0.431522	-0.421336	0.413344
Cu15	Cu	-0.081060	-0.820205	-0.092502
Cu16	Cu	0.418940	-0.320205	0.407498
Cu17	Cu	0.081542	-0.820217	-0.092479
Cu18	Cu	0.581542	-0.320217	0.407521
O19	O	-0.068497	-0.814359	-0.193631
O20	O	0.431503	-0.314359	0.306369
C21	C	0.000206	-0.693204	-0.097959
C22	C	0.500206	-0.193204	0.402041
C23	C	0.000184	-0.616100	-0.096830
C24	C	0.500184	-0.116100	0.403170
N25	N	-0.195425	-0.820201	-0.092518
N26	N	0.304575	-0.320201	0.407482
C27	C	-0.760831	-0.778233	-0.050443
C28	C	-0.260831	-0.278233	0.449557
C29	C	-0.674284	-0.778232	-0.050448
C30	C	-0.174284	-0.278232	0.449552
C31	C	-0.631000	-0.820220	-0.092473
C32	C	-0.131000	-0.320220	0.407527
C33	C	-0.674269	-0.862217	-0.134490
C34	C	-0.174269	-0.362217	0.365510
C35	C	-0.760814	-0.862222	-0.134480
C36	C	-0.260814	-0.362222	0.365520
C37	C	-0.325240	-0.862200	-0.134529
C38	C	0.174760	-0.362200	0.365471
C39	C	-0.238689	-0.862190	-0.134537
C40	C	0.261311	-0.362190	0.365463
C41	C	-0.238710	-0.778210	-0.050497
C42	C	0.261290	-0.278210	0.449503
C43	C	-0.325256	-0.778215	-0.050488
C44	C	0.174744	-0.278215	0.449512
C45	C	-0.368516	-0.820215	-0.092501
C46	C	0.131484	-0.320215	0.407499
C47	C	-0.462360	-0.820217	-0.092494
C48	C	0.037640	-0.320217	0.407506
C49	C	-0.537158	-0.820215	-0.092485
C50	C	-0.037158	-0.320215	0.407515
N51	N	0.195907	-0.820226	-0.092458
N52	N	0.695907	-0.320226	0.407542
C53	C	0.000232	-0.825683	0.034517
C54	C	0.500232	-0.325683	0.534517
C55	C	0.000229	-0.824556	0.111620
C56	C	0.500229	-0.324556	0.611620
C57	C	0.000278	-0.947218	-0.087022
C58	C	0.500278	-0.447218	0.412978
C59	C	0.000305	-1.024321	-0.088151
C60	C	0.500305	-0.524321	0.411849
C61	C	0.000202	-0.571402	-0.159598
C62	C	0.500202	-0.071402	0.340402
C63	C	0.000211	-0.498955	-0.158537
C64	C	0.500211	0.001045	0.341463
C65	C	0.000219	-0.471209	-0.094705
C66	C	0.500219	0.028791	0.405295
C67	C	0.000196	-0.515917	-0.031929
C68	C	0.500196	-0.015917	0.468071
C69	C	0.000178	-0.588363	-0.032991
C70	C	0.500178	-0.088363	0.467009
C71	C	0.048412	-0.362952	-0.044519
C72	C	0.548412	0.137048	0.455481
C73	C	0.048435	-0.290508	-0.043459
C74	C	0.548435	0.209492	0.456541
C75	C	0.000268	-0.247764	-0.091425
C76	C	0.500268	0.252236	0.408575
C77	C	-0.047910	-0.277472	-0.140463
C78	C	0.452090	0.222528	0.359537
C79	C	-0.047927	-0.349917	-0.141526
C80	C	0.452073	0.150083	0.358474
C81	C	0.000237	-0.392656	-0.093546
C82	C	0.500237	0.107344	0.406454
C83	C	0.000295	-0.124510	-0.153048
C84	C	0.500295	0.375490	0.346952
C85	C	0.000299	-0.052062	-0.151984
C86	C	0.500299	0.447938	0.348016
C87	C	0.000292	-0.069026	-0.025374
C88	C	0.500292	0.430974	0.474626
C89	C	0.000280	-0.141472	-0.026439
C90	C	0.500280	0.358528	0.473561
C91	C	0.000285	-0.169210	-0.090278
C92	C	0.500285	0.330790	0.409722
C93	C	0.000252	-0.814739	-0.219498
C94	C	0.500252	-0.314739	0.280502
C95	C	0.000260	-0.815866	-0.296602
C96	C	0.500260	-0.315866	0.203398
C97	C	0.075177	-0.824035	0.147842
C98	C	0.575177	-0.324035	0.647842
C99	C	0.075182	-0.822967	0.220288
C100	C	0.575182	-0.322967	0.720288
C101	C	0.000236	-0.822432	0.256512
C102	C	0.500236	-0.322432	0.756512
C103	C	-0.074721	-0.822949	0.220281
C104	C	0.425279	-0.322949	0.720281
C105	C	-0.074725	-0.824010	0.147836
C106	C	0.425275	-0.324010	0.647836
C107	C	-0.057166	-0.861430	0.376735
C108	C	0.442834	-0.361430	0.876735
C109	C	-0.057159	-0.860372	0.449180
C110	C	0.442841	-0.360372	0.949180
C111	C	0.000245	-0.819155	0.479957
C112	C	0.500245	-0.319155	0.979957
C113	C	0.057656	-0.779003	0.438282
C114	C	0.557656	-0.279003	0.938282
C115	C	0.057652	-0.780065	0.365837
C116	C	0.557652	-0.280065	0.865837
C117	C	0.000232	-0.821281	0.335067
C118	C	0.500232	-0.321281	0.835067
C119	C	0.075204	-0.817474	0.594733
C120	C	0.575204	-0.317474	1.094733
C121	C	0.075207	-0.816401	0.667179
C122	C	0.575207	-0.316401	1.167179
C123	C	-0.074699	-0.816391	0.667172
C124	C	0.425301	-0.316391	1.167172
C125	C	-0.074699	-0.817457	0.594726
C126	C	0.425301	-0.317457	1.094726
C127	C	0.000254	-0.818002	0.558511
C128	C	0.500254	-0.318002	1.058511
H129	H	-0.796066	-0.744038	-0.016225
H130	H	-0.296066	-0.244038	0.483775
Cl131	Cl	-0.379664	-0.725425	0.002343
Cl132	Cl	0.120336	-0.225425	0.502343
H133	H	-0.203477	-0.744014	-0.016285
H134	H	0.296523	-0.244014	0.483715
Cl135	Cl	0.000318	0.004132	-0.230901
Cl136	Cl	0.500318	0.504132	0.269099
H137	H	0.104400	-0.745440	0.463340
H138	H	0.604400	-0.245440	0.963340
H139	H	-0.639064	-0.744040	-0.016233
H140	H	-0.139064	-0.244040	0.483767
H141	H	-0.796037	-0.896417	-0.168693
H142	H	-0.296037	-0.396417	0.331307
H143	H	-0.203450	-0.896384	-0.168761
H144	H	0.296550	-0.396384	0.331239
H145	H	-0.360453	-0.896398	-0.168740
H146	H	0.139547	-0.396398	0.331260
Cl147	Cl	0.000205	-0.606269	-0.239853
Cl148	Cl	0.500205	-0.106269	0.260147
Cl149	Cl	0.000294	-0.159384	-0.233300
Cl150	Cl	0.500294	0.340616	0.266700
Cl151	Cl	-0.619855	-0.915006	-0.187318
Cl152	Cl	-0.119855	-0.415006	0.312682
Cl153	Cl	0.169436	-0.815742	0.712715
Cl154	Cl	0.669436	-0.315742	1.212715
Cl155	Cl	-0.168918	-0.815715	0.712704
Cl156	Cl	0.331082	-0.315715	1.212704
Cl157	Cl	0.169429	-0.818154	0.549201
Cl158	Cl	0.669429	-0.318154	1.049201
Cl159	Cl	0.000232	-0.442753	-0.237452
Cl160	Cl	0.500232	0.057247	0.262548
H161	H	-0.087158	-0.374102	-0.181452
H162	H	0.412842	0.125898	0.318548
H163	H	-0.087132	-0.242671	-0.179522
H164	H	0.412868	0.257329	0.320478
H165	H	0.000349	-0.046436	0.026600
H166	H	0.500349	0.453564	0.526600
Cl167	Cl	-0.168925	-0.818110	0.549188
Cl168	Cl	0.331075	-0.318110	1.049188
H169	H	0.000270	-0.177867	0.024674
H170	H	0.500270	0.322133	0.524674
Cl171	Cl	-0.129329	-0.910850	0.501564
Cl172	Cl	0.370671	-0.410850	1.001564
H173	H	0.087667	-0.266326	-0.003532
H174	H	0.587667	0.233674	0.496468
Cl175	Cl	0.108970	-0.416681	0.015788
Cl176	Cl	0.608970	0.083319	0.515788
Cl177	Cl	0.000200	-0.481038	0.048318
Cl178	Cl	0.500200	0.018962	0.548318
H179	H	-0.103917	-0.894993	0.351682
H180	H	0.396083	-0.394993	0.851682
Cl181	Cl	0.000156	-0.644558	0.045924
Cl182	Cl	0.500156	-0.144558	0.545924
Cl183	Cl	-0.168952	-0.824664	0.102298
Cl184	Cl	0.331048	-0.324664	0.602298
Cl185	Cl	-0.168939	-0.822271	0.265818
Cl186	Cl	0.331061	-0.322271	0.765818
H187	H	0.136216	-0.822539	0.249784
H188	H	0.636216	-0.322539	0.749784
Cl189	Cl	0.169404	-0.824716	0.102317
Cl190	Cl	0.669404	-0.324716	0.602317
H191	H	0.104396	-0.747371	0.331908
H192	H	0.604396	-0.247371	0.831908
