data_functionalizedCrystal
_audit_creation_method	'MofGen! by Chris Wilmer'
_symmetry_space_group_name_H-M	'P1'
_symmetry_Int_Tables_number	1
_symmetry_cell_setting	triclinic
loop_
_symmetry_equiv_pos_as_xyz
  x,y,z
_cell_length_a	19.851628
_cell_length_b	12.970454
_cell_length_c	12.970454
_cell_angle_alpha	59.999776
_cell_angle_beta	90.003352
_cell_angle_gamma	59.998287
loop_
_atom_site_label
_atom_site_type_symbol
_atom_site_fract_x
_atom_site_fract_y
_atom_site_fract_z
Zr1	Zr	0.648978	1.128404	-0.135184
O2	O	0.541412	1.343513	-0.299829
O3	O	0.681953	0.913307	-0.084711
O4	O	0.681954	1.128397	-0.299802
O5	O	0.541410	1.128424	0.084928
O6	O	0.792815	1.128377	-0.299781
O7	O	0.541411	1.128423	-0.084738
O8	O	0.792814	0.743621	0.084977
O9	O	0.541412	1.513180	-0.299830
O10	O	0.778751	1.001760	-0.063170
O11	O	0.696015	1.001775	0.063434
O12	O	0.696017	1.255016	-0.189807
O13	O	0.613281	1.255031	-0.063202
Zr14	Zr	0.825788	1.128373	0.135447
Zr15	Zr	0.825790	1.128372	-0.135151
Zr16	Zr	0.648977	1.128405	0.135414
Zr17	Zr	0.648978	1.399003	-0.135186
Zr18	Zr	0.825788	0.857773	0.135449
O19	O	0.792814	1.343470	0.084974
O20	O	0.792815	1.343468	-0.299782
O21	O	0.541410	1.343515	0.084927
O22	O	0.933354	0.913264	0.300092
O23	O	0.933356	0.913262	-0.084664
O24	O	0.681951	0.913309	0.300045
O25	O	0.933356	1.128353	-0.084665
O26	O	0.792813	1.128380	0.300065
O27	O	0.681951	1.128400	0.300044
O28	O	0.933355	1.128354	0.085001
O29	O	0.681954	1.513155	-0.299804
O30	O	0.792813	0.743622	0.300067
O31	O	0.933354	0.743597	0.300093
O32	O	0.933355	0.743595	0.085003
O33	O	0.541411	1.513181	-0.084740
O34	O	0.681953	1.513156	-0.084714
O35	O	0.778750	1.001761	0.190070
O36	O	0.861485	1.001746	0.063465
O37	O	0.778751	1.255001	-0.063172
O38	O	0.696015	1.255017	0.063433
C39	C	0.737383	0.789909	0.000133
C40	C	0.737383	0.675032	0.000134
C41	C	0.516219	1.128428	0.000090
C42	C	0.441157	1.128442	0.000076
C43	C	0.214702	1.266495	-0.068929
C44	C	0.192341	1.197470	-0.118959
C45	C	0.303751	1.128404	0.000112
C46	C	0.192371	1.197438	0.050119
C47	C	0.171019	1.128378	0.000147
C48	C	0.282378	1.059378	-0.049987
C49	C	0.282406	1.059366	0.119158
C50	C	0.260098	0.990240	0.069157
C51	C	0.380213	1.128423	0.000090
C52	C	0.094561	1.128348	0.000167
C53	C	0.958548	1.128349	0.000173
C54	C	1.033609	1.128335	0.000187
C55	C	0.737385	1.128387	-0.338346
C56	C	0.737385	1.128386	-0.453222
C57	C	0.737383	1.466868	0.000130
C58	C	0.737383	1.581744	0.000129
C59	C	0.737382	1.128390	0.338609
C60	C	0.737381	1.128391	0.453485
C61	C	0.958548	0.789869	0.000174
C62	C	1.033609	0.674979	0.000189
C63	C	0.737382	0.789911	0.338611
C64	C	0.737381	0.675035	0.453487
C65	C	0.958546	0.789871	0.338652
C66	C	1.033607	0.674982	0.453543
C67	C	0.516220	1.466906	-0.338389
C68	C	0.441159	1.581795	-0.453280
C69	C	0.516219	1.466907	0.000089
C70	C	0.441157	1.581798	0.000074
C71	C	0.737385	1.466866	-0.338348
C72	C	0.737385	1.581742	-0.453225
C73	C	1.025672	0.621033	-0.065918
C74	C	1.096193	0.513096	-0.065930
C75	C	1.174650	0.459100	0.000174
C76	C	1.182586	0.513057	0.066283
C77	C	1.112065	0.620999	0.066286
C78	C	1.112051	0.621020	0.441410
C79	C	1.182585	0.513084	0.549352
C80	C	1.174673	0.459104	0.669425
C81	C	1.096221	0.513076	0.681555
C82	C	1.025689	0.621018	0.573614
C83	C	0.362716	1.635770	-0.441147
C84	C	0.292181	1.743739	-0.549089
C85	C	0.300093	1.797725	-0.669162
C86	C	0.378545	1.743746	-0.681292
C87	C	0.449077	1.635786	-0.573351
C88	C	0.449094	1.635755	0.066170
C89	C	0.378573	1.743722	0.066152
C90	C	0.300116	1.797721	0.000044
C91	C	0.292180	1.743759	-0.066060
C92	C	0.362701	1.635802	-0.066048
H93	H	0.153531	1.255832	-0.219621
H94	H	0.153570	1.255828	0.092397
C95	C	0.939401	0.680351	0.586973
C96	C	0.930709	0.620954	0.719055
C97	C	0.844424	0.680279	0.732425
C98	C	0.766830	0.799003	0.613711
C99	C	0.775519	0.858408	0.481619
C100	C	0.861805	0.799082	0.468250
H101	H	0.988152	0.533061	0.806942
H102	H	0.837992	0.636304	0.830209
H103	H	0.702955	0.842920	0.623608
H104	H	0.718077	0.946300	0.393732
H105	H	0.868237	0.843057	0.370466
H106	H	0.385050	1.787639	0.119986
C107	C	0.353999	1.576409	-0.309075
C108	C	0.267703	1.635813	-0.295757
C109	C	0.258978	1.576468	-0.163689
C110	C	0.336549	1.457719	-0.044940
C111	C	0.422851	1.398308	-0.058255
C112	C	0.431576	1.457653	-0.190323
H113	H	0.210275	1.723724	-0.383665
H114	H	0.195091	1.620449	-0.153833
H115	H	0.330090	1.413788	0.052824
H116	H	0.480279	1.310397	0.029654
H117	H	0.495463	1.413672	-0.200178
H118	H	1.089792	0.469110	0.779333
H119	H	0.196251	1.383258	-0.127399
H120	H	1.089716	0.469178	-0.119763
H121	H	0.242654	1.885633	-0.757044
H122	H	0.228309	1.787671	-0.539188
H123	H	0.512948	1.591840	-0.583245
C124	C	0.334643	0.980599	-0.107271
C125	C	0.415768	0.966113	-0.117926
C126	C	0.468031	0.887342	-0.175214
C127	C	0.439169	0.823058	-0.221847
C128	C	0.358039	0.837542	-0.211194
C129	C	0.305776	0.916313	-0.153906
H130	H	0.437137	1.013702	-0.083405
H131	H	0.528088	0.876620	-0.183101
H132	H	0.477857	0.764747	-0.264255
H133	H	0.336670	0.789953	-0.245715
H134	H	0.245719	0.927035	-0.146019
C135	C	1.268894	0.453638	0.139003
C136	C	1.294856	0.557476	0.104518
C137	C	1.381167	0.498043	0.177246
C138	C	1.441516	0.334772	0.284459
C139	C	1.415555	0.230925	0.318950
C140	C	1.329244	0.290358	0.246222
H141	H	1.250182	0.678347	0.025148
H142	H	1.400385	0.574918	0.151714
H143	H	1.505408	0.290777	0.338297
H144	H	1.460229	0.110054	0.398320
H145	H	1.310026	0.213483	0.271754
H146	H	0.242700	1.885627	0.000045
H147	H	1.232112	0.371211	0.757306
H148	H	0.384977	1.787715	-0.779068
H149	H	0.278704	0.873382	0.127544
H150	H	1.232066	0.371206	0.000162
H151	H	0.321213	1.001054	0.219797
H152	H	0.961794	0.664995	-0.119763
C153	C	1.120804	0.680315	0.139028
C154	C	1.207109	0.620899	0.211747
C155	C	1.215855	0.680205	0.284496
C156	C	1.138296	0.798929	0.284525
C157	C	1.051985	0.858352	0.211804
C158	C	1.043239	0.799045	0.139055
H159	H	1.264528	0.533007	0.211728
H160	H	1.279748	0.636216	0.338329
H161	H	1.144771	0.842831	0.338378
H162	H	0.994566	0.946244	0.211823
H163	H	0.979346	0.843034	0.085222
H164	H	1.118508	0.664955	0.343650
C165	C	0.535392	1.576379	0.138886
C166	C	0.544105	1.635765	0.211571
C167	C	0.630400	1.576405	0.284284
C168	C	0.707981	1.457659	0.284312
C169	C	0.699271	1.398267	0.211625
C170	C	0.612976	1.457627	0.138912
H171	H	0.486672	1.723674	0.211552
H172	H	0.636847	1.620372	0.338092
H173	H	0.771862	1.413718	0.338139
H174	H	0.756704	1.310358	0.211644
H175	H	0.606529	1.413660	0.085104
C176	C	1.268874	0.453723	0.535987
C177	C	1.294793	0.379513	0.466623
C178	C	1.381079	0.320156	0.453254
C179	C	1.441446	0.335009	0.509248
C180	C	1.415528	0.409222	0.578617
C181	C	1.329242	0.468579	0.591986
H182	H	1.250105	0.368515	0.425169
H183	H	1.400265	0.265219	0.401903
H184	H	1.505320	0.291069	0.499352
H185	H	1.460216	0.420220	0.620072
H186	H	1.310056	0.523516	0.643338
H187	H	0.228291	1.787742	-0.119882
H188	H	0.356227	1.591873	-0.119868
