data_functionalizedCrystal
_audit_creation_method	'MofGen! by Chris Wilmer'
_symmetry_space_group_name_H-M	'P1'
_symmetry_Int_Tables_number	1
_symmetry_cell_setting	triclinic
loop_
_symmetry_equiv_pos_as_xyz
  x,y,z
_cell_length_a	10.489694
_cell_length_b	10.489694
_cell_length_c	9.565339
_cell_angle_alpha	89.996004
_cell_angle_beta	90.002467
_cell_angle_gamma	84.519949
loop_
_atom_site_label
_atom_site_type_symbol
_atom_site_fract_x
_atom_site_fract_y
_atom_site_fract_z
O1	O	-1.694057	-0.179677	-0.116212
O2	O	-1.322851	-0.196633	-0.116221
O3	O	-1.516932	-0.002552	-0.116220
O4	O	-1.499976	-0.373758	-0.116212
O5	O	-1.516917	-0.002564	0.116300
O6	O	-1.322836	-0.196645	0.116299
O7	O	-1.694042	-0.179689	0.116309
Zn8	Zn	-1.508437	-0.188169	0.153221
Zn9	Zn	-1.508457	-0.188153	-0.153134
O10	O	-1.499961	-0.373770	0.116308
C11	C	-1.275311	-0.195371	0.000038
C12	C	-1.133679	-0.191577	0.000034
C13	C	-1.035985	-0.310592	0.000031
C14	C	-0.958641	-0.247719	0.114680
C15	C	-0.958663	-0.247679	-0.114567
C16	C	-1.058201	-0.128754	0.114777
C17	C	-1.058228	-0.128731	-0.114573
C18	C	-0.980934	-0.065770	0.000104
C19	C	-1.515657	0.044975	0.000036
C20	C	-1.511863	0.186606	0.000024
C21	C	-0.741580	-0.180971	0.000043
C22	C	-0.883204	-0.184825	0.000027
C23	C	-1.630878	0.284301	0.000040
C24	C	-1.568006	0.361658	-0.114602
C25	C	-1.567963	0.361610	0.114645
C26	C	-1.449041	0.262098	-0.114713
C27	C	-1.449015	0.262044	0.114637
C28	C	-1.386056	0.339352	-0.000033
C29	C	-1.501257	0.578706	0.000050
C30	C	-1.505111	0.437082	0.000057
N31	N	-1.508432	-0.188179	0.362301
N32	N	-1.508471	-0.188133	-0.362213
C33	C	-1.418648	-0.277905	0.453504
C34	C	-1.534143	-0.303696	0.546686
C35	C	-1.392987	-0.162398	0.546674
C36	C	-1.623986	-0.214028	0.453432
C37	C	-1.482753	-0.072679	0.453411
C38	C	-1.598331	-0.098422	0.546551
H39	H	-0.956521	0.037822	0.000167
H40	H	-0.915143	-0.297965	0.211607
H41	H	-1.721654	-0.235931	0.412647
C42	C	-1.246110	0.372340	-0.000119
N43	N	-1.140704	0.397189	-0.000189
C44	C	-1.701040	0.004106	0.601423
N45	N	-1.778405	0.081322	0.642762
C46	C	-1.770718	0.250982	-0.000112
N47	N	-1.876042	0.225883	-0.000233
C48	C	-1.635890	0.420449	-0.245531
N49	N	-1.687028	0.464731	-0.344140
C50	C	-1.381187	0.203242	0.245581
N51	N	-1.330104	0.158955	0.344220
H52	H	-1.460971	0.024946	0.412408
C53	C	-0.899927	-0.315573	-0.245501
N54	N	-0.855692	-0.366720	-0.344117
C55	C	-1.635856	0.420330	0.245588
N56	N	-1.687001	0.464554	0.344210
H57	H	-1.060637	-0.414108	0.000141
C58	C	-1.117012	-0.060900	-0.245526
N59	N	-1.161283	-0.009815	-0.344171
C60	C	-1.261071	-0.132958	0.601999
N61	N	-1.161708	-0.110794	0.643664
H62	H	-1.555890	-0.401352	0.587656
H63	H	-1.101520	-0.078546	0.211800
H64	H	-1.342791	-0.353854	0.412648
C65	C	-1.381228	0.203597	-0.245806
N66	N	-1.330158	0.159532	-0.344547
