data_functionalizedCrystal
_audit_creation_method	'MofGen! by Chris Wilmer'
_symmetry_space_group_name_H-M	'P1'
_symmetry_Int_Tables_number	1
_symmetry_cell_setting	triclinic
loop_
_symmetry_equiv_pos_as_xyz
  x,y,z
_cell_length_a	17.077404
_cell_length_b	16.120484
_cell_length_c	17.077395
_cell_angle_alpha	92.869809
_cell_angle_beta	89.984359
_cell_angle_gamma	92.925780
loop_
_atom_site_label
_atom_site_type_symbol
_atom_site_fract_x
_atom_site_fract_y
_atom_site_fract_z
Zn1	Zn	1.184163	-0.331913	-0.459673
Zn2	Zn	1.684163	0.168087	0.040327
Zn3	Zn	1.177416	-0.471334	-0.335057
Zn4	Zn	1.677416	0.028666	0.164943
Zn5	Zn	1.052902	-0.331939	-0.328423
Zn6	Zn	1.552902	0.168061	0.171577
Zn7	Zn	1.046202	-0.471288	-0.466279
Zn8	Zn	1.546202	0.028712	0.033721
O9	O	1.115171	-0.401619	-0.397358
O10	O	1.615171	0.098381	0.102642
O11	O	1.293114	-0.350416	-0.443155
O12	O	1.793114	0.149584	0.056845
O13	O	1.160879	-0.452874	-0.224332
O14	O	1.660879	0.047126	0.275668
O15	O	1.075942	-0.215270	-0.340293
O16	O	1.575942	0.284730	0.159707
O17	O	1.288157	-0.452848	-0.351600
O18	O	1.788157	0.047152	0.148400
O19	O	1.172378	-0.215251	-0.436722
O20	O	1.672378	0.284749	0.063278
O21	O	1.069400	-0.350461	-0.219457
O22	O	1.569400	0.149539	0.280543
O23	O	0.942167	-0.350416	-0.346697
O24	O	1.442167	0.149584	0.153303
O25	O	1.064522	-0.452769	-0.575248
O26	O	1.564522	0.047231	-0.075248
O27	O	0.937244	-0.452795	-0.447979
O28	O	1.437244	0.047205	0.052021
O29	O	1.165882	-0.350371	-0.570395
O30	O	1.665882	0.149629	-0.070395
O31	O	1.154382	-0.587994	-0.358005
O32	O	1.654382	-0.087994	0.141995
O33	O	1.057980	-0.587960	-0.454413
O34	O	1.557980	-0.087960	0.045587
C35	C	0.911224	-0.401604	-0.397336
C36	C	1.411224	0.098396	0.102664
C37	C	0.823973	-0.401617	-0.397346
C38	C	1.323973	0.098383	0.102654
C39	C	0.780436	-0.455006	-0.450007
C40	C	1.280436	0.044994	0.049993
C41	C	0.698456	-0.455008	-0.450019
C42	C	1.198456	0.044992	0.049981
C43	C	0.660013	-0.401624	-0.397367
C44	C	1.160013	0.098376	0.102633
C45	C	0.703556	-0.348230	-0.344703
C46	C	1.203556	0.151770	0.155297
C47	C	0.785535	-0.348224	-0.344695
C48	C	1.285535	0.151776	0.155305
C49	C	0.532685	-0.348246	-0.344723
C50	C	1.032685	0.151754	0.155277
C51	C	0.450700	-0.348252	-0.344730
C52	C	0.950700	0.151748	0.155270
C53	C	0.445606	-0.455030	-0.450047
C54	C	0.945606	0.044970	0.049953
C55	C	0.527585	-0.455024	-0.450039
C56	C	1.027585	0.044976	0.049961
C57	C	0.571122	-0.401630	-0.397374
C58	C	1.071122	0.098370	0.102626
C59	C	1.104743	-0.618227	-0.407663
C60	C	1.604743	-0.118227	0.092337
C61	C	1.100354	-0.710893	-0.412097
C62	C	1.600354	-0.210893	0.087903
C63	C	1.092346	-0.880555	-0.420210
C64	C	1.592346	-0.380555	0.079790
C65	C	1.138136	-0.921842	-0.374519
C66	C	1.638136	-0.421842	0.125481
C67	C	1.133680	-1.016247	-0.379033
C68	C	1.633680	-0.516247	0.120967
C69	C	1.096801	-0.786141	-0.415697
C70	C	1.596801	-0.286141	0.084303
C71	C	1.319914	-0.401634	-0.397381
C72	C	1.819914	0.098366	0.102619
C73	C	1.407164	-0.401641	-0.397391
C74	C	1.907164	0.098359	0.102609
C75	C	1.115207	-0.401562	-0.602100
C76	C	1.615207	0.098438	-0.102100
C77	C	1.115223	-0.401538	-0.689348
C78	C	1.615223	0.098462	-0.189348
C79	C	1.125660	-0.184164	-0.387030
C80	C	1.625660	0.315836	0.112970
C81	C	1.130130	-0.091498	-0.382629
C82	C	1.630130	0.408502	0.117371
C83	C	1.168093	-0.348106	-1.062632
C84	C	1.668093	0.151894	-0.562632
C85	C	1.168075	-0.348135	-0.980653
C86	C	1.668075	0.151865	-0.480653
C87	C	1.115291	-0.401459	-0.942194
C88	C	1.615291	0.098541	-0.442194
C89	C	1.062526	-0.454763	-0.985718
C90	C	1.562526	0.045237	-0.485718
C91	C	1.062548	-0.454737	-1.067696
C92	C	1.562548	0.045263	-0.567696
C93	C	1.062483	-0.454811	-0.814850
C94	C	1.562483	0.045189	-0.314850
C95	C	1.062460	-0.454836	-0.732867
C96	C	1.562460	0.045164	-0.232867
C97	C	1.168011	-0.348209	-0.727807
C98	C	1.668011	0.151791	-0.227807
C99	C	1.168032	-0.348184	-0.809785
C100	C	1.668032	0.151816	-0.309785
C101	C	1.115266	-0.401487	-0.853304
C102	C	1.615266	0.098513	-0.353304
C103	C	1.115182	-0.401615	-0.193410
C104	C	1.615182	0.098385	0.306590
C105	C	1.115330	-0.401404	-0.106151
C106	C	1.615330	0.098596	0.393849
H107	H	0.820982	-0.304745	-0.301817
H108	H	1.320982	0.195255	0.198183
H109	H	0.811730	-0.498480	-0.492880
H110	H	1.311730	0.001520	0.007120
H111	H	1.019551	-0.498184	-0.954398
H112	H	1.519551	0.001816	-0.454398
C113	C	1.226094	-0.289530	-0.852089
C114	C	1.726094	0.210470	-0.352089
H115	H	1.257522	-0.257794	-0.814432
H116	H	1.757522	0.242206	-0.314432
H117	H	1.197829	-0.253193	-0.882344
H118	H	1.697829	0.246807	-0.382344
H119	H	1.258765	-0.321425	-0.885584
H120	H	1.758765	0.178575	-0.385584
H121	H	1.049799	-0.916107	-0.462713
H122	H	1.549799	-0.416107	0.037287
H123	H	1.211071	-0.304678	-1.093939
H124	H	1.711071	0.195322	-0.593939
C125	C	1.195614	-0.873821	-0.317090
C126	C	1.695614	-0.373821	0.182910
H127	H	1.223761	-0.912142	-0.289019
H128	H	1.723761	-0.412142	0.210981
H129	H	1.167175	-0.839906	-0.281273
H130	H	1.667175	-0.339906	0.218727
H131	H	1.231377	-0.839795	-0.345556
H132	H	1.731377	-0.339795	0.154444
C133	C	0.650566	-0.513787	-0.507901
C134	C	1.150566	-0.013787	-0.007901
H135	H	0.685202	-0.545601	-0.539237
H136	H	1.185202	-0.045601	-0.039237
H137	H	0.620106	-0.481994	-0.540661
H138	H	1.120106	0.018006	-0.040661
H139	H	0.616854	-0.550057	-0.479496
H140	H	1.116854	-0.050057	0.020504
H141	H	0.558882	-0.498499	-0.492909
H142	H	1.058882	0.001501	0.007091
C143	C	0.397719	-0.513757	-0.507981
C144	C	0.897719	-0.013757	-0.007981
H145	H	0.343390	-0.506109	-0.500454
H146	H	0.843390	-0.006109	-0.000454
H147	H	0.408454	-0.569756	-0.499069
H148	H	0.908454	-0.069756	0.000931
H149	H	0.411761	-0.501624	-0.560166
H150	H	0.911761	-0.001624	-0.060166
C151	C	1.226057	-0.289579	-0.679944
C152	C	1.726057	0.210421	-0.179944
H153	H	1.257490	-0.257811	-0.714590
H154	H	1.757490	0.242189	-0.214590
H155	H	1.258714	-0.321483	-0.649483
H156	H	1.758714	0.178517	-0.149483
H157	H	1.197770	-0.253259	-0.646237
H158	H	1.697770	0.246741	-0.146237
H159	H	1.211042	-0.304737	-0.945224
H160	H	1.711042	0.195263	-0.445224
C161	C	1.004448	-0.513545	-0.690565
C162	C	1.504448	-0.013545	-0.190565
H163	H	0.973047	-0.545311	-0.728224
H164	H	1.473047	-0.045311	-0.228224
H165	H	0.971757	-0.481710	-0.657047
H166	H	1.471757	0.018290	-0.157047
H167	H	1.032770	-0.549864	-0.660337
H168	H	1.532770	-0.049864	-0.160337
H169	H	1.019584	-0.498139	-1.103128
H170	H	1.519584	0.001861	-0.603128
C171	C	0.408415	-0.289524	-0.286821
C172	C	0.908415	0.210476	0.213179
H173	H	0.446084	-0.257714	-0.255463
H174	H	0.946084	0.242286	0.244537
H175	H	0.374889	-0.321365	-0.254085
H176	H	0.874889	0.178635	0.245915
H177	H	0.378193	-0.253246	-0.315196
H178	H	0.878193	0.246754	0.184804
H179	H	0.568131	-0.304759	-0.301844
H180	H	1.068131	0.195241	0.198156
C181	C	0.661275	-0.289505	-0.286786
C182	C	1.161275	0.210495	0.213214
H183	H	0.698948	-0.257702	-0.255427
H184	H	1.198948	0.242298	0.244573
H185	H	0.627750	-0.321350	-0.254052
H186	H	1.127750	0.178650	0.245948
H187	H	0.631053	-0.253221	-0.315153
H188	H	1.131053	0.246779	0.184847
H189	H	1.019517	-0.498219	-0.850281
H190	H	1.519517	0.001781	-0.350281
