data_functionalizedCrystal
_audit_creation_method	'MofGen! by Chris Wilmer'
_symmetry_space_group_name_H-M	'P1'
_symmetry_Int_Tables_number	1
_symmetry_cell_setting	triclinic
loop_
_symmetry_equiv_pos_as_xyz
  x,y,z
_cell_length_a	10.654562
_cell_length_b	9.730223
_cell_length_c	10.654554
_cell_angle_alpha	89.997280
_cell_angle_beta	84.488473
_cell_angle_gamma	89.996961
loop_
_atom_site_label
_atom_site_type_symbol
_atom_site_fract_x
_atom_site_fract_y
_atom_site_fract_z
O1	O	1.667828	-0.114385	0.176469
O2	O	1.302351	-0.114368	0.193258
O3	O	1.493490	-0.114363	0.002125
O4	O	1.476690	-0.114390	0.367602
O5	O	1.493487	0.114217	0.002130
O6	O	1.302349	0.114211	0.193263
O7	O	1.667825	0.114195	0.176474
Zn8	Zn	1.485087	0.150495	0.184869
Zn9	Zn	1.485090	-0.150669	0.184863
O10	O	1.476687	0.114190	0.367607
C11	C	1.255553	-0.000076	0.192025
C12	C	1.116110	-0.000069	0.188326
C13	C	1.050578	0.124519	0.186604
C14	C	0.919556	0.124496	0.183139
C15	C	0.919608	-0.124714	0.183124
C16	C	1.050629	-0.124690	0.186580
C17	C	1.050546	0.268399	0.186618
C18	C	0.919524	0.268376	0.183153
C19	C	1.714624	-0.000100	0.177707
C20	C	1.854067	-0.000116	0.181406
C21	C	1.492254	-0.000073	-0.044670
C22	C	1.488559	-0.000071	-0.184114
N23	N	1.485094	0.356032	0.184873
N24	N	1.485093	-0.356205	0.184849
C25	C	1.569752	0.427960	0.100268
C26	C	1.569749	0.571843	0.100253
C27	C	1.400426	0.571856	0.269458
C28	C	1.400424	0.427976	0.269466
C29	C	1.667513	0.427953	0.002582
C30	C	1.667510	0.571836	0.002567
C31	C	1.369074	-0.000095	-0.366681
C32	C	1.372544	-0.000078	-0.235659
C33	C	1.601112	-0.000094	-0.263597
C34	C	1.597640	-0.000122	-0.394617
C35	C	1.237111	-0.000080	-0.350550
C36	C	1.240582	-0.000062	-0.219528
C37	C	1.477923	-0.000104	0.414402
C38	C	1.481618	-0.000115	0.553846
H39	H	1.096804	0.323658	0.099825
N40	N	1.178211	0.119936	-0.167139
N41	N	1.084201	0.108143	-0.088172
H42	H	1.040154	0.192889	-0.051169
H43	H	1.103983	-0.226142	0.187963
N44	N	0.861468	0.337661	0.292040
N45	N	0.928010	0.386484	0.371602
H46	H	0.887010	0.435415	0.448502
H47	H	1.080122	0.313035	0.278214
H48	H	1.646069	0.388908	-0.093951
N49	N	1.172416	-0.120087	-0.387426
N50	N	1.074858	-0.108323	-0.443006
H51	H	1.029186	-0.193082	-0.469065
H52	H	1.331489	0.630449	0.338331
N53	N	0.852701	-0.251992	0.181333
N54	N	0.735720	-0.251999	0.178237
H55	H	0.688466	-0.341892	0.176971
H56	H	0.889934	0.313029	0.091560
H57	H	1.636996	0.616460	-0.088657
H58	H	1.200707	-0.098750	-0.173867
N59	N	1.313920	0.354524	0.355876
N60	N	1.238329	0.418780	0.431392
H61	H	1.177229	0.366906	0.492421
N62	N	1.788586	0.620808	0.029556
N63	N	1.873889	0.537318	0.048594
H64	H	1.959397	0.571902	0.067656
N65	N	1.781907	0.371989	0.040972
N66	N	1.884905	0.398955	-0.020363
H67	H	1.965694	0.359437	0.006763
H68	H	1.689285	-0.000153	-0.459320
N69	N	1.719610	-0.000108	-0.210929
N70	N	1.722696	-0.000094	-0.093947
H71	H	1.806387	-0.000104	-0.056750
N72	N	1.184407	0.123734	-0.395272
N73	N	1.147838	0.216475	-0.319199
H74	H	1.110621	0.303924	-0.350784
