data_functionalizedCrystal
_audit_creation_method	'MofGen! by Chris Wilmer'
_symmetry_space_group_name_H-M	'P1'
_symmetry_Int_Tables_number	1
_symmetry_cell_setting	triclinic
loop_
_symmetry_equiv_pos_as_xyz
  x,y,z
_cell_length_a	13.897449
_cell_length_b	21.295417
_cell_length_c	13.897441
_cell_angle_alpha	90.036423
_cell_angle_beta	90.020733
_cell_angle_gamma	90.031786
loop_
_atom_site_label
_atom_site_type_symbol
_atom_site_fract_x
_atom_site_fract_y
_atom_site_fract_z
Zn1	Zn	1.474617	-0.250568	0.545342
Zn2	Zn	1.474475	-0.355847	0.384027
Zn3	Zn	1.313306	-0.250598	0.384060
Zn4	Zn	1.313252	-0.355805	0.545280
O5	O	1.393912	-0.303204	0.464677
O6	O	1.609579	-0.264538	0.523955
O7	O	1.453059	-0.341915	0.249050
O8	O	1.334786	-0.162504	0.405495
O9	O	1.609475	-0.341886	0.405438
O10	O	1.453301	-0.162482	0.523988
O11	O	1.334649	-0.264589	0.249074
O12	O	1.178317	-0.264549	0.405434
O13	O	1.334694	-0.341815	0.680270
O14	O	1.178277	-0.341844	0.523881
O15	O	1.453248	-0.264498	0.680316
O16	O	1.453006	-0.443931	0.405378
O17	O	1.334556	-0.443900	0.523849
C18	C	1.143298	-0.303196	0.464655
C19	C	1.036084	-0.303207	0.464669
C20	C	1.393786	-0.466756	0.464624
C21	C	1.393820	-0.536724	0.464633
C22	C	0.839789	-0.303210	0.464694
C23	C	0.949021	-0.303207	0.464677
C24	C	1.455552	-0.569586	0.403008
C25	C	1.455597	-0.635328	0.403030
C26	C	1.393893	-0.668207	0.464667
C27	C	1.332157	-0.635337	0.526304
C28	C	1.332120	-0.569596	0.526287
N29	N	1.309512	-0.771473	0.472013
N30	N	1.309550	-0.833925	0.472023
C31	C	1.394001	-0.866281	0.464722
N32	N	1.478416	-0.833827	0.457392
N33	N	1.478377	-0.771370	0.457376
C34	C	1.393926	-0.739492	0.464692
C35	C	1.455787	-0.970428	0.403117
C36	C	1.455834	-1.036172	0.403146
C37	C	1.332386	-1.036180	0.526414
C38	C	1.332347	-0.970437	0.526391
C39	C	1.394047	-0.937565	0.464737
C40	C	1.645505	-0.303213	0.464700
C41	C	1.752719	-0.303217	0.464710
C42	C	1.393981	-0.303149	0.716270
C43	C	1.394010	-0.303125	0.823484
C44	C	1.394065	-0.139014	0.464752
C45	C	1.394131	-0.069046	0.464784
C46	C	1.393900	-0.303214	0.214063
C47	C	1.394057	-0.303061	0.106850
C48	C	1.394036	-0.303082	1.019780
C49	C	1.394018	-0.303108	0.910547
H50	H	1.505793	-0.542823	0.352809
H51	H	1.282075	-0.943680	0.576567
H52	H	1.282149	-1.062949	0.576604
C53	C	1.285100	-0.655527	0.689597
C54	C	1.264333	-0.671476	0.594057
H55	H	1.243232	-0.677840	0.731428
H56	H	1.276239	-0.611676	0.698403
H57	H	1.349911	-0.666258	0.703759
H58	H	1.199523	-0.660740	0.579893
H59	H	1.273186	-0.715336	0.585247
H60	H	1.505870	-0.662089	0.352848
C61	C	1.469215	-0.896560	0.273353
C62	C	1.523611	-0.934289	0.335358
H63	H	1.511088	-0.874253	0.231519
H64	H	1.432446	-0.867581	0.310050
H65	H	1.427230	-0.922260	0.236429
H66	H	1.565591	-0.908588	0.372288
H67	H	1.560396	-0.963271	0.298657
C68	C	1.318608	-0.495605	0.656005
C69	C	1.264257	-0.533471	0.594027
H70	H	1.276709	-0.473305	0.697827
H71	H	1.355339	-0.466620	0.619289
H72	H	1.360627	-0.521212	0.692944
H73	H	1.222242	-0.507863	0.557083
H74	H	1.227510	-0.562458	0.630747
C75	C	1.577834	-1.029557	0.281282
C76	C	1.523694	-1.072296	0.335400
H77	H	1.619723	-1.051860	0.239455
H78	H	1.614695	-1.003871	0.323330
H79	H	1.535796	-1.003960	0.244347
H80	H	1.565731	-1.097890	0.372341
H81	H	1.486830	-1.097993	0.293348
