data_functionalizedCrystal
_audit_creation_method	'MofGen! by Chris Wilmer'
_symmetry_space_group_name_H-M	'P1'
_symmetry_Int_Tables_number	1
_symmetry_cell_setting	triclinic
loop_
_symmetry_equiv_pos_as_xyz
  x,y,z
_cell_length_a	18.101398
_cell_length_b	25.639239
_cell_length_c	18.101390
_cell_angle_alpha	89.965145
_cell_angle_beta	89.977223
_cell_angle_gamma	90.033952
loop_
_atom_site_label
_atom_site_type_symbol
_atom_site_fract_x
_atom_site_fract_y
_atom_site_fract_z
Zn1	Zn	1.132071	-0.208197	-0.418828
Zn2	Zn	1.632071	0.291803	0.081172
Zn3	Zn	1.131954	-0.295641	-0.294982
Zn4	Zn	1.631954	0.204359	0.205018
Zn5	Zn	1.008233	-0.208214	-0.294989
Zn6	Zn	1.508233	0.291786	0.205011
Zn7	Zn	1.008164	-0.295596	-0.418771
Zn8	Zn	1.508164	0.204404	0.081229
O9	O	1.070105	-0.251912	-0.356893
O10	O	1.570105	0.248088	0.143107
O11	O	1.235688	-0.219808	-0.402421
O12	O	1.735688	0.280192	0.097579
O13	O	1.115522	-0.284069	-0.191350
O14	O	1.615522	0.215931	0.308650
O15	O	1.024738	-0.135046	-0.311444
O16	O	1.524738	0.364954	0.188556
O17	O	1.235602	-0.284053	-0.311432
O18	O	1.735602	0.215947	0.188568
O19	O	1.115721	-0.135034	-0.402428
O20	O	1.615721	0.364966	0.097572
O21	O	1.024625	-0.219837	-0.191356
O22	O	1.524625	0.280163	0.308644
O23	O	0.904591	-0.219794	-0.311388
O24	O	1.404591	0.280206	0.188612
O25	O	1.024621	-0.283977	-0.522411
O26	O	1.524621	0.216023	-0.022411
O27	O	0.904540	-0.283993	-0.402330
O28	O	1.404540	0.216007	0.097670
O29	O	1.115654	-0.219765	-0.522454
O30	O	1.615654	0.280235	-0.022454
O31	O	1.115455	-0.368800	-0.311376
O32	O	1.615455	0.131200	0.188624
O33	O	1.024507	-0.368767	-0.402323
O34	O	1.524507	0.131233	0.097677
C35	C	0.877695	-0.251891	-0.356854
C36	C	1.377695	0.248109	0.143146
C37	C	0.795381	-0.251894	-0.356855
C38	C	1.295381	0.248106	0.143145
C39	C	0.496290	-0.251927	-0.356917
C40	C	0.996290	0.248073	0.143083
C41	C	0.527622	-0.211332	-0.299978
C42	C	1.027622	0.288668	0.200022
C43	C	0.613240	-0.211441	-0.299735
C44	C	1.113240	0.288559	0.200265
C45	C	0.644672	-0.251910	-0.356886
C46	C	1.144672	0.248090	0.143114
C47	C	0.613544	-0.306988	-0.335559
C48	C	1.113544	0.193012	0.164441
C49	C	0.527899	-0.306762	-0.335163
C50	C	1.027899	0.193238	0.164837
C51	C	0.527905	-0.237923	-0.435317
C52	C	1.027905	0.262077	0.064683
C53	C	0.613556	-0.236696	-0.434890
C54	C	1.113556	0.263304	0.065110
C55	C	0.728532	-0.251904	-0.356870
C56	C	1.228532	0.248096	0.143130
C57	C	0.412430	-0.251937	-0.356932
C58	C	0.912430	0.248063	0.143068
C59	C	1.069981	-0.387755	-0.356859
C60	C	1.569981	0.112245	0.143141
C61	C	1.069995	-0.445869	-0.356869
C62	C	1.569995	0.054131	0.143131
C63	C	1.117585	-0.806236	-0.309617
C64	C	1.617585	-0.306236	0.190383
C65	C	1.117614	-0.860840	-0.309627
C66	C	1.617614	-0.360840	0.190373
O67	O	1.157948	-0.889081	-0.269415
O68	O	1.657948	-0.389081	0.230585
N69	N	1.070235	-0.888151	-0.356942
N70	N	1.570235	-0.388151	0.143058
C71	C	1.022830	-0.860855	-0.404255
C72	C	1.522830	-0.360855	0.095745
O73	O	0.982534	-0.889098	-0.444501
O74	O	1.482534	-0.389098	0.055499
C75	C	1.022806	-0.806251	-0.404248
C76	C	1.522806	-0.306251	0.095752
C77	C	1.070182	-0.778943	-0.356925
C78	C	1.570182	-0.278943	0.143075
C79	C	1.164958	-0.778928	-0.262299
C80	C	1.664958	-0.278928	0.237701
C81	C	1.164928	-0.724328	-0.262288
C82	C	1.664928	-0.224328	0.237712
C83	C	1.117526	-0.697035	-0.309596
C84	C	1.617526	-0.197035	0.190404
C85	C	1.070152	-0.724343	-0.356914
C86	C	1.570152	-0.224343	0.143086
C87	C	0.975405	-0.778956	-0.451564
C88	C	1.475405	-0.278956	0.048436
C89	C	0.975385	-0.724349	-0.451554
C90	C	1.475385	-0.224349	0.048446
C91	C	1.022762	-0.697041	-0.404231
C92	C	1.522762	-0.197041	0.095769
C93	C	1.022720	-0.642450	-0.404212
C94	C	1.522720	-0.142450	0.095788
N95	N	1.070098	-0.615139	-0.356897
N96	N	1.570098	-0.115139	0.143103
C97	C	1.117501	-0.642432	-0.309589
C98	C	1.617501	-0.142432	0.190411
C99	C	1.022886	-0.975525	-0.404266
C100	C	1.522886	-0.475525	0.095734
C101	C	1.022906	-1.030128	-0.404270
C102	C	1.522906	-0.530128	0.095730
C103	C	1.117691	-1.030110	-0.309643
C104	C	1.617691	-0.530110	0.190357
C105	C	1.117667	-0.975506	-0.309636
C106	C	1.617667	-0.475506	0.190364
C107	C	1.070265	-0.948215	-0.356952
C108	C	1.570265	-0.448215	0.143048
C109	C	1.117434	-0.527767	-0.309570
C110	C	1.617434	-0.027767	0.190430
C111	C	1.117398	-0.473161	-0.309561
C112	C	1.617398	0.026839	0.190439
C113	C	1.022616	-0.473184	-0.404190
C114	C	1.522616	0.026816	0.095810
C115	C	1.022650	-0.527785	-0.404197
C116	C	1.522650	-0.027785	0.095803
C117	C	1.070065	-0.555075	-0.356884
C118	C	1.570065	-0.055075	0.143116
O119	O	0.982409	-0.614175	-0.444406
O120	O	1.482409	-0.114175	0.055594
O121	O	1.157797	-0.614181	-0.269357
O122	O	1.657797	-0.114181	0.230643
C123	C	1.263267	-0.251934	-0.356932
C124	C	1.763267	0.248066	0.143068
C125	C	1.345581	-0.251943	-0.356949
C126	C	1.845581	0.248057	0.143051
C127	C	1.070143	-0.251865	-0.550055
C128	C	1.570143	0.248135	-0.050055
C129	C	1.070159	-0.251844	-0.632369
C130	C	1.570159	0.248156	-0.132369
C131	C	1.070250	-0.115539	-0.356943
C132	C	1.570250	0.384461	0.143057
C133	C	1.070312	-0.057425	-0.356964
C134	C	1.570312	0.442575	0.143036
C135	C	1.070185	-0.251828	-0.783077
C136	C	1.570185	0.248172	-0.283077
C137	C	1.127463	-0.211424	-0.814458
C138	C	1.627463	0.288576	-0.314458
C139	C	1.127703	-0.211533	-0.900076
C140	C	1.627703	0.288467	-0.400076
C141	C	1.070212	-0.251811	-0.931460
C142	C	1.570212	0.248189	-0.431460
C143	C	1.091077	-0.306959	-0.900349
C144	C	1.591077	0.193041	-0.400349
C145	C	1.091477	-0.306735	-0.814704
C146	C	1.591477	0.193265	-0.314704
C147	C	0.991903	-0.237562	-0.814628
C148	C	1.491903	0.262438	-0.314628
C149	C	0.992338	-0.236337	-0.900280
C150	C	1.492338	0.263663	-0.400280
C151	C	1.070225	-0.251805	-1.015320
C152	C	1.570225	0.248195	-0.515320
C153	C	1.070174	-0.251838	-0.699218
C154	C	1.570174	0.248162	-0.199218
C155	C	1.070110	-0.251922	-0.164482
C156	C	1.570110	0.248078	0.335518
C157	C	1.070238	-0.251795	-0.082169
C158	C	1.570238	0.248205	0.417831
H159	H	0.633694	-0.220700	-0.241642
H160	H	1.133694	0.279300	0.258358
H161	H	0.507170	-0.338033	-0.374826
H162	H	1.007170	0.161967	0.125174
H163	H	0.984019	-0.450954	-0.442706
H164	H	1.484019	0.049046	0.057294
C165	C	0.923296	-0.808983	-0.503626
C166	C	1.423296	-0.308983	-0.003626
H167	H	0.895073	-0.784900	-0.531802
H168	H	1.395073	-0.284900	-0.031802
H169	H	0.891049	-0.830321	-0.475280
H170	H	1.391049	-0.330321	0.024720
H171	H	0.951622	-0.830245	-0.535930
H172	H	1.451622	-0.330245	-0.035930
H173	H	0.947411	-0.263599	-0.921640
H174	H	1.447411	0.236401	-0.421640
C175	C	0.923242	-0.694331	-0.503603
C176	C	1.423242	-0.194331	-0.003603
H177	H	0.895031	-0.718418	-0.531781
H178	H	1.395031	-0.218418	-0.031781
H179	H	0.951541	-0.672994	-0.535894
H180	H	1.451541	-0.172994	-0.035894
H181	H	0.890974	-0.673068	-0.475237
H182	H	1.390974	-0.173068	0.024763
H183	H	0.506073	-0.220486	-0.242223
H184	H	1.006073	0.279514	0.257777
H185	H	0.984074	-0.550020	-0.442733
H186	H	1.484074	-0.050020	0.057267
C187	C	1.110119	-0.156299	-0.928500
C188	C	1.610119	0.343701	-0.428500
H189	H	1.102768	-0.133590	-0.887704
H190	H	1.602768	0.366410	-0.387704
H191	H	1.066578	-0.157285	-0.957743
H192	H	1.566578	0.342715	-0.457743
H193	H	1.150179	-0.143939	-0.957578
H194	H	1.650179	0.356061	-0.457578
H195	H	0.507887	-0.318638	-0.277849
H196	H	1.007887	0.181362	0.222151
H197	H	0.633902	-0.338045	-0.375733
H198	H	1.133902	0.161955	0.124267
C199	C	0.934255	-0.277309	-0.787205
C200	C	1.434255	0.222691	-0.287205
H201	H	0.957739	-0.302477	-0.756676
H202	H	1.457739	0.197523	-0.256676
H203	H	0.912273	-0.294241	-0.828367
H204	H	1.412273	0.205759	-0.328367
H205	H	0.897197	-0.259730	-0.759638
H206	H	1.397197	0.240270	-0.259638
H207	H	1.185717	-0.220986	-0.920577
H208	H	1.685717	0.279014	-0.420577
H209	H	1.114586	-0.170413	-0.793886
H210	H	1.614586	0.329587	-0.293886
C211	C	1.205383	-0.224046	-0.785412
C212	C	1.705383	0.275954	-0.285412
H213	H	1.203160	-0.253833	-0.754246
H214	H	1.703160	0.246167	-0.254246
H215	H	1.223733	-0.195151	-0.758185
H216	H	1.723733	0.304849	-0.258185
H217	H	1.237325	-0.230953	-0.825891
H218	H	1.737325	0.269047	-0.325891
C219	C	1.036464	-0.348737	-0.927805
C220	C	1.536464	0.151263	-0.427805
H221	H	1.050101	-0.381775	-0.908339
H222	H	1.550101	0.118225	-0.408339
H223	H	1.037607	-0.350028	-0.980238
H224	H	1.537607	0.149972	-0.480238
H225	H	0.987987	-0.340185	-0.911764
H226	H	1.487987	0.159815	-0.411764
C227	C	1.168769	-0.323031	-0.787728
C228	C	1.668769	0.176969	-0.287728
H229	H	1.199629	-0.329723	-0.829111
H230	H	1.699629	0.170277	-0.329111
H231	H	1.164835	-0.353681	-0.758477
H232	H	1.664835	0.146319	-0.258477
H233	H	1.189534	-0.295733	-0.758964
H234	H	1.689534	0.204267	-0.258964
H235	H	0.634958	-0.319070	-0.278864
H236	H	1.134958	0.180930	0.221136
C237	C	1.037554	-0.348801	-0.786648
C238	C	1.537554	0.151199	-0.286648
H239	H	1.037430	-0.348947	-0.734164
H240	H	1.537430	0.151053	-0.234164
H241	H	1.052734	-0.382001	-0.804271
H242	H	1.552734	0.117999	-0.304271
H243	H	0.989226	-0.341401	-0.804193
H244	H	1.489226	0.158599	-0.304193
C245	C	0.500529	-0.277861	-0.492632
C246	C	1.000529	0.222139	0.007368
H247	H	0.469980	-0.302950	-0.468938
H248	H	0.969980	0.197050	0.031062
H249	H	0.541709	-0.294867	-0.514470
H250	H	1.041709	0.205133	-0.014470
H251	H	0.472992	-0.260405	-0.529838
H252	H	0.972992	0.239595	-0.029838
H253	H	1.155978	-0.450929	-0.271023
H254	H	1.655978	0.049071	0.228977
C255	C	0.641678	-0.156266	-0.317778
C256	C	1.141678	0.343734	0.182222
H257	H	0.600888	-0.133582	-0.325320
H258	H	1.100888	0.366418	0.174680
H259	H	0.670958	-0.157395	-0.361309
H260	H	1.170958	0.342605	0.138691
H261	H	0.670722	-0.143774	-0.277820
H262	H	1.170722	0.356226	0.222180
C263	C	1.169584	-0.557778	-0.257522
C264	C	1.669584	-0.057778	0.242478
H265	H	1.197784	-0.533688	-0.229338
H266	H	1.697784	-0.033688	0.270662
H267	H	1.201851	-0.579044	-0.285878
H268	H	1.701851	-0.079044	0.214122
H269	H	1.141280	-0.579112	-0.225225
H270	H	1.641280	-0.079112	0.274775
H271	H	0.506340	-0.198459	-0.454708
H272	H	1.006340	0.301541	0.045292
C273	C	0.499824	-0.155991	-0.317819
C274	C	0.999824	0.344009	0.182181
H275	H	0.468858	-0.157145	-0.360150
H276	H	0.968858	0.342855	0.139850
H277	H	0.540810	-0.133826	-0.327339
H278	H	1.040810	0.366174	0.172661
H279	H	0.472631	-0.142864	-0.276971
H280	H	0.972631	0.357136	0.223029
H281	H	1.147660	-0.319237	-0.921826
H282	H	1.647660	0.180763	-0.421826
C283	C	0.971063	-0.181513	-0.927754
C284	C	1.471063	0.318487	-0.427754
H285	H	0.923906	-0.172374	-0.908705
H286	H	1.423906	0.327626	-0.408705
H287	H	0.969409	-0.181388	-0.980206
H288	H	1.469409	0.318612	-0.480206
H289	H	1.006749	-0.156952	-0.911292
H290	H	1.506749	0.343048	-0.411292
H291	H	0.972838	-0.198039	-0.793035
H292	H	1.472838	0.301961	-0.293035
C293	C	0.641048	-0.181944	-0.456620
C294	C	1.141048	0.318056	0.043380
H295	H	0.671367	-0.168410	-0.418322
H296	H	1.171367	0.331590	0.081678
H297	H	0.599907	-0.159543	-0.463905
H298	H	1.099907	0.340457	0.036095
H299	H	0.668850	-0.184104	-0.501036
H300	H	1.168850	0.315896	-0.001036
H301	H	0.634955	-0.264108	-0.479587
H302	H	1.134955	0.235892	0.020413
H303	H	1.203508	-0.702097	-0.223756
H304	H	1.703508	-0.202097	0.276244
C305	C	1.217102	-0.808942	-0.210251
C306	C	1.717102	-0.308942	0.289749
H307	H	1.245303	-0.784850	-0.182070
H308	H	1.745303	-0.284850	0.317930
H309	H	1.249368	-0.830210	-0.238604
H310	H	1.749368	-0.330210	0.261396
H311	H	1.188797	-0.830273	-0.177952
H312	H	1.688797	-0.330273	0.322048
H313	H	1.156245	-0.953275	-0.271102
H314	H	1.656245	-0.453275	0.228898
H315	H	0.984321	-1.052357	-0.442798
H316	H	1.484321	-0.552357	0.057202
H317	H	0.984280	-0.953307	-0.442794
H318	H	1.484280	-0.453307	0.057206
C319	C	1.169832	-1.060138	-0.257603
C320	C	1.669832	-0.560138	0.242397
H321	H	1.163061	-1.096568	-0.264391
H322	H	1.663061	-0.596568	0.235609
H323	H	1.159019	-1.051223	-0.207832
H324	H	1.659019	-0.551223	0.292168
H325	H	1.219584	-1.051156	-0.268491
H326	H	1.719584	-0.551156	0.231509
