data_functionalizedCrystal
_audit_creation_method	'MofGen! by Chris Wilmer'
_symmetry_space_group_name_H-M	'P1'
_symmetry_Int_Tables_number	1
_symmetry_cell_setting	triclinic
loop_
_symmetry_equiv_pos_as_xyz
  x,y,z
_cell_length_a	16.994747
_cell_length_b	12.827893
_cell_length_c	12.827885
_cell_angle_alpha	90.019081
_cell_angle_beta	89.989521
_cell_angle_gamma	89.988971
loop_
_atom_site_label
_atom_site_type_symbol
_atom_site_fract_x
_atom_site_fract_y
_atom_site_fract_z
Zn1	Zn	0.313990	1.597701	0.590984
Zn2	Zn	0.445915	1.597608	0.416303
Zn3	Zn	0.314029	1.422943	0.416258
Zn4	Zn	0.445856	1.422941	0.591003
O5	O	0.379948	1.510298	0.503637
O6	O	0.331499	1.743925	0.567822
O7	O	0.428461	1.574400	0.270061
O8	O	0.203643	1.446164	0.439408
O9	O	0.428423	1.743857	0.439485
O10	O	0.203614	1.574558	0.567779
O11	O	0.331564	1.446074	0.270028
O12	O	0.331507	1.276706	0.439428
O13	O	0.428323	1.446161	0.737237
O14	O	0.428361	1.276705	0.567812
O15	O	0.331442	1.574557	0.737222
O16	O	0.556288	1.574399	0.439504
O17	O	0.556245	1.446072	0.567856
C18	C	0.379932	1.238788	0.503618
C19	C	0.379945	1.122635	0.503634
C20	C	0.332083	0.950840	0.567255
C21	C	0.332069	1.070890	0.567239
C22	C	0.584888	1.510238	0.503684
C23	C	0.674210	1.510245	0.503681
C24	C	0.174207	1.510364	0.503584
C25	C	0.084885	1.510397	0.503561
Zn26	Zn	0.945115	1.422972	0.416228
Zn27	Zn	0.945055	1.597748	0.590938
Zn28	Zn	0.813249	1.422977	0.590986
Zn29	Zn	0.813170	1.597627	0.416269
O30	O	0.879147	1.510331	0.503605
O31	O	1.055489	1.446205	0.439367
O32	O	0.927579	1.574616	0.737180
O33	O	0.830799	1.276740	0.567807
O34	O	1.055445	1.574612	0.567725
O35	O	0.927681	1.276737	0.439414
O36	O	0.830741	1.446212	0.737215
O37	O	0.702857	1.446096	0.567846
O38	O	0.830665	1.574407	0.270027
O39	O	0.702799	1.574411	0.439482
O40	O	0.927605	1.446089	0.269998
O41	O	0.927503	1.743968	0.567764
O42	O	0.830607	1.743879	0.439436
C43	C	0.379872	1.510369	0.776207
C44	C	0.379840	1.510400	0.892360
C45	C	0.379963	1.782868	0.503657
C46	C	0.379970	1.899021	0.503665
C47	C	0.379966	1.510288	0.232127
C48	C	0.379776	1.510460	0.115974
C49	C	0.331890	1.573941	0.944138
C50	C	0.331856	1.573974	1.064188
C51	C	0.879042	1.781841	0.503602
C52	C	0.879020	1.897994	0.503631
C53	C	0.879133	1.510234	0.231035
C54	C	0.879127	1.510193	0.114882
C55	C	0.879255	1.237761	0.503611
C56	C	0.879301	1.121608	0.503614
C57	C	0.879206	1.510353	0.775115
C58	C	0.879363	1.510103	0.891268
C59	C	0.926991	1.949788	0.567086
C60	C	0.926969	2.069838	0.567117
C61	C	0.927088	1.446685	0.063082
C62	C	0.927083	1.446641	-0.056968
H63	H	0.420944	1.078080	0.449188
H64	H	0.968147	1.392273	-0.101514
H65	H	0.291067	1.115452	0.621676
H66	H	0.420860	1.456017	0.936908
O67	O	0.824586	2.062615	0.431706
H68	H	0.784532	2.012874	0.478557
H69	H	0.837937	1.942528	0.449324
O70	O	0.434267	0.957974	0.431531
H71	H	0.420682	0.937041	0.349524
O72	O	0.277547	1.645981	0.885145
H73	H	0.286109	1.634659	0.800110
H74	H	0.290807	1.628377	1.108716
H75	H	0.968035	2.114380	0.621449
O76	O	0.434154	1.438376	1.057021
H77	H	0.474272	1.485148	1.007296
O78	O	0.824727	1.582175	0.055909
H79	H	0.838208	1.664222	0.076798
O80	O	0.824711	1.582121	-0.049733
H81	H	0.860023	1.635273	-0.000004
H82	H	0.968151	1.392343	0.107612
O83	O	0.981433	1.890834	0.639022
H84	H	0.946155	1.841109	0.692201
O85	O	0.277779	0.891892	0.639383
H86	H	0.286305	0.806850	0.628068
