data_functionalizedCrystal
_audit_creation_method	'MofGen! by Chris Wilmer'
_symmetry_space_group_name_H-M	'P1'
_symmetry_Int_Tables_number	1
_symmetry_cell_setting	triclinic
loop_
_symmetry_equiv_pos_as_xyz
  x,y,z
_cell_length_a	8.497367
_cell_length_b	8.497374
_cell_length_c	16.625548
_cell_angle_alpha	90.003540
_cell_angle_beta	90.032406
_cell_angle_gamma	90.038609
loop_
_atom_site_label
_atom_site_type_symbol
_atom_site_fract_x
_atom_site_fract_y
_atom_site_fract_z
Zn1	Zn	0.628285	0.892549	1.232858
Zn2	Zn	0.961619	1.225882	1.566192
Zn3	Zn	1.294952	1.559215	1.899525
Zn4	Zn	0.892031	0.628968	1.232933
Zn5	Zn	1.225365	0.962301	1.566267
Zn6	Zn	1.558698	1.295635	1.899600
Zn7	Zn	0.628264	0.628768	1.098060
Zn8	Zn	0.961597	0.962101	1.431394
Zn9	Zn	1.294930	1.295434	1.764727
Zn10	Zn	0.892022	0.892691	1.098122
Zn11	Zn	1.225356	1.226024	1.431456
Zn12	Zn	1.558689	1.559358	1.764789
O13	O	0.760151	0.760744	1.165494
O14	O	1.093484	1.094077	1.498827
O15	O	1.426817	1.427410	1.832160
O16	O	0.663285	0.857608	1.345701
O17	O	0.996618	1.190942	1.679034
O18	O	1.329951	1.524275	2.012367
O19	O	0.857037	0.408179	1.215048
O20	O	1.190370	0.741512	1.548381
O21	O	1.523703	1.074846	1.881714
O22	O	0.407504	0.663615	1.115884
O23	O	0.740837	0.996949	1.449218
O24	O	1.074171	1.330282	1.782551
O25	O	0.857058	0.663957	1.345756
O26	O	1.190391	0.997290	1.679089
O27	O	1.523724	1.330623	2.012422
O28	O	0.407520	0.857414	1.214920
O29	O	0.740853	1.190747	1.548253
O30	O	1.074186	1.524081	1.881587
O31	O	0.663248	0.408032	1.115957
O32	O	0.996581	0.741365	1.449290
O33	O	1.329914	1.074699	1.782624
O34	O	0.663239	0.663753	0.985236
O35	O	0.996572	0.997087	1.318570
O36	O	1.329906	1.330420	1.651903
O37	O	0.857042	1.113434	1.115990
O38	O	1.190376	1.446768	1.449323
O39	O	1.523709	1.780101	1.782657
O40	O	0.857021	0.857657	0.985282
O41	O	1.190355	1.190990	1.318615
O42	O	1.523688	1.524323	1.651948
O43	O	0.663276	1.113330	1.214980
O44	O	0.996609	1.446663	1.548313
O45	O	1.329943	1.779997	1.881647
O46	O	1.112793	0.664095	1.215108
O47	O	1.446126	0.997428	1.548441
O48	O	1.779459	1.330761	1.881774
O49	O	1.112786	0.857851	1.116063
O50	O	1.446120	1.191184	1.449396
O51	O	1.779453	1.524518	1.782729
C52	C	0.760128	0.760700	0.956003
C53	C	1.093461	1.094033	1.289336
C54	C	1.426795	1.427366	1.622669
C55	C	0.760156	0.760718	0.866382
C56	C	1.093490	1.094052	1.199715
C57	C	1.426823	1.427385	1.533048
C58	C	1.348670	0.760598	1.165438
C59	C	1.682003	1.093931	1.498771
C60	C	2.015337	1.427265	1.832104
C61	C	1.170027	0.760886	1.165539
C62	C	1.503360	1.094220	1.498872
C63	C	1.836693	1.427553	1.832206
C64	C	0.760153	1.172224	1.165488
C65	C	1.093486	1.505557	1.498821
C66	C	1.426820	1.838891	1.832154
C67	C	0.760170	1.350868	1.165489
C68	C	1.093503	1.684202	1.498823
C69	C	1.426836	2.017535	1.832156
C70	C	0.760167	0.760786	0.538206
C71	C	1.093500	1.094119	0.871539
C72	C	1.426834	1.427452	1.204873
C73	C	0.760160	0.760762	0.629514
C74	C	1.093493	1.094095	0.962848
C75	C	1.426826	1.427429	1.296181
C76	C	0.760162	0.760751	0.702291
C77	C	1.093496	1.094084	1.035624
C78	C	1.426829	1.427417	1.368958
C79	C	0.760154	0.760729	0.793605
C80	C	1.093487	1.094063	1.126939
C81	C	1.426820	1.427396	1.460272
C82	C	0.760174	0.760789	1.375802
C83	C	1.093508	1.094122	1.709136
C84	C	1.426841	1.427456	2.042469
C85	C	0.760185	0.760808	1.465424
C86	C	1.093518	1.094142	1.798757
C87	C	1.426851	1.427475	2.132090
