data_functionalizedCrystal
_audit_creation_method	'MofGen! by Chris Wilmer'
_symmetry_space_group_name_H-M	'P1'
_symmetry_Int_Tables_number	1
_symmetry_cell_setting	triclinic
loop_
_symmetry_equiv_pos_as_xyz
  x,y,z
_cell_length_a	18.101398
_cell_length_b	29.839131
_cell_length_c	18.101389
_cell_angle_alpha	90.021287
_cell_angle_beta	90.024327
_cell_angle_gamma	90.036686
loop_
_atom_site_label
_atom_site_type_symbol
_atom_site_fract_x
_atom_site_fract_y
_atom_site_fract_z
Zn1	Zn	1.132068	-0.178957	0.418824
Zn2	Zn	1.465401	0.154376	0.752157
Zn3	Zn	1.798735	0.487710	1.085491
Zn4	Zn	1.131941	-0.254074	0.294976
Zn5	Zn	1.465275	0.079259	0.628310
Zn6	Zn	1.798608	0.412593	0.961643
Zn7	Zn	1.008227	-0.178952	0.294985
Zn8	Zn	1.341560	0.154381	0.628318
Zn9	Zn	1.674893	0.487714	0.961652
Zn10	Zn	1.008155	-0.254055	0.418765
Zn11	Zn	1.341489	0.079279	0.752098
Zn12	Zn	1.674822	0.412612	1.085431
O13	O	1.070098	-0.216510	0.356887
O14	O	1.403431	0.116824	0.690221
O15	O	1.736765	0.450157	1.023554
O16	O	1.235684	-0.188932	0.402416
O17	O	1.569017	0.144402	0.735750
O18	O	1.902351	0.477735	1.069083
O19	O	1.115507	-0.244115	0.191344
O20	O	1.448841	0.089218	0.524678
O21	O	1.782174	0.422552	0.858011
O22	O	1.024737	-0.116086	0.311441
O23	O	1.358071	0.217247	0.644774
O24	O	1.691404	0.550581	0.978108
O25	O	1.235591	-0.244119	0.311426
O26	O	1.568924	0.089214	0.644759
O27	O	1.902258	0.422547	0.978093
O28	O	1.115723	-0.116089	0.402425
O29	O	1.449056	0.217244	0.735758
O30	O	1.782390	0.550577	1.069092
O31	O	1.024615	-0.188924	0.191351
O32	O	1.357948	0.144410	0.524684
O33	O	1.691282	0.477743	0.858018
O34	O	0.904584	-0.188905	0.311384
O35	O	1.237918	0.144428	0.644717
O36	O	1.571251	0.477762	0.978050
O37	O	1.024615	-0.244087	0.522406
O38	O	1.357949	0.089247	0.855739
O39	O	1.691282	0.422580	1.189072
O40	O	0.904532	-0.244082	0.402324
O41	O	1.237865	0.089251	0.735657
O42	O	1.571199	0.422584	1.068991
O43	O	1.115654	-0.188913	0.522449
O44	O	1.448987	0.144420	0.855782
O45	O	1.782320	0.477754	1.189116
O46	O	1.115438	-0.316938	0.311369
O47	O	1.448771	0.016395	0.644702
O48	O	1.782105	0.349728	0.978035
O49	O	1.024493	-0.316924	0.402315
O50	O	1.357826	0.016409	0.735649
O51	O	1.691160	0.349742	1.068982
C52	C	0.877687	-0.216491	0.356849
C53	C	1.211021	0.116842	0.690182
C54	C	1.544354	0.450175	1.023516
C55	C	0.795373	-0.216494	0.356850
C56	C	1.128707	0.116839	0.690183
C57	C	1.462040	0.450172	1.023517
C58	C	0.496282	-0.216522	0.356912
C59	C	0.829616	0.116811	0.690245
C60	C	1.162949	0.450144	1.023579
C61	C	0.527616	-0.181633	0.299974
C62	C	0.860949	0.151700	0.633307
C63	C	1.194283	0.485034	0.966641
C64	C	0.613234	-0.181726	0.299731
C65	C	0.946567	0.151607	0.633064
C66	C	1.279901	0.484940	0.966398
C67	C	0.644665	-0.216508	0.356881
C68	C	0.977998	0.116825	0.690215
C69	C	1.311331	0.450159	1.023548
C70	C	0.613533	-0.263830	0.335553
C71	C	0.946866	0.069503	0.668886
C72	C	1.280199	0.402836	1.002219
C73	C	0.527888	-0.263636	0.335157
C74	C	0.861221	0.069697	0.668490
C75	C	1.194554	0.403030	1.001824
C76	C	0.527900	-0.204501	0.435313
C77	C	0.861234	0.128832	0.768646
C78	C	1.194567	0.462166	1.101979
C79	C	0.613552	-0.203447	0.434885
C80	C	0.946885	0.129886	0.768218
C81	C	1.280218	0.463219	1.101551
C82	C	0.728524	-0.216503	0.356865
C83	C	1.061858	0.116830	0.690198
C84	C	1.395191	0.450164	1.023532
C85	C	0.412423	-0.216531	0.356926
C86	C	0.745756	0.116803	0.690260
C87	C	1.079089	0.450136	1.023593
C88	C	1.069964	-0.333232	0.356851
C89	C	1.403297	0.000101	0.690184
C90	C	1.736631	0.333435	1.023517
C91	C	1.069975	-0.383167	0.356860
C92	C	1.403308	-0.049833	0.690193
C93	C	1.736641	0.283500	1.023526
C94	C	1.117539	-0.692805	0.309601
C95	C	1.450872	-0.359471	0.642934
C96	C	1.784206	-0.026138	0.976267
C97	C	1.117631	-0.880478	0.309629
C98	C	1.450964	-0.547144	0.642963
C99	C	1.784297	-0.213811	0.976296
O100	O	1.157965	-0.904738	0.269420
O101	O	1.491299	-0.571405	0.602753
O102	O	1.824632	-0.238071	0.936086
N103	N	1.070251	-0.903952	0.356943
N104	N	1.403585	-0.570618	0.690277
N105	N	1.736918	-0.237285	1.023610
C106	C	1.022849	-0.880504	0.404257
C107	C	1.356183	-0.547171	0.737590
C108	C	1.689516	-0.213838	1.070924
O109	O	0.982558	-0.904777	0.444506
O110	O	1.315891	-0.571443	0.777840
O111	O	1.649225	-0.238110	1.111173
C112	C	1.022762	-0.692832	0.404231
C113	C	1.356096	-0.359499	0.737565
C114	C	1.689429	-0.026166	1.070898
C115	C	1.070139	-0.669361	0.356909
C116	C	1.403473	-0.336027	0.690242
C117	C	1.736806	-0.002694	1.023576
C118	C	1.164913	-0.669333	0.262283
C119	C	1.498246	-0.336000	0.595616
C120	C	1.831579	-0.002666	0.928949
C121	C	1.164887	-0.622418	0.262273
C122	C	1.498220	-0.289084	0.595606
C123	C	1.831553	0.044249	0.928940
C124	C	1.117487	-0.598974	0.309582
C125	C	1.450820	-0.265640	0.642915
C126	C	1.784153	0.067693	0.976248
C127	C	1.070113	-0.622445	0.356899
C128	C	1.403446	-0.289112	0.690233
C129	C	1.736780	0.044221	1.023566
C130	C	0.975365	-0.669386	0.451548
C131	C	1.308698	-0.336052	0.784881
C132	C	1.642031	-0.002719	1.118215
C133	C	0.975348	-0.622465	0.451539
C134	C	1.308682	-0.289131	0.784872
C135	C	1.642015	0.044202	1.118206
C136	C	1.022725	-0.598993	0.404217
C137	C	1.356059	-0.265660	0.737550
C138	C	1.689392	0.067673	1.070883
C139	C	1.022687	-0.552086	0.404198
C140	C	1.356020	-0.218753	0.737532
C141	C	1.689354	0.114581	1.070865
N142	N	1.070066	-0.528612	0.356884
N143	N	1.403400	-0.195279	0.690218
N144	N	1.736733	0.138055	1.023551
C145	C	1.117466	-0.552056	0.309576
C146	C	1.450799	-0.218723	0.642909
C147	C	1.784133	0.114611	0.976243
C148	C	1.022898	-0.979035	0.404266
C149	C	1.356231	-0.645702	0.737599
C150	C	1.689564	-0.312368	1.070933
C151	C	1.022918	-1.025953	0.404272
C152	C	1.356252	-0.692619	0.737605
C153	C	1.689585	-0.359286	1.070938
C154	C	1.117700	-1.025923	0.309645
C155	C	1.451034	-0.692590	0.642978
C156	C	1.784367	-0.359256	0.976311
C157	C	1.117675	-0.979004	0.309636
C158	C	1.451009	-0.645671	0.642969
C159	C	1.784342	-0.312338	0.976303
C160	C	1.070277	-0.955561	0.356952
C161	C	1.403610	-0.622228	0.690285
C162	C	1.736943	-0.288894	1.023619
C163	C	1.117407	-0.453530	0.309559
C164	C	1.450740	-0.120197	0.642892
C165	C	1.784074	0.213137	0.976226
C166	C	1.117374	-0.406610	0.309551
C167	C	1.450708	-0.073277	0.642885
C168	C	1.784041	0.260056	0.976218
C169	C	1.022595	-0.406645	0.404181
C170	C	1.355929	-0.073311	0.737514
C171	C	1.689262	0.260022	1.070847
C172	C	1.022625	-0.453560	0.404186
C173	C	1.355958	-0.120227	0.737519
C174	C	1.689291	0.213107	1.070852
C175	C	1.070037	-0.477002	0.356872
C176	C	1.403370	-0.143668	0.690206
C177	C	1.736703	0.189665	1.023539
O178	O	0.982379	-0.527797	0.444393
O179	O	1.315713	-0.194463	0.777726
O180	O	1.649046	0.138870	1.111059
O181	O	1.157763	-0.527776	0.269344
O182	O	1.491096	-0.194442	0.602677
O183	O	1.824430	0.138891	0.936011
C184	C	1.117565	-0.739720	0.309610
C185	C	1.450899	-0.406387	0.642944
C186	C	1.784232	-0.073053	0.976277
C187	C	1.070192	-0.763192	0.356928
C188	C	1.403525	-0.429858	0.690261
C189	C	1.736858	-0.096525	1.023595
C190	C	1.022792	-0.739748	0.404236
C191	C	1.356125	-0.406414	0.737570
C192	C	1.689458	-0.073081	1.070903
C193	C	1.070212	-0.810109	0.356934
C194	C	1.403546	-0.476776	0.690267
C195	C	1.736879	-0.143443	1.023600
C196	C	1.117612	-0.833553	0.309625
C197	C	1.450946	-0.500220	0.642959
C198	C	1.784279	-0.166887	0.976292
C199	C	1.164991	-0.810079	0.262311
C200	C	1.498325	-0.476746	0.595645
C201	C	1.831658	-0.143413	0.928978
C202	C	1.164965	-0.763164	0.262302
C203	C	1.498298	-0.429831	0.595635
C204	C	1.831632	-0.096497	0.928969
C205	C	0.975413	-0.763222	0.451550
C206	C	1.308746	-0.429888	0.784884
C207	C	1.642079	-0.096555	1.118217
C208	C	0.975442	-0.810137	0.451556
C209	C	1.308775	-0.476804	0.784889
C210	C	1.642109	-0.143470	1.118222
C211	C	1.022842	-0.833581	0.404247
C212	C	1.356175	-0.500248	0.737581
C213	C	1.689509	-0.166914	1.070914
C214	C	1.263260	-0.216528	0.356927
C215	C	1.596593	0.116805	0.690260
C216	C	1.929926	0.450138	1.023593
C217	C	1.345574	-0.216536	0.356943
C218	C	1.678907	0.116797	0.690277
C219	C	2.012240	0.450131	1.023610
C220	C	1.070141	-0.216498	0.550049
C221	C	1.403474	0.116835	0.883383
C222	C	1.736807	0.450168	1.216716
C223	C	1.070159	-0.216493	0.632364
C224	C	1.403492	0.116840	0.965697
C225	C	1.736826	0.450173	1.299030
C226	C	1.070252	-0.099331	0.356941
C227	C	1.403586	0.234002	0.690274
C228	C	1.736919	0.567335	1.023607
C229	C	1.070318	-0.049397	0.356963
C230	C	1.403651	0.283937	0.690297
C231	C	1.736985	0.617270	1.023630
C232	C	1.070098	-0.216488	0.164477
C233	C	1.403431	0.116845	0.497810
C234	C	1.736765	0.450178	0.831144
C235	C	1.070223	-0.216367	0.082163
C236	C	1.403557	0.116967	0.415497
C237	C	1.736890	0.450300	0.748830
C238	C	1.070202	-0.216409	0.931455
C239	C	1.403535	0.116924	1.264788
C240	C	1.736869	0.450258	1.598121
C241	C	1.012726	-0.251013	0.900102
C242	C	1.346060	0.082321	1.233436
C243	C	1.679393	0.415654	1.566769
C244	C	1.012881	-0.251173	0.814484
C245	C	1.346215	0.082160	1.147817
C246	C	1.679548	0.415494	1.481151
C247	C	1.070180	-0.216451	0.783072
C248	C	1.403513	0.116882	1.116405
C249	C	1.736847	0.450216	1.449739
C250	C	1.148202	-0.229306	0.814177
C251	C	1.481535	0.104028	1.147510
C252	C	1.814868	0.437361	1.480843
C253	C	1.147881	-0.229533	0.899822
C254	C	1.481215	0.103800	1.233155
C255	C	1.814548	0.437134	1.566488
C256	C	1.050335	-0.168874	0.899883
C257	C	1.383668	0.164459	1.233216
C258	C	1.717001	0.497793	1.566550
C259	C	1.048599	-0.169148	0.814232
C260	C	1.381932	0.164185	1.147565
C261	C	1.715265	0.497518	1.480899
C262	C	1.070172	-0.216474	0.699213
C263	C	1.403506	0.116860	1.032546
C264	C	1.736839	0.450193	1.365879
C265	C	1.070215	-0.216387	1.015314
C266	C	1.403548	0.116946	1.348648
C267	C	1.736882	0.450279	1.681981
H268	H	0.634950	-0.227008	0.479581
H269	H	0.968283	0.106326	0.812915
H270	H	1.301616	0.439659	1.146248
H271	H	0.955025	-0.243128	0.793452
H272	H	1.288358	0.090205	1.126785
H273	H	1.621692	0.423538	1.460119
H274	H	0.984332	-1.045059	0.442799
H275	H	1.317666	-0.711726	0.776133
H276	H	1.650999	-0.378393	1.109466
Cl277	Cl	0.644951	-0.305041	0.397580
Cl278	Cl	0.978284	0.028292	0.730914
Cl279	Cl	1.311617	0.361626	1.064247
Cl280	Cl	1.224578	-0.839561	0.202837
Cl281	Cl	1.557911	-0.506228	0.536171
Cl282	Cl	1.891244	-0.172894	0.869504
H283	H	1.203544	-0.744057	0.223768
H284	H	1.536877	-0.410724	0.557101
H285	H	1.870211	-0.077390	0.890434
H286	H	0.991182	-0.159454	0.793901
H287	H	1.324515	0.173879	1.127234
H288	H	1.657848	0.507212	1.460568
H289	H	1.156016	-0.472611	0.271034
H290	H	1.489349	-0.139277	0.604367
H291	H	1.822683	0.194056	0.937700
H292	H	0.984049	-0.472671	0.442722
H293	H	1.317382	-0.139338	0.776055
H294	H	1.650716	0.193995	1.109388
Cl295	Cl	0.495878	-0.305131	0.396386
Cl296	Cl	0.829212	0.028202	0.729719
Cl297	Cl	1.162545	0.361536	1.063052
Cl298	Cl	1.176939	-0.377106	0.250056
Cl299	Cl	1.510272	-0.043773	0.583390
Cl300	Cl	1.843605	0.289560	0.916723
Cl301	Cl	0.915758	-0.592996	0.511027
Cl302	Cl	1.249092	-0.259663	0.844360
Cl303	Cl	1.582425	0.073670	1.177694
H304	H	0.936782	-0.688488	0.490080
H305	H	1.270115	-0.355155	0.823413
H306	H	1.603448	-0.021822	1.156746
Cl307	Cl	0.963302	-0.949570	0.463754
Cl308	Cl	1.296636	-0.616237	0.797087
Cl309	Cl	1.629969	-0.282904	1.130420
H310	H	1.165337	-0.263685	0.792732
H311	H	1.498670	0.069648	1.126065
H312	H	1.832004	0.402981	1.459398
Cl313	Cl	1.216096	-0.191617	0.782770
Cl314	Cl	1.549430	0.141716	1.116104
Cl315	Cl	1.882763	0.475049	1.449437
H316	H	0.936815	-0.744137	0.490076
H317	H	1.270148	-0.410804	0.823409
H318	H	1.603482	-0.077471	1.156742
Cl319	Cl	0.646585	-0.279846	0.248018
Cl320	Cl	0.979919	0.053487	0.581351
Cl321	Cl	1.313252	0.386821	0.914684
H322	H	0.984001	-0.387549	0.442696
H323	H	1.317334	-0.054216	0.776030
H324	H	1.650667	0.279118	1.109363
Cl325	Cl	0.915875	-0.839638	0.511052
Cl326	Cl	1.249209	-0.506305	0.844386
Cl327	Cl	1.582542	-0.172972	1.177719
Cl328	Cl	0.494615	-0.152151	0.465249
Cl329	Cl	0.827948	0.181182	0.798583
Cl330	Cl	1.161282	0.514516	1.131916
H331	H	1.025997	-0.286408	0.793999
H332	H	1.359330	0.046926	1.127332
H333	H	1.692663	0.380259	1.460665
H334	H	1.156254	-0.959896	0.271103
H335	H	1.489587	-0.626563	0.604436
H336	H	1.822921	-0.293230	0.937769
H337	H	0.507873	-0.273832	0.277842
H338	H	0.841206	0.059501	0.611176
H339	H	1.174539	0.392835	0.944509
H340	H	1.087408	-0.141998	0.792850
H341	H	1.420741	0.191335	1.126183
H342	H	1.754074	0.524669	1.459517
H343	H	0.954696	-0.243050	0.920689
H344	H	1.288029	0.090283	1.254022
H345	H	1.621362	0.423616	1.587355
H346	H	1.025711	-0.286032	0.921625
H347	H	1.359045	0.047301	1.254958
H348	H	1.692378	0.380635	1.588291
H349	H	0.994431	-0.157163	0.921470
H350	H	1.327764	0.176170	1.254803
H351	H	1.661098	0.509504	1.588137
Cl352	Cl	1.114967	-0.129069	0.931190
Cl353	Cl	1.448300	0.204264	1.264523
Cl354	Cl	1.781633	0.537597	1.597856
Cl355	Cl	0.644815	-0.193993	0.210037
Cl356	Cl	0.978148	0.139340	0.543371
Cl357	Cl	1.311481	0.472674	0.876704
H358	H	1.164725	-0.264282	0.919802
H359	H	1.498059	0.069052	1.253136
H360	H	1.831392	0.402385	1.586469
Cl361	Cl	1.216198	-0.192285	0.931850
Cl362	Cl	1.549531	0.141048	1.265183
Cl363	Cl	1.882865	0.474381	1.598517
H364	H	0.633906	-0.168623	0.450967
H365	H	0.967239	0.164710	0.784300
H366	H	1.300573	0.498043	1.117634
Cl367	Cl	1.224461	-0.592918	0.202790
Cl368	Cl	1.557794	-0.259584	0.536123
Cl369	Cl	1.891128	0.073749	0.869457
H370	H	0.634285	-0.146635	0.313101
H371	H	0.967618	0.186699	0.646434
H372	H	1.300952	0.520032	0.979767
Cl373	Cl	1.177288	-1.055404	0.250171
Cl374	Cl	1.510621	-0.722070	0.583504
Cl375	Cl	1.843954	-0.388737	0.916837
H376	H	0.506064	-0.189489	0.242218
H377	H	0.839398	0.143844	0.575552
H378	H	1.172731	0.477177	0.908885
Cl379	Cl	0.495874	-0.127286	0.320385
Cl380	Cl	0.829207	0.206047	0.653718
Cl381	Cl	1.162540	0.539380	0.987051
H382	H	0.507636	-0.229913	0.477737
H383	H	0.840970	0.103420	0.811070
H384	H	1.174303	0.436753	1.144403
H385	H	1.203515	-0.688416	0.223758
H386	H	1.536849	-0.355083	0.557092
H387	H	1.870182	-0.021750	0.890425
