data_functionalizedCrystal
_audit_creation_method	'MofGen! by Chris Wilmer'
_symmetry_space_group_name_H-M	'P1'
_symmetry_Int_Tables_number	1
_symmetry_cell_setting	triclinic
loop_
_symmetry_equiv_pos_as_xyz
  x,y,z
_cell_length_a	10.654541
_cell_length_b	16.109301
_cell_length_c	15.186229
_cell_angle_alpha	90.005167
_cell_angle_beta	90.002014
_cell_angle_gamma	83.972705
loop_
_atom_site_label
_atom_site_type_symbol
_atom_site_fract_x
_atom_site_fract_y
_atom_site_fract_z
O1	O	-1.666258	-0.116763	-0.073205
O2	O	-1.300628	-0.127891	-0.073213
O3	O	-1.493487	-0.001356	-0.073200
O4	O	-1.473399	-0.243298	-0.073218
O5	O	-1.493474	-0.001354	0.073258
O6	O	-1.300615	-0.127889	0.073245
O7	O	-1.666245	-0.116761	0.073253
Zn8	Zn	-1.483428	-0.122325	0.096502
Zn9	Zn	-1.483445	-0.122327	-0.096462
O10	O	-1.473386	-0.243297	0.073239
C11	C	-1.253835	-0.127073	0.000015
C12	C	-1.114424	-0.124630	0.000012
C13	C	-1.713038	-0.117579	0.000023
C14	C	-1.852449	-0.120022	0.000020
C15	C	-1.084401	-0.275937	-0.000010
C16	C	-1.003896	-0.350439	-0.000025
C17	C	-0.872909	-0.348139	-0.000026
C18	C	-0.822426	-0.271327	-0.000009
C19	C	-0.902931	-0.196825	0.000006
C20	C	-1.033919	-0.199134	0.000004
C21	C	-0.932954	-0.045520	0.000035
C22	C	-1.063941	-0.047819	0.000029
C23	C	-0.882471	0.031291	0.000051
C24	C	-0.962976	0.105795	0.000060
C25	C	-1.093970	0.103491	0.000059
C26	C	-1.144446	0.026683	0.000044
C27	C	-1.492667	0.029625	0.000030
C28	C	-1.490227	0.121935	0.000031
C29	C	-1.474206	-0.274277	0.000008
C30	C	-1.476646	-0.366587	0.000001
N31	N	-1.483426	-0.122323	0.228194
C32	C	-1.598994	0.343561	0.000019
C33	C	-1.596692	0.430295	0.000012
C34	C	-1.367871	0.411780	0.000010
C35	C	-1.370174	0.325047	0.000011
C36	C	-1.485739	0.290941	0.000020
C37	C	-1.481134	0.464407	0.000012
C38	C	-1.478637	0.558448	0.000004
C39	C	-1.488237	0.196894	0.000026
N40	N	-1.483457	-0.122323	-0.228155
C41	C	-1.568853	-0.066312	0.453923
C42	C	-1.568857	-0.066310	0.546113
C43	C	-1.398021	-0.178336	0.546110
C44	C	-1.398012	-0.178333	0.453922
C45	C	-1.483435	-0.122323	0.407831
C46	C	-1.483448	-0.122323	0.592209
C47	C	-1.483452	-0.122322	0.692165
C48	C	-1.483430	-0.122323	0.307869
H49	H	-1.191055	-0.277818	-0.000029
O50	O	-0.914085	0.180452	-0.000042
C51	C	-0.955189	0.225910	-0.075900
H52	H	-1.046028	0.202731	-0.101197
H53	H	-0.973396	0.295040	-0.058831
H54	H	-0.879384	0.216717	-0.129011
H55	H	-1.638410	-0.020701	0.583638
O56	O	-1.271664	0.024338	-0.000074
C57	C	-1.307201	-0.017903	-0.075946
H58	H	-1.222952	-0.060745	-0.101246
H59	H	-1.387448	-0.056642	-0.058893
H60	H	-1.339940	0.029517	-0.129048
O61	O	-1.260235	0.273841	0.000129
C62	C	-1.254705	0.223135	0.075990
H63	H	-1.354382	0.218186	0.101281
H64	H	-1.207912	0.158224	0.058927
H65	H	-1.197349	0.251993	0.129103
H66	H	-1.638407	-0.020704	0.416398
O67	O	-1.172297	0.175809	-0.000044
C68	C	-1.248943	0.179024	-0.075908
H69	H	-1.255538	0.112997	-0.101211
H70	H	-1.347404	0.209424	-0.058845
H71	H	-1.205866	0.217250	-0.129013
H72	H	-1.328473	-0.223940	0.583647
H73	H	-1.693094	0.315794	0.000025
O74	O	-1.053145	-0.424980	-0.000078
C75	C	-1.186019	-0.411040	-0.000052
H76	H	-1.216814	-0.346336	-0.027770
H77	H	-1.226218	-0.460231	-0.042578
H78	H	-1.222472	-0.415284	0.070211
O79	O	-0.794879	-0.420586	-0.000080
C80	C	-0.867516	-0.488875	-0.000070
H81	H	-0.965294	-0.468342	-0.027790
H82	H	-0.819170	-0.541115	-0.042602
H83	H	-0.876819	-0.512390	0.070189
O84	O	-0.695177	-0.269136	-0.000158
C85	C	-0.643175	-0.309881	-0.076001
H86	H	-0.718921	-0.309871	-0.129022
H87	H	-0.562007	-0.275744	-0.101452
H88	H	-0.606544	-0.376973	-0.058859
H89	H	-0.775813	0.033159	0.000056
O90	O	-1.706623	0.481496	0.000129
C91	C	-1.712149	0.532217	0.075988
H92	H	-1.612470	0.537177	0.101275
H93	H	-1.758952	0.597122	0.058923
H94	H	-1.769493	0.503367	0.129105
O95	O	-1.315207	-0.232784	0.409047
C96	C	-1.382435	-0.284499	0.355726
H97	H	-1.480712	-0.251985	0.341915
H98	H	-1.330012	-0.297328	0.290901
H99	H	-1.390944	-0.346000	0.391245
O100	O	-1.255586	0.444875	-0.000148
C101	C	-1.186537	0.418028	-0.075989
H102	H	-1.254113	0.399597	-0.129005
H103	H	-1.133130	0.470867	-0.101449
H104	H	-1.116534	0.361914	-0.058840
