data_functionalizedCrystal
_audit_creation_method	'MofGen! by Chris Wilmer'
_symmetry_space_group_name_H-M	'P1'
_symmetry_Int_Tables_number	1
_symmetry_cell_setting	triclinic
loop_
_symmetry_equiv_pos_as_xyz
  x,y,z
_cell_length_a	19.077105
_cell_length_b	13.897448
_cell_length_c	13.897441
_cell_angle_alpha	89.969401
_cell_angle_beta	87.680829
_cell_angle_gamma	87.714101
loop_
_atom_site_label
_atom_site_type_symbol
_atom_site_fract_x
_atom_site_fract_y
_atom_site_fract_z
Zn1	Zn	1.076041	-0.443323	-0.604588
Zn2	Zn	1.576041	0.056677	-0.104588
Zn3	Zn	1.075964	-0.604640	-0.443285
Zn4	Zn	1.575964	-0.104640	0.056715
Zn5	Zn	0.958338	-0.436874	-0.436830
Zn6	Zn	1.458338	0.063126	0.063170
Zn7	Zn	0.958325	-0.598086	-0.598065
Zn8	Zn	1.458325	-0.098086	-0.098065
O9	O	1.017167	-0.520731	-0.520692
O10	O	1.517167	-0.020731	-0.020692
O11	O	1.174522	-0.470164	-0.588622
O12	O	1.674522	0.029836	-0.088622
O13	O	1.060334	-0.582430	-0.307446
O14	O	1.560334	-0.082430	0.192554
O15	O	0.973989	-0.302750	-0.459112
O16	O	1.473989	0.197250	0.040888
O17	O	1.174465	-0.588683	-0.470114
O18	O	1.674465	-0.088683	0.029886
O19	O	1.060465	-0.307488	-0.582363
O20	O	1.560465	0.192512	-0.082363
O21	O	0.973914	-0.459173	-0.302703
O22	O	1.473914	0.040827	0.197297
O23	O	0.859845	-0.452818	-0.452787
O24	O	1.359845	0.047182	0.047213
O25	O	0.973967	-0.577512	-0.733913
O26	O	1.473967	-0.077512	-0.233913
O27	O	0.859835	-0.571259	-0.571245
O28	O	1.359835	-0.071259	-0.071245
O29	O	1.060452	-0.463808	-0.738706
O30	O	1.560452	0.036192	-0.238706
O31	O	1.060321	-0.738750	-0.463788
O32	O	1.560321	-0.238750	0.036212
O33	O	0.973892	-0.733935	-0.577504
O34	O	1.473892	-0.233935	-0.077504
C35	C	0.834302	-0.510628	-0.510608
C36	C	1.334302	-0.010628	-0.010608
C37	C	0.756071	-0.506330	-0.506317
C38	C	1.256071	-0.006330	-0.006317
C39	C	1.017115	-0.771342	-0.520661
C40	C	1.517115	-0.271342	-0.020661
C41	C	1.017158	-0.878559	-0.520684
C42	C	1.517158	-0.378559	-0.020684
C43	C	0.719332	-0.566069	-0.565879
C44	C	1.219332	-0.066069	-0.065879
C45	C	0.645826	-0.562017	-0.561852
C46	C	1.145826	-0.062017	-0.061852
C47	C	0.609061	-0.498230	-0.498257
C48	C	1.109061	0.001770	0.001743
C49	C	0.645806	-0.438484	-0.438693
C50	C	1.145806	0.061516	0.061307
C51	C	0.719310	-0.442532	-0.442725
C52	C	1.219310	0.057468	0.057275
C53	C	0.389225	-0.479497	-0.479598
C54	C	0.889225	0.020503	0.020402
C55	C	0.315716	-0.475456	-0.475567
C56	C	0.815716	0.024544	0.024433
C57	C	0.315741	-0.598989	-0.598729
C58	C	0.815741	-0.098989	-0.098729
C59	C	0.389247	-0.603035	-0.602752
C60	C	0.889247	-0.103035	-0.102752
C61	C	0.425985	-0.543285	-0.543191
C62	C	0.925985	-0.043285	-0.043191
N63	N	0.533927	-0.494089	-0.494137
N64	N	1.033927	0.005911	0.005863
N65	N	0.501118	-0.547422	-0.547316
N66	N	1.001118	-0.047422	-0.047316
C67	C	1.017232	-1.074858	-0.520748
C68	C	1.517232	-0.574858	-0.020748
C69	C	1.017189	-0.965623	-0.520715
C70	C	1.517189	-0.465623	-0.020715
C71	C	1.200746	-0.530874	-0.530816
C72	C	1.700746	-0.030874	-0.030816
C73	C	1.278976	-0.535196	-0.535130
C74	C	1.778976	-0.035196	-0.035130
C75	C	1.017217	-0.520648	-0.772288
C76	C	1.517217	-0.020648	-0.272288
C77	C	1.017238	-0.520613	-0.879503
C78	C	1.517238	-0.020613	-0.379503
C79	C	1.017237	-0.269142	-0.520745
C80	C	1.517237	0.230858	-0.020745
C81	C	1.017268	-0.161929	-0.520768
C82	C	1.517268	0.338071	-0.020768
C83	C	1.017257	-0.520549	-1.075799
C84	C	1.517257	-0.020549	-0.575799
C85	C	1.017244	-0.520587	-0.966566
C86	C	1.517244	-0.020587	-0.466566
C87	C	1.017158	-0.520746	-0.270077
C88	C	1.517158	-0.020746	0.229923
C89	C	1.017273	-0.520517	-0.162870
C90	C	1.517273	-0.020517	0.337130
H91	H	0.749261	-0.618015	-0.617662
H92	H	1.249261	-0.118015	-0.117662
N93	N	0.606199	-0.626464	-0.626080
N94	N	1.106199	-0.126464	-0.126080
H95	H	0.640643	-0.667496	-0.666969
H96	H	1.140643	-0.167496	-0.166969
H97	H	0.575684	-0.669366	-0.585047
H98	H	1.075684	-0.169366	-0.085047
H99	H	0.615866	-0.386543	-0.386917
H100	H	1.115866	0.113457	0.113083
H101	H	0.749223	-0.393880	-0.394229
H102	H	1.249223	0.106120	0.105771
N103	N	0.276112	-0.663425	-0.662965
N104	N	0.776112	-0.163425	-0.162965
H105	H	0.245638	-0.622602	-0.706063
H106	H	0.745638	-0.122602	-0.206063
H107	H	0.310599	-0.704438	-0.703802
H108	H	0.810599	-0.204438	-0.203802
H109	H	0.285784	-0.423502	-0.423787
H110	H	0.785784	0.076498	0.076213
H111	H	0.419176	-0.654979	-0.654535
H112	H	0.919176	-0.154979	-0.154535
N113	N	0.428845	-0.415041	-0.415375
N114	N	0.928845	0.084959	0.084625
H115	H	0.394399	-0.374018	-0.374481
H116	H	0.894399	0.125982	0.125519
H117	H	0.459328	-0.455909	-0.372333
H118	H	0.959328	0.044091	0.127667
