data_functionalizedCrystal
_audit_creation_method	'MofGen! by Chris Wilmer'
_symmetry_space_group_name_H-M	'P1'
_symmetry_Int_Tables_number	1
_symmetry_cell_setting	triclinic
loop_
_symmetry_equiv_pos_as_xyz
  x,y,z
_cell_length_a	18.101395
_cell_length_b	19.077142
_cell_length_c	19.076919
_cell_angle_alpha	90.074357
_cell_angle_beta	87.727683
_cell_angle_gamma	92.273342
loop_
_atom_site_label
_atom_site_type_symbol
_atom_site_fract_x
_atom_site_fract_y
_atom_site_fract_z
Zn1	Zn	-0.358289	-1.058229	0.440456
Zn2	Zn	-0.477362	-1.062856	0.322951
Zn3	Zn	-0.348367	-0.945448	0.318246
Zn4	Zn	-0.476913	-0.940678	0.435699
O5	O	-0.415233	-1.001803	0.379338
O6	O	-0.378425	-1.157174	0.428829
O7	O	-0.456285	-1.051214	0.223995
O8	O	-0.246053	-0.960469	0.334479
O9	O	-0.465907	-1.160573	0.342498
O10	O	-0.253343	-1.043329	0.424266
O11	O	-0.361513	-0.964955	0.220539
O12	O	-0.361078	-0.846484	0.329866
O13	O	-0.465142	-0.952339	0.534661
O14	O	-0.455521	-0.842980	0.416159
O15	O	-0.377990	-1.038703	0.538156
O16	O	-0.580932	-1.046589	0.337885
O17	O	-0.580602	-0.956825	0.420721
C18	C	-0.407175	-0.819236	0.371986
C19	C	-0.403746	-0.741132	0.368858
C20	C	-0.607638	-1.001710	0.379313
C21	C	-0.689954	-1.001733	0.379329
C22	C	-0.451375	-0.702635	0.412245
C23	C	-0.448143	-0.629248	0.409309
C24	C	-0.397286	-0.594360	0.362982
C25	C	-0.349652	-0.632862	0.319592
C26	C	-0.352881	-0.706247	0.322532
C27	C	-0.382348	-0.375075	0.349382
C28	C	-0.379125	-0.301684	0.346443
C29	C	-0.477615	-0.298076	0.436161
C30	C	-0.480842	-0.371463	0.439094
C31	C	-0.433205	-0.409958	0.395708
N32	N	-0.393984	-0.519347	0.359978
N33	N	-0.436505	-0.484970	0.398716
C34	C	-0.989053	-1.001886	0.379373
C35	C	-0.957562	-0.945529	0.431631
C36	C	-0.871926	-0.945279	0.431450
C37	C	-0.840667	-1.001810	0.379352
C38	C	-0.867928	-0.984740	0.304491
C39	C	-0.953571	-0.984378	0.304802
C40	C	-0.961442	-1.075457	0.401329
C41	C	-0.875838	-1.074955	0.402936
C42	C	-0.756805	-1.001769	0.379335
C43	C	-1.072915	-1.001926	0.379385
C44	C	-0.222077	-1.001915	0.379379
C45	C	-0.139766	-1.001963	0.379396
C46	C	-0.422623	-0.994473	0.562618
C47	C	-0.425772	-0.991349	0.640721
C48	C	-0.423318	-0.185083	0.386710
C49	C	-0.426753	-0.263187	0.389831
C50	C	-0.407820	-1.009145	0.196773
C51	C	-0.404468	-1.012405	0.118675
C52	C	-0.381878	-1.034844	0.679235
C53	C	-0.384834	-1.031901	0.752620
C54	C	-0.431688	-0.985465	0.787491
C55	C	-0.475584	-0.941964	0.748972
C56	C	-0.472624	-0.944905	0.675588
C57	C	-0.445403	-0.971845	1.006772
C58	C	-0.448362	-0.968909	1.080162
C59	C	-0.357610	-1.058845	1.083805
C60	C	-0.354658	-1.061785	1.010419
C61	C	-0.398550	-1.018282	0.971906
N62	N	-0.434712	-0.982456	0.862503
N63	N	-0.395522	-1.021287	0.896895
H64	H	-0.492790	-0.731036	0.449968
H65	H	-0.985951	-1.091601	0.455144
H66	H	-0.853645	-0.955614	0.486866
H67	H	-0.980894	-0.955733	0.487219
H68	H	-0.843510	-0.931636	0.285974
Br69	Br	-0.542264	-0.245829	0.495037
H70	H	-0.513731	-0.904153	0.777370
H71	H	-0.314092	-0.737590	0.287205
Br72	Br	-0.325296	-1.090966	0.804888
H73	H	-0.508359	-0.909479	0.644230
Br74	Br	-0.310107	-0.254336	0.283558
Br75	Br	-0.846700	-1.096503	0.494788
H76	H	-0.854805	-1.118925	0.367885
H77	H	-0.848565	-0.890686	0.416671
Br78	Br	-0.512784	-0.577005	0.468197
Br79	Br	-0.995488	-1.145382	0.337964
H80	H	-0.316506	-1.099600	0.982032
Br81	Br	-0.988700	-0.855086	0.407304
Br82	Br	-0.298044	-1.117880	1.136075
Br83	Br	-0.549869	-0.418807	0.501966
Br84	Br	-0.981904	-0.894889	0.274380
Br85	Br	-0.988038	-1.050085	0.237422
H86	H	-0.343726	-1.072660	0.650848
H87	H	-0.486518	-0.931093	1.108551
Br88	Br	-0.504971	-0.912804	0.954514
Br89	Br	-0.833967	-1.051220	0.237604
H90	H	-0.343564	-0.406409	0.314048
Br91	Br	-0.280624	-0.585514	0.256725
