data_functionalizedCrystal
_audit_creation_method	'MofGen! by Chris Wilmer'
_symmetry_space_group_name_H-M	'P1'
_symmetry_Int_Tables_number	1
_symmetry_cell_setting	triclinic
loop_
_symmetry_equiv_pos_as_xyz
  x,y,z
_cell_length_a	26.455835
_cell_length_b	26.455273
_cell_length_c	26.451828
_cell_angle_alpha	60.005170
_cell_angle_beta	60.010757
_cell_angle_gamma	59.993435
loop_
_atom_site_label
_atom_site_type_symbol
_atom_site_fract_x
_atom_site_fract_y
_atom_site_fract_z
O1	O	0.069940	-0.738516	0.617604
O2	O	0.026299	-0.574986	0.497618
O3	O	0.129847	-0.678463	0.497546
O4	O	-0.033607	-0.635040	0.617676
O5	O	0.164197	-0.644116	0.531822
O6	O	0.060649	-0.540639	0.531894
O7	O	0.104290	-0.704170	0.651880
Cu8	Cu	0.085606	-0.619268	0.595016
Cu9	Cu	0.044984	-0.659887	0.554481
O10	O	0.000742	-0.600693	0.651952
N11	N	0.114179	-0.590703	0.623530
N12	N	0.016416	-0.688458	0.525968
C13	C	0.157553	-0.547535	0.933368
C14	C	0.424104	-0.547506	0.666656
C15	C	0.157413	-0.547503	0.666729
C16	C	0.157397	-0.280846	0.666749
C17	C	0.200330	-0.409550	0.709625
C18	C	0.200339	-0.504608	0.709615
C19	C	0.224118	-0.480848	0.733375
C20	C	0.327800	-0.462984	0.678792
C21	C	0.392611	-0.484588	0.657175
C22	C	0.392630	-0.589450	0.697162
C23	C	0.327821	-0.567844	0.718781
C24	C	0.215955	-0.377135	0.645910
C25	C	0.194327	-0.312320	0.624323
C26	C	0.141457	-0.312339	0.730169
C27	C	0.163084	-0.377154	0.751756
C28	C	0.136618	-0.488954	0.725292
C29	C	0.115007	-0.510553	0.703686
C30	C	0.220833	-0.563461	0.650740
C31	C	0.242447	-0.541861	0.672339
C32	C	0.136680	-0.488971	0.837094
C33	C	0.115112	-0.510589	0.901907
C34	C	0.220969	-0.563508	0.901868
C35	C	0.242535	-0.541892	0.837053
C36	C	0.200389	-0.504622	0.804668
C37	C	0.295409	-0.504610	0.709593
C38	C	0.132990	-0.570876	1.004655
C39	C	0.495389	-0.570440	0.642547
C40	C	0.132802	-0.570856	0.643399
C41	C	0.133212	-0.209553	0.643833
C42	C	-0.097217	-0.706972	0.506986
C43	C	-0.002040	-0.707108	0.412067
C44	C	-0.002230	-0.802124	0.507163
C45	C	-0.002214	-0.707101	0.507221
C46	C	-0.025925	-0.730827	0.483360
N47	N	0.553723	-0.590712	0.623415
O48	O	0.751638	-0.596429	0.475603
O49	O	0.751819	-0.716773	0.638980
O50	O	0.751753	-0.716500	0.535361
O51	O	0.751705	-0.596703	0.579222
O52	O	0.648791	-0.682239	0.569747
O53	O	0.648858	-0.682512	0.673366
O54	O	0.648676	-0.562169	0.509989
Cu55	Cu	0.639366	-0.619212	0.594817
Cu56	Cu	0.761130	-0.659729	0.554152
O57	O	0.648743	-0.562442	0.613609
N58	N	0.846773	-0.688230	0.525548
N59	N	0.114157	-0.151217	0.623565
O60	O	-0.033591	0.046803	0.617717
O61	O	0.129795	0.046806	0.497390
O62	O	0.026157	0.046789	0.497680
O63	O	0.070046	0.046819	0.617427
O64	O	0.060509	-0.056181	0.532004
O65	O	0.164146	-0.056164	0.531714
O66	O	0.000760	-0.056167	0.652041
Cu67	Cu	0.085590	-0.065568	0.595012
Cu68	Cu	0.044965	0.056206	0.554419
O69	O	0.104397	-0.056151	0.651751
N70	N	0.016390	0.141855	0.525867
N71	N	0.114410	-0.590756	1.062992
O72	O	0.108565	-0.738494	1.260998
O73	O	-0.011747	-0.575059	1.261012
O74	O	-0.011470	-0.678679	1.260970
O75	O	0.108287	-0.634874	1.261040
O76	O	0.022849	-0.644347	1.158004
O77	O	0.022572	-0.540726	1.158046
O78	O	0.142884	-0.704162	1.158033
Cu79	Cu	0.085861	-0.619309	1.148638
Cu80	Cu	0.045275	-0.659911	1.270406
O81	O	0.142606	-0.600541	1.158074
N82	N	0.016726	-0.688471	1.356052
C83	C	0.039385	-0.537207	0.498225
C84	C	0.167616	-0.665350	0.498136
C85	C	0.091204	-0.741950	0.651272
C86	C	-0.037027	-0.613806	0.651361
C87	C	0.700360	-0.716215	0.676756
C88	C	0.700279	-0.715877	0.548436
C89	C	0.700133	-0.562725	0.472214
C90	C	0.700218	-0.563065	0.600533
C91	C	0.167511	-0.004552	0.497940
C92	C	0.039211	-0.004699	0.498341
C93	C	-0.036999	-0.004682	0.651449
C94	C	0.091344	-0.004663	0.651090
C95	C	-0.011156	-0.537302	1.209530
C96	C	-0.010806	-0.665617	1.209458
C97	C	0.142293	-0.741918	1.209514
C98	C	0.141950	-0.613596	1.209563
H99	H	0.102355	-0.458618	0.810728
C100	C	0.700425	-0.767257	0.740142
H101	H	0.700442	-0.803202	0.740194
H102	H	0.736339	-0.776981	0.747682
H103	H	0.664524	-0.753078	0.771656
H104	H	0.700298	-0.753510	0.539047
H105	H	-0.048413	-0.674973	1.209396
C106	C	-0.100447	-0.601311	0.702325
H107	H	-0.100556	-0.637155	0.738302
H108	H	-0.107981	-0.567560	0.712013
H109	H	-0.131933	-0.591520	0.688103
C110	C	-0.062186	-0.473894	1.209536
H111	H	-0.047236	-0.447888	1.209557
H112	H	-0.073435	-0.455364	1.173624
H113	H	-0.097367	-0.479314	1.245441
C114	C	0.700054	-0.511681	0.408832
H115	H	0.700050	-0.526639	0.382816
H116	H	0.664130	-0.476513	0.414280
H117	H	0.735945	-0.500408	0.390292
C118	C	0.231035	-0.677850	0.447172
H119	H	0.257009	-0.718831	0.462194
H120	H	0.225634	-0.673195	0.411991
H121	H	0.249594	-0.649241	0.435899
H122	H	0.214338	-0.004265	0.460069
C123	C	0.104029	-0.004653	0.701914
H124	H	0.068249	-0.004648	0.737947
H125	H	0.137807	-0.040557	0.711546
H126	H	0.113845	0.031263	0.687605
H127	H	0.179573	-0.604224	1.209577
H128	H	0.063231	-0.497836	0.928300
C129	C	0.700196	-0.512224	0.613210
H130	H	0.700228	-0.527356	0.654202
H131	H	0.736074	-0.500922	0.584636
H132	H	0.664260	-0.477029	0.608623
C133	C	0.428242	-0.438798	0.623292
H134	H	0.399655	-0.398043	0.620911
H135	H	0.453539	-0.449642	0.645367
H136	H	0.453507	-0.440454	0.582684
H137	H	0.029814	-0.004702	0.460721
C138	C	-0.100385	-0.004683	0.702484
H139	H	-0.126408	-0.004686	0.687535
H140	H	-0.094949	-0.040586	0.737668
H141	H	-0.118909	0.031234	0.713725
H142	H	0.030065	-0.490230	0.460543
H143	H	0.100526	-0.788925	0.688956
C144	C	0.193324	-0.805325	1.209508
H145	H	0.229262	-0.805391	1.209519
H146	H	0.179134	-0.836824	1.245404
H147	H	0.203069	-0.812872	1.173587
C148	C	0.267328	-0.604491	0.937487
H149	H	0.245362	-0.615120	0.980731
H150	H	0.292617	-0.641136	0.926854
H151	H	0.292601	-0.582491	0.926858
C152	C	0.312618	-0.559111	0.801386
H153	H	0.319429	-0.540907	0.758148
H154	H	0.330831	-0.544210	0.812001
H155	H	0.330828	-0.602846	0.811999
C156	C	0.044916	-0.493332	0.720918
H157	H	0.038077	-0.511526	0.702706
H158	H	0.026728	-0.508243	0.764648
H159	H	0.026705	-0.449597	0.706017
C160	C	0.267151	-0.604519	0.609820
H161	H	0.245156	-0.615170	0.599224
H162	H	0.292465	-0.582592	0.573154
H163	H	0.292403	-0.641156	0.631866
C164	C	0.312538	-0.559080	0.655104
H165	H	0.319377	-0.540876	0.673306
H166	H	0.330754	-0.602811	0.669998
H167	H	0.330721	-0.544162	0.611370
C168	C	0.292188	-0.613634	0.752662
H169	H	0.248947	-0.591712	0.764228
H170	H	0.302796	-0.634122	0.725994
H171	H	0.302831	-0.643314	0.788677
C172	C	0.428290	-0.659006	0.707261
H173	H	0.471528	-0.665910	0.689970
H174	H	0.417690	-0.681606	0.750359
H175	H	0.417659	-0.672410	0.687673
C176	C	0.292148	-0.393429	0.668687
H177	H	0.248910	-0.386520	0.685968
H178	H	0.302782	-0.380021	0.688267
H179	H	0.302751	-0.370834	0.625584
C180	C	0.256918	-0.412770	0.599570
H181	H	0.263117	-0.384180	0.558530
H182	H	0.295776	-0.438054	0.605779
H183	H	0.237125	-0.438053	0.605804
H184	H	0.102328	-0.458621	0.755642
H185	H	0.111138	-0.285961	0.764475
C186	C	0.211509	-0.276659	0.554235
H187	H	0.193292	-0.233418	0.547412
H188	H	0.255235	-0.287276	0.536019
H189	H	0.196589	-0.287276	0.536035
C190	C	0.145825	-0.412812	0.821845
H191	H	0.120524	-0.384235	0.843844
H192	H	0.123837	-0.438064	0.832406
H193	H	0.182446	-0.438128	0.832526
