data_functionalizedCrystal
_audit_creation_method	'MofGen! by Chris Wilmer'
_symmetry_space_group_name_H-M	'P1'
_symmetry_Int_Tables_number	1
_symmetry_cell_setting	triclinic
loop_
_symmetry_equiv_pos_as_xyz
  x,y,z
_cell_length_a	12.970454
_cell_length_b	17.917603
_cell_length_c	12.970454
_cell_angle_alpha	90.000926
_cell_angle_beta	120.000093
_cell_angle_gamma	57.011456
loop_
_atom_site_label
_atom_site_type_symbol
_atom_site_fract_x
_atom_site_fract_y
_atom_site_fract_z
Zr1	Zr	1.033592	0.754911	0.087827
O2	O	1.264412	0.629790	0.260316
O3	O	0.813680	0.793266	0.034952
O4	O	1.028768	0.793271	0.250039
O5	O	1.049326	0.629783	-0.124438
O6	O	1.012553	0.922228	0.241932
O7	O	1.049325	0.629786	0.045228
O8	O	0.627801	0.922220	-0.142821
O9	O	1.434078	0.629790	0.260314
O10	O	0.887992	0.905864	0.006349
O11	O	0.900094	0.809623	-0.114221
O12	O	1.153331	0.809628	0.139017
O13	O	1.165433	0.713387	0.018448
Zr14	Zr	1.007734	0.960577	-0.195702
Zr15	Zr	1.007732	0.960582	0.074897
Zr16	Zr	1.033594	0.754906	-0.182771
Zr17	Zr	1.304189	0.754911	0.087825
Zr18	Zr	0.737136	0.960577	-0.195699
O19	O	1.227645	0.922222	-0.142826
O20	O	1.227642	0.922228	0.241930
O21	O	1.264415	0.629783	-0.124440
O22	O	0.776914	1.085698	-0.368190
O23	O	0.776911	1.085705	0.016566
O24	O	0.813684	0.793260	-0.349804
O25	O	0.992000	1.085705	0.016564
O26	O	1.012558	0.922217	-0.357914
O27	O	1.028772	0.793260	-0.349806
O28	O	0.992001	1.085703	-0.153102
O29	O	1.413522	0.793272	0.250036
O30	O	0.627803	0.922216	-0.357910
O31	O	0.607248	1.085698	-0.368188
O32	O	0.607246	1.085701	-0.153099
O33	O	1.434080	0.629787	0.045225
O34	O	1.413524	0.793268	0.034947
O35	O	0.887994	0.905860	-0.246891
O36	O	0.875893	1.002101	-0.126322
O37	O	1.141232	0.905865	0.006347
O38	O	1.153333	0.809624	-0.114223
C39	C	0.682187	0.857743	-0.053934
C40	C	0.567311	0.857743	-0.053933
C41	C	1.053010	0.600480	-0.037763
C42	C	1.063988	0.513167	-0.032273
C43	C	1.084041	0.353323	-0.022248
C44	C	0.957291	0.362158	-0.085623
C45	C	0.968448	0.273215	-0.080045
C46	C	1.072887	0.442272	-0.027824
C47	C	1.359139	0.857745	-0.053940
C48	C	1.474015	0.857745	-0.053941
C49	C	1.020660	0.857750	0.284540
C50	C	1.020659	0.857752	0.399416
C51	C	0.988316	1.115008	-0.070112
C52	C	0.977337	1.202321	-0.075601
C53	C	1.020665	0.857741	0.607586
C54	C	1.020664	0.857748	0.492709
C55	C	0.649840	1.115007	-0.070109
C56	C	0.523986	1.202319	-0.075597
C57	C	0.682189	0.857737	-0.392411
C58	C	0.567315	0.857735	-0.507286
C59	C	0.649842	1.115001	-0.408586
C60	C	0.523989	1.202312	-0.528950
C61	C	1.391483	0.600487	0.300712
C62	C	1.517337	0.513176	0.421076
C63	C	1.391486	0.600481	-0.037766
C64	C	1.517340	0.513169	-0.032277
C65	C	1.359136	0.857751	0.284537
C66	C	1.474011	0.857753	0.399412
C67	C	0.471199	1.193088	-0.008910
C68	C	0.352962	1.275119	-0.014042
C69	C	0.287506	1.366382	-0.085868
C70	C	0.340303	1.375612	-0.152556
C71	C	0.458546	1.293581	-0.147417
C72	C	0.458569	1.293559	-0.522539
C73	C	0.340331	1.375605	-0.635625
C74	C	0.287507	1.366401	-0.755120
C75	C	0.352939	1.275143	-0.761527
C76	C	0.471183	1.193100	-0.648443
C77	C	1.582770	0.421929	0.414665
C78	C	1.701041	0.339883	0.527750
C79	C	1.753871	0.349087	0.647245
C80	C	1.688432	0.440345	0.653653
C81	C	1.570170	0.522388	0.540569
C82	C	1.570138	0.522400	-0.098952
C83	C	1.688405	0.440369	-0.093791
C84	C	1.753865	0.349106	-0.021962
C85	C	1.701062	0.339876	0.044722
C86	C	1.582805	0.421907	0.039567
H87	H	0.840396	0.436519	-0.144069
H88	H	0.191225	1.433169	-0.090043
O89	O	0.509571	1.302592	-0.406519
C90	C	0.387981	1.353160	-0.395915
H91	H	0.274345	1.398480	-0.495946
H92	H	0.398128	1.401885	-0.342121
H93	H	0.393149	1.300009	-0.341106
H94	H	0.286992	1.449929	-0.211035
H95	H	0.501509	1.301111	-0.201729
O96	O	0.277046	1.464189	-0.629208
C97	C	0.390929	1.474688	-0.563279
H98	H	0.508178	1.400829	-0.499089
H99	H	0.369249	1.517815	-0.501801
H100	H	0.387449	1.513909	-0.635632
H101	H	1.754378	0.265559	0.103204
O102	O	1.506334	0.611068	-0.168892
C103	C	1.348741	0.661539	-0.264817
H104	H	1.325886	0.608310	-0.286046
H105	H	1.312014	0.706902	-0.355930
H106	H	1.280889	0.710217	-0.230045
O107	O	0.535030	1.104391	0.060965
C108	C	0.692611	1.053942	0.156915
H109	H	0.734447	1.085266	0.127153
H110	H	0.758463	0.974989	0.169886
H111	H	0.712347	1.060776	0.251290
O112	O	0.172580	1.446201	-0.864840
C113	C	0.126200	1.528709	-0.833541
H114	H	0.158325	1.509861	-0.732722
H115	H	-0.003078	1.586652	-0.905360
H116	H	0.185845	1.556330	-0.837233
O117	O	1.764816	0.251224	0.521574
C118	C	1.922406	0.200750	0.583220
H119	H	1.945268	0.253976	0.584860
H120	H	1.959106	0.155403	0.528807
H121	H	1.990275	0.152056	0.685837
O122	O	0.301815	1.265970	0.050764
C123	C	0.384963	1.167827	0.115266
H124	H	0.434926	1.124095	0.066154
H125	H	0.305437	1.156385	0.112423
H126	H	0.481757	1.143641	0.219376
H127	H	1.200927	0.278968	0.036195
O128	O	0.534729	1.104515	-0.654845
C129	C	0.598511	1.093991	-0.720749
H130	H	0.540492	1.167841	-0.784941
H131	H	0.580230	1.050862	-0.782222
H132	H	0.726384	1.054762	-0.648378
O133	O	1.531706	0.412803	0.298702
C134	C	1.614824	0.314665	0.317320
H135	H	1.729720	0.270922	0.416394
H136	H	1.634878	0.303234	0.240635
H137	H	1.547087	0.290481	0.309985
H138	H	0.309913	1.267663	-0.858836
O139	O	1.531369	0.413103	0.104291
C140	C	1.412920	0.505067	0.084318
H141	H	1.423787	0.559462	0.056579
H142	H	1.421785	0.504146	0.176369
H143	H	1.297408	0.525956	0.003861
H144	H	1.850168	0.282275	0.739316
H145	H	1.731461	0.447828	0.750960
H146	H	1.516895	0.596684	0.545804
O147	O	1.739445	0.449518	-0.158703
C148	C	1.656312	0.547661	-0.223191
H149	H	1.541417	0.591392	-0.239011
H150	H	1.636257	0.559101	-0.319929
H151	H	1.724038	0.571850	-0.162781
H152	H	1.850157	0.282319	-0.017775
