data_functionalizedCrystal
_audit_creation_method	'MofGen! by Chris Wilmer'
_symmetry_space_group_name_H-M	'P1'
_symmetry_Int_Tables_number	1
_symmetry_cell_setting	triclinic
loop_
_symmetry_equiv_pos_as_xyz
  x,y,z
_cell_length_a	19.805407
_cell_length_b	19.805405
_cell_length_c	11.169409
_cell_angle_alpha	89.962829
_cell_angle_beta	89.975883
_cell_angle_gamma	90.026726
loop_
_atom_site_label
_atom_site_type_symbol
_atom_site_fract_x
_atom_site_fract_y
_atom_site_fract_z
Zn1	Zn	1.034765	-0.269408	-0.678640
Zn2	Zn	1.534765	0.230592	-0.178640
Zn3	Zn	1.034670	-0.382618	-0.477940
Zn4	Zn	1.534670	0.117382	0.022060
Zn5	Zn	0.921570	-0.269448	-0.477959
Zn6	Zn	1.421570	0.230552	0.022041
Zn7	Zn	0.921542	-0.382561	-0.678570
Zn8	Zn	1.421542	0.117439	-0.178570
O9	O	0.978137	-0.326009	-0.578277
O10	O	1.478137	0.173991	-0.078277
O11	O	1.129469	-0.284433	-0.652038
O12	O	1.629469	0.215567	-0.152038
O13	O	1.019639	-0.367646	-0.309993
O14	O	1.519639	0.132354	0.190007
O15	O	0.936637	-0.174726	-0.504617
O16	O	1.436637	0.325274	-0.004617
O17	O	1.129399	-0.367607	-0.504584
O18	O	1.629399	0.132393	-0.004584
O19	O	1.019801	-0.174697	-0.652057
O20	O	1.519801	0.325303	-0.152057
O21	O	0.936545	-0.284500	-0.310007
O22	O	1.436545	0.215500	0.189993
O23	O	0.826850	-0.284445	-0.504549
O24	O	1.326850	0.215555	-0.004549
O25	O	0.936589	-0.367511	-0.846529
O26	O	1.436589	0.132489	-0.346529
O27	O	0.826829	-0.367549	-0.651937
O28	O	1.326829	0.132451	-0.151937
O29	O	1.019773	-0.284378	-0.846580
O30	O	1.519773	0.215622	-0.346580
O31	O	1.019612	-0.477327	-0.504516
O32	O	1.519612	0.022673	-0.004516
O33	O	0.936497	-0.477285	-0.651918
O34	O	1.436497	0.022715	-0.151918
C35	C	0.802281	-0.325996	-0.578238
C36	C	1.302281	0.174004	-0.078238
C37	C	0.727049	-0.326006	-0.578250
C38	C	1.227049	0.173994	-0.078250
C39	C	0.691711	-0.369344	-0.654871
C40	C	1.191711	0.130656	-0.154871
C41	C	0.621023	-0.369345	-0.654888
C42	C	1.121023	0.130655	-0.154888
C43	C	0.585673	-0.326012	-0.578277
C44	C	1.085673	0.173988	-0.078277
C45	C	0.621015	-0.282670	-0.501653
C46	C	1.121015	0.217330	-0.001653
C47	C	0.691702	-0.282666	-0.501643
C48	C	1.191702	0.217334	-0.001643
C49	C	0.335942	-0.282685	-0.501693
C50	C	0.835942	0.217315	-0.001693
C51	C	0.265250	-0.282694	-0.501706
C52	C	0.765250	0.217306	-0.001706
C53	C	0.265263	-0.369364	-0.654937
C54	C	0.765263	0.130636	-0.154937
C55	C	0.335950	-0.369360	-0.654927
C56	C	0.835950	0.130640	-0.154927
C57	C	0.371286	-0.326016	-0.578308
C58	C	0.871286	0.173984	-0.078308
C59	C	0.447934	-0.326014	-0.578293
C60	C	0.947934	0.173986	-0.078293
C61	C	0.509026	-0.326016	-0.578286
C62	C	1.009026	0.173984	-0.078286
C63	C	0.978060	-0.501865	-0.578234
C64	C	1.478060	-0.001865	-0.078234
C65	C	0.978088	-0.577097	-0.578255
C66	C	1.478088	-0.077097	-0.078255
C67	C	1.021366	-0.612367	-0.655087
C68	C	1.521366	-0.112367	-0.155087
C69	C	1.021390	-0.683056	-0.655109
C70	C	1.521390	-0.183056	-0.155109
C71	C	0.978140	-0.718472	-0.578293
C72	C	1.478140	-0.218472	-0.078293
C73	C	0.934858	-0.683196	-0.501458
C74	C	1.434858	-0.183196	-0.001458
C75	C	0.934831	-0.612509	-0.501442
C76	C	1.434831	-0.112509	-0.001442
C77	C	0.934967	-0.968270	-0.501519
C78	C	1.434967	-0.468270	-0.001519
C79	C	0.934999	-1.038962	-0.501538
C80	C	1.434999	-0.538962	-0.001538
C81	C	1.021527	-1.038816	-0.655186
C82	C	1.521527	-0.538816	-0.155186
C83	C	1.021499	-0.968129	-0.655171
C84	C	1.521499	-0.468129	-0.155171
C85	C	0.978215	-0.932860	-0.578341
C86	C	1.478215	-0.432860	-0.078341
C87	C	0.978188	-0.856211	-0.578319
C88	C	1.478188	-0.356211	-0.078319
C89	C	0.978170	-0.795119	-0.578308
C90	C	1.478170	-0.295119	-0.078308
C91	C	1.154679	-0.326022	-0.578317
C92	C	1.654679	0.173978	-0.078317
C93	C	1.229911	-0.326028	-0.578334
C94	C	1.729911	0.173972	-0.078334
C95	C	0.978189	-0.325933	-0.891320
C96	C	1.478189	0.174067	-0.391320
C97	C	0.978211	-0.325901	-1.024720
C98	C	1.478211	0.174099	-0.524720
C99	C	0.978233	-0.149466	-0.578347
C100	C	1.478233	0.350534	-0.078347
C101	C	0.978273	-0.074234	-0.578377
C102	C	1.478273	0.425766	-0.078377
C103	C	0.978124	-0.326035	-0.266452
C104	C	1.478124	0.173965	0.233548
C105	C	0.978233	-0.325876	-0.133053
C106	C	1.478233	0.174124	0.366947
H107	H	0.364728	-0.404648	-0.717307
H108	H	0.864728	0.095352	-0.217307
C109	C	0.226746	-0.235723	-0.418559
C110	C	0.726746	0.264277	0.081441
C111	C	0.157279	-0.245025	-0.434938
C112	C	0.657279	0.254975	0.065062
C113	C	0.121788	-0.201782	-0.358349
C114	C	0.621788	0.298218	0.141651
H115	H	0.238264	-0.190225	-0.436180
H116	H	0.738264	0.309775	0.063820
H117	H	0.238269	-0.245587	-0.337864
H118	H	0.738269	0.254413	0.162136
H119	H	0.145760	-0.235156	-0.515615
H120	H	0.645760	0.264844	-0.015615
H121	H	0.145741	-0.290513	-0.417309
H122	H	0.645741	0.209487	0.082691
H123	H	0.133311	-0.211646	-0.277654
H124	H	0.633311	0.288354	0.222346
H125	H	0.133311	-0.156287	-0.375977
H126	H	0.633311	0.343713	0.124023
H127	H	0.074651	-0.208091	-0.369444
H128	H	0.574651	0.291909	0.130556
H129	H	1.056769	-1.067541	-0.717749
H130	H	1.556769	-0.567541	-0.217749
H131	H	1.056588	-0.583536	-0.717634
H132	H	1.556588	-0.083536	-0.217634
H133	H	0.720488	-0.404633	-0.717252
H134	H	1.220488	0.095367	-0.217252
C135	C	0.226774	-0.416346	-0.738092
C136	C	0.726774	0.083654	-0.238092
C137	C	0.157303	-0.407064	-0.721736
C138	C	0.657303	0.092936	-0.221736
C139	C	0.121829	-0.450325	-0.798323
C140	C	0.621829	0.049675	-0.298323
H141	H	0.238253	-0.461838	-0.720455
H142	H	0.738253	0.038162	-0.220455
H143	H	0.238350	-0.406485	-0.818786
H144	H	0.738350	0.093515	-0.318786
H145	H	0.145733	-0.416929	-0.641060
H146	H	0.645733	0.083071	-0.141060
H147	H	0.145804	-0.361580	-0.739382
H148	H	0.645804	0.138420	-0.239382
H149	H	0.133405	-0.440465	-0.879018
H150	H	0.633405	0.059535	-0.379018
H151	H	0.133314	-0.495815	-0.780679
H152	H	0.633314	0.004185	-0.280679
H153	H	0.074690	-0.444029	-0.787244
H154	H	0.574690	0.055971	-0.287244
C155	C	0.582516	-0.235691	-0.418526
C156	C	1.082516	0.264309	0.081474
C157	C	0.513047	-0.244981	-0.434910
C158	C	1.013047	0.255019	0.065090
C159	C	0.477562	-0.201722	-0.358342
C160	C	0.977562	0.298278	0.141658
H161	H	0.594043	-0.190198	-0.436163
H162	H	1.094043	0.309802	0.063837
H163	H	0.594034	-0.245548	-0.337826
H164	H	1.094034	0.254452	0.162174
H165	H	0.501533	-0.235120	-0.515592
H166	H	1.001533	0.264880	-0.015592
H167	H	0.501500	-0.290466	-0.417265
H168	H	1.001500	0.209534	0.082735
H169	H	0.489080	-0.211579	-0.277642
H170	H	0.989080	0.288421	0.222358
H171	H	0.489094	-0.156231	-0.375985
H172	H	0.989094	0.343769	0.124015
H173	H	0.430424	-0.208024	-0.369440
H174	H	0.930424	0.291976	0.130560
C175	C	0.887960	-1.077294	-0.418094
C176	C	1.387960	-0.577294	0.081906
C177	C	0.850033	-1.031277	-0.350830
C178	C	1.350033	-0.531277	0.149170
C179	C	0.806691	-1.066564	-0.273965
C180	C	1.306691	-0.566564	0.226035
H181	H	0.913801	-1.104871	-0.365740
H182	H	1.413801	-0.604871	0.134260
H183	H	0.858435	-1.104861	-0.463944
H184	H	1.358435	-0.604861	0.036056
H185	H	0.879554	-1.003722	-0.304983
H186	H	1.379554	-0.503722	0.195017
H187	H	0.824178	-1.003699	-0.403152
H188	H	1.324178	-0.503699	0.096848
H189	H	0.777166	-1.094131	-0.319815
H190	H	1.277166	-0.594131	0.180185
H191	H	0.832537	-1.094140	-0.221619
H192	H	1.332537	-0.594140	0.278381
H193	H	0.780948	-1.035348	-0.228325
H194	H	1.280948	-0.535348	0.271675
C195	C	0.582779	-0.416481	-0.738106
C196	C	1.082779	0.083519	-0.238106
C197	C	0.628866	-0.454448	-0.805161
C198	C	1.128866	0.045552	-0.305161
C199	C	0.593661	-0.497887	-0.881820
C200	C	1.093661	0.002113	-0.381820
H201	H	0.555224	-0.390709	-0.790600
H202	H	1.055224	0.109291	-0.290600
H203	H	0.555196	-0.445976	-0.692118
H204	H	1.055196	0.054024	-0.192118
H205	H	0.656438	-0.424956	-0.851145
H206	H	1.156438	0.075044	-0.351145
H207	H	0.656423	-0.480234	-0.752697
H208	H	1.156423	0.019766	-0.252697
H209	H	0.566078	-0.527383	-0.835832
H210	H	1.066078	-0.027383	-0.335832
H211	H	0.566108	-0.472110	-0.934307
H212	H	1.066108	0.027890	-0.434307
H213	H	0.624926	-0.523658	-0.927318
H214	H	1.124926	-0.023658	-0.427318
C215	C	0.374179	-0.235601	-0.418379
C216	C	0.874179	0.264399	0.081621
C217	C	0.328089	-0.197667	-0.351270
C218	C	0.828089	0.302333	0.148730
C219	C	0.363290	-0.154289	-0.274496
C220	C	0.863290	0.345711	0.225504
H221	H	0.401778	-0.206076	-0.464250
H222	H	0.901778	0.293924	0.035750
H223	H	0.401717	-0.261436	-0.365931
H224	H	0.901717	0.238564	0.134069
H225	H	0.300562	-0.171833	-0.403710
H226	H	0.800562	0.328167	0.096290
H227	H	0.300488	-0.227174	-0.305374
H228	H	0.800488	0.272826	0.194626
H229	H	0.390829	-0.180125	-0.222049
H230	H	0.890829	0.319875	0.277951
H231	H	0.390888	-0.124769	-0.320377
H232	H	0.890888	0.375231	0.179623
H233	H	0.332024	-0.128550	-0.228946
H234	H	0.832024	0.371450	0.271054
C235	C	0.730037	-0.235701	-0.418248
C236	C	1.230037	0.264299	0.081752
C237	C	0.712818	-0.250378	-0.299455
C238	C	1.212818	0.249622	0.200545
C239	C	0.748125	-0.207133	-0.222599
C240	C	1.248125	0.292867	0.277401
H241	H	0.718507	-0.190211	-0.435795
H242	H	1.218507	0.309789	0.064205
H243	H	0.777205	-0.241911	-0.429135
H244	H	1.277205	0.258089	0.070865
H245	H	0.665661	-0.244163	-0.288573
H246	H	1.165661	0.255837	0.211427
H247	H	0.724350	-0.295861	-0.281871
H248	H	1.224350	0.204139	0.218129
H249	H	0.795292	-0.213343	-0.233486
H250	H	1.295292	0.286657	0.266514
H251	H	0.736592	-0.161645	-0.240157
H252	H	1.236592	0.338355	0.259843
H253	H	0.736452	-0.217089	-0.141990
H254	H	1.236452	0.282911	0.358010
H255	H	1.056637	-0.711770	-0.717664
H256	H	1.556637	-0.211770	-0.217664
C257	C	0.887952	-0.574127	-0.417953
C258	C	1.387952	-0.074127	0.082047
C259	C	0.926278	-0.533531	-0.341100
C260	C	1.426278	-0.033531	0.158900
C261	C	0.883113	-0.498159	-0.264187
C262	C	1.383113	0.001841	0.235813
H263	H	0.862183	-0.605266	-0.372091
H264	H	1.362183	-0.105266	0.127909
H265	H	0.858448	-0.546520	-0.463779
H266	H	1.358448	-0.046520	0.036221
H267	H	0.955771	-0.561136	-0.295278
H268	H	1.455771	-0.061136	0.204722
H269	H	0.952046	-0.502380	-0.386929
H270	H	1.452046	-0.002380	0.113071
H271	H	0.853608	-0.470552	-0.310013
H272	H	1.353608	0.029448	0.189987
H273	H	0.857346	-0.529303	-0.218333
H274	H	1.357346	-0.029303	0.281667
H275	H	0.909110	-0.470606	-0.212041
H276	H	1.409110	0.029394	0.287959
H277	H	1.056720	-0.939295	-0.717718
H278	H	1.556720	-0.439295	-0.217718
H279	H	0.899724	-0.939559	-0.438959
H280	H	1.399724	-0.439559	0.061041
H281	H	0.899640	-0.712038	-0.438917
H282	H	1.399640	-0.212038	0.061083
