data_functionalizedCrystal
_audit_creation_method	'MofGen! by Chris Wilmer'
_symmetry_space_group_name_H-M	'P1'
_symmetry_Int_Tables_number	1
_symmetry_cell_setting	triclinic
loop_
_symmetry_equiv_pos_as_xyz
  x,y,z
_cell_length_a	19.805407
_cell_length_b	21.295417
_cell_length_c	19.805398
_cell_angle_alpha	89.969179
_cell_angle_beta	89.986879
_cell_angle_gamma	90.029702
loop_
_atom_site_label
_atom_site_type_symbol
_atom_site_fract_x
_atom_site_fract_y
_atom_site_fract_z
Zn1	Zn	1.034677	-0.250617	-0.382709
Zn2	Zn	1.034598	-0.355888	-0.269517
Zn3	Zn	0.921504	-0.250637	-0.269534
Zn4	Zn	0.921449	-0.355853	-0.382663
O5	O	0.978057	-0.303249	-0.326106
O6	O	1.129383	-0.264589	-0.367706
O7	O	1.019586	-0.341949	-0.174802
O8	O	0.936573	-0.162545	-0.284573
O9	O	1.129325	-0.341930	-0.284544
O10	O	1.019721	-0.162531	-0.367723
O11	O	0.936497	-0.264621	-0.174815
O12	O	0.826781	-0.264587	-0.284529
O13	O	0.936478	-0.341870	-0.477386
O14	O	0.826740	-0.341889	-0.367644
O15	O	1.019667	-0.264554	-0.477420
O16	O	1.019532	-0.443973	-0.284499
O17	O	0.936402	-0.443947	-0.367628
C18	C	0.802201	-0.303237	-0.326084
C19	C	0.726969	-0.303247	-0.326091
C20	C	0.691621	-0.343558	-0.369299
C21	C	0.620933	-0.343559	-0.369308
C22	C	0.585594	-0.303252	-0.326106
C23	C	0.620946	-0.262936	-0.282895
C24	C	0.691633	-0.262932	-0.282890
C25	C	0.335873	-0.262949	-0.282918
C26	C	0.265181	-0.262958	-0.282925
C27	C	0.265172	-0.343577	-0.369336
C28	C	0.335860	-0.343573	-0.369331
C29	C	0.371206	-0.303255	-0.326123
C30	C	0.447855	-0.303254	-0.326114
C31	C	0.508946	-0.303256	-0.326111
C32	C	0.977971	-0.466800	-0.326071
C33	C	0.977996	-0.536768	-0.326079
C34	C	1.021266	-0.569571	-0.369406
C35	C	1.021290	-0.635313	-0.369423
C36	C	0.978051	-0.668251	-0.326101
C37	C	0.934772	-0.635441	-0.282771
C38	C	0.934745	-0.569700	-0.282760
N39	N	0.972946	-0.771513	-0.266865
N40	N	0.972976	-0.833965	-0.266877
C41	C	0.978130	-0.866326	-0.326131
N42	N	0.983266	-0.833876	-0.385374
N43	N	0.983239	-0.771419	-0.385362
C44	C	0.978075	-0.739536	-0.326108
C45	C	1.021428	-0.970413	-0.369480
C46	C	1.021447	-1.036157	-0.369498
C47	C	0.934933	-1.036284	-0.282840
C48	C	0.934911	-0.970541	-0.282828
C49	C	0.978162	-0.937610	-0.326147
C50	C	1.154600	-0.303261	-0.326128
C51	C	1.229832	-0.303267	-0.326138
C52	C	0.978075	-0.303206	-0.502649
C53	C	0.978083	-0.303188	-0.577881
C54	C	0.978162	-0.139058	-0.326155
C55	C	0.978207	-0.069090	-0.326176
C56	C	1.021454	-0.343352	-1.039663
C57	C	1.021436	-0.343370	-0.968974
C58	C	0.978167	-0.303117	-0.933642
C59	C	0.934909	-0.262849	-0.969003
C60	C	0.934925	-0.262836	-1.039690
C61	C	0.934844	-0.262903	-0.683929
C62	C	0.934833	-0.262918	-0.613237
C63	C	1.021354	-0.343437	-0.613214
C64	C	1.021370	-0.343423	-0.683901
C65	C	0.978110	-0.303158	-0.719255
C66	C	0.978130	-0.303141	-0.795903
C67	C	0.978150	-0.303131	-0.856995
C68	C	0.978078	-0.303246	-0.150250
C69	C	0.978202	-0.303087	-0.075018
H70	H	0.720413	-0.230103	-0.247709
H71	H	1.056683	-1.062863	-0.404783
H72	H	1.056482	-0.542760	-0.404681
H73	H	0.364644	-0.230125	-0.247731
C74	C	0.582070	-0.218595	-0.235374
N75	N	0.552790	-0.185198	-0.199578
H76	H	0.592156	-0.376386	-0.404492
C77	C	0.374729	-0.387916	-0.416856
N78	N	0.404004	-0.421314	-0.452655
C79	C	0.887267	-0.218601	-0.722810
N80	N	0.851433	-0.185227	-0.752097
C81	C	1.068995	-0.934187	-0.417141
N82	N	1.104822	-0.906903	-0.453041
H83	H	0.899676	-0.230078	-0.940230
C84	C	0.887140	-0.533616	-0.235098
N85	N	0.851282	-0.506437	-0.199198
C86	C	1.069054	-0.387635	-1.078521
N87	N	1.104905	-0.420991	-1.107788
C88	C	0.887360	-1.072511	-0.235194
N89	N	0.851523	-1.099801	-0.199309
C90	C	1.069050	-0.387635	-0.930087
N91	N	1.104927	-0.420966	-0.900797
C92	C	1.068968	-0.387705	-0.722762
N93	N	1.104817	-0.421062	-0.752031
C94	C	0.226285	-0.387923	-0.416872
N95	N	0.196996	-0.421324	-0.452673
C96	C	1.068895	-0.671403	-0.417085
N97	N	1.104753	-0.698583	-0.452983
H98	H	1.056577	-0.376225	-0.584420
C99	C	0.226309	-0.218609	-0.235402
N100	N	0.197031	-0.185206	-0.199610
C101	C	0.730488	-0.387901	-0.416826
N102	N	0.759761	-0.421300	-0.452627
H103	H	0.899705	-0.230046	-1.068475
H104	H	0.899679	-0.943832	-0.247544
C105	C	0.887235	-0.671674	-0.235090
N106	N	0.851437	-0.698964	-0.199167
C107	C	0.887228	-0.218639	-0.574374
N108	N	0.851373	-0.185290	-0.545102
