data_functionalizedCrystal
_audit_creation_method	'MofGen! by Chris Wilmer'
_symmetry_space_group_name_H-M	'P1'
_symmetry_Int_Tables_number	1
_symmetry_cell_setting	triclinic
loop_
_symmetry_equiv_pos_as_xyz
  x,y,z
_cell_length_a	13.897448
_cell_length_b	17.077404
_cell_length_c	17.077396
_cell_angle_alpha	90.017060
_cell_angle_beta	89.971029
_cell_angle_gamma	89.982083
loop_
_atom_site_label
_atom_site_type_symbol
_atom_site_fract_x
_atom_site_fract_y
_atom_site_fract_z
Zn1	Zn	-0.383994	-1.200064	-0.443849
Zn2	Zn	-0.545311	-1.199989	-0.312585
Zn3	Zn	-0.384032	-1.068801	-0.312597
Zn4	Zn	-0.545249	-1.068776	-0.443809
O5	O	-0.464647	-1.134407	-0.378210
O6	O	-0.405403	-1.309901	-0.426448
O7	O	-0.523959	-1.182566	-0.202740
O8	O	-0.249045	-1.086256	-0.330029
O9	O	-0.523922	-1.309846	-0.330010
O10	O	-0.249017	-1.182694	-0.426459
O11	O	-0.405468	-1.086183	-0.202748
O12	O	-0.405408	-0.958951	-0.329990
O13	O	-0.523816	-1.086212	-0.553661
O14	O	-0.523854	-0.958932	-0.426391
O15	O	-0.405343	-1.182669	-0.553690
O16	O	-0.680284	-1.182541	-0.329971
O17	O	-0.680239	-1.086139	-0.426380
C18	C	-0.715261	-1.134350	-0.378187
C19	C	-0.822475	-1.134397	-0.378204
C20	C	-0.464629	-0.930460	-0.378188
C21	C	-0.464645	-0.843210	-0.378198
C22	C	-0.464568	-1.134446	-0.582954
C23	C	-0.464535	-1.134463	-0.670204
C24	C	-1.018770	-1.134480	-0.378253
C25	C	-0.909537	-1.134432	-0.378228
C26	C	-0.213054	-1.134486	-0.378250
C27	C	-0.105840	-1.134520	-0.378267
C28	C	-0.464665	-1.339152	-0.378232
C29	C	-0.464673	-1.426401	-0.378242
C30	C	-0.526412	-0.802230	-0.428313
C31	C	-0.526415	-0.720250	-0.428326
C32	C	-0.464653	-0.679250	-0.378218
C33	C	-0.402879	-0.720236	-0.328100
C34	C	-0.402873	-0.802215	-0.328092
C35	C	-0.402898	-0.549366	-0.328119
C36	C	-0.402905	-0.467381	-0.328126
C37	C	-0.526440	-0.467401	-0.428353
C38	C	-0.526433	-0.549380	-0.428345
C39	C	-0.464660	-0.590359	-0.378226
C40	C	-0.526121	-1.184721	-1.046017
C41	C	-0.526149	-1.184701	-0.964036
C42	C	-0.464467	-1.134513	-0.923053
C43	C	-0.402760	-1.084337	-0.964055
C44	C	-0.402737	-1.084353	-1.046034
C45	C	-0.402809	-1.084307	-0.793185
C46	C	-0.402831	-1.084292	-0.711200
C47	C	-0.526221	-1.184655	-0.711187
C48	C	-0.526199	-1.184671	-0.793166
C49	C	-0.464490	-1.134496	-0.834162
C50	C	-0.464655	-1.134414	-0.174262
C51	C	-0.464416	-1.134550	-0.087013
H52	H	-0.576709	-0.835606	-0.469114
Br53	Br	-0.319034	-1.016235	-0.908436
Br54	Br	-0.319060	-0.604980	-0.260102
Br55	Br	-0.318989	-1.016264	-1.101672
Br56	Br	-0.319093	-0.411739	-0.260116
Br57	Br	-0.610243	-0.664638	-0.496345
H58	H	-0.352601	-1.043427	-0.677834
H59	H	-0.352587	-0.686847	-0.287305
Br60	Br	-0.609829	-1.252843	-1.101629
Br61	Br	-0.610263	-0.605022	-0.496341
Br62	Br	-0.609907	-1.252787	-0.848786
Br63	Br	-0.319036	-0.857831	-0.260080
Br64	Br	-0.609895	-1.252793	-0.908402
Br65	Br	-0.610263	-0.411787	-0.496382
Br66	Br	-0.609971	-1.252750	-0.655551
H67	H	-0.352560	-1.043449	-0.826561
