data_functionalizedCrystal
_audit_creation_method	'MofGen! by Chris Wilmer'
_symmetry_space_group_name_H-M	'P1'
_symmetry_Int_Tables_number	1
_symmetry_cell_setting	triclinic
loop_
_symmetry_equiv_pos_as_xyz
  x,y,z
_cell_length_a	19.805407
_cell_length_b	16.625539
_cell_length_c	19.805405
_cell_angle_alpha	90.031831
_cell_angle_beta	89.971650
_cell_angle_gamma	89.977631
loop_
_atom_site_label
_atom_site_type_symbol
_atom_site_fract_x
_atom_site_fract_y
_atom_site_fract_z
Zn1	Zn	1.034749	-0.455928	0.269427
Zn2	Zn	1.534749	0.044072	0.769427
Zn3	Zn	1.034660	-0.321087	0.382620
Zn4	Zn	1.534660	0.178913	0.882620
Zn5	Zn	0.921560	-0.321105	0.269454
Zn6	Zn	1.421560	0.178895	0.769454
Zn7	Zn	0.921527	-0.455873	0.382583
Zn8	Zn	1.421527	0.044127	0.882583
O9	O	0.978124	-0.388498	0.326021
O10	O	1.478124	0.111502	0.826021
O11	O	1.129454	-0.438057	0.284446
O12	O	1.629454	0.061943	0.784446
O13	O	1.019633	-0.208257	0.367636
O14	O	1.519633	0.291743	0.867636
O15	O	0.936625	-0.339020	0.174734
O16	O	1.436625	0.160980	0.674734
O17	O	1.129388	-0.338990	0.367609
O18	O	1.629388	0.161010	0.867609
O19	O	1.019785	-0.438074	0.174714
O20	O	1.519785	0.061926	0.674714
O21	O	0.936539	-0.208270	0.284493
O22	O	1.436539	0.291730	0.784493
O23	O	0.826839	-0.338966	0.284457
O24	O	1.326839	0.161034	0.784457
O25	O	0.936570	-0.568713	0.367546
O26	O	1.436570	-0.068713	0.867546
O27	O	0.826815	-0.437980	0.367572
O28	O	1.326815	0.062020	0.867572
O29	O	1.019753	-0.568753	0.284410
O30	O	1.519753	-0.068753	0.784410
O31	O	1.019602	-0.338936	0.477332
O32	O	1.519602	0.161064	0.977332
O33	O	0.936483	-0.437963	0.477305
O34	O	1.436483	0.062037	0.977305
C35	C	0.802268	-0.388469	0.326014
C36	C	1.302268	0.111531	0.826014
C37	C	0.727036	-0.388476	0.326028
C38	C	1.227036	0.111524	0.826028
C39	C	0.265282	-0.440193	0.282799
C40	C	0.765282	0.059807	0.782799
C41	C	0.335971	-0.440187	0.282801
C42	C	0.835971	0.059813	0.782801
C43	C	0.371274	-0.388524	0.326031
C44	C	0.871274	0.111476	0.826031
C45	C	0.335885	-0.336870	0.369269
C46	C	0.835885	0.163130	0.869269
C47	C	0.265198	-0.336880	0.369270
C48	C	0.765198	0.163120	0.869270
C49	C	0.620959	-0.336827	0.369264
C50	C	1.120959	0.163173	0.869264
C51	C	0.691651	-0.336819	0.369257
C52	C	1.191651	0.163181	0.869257
C53	C	0.691731	-0.440134	0.282794
C54	C	1.191731	0.059866	0.782794
C55	C	0.621044	-0.440144	0.282795
C56	C	1.121044	0.059856	0.782795
C57	C	0.585661	-0.388493	0.326035
C58	C	1.085661	0.111507	0.826035
C59	C	0.509013	-0.388501	0.326034
C60	C	1.009013	0.111499	0.826034
C61	C	0.447921	-0.388512	0.326030
C62	C	0.947921	0.111488	0.826030
C63	C	0.978168	-0.598807	0.325971
C64	C	1.478168	-0.098807	0.825971
C65	C	0.978187	-0.688428	0.325949
C66	C	1.478187	-0.188428	0.825949
C67	C	0.978218	-1.016604	0.325873
C68	C	1.478218	-0.516604	0.825873
C69	C	0.978207	-0.925296	0.325897
C70	C	1.478207	-0.425296	0.825897
C71	C	0.978202	-0.852519	0.325912
C72	C	1.478202	-0.352519	0.825912
C73	C	0.978191	-0.761205	0.325934
C74	C	1.478191	-0.261205	0.825934
C75	C	1.154666	-0.388528	0.326029
C76	C	1.654666	0.111472	0.826029
C77	C	1.229898	-0.388541	0.326032
C78	C	1.729898	0.111459	0.826032
C79	C	0.978048	-0.388459	0.501877
C80	C	1.478048	0.111541	1.001877
C81	C	0.978077	-0.388470	0.577109
C82	C	1.478077	0.111530	1.077109
C83	C	0.978119	-0.179007	0.326023
C84	C	1.478119	0.320993	0.826023
C85	C	0.978231	-0.089387	0.325853
C86	C	1.478231	0.410613	0.825853
C87	C	0.978219	-0.388555	0.149478
C88	C	1.478219	0.111445	0.649478
C89	C	0.978259	-0.388579	0.074246
C90	C	1.478259	0.111421	0.574246
C91	C	1.021399	-0.336960	0.612445
C92	C	1.521399	0.163040	1.112445
C93	C	1.021427	-0.336978	0.683134
C94	C	1.521427	0.163022	1.183134
C95	C	0.978131	-0.388502	0.718485
C96	C	1.478131	0.111498	1.218485
C97	C	0.934807	-0.440016	0.683144
C98	C	1.434807	0.059984	1.183144
C99	C	0.934782	-0.440002	0.612457
C100	C	1.434782	0.059998	1.112457
C101	C	0.934907	-0.440076	0.968217
C102	C	1.434907	0.059924	1.468217
C103	C	0.934934	-0.440085	1.038909
C104	C	1.434934	0.059915	1.538909
C105	C	1.021552	-0.337052	1.038894
C106	C	1.521552	0.162948	1.538894
C107	C	1.021527	-0.337038	0.968207
C108	C	1.521527	0.162962	1.468207
C109	C	0.978206	-0.388555	0.932872
C110	C	1.478206	0.111445	1.432872
C111	C	0.978177	-0.388537	0.856224
C112	C	1.478177	0.111463	1.356224
C113	C	0.978156	-0.388517	0.795132
C114	C	1.478156	0.111483	1.295132
H115	H	0.720393	-0.294748	0.404464
H116	H	1.220393	0.205252	0.904464
O117	O	0.586698	-0.286573	0.411280
O118	O	1.086698	0.213427	0.911280
C119	C	0.633019	-0.240984	0.449443
C120	C	1.133019	0.259016	0.949443
H121	H	0.683417	-0.238251	0.421712
H122	H	1.183417	0.261749	0.921712
H123	H	0.612567	-0.177441	0.456593
H124	H	1.112567	0.322559	0.956593
H125	H	0.640526	-0.270395	0.500881
H126	H	1.140526	0.229605	1.000881
H127	H	1.056653	-0.295001	0.583667
H128	H	1.556653	0.204999	1.083667
O129	O	0.231022	-0.490494	0.240877
O130	O	0.731022	0.009506	0.740877
C131	C	0.248336	-0.570820	0.255746
C132	C	0.748336	-0.070820	0.755746
H133	H	0.267744	-0.574768	0.309822
H134	H	0.767744	-0.074768	0.809822
H135	H	0.201870	-0.610675	0.249960
H136	H	0.701870	-0.110675	0.749960
H137	H	0.289394	-0.591969	0.219480
H138	H	0.789394	-0.091969	0.719480
H139	H	1.056781	-0.295080	0.939426
H140	H	1.556781	0.204920	1.439426
H141	H	0.364635	-0.294809	0.404471
H142	H	0.864635	0.205191	0.904471
O143	O	0.230750	-0.286665	0.411172
O144	O	0.730750	0.213335	0.911172
C145	C	0.189868	-0.234662	0.372584
C146	C	0.689868	0.265338	0.872584
H147	H	0.179314	-0.263210	0.321320
H148	H	0.679314	0.236790	0.821320
H149	H	0.140143	-0.223807	0.400146
H150	H	0.640143	0.276193	0.900146
H151	H	0.217087	-0.174920	0.365085
H152	H	0.717087	0.325080	0.865085
H153	H	0.720548	-0.482193	0.247588
H154	H	1.220548	0.017807	0.747588
H155	H	1.056704	-0.295034	0.711901
H156	H	1.556704	0.204966	1.211901
O157	O	0.892728	-0.490144	0.717377
O158	O	1.392728	0.009856	1.217377
C159	C	0.854474	-0.535592	0.671028
C160	C	1.354474	-0.035592	1.171028
H161	H	0.882180	-0.538405	0.620615
H162	H	1.382180	-0.038405	1.120615
H163	H	0.847233	-0.599116	0.691420
H164	H	1.347233	-0.099116	1.191420
H165	H	0.803079	-0.506007	0.663571
H166	H	1.303079	-0.006007	1.163571
H167	H	1.056828	-0.295107	1.067672
H168	H	1.556828	0.204893	1.567672
H169	H	0.899677	-0.482047	1.067690
H170	H	1.399677	0.017953	1.567690
O171	O	0.892850	-0.490221	0.933977
O172	O	1.392850	0.009779	1.433977
C173	C	0.907614	-0.570606	0.951179
C174	C	1.407614	-0.070606	1.451179
H175	H	0.933658	-0.572316	1.002476
H176	H	1.433658	-0.072316	1.502476
H177	H	0.858745	-0.606696	0.953627
H178	H	1.358745	-0.106696	1.453627
H179	H	0.942376	-0.597805	0.911346
H180	H	1.442376	-0.097805	1.411346
O181	O	0.370370	-0.490447	0.240898
O182	O	0.870370	0.009553	0.740898
C183	C	0.411273	-0.542429	0.279483
C184	C	0.911273	-0.042429	0.779483
H185	H	0.389949	-0.547300	0.332797
H186	H	0.889949	-0.047300	0.832797
H187	H	0.412107	-0.604532	0.255064
H188	H	0.912107	-0.104532	0.755064
H189	H	0.464835	-0.517492	0.281786
H190	H	0.964835	-0.017492	0.781786
O191	O	0.586856	-0.490406	0.240780
O192	O	1.086856	0.009594	0.740780
C193	C	0.633245	-0.535982	0.202609
C194	C	1.133245	-0.035982	0.702609
H195	H	0.683623	-0.538706	0.230333
H196	H	1.183623	-0.038706	0.730333
H197	H	0.612852	-0.599529	0.195459
H198	H	1.112852	-0.099529	0.695459
H199	H	0.640773	-0.506568	0.151171
H200	H	1.140773	-0.006568	0.651171
H201	H	0.899506	-0.481947	0.583687
H202	H	1.399506	0.018053	1.083687
