data_functionalizedCrystal
_audit_creation_method	'MofGen! by Chris Wilmer'
_symmetry_space_group_name_H-M	'P1'
_symmetry_Int_Tables_number	1
_symmetry_cell_setting	triclinic
loop_
_symmetry_equiv_pos_as_xyz
  x,y,z
_cell_length_a	16.625548
_cell_length_b	29.839131
_cell_length_c	16.625539
_cell_angle_alpha	90.032094
_cell_angle_beta	90.020568
_cell_angle_gamma	90.042488
loop_
_atom_site_label
_atom_site_type_symbol
_atom_site_fract_x
_atom_site_fract_y
_atom_site_fract_z
Zn1	Zn	1.232574	-0.178840	0.455888
Zn2	Zn	1.482574	0.071160	0.705888
Zn3	Zn	1.732574	0.321160	0.955888
Zn4	Zn	1.982574	0.571160	1.205888
Zn5	Zn	1.232433	-0.253971	0.321046
Zn6	Zn	1.482433	-0.003971	0.571046
Zn7	Zn	1.732433	0.246029	0.821046
Zn8	Zn	1.982433	0.496029	1.071046
Zn9	Zn	1.097736	-0.178857	0.321069
Zn10	Zn	1.347736	0.071143	0.571069
Zn11	Zn	1.597736	0.321143	0.821069
Zn12	Zn	1.847736	0.571143	1.071069
Zn13	Zn	1.097662	-0.253945	0.455836
Zn14	Zn	1.347662	-0.003945	0.705836
Zn15	Zn	1.597662	0.246055	0.955836
Zn16	Zn	1.847662	0.496055	1.205836
O17	O	1.165101	-0.216403	0.388460
O18	O	1.415101	0.033597	0.638460
O19	O	1.665101	0.283597	0.888460
O20	O	1.915101	0.533597	1.138460
O21	O	1.345388	-0.188810	0.438013
O22	O	1.595388	0.061190	0.688013
O23	O	1.845388	0.311190	0.938013
O24	O	2.095388	0.561190	1.188013
O25	O	1.214537	-0.244025	0.208217
O26	O	1.464537	0.005975	0.458217
O27	O	1.714537	0.255975	0.708217
O28	O	1.964537	0.505975	0.958217
O29	O	1.115713	-0.115987	0.338984
O30	O	1.365713	0.134013	0.588984
O31	O	1.615713	0.384013	0.838984
O32	O	1.865713	0.634013	1.088984
O33	O	1.345284	-0.244008	0.338946
O34	O	1.595284	0.005992	0.588946
O35	O	1.845284	0.255992	0.838946
O36	O	2.095284	0.505992	1.088946
O37	O	1.214778	-0.115975	0.438035
O38	O	1.464778	0.134025	0.688035
O39	O	1.714778	0.384025	0.938035
O40	O	1.964778	0.634025	1.188035
O41	O	1.115576	-0.188839	0.208233
O42	O	1.365576	0.061161	0.458233
O43	O	1.615576	0.311161	0.708233
O44	O	1.865576	0.561161	0.958233
O45	O	0.984894	-0.188814	0.338933
O46	O	1.234894	0.061186	0.588933
O47	O	1.484894	0.311186	0.838933
O48	O	1.734894	0.561186	1.088933
O49	O	1.115586	-0.243964	0.568676
O50	O	1.365586	0.006036	0.818676
O51	O	1.615586	0.256036	1.068676
O52	O	1.865586	0.506036	1.318676
O53	O	0.984839	-0.243981	0.437947
O54	O	1.234839	0.006019	0.687947
O55	O	1.484839	0.256019	0.937947
O56	O	1.734839	0.506019	1.187947
O57	O	1.214706	-0.188785	0.568714
O58	O	1.464706	0.061215	0.818714
O59	O	1.714706	0.311215	1.068714
O60	O	1.964706	0.561215	1.318714
O61	O	1.214465	-0.316834	0.338896
O62	O	1.464465	-0.066834	0.588896
O63	O	1.714465	0.183166	0.838896
O64	O	1.964465	0.433166	1.088896
O65	O	1.115449	-0.316815	0.437925
O66	O	1.365449	-0.066815	0.687925
O67	O	1.615449	0.183185	0.937925
O68	O	1.865449	0.433185	1.187925
C69	C	0.955610	-0.216397	0.388437
C70	C	1.205610	0.033603	0.638437
C71	C	1.455610	0.283603	0.888437
C72	C	1.705610	0.533603	1.138437
C73	C	0.865989	-0.216405	0.388447
C74	C	1.115989	0.033595	0.638447
C75	C	1.365989	0.283595	0.888447
C76	C	1.615989	0.533595	1.138447
C77	C	0.537814	-0.216408	0.388481
C78	C	0.787814	0.033592	0.638481
C79	C	1.037814	0.283592	0.888481
C80	C	1.287814	0.533592	1.138481
C81	C	0.629122	-0.216406	0.388469
C82	C	0.879122	0.033594	0.638469
C83	C	1.129122	0.283594	0.888469
C84	C	1.379122	0.533594	1.138469
C85	C	0.701899	-0.216406	0.388463
C86	C	0.951899	0.033594	0.638463
C87	C	1.201899	0.283594	0.888463
C88	C	1.451899	0.533594	1.138463
C89	C	0.793213	-0.216404	0.388452
C90	C	1.043213	0.033596	0.638452
C91	C	1.293213	0.283596	0.888452
C92	C	1.543213	0.533596	1.138452
C93	C	1.164956	-0.333126	0.388420
C94	C	1.414956	-0.083126	0.638420
C95	C	1.664956	0.166874	0.888420
C96	C	1.914956	0.416874	1.138420
C97	C	1.164967	-0.383060	0.388430
C98	C	1.414967	-0.133060	0.638430
C99	C	1.664967	0.116940	0.888430
C100	C	1.914967	0.366940	1.138430
C101	C	1.216752	-0.692701	0.336971
C102	C	1.466752	-0.442701	0.586971
C103	C	1.716752	-0.192701	0.836971
C104	C	1.966752	0.057299	1.086971
C105	C	1.216852	-0.880374	0.337002
C106	C	1.466852	-0.630374	0.587002
C107	C	1.716852	-0.380374	0.837002
C108	C	1.966852	-0.130374	1.087002
O109	O	1.260766	-0.904636	0.293219
O110	O	1.510766	-0.654636	0.543219
O111	O	1.760766	-0.404636	0.793219
O112	O	2.010766	-0.154636	1.043219
N113	N	1.165268	-0.903845	0.388521
N114	N	1.415268	-0.653845	0.638521
N115	N	1.665268	-0.403845	0.888521
N116	N	1.915268	-0.153845	1.138521
C117	C	1.113660	-0.880395	0.440039
C118	C	1.363660	-0.630395	0.690039
C119	C	1.613660	-0.380395	0.940039
C120	C	1.863660	-0.130395	1.190039
O121	O	1.069793	-0.904665	0.483866
O122	O	1.319793	-0.654665	0.733866
O123	O	1.569793	-0.404665	0.983866
O124	O	1.819793	-0.154665	1.233866
C125	C	1.113565	-0.692723	0.440011
C126	C	1.363565	-0.442723	0.690011
C127	C	1.613565	-0.192723	0.940011
C128	C	1.863565	0.057277	1.190011
C129	C	1.165146	-0.669254	0.388483
C130	C	1.415146	-0.419254	0.638483
C131	C	1.665146	-0.169254	0.888483
C132	C	1.915146	0.080746	1.138483
C133	C	1.268330	-0.669232	0.285447
C134	C	1.518330	-0.419232	0.535447
C135	C	1.768330	-0.169232	0.785447
C136	C	2.018330	0.080768	1.035447
C137	C	1.268302	-0.622316	0.285437
C138	C	1.518302	-0.372316	0.535437
C139	C	1.768302	-0.122316	0.785437
C140	C	2.018302	0.127684	1.035437
C141	C	1.216695	-0.598870	0.336950
C142	C	1.466695	-0.348870	0.586950
C143	C	1.716695	-0.098870	0.836950
C144	C	1.966695	0.151130	1.086950
C145	C	1.165118	-0.622339	0.388473
C146	C	1.415118	-0.372339	0.638473
C147	C	1.665118	-0.122339	0.888473
C148	C	1.915118	0.127661	1.138473
C149	C	1.061962	-0.669274	0.491533
C150	C	1.311962	-0.419274	0.741533
C151	C	1.561962	-0.169274	0.991533
C152	C	1.811962	0.080726	1.241533
C153	C	1.061944	-0.622353	0.491523
C154	C	1.311944	-0.372353	0.741523
C155	C	1.561944	-0.122353	0.991523
C156	C	1.811944	0.127647	1.241523
C157	C	1.113525	-0.598884	0.439995
C158	C	1.363525	-0.348884	0.689995
C159	C	1.613525	-0.098884	0.939995
C160	C	1.863525	0.151116	1.189995
C161	C	1.113483	-0.551977	0.439975
C162	C	1.363483	-0.301977	0.689975
C163	C	1.613483	-0.051977	0.939975
C164	C	1.863483	0.198023	1.189975
N165	N	1.165067	-0.528505	0.388456
N166	N	1.415067	-0.278505	0.638456
N167	N	1.665067	-0.028505	0.888456
N168	N	1.915067	0.221495	1.138456
C169	C	1.216673	-0.551952	0.336944
C170	C	1.466673	-0.301952	0.586944
C171	C	1.716673	-0.051952	0.836944
C172	C	1.966673	0.198048	1.086944
C173	C	1.113712	-0.978926	0.440049
C174	C	1.363712	-0.728926	0.690049
C175	C	1.613712	-0.478926	0.940049
C176	C	1.863712	-0.228926	1.190049
C177	C	1.113735	-1.025844	0.440055
C178	C	1.363735	-0.775844	0.690055
C179	C	1.613735	-0.525844	0.940055
C180	C	1.863735	-0.275844	1.190055
C181	C	1.216928	-1.025819	0.337019
C182	C	1.466928	-0.775819	0.587019
C183	C	1.716928	-0.525819	0.837019
C184	C	1.966928	-0.275819	1.087019
C185	C	1.216901	-0.978900	0.337009
C186	C	1.466901	-0.728900	0.587009
C187	C	1.716901	-0.478900	0.837009
C188	C	1.966901	-0.228900	1.087009
C189	C	1.165296	-0.955455	0.388530
C190	C	1.415296	-0.705455	0.638530
C191	C	1.665296	-0.455455	0.888530
C192	C	1.915296	-0.205455	1.138530
C193	C	1.216609	-0.453426	0.336925
C194	C	1.466609	-0.203426	0.586925
C195	C	1.716609	0.046574	0.836925
C196	C	1.966609	0.296574	1.086925
C197	C	1.216573	-0.406506	0.336917
C198	C	1.466573	-0.156506	0.586917
C199	C	1.716573	0.093494	0.836917
C200	C	1.966573	0.343494	1.086917
C201	C	1.113383	-0.406535	0.439956
C202	C	1.363383	-0.156535	0.689956
C203	C	1.613383	0.093465	0.939956
C204	C	1.863383	0.343465	1.189956
C205	C	1.113416	-0.453451	0.439962
C206	C	1.363416	-0.203451	0.689962
C207	C	1.613416	0.046549	0.939962
C208	C	1.863416	0.296549	1.189962
C209	C	1.165035	-0.476895	0.388443
C210	C	1.415035	-0.226895	0.638443
C211	C	1.665035	0.023105	0.888443
C212	C	1.915035	0.273105	1.138443
O213	O	1.069599	-0.527685	0.483742
O214	O	1.319599	-0.277685	0.733742
O215	O	1.569599	-0.027685	0.983742
O216	O	1.819599	0.222315	1.233742
O217	O	1.260546	-0.527674	0.293136
O218	O	1.510546	-0.277674	0.543136
O219	O	1.760546	-0.027674	0.793136
O220	O	2.010546	0.222326	1.043136
C221	C	1.216781	-0.739616	0.336981
C222	C	1.466781	-0.489616	0.586981
C223	C	1.716781	-0.239616	0.836981
C224	C	1.966781	0.010384	1.086981
C225	C	1.165203	-0.763085	0.388504
C226	C	1.415203	-0.513085	0.638504
C227	C	1.665203	-0.263085	0.888504
C228	C	1.915203	-0.013085	1.138504
C229	C	1.113597	-0.739639	0.440017
C230	C	1.363597	-0.489639	0.690017
C231	C	1.613597	-0.239639	0.940017
C232	C	1.863597	0.010361	1.190017
C233	C	1.165226	-0.810003	0.388510
C234	C	1.415226	-0.560003	0.638510
C235	C	1.665226	-0.310003	0.888510
C236	C	1.915226	-0.060003	1.138510
C237	C	1.216832	-0.833449	0.336997
C238	C	1.466832	-0.583449	0.586997
C239	C	1.716832	-0.333449	0.836997
C240	C	1.966832	-0.083449	1.086997
C241	C	1.268416	-0.809978	0.285479
C242	C	1.518416	-0.559978	0.535479
C243	C	1.768416	-0.309978	0.785479
C244	C	2.018416	-0.059978	1.035479
C245	C	1.268387	-0.763062	0.285468
C246	C	1.518387	-0.513062	0.535468
C247	C	1.768387	-0.263062	0.785468
C248	C	2.018387	-0.013062	1.035468
C249	C	1.062014	-0.763110	0.491536
C250	C	1.312014	-0.513110	0.741536
C251	C	1.562014	-0.263110	0.991536
C252	C	1.812014	-0.013110	1.241536
C253	C	1.062046	-0.810026	0.491541
C254	C	1.312046	-0.560026	0.741541
C255	C	1.562046	-0.310026	0.991541
C256	C	1.812046	-0.060026	1.241541
C257	C	1.113652	-0.833472	0.440028
C258	C	1.363652	-0.583472	0.690028
C259	C	1.613652	-0.333472	0.940028
C260	C	1.863652	-0.083472	1.190028
C261	C	1.375410	-0.216410	0.388483
C262	C	1.625410	0.033590	0.638483
C263	C	1.875410	0.283590	0.888483
C264	C	2.125410	0.533590	1.138483
C265	C	1.465031	-0.216413	0.388493
C266	C	1.715031	0.033587	0.638493
C267	C	1.965031	0.283587	0.888493
C268	C	2.215031	0.533587	1.138493
C269	C	1.165154	-0.216370	0.598769
C270	C	1.415154	0.033630	0.848769
C271	C	1.665154	0.283630	1.098769
C272	C	1.915154	0.533630	1.348769
C273	C	1.165176	-0.216355	0.688390
C274	C	1.415176	0.033645	0.938390
C275	C	1.665176	0.283645	1.188390
C276	C	1.915176	0.533645	1.438390
C277	C	1.165269	-0.099225	0.388518
C278	C	1.415269	0.150775	0.638518
C279	C	1.665269	0.400775	0.888518
C280	C	1.915269	0.650775	1.138518
C281	C	1.165341	-0.049290	0.388542
C282	C	1.415341	0.200710	0.638542
C283	C	1.665341	0.450710	0.888542
C284	C	1.915341	0.700710	1.138542
C285	C	1.165095	-0.216404	0.178969
C286	C	1.415095	0.033596	0.428969
C287	C	1.665095	0.283596	0.678969
C288	C	1.915095	0.533596	0.928969
C289	C	1.165229	-0.216292	0.089348
C290	C	1.415229	0.033708	0.339348
C291	C	1.665229	0.283708	0.589348
C292	C	1.915229	0.533708	0.839348
C293	C	1.165213	-0.216305	1.016566
C294	C	1.415213	0.033695	1.266566
C295	C	1.665213	0.283695	1.516566
C296	C	1.915213	0.533695	1.766566
C297	C	1.165201	-0.216320	0.925257
C298	C	1.415201	0.033680	1.175257
C299	C	1.665201	0.283680	1.425257
C300	C	1.915201	0.533680	1.675257
C301	C	1.165195	-0.216330	0.852481
C302	C	1.415195	0.033670	1.102481
C303	C	1.665195	0.283670	1.352481
C304	C	1.915195	0.533670	1.602481
C305	C	1.165182	-0.216345	0.761167
C306	C	1.415182	0.033655	1.011167
C307	C	1.665182	0.283655	1.261167
C308	C	1.915182	0.533655	1.511167
H309	H	1.258577	-0.387399	0.294954
H310	H	1.508577	-0.137399	0.544954
H311	H	1.758577	0.112601	0.794954
H312	H	2.008577	0.362601	1.044954
H313	H	1.310389	-0.743957	0.243509
H314	H	1.560389	-0.493957	0.493509
H315	H	1.810389	-0.243957	0.743509
H316	H	2.060389	0.006043	0.993509
O317	O	1.324001	-0.694511	0.229879
O318	O	1.574001	-0.444511	0.479879
O319	O	1.824001	-0.194511	0.729879
O320	O	2.074001	0.055489	0.979879
H321	H	1.365028	-0.715846	0.266001
H322	H	1.615028	-0.465846	0.516001
H323	H	1.865028	-0.215846	0.766001
H324	H	2.115028	0.034154	1.016001
O325	O	1.272606	-1.051111	0.281471
O326	O	1.522606	-0.801111	0.531471
O327	O	1.772606	-0.551111	0.781471
O328	O	2.022606	-0.301111	1.031471
H329	H	1.263959	-1.087678	0.290145
H330	H	1.513959	-0.837678	0.540145
H331	H	1.763959	-0.587678	0.790145
H332	H	2.013959	-0.337678	1.040145
O333	O	1.323950	-0.597008	0.229872
O334	O	1.573950	-0.347008	0.479872
O335	O	1.823950	-0.097008	0.729872
O336	O	2.073950	0.152992	0.979872
H337	H	1.310172	-0.606048	0.166578
H338	H	1.560172	-0.356048	0.416578
H339	H	1.810172	-0.106048	0.666578
H340	H	2.060172	0.143952	0.916578
O341	O	1.006326	-0.694579	0.547112
O342	O	1.256326	-0.444579	0.797112
O343	O	1.506326	-0.194579	1.047112
O344	O	1.756326	0.055421	1.297112
H345	H	1.042403	-0.715920	0.588170
H346	H	1.292403	-0.465920	0.838170
H347	H	1.542403	-0.215920	1.088170
H348	H	1.792403	0.034080	1.338170
O349	O	1.272542	-0.953588	0.281442
O350	O	1.522542	-0.703588	0.531442
O351	O	1.772542	-0.453588	0.781442
O352	O	2.022542	-0.203588	1.031442
H353	H	1.308431	-0.977778	0.245630
H354	H	1.558431	-0.727778	0.495630
H355	H	1.808431	-0.477778	0.745630
H356	H	2.058431	-0.227778	0.995630
H357	H	1.071725	-1.044948	0.482007
H358	H	1.321725	-0.794948	0.732007
H359	H	1.571725	-0.544948	0.982007
H360	H	1.821725	-0.294948	1.232007
H361	H	1.020035	-0.829130	0.533501
H362	H	1.270035	-0.579130	0.783501
H363	H	1.520035	-0.329130	1.033501
H364	H	1.770035	-0.079130	1.283501
O365	O	1.006333	-0.737824	0.547081
O366	O	1.256333	-0.487824	0.797081
O367	O	1.506333	-0.237824	1.047081
O368	O	1.756333	0.012176	1.297081
H369	H	0.970464	-0.762031	0.582893
H370	H	1.220464	-0.512031	0.832893
H371	H	1.470464	-0.262031	1.082893
H372	H	1.720464	-0.012031	1.332893
O373	O	1.058030	-0.953640	0.495602
O374	O	1.308030	-0.703640	0.745602
O375	O	1.558030	-0.453640	0.995602
O376	O	1.808030	-0.203640	1.245602
H377	H	1.022159	-0.977848	0.531411
H378	H	1.272159	-0.727848	0.781411
H379	H	1.522159	-0.477848	1.031411
H380	H	1.772159	-0.227848	1.281411
H381	H	1.019922	-0.603266	0.533480
H382	H	1.269922	-0.353266	0.783480
H383	H	1.519922	-0.103266	1.033480
H384	H	1.769922	0.146734	1.283480
O385	O	1.057782	-0.478769	0.495534
O386	O	1.307782	-0.228769	0.745534
O387	O	1.557782	0.021231	0.995534
O388	O	1.807782	0.271231	1.245534
H389	H	1.021895	-0.454580	0.531354
H390	H	1.271895	-0.204580	0.781354
H391	H	1.521895	0.045420	1.031354
H392	H	1.771895	0.295420	1.281354
H393	H	1.071364	-0.387438	0.481895
H394	H	1.321364	-0.137438	0.731895
H395	H	1.571364	0.112562	0.981895
H396	H	1.821364	0.362562	1.231895
H397	H	1.310433	-0.829076	0.243533
H398	H	1.560433	-0.579076	0.493533
H399	H	1.810433	-0.329076	0.743533
H400	H	2.060433	-0.079076	0.993533
H401	H	1.258644	-0.472509	0.294976
H402	H	1.508644	-0.222509	0.544976
H403	H	1.758644	0.027491	0.794976
H404	H	2.008644	0.277491	1.044976
