data_functionalizedCrystal
_audit_creation_method	'MofGen! by Chris Wilmer'
_symmetry_space_group_name_H-M	'P1'
_symmetry_Int_Tables_number	1
_symmetry_cell_setting	triclinic
loop_
_symmetry_equiv_pos_as_xyz
  x,y,z
_cell_length_a	21.295419
_cell_length_b	18.050589
_cell_length_c	18.050582
_cell_angle_alpha	90.018205
_cell_angle_beta	90.014908
_cell_angle_gamma	90.043022
loop_
_atom_site_label
_atom_site_type_symbol
_atom_site_fract_x
_atom_site_fract_y
_atom_site_fract_z
Zn1	Zn	0.962306	-0.295413	0.419935
Zn2	Zn	1.295639	0.037920	0.753268
Zn3	Zn	1.628972	0.371253	1.086602
Zn4	Zn	0.962230	-0.419597	0.295754
Zn5	Zn	1.295563	-0.086263	0.629088
Zn6	Zn	1.628897	0.247070	0.962421
Zn7	Zn	0.857047	-0.295457	0.295759
Zn8	Zn	1.190380	0.037876	0.629092
Zn9	Zn	1.523713	0.371210	0.962426
Zn10	Zn	0.857003	-0.419598	0.419903
Zn11	Zn	1.190336	-0.086265	0.753236
Zn12	Zn	1.523669	0.247069	1.086570
O13	O	0.909646	-0.357516	0.357838
O14	O	1.242980	-0.024183	0.691171
O15	O	1.576313	0.309150	1.024504
O16	O	1.050385	-0.311868	0.403474
O17	O	1.383718	0.021466	0.736807
O18	O	1.717052	0.354799	1.070140
O19	O	0.948264	-0.403147	0.191830
O20	O	1.281597	-0.069814	0.525164
O21	O	1.614931	0.263520	0.858497
O22	O	0.871060	-0.191527	0.312247
O23	O	1.204393	0.141807	0.645580
O24	O	1.537726	0.475140	0.978913
O25	O	1.050329	-0.403105	0.312239
O26	O	1.383663	-0.069771	0.645572
O27	O	1.716996	0.263562	0.978905
O28	O	0.948393	-0.191495	0.403478
O29	O	1.281726	0.141839	0.736811
O30	O	1.615060	0.475172	1.070145
O31	O	0.870986	-0.311942	0.191834
O32	O	1.204320	0.021391	0.525167
O33	O	1.537653	0.354725	0.858500
O34	O	0.768951	-0.311944	0.312216
O35	O	1.102285	0.021390	0.645549
O36	O	1.435618	0.354723	0.978882
O37	O	0.870984	-0.403107	0.523832
O38	O	1.204318	-0.069774	0.857165
O39	O	1.537651	0.263560	1.190498
O40	O	0.768919	-0.403149	0.403423
O41	O	1.102252	-0.069816	0.736757
O42	O	1.435586	0.263517	1.070090
O43	O	0.948350	-0.311869	0.523855
O44	O	1.281684	0.021464	0.857189
O45	O	1.615017	0.354798	1.190522
O46	O	0.948221	-0.523521	0.312208
O47	O	1.281555	-0.190188	0.645541
O48	O	1.614888	0.143145	0.978874
O49	O	0.870911	-0.523523	0.403419
O50	O	1.204244	-0.190189	0.736752
O51	O	1.537578	0.143144	1.070086
C52	C	0.909570	-0.550469	0.357825
C53	C	1.242904	-0.217135	0.691159
C54	C	1.576237	0.116198	1.024492
C55	C	0.909595	-0.633014	0.357845
C56	C	1.242929	-0.299681	0.691178
C57	C	1.576262	0.033652	1.024512
C58	C	0.746095	-0.357552	0.357817
C59	C	1.079428	-0.024219	0.691150
C60	C	1.412761	0.309115	1.024484
C61	C	0.676126	-0.357585	0.357826
C62	C	1.009460	-0.024252	0.691159
C63	C	1.342793	0.309082	1.024492
C64	C	0.867595	-0.832492	0.407428
C65	C	1.200929	-0.499159	0.740762
C66	C	1.534262	-0.165826	1.074095
C67	C	0.852255	-0.881931	0.339661
C68	C	1.185588	-0.548598	0.672994
C69	C	1.518922	-0.215264	1.006328
C70	C	0.909657	-0.784145	0.357855
C71	C	1.242990	-0.450811	0.691188
C72	C	1.576324	-0.117478	1.024521
C73	C	0.925028	-0.881788	0.425630
C74	C	1.258362	-0.548454	0.758963
C75	C	1.591695	-0.215121	1.092296
C76	C	0.909716	-0.930130	0.357870
C77	C	1.243049	-0.596796	0.691203
C78	C	1.576382	-0.263463	1.024537
C79	C	0.894287	-0.832496	0.290051
C80	C	1.227620	-0.499163	0.623385
C81	C	1.560953	-0.165829	0.956718
C82	C	0.967087	-0.832348	0.376066
C83	C	1.300420	-0.499015	0.709399
C84	C	1.633753	-0.165682	1.042733
C85	C	0.951768	-0.881764	0.308252
C86	C	1.285102	-0.548431	0.641585
C87	C	1.618435	-0.215098	0.974919
C88	C	0.909622	-0.700046	0.357847
C89	C	1.242955	-0.366713	0.691180
C90	C	1.576288	-0.033380	1.024514
C91	C	0.909751	-1.014226	0.357870
C92	C	1.243084	-0.680893	0.691204
C93	C	1.576418	-0.347559	1.024537
C94	C	0.643311	-0.310156	0.405405
C95	C	0.976645	0.023178	0.738738
C96	C	1.309978	0.356511	1.072072
C97	C	0.577569	-0.310136	0.405408
C98	C	0.910902	0.023198	0.738741
C99	C	1.244235	0.356531	1.072075
C100	C	0.544644	-0.357558	0.357839
C101	C	0.877977	-0.024225	0.691173
C102	C	1.211311	0.309108	1.024506
C103	C	0.577467	-0.404991	0.310250
C104	C	0.910800	-0.071658	0.643584
C105	C	1.244134	0.261675	0.976917
C106	C	0.643208	-0.405004	0.310244
C107	C	0.976542	-0.071671	0.643577
C108	C	1.309875	0.261662	0.976910
N109	N	0.441372	-0.422537	0.352045
N110	N	0.774705	-0.089204	0.685378
N111	N	1.108038	0.244130	1.018711
N112	N	0.378920	-0.422522	0.352056
N113	N	0.712253	-0.089189	0.685389
N114	N	1.045587	0.244144	1.018722
C115	C	0.346569	-0.357520	0.357856
C116	C	0.679903	-0.024187	0.691189
C117	C	1.013236	0.309147	1.024522
N118	N	0.379029	-0.292532	0.363659
N119	N	0.712362	0.040802	0.696992
N120	N	1.045696	0.374135	1.030326
N121	N	0.441486	-0.292547	0.363652
N122	N	0.774820	0.040786	0.696985
N123	N	1.108153	0.374119	1.030319
C124	C	0.473359	-0.357549	0.357841
C125	C	0.806692	-0.024216	0.691174
C126	C	1.140025	0.309118	1.024508
C127	C	0.242469	-0.310065	0.405441
C128	C	0.575802	0.023268	0.738774
C129	C	0.909135	0.356602	1.072107
C130	C	0.176725	-0.310044	0.405438
C131	C	0.510058	0.023290	0.738772
C132	C	0.843391	0.356623	1.072105
C133	C	0.176624	-0.404906	0.310285
C134	C	0.509958	-0.071573	0.643618
C135	C	0.843291	0.261761	0.976951
C136	C	0.242367	-0.404920	0.310283
C137	C	0.575700	-0.071587	0.643617
C138	C	0.909034	0.261746	0.976950
C139	C	0.275285	-0.357501	0.357865
C140	C	0.608618	-0.024168	0.691198
C141	C	0.941952	0.309166	1.024532
C142	C	1.073836	-0.357481	0.357859
C143	C	1.407170	-0.024148	0.691192
C144	C	1.740503	0.309186	1.024526
C145	C	1.143805	-0.357466	0.357868
C146	C	1.477138	-0.024133	0.691202
C147	C	1.810471	0.309201	1.024535
C148	C	0.909671	-0.357483	0.551543
C149	C	1.243004	-0.024150	0.884877
C150	C	1.576338	0.309183	1.218210
C151	C	0.909681	-0.357469	0.634089
C152	C	1.243015	-0.024136	0.967423
C153	C	1.576348	0.309197	1.300756
C154	C	0.909740	-0.163811	0.357866
C155	C	1.243073	0.169523	0.691200
C156	C	1.576406	0.502856	1.024533
C157	C	0.909779	-0.081265	0.357879
C158	C	1.243113	0.252068	0.691212
C159	C	1.576446	0.585402	1.024545
C160	C	0.909658	-0.357496	0.164886
C161	C	1.242991	-0.024162	0.498219
C162	C	1.576325	0.309171	0.831552
C163	C	0.909769	-0.357300	0.082340
C164	C	1.243103	-0.023967	0.415674
C165	C	1.576436	0.309366	0.749007
C166	C	0.867642	-0.407017	0.833527
C167	C	1.200975	-0.073683	1.166861
C168	C	1.534309	0.259650	1.500194
C169	C	0.925073	-0.425153	0.882920
C170	C	1.258407	-0.091819	1.216253
C171	C	1.591740	0.241514	1.549587
C172	C	0.909712	-0.357413	0.785220
C173	C	1.243046	-0.024079	1.118553
C174	C	1.576379	0.309254	1.451886
C175	C	0.852313	-0.339256	0.882909
C176	C	1.185646	-0.005923	1.216242
C177	C	1.518979	0.327411	1.549575
C178	C	0.909737	-0.357359	0.931205
C179	C	1.243071	-0.024026	1.264538
C180	C	1.576404	0.309307	1.597872
C181	C	0.967174	-0.375584	0.833525
C182	C	1.300507	-0.042251	1.166859
C183	C	1.633840	0.291083	1.500192
C184	C	0.894375	-0.289656	0.833510
C185	C	1.227708	0.043677	1.166843
C186	C	1.561041	0.377011	1.500176
C187	C	0.951845	-0.307766	0.882880
C188	C	1.285179	0.025567	1.216213
C189	C	1.618512	0.358901	1.549547
C190	C	0.909697	-0.357445	0.701121
C191	C	1.243031	-0.024112	1.034455
C192	C	1.576364	0.309221	1.367788
C193	C	0.909759	-0.357327	1.015301
C194	C	1.243092	-0.023993	1.348635
C195	C	1.576426	0.309340	1.681968
H196	H	0.831973	-0.810856	0.449292
H197	H	1.165306	-0.477523	0.782625
H198	H	1.498639	-0.144190	1.115959
H199	H	0.803716	-0.903726	0.324272
H200	H	1.137050	-0.570393	0.657605
H201	H	1.470383	-0.237059	0.990939
H202	H	0.550656	-0.443603	0.271519
H203	H	0.883989	-0.110269	0.604852
H204	H	1.217322	0.223064	0.938186
H205	H	1.015614	-0.810555	0.391488
H206	H	1.348948	-0.477222	0.724821
H207	H	1.682281	-0.143889	1.058154
H208	H	0.881253	-0.810934	0.232725
H209	H	1.214586	-0.477600	0.566059
H210	H	1.547920	-0.144267	0.899392
H211	H	0.550845	-0.271509	0.444152
H212	H	0.884179	0.061824	0.777485
H213	H	1.217512	0.395157	1.110818
H214	H	0.987364	-0.903263	0.266287
H215	H	1.320697	-0.569930	0.599620
H216	H	1.654030	-0.236597	0.932954
H217	H	0.803760	-0.323921	0.904602
H218	H	1.137093	0.009412	1.237935
H219	H	1.470427	0.342745	1.571268
H220	H	0.938006	-0.903440	0.482940
H221	H	1.271339	-0.570106	0.816274
H222	H	1.604673	-0.236773	1.149607
H223	H	0.670109	-0.271542	0.444150
H224	H	1.003442	0.061791	0.777483
H225	H	1.336776	0.395124	1.110816
H226	H	0.669926	-0.443629	0.271498
H227	H	1.003260	-0.110295	0.604831
H228	H	1.336593	0.223038	0.938164
H229	H	0.987475	-0.265795	0.904413
H230	H	1.320808	0.067539	1.237746
H231	H	1.654141	0.400872	1.571080
H232	H	1.015741	-0.390984	0.811924
H233	H	1.349074	-0.057650	1.145257
H234	H	1.682407	0.275683	1.478591
H235	H	0.269272	-0.271448	0.444180
H236	H	0.602605	0.061885	0.777513
H237	H	0.935939	0.395218	1.110847
H238	H	0.881370	-0.232395	0.811790
H239	H	1.214703	0.100939	1.145123
H240	H	1.548036	0.434272	1.478457
H241	H	0.150008	-0.271417	0.444182
H242	H	0.483341	0.061917	0.777515
H243	H	0.816674	0.395250	1.110849
H244	H	0.149818	-0.443518	0.271553
H245	H	0.483151	-0.110185	0.604886
H246	H	0.816484	0.223148	0.938220
H247	H	0.269085	-0.443546	0.271542
H248	H	0.602419	-0.110212	0.604875
H249	H	0.935752	0.223121	0.938208
H250	H	0.832098	-0.449020	0.811858
H251	H	1.165431	-0.115687	1.145191
H252	H	1.498765	0.217646	1.478525
H253	H	0.938061	-0.482431	0.904623
H254	H	1.271395	-0.149097	1.237957
H255	H	1.604728	0.184236	1.571290
