data_functionalizedCrystal
_audit_creation_method	'MofGen! by Chris Wilmer'
_symmetry_space_group_name_H-M	'P1'
_symmetry_Int_Tables_number	1
_symmetry_cell_setting	triclinic
loop_
_symmetry_equiv_pos_as_xyz
  x,y,z
_cell_length_a	17.639617
_cell_length_b	25.639239
_cell_length_c	17.640968
_cell_angle_alpha	78.768889
_cell_angle_beta	70.333968
_cell_angle_gamma	101.222911
loop_
_atom_site_label
_atom_site_type_symbol
_atom_site_fract_x
_atom_site_fract_y
_atom_site_fract_z
Zn1	Zn	1.354419	0.069163	-0.721260
Zn2	Zn	1.687753	0.402497	-0.387926
Zn3	Zn	2.021086	0.735830	-0.054593
Zn4	Zn	1.326398	-0.040454	-0.583392
Zn5	Zn	1.659731	0.292879	-0.250059
Zn6	Zn	1.993064	0.626212	0.083275
Zn7	Zn	1.188687	0.024849	-0.555521
Zn8	Zn	1.522021	0.358183	-0.222187
Zn9	Zn	1.855354	0.691516	0.111146
Zn10	Zn	1.216487	-0.040403	-0.693275
Zn11	Zn	1.549820	0.292930	-0.359941
Zn12	Zn	1.883154	0.626263	-0.026608
O13	O	1.271498	0.003289	-0.638362
O14	O	1.604831	0.336622	-0.305028
O15	O	1.938164	0.669955	0.028305
O16	O	1.466059	0.073146	-0.726347
O17	O	1.799393	0.406480	-0.393014
O18	O	2.132726	0.739813	-0.059681
O19	O	1.284769	-0.050359	-0.464346
O20	O	1.618102	0.282975	-0.131013
O21	O	1.951435	0.616308	0.202321
O22	O	1.210765	0.103912	-0.577554
O23	O	1.544098	0.437245	-0.244220
O24	O	1.877431	0.770578	0.089113
O25	O	1.445472	-0.007389	-0.625056
O26	O	1.778805	0.325944	-0.291723
O27	O	2.112139	0.659277	0.041610
O28	O	1.332527	0.136469	-0.699322
O29	O	1.665861	0.469802	-0.365988
O30	O	1.999194	0.803136	-0.032655
O31	O	1.183593	-0.002380	-0.443869
O32	O	1.516927	0.330953	-0.110536
O33	O	1.850260	0.664287	0.222798
O34	O	1.077018	-0.002331	-0.550418
O35	O	1.410351	0.331003	-0.217085
O36	O	1.743684	0.664336	0.116249
O37	O	1.258146	-0.007302	-0.812336
O38	O	1.591479	0.326031	-0.479002
O39	O	1.924812	0.659364	-0.145669
O40	O	1.097442	-0.050272	-0.651625
O41	O	1.430775	0.283062	-0.318292
O42	O	1.764109	0.616395	0.015042
O43	O	1.359484	0.073196	-0.832896
O44	O	1.692817	0.406529	-0.499563
O45	O	2.026150	0.739863	-0.166229
O46	O	1.311725	-0.113632	-0.597921
O47	O	1.645058	0.219702	-0.264587
O48	O	1.978392	0.553035	0.068746
O49	O	1.230974	-0.113594	-0.678651
O50	O	1.564308	0.219739	-0.345318
O51	O	1.897641	0.553072	-0.011984
C52	C	1.057319	-0.031105	-0.594961
C53	C	1.390652	0.302229	-0.261627
C54	C	1.723986	0.635562	0.071706
C55	C	0.965696	-0.045828	-0.576413
C56	C	1.299030	0.287506	-0.243080
C57	C	1.632363	0.620839	0.090253
C58	C	0.718001	0.115182	-0.779469
C59	C	1.051335	0.448515	-0.446136
C60	C	1.384668	0.781849	-0.112803
C61	C	0.631904	0.101332	-0.762024
C62	C	0.965238	0.434665	-0.428691
C63	C	1.298571	0.767998	-0.095358
C64	C	0.610458	0.017556	-0.656398
C65	C	0.943791	0.350890	-0.323065
C66	C	1.277125	0.684223	0.010268
C67	C	0.696555	0.031398	-0.673837
C68	C	1.029889	0.364732	-0.340504
C69	C	1.363222	0.698065	-0.007171
C70	C	0.750320	0.080212	-0.735373
C71	C	1.083654	0.413546	-0.402040
C72	C	1.416987	0.746879	-0.068706
C73	C	0.728875	-0.003571	-0.629741
C74	C	1.062208	0.329762	-0.296408
C75	C	1.395541	0.663095	0.036926
C76	C	0.814964	0.010271	-0.647176
C77	C	1.148297	0.343604	-0.313842
C78	C	1.481630	0.676938	0.019491
C79	C	0.868734	0.059083	-0.708707
C80	C	1.202067	0.392417	-0.375374
C81	C	1.535400	0.725750	-0.042040
C82	C	0.836410	0.094055	-0.752808
C83	C	1.169743	0.427388	-0.419474
C84	C	1.503076	0.760721	-0.086141
C85	C	0.675107	-0.052383	-0.568202
C86	C	1.008440	0.280950	-0.234868
C87	C	1.341774	0.614284	0.098465
C88	C	0.707426	-0.087353	-0.524105
C89	C	1.040760	0.245980	-0.190772
C90	C	1.374093	0.579314	0.142561
C91	C	0.793518	-0.073513	-0.541544
C92	C	1.126851	0.259821	-0.208211
C93	C	1.460185	0.593154	0.125123
C94	C	0.847288	-0.024700	-0.603075
C95	C	1.180621	0.308633	-0.269742
C96	C	1.513955	0.641966	0.063592
C97	C	0.825842	-0.108484	-0.497443
C98	C	1.159175	0.224849	-0.164110
C99	C	1.492509	0.558183	0.169224
C100	C	0.911931	-0.094641	-0.514878
C101	C	1.245265	0.238692	-0.181544
C102	C	1.578598	0.572025	0.151789
C103	C	0.933377	-0.010858	-0.620510
C104	C	1.266710	0.322476	-0.287176
C105	C	1.600044	0.655809	0.046157
C106	C	1.271352	-0.132582	-0.638296
C107	C	1.604685	0.200751	-0.304963
C108	C	1.938018	0.534084	0.028371
C109	C	1.271370	-0.190692	-0.638311
C110	C	1.604703	0.142642	-0.304977
C111	C	1.938037	0.475975	0.028356
C112	C	1.313700	-0.551001	-0.596443
C113	C	1.647034	-0.217668	-0.263110
C114	C	1.980367	0.115665	0.070224
C115	C	1.313735	-0.605599	-0.596461
C116	C	1.647068	-0.272265	-0.263127
C117	C	1.980401	0.061068	0.070206
O118	O	1.349573	-0.633820	-0.560793
O119	O	1.682907	-0.300486	-0.227459
O120	O	2.016240	0.032847	0.105874
N121	N	1.271654	-0.632918	-0.638446
N122	N	1.604987	-0.299585	-0.305112
N123	N	1.938320	0.033748	0.028221
C124	C	1.229543	-0.605636	-0.680423
C125	C	1.562876	-0.272302	-0.347090
C126	C	1.896210	0.061031	-0.013756
O127	O	1.193754	-0.633886	-0.716137
O128	O	1.527087	-0.300553	-0.382804
O129	O	1.860420	0.032780	-0.049470
C130	C	1.229514	-0.551038	-0.680410
C131	C	1.562848	-0.217705	-0.347077
C132	C	1.896181	0.115629	-0.013743
C133	C	1.271591	-0.523723	-0.638415
C134	C	1.604924	-0.190390	-0.305082
C135	C	1.938258	0.142944	0.028252
C136	C	1.355774	-0.523686	-0.554452
C137	C	1.689108	-0.190353	-0.221119
C138	C	2.022441	0.142980	0.112214
C139	C	1.355739	-0.469093	-0.554434
C140	C	1.689072	-0.135760	-0.221100
C141	C	2.022405	0.197574	0.112233
C142	C	1.313629	-0.441815	-0.596406
C143	C	1.646963	-0.108481	-0.263072
C144	C	1.980296	0.224852	0.070261
C145	C	1.271555	-0.469130	-0.638397
C146	C	1.604889	-0.135796	-0.305063
C147	C	1.938222	0.197537	0.028270
C148	C	1.187409	-0.523755	-0.722392
C149	C	1.520742	-0.190422	-0.389059
C150	C	1.854076	0.142912	-0.055725
C151	C	1.187385	-0.469153	-0.722376
C152	C	1.520718	-0.135820	-0.389043
C153	C	1.854051	0.197513	-0.055709
C154	C	1.229461	-0.441839	-0.680381
C155	C	1.562794	-0.108505	-0.347048
C156	C	1.896128	0.224828	-0.013714
C157	C	1.229410	-0.387258	-0.680350
C158	C	1.562743	-0.053925	-0.347017
C159	C	1.896077	0.279408	-0.013683
N160	N	1.271491	-0.359939	-0.638365
N161	N	1.604824	-0.026605	-0.305032
N162	N	1.938158	0.306728	0.028302
C163	C	1.313601	-0.387217	-0.596393
C164	C	1.646934	-0.053884	-0.263059
C165	C	1.980267	0.279450	0.070274
C166	C	1.229608	-0.720294	-0.680448
C167	C	1.562941	-0.386961	-0.347115
C168	C	1.896274	-0.053628	-0.013782
C169	C	1.229631	-0.774892	-0.680457
C170	C	1.562964	-0.441559	-0.347123
C171	C	1.896298	-0.108226	-0.013790
C172	C	1.313824	-0.774851	-0.596495
C173	C	1.647157	-0.441518	-0.263162
C174	C	1.980491	-0.108185	0.070171
C175	C	1.313795	-0.720254	-0.596482
C176	C	1.647129	-0.386920	-0.263149
C177	C	1.980462	-0.053587	0.070184
C178	C	1.271689	-0.692975	-0.638463
C179	C	1.605022	-0.359641	-0.305130
C180	C	1.938355	-0.026308	0.028203
C181	C	1.313522	-0.272567	-0.596356
C182	C	1.646855	0.060766	-0.263023
C183	C	1.980189	0.394099	0.070310
C184	C	1.313480	-0.217970	-0.596338
C185	C	1.646813	0.115363	-0.263005
C186	C	1.980146	0.448697	0.070328
C187	C	1.229290	-0.218015	-0.680303
C188	C	1.562624	0.115318	-0.346970
C189	C	1.895957	0.448652	-0.013637
C190	C	1.229329	-0.272608	-0.680318
C191	C	1.562662	0.060725	-0.346984
C192	C	1.895995	0.394058	-0.013651
C193	C	1.271451	-0.299883	-0.638343
C194	C	1.604784	0.033451	-0.305009
C195	C	1.938117	0.366784	0.028324
O196	O	1.193592	-0.359002	-0.716002
O197	O	1.526926	-0.025669	-0.382669
O198	O	1.860259	0.307665	-0.049336
O199	O	1.349393	-0.358957	-0.560694
O200	O	1.682726	-0.025624	-0.227361
O201	O	2.016060	0.307709	0.105972
C202	C	1.486513	0.037816	-0.681932
C203	C	1.819846	0.371149	-0.348599
C204	C	2.153180	0.704483	-0.015266
C205	C	1.578140	0.052529	-0.700500
C206	C	1.911473	0.385863	-0.367166
C207	C	2.244806	0.719196	-0.033833
C208	C	1.315041	0.037896	-0.853361
C209	C	1.648375	0.371229	-0.520027
C210	C	1.981708	0.704562	-0.186694
C211	C	1.333597	0.052643	-0.944980
C212	C	1.666930	0.385976	-0.611647
C213	C	2.000264	0.719310	-0.278314
C214	C	1.271671	0.139697	-0.638450
C215	C	1.605004	0.473030	-0.305117
C216	C	1.938337	0.806363	0.028216
C217	C	1.271744	0.197826	-0.638488
C218	C	1.605078	0.531159	-0.305155
C219	C	1.938411	0.864492	0.028179
C220	C	1.130849	-0.108410	-1.192789
C221	C	1.464182	0.224923	-0.859455
C222	C	1.797516	0.558257	-0.526122
C223	C	1.148302	-0.094543	-1.278883
C224	C	1.481636	0.238790	-0.945550
C225	C	1.814969	0.572123	-0.612216
C226	C	1.253817	-0.010728	-1.300280
C227	C	1.587150	0.322606	-0.966947
C228	C	1.920483	0.655939	-0.633614
C229	C	1.236369	-0.024586	-1.214186
C230	C	1.569703	0.308747	-0.880852
C231	C	1.903036	0.642081	-0.547519
C232	C	1.174885	-0.073428	-1.160446
C233	C	1.508219	0.259905	-0.827113
C234	C	1.841552	0.593238	-0.493780
C235	C	1.280406	0.010396	-1.181843
C236	C	1.613739	0.343729	-0.848510
C237	C	1.947072	0.677062	-0.515177
C238	C	1.262963	-0.003463	-1.095757
C239	C	1.596296	0.329870	-0.762423
C240	C	1.929629	0.663204	-0.429090
C241	C	1.201483	-0.052304	-1.042012
C242	C	1.534817	0.281029	-0.708679
C243	C	1.868150	0.614363	-0.375346
C244	C	1.157442	-0.087287	-1.074360
C245	C	1.490776	0.246046	-0.741026
C246	C	1.824109	0.579379	-0.407693
C247	C	1.341894	0.059236	-1.235585
C248	C	1.675227	0.392569	-0.902252
C249	C	2.008560	0.725903	-0.568918
C250	C	1.385930	0.094218	-1.203242
C251	C	1.719263	0.427551	-0.869909
C252	C	2.052597	0.760884	-0.536576
C253	C	1.368483	0.080361	-1.117154
C254	C	1.701817	0.413694	-0.783820
C255	C	2.035150	0.747028	-0.450487
C256	C	1.307004	0.031520	-1.063409
C257	C	1.640337	0.364853	-0.730076
C258	C	1.973670	0.698187	-0.396743
C259	C	1.412524	0.115344	-1.084806
C260	C	1.745858	0.448677	-0.751473
C261	C	2.079191	0.782011	-0.418140
C262	C	1.395081	0.101485	-0.998720
C263	C	1.728414	0.434818	-0.665386
C264	C	2.061748	0.768152	-0.332053
C265	C	1.289561	0.017661	-0.977323
C266	C	1.622894	0.350994	-0.643989
C267	C	1.956227	0.684328	-0.310656
C268	C	1.228171	-0.031138	-0.424209
C269	C	1.561504	0.302195	-0.090875
C270	C	1.894838	0.635529	0.242458
C271	C	1.209775	-0.045712	-0.332622
C272	C	1.543109	0.287621	0.000711
C273	C	1.876442	0.620954	0.334045
H274	H	0.880190	0.133802	-0.802919
H275	H	1.213523	0.467136	-0.469586
H276	H	1.546856	0.800469	-0.136253
H277	H	1.239474	-0.022102	-0.933561
H278	H	1.572808	0.311232	-0.600227
H279	H	1.906141	0.644565	-0.266894
Br280	Br	0.752864	-0.174723	-0.413922
Br281	Br	1.086197	0.158611	-0.080588
Br282	Br	1.419531	0.491944	0.252745
Br283	Br	0.955800	-0.142103	-0.455039
Br284	Br	1.289133	0.191230	-0.121706
Br285	Br	1.622466	0.524563	0.211628
Br286	Br	1.073989	-0.153569	-1.001418
Br287	Br	1.407322	0.179764	-0.668084
Br288	Br	1.740655	0.513097	-0.334751
Br289	Br	1.172201	-0.309686	-0.737287
Br290	Br	1.505534	0.023647	-0.403954
Br291	Br	1.838867	0.356980	-0.070620
H292	H	1.348115	-0.797070	-0.562323
H293	H	1.681449	-0.463737	-0.228990
H294	H	2.014782	-0.130403	0.104344
H295	H	1.195002	-0.195797	-0.714473
H296	H	1.528336	0.137536	-0.381140
H297	H	1.861669	0.470869	-0.047807
Br298	Br	0.790978	0.181426	-0.862992
Br299	Br	1.124312	0.514759	-0.529659
Br300	Br	1.457645	0.848092	-0.196326
Br301	Br	1.454850	0.148958	-0.954822
Br302	Br	1.788183	0.482291	-0.621489
Br303	Br	2.121517	0.815625	-0.288155
Br304	Br	1.130240	-0.432134	-0.779357
Br305	Br	1.463573	-0.098801	-0.446024
Br306	Br	1.796907	0.234532	-0.112690
Br307	Br	1.469374	0.160499	-1.276182
Br308	Br	1.802707	0.493833	-0.942848
Br309	Br	2.136041	0.827166	-0.609515
H310	H	1.303879	0.029039	-1.344047
H311	H	1.637213	0.362372	-1.010713
H312	H	1.970546	0.695705	-0.677380
Br313	Br	0.558268	-0.071166	-0.544532
Br314	Br	0.891602	0.262167	-0.211199
Br315	Br	1.224935	0.595501	0.122135
Br316	Br	1.412933	-0.560696	-0.497485
Br317	Br	1.746267	-0.227362	-0.164151
Br318	Br	2.079600	0.105971	0.169182
H319	H	0.605594	0.129814	-0.797933
H320	H	0.938928	0.463147	-0.464600
H321	H	1.272261	0.796481	-0.131267
H322	H	1.347743	-0.195732	-0.562138
H323	H	1.681076	0.137601	-0.228805
H324	H	2.014409	0.470934	0.104528
Br325	Br	1.047395	-0.174692	-1.119847
Br326	Br	1.380729	0.158641	-0.786513
Br327	Br	1.714062	0.491975	-0.453180
H328	H	1.462590	0.155109	-1.128574
H329	H	1.795923	0.488442	-0.795241
H330	H	2.129257	0.821775	-0.461908
Br331	Br	1.172510	-0.811960	-0.737438
Br332	Br	1.505843	-0.478626	-0.404104
Br333	Br	1.839177	-0.145293	-0.070771
Br334	Br	0.634452	-0.153596	-0.440591
Br335	Br	0.967786	0.179738	-0.107258
Br336	Br	1.301119	0.513071	0.226075
H337	H	1.348058	-0.698017	-0.562287
H338	H	1.681392	-0.364683	-0.228954
H339	H	2.014725	-0.031350	0.104379
H340	H	1.112438	-0.123033	-1.305211
H341	H	1.445771	0.210300	-0.971878
H342	H	1.779105	0.543633	-0.638545
H343	H	1.347824	-0.294767	-0.562179
H344	H	1.681157	0.038566	-0.228845
H345	H	2.014490	0.371900	0.104488
Br346	Br	1.412860	-0.432027	-0.497452
Br347	Br	1.746194	-0.098694	-0.164119
Br348	Br	2.079527	0.234639	0.169215
H349	H	0.938832	0.070354	-0.722898
H350	H	1.272165	0.403688	-0.389565
H351	H	1.605499	0.737021	-0.056231
Br352	Br	1.365572	0.078043	-1.352420
Br353	Br	1.698905	0.411376	-1.019086
Br354	Br	2.032239	0.744709	-0.685753
Br355	Br	1.172451	-0.683280	-0.737422
Br356	Br	1.505784	-0.349947	-0.404088
Br357	Br	1.839118	-0.016614	-0.070755
H358	H	1.153141	-0.545987	-0.756584
H359	H	1.486474	-0.212653	-0.423251
H360	H	1.819808	0.120680	-0.089917
Br361	Br	1.177814	-0.071118	-0.925180
Br362	Br	1.511148	0.262215	-0.591846
Br363	Br	1.844481	0.595549	-0.258513
H364	H	0.566671	-0.022186	-0.606294
H365	H	0.900004	0.311147	-0.272960
H366	H	1.233337	0.644480	0.060373
Br367	Br	1.006354	0.055386	-0.704033
Br368	Br	1.339687	0.388719	-0.370699
Br369	Br	1.673021	0.722053	-0.037366
