data_functionalizedCrystal
_audit_creation_method	'MofGen! by Chris Wilmer'
_symmetry_space_group_name_H-M	'P1'
_symmetry_Int_Tables_number	1
_symmetry_cell_setting	triclinic
loop_
_symmetry_equiv_pos_as_xyz
  x,y,z
_cell_length_a	14.853567
_cell_length_b	14.044220
_cell_length_c	13.930277
_cell_angle_alpha	89.994760
_cell_angle_beta	89.995755
_cell_angle_gamma	88.411904
loop_
_atom_site_label
_atom_site_type_symbol
_atom_site_fract_x
_atom_site_fract_y
_atom_site_fract_z
O1	O	1.206174	0.123767	-0.079767
O2	O	0.944883	0.138510	-0.079784
O3	O	1.071607	-0.006851	-0.079766
O4	O	1.079450	0.269128	-0.079785
O5	O	1.071587	-0.006854	0.079896
O6	O	0.944863	0.138507	0.079878
O7	O	1.206155	0.123764	0.079895
Zn8	Zn	1.075506	0.131135	0.105236
Zn9	Zn	1.075532	0.131139	-0.105125
O10	O	1.079431	0.269125	0.079877
C11	C	0.911231	0.137841	0.000045
C12	C	0.810989	0.135839	0.000039
C13	C	0.390944	0.041029	0.000067
C14	C	0.383345	0.213721	0.000054
C15	C	0.477528	0.215604	0.000051
C16	C	0.528423	0.130197	0.000054
C17	C	0.485135	0.042908	0.000061
C18	C	0.520822	0.302891	0.000035
C19	C	0.615011	0.304777	0.000031
C20	C	0.665908	0.219369	0.000041
C21	C	0.622615	0.132077	0.000048
C22	C	0.673510	0.046670	0.000052
C23	C	0.630218	-0.040623	0.000066
C24	C	0.536032	-0.042499	0.000071
C25	C	0.760094	0.221246	0.000036
C26	C	0.767702	0.048550	0.000046
C27	C	1.068163	-0.042172	0.000065
C28	C	1.057921	-0.147411	0.000066
C29	C	1.039197	-0.340097	0.000051
C30	C	1.111836	-0.397635	0.000052
C31	C	1.101418	-0.504852	0.000044
C32	C	1.049614	-0.232870	0.000059
C33	C	1.239806	0.124433	0.000064
C34	C	1.340048	0.126435	0.000064
C35	C	1.082874	0.304446	0.000044
C36	C	1.093116	0.409685	0.000037
N37	N	1.075495	0.131132	0.248802
N38	N	1.075549	0.131135	-0.248691
C39	C	1.019414	0.195480	0.701064
C40	C	1.131673	0.066791	0.701049
C41	C	1.131663	0.066788	0.600553
C42	C	1.075527	0.131133	0.550308
C43	C	1.019403	0.195481	0.600559
C44	C	1.187792	0.002448	0.550295
C45	C	1.187784	0.002443	0.449793
C46	C	1.131644	0.066784	0.399546
C47	C	1.075517	0.131134	0.449803
C48	C	1.019382	0.195479	0.399558
C49	C	0.963249	0.259825	0.449813
C50	C	0.963263	0.259822	0.550312
C51	C	1.131630	0.066787	0.299047
C52	C	1.019371	0.195480	0.299053
H53	H	0.671670	-0.110161	0.000062
O54	O	1.186052	0.004169	0.250262
C55	C	1.163891	-0.089712	0.274837
H56	H	1.091674	-0.090335	0.302489
H57	H	1.211647	-0.117460	0.333155
C58	C	1.261426	-0.153172	0.151590
C59	C	1.172725	-0.153939	0.185544
H60	H	1.266879	-0.192792	0.096512
H61	H	1.276360	-0.089923	0.135035
H62	H	1.301213	-0.176294	0.200196
H63	H	1.132942	-0.130806	0.136943
H64	H	1.157785	-0.217186	0.202089
H65	H	0.500776	-0.113569	0.000105
H66	H	0.809134	-0.021000	0.000052
O67	O	0.908695	0.322421	0.401150
C68	C	0.859135	0.379197	0.467048
H69	H	0.896184	0.380343	0.538686
H70	H	0.789682	0.348285	0.477742
C71	C	0.803265	0.480021	0.339825
C72	C	0.848773	0.481434	0.427811
H73	H	0.796869	0.543085	0.315622
H74	H	0.836652	0.441768	0.295428
H75	H	0.745393	0.454256	0.348749
H76	H	0.906648	0.507187	0.418884
H77	H	0.815395	0.519694	0.472206
H78	H	0.479377	0.372424	0.000023
H79	H	0.355691	-0.030044	0.000082
H80	H	0.341900	0.283255	0.000044
H81	H	0.650251	0.375856	0.000019
H82	H	0.795338	0.292318	0.000026
O83	O	1.242443	-0.059972	0.599049
C84	C	1.332936	-0.044418	0.574465
H85	H	1.339490	0.031486	0.546845
H86	H	1.355184	-0.096904	0.516120
C87	C	1.384831	-0.152288	0.697655
C88	C	1.392881	-0.059058	0.663740
H89	H	1.421809	-0.161323	0.752723
H90	H	1.323864	-0.162770	0.714217
H91	H	1.403369	-0.196016	0.649027
H92	H	1.374332	-0.015333	0.712364
H93	H	1.453847	-0.048569	0.647189
O94	O	1.195316	-0.360235	-0.000059
C95	C	1.205690	-0.303693	-0.082754
H96	H	1.136579	-0.279269	-0.110334
H97	H	1.242143	-0.347256	-0.140653
C98	C	1.346018	-0.246071	-0.023740
C99	C	1.261135	-0.216067	-0.057610
H100	H	1.380222	-0.192022	-0.008234
H101	H	1.339032	-0.284167	0.031971
H102	H	1.376384	-0.282375	-0.071996
H103	H	1.230766	-0.179775	-0.009351
H104	H	1.268117	-0.177963	-0.113313
O105	O	0.964974	0.257948	0.750024
C106	C	0.976996	0.244136	0.849502
H107	H	1.045832	0.208844	0.863224
H108	H	0.922143	0.196490	0.878032
C109	C	0.886693	0.384432	0.884239
C110	C	0.971242	0.341093	0.901093
H111	H	0.883140	0.444239	0.916064
H112	H	0.878590	0.393737	0.817219
H113	H	0.840991	0.344717	0.908015
H114	H	1.016941	0.380803	0.877307
H115	H	0.979352	0.331798	0.968111
H116	H	0.969191	-0.371358	0.000044
O117	O	0.964940	0.258118	0.250292
C118	C	0.987123	0.351989	0.274863
H119	H	1.059350	0.352592	0.302478
H120	H	0.939390	0.379730	0.333206
C121	C	0.889559	0.415497	0.151669
C122	C	0.978272	0.416239	0.185579
H123	H	0.884096	0.455132	0.096596
H124	H	0.874611	0.352255	0.135117
H125	H	0.849791	0.438613	0.200297
H126	H	1.018036	0.393113	0.136956
H127	H	0.993227	0.479479	0.202120
H128	H	0.917562	0.312211	0.591236
O129	O	1.186327	0.004376	0.749804
C130	C	1.276818	0.019928	0.725208
H131	H	1.283368	0.095829	0.697579
H132	H	1.299061	-0.032565	0.666868
C133	C	1.328725	-0.087927	0.848406
C134	C	1.336772	0.005299	0.814479
H135	H	1.365709	-0.096955	0.903471
H136	H	1.267760	-0.098408	0.864975
H137	H	1.347260	-0.131661	0.799781
H138	H	1.318227	0.049030	0.863100
H139	H	1.397735	0.015787	0.797920
O140	O	1.242195	-0.060282	0.401123
C141	C	1.219907	-0.154084	0.425863
H142	H	1.147661	-0.154564	0.453444
H143	H	1.267580	-0.181775	0.484283
C144	C	1.317489	-0.217907	0.302839
C145	C	1.228752	-0.218497	0.336707
H146	H	1.322948	-0.257641	0.247845
H147	H	1.332507	-0.154711	0.286173
H148	H	1.357206	-0.240980	0.351530
H149	H	1.189038	-0.195413	0.288020
H150	H	1.213727	-0.281691	0.353363
