data_functionalizedCrystal
_audit_creation_method	'MofGen! by Chris Wilmer'
_symmetry_space_group_name_H-M	'P1'
_symmetry_Int_Tables_number	1
_symmetry_cell_setting	triclinic
loop_
_symmetry_equiv_pos_as_xyz
  x,y,z
_cell_length_a	19.377625
_cell_length_b	23.196402
_cell_length_c	23.196401
_cell_angle_alpha	59.997774
_cell_angle_beta	75.515449
_cell_angle_gamma	52.470927
loop_
_atom_site_label
_atom_site_type_symbol
_atom_site_fract_x
_atom_site_fract_y
_atom_site_fract_z
Zr1	Zr	0.686702	0.630984	-0.219170
O2	O	0.572887	0.751262	-0.287435
O3	O	0.721583	0.510718	-0.198244
O4	O	0.721570	0.630999	-0.318517
O5	O	0.572921	0.630964	-0.072288
O6	O	0.838866	0.630998	-0.343034
O7	O	0.572899	0.630980	-0.167162
O8	O	0.838888	0.415836	-0.127888
O9	O	0.572899	0.846126	-0.287434
O10	O	0.824008	0.560180	-0.207615
O11	O	0.736487	0.560168	-0.118515
O12	O	0.736473	0.701785	-0.260121
O13	O	0.648952	0.701773	-0.171020
Zr14	Zr	0.873810	0.630956	-0.106958
Zr15	Zr	0.873776	0.630982	-0.258272
Zr16	Zr	0.686737	0.630958	-0.067857
Zr17	Zr	0.686721	0.782281	-0.219169
Zr18	Zr	0.873791	0.479659	-0.106960
O19	O	0.838930	0.751223	-0.127884
O20	O	0.838881	0.751260	-0.343033
O21	O	0.572936	0.751225	-0.072287
O22	O	0.987626	0.510678	-0.038694
O23	O	0.987577	0.510715	-0.253842
O24	O	0.721632	0.510681	0.016904
O25	O	0.987592	0.630977	-0.253841
O26	O	0.838943	0.630941	-0.007612
O27	O	0.721647	0.630942	0.016905
O28	O	0.987613	0.630960	-0.158966
O29	O	0.721597	0.846125	-0.318515
O30	O	0.838916	0.415816	-0.007614
O31	O	0.987614	0.415814	-0.038695
O32	O	0.987586	0.415835	-0.158969
O33	O	0.572926	0.846105	-0.167160
O34	O	0.721625	0.846104	-0.198241
O35	O	0.824040	0.560155	-0.066008
O36	O	0.911560	0.560167	-0.155108
O37	O	0.824025	0.701772	-0.207614
O38	O	0.736505	0.701760	-0.118513
C39	C	0.780233	0.441720	-0.163066
C40	C	0.780225	0.377491	-0.163067
C41	C	0.844857	0.295053	-0.124312
C42	C	0.844863	0.234692	-0.124306
C43	C	0.780243	0.256775	-0.163069
C44	C	0.715600	0.339227	-0.201827
C45	C	0.715591	0.399585	-0.201826
C46	C	0.760108	0.201199	-0.222657
C47	C	0.760123	0.140840	-0.222660
C48	C	0.780267	0.070613	-0.163071
C49	C	0.800413	0.060743	-0.103479
C50	C	0.800404	0.121101	-0.103478
C51	C	0.780246	0.191333	-0.163074
C52	C	0.844909	-0.077278	-0.124306
C53	C	0.844909	-0.137638	-0.124299
C54	C	0.715650	-0.033100	-0.201826
C55	C	0.715646	0.027257	-0.201826
C56	C	0.780280	0.005162	-0.163068
C57	C	0.546256	0.630972	-0.114154
C58	C	0.466839	0.630973	-0.097554
C59	C	0.205577	0.630987	-0.304256
C60	C	0.130956	0.630982	-0.288636
C61	C	0.131001	0.630964	-0.184109
C62	C	0.205621	0.630973	-0.199721
C63	C	0.242904	0.630984	-0.259795
C64	C	0.242947	0.630970	-0.155261
C65	C	0.317563	0.630976	-0.170870
C66	C	0.354853	0.630984	-0.230940
C67	C	0.317520	0.630990	-0.275404
C68	C	0.205667	0.630954	-0.095185
C69	C	0.242993	0.630950	-0.050724
C70	C	0.317607	0.630962	-0.066335
C71	C	0.354896	0.630970	-0.126406
C72	C	0.354940	0.630956	-0.021871
C73	C	0.429556	0.630962	-0.037480
C74	C	0.429512	0.630976	-0.142015
C75	C	1.014256	0.630968	-0.211975
C76	C	1.093674	0.630968	-0.228574
C77	C	0.780213	0.631003	-0.352334
C78	C	0.780198	0.631014	-0.416571
C79	C	0.780280	0.820220	-0.163062
C80	C	0.780288	0.884450	-0.163061
C81	C	0.844820	0.631015	-0.460241
C82	C	0.844839	0.630998	-0.520592
C83	C	0.780224	0.630997	-0.537275
C84	C	0.715597	0.630992	-0.493594
C85	C	0.715584	0.631000	-0.433242
C86	C	0.701370	0.678491	-0.640174
C87	C	0.701382	0.678488	-0.700527
C88	C	0.780262	0.630968	-0.723420
C89	C	0.859135	0.583462	-0.685958
C90	C	0.859123	0.583471	-0.625606
C91	C	0.780230	0.630988	-0.602716
C92	C	0.844910	0.630950	-0.832530
C93	C	0.844930	0.630929	-0.892879
C94	C	0.715680	0.630931	-0.865883
C95	C	0.715667	0.630944	-0.805532
C96	C	0.780282	0.630958	-0.788861
C97	C	0.780300	0.630938	0.026206
C98	C	0.780314	0.630927	0.090442
C99	C	1.014233	0.441718	-0.211977
C100	C	1.093642	0.377488	-0.228577
C101	C	0.780276	0.441688	0.026204
C102	C	0.780283	0.377447	0.090439
C103	C	1.014276	0.441686	-0.022707
C104	C	1.093700	0.377445	0.024929
C105	C	0.546237	0.820254	-0.303422
C106	C	0.466813	0.884496	-0.351058
C107	C	0.546280	0.820222	-0.114152
C108	C	0.466871	0.884452	-0.097551
C109	C	0.780237	0.820252	-0.352332
C110	C	0.780230	0.884493	-0.416568
C111	C	1.085232	0.347332	-0.263787
C112	C	1.159839	0.286989	-0.279398
C113	C	1.242854	0.256799	-0.259794
C114	C	1.251263	0.286962	-0.224582
C115	C	1.176657	0.347308	-0.208976
C116	C	0.825987	0.347272	0.148020
C117	C	0.825990	0.286920	0.208383
C118	C	0.780293	0.256739	0.211163
C119	C	0.734583	0.286920	0.153577
C120	C	0.734575	0.347275	0.093216
C121	C	1.176691	0.347282	0.000789
C122	C	1.251326	0.286929	0.045541
C123	C	1.242967	0.256735	0.114433
C124	C	1.159968	0.286904	0.138574
C125	C	1.085335	0.347260	0.093822
C126	C	0.383822	0.914665	-0.326917
C127	C	0.309187	0.975037	-0.371669
C128	C	0.317545	1.005234	-0.440562
C129	C	0.400545	0.975062	-0.464703
C130	C	0.475178	0.914695	-0.419951
C131	C	0.475281	0.914615	-0.062348
C132	C	0.400674	0.974974	-0.046754
C133	C	0.317658	1.005166	-0.066360
C134	C	0.309250	0.975001	-0.101569
C135	C	0.383856	0.914646	-0.117166
C136	C	0.825936	0.914655	-0.419328
C137	C	0.825947	0.975008	-0.479682
C138	C	0.780246	1.005202	-0.537275
C139	C	0.734539	0.975035	-0.534514
C140	C	0.734533	0.914679	-0.474161
H141	H	0.897486	0.277056	-0.092751
O142	O	0.875246	1.007537	-0.482646
H143	H	0.867588	1.054572	-0.534287
H144	H	0.743723	0.148881	-0.271183
O145	O	0.090681	0.631006	-0.336601
H146	H	0.090850	0.575737	-0.311504
H147	H	0.697360	0.371836	0.046334
H148	H	0.863200	0.371839	0.145769
O149	O	0.237045	1.070353	-0.488828
H150	H	0.177935	1.086253	-0.460461
H151	H	0.100639	0.630952	-0.135196
H152	H	0.376999	0.890082	-0.270824
O153	O	0.944229	0.532202	-0.710632
H154	H	0.943139	0.487573	-0.715578
H155	H	0.863151	0.890080	-0.372439
H156	H	0.662961	0.630999	-0.397684
O157	O	1.323472	0.191627	0.162694
H158	H	1.303725	0.175694	0.214657
O159	O	0.219672	1.007560	-0.345626
H160	H	0.226406	0.976402	-0.290203
H161	H	0.780257	1.054348	-0.586413
H162	H	0.697377	0.262338	0.155850
H163	H	0.542869	0.890038	-0.046374
O164	O	0.469719	0.631003	-0.206816
H165	H	0.527870	0.631015	-0.210201
O166	O	0.645938	0.116176	-0.243634
H167	H	0.656783	0.154437	-0.237118
H168	H	0.697310	0.890128	-0.471923
O169	O	0.685279	1.007585	-0.596643
H170	H	0.653507	0.976464	-0.584596
O171	O	0.409547	1.007634	-0.539010
H172	H	0.445774	1.035140	-0.552735
O173	O	0.645880	0.488505	-0.243637
H174	H	0.608619	0.518499	-0.210718
O175	O	0.435324	0.631004	-0.247781
H176	H	0.489180	0.575740	-0.208841
H177	H	1.153175	0.262311	0.194672
H178	H	1.318864	0.262373	-0.208624
H179	H	0.863216	0.262354	0.255264
H180	H	0.144912	0.630945	-0.082477
O181	O	0.822127	0.110455	-0.039205
H182	H	0.880319	0.110919	-0.044365
H183	H	0.897494	0.167559	-0.092745
O184	O	1.150752	0.254462	-0.317370
H185	H	1.182531	0.266066	-0.364880
O186	O	0.645892	0.631004	-0.511585
H187	H	0.676960	0.575739	-0.517943
O188	O	0.374772	0.882116	-0.155134
H189	H	0.440591	0.835078	-0.162694
H190	H	0.256917	1.054310	-0.053656
H191	H	0.637160	0.717174	-0.731026
H192	H	0.347872	0.631007	-0.324326
H193	H	1.183513	0.371857	-0.055305
H194	H	1.303596	0.207661	-0.272504
H195	H	1.017763	0.371810	0.113488
H196	H	0.743697	0.258383	-0.271184
O197	O	0.822134	-0.014992	-0.039199
H198	H	0.818745	-0.055301	-0.049206
O199	O	0.564690	0.882145	-0.445992
H200	H	0.557954	0.913282	-0.501415
H201	H	0.897534	-0.095269	-0.092743
H202	H	0.407537	0.999525	-0.018083
H203	H	0.663034	-0.015119	-0.233386
O204	O	0.914630	-0.226560	-0.082506
H205	H	0.959577	-0.231778	-0.055565
O206	O	0.219710	1.007567	-0.122715
H207	H	0.169253	1.054596	-0.105946
H208	H	0.212631	0.630939	-0.001811
H209	H	0.662986	0.357203	-0.233387
O210	O	0.469826	0.630953	0.010473
H211	H	0.469664	0.686218	-0.014634
O212	O	0.944131	0.532213	-0.585121
H213	H	0.986918	0.551698	-0.615331
H214	H	0.324579	0.630939	0.027044
O215	O	0.914517	0.631014	-0.442252
H216	H	0.959461	0.631003	-0.482759
O217	O	1.340849	0.254387	0.019511
H218	H	1.348440	0.226880	-0.011372
O219	O	0.245799	0.631001	-0.369050
H220	H	0.207311	0.631000	-0.397347
H221	H	0.897463	0.630999	-0.556155
H222	H	0.897525	0.630958	-0.818954
H223	H	0.897556	0.630924	-0.928436
H224	H	0.663072	0.630925	-0.879464
H225	H	1.183517	0.371853	-0.180302
H226	H	0.637131	0.717180	-0.621535
O227	O	0.645960	0.630957	-0.758430
H228	H	0.601026	0.630961	-0.780170
O229	O	0.995698	0.379895	-0.284943
H230	H	1.002398	0.348788	-0.312057
H231	H	0.780306	0.207594	0.260316
