data_functionalizedCrystal
_audit_creation_method	'MofGen! by Chris Wilmer'
_symmetry_space_group_name_H-M	'P1'
_symmetry_Int_Tables_number	1
_symmetry_cell_setting	triclinic
loop_
_symmetry_equiv_pos_as_xyz
  x,y,z
_cell_length_a	23.532355
_cell_length_b	23.532407
_cell_length_c	10.868271
_cell_angle_alpha	89.986386
_cell_angle_beta	90.001502
_cell_angle_gamma	82.838123
loop_
_atom_site_label
_atom_site_type_symbol
_atom_site_fract_x
_atom_site_fract_y
_atom_site_fract_z
O1	O	0.755279	0.068994	-0.102177
O2	O	0.589411	0.079029	-0.102220
O3	O	0.677346	-0.008921	-0.102163
O4	O	0.667343	0.156944	-0.102234
O5	O	0.677339	-0.008924	0.102482
O6	O	0.589404	0.079025	0.102425
O7	O	0.755271	0.068991	0.102467
Zn8	Zn	0.672336	0.074008	0.134938
Zn9	Zn	0.672346	0.074012	-0.134690
O10	O	0.667336	0.156941	0.102410
C11	C	0.568191	0.078776	0.000098
C12	C	0.504972	0.078022	0.000083
C13	C	0.112954	0.073282	0.111689
C14	C	0.053555	0.072565	0.111694
O15	O	0.022833	0.072173	0.206563
N16	N	0.023850	0.072211	0.000142
C17	C	0.053549	0.072568	-0.111421
O18	O	0.022829	0.072201	-0.206304
C19	C	0.112948	0.073282	-0.111425
C20	C	0.142649	0.073641	0.000134
C21	C	0.142655	0.073641	0.223238
C22	C	0.202050	0.074360	0.223233
C23	C	0.231745	0.074719	0.111678
C24	C	0.202044	0.074360	0.000128
C25	C	0.142646	0.073635	-0.222987
C26	C	0.202049	0.074348	-0.222981
C27	C	0.231750	0.074708	-0.111423
C28	C	0.291133	0.075438	-0.111432
N29	N	0.320838	0.075792	0.000119
C30	C	0.291144	0.075432	0.111674
C31	C	-0.071192	0.071069	-0.111405
C32	C	-0.130591	0.070360	-0.111402
C33	C	-0.130581	0.070355	0.111713
C34	C	-0.071182	0.071069	0.111709
C35	C	-0.041488	0.071423	0.000147
C36	C	0.415878	0.076942	0.111654
C37	C	0.475278	0.077663	0.111638
C38	C	0.475263	0.077664	-0.111476
C39	C	0.415868	0.076947	-0.111462
C40	C	0.386177	0.076583	0.000113
O41	O	0.321893	0.075828	-0.206253
O42	O	0.321872	0.075792	0.206540
C43	C	0.677088	-0.030139	0.000166
C44	C	0.676322	-0.093356	0.000184
C45	C	0.621125	-0.359513	0.000093
C46	C	0.621837	-0.300113	0.000103
O47	O	0.578050	-0.263360	0.000053
N48	N	0.674114	-0.277496	0.000131
C49	C	0.725684	-0.314283	0.000136
O50	O	0.770216	-0.289592	0.000159
C51	C	0.724972	-0.373682	0.000117
C52	C	0.672691	-0.396295	0.000102
C53	C	0.568849	-0.382126	0.000077
C54	C	0.568137	-0.441522	0.000070
C55	C	0.619703	-0.478305	0.000079
C56	C	0.671980	-0.455691	0.000095
C57	C	0.776541	-0.410468	0.000114
C58	C	0.775824	-0.469871	0.000095
C59	C	0.723543	-0.492484	0.000080
C60	C	0.722834	-0.551870	0.000097
N61	N	0.670556	-0.574486	0.000069
C62	C	0.618991	-0.537704	0.000060
C63	C	0.727175	-0.189541	0.000172
C64	C	0.727888	-0.130143	0.000200
C65	C	0.624041	-0.115977	0.000165
C66	C	0.623329	-0.175376	0.000146
C67	C	0.674898	-0.212158	0.000145
C68	C	0.617501	-0.662440	0.000046
C69	C	0.616795	-0.721842	0.000044
C70	C	0.720642	-0.736004	0.000072
C71	C	0.721349	-0.676607	0.000081
C72	C	0.669774	-0.639826	0.000064
O73	O	0.766598	-0.588657	0.000142
O74	O	0.574467	-0.562403	0.000021
C75	C	0.776492	0.069244	0.000147
C76	C	0.839710	0.069998	0.000154
C77	C	0.667594	0.178158	0.000079
C78	C	0.668360	0.241375	0.000053
N79	N	0.672334	0.074004	0.318952
N80	N	0.672353	0.074011	-0.318704
C81	C	0.672343	0.074011	0.569958
C82	C	0.672336	0.074009	0.430281
H83	H	-0.047003	0.071362	0.202550
Cl84	Cl	0.105323	0.073181	-0.363242
Cl85	Cl	0.840659	-0.516108	0.000089
Cl86	Cl	0.502409	-0.469941	0.000035
Cl87	Cl	0.512612	0.078116	0.251894
H88	H	0.763920	-0.658195	0.000111
Cl89	Cl	0.559215	-0.069725	0.000152
H90	H	0.391710	0.076651	0.202509
H91	H	0.526855	-0.352183	0.000066
H92	H	0.769172	-0.219487	0.000180
Cl93	Cl	0.512605	0.078113	-0.251709
H94	H	0.226223	0.074637	-0.313831
H95	H	0.580757	-0.193783	0.000139
H96	H	0.770460	-0.111738	0.000231
H97	H	0.819114	-0.392068	0.000125
Cl98	Cl	0.378527	0.076504	-0.251708
Cl99	Cl	-0.167923	0.069919	-0.251653
H100	H	-0.154768	0.070062	0.202547
Cl101	Cl	0.552663	-0.616211	0.000028
Cl102	Cl	0.239380	0.074808	0.363486
Cl103	Cl	0.105336	0.073193	0.363498
Cl104	Cl	0.551065	-0.750266	0.000027
H105	H	-0.047020	0.071364	-0.202258
Cl106	Cl	0.785463	-0.782255	0.000092
