data_functionalizedCrystal
_audit_creation_method	'MofGen! by Chris Wilmer'
_symmetry_space_group_name_H-M	'P1'
_symmetry_Int_Tables_number	1
_symmetry_cell_setting	triclinic
loop_
_symmetry_equiv_pos_as_xyz
  x,y,z
_cell_length_a	12.645331
_cell_length_b	25.639239
_cell_length_c	12.645323
_cell_angle_alpha	90.031874
_cell_angle_beta	90.022822
_cell_angle_gamma	90.038900
loop_
_atom_site_label
_atom_site_type_symbol
_atom_site_fract_x
_atom_site_fract_y
_atom_site_fract_z
Zn1	Zn	1.620577	-0.208144	0.599399
Zn2	Zn	2.120577	0.291856	1.099399
Zn3	Zn	1.620393	-0.295583	0.422117
Zn4	Zn	2.120393	0.204417	0.922117
Zn5	Zn	1.443291	-0.208163	0.422143
Zn6	Zn	1.943291	0.291837	0.922143
Zn7	Zn	1.443208	-0.295550	0.599332
Zn8	Zn	1.943208	0.204450	1.099332
O9	O	1.531867	-0.251860	0.510748
O10	O	2.031867	0.248140	1.010748
O11	O	1.768900	-0.219748	0.575899
O12	O	2.268900	0.280252	1.075899
O13	O	1.596858	-0.284008	0.273773
O14	O	2.096858	0.215992	0.773773
O15	O	1.466920	-0.134995	0.445695
O16	O	1.966920	0.365005	0.945695
O17	O	1.768765	-0.283989	0.445651
O18	O	2.268765	0.216011	0.945651
O19	O	1.597171	-0.134981	0.575924
O20	O	2.097171	0.365019	1.075924
O21	O	1.466742	-0.219781	0.273792
O22	O	1.966742	0.280219	0.773792
O23	O	1.294933	-0.219750	0.445630
O24	O	1.794933	0.280250	0.945630
O25	O	1.466778	-0.283934	0.747688
O26	O	1.966778	0.216066	1.247688
O27	O	1.294872	-0.283953	0.575810
O28	O	1.794872	0.216047	1.075810
O29	O	1.597090	-0.219717	0.747737
O30	O	2.097090	0.280283	1.247737
O31	O	1.596778	-0.368743	0.445587
O32	O	2.096778	0.131257	0.945587
O33	O	1.466600	-0.368720	0.575786
O34	O	1.966600	0.131280	1.075786
C35	C	1.256438	-0.251850	0.510716
C36	C	1.756438	0.248150	1.010716
C37	C	1.138607	-0.251859	0.510728
C38	C	1.638607	0.248141	1.010728
C39	C	1.093729	-0.211406	0.428965
C40	C	1.593729	0.288594	0.928965
C41	C	0.971169	-0.211257	0.429245
C42	C	1.471169	0.288743	0.929245
C43	C	0.970789	-0.237165	0.622639
C44	C	1.470789	0.262835	1.122639
C45	C	1.093387	-0.236863	0.622129
C46	C	1.593387	0.263137	1.122129
C47	C	1.093351	-0.307126	0.481636
C48	C	1.593351	0.192874	0.981636
C49	C	0.970744	-0.306838	0.479210
C50	C	1.470744	0.193162	0.979210
C51	C	1.531689	-0.387703	0.510699
C52	C	2.031689	0.112297	1.010699
C53	C	1.531710	-0.445817	0.510714
C54	C	2.031710	0.054183	1.010714
C55	C	1.599827	-0.806179	0.443069
C56	C	2.099827	-0.306179	0.943069
C57	C	1.599869	-0.860784	0.443083
C58	C	2.099869	-0.360784	0.943083
O59	O	1.657600	-0.889020	0.385515
O60	O	2.157600	-0.389020	0.885515
N61	N	1.532054	-0.888099	0.510818
N62	N	2.032054	-0.388099	1.010818
C63	C	1.464201	-0.860807	0.578551
C64	C	1.964201	-0.360807	1.078551
O65	O	1.406523	-0.889055	0.636167
O66	O	1.906523	-0.389055	1.136167
C67	C	1.464166	-0.806204	0.578541
C68	C	1.964166	-0.306204	1.078541
C69	C	1.531978	-0.778891	0.510794
C70	C	2.031978	-0.278891	1.010794
C71	C	1.667635	-0.778867	0.375328
C72	C	2.167635	-0.278867	0.875328
C73	C	1.667592	-0.724266	0.375312
C74	C	2.167592	-0.224266	0.875312
C75	C	1.599742	-0.696978	0.443038
C76	C	2.099742	-0.196978	0.943038
C77	C	1.531935	-0.724291	0.510779
C78	C	2.031935	-0.224291	1.010779
C79	C	1.396319	-0.778913	0.646279
C80	C	1.896319	-0.278913	1.146279
C81	C	1.396290	-0.724306	0.646264
C82	C	1.896290	-0.224306	1.146264
C83	C	1.464102	-0.696993	0.578517
C84	C	1.964102	-0.196993	1.078517
C85	C	1.464042	-0.642402	0.578489
C86	C	1.964042	-0.142402	1.078489
N87	N	1.531857	-0.615087	0.510754
N88	N	2.031857	-0.115087	1.010754
C89	C	1.599707	-0.642375	0.443028
C90	C	2.099707	-0.142375	0.943028
C91	C	1.464281	-0.975478	0.578567
C92	C	1.964281	-0.475478	1.078567
C93	C	1.464309	-1.030080	0.578572
C94	C	1.964309	-0.530080	1.078572
C95	C	1.599979	-1.030053	0.443105
C96	C	2.099979	-0.530053	0.943105
C97	C	1.599944	-0.975449	0.443096
C98	C	2.099944	-0.475449	0.943096
C99	C	1.532096	-0.948162	0.510832
C100	C	2.032096	-0.448162	1.010832
C101	C	1.599611	-0.527710	0.443001
C102	C	2.099611	-0.027710	0.943001
C103	C	1.599560	-0.473105	0.442988
C104	C	2.099560	0.026895	0.942988
C105	C	1.463894	-0.473137	0.578459
C106	C	1.963894	0.026863	1.078459
C107	C	1.463942	-0.527737	0.578468
C108	C	1.963942	-0.027737	1.078468
C109	C	1.531809	-0.555022	0.510735
C110	C	2.031809	-0.055022	1.010735
O111	O	1.406343	-0.614131	0.636030
O112	O	1.906343	-0.114131	1.136030
O113	O	1.657385	-0.614120	0.385432
O114	O	2.157385	-0.114120	0.885432
C115	C	1.808372	-0.251870	0.510780
C116	C	2.308372	0.248130	1.010780
C117	C	1.926203	-0.251874	0.510793
C118	C	2.426203	0.248126	1.010793
C119	C	1.531945	-0.251819	0.787253
C120	C	2.031945	0.248181	1.287253
C121	C	1.531979	-0.251802	0.905083
C122	C	2.031979	0.248198	1.405083
C123	C	1.532075	-0.115487	0.510820
C124	C	2.032075	0.384513	1.010820
C125	C	1.532164	-0.057373	0.510850
C126	C	2.032164	0.442627	1.010850
C127	C	1.531850	-0.251862	0.235318
C128	C	2.031850	0.248138	0.735318
C129	C	1.532023	-0.251732	0.117488
C130	C	2.032023	0.248268	0.617488
C131	C	1.449747	-0.292011	1.072617
C132	C	1.949747	0.207989	1.572617
C133	C	1.449962	-0.292210	0.950057
C134	C	1.949962	0.207790	1.450057
C135	C	1.643667	-0.266755	0.949600
C136	C	2.143667	0.233245	1.449600
C137	C	1.643216	-0.267007	1.072198
C138	C	2.143216	0.232993	1.572198
C139	C	1.503579	-0.196416	1.072295
C140	C	2.003579	0.303584	1.572295
C141	C	1.501086	-0.196748	0.949688
C142	C	2.001086	0.303252	1.449688
H143	H	0.941018	-0.220433	0.346327
H144	H	1.441018	0.279567	0.846327
F145	F	0.930728	-0.184957	0.655359
F146	F	1.430728	0.315043	1.155359
F147	F	1.671843	-0.556741	0.370912
F148	F	2.171843	-0.056741	0.870912
F149	F	1.674734	-0.319862	1.109584
F150	F	2.174734	0.180138	1.609584
H151	H	1.408727	-0.549976	0.633636
H152	H	1.908727	-0.049976	1.133636
F153	F	1.573703	-0.155448	0.909687
F154	F	2.073703	0.344552	1.409687
H155	H	1.655230	-1.052281	0.387963
H156	H	2.155230	-0.552281	0.887963
H157	H	1.408649	-0.450910	0.633597
H158	H	1.908649	0.049090	1.133597
F159	F	1.133677	-0.324680	0.376803
F160	F	1.633677	0.175320	0.876803
H161	H	0.941668	-0.265733	0.685252
H162	H	1.441668	0.234267	1.185252
F163	F	1.739779	-0.695205	0.303218
F164	F	2.239779	-0.195205	0.803218
H165	H	1.722892	-0.801079	0.320177
H166	H	2.222892	-0.301079	0.820177
H167	H	1.409021	-0.953263	0.633723
H168	H	1.909021	-0.453263	1.133723
F169	F	0.932645	-0.321342	0.371620
F170	F	1.432645	0.178658	0.871620
H171	H	1.706611	-0.238346	0.920472
H172	H	2.206611	0.261654	1.420472
H173	H	1.655163	-0.953215	0.387931
H174	H	2.155163	-0.453215	0.887931
F175	F	0.930766	-0.348321	0.551362
F176	F	1.430766	0.151679	1.051362
H177	H	1.123081	-0.265058	0.685159
H178	H	1.623081	0.234942	1.185159
H179	H	1.409080	-1.052313	0.633729
H180	H	1.909080	-0.552313	1.133729
F181	F	1.324077	-0.695268	0.718363
F182	F	1.824077	-0.195268	1.218363
F183	F	1.581906	-0.157192	1.110226
F184	F	2.081906	0.342808	1.610226
H185	H	1.341094	-0.801141	0.701441
H186	H	1.841094	-0.301141	1.201441
F187	F	1.131307	-0.346520	0.559453
F188	F	1.631307	0.153480	1.059453
F189	F	1.726011	-0.230303	1.111003
F190	F	2.226011	0.269697	1.611003
F191	F	1.341709	-0.279977	0.910711
F192	F	1.841709	0.220023	1.410711
F193	F	1.341166	-0.279896	1.111133
F194	F	1.841166	0.220104	1.611133
F195	F	1.393649	-0.182010	0.911669
F196	F	1.893649	0.317990	1.411669
F197	F	1.130836	-0.184068	0.654271
F198	F	1.630836	0.315932	1.154271
F199	F	1.132184	-0.223249	0.320220
F200	F	1.632184	0.276751	0.820220
F201	F	1.398981	-0.178600	1.112689
F202	F	1.898981	0.321400	1.612689
F203	F	1.671737	-0.444040	0.370879
F204	F	2.171737	0.055960	0.870879
F205	F	1.473996	-0.345272	1.112947
F206	F	1.973996	0.154728	1.612947
F207	F	1.675731	-0.319056	0.909477
F208	F	2.175731	0.180944	1.409477
F209	F	1.134057	-0.158181	0.453886
F210	F	1.634057	0.341819	0.953886
F211	F	0.932894	-0.157734	0.454502
F212	F	1.432894	0.342266	0.954502
F213	F	1.474550	-0.345806	0.911723
F214	F	1.974550	0.154194	1.411723
