data_functionalizedCrystal
_audit_creation_method	'MofGen! by Chris Wilmer'
_symmetry_space_group_name_H-M	'P1'
_symmetry_Int_Tables_number	1
_symmetry_cell_setting	triclinic
loop_
_symmetry_equiv_pos_as_xyz
  x,y,z
_cell_length_a	14.519731
_cell_length_b	27.732025
_cell_length_c	13.596369
_cell_angle_alpha	90.008546
_cell_angle_beta	89.994584
_cell_angle_gamma	83.161162
loop_
_atom_site_label
_atom_site_type_symbol
_atom_site_fract_x
_atom_site_fract_y
_atom_site_fract_z
O1	O	1.222743	0.063412	-0.081761
O2	O	1.722743	0.563412	0.418239
O3	O	0.954138	0.070863	-0.081758
O4	O	1.454138	0.570863	0.418242
O5	O	1.096794	-0.003220	-0.081789
O6	O	1.596794	0.496780	0.418211
O7	O	1.080088	0.137495	-0.081729
O8	O	1.580088	0.637495	0.418271
O9	O	1.096780	-0.003224	0.081793
O10	O	1.596780	0.496776	0.581793
O11	O	0.954124	0.070859	0.081825
O12	O	1.454124	0.570859	0.581825
O13	O	1.222729	0.063408	0.081822
O14	O	1.722729	0.563408	0.581822
Zn15	Zn	1.088425	0.067133	0.107796
Zn16	Zn	1.588425	0.567133	0.607796
Zn17	Zn	1.088443	0.067138	-0.107732
Zn18	Zn	1.588443	0.567138	0.392268
O19	O	1.080074	0.137491	0.081853
O20	O	1.580074	0.637491	0.581853
C21	C	0.919778	0.070512	0.000033
C22	C	1.419778	0.570512	0.500033
C23	C	0.817416	0.069465	0.000032
C24	C	1.317416	0.569465	0.500032
C25	C	1.096439	-0.021231	-0.000008
C26	C	1.596439	0.478769	0.499992
C27	C	1.095393	-0.074891	-0.000037
C28	C	1.595393	0.425109	0.499963
C29	C	0.734287	0.068615	0.000028
C30	C	1.234287	0.568615	0.500028
C31	C	0.629997	0.067553	0.000027
C32	C	1.129997	0.567553	0.500027
C33	C	0.546873	0.066710	0.000026
C34	C	1.046873	0.566710	0.500026
C35	C	0.442576	0.065648	0.000024
C36	C	0.942576	0.565648	0.500024
C37	C	1.087967	-0.458090	-0.089149
C38	C	1.587967	0.041910	0.410851
C39	C	1.091882	-0.256412	-0.089180
C40	C	1.591882	0.243588	0.410820
O41	O	1.092432	-0.230340	-0.165018
O42	O	1.592432	0.269660	0.334982
N43	N	1.092364	-0.231191	-0.000014
N44	N	1.592364	0.268809	0.499986
C45	C	1.091873	-0.256392	0.089167
C46	C	1.591873	0.243608	0.589167
O47	O	1.092383	-0.230313	0.165007
O48	O	1.592383	0.269687	0.665007
C49	C	1.087964	-0.458070	0.089197
C50	C	1.587964	0.041930	0.589197
C51	C	1.087473	-0.483288	0.000025
C52	C	1.587473	0.016712	0.500025
C53	C	1.087477	-0.483309	-0.178314
C54	C	1.587477	0.016691	0.321686
C55	C	1.086493	-0.533725	-0.178305
C56	C	1.586493	-0.033725	0.321695
C57	C	1.085999	-0.558923	-0.089131
C58	C	1.585999	-0.058923	0.410869
C59	C	1.086489	-0.533705	0.000034
C60	C	1.586489	-0.033705	0.500034
C61	C	1.087480	-0.483271	0.178377
C62	C	1.587480	0.016729	0.678377
C63	C	1.086505	-0.533694	0.178377
C64	C	1.586505	-0.033694	0.678377
C65	C	1.086014	-0.558912	0.089205
C66	C	1.586014	-0.058912	0.589205
C67	C	1.085011	-0.609319	0.089217
C68	C	1.585011	-0.109319	0.589217
N69	N	1.084529	-0.634540	0.000050
N70	N	1.584529	-0.134540	0.500050
C71	C	1.085023	-0.609342	-0.089124
C72	C	1.585023	-0.109342	0.410876
C73	C	1.093924	-0.150509	0.089144
C74	C	1.593924	0.349491	0.589144
C75	C	1.094899	-0.100089	0.089137
C76	C	1.594899	0.399911	0.589137
C77	C	1.094910	-0.100113	-0.089211
C78	C	1.594910	0.399887	0.410789
C79	C	1.093928	-0.150532	-0.089202
C80	C	1.593928	0.349468	0.410798
C81	C	1.093442	-0.175730	-0.000022
C82	C	1.593442	0.324270	0.499978
C83	C	1.082956	-0.715220	-0.089098
C84	C	1.582956	-0.215220	0.410902
C85	C	1.081968	-0.765640	-0.089082
C86	C	1.581968	-0.265640	0.410918
C87	C	1.081962	-0.765613	0.089265
C88	C	1.581962	-0.265613	0.589265
C89	C	1.082945	-0.715196	0.089249
C90	C	1.582945	-0.215196	0.589249
C91	C	1.083445	-0.690001	0.000059
C92	C	1.583445	-0.190001	0.500059
O93	O	1.084471	-0.635422	0.165014
O94	O	1.584471	-0.135422	0.665014
O95	O	1.084534	-0.635432	-0.164953
O96	O	1.584534	-0.135432	0.335047
C97	C	1.088951	-0.407674	-0.089157
C98	C	1.588951	0.092326	0.410843
C99	C	1.089441	-0.382456	0.000008
C100	C	1.589441	0.117544	0.500008
C101	C	1.088947	-0.407654	0.089181
C102	C	1.588947	0.092346	0.589181
C103	C	1.090416	-0.332037	0.000000
C104	C	1.590416	0.167963	0.500000
C105	C	1.090910	-0.306839	-0.089174
C106	C	1.590910	0.193161	0.410826
C107	C	1.090428	-0.332060	-0.178340
C108	C	1.590428	0.167940	0.321660
C109	C	1.089444	-0.382476	-0.178331
C110	C	1.589444	0.117524	0.321669
C111	C	1.089429	-0.382432	0.178348
C112	C	1.589429	0.117568	0.678348
C113	C	1.090412	-0.332016	0.178332
C114	C	1.590412	0.167984	0.678332
C115	C	1.090906	-0.306818	0.089158
C116	C	1.590906	0.193182	0.589158
C117	C	1.257090	0.063759	0.000029
C118	C	1.757090	0.563759	0.500029
C119	C	1.359452	0.064805	0.000024
C120	C	1.859452	0.564805	0.500024
C121	C	1.080428	0.155501	0.000070
C122	C	1.580428	0.655501	0.500070
C123	C	1.081474	0.209162	0.000092
C124	C	1.581474	0.709162	0.500092
N125	N	1.088419	0.067129	0.254888
N126	N	1.588419	0.567129	0.754888
N127	N	1.088456	0.067138	-0.254824
N128	N	1.588456	0.567138	0.245176
C129	C	1.088442	0.067138	0.656179
C130	C	1.588442	0.567138	1.156179
C131	C	1.088433	0.067137	0.544527
C132	C	1.588433	0.567137	1.044527
C133	C	1.088431	0.067134	0.455537
C134	C	1.588431	0.567134	0.955537
C135	C	1.088421	0.067132	0.343878
C136	C	1.588421	0.567132	0.843878
H137	H	1.081565	-0.786170	-0.161699
H138	H	1.581565	-0.286170	0.338301
H139	H	1.083364	-0.694712	-0.161725
H140	H	1.583364	-0.194712	0.338275
H141	H	1.093528	-0.171020	0.161770
H142	H	1.593528	0.328980	0.661770
H143	H	1.086099	-0.554254	-0.250918
H144	H	1.586099	-0.054254	0.249082
H145	H	1.087882	-0.462798	-0.250934
H146	H	1.587882	0.037202	0.249066
C147	C	1.088877	-0.410143	0.276452
C148	C	1.588877	0.089857	0.776452
N149	N	1.088453	-0.431011	0.350350
N150	N	1.588453	0.068989	0.850350
H151	H	1.093526	-0.171062	-0.161814
H152	H	1.593526	0.328938	0.338186
H153	H	1.090803	-0.311487	0.250952
H154	H	1.590803	0.188513	0.750952
C155	C	1.081416	-0.793340	0.187352
C156	C	1.581416	-0.293340	0.687352
N157	N	1.081009	-0.814226	0.261231
N158	N	1.581009	-0.314226	0.761231
C159	C	1.085966	-0.561408	0.276485
C160	C	1.585966	-0.061408	0.776485
N161	N	1.085556	-0.582281	0.350379
N162	N	1.585556	-0.082281	0.850379
H163	H	1.095306	-0.079587	-0.161819
H164	H	1.595306	0.420413	0.338181
C165	C	1.095427	-0.072354	0.187233
C166	C	1.595427	0.427646	0.687233
N167	N	1.095830	-0.051466	0.261123
N168	N	1.595830	0.448534	0.761123
C169	C	1.090977	-0.304333	-0.276432
C170	C	1.590977	0.195667	0.223568
N171	N	1.091398	-0.283447	-0.350310
N172	N	1.591398	0.216553	0.149690
C173	C	1.083481	-0.687455	0.187342
C174	C	1.583481	-0.187455	0.687342
N175	N	1.083894	-0.666565	0.261228
N176	N	1.583894	-0.166565	0.761228
H177	H	1.087890	-0.462748	0.250991
H178	H	1.587890	0.037252	0.750991
H179	H	1.089044	-0.403005	-0.250945
H180	H	1.589044	0.096995	0.249055
