data_functionalizedCrystal
_audit_creation_method	'MofGen! by Chris Wilmer'
_symmetry_space_group_name_H-M	'P1'
_symmetry_Int_Tables_number	1
_symmetry_cell_setting	triclinic
loop_
_symmetry_equiv_pos_as_xyz
  x,y,z
_cell_length_a	17.699083
_cell_length_b	10.540539
_cell_length_c	16.776229
_cell_angle_alpha	89.995514
_cell_angle_beta	89.998886
_cell_angle_gamma	83.904253
loop_
_atom_site_label
_atom_site_type_symbol
_atom_site_fract_x
_atom_site_fract_y
_atom_site_fract_z
O1	O	1.005122	0.160520	-0.066173
O2	O	0.784880	0.181404	-0.066198
O3	O	0.900026	-0.013836	-0.066184
O4	O	0.889976	0.355761	-0.066187
O5	O	0.900010	-0.013848	0.066393
O6	O	0.784864	0.181392	0.066378
O7	O	1.005107	0.160508	0.066404
Zn8	Zn	0.894983	0.170948	0.087440
Zn9	Zn	0.895003	0.170964	-0.087235
O10	O	0.889961	0.355749	0.066389
C11	C	0.756670	0.180650	0.000087
C12	C	0.672637	0.178405	0.000077
C13	C	0.624761	0.293007	0.000076
C14	C	0.545804	0.290890	0.000086
C15	C	0.514725	0.174170	0.000092
C16	C	0.562607	0.059559	0.000095
C17	C	0.641562	0.061677	0.000090
C18	C	0.244188	0.051014	0.000115
C19	C	0.165226	0.048904	0.000117
C20	C	0.148430	0.280227	0.000111
C21	C	0.227386	0.282345	0.000106
C22	C	0.275261	0.167735	0.000113
C23	C	0.360875	0.170032	0.000104
C24	C	0.429112	0.171872	0.000096
C25	C	0.899264	-0.061131	0.000103
C26	C	0.897009	-0.202038	0.000098
C27	C	0.810610	-0.383885	-0.000209
C28	C	0.812896	-0.237308	0.000089
C29	C	0.937480	-0.264443	0.075811
C30	C	0.934609	-0.410935	0.075874
C31	C	0.936337	-0.411471	-0.074890
C32	C	0.937112	-0.264503	-0.075891
C33	C	1.033316	0.161263	0.000117
C34	C	1.117349	0.163508	0.000122
C35	C	0.890722	0.403044	0.000101
C36	C	0.892977	0.543951	0.000100
N37	N	0.894974	0.170937	0.206652
N38	N	0.895018	0.170966	-0.206446
C39	C	0.945977	0.084520	0.248375
C40	C	0.945981	0.084519	0.331827
C41	C	0.894986	0.170942	0.373555
C42	C	0.843978	0.257363	0.331825
C43	C	0.843971	0.257357	0.248375
C44	C	0.844005	0.257388	0.668372
C45	C	0.844018	0.257390	0.751829
C46	C	0.946016	0.084550	0.751825
C47	C	0.946009	0.084544	0.668374
C48	C	0.894998	0.170960	0.626652
C49	C	0.894993	0.170958	0.536164
C50	C	0.894994	0.170950	0.464041
H51	H	0.650060	0.388054	0.000071
H52	H	0.506826	0.384211	0.000085
H53	H	0.909354	-0.221334	0.132147
H54	H	0.987549	0.014181	0.785804
C55	C	1.016323	-0.477244	0.080545
H56	H	1.015123	-0.567139	0.080613
H57	H	1.039766	-0.452155	0.128116
H58	H	1.044486	-0.453354	0.035779
H59	H	0.999250	-0.243219	0.078633
C60	C	1.019959	-0.233309	-0.082059
H61	H	1.031228	-0.181558	-0.038172
H62	H	1.026617	-0.188838	-0.130378
H63	H	1.053150	-0.310298	-0.081411
H64	H	0.802472	0.327753	0.634409
C65	C	1.018407	-0.476778	-0.075577
H66	H	1.026240	-0.530956	-0.030412
H67	H	1.052942	-0.413724	-0.073913
H68	H	1.026664	-0.525973	-0.122825
C69	C	0.528425	-0.068834	0.000100
H70	H	0.568248	-0.136784	0.000106
H71	H	0.497973	-0.074466	-0.046131
H72	H	0.497975	-0.074472	0.046339
H73	H	0.987536	0.014174	0.634403
H74	H	0.802489	0.327768	0.785802
H75	H	0.802453	0.327726	0.365804
C76	C	1.002072	-0.010549	0.202482
H77	H	1.032442	-0.062023	0.239287
H78	H	1.033819	0.035040	0.169919
H79	H	0.974554	-0.063338	0.169938
C80	C	0.261573	0.410733	0.000098
H81	H	0.315453	0.395580	0.000088
H82	H	0.245185	0.457910	0.046329
H83	H	0.245180	0.457910	-0.046141
C84	C	0.769562	-0.180099	0.073519
H85	H	0.770805	-0.090215	0.073948
H86	H	0.792831	-0.215771	0.120617
H87	H	0.718304	-0.198998	0.071285
C88	C	0.787871	0.352421	0.202479
H89	H	0.757506	0.403901	0.239280
H90	H	0.756119	0.306823	0.169932
H91	H	0.815382	0.405206	0.169918
C92	C	0.765725	-0.421684	-0.073554
H93	H	0.716180	-0.377091	-0.072628
H94	H	0.762074	-0.510934	-0.072553
H95	H	0.791226	-0.400324	-0.120737
C96	C	0.131040	-0.079494	0.000131
H97	H	0.170860	-0.147449	0.000143
H98	H	0.100588	-0.085131	-0.046100
H99	H	0.100590	-0.085117	0.046371
C100	C	1.002082	-0.010539	0.377724
H101	H	0.994777	0.001828	0.433400
H102	H	1.052664	0.003139	0.364043
H103	H	0.993402	-0.095242	0.364051
C104	C	0.095766	0.406298	0.000113
H105	H	0.044291	0.388326	0.000126
H106	H	0.105251	0.454171	-0.046121
H107	H	0.105259	0.454163	0.046349
H108	H	0.283159	-0.042309	0.000121
H109	H	0.680543	-0.031644	0.000090
H110	H	0.781051	-0.194118	-0.054185
C111	C	0.765897	-0.423862	0.072720
H112	H	0.797209	-0.484338	0.103358
H113	H	0.722131	-0.460936	0.055309
H114	H	0.750781	-0.350969	0.104497
C115	C	0.899569	-0.453404	-0.152412
H116	H	0.857425	-0.498495	-0.139767
H117	H	0.935798	-0.507293	-0.181970
H118	H	0.882781	-0.380281	-0.183319
C119	C	0.894179	-0.448310	0.152313
H120	H	0.892074	-0.537990	0.153027
H121	H	0.844050	-0.406010	0.153482
H122	H	0.921482	-0.423999	0.197591
C123	C	0.897170	-0.208462	-0.151560
H124	H	0.856227	-0.147246	-0.136912
H125	H	0.878224	-0.274954	-0.181289
H126	H	0.932419	-0.168582	-0.183154
