data_functionalizedCrystal
_audit_creation_method	'MofGen! by Chris Wilmer'
_symmetry_space_group_name_H-M	'P1'
_symmetry_Int_Tables_number	1
_symmetry_cell_setting	triclinic
loop_
_symmetry_equiv_pos_as_xyz
  x,y,z
_cell_length_a	26.455835
_cell_length_b	26.455273
_cell_length_c	26.451828
_cell_angle_alpha	60.005170
_cell_angle_beta	60.010757
_cell_angle_gamma	59.993435
loop_
_atom_site_label
_atom_site_type_symbol
_atom_site_fract_x
_atom_site_fract_y
_atom_site_fract_z
O1	O	0.069940	-0.738516	0.617604
O2	O	0.569940	-0.238516	1.117604
O3	O	0.026299	-0.574986	0.497618
O4	O	0.526299	-0.074986	0.997618
O5	O	0.129847	-0.678463	0.497546
O6	O	0.629847	-0.178463	0.997546
O7	O	-0.033607	-0.635040	0.617676
O8	O	0.466393	-0.135040	1.117676
O9	O	0.164197	-0.644116	0.531822
O10	O	0.664197	-0.144116	1.031822
O11	O	0.060649	-0.540639	0.531894
O12	O	0.560649	-0.040639	1.031894
O13	O	0.104290	-0.704170	0.651880
O14	O	0.604290	-0.204170	1.151880
Cu15	Cu	0.085606	-0.619268	0.595016
Cu16	Cu	0.585606	-0.119268	1.095016
Cu17	Cu	0.044984	-0.659887	0.554481
Cu18	Cu	0.544984	-0.159887	1.054481
O19	O	0.000742	-0.600693	0.651952
O20	O	0.500742	-0.100693	1.151952
N21	N	0.114179	-0.590703	0.623530
N22	N	0.614179	-0.090703	1.123530
N23	N	0.016416	-0.688458	0.525968
N24	N	0.516416	-0.188458	1.025968
C25	C	0.157553	-0.547535	0.933368
C26	C	0.657553	-0.047535	1.433368
C27	C	0.424104	-0.547506	0.666656
C28	C	0.924104	-0.047506	1.166656
C29	C	0.157413	-0.547503	0.666729
C30	C	0.657413	-0.047503	1.166729
C31	C	0.157397	-0.280846	0.666749
C32	C	0.657397	0.219154	1.166749
C33	C	0.200330	-0.409550	0.709625
C34	C	0.700330	0.090450	1.209625
C35	C	0.200339	-0.504608	0.709615
C36	C	0.700339	-0.004608	1.209615
C37	C	0.224118	-0.480848	0.733375
C38	C	0.724118	0.019152	1.233375
C39	C	0.327800	-0.462984	0.678792
C40	C	0.827800	0.037016	1.178792
C41	C	0.392611	-0.484588	0.657175
C42	C	0.892611	0.015412	1.157175
C43	C	0.392630	-0.589450	0.697162
C44	C	0.892630	-0.089450	1.197162
C45	C	0.327821	-0.567844	0.718781
C46	C	0.827821	-0.067844	1.218781
C47	C	0.215955	-0.377135	0.645910
C48	C	0.715955	0.122865	1.145910
C49	C	0.194327	-0.312320	0.624323
C50	C	0.694327	0.187680	1.124323
C51	C	0.141457	-0.312339	0.730169
C52	C	0.641457	0.187661	1.230169
C53	C	0.163084	-0.377154	0.751756
C54	C	0.663084	0.122846	1.251756
C55	C	0.136618	-0.488954	0.725292
C56	C	0.636618	0.011046	1.225292
C57	C	0.115007	-0.510553	0.703686
C58	C	0.615007	-0.010553	1.203686
C59	C	0.220833	-0.563461	0.650740
C60	C	0.720833	-0.063461	1.150740
C61	C	0.242447	-0.541861	0.672339
C62	C	0.742447	-0.041861	1.172339
C63	C	0.136680	-0.488971	0.837094
C64	C	0.636680	0.011029	1.337094
C65	C	0.115112	-0.510589	0.901907
C66	C	0.615112	-0.010589	1.401907
C67	C	0.220969	-0.563508	0.901868
C68	C	0.720969	-0.063508	1.401868
C69	C	0.242535	-0.541892	0.837053
C70	C	0.742535	-0.041892	1.337053
C71	C	0.200389	-0.504622	0.804668
C72	C	0.700389	-0.004622	1.304668
C73	C	0.295409	-0.504610	0.709593
C74	C	0.795409	-0.004610	1.209593
C75	C	0.132990	-0.570876	1.004655
C76	C	0.632990	-0.070876	1.504655
C77	C	0.495389	-0.570440	0.642547
C78	C	0.995389	-0.070440	1.142547
C79	C	0.132802	-0.570856	0.643399
C80	C	0.632802	-0.070856	1.143399
C81	C	0.133212	-0.209553	0.643833
C82	C	0.633212	0.290447	1.143833
C83	C	-0.097217	-0.706972	0.506986
C84	C	0.402783	-0.206972	1.006986
C85	C	-0.002040	-0.707108	0.412067
C86	C	0.497960	-0.207108	0.912067
C87	C	-0.002230	-0.802124	0.507163
C88	C	0.497770	-0.302124	1.007163
C89	C	-0.002214	-0.707101	0.507221
C90	C	0.497786	-0.207101	1.007221
C91	C	-0.025925	-0.730827	0.483360
C92	C	0.474075	-0.230827	0.983360
N93	N	0.553723	-0.590712	0.623415
N94	N	1.053723	-0.090712	1.123415
O95	O	0.751638	-0.596429	0.475603
O96	O	1.251638	-0.096429	0.975603
O97	O	0.751819	-0.716773	0.638980
O98	O	1.251819	-0.216773	1.138980
O99	O	0.751753	-0.716500	0.535361
O100	O	1.251753	-0.216500	1.035361
O101	O	0.751705	-0.596703	0.579222
O102	O	1.251705	-0.096703	1.079222
O103	O	0.648791	-0.682239	0.569747
O104	O	1.148791	-0.182239	1.069747
O105	O	0.648858	-0.682512	0.673366
O106	O	1.148858	-0.182512	1.173366
O107	O	0.648676	-0.562169	0.509989
O108	O	1.148676	-0.062169	1.009989
Cu109	Cu	0.639366	-0.619212	0.594817
Cu110	Cu	1.139366	-0.119212	1.094817
Cu111	Cu	0.761130	-0.659729	0.554152
Cu112	Cu	1.261130	-0.159729	1.054152
O113	O	0.648743	-0.562442	0.613609
O114	O	1.148743	-0.062442	1.113609
N115	N	0.846773	-0.688230	0.525548
N116	N	1.346773	-0.188230	1.025548
N117	N	0.114157	-0.151217	0.623565
N118	N	0.614157	0.348783	1.123565
O119	O	-0.033591	0.046803	0.617717
O120	O	0.466409	0.546803	1.117717
O121	O	0.129795	0.046806	0.497390
O122	O	0.629795	0.546806	0.997390
O123	O	0.026157	0.046789	0.497680
O124	O	0.526157	0.546789	0.997680
O125	O	0.070046	0.046819	0.617427
O126	O	0.570046	0.546819	1.117427
O127	O	0.060509	-0.056181	0.532004
O128	O	0.560509	0.443819	1.032004
O129	O	0.164146	-0.056164	0.531714
O130	O	0.664146	0.443836	1.031714
O131	O	0.000760	-0.056167	0.652041
O132	O	0.500760	0.443833	1.152041
Cu133	Cu	0.085590	-0.065568	0.595012
Cu134	Cu	0.585590	0.434432	1.095012
Cu135	Cu	0.044965	0.056206	0.554419
Cu136	Cu	0.544965	0.556206	1.054419
O137	O	0.104397	-0.056151	0.651751
O138	O	0.604397	0.443849	1.151751
N139	N	0.016390	0.141855	0.525867
N140	N	0.516390	0.641855	1.025867
N141	N	0.114410	-0.590756	1.062992
N142	N	0.614410	-0.090756	1.562992
O143	O	0.108565	-0.738494	1.260998
O144	O	0.608565	-0.238494	1.760998
O145	O	-0.011747	-0.575059	1.261012
O146	O	0.488253	-0.075059	1.761012
O147	O	-0.011470	-0.678679	1.260970
O148	O	0.488530	-0.178679	1.760970
O149	O	0.108287	-0.634874	1.261040
O150	O	0.608287	-0.134874	1.761040
O151	O	0.022849	-0.644347	1.158004
O152	O	0.522849	-0.144347	1.658004
O153	O	0.022572	-0.540726	1.158046
O154	O	0.522572	-0.040726	1.658046
O155	O	0.142884	-0.704162	1.158033
O156	O	0.642884	-0.204162	1.658033
Cu157	Cu	0.085861	-0.619309	1.148638
Cu158	Cu	0.585861	-0.119309	1.648638
Cu159	Cu	0.045275	-0.659911	1.270406
Cu160	Cu	0.545275	-0.159911	1.770406
O161	O	0.142606	-0.600541	1.158074
O162	O	0.642606	-0.100541	1.658074
N163	N	0.016726	-0.688471	1.356052
N164	N	0.516726	-0.188471	1.856052
C165	C	0.039385	-0.537207	0.498225
C166	C	0.539385	-0.037207	0.998225
C167	C	0.167616	-0.665350	0.498136
C168	C	0.667616	-0.165350	0.998136
C169	C	0.091204	-0.741950	0.651272
C170	C	0.591204	-0.241950	1.151272
C171	C	-0.037027	-0.613806	0.651361
C172	C	0.462973	-0.113806	1.151361
C173	C	0.700360	-0.716215	0.676756
C174	C	1.200360	-0.216215	1.176756
C175	C	0.700279	-0.715877	0.548436
C176	C	1.200279	-0.215877	1.048436
C177	C	0.700133	-0.562725	0.472214
C178	C	1.200133	-0.062725	0.972214
C179	C	0.700218	-0.563065	0.600533
C180	C	1.200218	-0.063065	1.100533
C181	C	0.167511	-0.004552	0.497940
C182	C	0.667511	0.495448	0.997940
C183	C	0.039211	-0.004699	0.498341
C184	C	0.539211	0.495301	0.998341
C185	C	-0.036999	-0.004682	0.651449
C186	C	0.463001	0.495318	1.151449
C187	C	0.091344	-0.004663	0.651090
C188	C	0.591344	0.495337	1.151090
C189	C	-0.011156	-0.537302	1.209530
C190	C	0.488844	-0.037302	1.709530
C191	C	-0.010806	-0.665617	1.209458
C192	C	0.489194	-0.165617	1.709458
C193	C	0.142293	-0.741918	1.209514
C194	C	0.642293	-0.241918	1.709514
C195	C	0.141950	-0.613596	1.209563
C196	C	0.641950	-0.113596	1.709563
H197	H	0.063231	-0.497836	0.928300
H198	H	0.563231	0.002164	1.428300
H199	H	0.214562	-0.674609	0.460411
H200	H	0.714562	-0.174609	0.960411
O201	O	0.700188	-0.760720	0.537250
O202	O	1.200188	-0.260720	1.037250
C203	C	0.646848	-0.739412	0.522693
C204	C	1.146848	-0.239412	1.022693
H205	H	0.609567	-0.700983	0.542697
H206	H	1.109567	-0.200983	1.042697
H207	H	0.628985	-0.779300	0.543348
H208	H	1.128985	-0.279300	1.043348
H209	H	0.658859	-0.720724	0.470266
H210	H	1.158859	-0.220724	0.970266
O211	O	-0.056280	-0.481331	1.209505
O212	O	0.443720	0.018669	1.709505
C213	C	-0.109567	-0.481338	1.209497
C214	C	0.390433	0.018662	1.709497
H215	H	-0.095838	-0.518001	1.189992
H216	H	0.404162	-0.018001	1.689992
H217	H	-0.132731	-0.433872	1.179603
H218	H	0.367269	0.066128	1.679603
H219	H	-0.143220	-0.492145	1.258890
H220	H	0.356780	0.007855	1.758890
H221	H	0.100739	-0.004653	0.688708
H222	H	0.600739	0.495347	1.188708
H223	H	0.180068	-0.788855	1.209502
H224	H	0.680068	-0.288855	1.709502
O225	O	0.699955	-0.517591	0.416288
O226	O	1.199955	-0.017591	0.916288
C227	C	0.646610	-0.465442	0.424490
C228	C	1.146610	0.034558	0.924490
H229	H	0.609379	-0.480391	0.469836
H230	H	1.109379	0.019609	0.969836
H231	H	0.628668	-0.443283	0.384349
H232	H	1.128668	0.056717	0.884349
H233	H	0.658645	-0.430482	0.425919
H234	H	1.158645	0.069518	0.925919
H235	H	0.100526	-0.788925	0.688956
H236	H	0.600526	-0.288925	1.188956
H237	H	-0.083976	-0.604550	0.689083
H238	H	0.416024	-0.104550	1.189083
H239	H	0.030065	-0.490230	0.460543
H240	H	0.530065	0.009770	0.960543
H241	H	-0.048413	-0.674973	1.209396
H242	H	0.451587	-0.174973	1.709396
H243	H	0.700208	-0.525435	0.609919
H244	H	1.200208	-0.025435	1.109919
O245	O	0.095652	-0.452796	0.805731
O246	O	0.595652	0.047204	1.305731
C247	C	0.034795	-0.443602	0.848249
C248	C	0.534795	0.056398	1.348249
H249	H	0.034937	-0.482682	0.894442
H250	H	0.534937	0.017318	1.394442
H251	H	0.004009	-0.443258	0.829535
H252	H	0.504009	0.056742	1.329535
H253	H	0.016227	-0.397432	0.855150
H254	H	0.516227	0.102568	1.355150
O255	O	0.261994	-0.599716	0.933226
O256	O	0.761994	-0.099716	1.433226
C257	C	0.322850	-0.608874	0.890705
C258	C	0.822850	-0.108874	1.390705
H259	H	0.322707	-0.601629	0.844510
H260	H	0.822707	-0.101629	1.344510
H261	H	0.353644	-0.658029	0.909413
H262	H	0.853644	-0.158029	1.409413
H263	H	0.341408	-0.574372	0.883807
H264	H	0.841408	-0.074372	1.383807
O265	O	0.700445	-0.761231	0.732758
O266	O	1.200445	-0.261231	1.232758
C267	C	0.700437	-0.738933	0.771295
C268	C	1.200437	-0.238933	1.271295
H269	H	0.719889	-0.699171	0.741530
H270	H	1.219889	-0.199171	1.241530
H271	H	0.730369	-0.777833	0.800933
H272	H	1.230369	-0.277833	1.300933
H273	H	0.651049	-0.721767	0.802582
H274	H	1.151049	-0.221767	1.302582
H275	H	0.214338	-0.004265	0.460069
H276	H	0.714338	0.495735	0.960069
O277	O	0.028101	-0.004681	0.453382
O278	O	0.528101	0.495319	0.953382
C279	C	0.081256	-0.004700	0.399959
C280	C	0.581256	0.495300	0.899959
H281	H	0.110823	0.014801	0.400476
H282	H	0.610823	0.514801	0.900476
H283	H	0.066725	0.025188	0.356979
H284	H	0.566725	0.525188	0.856979
H285	H	0.109203	-0.054101	0.399222
H286	H	0.609203	0.445899	0.899222
O287	O	0.186854	-0.602354	1.209469
O288	O	0.686854	-0.102354	1.709469
C289	C	0.201056	-0.552211	1.156160
C290	C	0.701056	-0.052211	1.656160
H291	H	0.187456	-0.547330	1.118878
H292	H	0.687456	-0.047330	1.618878
H293	H	0.252854	-0.560938	1.138268
H294	H	0.752854	-0.060938	1.638268
H295	H	0.174343	-0.507819	1.168226
H296	H	0.674343	-0.007819	1.668226
O297	O	0.304412	-0.556989	0.805488
O298	O	0.804412	-0.056989	1.305488
C299	C	0.320056	-0.502530	0.768012
C300	C	0.820056	-0.002530	1.268012
H301	H	0.277334	-0.461803	0.758319
H302	H	0.777334	0.038197	1.258319
H303	H	0.357625	-0.508323	0.722428
H304	H	0.857625	-0.008323	1.222428
H305	H	0.337861	-0.493429	0.792984
H306	H	0.837861	0.006571	1.292984
H307	H	0.207047	-0.285927	0.572438
H308	H	0.707047	0.214073	1.072438
O309	O	-0.093024	-0.004564	0.696462
O310	O	0.406976	0.495436	1.196462
C311	C	-0.139706	0.048756	0.675286
C312	C	0.360294	0.548756	1.175286
H313	H	-0.118615	0.086023	0.636725
H314	H	0.381385	0.586023	1.136725
H315	H	-0.176651	0.066670	0.715191
H316	H	0.323349	0.566670	1.215191
H317	H	-0.161602	0.036692	0.656819
H318	H	0.338398	0.536692	1.156819
O319	O	0.095773	-0.452690	0.761432
O320	O	0.595773	0.047310	1.261432
C321	C	0.105076	-0.395060	0.731969
C322	C	0.605076	0.104940	1.231969
H323	H	0.154248	-0.400278	0.697711
H324	H	0.654248	0.099722	1.197711
H325	H	0.097881	-0.378465	0.768155
H326	H	0.597881	0.121535	1.268155
H327	H	0.070620	-0.359837	0.706219
H328	H	0.570620	0.140163	1.206219
O329	O	0.053104	-0.495429	0.719019
O330	O	0.553104	0.004571	1.219019
C331	C	0.026222	-0.517598	0.783937
C332	C	0.526222	-0.017598	1.283937
H333	H	0.063146	-0.557572	0.804810
H334	H	0.563146	-0.057572	1.304810
H335	H	-0.011977	-0.534431	0.796350
H336	H	0.488023	-0.034431	1.296350
H337	H	0.005760	-0.478721	0.803146
H338	H	0.505760	0.021279	1.303146
O339	O	0.261770	-0.599554	0.614443
O340	O	0.761770	-0.099554	1.114443
C341	C	0.299222	-0.566815	0.560098
C342	C	0.799222	-0.066815	1.060098
H343	H	0.274173	-0.514963	0.551105
H344	H	0.774173	-0.014963	1.051105
H345	H	0.309017	-0.578400	0.519263
H346	H	0.809017	-0.078400	1.019263
H347	H	0.344759	-0.580609	0.565982
H348	H	0.844759	-0.080609	1.065982
O349	O	0.304337	-0.556951	0.657046
O350	O	0.804337	-0.056951	1.157046
C351	C	0.319962	-0.502483	0.624444
C352	C	0.819962	-0.002483	1.124444
H353	H	0.283404	-0.463550	0.602526
H354	H	0.783404	0.036450	1.102526
H355	H	0.367002	-0.511008	0.586666
H356	H	0.867002	-0.011008	1.086666
H357	H	0.322116	-0.488845	0.657778
H358	H	0.822116	0.011155	1.157778
H359	H	0.301449	-0.601745	0.743862
H360	H	0.801449	-0.101745	1.243862
H361	H	0.418982	-0.450689	0.632093
H362	H	0.918982	0.049311	1.132093
O363	O	0.424025	-0.650899	0.706153
O364	O	0.924025	-0.150899	1.206153
C365	C	0.381537	-0.683007	0.737960
C366	C	0.881537	-0.183007	1.237960
H367	H	0.335344	-0.654735	0.764528
H368	H	0.835344	-0.154735	1.264528
H369	H	0.400286	-0.729748	0.771785
H370	H	0.900286	-0.229748	1.271785
H371	H	0.374625	-0.690502	0.703287
H372	H	0.874625	-0.190502	1.203287
H373	H	0.246280	-0.403511	0.611604
H374	H	0.746280	0.096489	1.111604
O375	O	0.296413	-0.401543	0.669840
O376	O	0.796413	0.098457	1.169840
C377	C	0.338905	-0.369435	0.638002
C378	C	0.838905	0.130565	1.138002
H379	H	0.385115	-0.402703	0.645469
H380	H	0.885115	0.097297	1.145469
H381	H	0.320187	-0.330347	0.656354
H382	H	0.820187	0.169653	1.156354
H383	H	0.345774	-0.349291	0.586438
H384	H	0.845774	0.150709	1.086438
H385	H	0.150353	-0.403547	0.803641
H386	H	0.650353	0.096453	1.303641
O387	O	0.105266	-0.280961	0.771176
O388	O	0.605266	0.219039	1.271176
C389	C	0.096137	-0.323470	0.832044
C390	C	0.596137	0.176530	1.332044
H391	H	0.103382	-0.369672	0.831928
H392	H	0.603382	0.130328	1.331928
H393	H	0.046993	-0.304751	0.862832
H394	H	0.546993	0.195249	1.362832
H395	H	0.130652	-0.330360	0.850592
H396	H	0.630652	0.169640	1.350592
