data_functionalizedCrystal
_audit_creation_method	'MofGen! by Chris Wilmer'
_symmetry_space_group_name_H-M	'P1'
_symmetry_Int_Tables_number	1
_symmetry_cell_setting	triclinic
loop_
_symmetry_equiv_pos_as_xyz
  x,y,z
_cell_length_a	11.792241
_cell_length_b	22.010155
_cell_length_c	11.792254
_cell_angle_alpha	89.995888
_cell_angle_beta	84.196007
_cell_angle_gamma	90.004313
loop_
_atom_site_label
_atom_site_type_symbol
_atom_site_fract_x
_atom_site_fract_y
_atom_site_fract_z
O1	O	1.506924	0.050466	0.155551
O2	O	1.176584	0.050481	0.171584
O3	O	1.349763	0.050469	-0.001602
O4	O	1.333745	0.050478	0.328737
O5	O	1.349731	-0.050581	-0.001576
O6	O	1.176552	-0.050570	0.171610
O7	O	1.506893	-0.050584	0.155577
Cu8	Cu	1.341719	-0.059804	0.163596
Cu9	Cu	1.341757	0.059700	0.163565
O10	O	1.333713	-0.050572	0.328763
C11	C	1.134277	-0.000043	0.170590
C12	C	1.008263	-0.000037	0.167576
N13	N	1.341702	-0.143856	0.163617
C14	C	0.777551	-0.000055	0.162033
C15	C	0.905936	-0.000045	0.165112
C16	C	1.418445	-0.563641	0.086890
C17	C	1.418450	-0.627248	0.086882
O18	O	1.483655	-0.660144	0.021660
N19	N	1.341756	-0.659063	0.163542
C20	C	1.265044	-0.627267	0.240206
O21	O	1.199809	-0.660169	0.305410
C22	C	1.265034	-0.563661	0.240208
C23	C	1.341741	-0.531849	0.163551
C24	C	1.495145	-0.531829	0.010238
C25	C	1.495141	-0.468226	0.010247
C26	C	1.418437	-0.436434	0.086909
C27	C	1.341737	-0.468246	0.163560
C28	C	1.188317	-0.531866	0.316866
C29	C	1.188313	-0.468255	0.316860
C30	C	1.265020	-0.436443	0.240203
C31	C	1.265029	-0.372851	0.240231
N32	N	1.341723	-0.341036	0.163571
C33	C	1.418427	-0.372828	0.086910
C34	C	1.265069	-0.760845	0.240196
C35	C	1.265083	-0.824450	0.240201
C36	C	1.418488	-0.824427	0.086875
C37	C	1.418479	-0.760820	0.086876
C38	C	1.341763	-0.729030	0.163536
C39	C	1.418413	-0.239256	0.086936
C40	C	1.418406	-0.175648	0.086956
C41	C	1.264997	-0.175676	0.240277
C42	C	1.265008	-0.239280	0.240263
C43	C	1.341721	-0.271068	0.163582
O44	O	1.199854	-0.339915	0.305416
O45	O	1.483641	-0.339918	0.021707
C46	C	1.549199	-0.000059	0.156571
C47	C	1.675213	-0.000061	0.159586
C48	C	1.348738	-0.000056	-0.043880
C49	C	1.345718	-0.000055	-0.169893
N50	N	1.341784	0.143753	0.163535
C51	C	1.343264	-0.000053	-0.272229
C52	C	1.340196	-0.000047	-0.400616
C53	C	1.334738	-0.000046	0.371041
C54	C	1.337758	-0.000043	0.497054
H55	H	1.480874	-0.149748	0.024532
F56	F	1.183368	-0.141832	0.321865
H57	H	1.557599	-0.442328	-0.052176
F58	F	1.500060	-0.273079	0.005325
F59	F	1.500122	-0.858274	0.005284
H60	H	1.557607	-0.557708	-0.052194
F61	F	1.183378	-0.273135	0.321863
F62	F	1.183419	-0.727016	0.321801
F63	F	1.183455	-0.858300	0.321804
F64	F	1.500119	-0.726970	0.005287
H65	H	1.125838	-0.442374	0.379285
F66	F	1.106673	-0.565711	0.398453
