data_functionalizedCrystal
_audit_creation_method	'MofGen! by Chris Wilmer'
_symmetry_space_group_name_H-M	'P1'
_symmetry_Int_Tables_number	1
_symmetry_cell_setting	triclinic
loop_
_symmetry_equiv_pos_as_xyz
  x,y,z
_cell_length_a	13.339070
_cell_length_b	11.792241
_cell_length_c	11.804365
_cell_angle_alpha	101.912841
_cell_angle_beta	74.875130
_cell_angle_gamma	99.911355
loop_
_atom_site_label
_atom_site_type_symbol
_atom_site_fract_x
_atom_site_fract_y
_atom_site_fract_z
O1	O	1.365765	0.553461	-0.099072
O2	O	1.070826	0.478649	-0.099065
O3	O	1.225451	0.353090	-0.099061
O4	O	1.211140	0.679019	-0.099077
O5	O	1.184744	0.386099	0.098994
O6	O	1.030119	0.511657	0.098990
O7	O	1.325058	0.586469	0.098982
Cu8	Cu	1.173871	0.552077	0.117070
Cu9	Cu	1.222012	0.513041	-0.117153
O10	O	1.170433	0.712028	0.098978
C11	C	1.012714	0.482516	-0.000037
C12	C	0.900205	0.444847	-0.000034
C13	C	0.537025	0.737736	-0.000067
C14	C	0.642733	0.773130	-0.000074
C15	C	0.707106	0.691063	-0.000063
C16	C	0.665761	0.573594	-0.000047
C17	C	0.560044	0.538195	-0.000050
C18	C	0.730125	0.491522	-0.000046
C19	C	0.688780	0.374054	-0.000030
C20	C	0.583073	0.338660	-0.000032
C21	C	0.518700	0.420728	-0.000042
C22	C	0.835842	0.526921	-0.000043
C23	C	0.858861	0.327380	-0.000026
C24	C	0.753153	0.291986	-0.000019
C25	C	1.204198	0.327026	-0.000034
C26	C	1.201507	0.200184	-0.000035
C27	C	1.196562	-0.032056	-0.000054
C28	C	1.199310	0.097178	-0.000044
C29	C	1.383171	0.582602	-0.000049
C30	C	1.495681	0.620269	-0.000060
C31	C	1.191686	0.738091	-0.000052
C32	C	1.194379	0.864933	-0.000059
N33	N	1.140019	0.579535	0.281810
N34	N	1.255873	0.485577	-0.281892
C35	C	1.337164	0.419619	0.655764
C36	C	1.362772	0.398842	0.531103
C37	C	1.307086	0.444013	0.468774
C38	C	1.225788	0.509965	0.531117
C39	C	1.200182	0.530752	0.655790
C40	C	1.170104	0.555146	0.468800
C41	C	1.088806	0.621099	0.531144
C42	C	1.063204	0.641881	0.655804
C43	C	1.118891	0.596710	0.718134
C44	C	1.195709	0.534359	0.344127
C45	C	1.058727	0.645493	0.344153
C46	C	1.033119	0.666270	0.468814
H47	H	0.719476	0.196340	-0.000016
C48	C	0.900276	0.774023	0.456327
C49	C	0.943757	0.738763	0.537350
H50	H	0.845103	0.818769	0.498641
H51	H	0.952661	0.820130	0.407696
H52	H	0.873562	0.707078	0.407709
H53	H	0.970479	0.805709	0.585963
H54	H	0.891362	0.692656	0.586001
H55	H	1.327940	0.427093	0.367269
C56	C	0.394461	0.298737	-0.101848
C57	C	0.402501	0.381821	-0.000040
H58	H	0.322723	0.274717	-0.101842
H59	H	0.428316	0.332087	-0.170902
H60	H	0.426879	0.233050	-0.101834
H61	H	0.370089	0.447512	-0.000060
H62	H	0.368632	0.348472	0.069032
H63	H	0.869493	0.622565	-0.000052
H64	H	0.549416	0.243008	-0.000032
H65	H	0.793178	0.719887	-0.000072
H66	H	0.676391	0.868771	-0.000096
H67	H	0.484606	0.804541	-0.000086
H68	H	1.428965	0.345146	0.480347
H69	H	0.911275	0.260553	-0.000023
H70	H	1.261903	0.480662	0.293378
H71	H	1.382502	0.382853	0.706521
H72	H	1.098038	0.613622	0.819643
C73	C	0.896632	0.646413	0.796040
C74	C	0.973846	0.714383	0.724336
H75	H	0.841470	0.691177	0.838350
H76	H	0.869914	0.579489	0.747418
H77	H	0.926145	0.622493	0.850994
H78	H	0.944335	0.738296	0.669375
H79	H	1.000566	0.781329	0.772961
H80	H	1.013384	0.682278	0.293405
