data_functionalizedCrystal
_audit_creation_method	'MofGen! by Chris Wilmer'
_symmetry_space_group_name_H-M	'P1'
_symmetry_Int_Tables_number	1
_symmetry_cell_setting	triclinic
loop_
_symmetry_equiv_pos_as_xyz
  x,y,z
_cell_length_a	16.109301
_cell_length_b	23.532407
_cell_length_c	15.186229
_cell_angle_alpha	89.991614
_cell_angle_beta	89.999362
_cell_angle_gamma	83.155079
loop_
_atom_site_label
_atom_site_type_symbol
_atom_site_fract_x
_atom_site_fract_y
_atom_site_fract_z
O1	O	1.102555	0.073202	-0.073182
O2	O	1.602555	0.573202	0.426818
O3	O	0.860421	0.082312	-0.073197
O4	O	1.360421	0.582312	0.426803
O5	O	0.988790	-0.005148	-0.073173
O6	O	1.488790	0.494852	0.426827
O7	O	0.974187	0.160662	-0.073206
O8	O	1.474187	0.660662	0.426794
O9	O	0.988781	-0.005149	0.073284
O10	O	1.488781	0.494851	0.573284
O11	O	0.860413	0.082311	0.073260
O12	O	1.360413	0.582311	0.573260
O13	O	1.102547	0.073201	0.073275
O14	O	1.602547	0.573201	0.573275
Zn15	Zn	0.981478	0.077755	0.096521
Zn16	Zn	1.481478	0.577755	0.596521
Zn17	Zn	0.981490	0.077757	-0.096443
Zn18	Zn	1.481490	0.577757	0.403557
O19	O	0.974178	0.160660	0.073251
O20	O	1.474178	0.660660	0.573251
C21	C	0.829445	0.081942	0.000030
C22	C	1.329445	0.581942	0.500030
C23	C	0.737159	0.080836	0.000025
C24	C	1.237159	0.580836	0.500025
C25	C	0.988414	-0.026366	0.000058
C26	C	1.488414	0.473634	0.500058
C27	C	0.987296	-0.089587	0.000064
C28	C	1.487296	0.410413	0.500064
C29	C	0.514498	0.130160	0.000025
C30	C	1.014498	0.630160	0.500025
C31	C	0.427786	0.129116	0.000031
C32	C	0.927786	0.629116	0.500031
C33	C	0.448476	0.025348	0.000048
C34	C	0.948476	0.525348	0.500048
C35	C	0.535187	0.026393	0.000048
C36	C	1.035187	0.526393	0.500048
C37	C	0.568195	0.078801	0.000032
C38	C	1.068195	0.578801	0.500032
C39	C	0.394773	0.076712	0.000038
C40	C	0.894773	0.576712	0.500038
C41	C	0.300755	0.075580	0.000044
C42	C	0.800755	0.575580	0.500044
C43	C	0.662218	0.079933	0.000028
C44	C	1.162218	0.579933	0.500028
C45	C	1.056249	-0.488436	0.000021
C46	C	1.556249	0.011564	0.500021
C47	C	1.055210	-0.547840	0.000014
C48	C	1.555210	-0.047840	0.500014
O49	O	1.119130	-0.584349	-0.000015
O50	O	1.619130	-0.084349	0.499985
N51	N	0.978895	-0.570748	0.000010
N52	N	1.478895	-0.070748	0.500010
C53	C	0.903614	-0.534248	0.000003
C54	C	1.403614	-0.034248	0.500003
O55	O	0.838607	-0.559187	-0.000002
O56	O	1.338607	-0.059187	0.499998
C57	C	0.904654	-0.474845	0.000004
C58	C	1.404654	0.025155	0.500004
C59	C	0.980973	-0.451941	0.000017
C60	C	1.480973	0.048059	0.500017
C61	C	1.132562	-0.465531	0.000033
C62	C	1.632562	0.034469	0.500033
C63	C	1.133601	-0.406131	0.000041
C64	C	1.633601	0.093869	0.500041
C65	C	1.058325	-0.369636	0.000037
C66	C	1.558325	0.130364	0.500037
C67	C	0.982012	-0.392541	0.000025
C68	C	1.482012	0.107459	0.500025
C69	C	0.829373	-0.438346	-0.000009
C70	C	1.329373	0.061654	0.499991
C71	C	0.830419	-0.378940	-0.000009
C72	C	1.330419	0.121060	0.499991
C73	C	0.906739	-0.356036	0.000004
C74	C	1.406739	0.143964	0.500004
C75	C	0.907774	-0.296645	0.000030
C76	C	1.407774	0.203355	0.500030
N77	N	0.984089	-0.273738	0.000034
N78	N	1.484089	0.226262	0.500034
C79	C	1.059365	-0.310233	0.000038
C80	C	1.559365	0.189767	0.500038
C81	C	0.901437	-0.658998	0.000001
C82	C	1.401437	-0.158998	0.500001
C83	C	0.900396	-0.718400	0.000007
C84	C	1.400396	-0.218400	0.500007
C85	C	1.051993	-0.731988	0.000016
C86	C	1.551993	-0.231988	0.500016
C87	C	1.053032	-0.672585	0.000016
C88	C	1.553032	-0.172585	0.500016
C89	C	0.977752	-0.636091	0.000005
C90	C	1.477752	-0.136091	0.500005
C91	C	1.061539	-0.185488	0.000056
C92	C	1.561539	0.314512	0.500056
C93	C	1.062571	-0.126082	0.000068
C94	C	1.562571	0.373918	0.500068
C95	C	0.910975	-0.112499	0.000055
C96	C	1.410975	0.387501	0.500055
C97	C	0.909943	-0.171900	0.000047
C98	C	1.409943	0.328100	0.500047
C99	C	0.985232	-0.208394	0.000045
C100	C	1.485232	0.291606	0.500045
O101	O	0.843888	-0.260102	0.000055
O102	O	1.343888	0.239898	0.500055
O103	O	1.124361	-0.285285	0.000031
O104	O	1.624361	0.214715	0.500031
C105	C	1.133523	0.073570	0.000046
C106	C	1.633523	0.573570	0.500046
C107	C	1.225809	0.074677	0.000046
C108	C	1.725809	0.574677	0.500046
C109	C	0.974554	0.181878	0.000018
C110	C	1.474554	0.681878	0.500018
C111	C	0.975672	0.245100	0.000006
C112	C	1.475672	0.745100	0.500006
N113	N	0.981477	0.077754	0.228214
N114	N	1.481477	0.577754	0.728214
N115	N	0.981498	0.077754	-0.228136
N116	N	1.481498	0.577754	0.271864
C117	C	1.038337	0.039040	0.453947
C118	C	1.538337	0.539040	0.953947
C119	C	1.038340	0.039039	0.546137
C120	C	1.538340	0.539039	1.046137
C121	C	0.924631	0.116470	0.546124
C122	C	1.424631	0.616470	1.046124
C123	C	0.924625	0.116468	0.453936
C124	C	1.424625	0.616468	0.953936
C125	C	0.981483	0.077754	0.407850
C126	C	1.481483	0.577754	0.907850
C127	C	0.981492	0.077754	0.592228
C128	C	1.481492	0.577754	1.092228
C129	C	0.981494	0.077753	0.692184
C130	C	1.481494	0.577753	1.192184
C131	C	0.981480	0.077754	0.307888
C132	C	1.481480	0.577754	0.807888
H133	H	0.541371	0.172834	0.000019
H134	H	1.041371	0.672834	0.500019
H135	H	1.113286	-0.761714	0.000015
H136	H	1.613286	-0.261714	0.500015
C137	C	0.412159	-0.032297	0.000057
C138	C	0.912159	0.467703	0.500057
N139	N	0.384805	-0.075717	0.000061
N140	N	0.884805	0.424283	0.500061
C141	C	0.818616	-0.618858	0.000000
C142	C	1.318616	-0.118858	0.500000
N143	N	0.756236	-0.588628	-0.000001
N144	N	1.256236	-0.088628	0.499999
C145	C	0.816439	-0.743587	0.000003
C146	C	1.316439	-0.243587	0.500003
N147	N	0.753199	-0.762556	-0.000005
N148	N	1.253199	-0.262556	0.499995
C149	C	1.146532	-0.100892	0.000080
C150	C	1.646532	0.399108	0.500080
N151	N	1.209770	-0.081921	0.000087
N152	N	1.709770	0.418079	0.500087
C153	C	1.100876	-0.003552	0.403255
C154	C	1.600876	0.496448	0.903255
N155	N	1.147979	-0.035635	0.365077
N156	N	1.647979	0.464365	0.865077
C157	C	0.594258	-0.030110	0.000057
C158	C	1.094258	0.469890	0.500057
N159	N	0.638750	-0.072666	0.000065
N160	N	1.138750	0.427334	0.500065
H161	H	0.384069	0.170939	0.000027
H162	H	0.884069	0.670939	0.500027
C163	C	1.100878	-0.003554	0.596839
C164	C	1.600878	0.496446	1.096839
N165	N	1.147981	-0.035640	0.635028
N166	N	1.647981	0.464360	1.135028
H167	H	1.122847	-0.215195	0.000051
H168	H	1.622847	0.284805	0.500051
C169	C	1.217559	-0.380945	0.000046
C170	C	1.717559	0.119055	0.500046
N171	N	1.280801	-0.361978	0.000046
N172	N	1.780801	0.138022	0.500046
C173	C	1.215379	-0.505668	0.000046
C174	C	1.715379	-0.005668	0.500046
N175	N	1.277762	-0.535895	0.000066
N176	N	1.777762	-0.035895	0.500066
C177	C	1.136989	-0.647397	0.000023
C178	C	1.636989	-0.147397	0.500023
N179	N	1.200229	-0.628428	0.000024
N180	N	1.700229	-0.128428	0.500024
C181	C	0.745414	-0.463527	-0.000029
C182	C	1.245414	0.036473	0.499971
N183	N	0.682171	-0.482491	-0.000048
N184	N	1.182171	0.017509	0.499952
H185	H	0.878340	0.147991	0.583657
H186	H	1.378340	0.647991	1.083657
H187	H	0.769115	-0.349228	-0.000019
H188	H	1.269115	0.150772	0.499981
H189	H	0.847797	-0.190549	0.000061
H190	H	1.347797	0.309451	0.500061
C191	C	0.862115	0.159084	0.403227
C192	C	1.362115	0.659084	0.903227
N193	N	0.815047	0.191190	0.365032
N194	N	1.315047	0.691190	0.865032
H195	H	0.849688	-0.082774	0.000055
H196	H	1.349688	0.417226	0.500055
