data_functionalizedCrystal
_audit_creation_method	'MofGen! by Chris Wilmer'
_symmetry_space_group_name_H-M	'P1'
_symmetry_Int_Tables_number	1
_symmetry_cell_setting	triclinic
loop_
_symmetry_equiv_pos_as_xyz
  x,y,z
_cell_length_a	11.792254
_cell_length_b	11.792241
_cell_length_c	9.198806
_cell_angle_alpha	90.003595
_cell_angle_beta	90.003910
_cell_angle_gamma	84.196007
loop_
_atom_site_label
_atom_site_type_symbol
_atom_site_fract_x
_atom_site_fract_y
_atom_site_fract_z
O1	O	1.506900	0.155634	0.120892
O2	O	1.840233	0.488968	0.454225
O3	O	2.173566	0.822301	0.787558
O4	O	1.176560	0.171652	0.120895
O5	O	1.509894	0.504985	0.454228
O6	O	1.843227	0.838319	0.787562
O7	O	1.349746	-0.001527	0.120883
O8	O	1.683080	0.331806	0.454217
O9	O	2.016413	0.665140	0.787550
O10	O	1.333714	0.328813	0.120904
O11	O	1.667047	0.662147	0.454237
O12	O	2.000380	0.995480	0.787570
O13	O	1.349733	-0.001528	-0.120902
O14	O	1.683066	0.331805	0.212431
O15	O	2.016399	0.665138	0.545765
O16	O	1.176547	0.171651	-0.120890
O17	O	1.509880	0.504984	0.212443
O18	O	1.843213	0.838317	0.545777
O19	O	1.506886	0.155633	-0.120893
O20	O	1.840219	0.488966	0.212440
O21	O	2.173552	0.822300	0.545773
Cu22	Cu	1.341715	0.163642	-0.142968
Cu23	Cu	1.675048	0.496975	0.190365
Cu24	Cu	2.008382	0.830308	0.523698
Cu25	Cu	1.341731	0.163643	0.142970
Cu26	Cu	1.675065	0.496977	0.476304
Cu27	Cu	2.008398	0.830310	0.809637
O28	O	1.333700	0.328812	-0.120881
O29	O	1.667033	0.662145	0.212452
O30	O	2.000366	0.995479	0.545785
C31	C	1.134263	0.170642	0.000003
C32	C	1.467596	0.503976	0.333336
C33	C	1.800929	0.837309	0.666670
C34	C	1.008250	0.167622	0.000004
C35	C	1.341583	0.500956	0.333337
C36	C	1.674916	0.834289	0.666671
C37	C	1.348732	-0.043819	-0.000009
C38	C	1.682066	0.289515	0.333324
C39	C	2.015399	0.622848	0.666658
C40	C	1.345718	-0.169832	-0.000007
C41	C	1.679051	0.163501	0.333326
C42	C	2.012385	0.496834	0.666659
C43	C	0.905913	0.165168	0.000010
C44	C	1.239247	0.498502	0.333343
C45	C	1.572580	0.831835	0.666677
C46	C	0.777527	0.162100	0.000011
C47	C	1.110860	0.495433	0.333344
C48	C	1.444193	0.828767	0.666677
C49	C	1.340175	-0.400545	0.000017
C50	C	1.673508	-0.067212	0.333350
C51	C	2.006842	0.266122	0.666684
C52	C	1.343255	-0.272160	0.000004
C53	C	1.676588	0.061174	0.333337
C54	C	2.009921	0.394507	0.666670
C55	C	1.549183	0.156643	0.000002
C56	C	1.882517	0.489976	0.333336
C57	C	2.215850	0.823309	0.666669
C58	C	1.675196	0.159663	0.000011
C59	C	2.008530	0.492996	0.333344
C60	C	2.341863	0.826329	0.666677
C61	C	1.334714	0.371104	0.000014
C62	C	1.668047	0.704437	0.333347
C63	C	2.001380	1.037770	0.666681
C64	C	1.337728	0.497118	0.000022
C65	C	1.671061	0.830451	0.333355
C66	C	2.004395	1.163784	0.666689
N67	N	1.341712	0.163640	-0.344082
N68	N	1.675045	0.496973	-0.010749
N69	N	2.008378	0.830307	0.322584
C70	C	1.407736	0.229300	-0.416277
C71	C	1.741069	0.562633	-0.082943
C72	C	2.074403	0.895966	0.250390
C73	C	1.407753	0.229298	-0.583689
C74	C	1.741087	0.562632	-0.250356
C75	C	2.074420	0.895965	0.082978
N76	N	1.341743	0.163636	0.344084
N77	N	1.675077	0.496969	0.677418
N78	N	2.008410	0.830303	1.010751
H79	H	1.464253	0.285509	-0.354145
H80	H	1.797587	0.618843	-0.020811
H81	H	2.130920	0.952176	0.312522
H82	H	1.464273	0.285518	-0.645775
H83	H	1.797606	0.618851	-0.312441
H84	H	2.130940	0.952185	0.020892
C85	C	1.265429	0.087632	-0.572055
C86	C	1.598762	0.420966	-0.238721
C87	C	1.932096	0.754299	0.094612
N88	N	1.207971	0.030364	-0.508880
N89	N	1.541304	0.363698	-0.175547
N90	N	1.874637	0.697031	0.157787
H91	H	1.285202	0.107422	-0.406214
H92	H	1.618535	0.440756	-0.072881
H93	H	1.951869	0.774089	0.260452
