data_functionalizedCrystal
_audit_creation_method	'MofGen! by Chris Wilmer'
_symmetry_space_group_name_H-M	'P1'
_symmetry_Int_Tables_number	1
_symmetry_cell_setting	triclinic
loop_
_symmetry_equiv_pos_as_xyz
  x,y,z
_cell_length_a	11.792241
_cell_length_b	9.730217
_cell_length_c	10.654541
_cell_angle_alpha	89.995639
_cell_angle_beta	95.661328
_cell_angle_gamma	89.996488
loop_
_atom_site_label
_atom_site_type_symbol
_atom_site_fract_x
_atom_site_fract_y
_atom_site_fract_z
O1	O	1.507299	0.114156	-0.172136
O2	O	1.176999	0.114188	-0.189876
O3	O	1.349744	0.114163	0.001755
O4	O	1.334553	0.114181	-0.363767
O5	O	1.349742	-0.114417	0.001762
O6	O	1.176996	-0.114392	-0.189870
O7	O	1.507296	-0.114424	-0.172129
Zn8	Zn	1.342146	-0.150700	-0.180998
Zn9	Zn	1.342149	0.150464	-0.181007
O10	O	1.334551	-0.114399	-0.363760
C11	C	1.134704	-0.000098	-0.188759
C12	C	1.008682	-0.000086	-0.185423
N13	N	1.342152	-0.356237	-0.180991
N14	N	1.342152	0.356000	-0.181004
C15	C	0.777956	-0.000126	-0.179290
C16	C	0.906349	-0.000104	-0.182698
C17	C	1.549591	-0.000135	-0.173247
C18	C	1.675612	-0.000138	-0.176582
C19	C	1.348628	-0.000126	0.048553
C20	C	1.345293	-0.000124	0.187987
C21	C	1.495423	0.355969	-0.011632
C22	C	1.572055	0.427893	0.073063
C23	C	1.572054	0.571773	0.073077
C24	C	1.495416	0.643732	-0.011615
C25	C	1.418784	0.571808	-0.096311
C26	C	1.418791	0.427924	-0.096313
C27	C	1.265520	0.571839	-0.265687
C28	C	1.265513	0.427959	-0.265697
C29	C	1.188882	0.643798	-0.350379
C30	C	1.112243	0.571874	-0.435070
C31	C	1.112246	0.427985	-0.435080
C32	C	1.188882	0.356035	-0.350392
C33	C	1.335667	-0.000107	-0.410559
C34	C	1.339002	-0.000101	-0.549993
C35	C	1.551857	-0.000161	0.216542
C36	C	1.653568	-0.000183	0.296324
C37	C	1.650427	-0.000178	0.427333
C38	C	1.545564	-0.000148	0.478562
C39	C	1.443854	-0.000127	0.398780
C40	C	1.447006	-0.000135	0.267770
C41	C	1.237292	-0.000079	0.370225
C42	C	1.240430	-0.000094	0.239216
C43	C	1.132429	-0.000049	0.421454
C44	C	1.030716	-0.000038	0.341672
C45	C	1.033861	-0.000044	0.210655
C46	C	1.138720	-0.000072	0.159434
H47	H	1.495422	0.238814	-0.011625
O48	O	0.928961	-0.000067	0.391642
C49	C	0.832577	0.000066	0.580821
C50	C	0.947893	0.000069	0.524392
H51	H	0.847844	0.000205	0.688157
H52	H	0.782236	-0.095611	0.548135
H53	H	0.782272	0.095710	0.547933
H54	H	0.998291	-0.095510	0.557255
H55	H	0.998148	0.095809	0.557073
H56	H	0.951036	-0.000021	0.145703
O57	O	1.755330	-0.000276	0.246352
C58	C	1.851727	-0.000228	0.057182
C59	C	1.736406	-0.000158	0.113601
H60	H	1.836467	-0.000104	-0.050154
H61	H	1.902048	-0.095922	0.089900
H62	H	1.902050	0.095398	0.090047
H63	H	1.685991	-0.095720	0.080762
H64	H	1.686172	0.095599	0.080889
O65	O	1.646335	0.357924	0.155457
C66	C	1.669414	0.195380	0.326717
C67	C	1.585168	0.274554	0.233501
H68	H	1.619994	0.127935	0.389822
H69	H	1.724171	0.271432	0.387348
H70	H	1.726459	0.128083	0.271920
H71	H	1.528049	0.341853	0.288197
H72	H	1.530491	0.198427	0.172871
O73	O	1.646535	0.641434	0.155468
C74	C	1.798607	0.626235	0.323418
C75	C	1.714303	0.547174	0.230199
H76	H	1.853435	0.550061	0.383844
H77	H	1.749278	0.693548	0.386722
H78	H	1.855573	0.693645	0.268626
H79	H	1.657316	0.479690	0.284889
H80	H	1.763702	0.479948	0.166895
H81	H	1.554425	-0.000184	0.109869
H82	H	1.495430	0.760886	-0.011609
H83	H	1.188889	0.760953	-0.350369
H84	H	1.188887	0.238881	-0.350388
H85	H	1.049854	0.630472	-0.504026
H86	H	1.733248	-0.000184	0.492293
H87	H	1.049847	0.369432	-0.504054
H88	H	1.543016	-0.000127	0.585238
H89	H	1.129879	-0.000037	0.528129
H90	H	1.141291	-0.000086	0.052761
