data_functionalizedCrystal
_audit_creation_method	'MofGen! by Chris Wilmer'
_symmetry_space_group_name_H-M	'P1'
_symmetry_Int_Tables_number	1
_symmetry_cell_setting	triclinic
loop_
_symmetry_equiv_pos_as_xyz
  x,y,z
_cell_length_a	15.538191
_cell_length_b	13.101039
_cell_length_c	14.044220
_cell_angle_alpha	93.667477
_cell_angle_beta	109.769514
_cell_angle_gamma	92.020033
loop_
_atom_site_label
_atom_site_type_symbol
_atom_site_fract_x
_atom_site_fract_y
_atom_site_fract_z
O1	O	1.229379	0.085218	0.306027
O2	O	0.964059	0.085220	0.199654
O3	O	1.092736	0.085209	0.389454
O4	O	1.100702	0.085229	0.116227
O5	O	1.083505	-0.085220	0.375819
O6	O	0.954828	-0.085209	0.186020
O7	O	1.220148	-0.085211	0.292392
Zn8	Zn	1.086022	-0.112269	0.237041
Zn9	Zn	1.098185	0.112278	0.255005
O10	O	1.091471	-0.085200	0.102592
C11	C	0.925283	0.000006	0.181708
C12	C	0.823495	0.000007	0.148557
N13	N	1.077729	-0.265517	0.224784
C14	C	0.508030	-0.000002	0.477900
C15	C	0.412383	0.000001	0.446727
C16	C	0.404675	0.000014	0.271385
C17	C	0.500322	0.000006	0.302543
C18	C	0.551992	-0.000001	0.405802
C19	C	0.544285	0.000007	0.230445
C20	C	0.639924	0.000004	0.261601
C21	C	0.691601	0.000001	0.364856
C22	C	0.647631	-0.000004	0.436958
C23	C	0.492614	0.000021	0.127187
C24	C	0.536576	0.000022	0.055089
C25	C	0.632217	0.000012	0.086244
C26	C	0.683893	0.000008	0.189499
C27	C	0.676186	0.000016	0.014142
C28	C	0.771825	0.000013	0.045298
C29	C	0.779532	0.000006	0.220655
C30	C	1.066445	-0.474559	0.208099
C31	C	1.117766	-0.525439	0.283953
C32	C	1.111488	-0.641757	0.274670
C33	C	1.072722	-0.358230	0.217381
C34	C	1.258924	0.000006	0.310339
C35	C	1.360713	0.000012	0.343490
C36	C	1.084634	-0.000006	0.416752
C37	C	1.074234	-0.000007	0.518399
N38	N	1.106485	0.265526	0.267272
C39	C	1.099573	0.000017	0.075295
C40	C	1.109973	0.000025	-0.026352
C41	C	1.055222	0.000008	0.704520
C42	C	1.128981	0.000010	0.787531
C43	C	1.118403	0.000019	0.891095
C44	C	1.065799	-0.000000	0.600945
H45	H	0.769477	0.000012	0.390222
H46	H	1.200077	0.000079	0.780825
C47	C	0.836379	-0.000012	0.334237
H48	H	0.899633	-0.000021	0.342461
H49	H	0.825512	0.059413	0.369920
H50	H	0.819069	-0.059459	0.360394
C51	C	0.704475	-0.000006	0.550542
H52	H	0.664597	-0.000001	0.589024
H53	H	0.738730	-0.059435	0.561590
H54	H	0.745158	0.059437	0.571087
C55	C	0.564873	-0.000004	0.591484
H56	H	0.524995	0.000001	0.629966
H57	H	0.599128	-0.059433	0.602532
H58	H	0.605556	0.059439	0.612029
C59	C	0.364027	-0.000002	0.526042
H60	H	0.408500	-0.000012	0.591998
H61	H	0.330098	0.059431	0.522286
H62	H	0.323660	-0.059441	0.512780
H63	H	0.807619	0.000005	-0.013412
C64	C	1.183521	-0.466279	0.381084
H65	H	1.179187	-0.394728	0.374653
H66	H	1.167411	-0.483789	0.437737
H67	H	1.244547	-0.483809	0.390766
H68	H	0.984136	0.000011	0.711232
C69	C	0.347833	0.000015	0.157807
H70	H	0.284577	0.000009	0.149575
H71	H	0.365144	0.059444	0.131635
H72	H	0.358704	-0.059428	0.122142
C73	C	0.479739	0.000033	-0.058489
H74	H	0.519623	0.000040	-0.096965
H75	H	0.439046	-0.059394	-0.079045
H76	H	0.445497	0.059478	-0.069530
C77	C	0.619347	0.000037	-0.099435
H78	H	0.659229	0.000046	-0.137912
H79	H	0.578649	-0.059387	-0.119996
H80	H	0.585109	0.059485	-0.110467
H81	H	0.414738	0.000026	0.101823
H82	H	1.017797	-0.518351	0.136190
