data_functionalizedCrystal
_audit_creation_method	'MofGen! by Chris Wilmer'
_symmetry_space_group_name_H-M	'P1'
_symmetry_Int_Tables_number	1
_symmetry_cell_setting	triclinic
loop_
_symmetry_equiv_pos_as_xyz
  x,y,z
_cell_length_a	19.077105
_cell_length_b	29.839131
_cell_length_c	19.076919
_cell_angle_alpha	92.267459
_cell_angle_beta	90.076224
_cell_angle_gamma	87.737628
loop_
_atom_site_label
_atom_site_type_symbol
_atom_site_fract_x
_atom_site_fract_y
_atom_site_fract_z
Zn1	Zn	1.058171	-0.217337	-0.440392
Zn2	Zn	1.558171	0.282663	0.059608
Zn3	Zn	1.062777	-0.289569	-0.322877
Zn4	Zn	1.562777	0.210431	0.177123
Zn5	Zn	0.945391	-0.211319	-0.318186
Zn6	Zn	1.445391	0.288681	0.181814
Zn7	Zn	0.940599	-0.289298	-0.435629
Zn8	Zn	1.440599	0.210702	0.064371
O9	O	1.001735	-0.251881	-0.379271
O10	O	1.501735	0.248119	0.120729
O11	O	1.157112	-0.229551	-0.428760
O12	O	1.657112	0.270449	0.071240
O13	O	1.051139	-0.276784	-0.223924
O14	O	1.551139	0.223216	0.276076
O15	O	0.960429	-0.149253	-0.334427
O16	O	1.460429	0.350747	0.165573
O17	O	1.160497	-0.282620	-0.342422
O18	O	1.660497	0.217380	0.157578
O19	O	1.043288	-0.153674	-0.424211
O20	O	1.543288	0.346326	0.075789
O21	O	0.964896	-0.219294	-0.220477
O22	O	1.464896	0.280706	0.279523
O23	O	0.846425	-0.219031	-0.329809
O24	O	1.346425	0.280969	0.170191
O25	O	0.952262	-0.282158	-0.534592
O26	O	1.452262	0.217842	-0.034592
O27	O	0.842904	-0.276322	-0.416094
O28	O	1.342904	0.223678	0.083906
O29	O	1.038641	-0.229288	-0.538091
O30	O	1.538641	0.270712	-0.038091
O31	O	1.046493	-0.352398	-0.337803
O32	O	1.546493	0.147602	0.162197
O33	O	0.956729	-0.352199	-0.420642
O34	O	1.456729	0.147801	0.079358
C35	C	0.819169	-0.246995	-0.371926
C36	C	1.319169	0.253005	0.128074
C37	C	0.741065	-0.244915	-0.368801
C38	C	1.241065	0.255085	0.131199
C39	C	1.001609	-0.368599	-0.379231
C40	C	1.501609	0.131401	0.120769
C41	C	1.001619	-0.418534	-0.379240
C42	C	1.501619	0.081466	0.120760
C43	C	0.702560	-0.273809	-0.412186
C44	C	1.202560	0.226191	0.087814
C45	C	0.629174	-0.271849	-0.409252
C46	C	1.129174	0.228151	0.090748
C47	C	0.594294	-0.240998	-0.362930
C48	C	1.094294	0.259002	0.137070
C49	C	0.632804	-0.212102	-0.319543
C50	C	1.132804	0.287898	0.180457
C51	C	0.706189	-0.214059	-0.322481
C52	C	1.206189	0.285941	0.177519
C53	C	0.375011	-0.231938	-0.349338
C54	C	0.875011	0.268062	0.150662
C55	C	0.301621	-0.229984	-0.346403
C56	C	0.801621	0.270016	0.153597
C57	C	0.297996	-0.289731	-0.436113
C58	C	0.797996	0.210269	0.063887
C59	C	0.371382	-0.291688	-0.439043
C60	C	0.871382	0.208312	0.060957
C61	C	0.409886	-0.262790	-0.395659
C62	C	0.909886	0.237210	0.104341
N63	N	0.519281	-0.238996	-0.359929
N64	N	1.019281	0.261004	0.140071
N65	N	0.484897	-0.264790	-0.398664
N66	N	0.984897	0.235210	0.101336
C67	C	1.048554	-0.728276	-0.336206
C68	C	1.548554	-0.228276	0.163794
C69	C	1.048639	-0.915952	-0.336237
C70	C	1.548639	-0.415952	0.163763
O71	O	1.088445	-0.940297	-0.299616
O72	O	1.588445	-0.440297	0.200384
N73	N	1.001878	-0.939328	-0.379330
N74	N	1.501878	-0.439328	0.120670
C75	C	0.955095	-0.915782	-0.422422
C76	C	1.455095	-0.415782	0.077578
O77	O	0.915329	-0.939972	-0.459082
O78	O	1.415329	-0.439972	0.040918
C79	C	0.955014	-0.728107	-0.422395
C80	C	1.455014	-0.228107	0.077605
C81	C	1.001773	-0.704734	-0.379293
C82	C	1.501773	-0.204734	0.120707
C83	C	1.095310	-0.704902	-0.293109
C84	C	1.595310	-0.204902	0.206891
C85	C	1.095285	-0.657986	-0.293099
C86	C	1.595285	-0.157986	0.206901
C87	C	1.048505	-0.634443	-0.336186
C88	C	1.548505	-0.134443	0.163814
C89	C	1.001749	-0.657817	-0.379283
C90	C	1.501749	-0.157817	0.120717
C91	C	0.908235	-0.704563	-0.465490
C92	C	1.408235	-0.204563	0.034510
C93	C	0.908220	-0.657641	-0.465480
C94	C	1.408220	-0.157641	0.034520
C95	C	0.954979	-0.634267	-0.422379
C96	C	1.454979	-0.134267	0.077621
C97	C	0.954944	-0.587358	-0.422360
C98	C	1.454944	-0.087358	0.077640
N99	N	1.001705	-0.563982	-0.379267
N100	N	1.501705	-0.063982	0.120733
C101	C	1.048485	-0.587525	-0.336180
C102	C	1.548485	-0.087525	0.163820
C103	C	0.955141	-1.014314	-0.422432
C104	C	1.455141	-0.514314	0.077568
C105	C	0.955160	-1.061233	-0.422439
C106	C	1.455160	-0.561233	0.077561
C107	C	1.048705	-1.061399	-0.336254
C108	C	1.548705	-0.561399	0.163746
C109	C	1.048682	-1.014480	-0.336245
C110	C	1.548682	-0.514480	0.163755
C111	C	1.001902	-0.990938	-0.379339
C112	C	1.501902	-0.490938	0.120661
C113	C	1.048430	-0.488997	-0.336161
C114	C	1.548430	0.011003	0.163839
C115	C	1.048399	-0.442077	-0.336153
C116	C	1.548399	0.057923	0.163847
C117	C	0.954857	-0.441914	-0.422340
C118	C	1.454857	0.058086	0.077660
C119	C	0.954885	-0.488831	-0.422346
C120	C	1.454885	0.011169	0.077654
C121	C	1.001677	-0.512371	-0.379255
C122	C	1.501677	-0.012371	0.120745
O123	O	0.915164	-0.562985	-0.458967
O124	O	1.415164	-0.062985	0.041033
O125	O	1.088256	-0.563328	-0.299537
O126	O	1.588256	-0.063328	0.200463
C127	C	1.048578	-0.775192	-0.336216
C128	C	1.548578	-0.275192	0.163784
C129	C	1.001822	-0.798566	-0.379313
C130	C	1.501822	-0.298566	0.120687
C131	C	0.955041	-0.775024	-0.422401
C132	C	1.455041	-0.275024	0.077599
C133	C	1.001841	-0.845485	-0.379319
C134	C	1.501841	-0.345485	0.120681
C135	C	1.048622	-0.869027	-0.336232
C136	C	1.548622	-0.369027	0.163768
C137	C	1.095383	-0.845651	-0.293139
C138	C	1.595383	-0.345651	0.206861
C139	C	1.095359	-0.798735	-0.293129
C140	C	1.595359	-0.298735	0.206871
C141	C	0.908280	-0.798400	-0.465494
C142	C	1.408280	-0.298400	0.034506
C143	C	0.908308	-0.845316	-0.465500
C144	C	1.408308	-0.345316	0.034500
C145	C	0.955089	-0.868859	-0.422413
C146	C	1.455089	-0.368859	0.077587
C147	C	1.185013	-0.256787	-0.386645
C148	C	1.685013	0.243213	0.113355
C149	C	1.263116	-0.258877	-0.389788
C150	C	1.763116	0.241123	0.110212
C151	C	0.994403	-0.256364	-0.562551
C152	C	1.494403	0.243636	-0.062551
C153	C	0.991279	-0.258274	-0.640654
C154	C	1.491279	0.241726	-0.140654
C155	C	1.001879	-0.134708	-0.379327
C156	C	1.501879	0.365292	0.120673
C157	C	1.001941	-0.084775	-0.379351
C158	C	1.501941	0.415225	0.120649
C159	C	1.034782	-0.231647	-0.679169
C160	C	1.534782	0.268353	-0.179169
C161	C	1.031838	-0.233440	-0.752555
C162	C	1.531838	0.266560	-0.252555
C163	C	0.985394	-0.261863	-0.787424
C164	C	1.485394	0.238137	-0.287424
C165	C	0.941886	-0.288492	-0.748903
C166	C	1.441886	0.211508	-0.248903
C167	C	0.944827	-0.286696	-0.675518
C168	C	1.444827	0.213304	-0.175518
C169	C	0.971772	-0.270184	-1.006704
C170	C	1.471772	0.229816	-0.506704
C171	C	0.968835	-0.271978	-1.080093
C172	C	1.468835	0.228022	-0.580093
C173	C	1.058787	-0.216925	-1.083741
C174	C	1.558787	0.283075	-0.583741
C175	C	1.061727	-0.215134	-1.010355
C176	C	1.561727	0.284866	-0.510355
C177	C	1.018216	-0.241761	-0.971840
C178	C	1.518216	0.258239	-0.471840
N179	N	0.982385	-0.263698	-0.862436
N180	N	1.482385	0.236302	-0.362436
N181	N	1.021222	-0.239924	-0.896830
N182	N	1.521222	0.260076	-0.396830
C183	C	1.009078	-0.247384	-0.196706
C184	C	1.509078	0.252616	0.303294
C185	C	1.012338	-0.245351	-0.118609
C186	C	1.512338	0.254649	0.381391
H187	H	0.730954	-0.298932	-0.449904
H188	H	1.230954	0.201068	0.050096
C189	C	1.099895	-0.514885	-0.288757
C190	C	1.599895	-0.014885	0.211243
H191	H	1.127729	-0.494239	-0.263086
H192	H	1.627729	0.005761	0.236914
H193	H	1.129428	-0.534638	-0.316887
H194	H	1.629428	-0.034638	0.183113
H195	H	1.074269	-0.531744	-0.257037
H196	H	1.574269	-0.031744	0.242963
C197	C	0.594441	-0.178165	-0.268590
C198	C	1.094441	0.321835	0.231410
H199	H	0.627886	-0.161234	-0.243177
H200	H	1.127886	0.338766	0.256823
H201	H	0.567016	-0.193804	-0.236776
H202	H	1.067016	0.306196	0.263224
H203	H	0.564763	-0.158512	-0.294386
H204	H	1.064763	0.341488	0.205614
H205	H	1.133472	-0.864828	-0.258053
H206	H	1.633472	-0.364828	0.241947
H207	H	0.917045	-0.995150	-0.457526
H208	H	1.417045	-0.495150	0.042474
C209	C	1.112809	-0.183866	-0.972001
C210	C	1.612809	0.316134	-0.472001
H211	H	1.108333	-0.186612	-0.922780
H212	H	1.608333	0.313388	-0.422780
H213	H	1.102081	-0.153701	-0.983628
H214	H	1.602081	0.346299	-0.483628
H215	H	1.159535	-0.192000	-0.985926
H216	H	1.659535	0.308000	-0.485926
H217	H	1.086796	-1.080576	-0.301171
H218	H	1.586796	-0.580576	0.198829
H219	H	1.133363	-0.638958	-0.258004
H220	H	1.633363	-0.138958	0.241996
H221	H	0.273224	-0.204856	-0.308686
H222	H	0.773224	0.295144	0.191314
C223	C	0.890797	-0.319758	-0.787253
C224	C	1.390797	0.180242	-0.287253
H225	H	0.865305	-0.335356	-0.753802
H226	H	1.365305	0.164644	-0.253802
H227	H	0.916505	-0.340752	-0.816953
H228	H	1.416505	0.159248	-0.316953
H229	H	0.859053	-0.302452	-0.814654
H230	H	1.359053	0.197548	-0.314654
H231	H	0.597826	-0.295378	-0.444580
H232	H	1.097826	0.204622	0.055420
C233	C	0.896976	-0.315986	-0.633148
C234	C	1.396976	0.184014	-0.133148
H235	H	0.905373	-0.310843	-0.584449
H236	H	1.405373	0.189157	-0.084449
H237	H	0.906736	-0.346740	-0.645571
H238	H	1.406736	0.153260	-0.145571
H239	H	0.849288	-0.308437	-0.643276
H240	H	1.349288	0.191563	-0.143276
H241	H	0.737539	-0.190529	-0.287155
H242	H	1.237539	0.309471	0.212845
C243	C	1.079707	-0.204162	-0.794923
C244	C	1.579707	0.295838	-0.294923
H245	H	1.071304	-0.209300	-0.843622
H246	H	1.571304	0.290700	-0.343622
H247	H	1.127388	-0.211717	-0.784789
H248	H	1.627388	0.288283	-0.284789
H249	H	1.069955	-0.173404	-0.782504
H250	H	1.569955	0.326596	-0.282504
H251	H	0.399777	-0.316811	-0.476762
H252	H	0.899777	0.183189	0.023238
C253	C	1.106638	-0.187635	-1.126108
C254	C	1.606638	0.312365	-0.626108
H255	H	1.098233	-0.192771	-1.174807
H256	H	1.598233	0.307229	-0.674807
H257	H	1.154324	-0.195177	-1.115981
H258	H	1.654324	0.304823	-0.615981
H259	H	1.096867	-0.156880	-1.113680
H260	H	1.596867	0.343120	-0.613680
C261	C	0.856804	-0.730264	-0.512907
C262	C	1.356804	-0.230264	-0.012907
H263	H	0.828951	-0.709517	-0.538571
H264	H	1.328951	-0.209517	-0.038571
H265	H	0.827286	-0.747120	-0.484787
H266	H	1.327286	-0.247120	0.015213
H267	H	0.882448	-0.750007	-0.544634
H268	H	1.382448	-0.250007	-0.044634
C269	C	1.085867	-0.200378	-0.640820
C270	C	1.585867	0.299622	-0.140820
H271	H	1.111348	-0.184773	-0.674272
H272	H	1.611348	0.315227	-0.174272
H273	H	1.117612	-0.217679	-0.613416
H274	H	1.617612	0.282321	-0.113416
H275	H	1.060151	-0.179383	-0.611122
H276	H	1.560151	0.320617	-0.111122
H277	H	0.266638	-0.313257	-0.471435
H278	H	0.766638	0.186743	0.028565
C279	C	0.856872	-0.871025	-0.512915
C280	C	1.356872	-0.371025	-0.012915
H281	H	0.863580	-0.902340	-0.506753
H282	H	1.363580	-0.402340	-0.006753
H283	H	0.865231	-0.864741	-0.560544
H284	H	1.365231	-0.364741	-0.060544
H285	H	0.810073	-0.861856	-0.500692
H286	H	1.310073	-0.361856	-0.000692
H287	H	0.931013	-0.295125	-1.108481
H288	H	1.431013	0.204875	-0.608481
C289	C	0.856761	-0.631748	-0.512886
C290	C	1.356761	-0.131748	-0.012886
H291	H	0.828917	-0.652391	-0.538550
H292	H	1.328917	-0.152391	-0.038550
H293	H	0.882382	-0.614887	-0.544600
H294	H	1.382382	-0.114887	-0.044600
H295	H	0.827227	-0.611997	-0.484747
H296	H	1.327227	-0.111997	0.015253
H297	H	1.086476	-0.423047	-0.301052
H298	H	1.586476	0.076953	0.198948
C299	C	0.923898	-0.299462	-0.964346
C300	C	1.423898	0.200538	-0.464346
H301	H	0.895818	-0.316647	-0.995625
H302	H	1.395818	0.183353	-0.495625
H303	H	0.894454	-0.280748	-0.934504
H304	H	1.394454	0.219252	-0.434504
H305	H	0.951886	-0.319061	-0.936782
H306	H	1.451886	0.180939	-0.436782
H307	H	0.406352	-0.208411	-0.314006
H308	H	0.906352	0.291589	0.185994
H309	H	1.133408	-0.724066	-0.258022
H310	H	1.633408	-0.224066	0.241978
H311	H	1.086757	-0.995452	-0.301148
H312	H	1.586757	-0.495452	0.198852
H313	H	0.917078	-1.080260	-0.457529
H314	H	1.417078	-0.580260	0.042471
C315	C	0.903450	-0.514543	-0.469755
C316	C	1.403450	-0.014543	0.030245
H317	H	0.875589	-0.493800	-0.495417
H318	H	1.375589	0.006200	0.004583
H319	H	0.873941	-0.531402	-0.441630
H320	H	1.373941	-0.031402	0.058370
H321	H	0.929098	-0.534283	-0.501482
H322	H	1.429098	-0.034283	-0.001482
C323	C	0.903408	-0.416014	-0.469741
C324	C	1.403408	0.083986	0.030259
H325	H	0.875560	-0.436652	-0.495411
H326	H	1.375560	0.063348	0.004589
H327	H	0.929040	-0.399155	-0.501450
H328	H	1.429040	0.100845	-0.001450
H329	H	0.873877	-0.396260	-0.441603
H330	H	1.373877	0.103740	0.058397
C331	C	1.146799	-0.773030	-0.245722
C332	C	1.646799	-0.273030	0.254278
H333	H	1.174664	-0.793776	-0.220071
H334	H	1.674664	-0.293776	0.279929
H335	H	1.121169	-0.753284	-0.213996
H336	H	1.621169	-0.253284	0.286004
H337	H	1.176315	-0.756178	-0.273858
H338	H	1.676315	-0.256178	0.226142
H339	H	0.870187	-0.779235	-0.500582
H340	H	1.370187	-0.279235	-0.000582
