data_functionalizedCrystal
_audit_creation_method	'MofGen! by Chris Wilmer'
_symmetry_space_group_name_H-M	'P1'
_symmetry_Int_Tables_number	1
_symmetry_cell_setting	triclinic
loop_
_symmetry_equiv_pos_as_xyz
  x,y,z
_cell_length_a	12.759401
_cell_length_b	12.759399
_cell_length_c	12.759393
_cell_angle_alpha	89.971563
_cell_angle_beta	89.977912
_cell_angle_gamma	90.013468
loop_
_atom_site_label
_atom_site_type_symbol
_atom_site_fract_x
_atom_site_fract_y
_atom_site_fract_z
Zn1	Zn	-1.606249	0.418264	0.594105
Zn2	Zn	-1.606140	0.593983	0.418435
Zn3	Zn	-1.430551	0.418312	0.418433
Zn4	Zn	-1.430537	0.593895	0.594065
O5	O	-1.518369	0.506114	0.506259
O6	O	-1.753255	0.441590	0.570819
O7	O	-1.582809	0.570737	0.271413
O8	O	-1.453909	0.271285	0.441753
O9	O	-1.753176	0.570690	0.441755
O10	O	-1.582993	0.271250	0.570818
O11	O	-1.453804	0.441672	0.271412
O12	O	-1.283528	0.441587	0.441714
O13	O	-1.453885	0.570540	0.741091
O14	O	-1.283518	0.570587	0.570750
O15	O	-1.582980	0.441505	0.741121
O16	O	-1.582795	0.740992	0.441716
O17	O	-1.453780	0.740928	0.570751
C18	C	-1.245402	0.506083	0.506228
C19	C	-1.128625	0.506096	0.506240
C20	C	-1.518302	0.779081	0.506252
C21	C	-1.518370	0.895858	0.506285
C22	C	-1.518443	0.506008	0.780293
C23	C	-1.518474	0.505962	0.897070
C24	C	-1.073725	0.573208	0.438942
C25	C	-0.964001	0.573222	0.438955
C26	C	-0.964087	0.439001	0.573567
C27	C	-1.073809	0.438994	0.573558
C28	C	-1.073675	0.650696	0.361221
C29	C	-0.963951	0.650709	0.361235
C30	C	-0.792402	0.506134	0.506281
C31	C	-0.909179	0.506117	0.506262
C32	C	-1.585622	0.950718	0.439173
C33	C	-1.585685	1.060442	0.439212
C34	C	-1.451235	1.060435	0.573475
C35	C	-1.451178	0.950713	0.573442
C36	C	-1.663243	0.950723	0.361654
C37	C	-1.663305	1.060447	0.361692
C38	C	-1.518461	1.232080	0.506303
C39	C	-1.518489	1.115304	0.506357
C40	C	-1.518356	0.506143	0.233292
C41	C	-1.518529	0.505893	0.116516
C42	C	-1.585703	0.438767	0.951949
C43	C	-1.585728	0.438729	1.061673
C44	C	-1.451292	0.573091	1.061629
C45	C	-1.451263	0.573123	0.951907
C46	C	-1.663322	0.361198	0.951975
C47	C	-1.663347	0.361160	1.061699
H48	H	-1.118504	0.384356	0.628369
Br49	Br	-1.792134	1.117041	0.410414
Br50	Br	-1.360079	0.664230	1.136058
Br51	Br	-1.627044	0.225589	0.902359
H52	H	-1.641567	1.090309	0.280312
H53	H	-1.634118	0.916775	0.284324
Br54	Br	-1.614654	0.232376	1.118449
Br55	Br	-1.359999	0.664298	0.877430
H56	H	-1.740593	0.390370	0.917945
H57	H	-1.744586	0.920869	0.383509
H58	H	-0.919442	0.384370	0.628376
Br59	Br	-0.907223	0.779600	0.409600
H60	H	-0.934137	0.628820	0.279904
H61	H	-1.744717	0.382956	1.091483
Br62	Br	-1.123308	0.786354	0.397304
Br63	Br	-1.130357	0.601948	0.232480
H64	H	-1.396426	0.906047	0.628098
Br65	Br	-1.360053	1.134888	0.664616
