data_functionalizedCrystal
_audit_creation_method	'MofGen! by Chris Wilmer'
_symmetry_space_group_name_H-M	'P1'
_symmetry_Int_Tables_number	1
_symmetry_cell_setting	triclinic
loop_
_symmetry_equiv_pos_as_xyz
  x,y,z
_cell_length_a	8.559649
_cell_length_b	7.540329
_cell_length_c	9.065218
_cell_angle_alpha	89.998243
_cell_angle_beta	77.397275
_cell_angle_gamma	89.997379
loop_
_atom_site_label
_atom_site_type_symbol
_atom_site_fract_x
_atom_site_fract_y
_atom_site_fract_z
O1	O	2.119402	-0.147454	-0.049968
O2	O	2.619402	0.352546	0.450032
O3	O	1.655298	-0.147462	0.026097
O4	O	2.155298	0.352538	0.526097
O5	O	1.896943	-0.147454	-0.227784
O6	O	2.396943	0.352546	0.272216
O7	O	1.877757	-0.147462	0.203912
O8	O	2.377757	0.352538	0.703912
O9	O	1.896928	0.147511	-0.227785
O10	O	2.396928	0.647511	0.272215
O11	O	1.655284	0.147503	0.026096
O12	O	2.155284	0.647503	0.526096
O13	O	2.119387	0.147511	-0.049969
O14	O	2.619387	0.647511	0.450031
Cu15	Cu	1.887334	0.174440	-0.011937
Cu16	Cu	2.387334	0.674440	0.488063
Cu17	Cu	1.887351	-0.174391	-0.011936
Cu18	Cu	2.387351	0.325609	0.488064
O19	O	1.877742	0.147503	0.203911
O20	O	2.377742	0.647503	0.703911
C21	C	1.595845	0.000020	0.031861
C22	C	2.095845	0.500020	0.531861
C23	C	1.418713	0.000017	0.049020
C24	C	1.918713	0.500017	0.549020
N25	N	1.887334	0.419788	-0.011940
N26	N	2.387334	0.919788	0.488060
N27	N	1.887364	-0.419739	-0.011946
N28	N	2.387364	0.080261	0.488054
C29	C	2.178841	0.000025	-0.055733
C30	C	2.678841	0.500025	0.444267
C31	C	2.355972	0.000017	-0.072892
C32	C	2.855972	0.500017	0.427108
C33	C	1.895092	0.000025	-0.282539
C34	C	2.395092	0.500025	0.217461
C35	C	1.889578	0.000017	-0.445689
C36	C	2.389578	0.500017	0.054311
C37	C	1.879594	0.000020	0.258667
C38	C	2.379594	0.500020	0.758667
C39	C	1.885107	0.000017	0.421817
C40	C	2.385107	0.500017	0.921817
H41	H	1.437769	0.000010	-0.190393
H42	H	1.937769	0.500010	0.309607
H43	H	1.336908	0.000005	0.166528
H44	H	1.836908	0.500005	0.666528
