data_functionalizedCrystal
_audit_creation_method	'MofGen! by Chris Wilmer'
_symmetry_space_group_name_H-M	'P1'
_symmetry_Int_Tables_number	1
_symmetry_cell_setting	triclinic
loop_
_symmetry_equiv_pos_as_xyz
  x,y,z
_cell_length_a	10.908937
_cell_length_b	16.109301
_cell_length_c	14.586319
_cell_angle_alpha	90.005214
_cell_angle_beta	89.994711
_cell_angle_gamma	108.226282
loop_
_atom_site_label
_atom_site_type_symbol
_atom_site_fract_x
_atom_site_fract_y
_atom_site_fract_z
O1	O	1.703891	0.128408	-0.076263
O2	O	2.203891	0.628408	0.423737
O3	O	1.330003	0.063482	-0.076261
O4	O	1.830003	0.563482	0.423739
O5	O	1.527218	0.218394	-0.076252
O6	O	2.027218	0.718394	0.423748
O7	O	1.506676	-0.026504	-0.076271
O8	O	2.006676	0.473496	0.423729
O9	O	1.527205	0.218394	0.076229
O10	O	2.027205	0.718394	0.576229
O11	O	1.329990	0.063482	0.076220
O12	O	1.829990	0.563482	0.576220
O13	O	1.703878	0.128408	0.076218
O14	O	2.203878	0.628408	0.576218
Cu15	Cu	1.516932	0.095945	0.090142
Cu16	Cu	2.016932	0.595945	0.590142
Cu17	Cu	1.516949	0.095945	-0.090184
Cu18	Cu	2.016949	0.595945	0.409816
O19	O	1.506663	-0.026504	0.076210
O20	O	2.006663	0.473496	0.576210
C21	C	1.282153	0.057415	-0.000020
C22	C	1.782153	0.557415	0.499980
C23	C	1.139594	0.039345	-0.000019
C24	C	1.639594	0.539345	0.499981
C25	C	0.943272	0.086611	-0.000032
C26	C	1.443272	0.586611	0.499968
C27	C	1.090614	0.105288	-0.000019
C28	C	1.590614	0.605288	0.499981
C29	C	1.526380	0.249254	-0.000011
C30	C	2.026380	0.749254	0.499989
C31	C	1.523885	0.341205	-0.000010
C32	C	2.023885	0.841205	0.499990
C33	C	1.751728	0.134476	-0.000025
C34	C	2.251728	0.634476	0.499975
C35	C	1.894287	0.152545	-0.000032
C36	C	2.394287	0.652545	0.499968
C37	C	1.507502	-0.057364	-0.000033
C38	C	2.007502	0.442636	0.499967
C39	C	1.509996	-0.149315	-0.000040
C40	C	2.009996	0.350685	0.499960
N41	N	1.516930	0.095947	0.216974
N42	N	2.016930	0.595947	0.716974
C43	C	1.635108	0.578835	-0.000025
C44	C	2.135108	1.078835	0.499975
C45	C	1.632754	0.665231	-0.000033
C46	C	2.132754	1.165231	0.499967
C47	C	1.398765	0.613047	-0.000028
C48	C	1.898765	1.113047	0.499972
C49	C	1.401120	0.526653	-0.000027
C50	C	1.901120	1.026653	0.499973
C51	C	1.519295	0.509551	-0.000021
C52	C	2.019295	1.009551	0.499979
C53	C	1.514586	0.682340	-0.000029
C54	C	2.014586	1.182340	0.499971
C55	C	1.512033	0.776013	-0.000038
C56	C	2.012033	1.276013	0.499962
C57	C	1.521849	0.415871	-0.000014
C58	C	2.021849	0.915871	0.499986
N59	N	1.516961	0.095951	-0.217016
N60	N	2.016961	0.595951	0.282984
C61	C	1.604286	0.164527	0.451984
C62	C	2.104286	0.664527	0.951984
C63	C	1.604290	0.164530	0.547965
C64	C	2.104290	0.664530	1.047965
C65	C	1.429596	0.027367	0.547967
C66	C	1.929596	0.527367	1.047967
C67	C	1.429587	0.027369	0.451988
C68	C	1.929587	0.527369	0.951988
C69	C	1.516939	0.095949	0.403998
C70	C	2.016939	0.595949	0.903998
C71	C	1.516952	0.095950	0.595959
C72	C	2.016952	0.595950	1.095959
C73	C	1.516955	0.095952	0.700026
C74	C	2.016955	0.595952	1.200026
C75	C	1.516935	0.095947	0.299925
C76	C	2.016935	0.595947	0.799925
H77	H	1.157755	0.175569	-0.000015
H78	H	1.657755	0.675569	0.499985
H79	H	1.731333	0.564914	-0.000022
H80	H	2.231333	1.064914	0.499978
H81	H	1.072455	-0.030936	-0.000030
H82	H	1.572455	0.469064	0.499970
H83	H	1.727060	0.721641	-0.000038
H84	H	2.227060	1.221641	0.499962
H85	H	0.961431	0.222821	-0.000028
H86	H	1.461431	0.722821	0.499972
H87	H	1.302550	0.626983	-0.000031
H88	H	1.802550	1.126983	0.499969
F89	F	1.697251	0.237518	0.400914
F90	F	2.197251	0.737518	0.900914
H91	H	1.358453	-0.028478	0.412915
H92	H	1.858453	0.471522	0.912915
H93	H	1.306806	0.470237	-0.000026
H94	H	1.806806	0.970237	0.499974
F95	F	1.336637	-0.045619	0.599047
F96	F	1.836637	0.454381	1.099047
F97	F	0.855516	-0.005247	-0.000053
F98	F	1.355516	0.494753	0.499947
F99	F	1.697253	0.237521	0.599032
F100	F	2.197253	0.737521	1.099032
