data_functionalizedCrystal
_audit_creation_method	'MofGen! by Chris Wilmer'
_symmetry_space_group_name_H-M	'P1'
_symmetry_Int_Tables_number	1
_symmetry_cell_setting	triclinic
loop_
_symmetry_equiv_pos_as_xyz
  x,y,z
_cell_length_a	6.817900
_cell_length_b	19.452420
_cell_length_c	19.453030
_cell_angle_alpha	96.329126
_cell_angle_beta	101.707737
_cell_angle_gamma	101.696715
loop_
_atom_site_label
_atom_site_type_symbol
_atom_site_fract_x
_atom_site_fract_y
_atom_site_fract_z
V1	V	-3.997929	-0.097915	-0.219345
V2	V	-3.497929	0.402085	0.280655
O3	O	-3.995083	0.003953	-0.214816
O4	O	-3.495083	0.503953	0.285184
O5	O	-3.940900	-0.193426	-0.218185
O6	O	-3.440900	0.306574	0.281815
O7	O	-3.940943	-0.096739	-0.314854
O8	O	-3.440943	0.403261	0.185146
O9	O	-3.995039	-0.093403	-0.117478
O10	O	-3.495039	0.406597	0.382522
V11	V	-4.483788	-0.085692	-0.207119
V12	V	-3.983788	0.414308	0.292881
O13	O	-4.254064	-0.124729	-0.246162
O14	O	-3.754064	0.375271	0.253838
O15	O	-4.677850	-0.058878	-0.180302
O16	O	-4.177850	0.441122	0.319698
O17	O	-4.317611	0.009819	-0.208280
O18	O	-3.817611	0.509819	0.291720
O19	O	-4.604031	-0.187560	-0.211648
O20	O	-4.104031	0.312440	0.288352
O21	O	-4.604075	-0.090204	-0.308986
O22	O	-4.104075	0.409796	0.191014
O23	O	-4.317568	-0.086868	-0.111611
O24	O	-3.817568	0.413132	0.388389
C25	C	-3.784079	-0.216699	-0.214812
C26	C	-3.284079	0.283301	0.285188
C27	C	-3.818680	-0.294782	-0.214500
C28	C	-3.318680	0.205218	0.285500
C29	C	-3.801479	-0.321196	-0.149986
C30	C	-3.301479	0.178804	0.350014
C31	C	-3.834063	-0.394562	-0.149672
C32	C	-3.334063	0.105438	0.350328
C33	C	-3.883810	-0.441510	-0.213874
C34	C	-3.383810	0.058490	0.286126
C35	C	-3.901023	-0.415090	-0.278397
C36	C	-3.401023	0.084910	0.221603
C37	C	-3.868458	-0.341725	-0.278710
C38	C	-3.368458	0.158275	0.221290
N39	N	-3.846542	-0.562110	-0.259091
N40	N	-3.346542	-0.062110	0.240909
N41	N	-3.877471	-0.631802	-0.258789
N42	N	-3.377471	-0.131802	0.241211
C43	C	-3.981932	-0.662553	-0.212935
C44	C	-3.481932	-0.162553	0.287065
N45	N	-4.054265	-0.620977	-0.167382
N46	N	-3.554265	-0.120977	0.332618
N47	N	-4.023324	-0.551278	-0.167682
N48	N	-3.523324	-0.051278	0.332318
C49	C	-3.919126	-0.521063	-0.213542
C50	C	-3.419126	-0.021063	0.286458
C51	C	-4.000063	-0.768517	-0.148075
C52	C	-3.500063	-0.268517	0.351925
C53	C	-4.032662	-0.841885	-0.147763
C54	C	-3.532662	-0.341885	0.352237
C55	C	-4.099602	-0.862411	-0.276490
C56	C	-3.599602	-0.362411	0.223510
C57	C	-4.067023	-0.789045	-0.276800
C58	C	-3.567023	-0.289045	0.223200
C59	C	-4.017245	-0.742102	-0.212591
C60	C	-3.517245	-0.242102	0.287409
C61	C	-3.784133	-0.093365	-0.338122
C62	C	-3.284133	0.406635	0.161878
C63	C	-3.818767	-0.093035	-0.416203
C64	C	-3.318767	0.406965	0.083797
C65	C	-3.868459	-0.157240	-0.463135
C66	C	-3.368459	0.342760	0.036865
C67	C	-3.901024	-0.156937	-0.536502
C68	C	-3.401024	0.343063	-0.036502
C69	C	-3.883854	-0.092426	-0.562933
C70	C	-3.383854	0.407574	-0.062933
C71	C	-3.834166	-0.028214	-0.515991
C72	C	-3.334166	0.471786	-0.015991
C73	C	-3.801623	-0.028518	-0.442626
C74	C	-3.301623	0.471482	0.057374
N75	N	-3.796748	-0.041847	-0.668248
N76	N	-3.296748	0.458153	-0.168248
N77	N	-3.827661	-0.041562	-0.737943
N78	N	-3.327661	0.458438	-0.237943
C79	C	-3.981909	-0.091505	-0.783977
C80	C	-3.481909	0.408495	-0.283977
N81	N	-4.104056	-0.141754	-0.757686
N82	N	-3.604056	0.358246	-0.257686
N83	N	-4.073132	-0.142041	-0.687985
N84	N	-3.573132	0.357959	-0.187985
C85	C	-3.919140	-0.092089	-0.642484
C86	C	-3.419140	0.407911	-0.142484
C87	C	-4.066916	-0.155387	-0.910463
C88	C	-3.566916	0.344613	-0.410463
C89	C	-4.099493	-0.155082	-0.983831
C90	C	-3.599493	0.344918	-0.483831
C91	C	-4.032614	-0.026356	-0.963318
C92	C	-3.532614	0.473644	-0.463318
C93	C	-4.000059	-0.026663	-0.889951
C94	C	-3.500059	0.473337	-0.389951
C95	C	-4.017203	-0.091180	-0.863529
C96	C	-3.517203	0.408820	-0.363529
C97	C	-4.137774	0.033088	-0.211650
C98	C	-3.637774	0.533088	0.288350
C99	C	-4.082410	0.111171	-0.211967
C100	C	-3.582410	0.611171	0.288033
C101	C	-4.137719	-0.090244	-0.088339
C102	C	-3.637719	0.409756	0.411661
C103	C	-4.082324	-0.090570	-0.010257
C104	C	-3.582324	0.409430	0.489743
H105	H	-4.081017	-0.767540	-0.329335
H106	H	-3.581017	-0.267540	0.170665
H107	H	-3.760961	-0.282979	-0.097702
H108	H	-3.260961	0.217021	0.402298
Br109	Br	-3.810715	-0.430419	-0.062110
Br110	Br	-3.310715	0.069581	0.437890
H111	H	-3.941531	-0.453320	-0.330671
H112	H	-3.441531	0.046680	0.169329
Br113	Br	-3.891806	-0.305876	-0.366272
Br114	Br	-3.391806	0.194124	0.133728
Br115	Br	-3.932516	-0.704805	-0.060936
Br116	Br	-3.432516	-0.204805	0.439064
H117	H	-3.941482	-0.209222	-0.574722
H118	H	-3.441482	0.290778	-0.074722
H119	H	-4.080880	-0.207920	-0.888949
H120	H	-3.580880	0.292080	-0.388949
H121	H	-3.761159	0.023767	-0.404412
H122	H	-3.261159	0.523767	0.095588
H123	H	-3.959585	0.025620	-0.851737
H124	H	-3.459585	0.525620	-0.351737
H125	H	-4.018665	-0.863389	-0.095226
H126	H	-3.518665	-0.363389	0.404774
H127	H	-4.140108	-0.900637	-0.328765
H128	H	-3.640108	-0.400637	0.171235
H129	H	-4.139971	-0.207368	-1.022044
H130	H	-3.639971	0.292632	-0.522044
Br131	Br	-3.891756	-0.244799	-0.427280
Br132	Br	-3.391756	0.255201	0.072720
Br133	Br	-3.810882	0.059338	-0.551859
Br134	Br	-3.310882	0.559338	-0.051859
Br135	Br	-4.009348	0.061196	-0.999180
Br136	Br	-3.509348	0.561196	-0.499180
