data_functionalizedCrystal
_audit_creation_method	'MofGen! by Chris Wilmer'
_symmetry_space_group_name_H-M	'P1'
_symmetry_Int_Tables_number	1
_symmetry_cell_setting	triclinic
loop_
_symmetry_equiv_pos_as_xyz
  x,y,z
_cell_length_a	16.120484
_cell_length_b	16.625547
_cell_length_c	16.625539
_cell_angle_alpha	90.024822
_cell_angle_beta	87.131385
_cell_angle_gamma	92.925712
loop_
_atom_site_label
_atom_site_type_symbol
_atom_site_fract_x
_atom_site_fract_y
_atom_site_fract_z
Zn1	Zn	-0.331907	1.216387	0.472258
Zn2	Zn	-0.081907	1.466387	0.722258
Zn3	Zn	0.168093	1.716387	0.972258
Zn4	Zn	0.418093	1.966387	1.222258
Zn5	Zn	-0.471332	1.209446	0.344255
Zn6	Zn	-0.221332	1.459446	0.594255
Zn7	Zn	0.028668	1.709446	0.844255
Zn8	Zn	0.278668	1.959446	1.094255
Zn9	Zn	-0.331936	1.081547	0.337430
Zn10	Zn	-0.081936	1.331547	0.587430
Zn11	Zn	0.168064	1.581547	0.837430
Zn12	Zn	0.418064	1.831547	1.087430
Zn13	Zn	-0.471281	1.074677	0.479032
Zn14	Zn	-0.221281	1.324677	0.729032
Zn15	Zn	0.028719	1.574677	0.979032
Zn16	Zn	0.278719	1.824677	1.229032
O17	O	-0.401614	1.145514	0.408244
O18	O	-0.151614	1.395514	0.658244
O19	O	0.098386	1.645514	0.908244
O20	O	0.348386	1.895514	1.158244
O21	O	-0.350411	1.328298	0.455300
O22	O	-0.100411	1.578298	0.705300
O23	O	0.149589	1.828298	0.955300
O24	O	0.399589	2.078298	1.205300
O25	O	-0.452874	1.192450	0.230519
O26	O	-0.202874	1.442450	0.480519
O27	O	0.047126	1.692450	0.730519
O28	O	0.297126	1.942450	0.980519
O29	O	-0.215267	1.105214	0.349625
O30	O	0.034733	1.355214	0.599625
O31	O	0.284733	1.605214	0.849625
O32	O	0.534733	1.855214	1.099625
O33	O	-0.452846	1.323198	0.361256
O34	O	-0.202846	1.573198	0.611256
O35	O	0.047154	1.823198	0.861256
O36	O	0.297154	2.073198	1.111256
O37	O	-0.215245	1.204280	0.448682
O38	O	0.034755	1.454280	0.698682
O39	O	0.284755	1.704280	0.948682
O40	O	0.534755	1.954280	1.198682
O41	O	-0.350461	1.098483	0.225505
O42	O	-0.100461	1.348483	0.475505
O43	O	0.149539	1.598483	0.725505
O44	O	0.399539	1.848483	0.975505
O45	O	-0.350412	0.967804	0.356193
O46	O	-0.100412	1.217804	0.606193
O47	O	0.149588	1.467804	0.856193
O48	O	0.399588	1.717804	1.106193
O49	O	-0.452759	1.093505	0.590964
O50	O	-0.202759	1.343505	0.840964
O51	O	0.047241	1.593505	1.090964
O52	O	0.297241	1.843505	1.340964
O53	O	-0.452787	0.962756	0.460227
O54	O	-0.202787	1.212756	0.710227
O55	O	0.047213	1.462756	0.960227
O56	O	0.297213	1.712756	1.210227
O57	O	-0.350362	1.197618	0.585988
O58	O	-0.100362	1.447618	0.835988
O59	O	0.149638	1.697618	1.085988
O60	O	0.399638	1.947618	1.335988
O61	O	-0.587991	1.185788	0.367824
O62	O	-0.337991	1.435788	0.617824
O63	O	-0.087991	1.685788	0.867824
O64	O	0.162009	1.935788	1.117824
O65	O	-0.587953	1.086774	0.466845
O66	O	-0.337953	1.336774	0.716845
O67	O	-0.087953	1.586774	0.966845
O68	O	0.162047	1.836774	1.216845
C69	C	-0.401598	0.936024	0.408205
C70	C	-0.151598	1.186024	0.658205
C71	C	0.098402	1.436024	0.908205
C72	C	0.348402	1.686024	1.158205
C73	C	-0.401611	0.846402	0.408209
C74	C	-0.151611	1.096402	0.658209
C75	C	0.098389	1.346402	0.908209
C76	C	0.348389	1.596402	1.158209
C77	C	-0.618222	1.134804	0.418828
C78	C	-0.368222	1.384804	0.668828
C79	C	-0.118222	1.634804	0.918828
C80	C	0.131778	1.884804	1.168828
C81	C	-0.710888	1.130296	0.423383
C82	C	-0.460888	1.380296	0.673383
C83	C	-0.210888	1.630296	0.923383
C84	C	0.039112	1.880296	1.173383
C85	C	-0.401613	0.773620	0.408219
C86	C	-0.151613	1.023620	0.658219
C87	C	0.098387	1.273620	0.908219
C88	C	0.348387	1.523620	1.158219
C89	C	-0.401617	0.682311	0.408239
C90	C	-0.151617	0.932311	0.658239
C91	C	0.098383	1.182311	0.908239
C92	C	0.348383	1.432311	1.158239
C93	C	-0.401625	0.609534	0.408260
C94	C	-0.151625	0.859534	0.658260
C95	C	0.098375	1.109534	0.908260
C96	C	0.348375	1.359534	1.158260
C97	C	-0.401630	0.518220	0.408279
C98	C	-0.151630	0.768220	0.658279
C99	C	0.098370	1.018220	0.908279
C100	C	0.348370	1.268220	1.158279
C101	C	-0.880550	1.122071	0.431715
C102	C	-0.630550	1.372071	0.681715
C103	C	-0.380550	1.622071	0.931715
C104	C	-0.130550	1.872071	1.181715
C105	C	-0.921838	1.169102	0.384786
C106	C	-0.671838	1.419102	0.634786
C107	C	-0.421838	1.669102	0.884786
C108	C	-0.171838	1.919102	1.134786
C109	C	-1.016243	1.164525	0.389422
C110	C	-0.766243	1.414525	0.639422
C111	C	-0.516243	1.664525	0.889422
C112	C	-0.266243	1.914525	1.139422
C113	C	-0.786136	1.126646	0.427080
C114	C	-0.536136	1.376646	0.677080
C115	C	-0.286136	1.626646	0.927080
C116	C	-0.036136	1.876646	1.177080
C117	C	-0.184160	1.156288	0.397636
C118	C	0.065840	1.406288	0.647636
C119	C	0.315840	1.656288	0.897636
C120	C	0.565840	1.906288	1.147636
C121	C	-0.091494	1.160879	0.393116
C122	C	0.158506	1.410879	0.643116
C123	C	0.408506	1.660879	0.893116
C124	C	0.658506	1.910879	1.143116
C125	C	-0.401552	1.145570	0.618550
C126	C	-0.151552	1.395570	0.868550
C127	C	0.098448	1.645570	1.118550
C128	C	0.348448	1.895570	1.368550
C129	C	-0.401525	1.145593	0.708170
C130	C	-0.151525	1.395593	0.958170
C131	C	0.098475	1.645593	1.208170
C132	C	0.348475	1.895593	1.458170
C133	C	-0.401631	1.355822	0.408283
C134	C	-0.151631	1.605822	0.658283
C135	C	0.098369	1.855822	0.908283
C136	C	0.348369	2.105822	1.158283
C137	C	-0.401638	1.445443	0.408300
C138	C	-0.151638	1.695443	0.658300
C139	C	0.098362	1.945443	0.908300
C140	C	0.348362	2.195443	1.158300
C141	C	-0.401616	1.145508	0.198753
C142	C	-0.151616	1.395508	0.448753
C143	C	0.098384	1.645508	0.698753
C144	C	0.348384	1.895508	0.948753
C145	C	-0.401407	1.145652	0.109122
C146	C	-0.151407	1.395652	0.359122
C147	C	0.098593	1.645652	0.609122
C148	C	0.348593	1.895652	0.859122
C149	C	-0.401432	1.145635	1.036341
C150	C	-0.151432	1.395635	1.286341
C151	C	0.098568	1.645635	1.536341
C152	C	0.348568	1.895635	1.786341
C153	C	-0.401461	1.145621	0.945034
C154	C	-0.151461	1.395621	1.195034
C155	C	0.098539	1.645621	1.445034
C156	C	0.348539	1.895621	1.695034
C157	C	-0.401479	1.145615	0.872258
C158	C	-0.151479	1.395615	1.122258
C159	C	0.098521	1.645615	1.372258
C160	C	0.348521	1.895615	1.622258
C161	C	-0.401507	1.145600	0.780945
C162	C	-0.151507	1.395600	1.030945
C163	C	0.098493	1.645600	1.280945
C164	C	0.348493	1.895600	1.530945
H165	H	-0.886285	1.212804	0.341127
H166	H	-0.636285	1.462804	0.591127
H167	H	-0.386285	1.712804	0.841127
H168	H	-0.136285	1.962804	1.091127
F169	F	-0.927017	1.064951	0.488775
F170	F	-0.677017	1.314951	0.738775
F171	F	-0.427017	1.564951	0.988775
F172	F	-0.177017	1.814951	1.238775
