data_functionalizedCrystal
_audit_creation_method	'MofGen! by Chris Wilmer'
_symmetry_space_group_name_H-M	'P1'
_symmetry_Int_Tables_number	1
_symmetry_cell_setting	triclinic
loop_
_symmetry_equiv_pos_as_xyz
  x,y,z
_cell_length_a	16.109301
_cell_length_b	10.489763
_cell_length_c	15.186229
_cell_angle_alpha	90.008497
_cell_angle_beta	89.999006
_cell_angle_gamma	95.995028
loop_
_atom_site_label
_atom_site_type_symbol
_atom_site_fract_x
_atom_site_fract_y
_atom_site_fract_z
O1	O	1.104150	-0.163947	-0.073190
O2	O	1.604150	0.336053	0.426810
O3	O	0.862215	-0.184349	-0.073203
O4	O	1.362215	0.315651	0.426797
O5	O	0.988678	0.011528	-0.073180
O6	O	1.488678	0.511528	0.426820
O7	O	0.977687	-0.359824	-0.073213
O8	O	1.477687	0.140176	0.426787
O9	O	0.988669	0.011531	0.073278
O10	O	1.488669	0.511531	0.573278
O11	O	0.862206	-0.184346	0.073254
O12	O	1.362206	0.315654	0.573254
O13	O	1.104141	-0.163944	0.073268
O14	O	1.604141	0.336056	0.573268
Zn15	Zn	0.983172	-0.174145	0.096514
Zn16	Zn	1.483172	0.325855	0.596514
Zn17	Zn	0.983183	-0.174148	-0.096450
Zn18	Zn	1.483183	0.325852	0.403550
O19	O	0.977678	-0.359821	0.073244
O20	O	1.477678	0.140179	0.573244
C21	C	0.831230	-0.183521	0.000024
C22	C	1.331230	0.316479	0.500024
C23	C	0.738920	-0.181043	0.000020
C24	C	1.238920	0.318957	0.500020
C25	C	0.430593	-0.289173	0.000025
C26	C	0.930593	0.210827	0.500025
C27	C	0.517328	-0.291513	0.000020
C28	C	1.017328	0.208487	0.500020
C29	C	0.535757	-0.059111	0.000029
C30	C	1.035757	0.440889	0.500029
C31	C	0.449024	-0.056772	0.000028
C32	C	0.949024	0.443228	0.500028
C33	C	0.396444	-0.171807	0.000031
C34	C	0.896444	0.328193	0.500031
C35	C	0.569912	-0.176486	0.000026
C36	C	1.069912	0.323514	0.500026
C37	C	0.663954	-0.179022	0.000020
C38	C	1.163954	0.320978	0.500020
C39	C	0.302396	-0.169271	0.000035
C40	C	0.802396	0.330729	0.500035
C41	C	0.987839	0.059048	0.000051
C42	C	1.487839	0.559048	0.500051
C43	C	0.985344	0.200640	0.000058
C44	C	1.485344	0.700640	0.500058
C45	C	0.904869	0.267612	0.000052
C46	C	1.404869	0.767612	0.500052
C47	C	0.942874	0.360287	0.072270
C48	C	1.442874	0.860287	0.572270
C49	C	0.942901	0.360259	-0.072125
C50	C	1.442901	0.860259	0.427875
C51	C	1.023382	0.291450	0.072336
C52	C	1.523382	0.791450	0.572336
C53	C	1.023398	0.291412	-0.072124
C54	C	1.523398	0.791412	0.427876
C55	C	1.061461	0.384060	0.000112
C56	C	1.561461	0.884060	0.500112
C57	C	1.135125	-0.164772	0.000039
C58	C	1.635125	0.335228	0.500039
C59	C	1.227436	-0.167250	0.000037
C60	C	1.727436	0.332750	0.500037
C61	C	0.978503	0.592656	0.000026
C62	C	1.478503	1.092656	0.500026
C63	C	0.980959	0.451056	0.000059
C64	C	1.480959	0.951056	0.500059
N65	N	0.983171	-0.174141	0.228207
N66	N	1.483171	0.325859	0.728207
N67	N	0.983192	-0.174141	-0.228142
N68	N	1.483192	0.325859	0.271858
C69	C	1.039188	-0.087436	0.453940
C70	C	1.539188	0.412564	0.953940
C71	C	1.039190	-0.087433	0.546130
C72	C	1.539190	0.412567	1.046130
C73	C	0.927168	-0.260851	0.546118
C74	C	1.427168	0.239149	1.046118
C75	C	0.927162	-0.260847	0.453930
C76	C	1.427162	0.239153	0.953930
C77	C	0.983177	-0.174141	0.407843
C78	C	1.483177	0.325859	0.907843
C79	C	0.983185	-0.174142	0.592221
C80	C	1.483185	0.325858	1.092221
C81	C	0.983188	-0.174139	0.692177
C82	C	1.483188	0.325861	1.192177
C83	C	0.983174	-0.174141	0.307881
C84	C	1.483174	0.325859	0.807881
H85	H	0.838709	0.217002	0.000118
H86	H	1.338709	0.717002	0.500118
Cl87	Cl	1.109603	0.021570	0.396006
Cl88	Cl	1.609603	0.521570	0.896006
H89	H	1.057424	0.260860	-0.133176
H90	H	1.557424	0.760860	0.366824
H91	H	0.881564	-0.331446	0.583651
H92	H	1.381564	0.168554	1.083651
Cl93	Cl	1.075905	0.244620	0.166696
Cl94	Cl	1.575905	0.744620	0.666696
H95	H	0.881548	-0.331452	0.416396
H96	H	1.381548	0.168548	0.916396
Cl97	Cl	0.560255	-0.439065	0.000009
Cl98	Cl	1.060255	0.060935	0.500009
H99	H	0.387785	-0.382841	0.000027
H100	H	0.887785	0.117159	0.500027
H101	H	0.908819	0.390805	0.133320
H102	H	1.408819	0.890805	0.633320
Cl103	Cl	0.406089	0.090785	0.000023
Cl104	Cl	0.906089	0.590785	0.500023
H105	H	1.084799	-0.016829	0.583659
H106	H	1.584799	0.483171	1.083659
Cl107	Cl	1.163698	0.461856	0.000180
Cl108	Cl	1.663698	0.961856	0.500180
Cl109	Cl	0.601862	0.085495	0.000035
Cl110	Cl	1.101862	0.585495	0.500035
H111	H	0.908844	0.390727	-0.133179
H112	H	1.408844	0.890727	0.366821
