data_functionalizedCrystal
_audit_creation_method	'MofGen! by Chris Wilmer'
_symmetry_space_group_name_H-M	'P1'
_symmetry_Int_Tables_number	1
_symmetry_cell_setting	triclinic
loop_
_symmetry_equiv_pos_as_xyz
  x,y,z
_cell_length_a	11.169417
_cell_length_b	17.640280
_cell_length_c	17.639407
_cell_angle_alpha	87.835466
_cell_angle_beta	78.792364
_cell_angle_gamma	78.801822
loop_
_atom_site_label
_atom_site_type_symbol
_atom_site_fract_x
_atom_site_fract_y
_atom_site_fract_z
Zn1	Zn	1.841156	-0.389186	0.368244
Zn2	Zn	1.919067	-0.490472	0.215624
Zn3	Zn	1.671609	-0.363515	0.241280
Zn4	Zn	1.687301	-0.516125	0.342578
O5	O	1.779783	-0.439825	0.291931
O6	O	2.019441	-0.402630	0.348003
O7	O	1.912280	-0.452151	0.112761
O8	O	1.654927	-0.260664	0.279601
O9	O	2.076682	-0.477044	0.235873
O10	O	1.779492	-0.279525	0.372881
O11	O	1.730474	-0.358876	0.131611
O12	O	1.505740	-0.383751	0.254713
O13	O	1.681671	-0.520766	0.452248
O14	O	1.517268	-0.495874	0.329136
O15	O	1.794707	-0.427505	0.471105
O16	O	1.927495	-0.600131	0.210985
O17	O	1.757218	-0.618979	0.304258
C18	C	1.467957	-0.439811	0.291924
C19	C	1.334558	-0.439827	0.291935
C20	C	1.852542	-0.637110	0.252069
C21	C	1.883772	-0.721514	0.235041
C22	C	1.542955	-1.048254	0.421567
C23	C	1.572309	-1.127560	0.405542
C24	C	1.749690	-1.107889	0.308515
C25	C	1.720355	-1.028580	0.324534
C26	C	1.616985	-0.998769	0.381060
C27	C	1.794385	-0.979095	0.284028
C28	C	1.765047	-0.899793	0.300043
C29	C	1.661680	-0.869976	0.356565
C30	C	1.587648	-0.919467	0.397075
C31	C	1.897749	-1.008907	0.227499
C32	C	1.971779	-0.959422	0.186992
C33	C	1.942447	-0.880119	0.203011
C34	C	1.839080	-0.850301	0.259533
C35	C	2.016479	-0.830627	0.162500
C36	C	1.987142	-0.751325	0.178515
C37	C	1.809743	-0.770999	0.275548
C38	C	2.092827	-0.439839	0.291939
C39	C	2.226228	-0.439845	0.291943
C40	C	1.731248	-0.479861	0.490001
C41	C	1.710566	-0.496922	0.574406
C42	C	1.706768	-0.241773	0.331966
C43	C	1.675654	-0.157375	0.349026
C44	C	1.936807	-0.310271	0.901090
C45	C	1.917366	-0.326320	0.980398
C46	C	1.799671	-0.423425	0.960753
C47	C	1.819108	-0.407387	0.881441
C48	C	1.887676	-0.350809	0.851616
C49	C	1.769976	-0.447925	0.831968
C50	C	1.789406	-0.431885	0.752663
C51	C	1.857968	-0.375308	0.722832
C52	C	1.907106	-0.334769	0.772312
C53	C	1.701401	-0.504499	0.861795
C54	C	1.652269	-0.545036	0.812321
C55	C	1.671706	-0.529001	0.733015
C56	C	1.740268	-0.472424	0.703184
C57	C	1.622568	-0.569539	0.683535
C58	C	1.641998	-0.553500	0.604231
C59	C	1.759698	-0.456384	0.623879
C60	C	1.828126	-0.399957	1.094630
C61	C	1.848808	-0.382884	1.010227
H62	H	1.725576	-0.746728	0.321582
F63	F	2.126483	-0.862364	0.102339
H64	H	1.596438	-0.591101	0.836617
F65	F	2.065925	-0.698655	0.135398
F66	F	1.432945	-1.016525	0.481735
F67	F	1.859701	-1.139625	0.248360
H68	H	1.512029	-1.167852	0.438541
F69	F	1.832691	-0.396174	0.592132
F70	F	1.969622	-0.283148	1.033054
F71	F	1.928998	-1.093313	0.210476
F72	F	1.630639	-0.785602	0.373746
F73	F	2.081790	-0.991158	0.126836
H74	H	1.992649	-0.264203	0.876804
H75	H	1.873787	-0.362250	0.658257
F76	F	1.980099	-0.274560	0.740564
H77	H	1.743840	-0.469489	0.985048
H78	H	1.685569	-0.517549	0.926372
H79	H	1.566730	-0.615600	0.707832
H80	H	1.601967	-0.586498	0.563950
H81	H	1.503481	-0.895196	0.443110
