data_functionalizedCrystal
_audit_creation_method	'MofGen! by Chris Wilmer'
_symmetry_space_group_name_H-M	'P1'
_symmetry_Int_Tables_number	1
_symmetry_cell_setting	triclinic
loop_
_symmetry_equiv_pos_as_xyz
  x,y,z
_cell_length_a	21.295420
_cell_length_b	12.759394
_cell_length_c	12.759380
_cell_angle_alpha	90.064679
_cell_angle_beta	89.956293
_cell_angle_gamma	89.986912
loop_
_atom_site_label
_atom_site_type_symbol
_atom_site_fract_x
_atom_site_fract_y
_atom_site_fract_z
Zn1	Zn	0.962542	0.417918	-0.594071
Zn2	Zn	1.462542	0.917918	-0.094071
Zn3	Zn	0.962438	0.593736	-0.418388
Zn4	Zn	1.462438	1.093736	0.081612
Zn5	Zn	0.857230	0.418066	-0.418400
Zn6	Zn	1.357230	0.918066	0.081600
Zn7	Zn	0.857263	0.593550	-0.594020
Zn8	Zn	1.357263	1.093550	-0.094020
O9	O	0.909869	0.505817	-0.506220
O10	O	1.409869	1.005817	-0.006220
O11	O	1.050618	0.441256	-0.570783
O12	O	1.550618	0.941256	-0.070783
O13	O	0.948425	0.570573	-0.271368
O14	O	1.448425	1.070573	0.228632
O15	O	0.871230	0.271025	-0.441729
O16	O	1.371230	0.771025	0.058271
O17	O	1.050541	0.570429	-0.441710
O18	O	1.550541	1.070429	0.058290
O19	O	0.948602	0.270916	-0.570794
O20	O	1.448602	0.770916	-0.070794
O21	O	0.871129	0.441509	-0.271377
O22	O	1.371129	0.941509	0.228623
O23	O	0.769145	0.441329	-0.441679
O24	O	1.269145	0.941329	0.058321
O25	O	0.871286	0.570112	-0.741048
O26	O	1.371286	1.070112	-0.241048
O27	O	0.769170	0.570256	-0.570707
O28	O	1.269170	1.070256	-0.070707
O29	O	0.948634	0.441076	-0.741085
O30	O	1.448634	0.941076	-0.241085
O31	O	0.948457	0.740732	-0.441660
O32	O	1.448457	1.240732	0.058340
O33	O	0.871186	0.740596	-0.570696
O34	O	1.371186	1.240596	-0.070696
C35	C	0.746317	0.505789	-0.506189
C36	C	1.246317	1.005789	-0.006189
C37	C	0.676349	0.505802	-0.506201
C38	C	1.176349	1.005802	-0.006201
C39	C	0.176920	0.573074	-0.573339
C40	C	0.676920	1.073074	-0.073339
C41	C	0.242663	0.573074	-0.573328
C42	C	0.742663	1.073074	-0.073328
C43	C	0.275509	0.505841	-0.506253
C44	C	0.775509	1.005841	-0.006253
C45	C	0.242608	0.438622	-0.439164
C46	C	0.742608	0.938622	0.060836
C47	C	0.176867	0.438631	-0.439170
C48	C	0.676867	0.938631	0.060830
N49	N	0.378734	0.413857	-0.498343
N50	N	0.878734	0.913857	0.001657
N51	N	0.441185	0.413852	-0.498344
N52	N	0.941185	0.913852	0.001656
C53	C	0.473584	0.505812	-0.506230
C54	C	0.973584	1.005812	-0.006230
N55	N	0.441173	0.597780	-0.514136
N56	N	0.941173	1.097780	-0.014136
N57	N	0.378715	0.597784	-0.514141
N58	N	0.878715	1.097784	-0.014141
C59	C	0.346795	0.505824	-0.506239
C60	C	0.846795	1.005824	-0.006239
C61	C	0.577763	0.573032	-0.573297
C62	C	1.077763	1.073032	-0.073297
C63	C	0.643507	0.573034	-0.573279
C64	C	1.143507	1.073034	-0.073279
C65	C	0.643451	0.438573	-0.439121
C66	C	1.143451	0.938573	0.060879
C67	C	0.577709	0.438580	-0.439133
C68	C	1.077709	0.938580	0.060867
C69	C	0.544868	0.505808	-0.506227
C70	C	1.044868	1.005808	-0.006227
C71	C	0.909831	0.778785	-0.506194
C72	C	1.409831	1.278785	-0.006194
C73	C	0.909872	0.895562	-0.506218
C74	C	1.409872	1.395562	-0.006218
C75	C	0.909975	0.505557	-0.780254
C76	C	1.409975	1.005557	-0.280254
C77	C	0.910021	0.505445	-0.897031
C78	C	1.410021	1.005445	-0.397031
C79	C	1.074059	0.505847	-0.506251
C80	C	1.574059	1.005847	-0.006251
C81	C	1.144027	0.505859	-0.506264
C82	C	1.644027	1.005859	-0.006264
C83	C	0.909924	0.231784	-0.506268
C84	C	1.409924	0.731784	-0.006268
C85	C	0.909947	0.115007	-0.506289
C86	C	1.409947	0.615007	-0.006289
C87	C	0.990395	0.895651	-0.371954
C88	C	1.490395	1.395651	0.128046
C89	C	1.030673	0.950556	-0.304835
C90	C	1.530673	1.450556	0.195165
C91	C	1.030710	1.060277	-0.304863
C92	C	1.530710	1.560277	0.195137
C93	C	0.990466	1.115096	-0.372021
C94	C	1.490466	1.615096	0.127979
C95	C	0.950188	1.060191	-0.439141
C96	C	1.450188	1.560191	0.060859
C97	C	0.950154	0.950467	-0.439102
C98	C	1.450154	1.450467	0.060898
C99	C	0.869669	1.060102	-0.573408
C100	C	1.369669	1.560102	-0.073408
C101	C	0.869628	0.950380	-0.573376
C102	C	1.369628	1.450380	-0.073376
C103	C	0.829425	1.114921	-0.640566
C104	C	1.329425	1.614921	-0.140566
C105	C	0.789143	1.060016	-0.707682
C106	C	1.289143	1.560016	-0.207682
C107	C	0.789107	0.950287	-0.707650
C108	C	1.289107	1.450287	-0.207650
C109	C	0.829350	0.895475	-0.640496
C110	C	1.329350	1.395475	-0.140496
C111	C	0.909798	0.506002	-0.233252
C112	C	1.409798	1.006002	0.266748
C113	C	0.909875	0.505817	-0.116475
C114	C	1.409875	1.005817	0.383525
C115	C	0.829925	0.641163	-0.115842
C116	C	1.329925	1.141163	0.384158
C117	C	0.789988	0.708749	-0.060665
C118	C	1.289988	1.208749	0.439335
C119	C	0.790062	0.708570	0.049056
C120	C	1.290062	1.208570	0.549056
C121	C	0.830075	0.640795	0.103603
C122	C	1.330075	1.140795	0.603603
C123	C	0.870011	0.573210	0.048426
C124	C	1.370011	1.073210	0.548426
C125	C	0.869934	0.573399	-0.061298
C126	C	1.369934	1.073399	0.438702
C127	C	0.949957	0.437860	0.047792
C128	C	1.449957	0.937860	0.547792
C129	C	0.949888	0.438043	-0.061929
C130	C	1.449888	0.938043	0.438071
C131	C	0.989970	0.370086	0.102339
C132	C	1.489970	0.870086	0.602339
C133	C	1.029910	0.302504	0.047161
C134	C	1.529910	0.802504	0.547161
C135	C	1.029836	0.302687	-0.062566
C136	C	1.529836	0.802687	0.437434
C137	C	0.989824	0.370457	-0.117106
C138	C	1.489824	0.870457	0.382894
H139	H	0.269356	0.383883	-0.384549
H140	H	0.769356	0.883883	0.115451
H141	H	0.670287	0.627776	-0.627897
H142	H	1.170287	1.127776	-0.127897
H143	H	0.756310	0.905589	-0.762311
H144	H	1.256310	1.405589	-0.262311
H145	H	1.062483	0.247323	0.091582
H146	H	1.562483	0.747323	0.591582
H147	H	0.990024	0.369939	0.191680
H148	H	1.490024	0.869939	0.691680
H149	H	1.063441	0.905913	-0.250157
H150	H	1.563441	1.405913	0.249843
H151	H	0.756382	1.104658	-0.762362
H152	H	1.256382	1.604658	-0.262362
H153	H	0.990505	1.204437	-0.372047
H154	H	1.490505	1.704437	0.127953
H155	H	0.757534	0.763590	0.093982
H156	H	1.257534	1.263590	0.593982
H157	H	0.829321	0.806134	-0.640456
H158	H	1.329321	1.306134	-0.140456
H159	H	1.062353	0.247644	-0.107485
H160	H	1.562353	0.747644	0.392515
C161	C	0.745971	0.783288	-0.120674
C162	C	1.245971	1.283288	0.379326
N163	N	0.712814	0.839427	-0.165870
N164	N	1.212814	1.339427	0.334130
H165	H	1.063511	1.104981	-0.250214
H166	H	1.563511	1.604981	0.249786
H167	H	0.989761	0.370616	-0.206447
H168	H	1.489761	0.870616	0.293553
H169	H	0.550927	0.383844	-0.384517
H170	H	1.050927	0.883844	0.115483
C171	C	0.829844	0.641373	-0.236538
C172	C	1.329844	1.141373	0.263462
N173	N	0.829782	0.641532	-0.327448
N174	N	1.329782	1.141532	0.172552
H175	H	0.150086	0.383894	-0.384548
H176	H	0.650086	0.883894	0.115452
H177	H	0.830125	0.640646	0.192944
H178	H	1.330125	1.140646	0.692944
C179	C	0.278852	0.647011	-0.647126
C180	C	0.778852	1.147011	-0.147126
N181	N	0.306109	0.702697	-0.702714
N182	N	0.806109	1.202697	-0.202714
C183	C	0.140800	0.647049	-0.647122
C184	C	0.640800	1.147049	-0.147122
N185	N	0.113593	0.702776	-0.702688
N186	N	0.613593	1.202776	-0.202688
H187	H	0.670194	0.383835	-0.384503
H188	H	1.170194	0.883835	0.115497
C189	C	0.541636	0.646991	-0.647094
C190	C	1.041636	1.146991	-0.147094
N191	N	0.514428	0.702698	-0.702677
N192	N	1.014428	1.202698	-0.202677
H193	H	0.990361	0.806309	-0.371911
H194	H	1.490361	1.306309	0.128089
H195	H	0.829461	1.204262	-0.640589
H196	H	1.329461	1.704262	-0.140589
