data_functionalizedCrystal
_audit_creation_method	'MofGen! by Chris Wilmer'
_symmetry_space_group_name_H-M	'P1'
_symmetry_Int_Tables_number	1
_symmetry_cell_setting	triclinic
loop_
_symmetry_equiv_pos_as_xyz
  x,y,z
_cell_length_a	11.792254
_cell_length_b	17.699092
_cell_length_c	16.776229
_cell_angle_alpha	90.004970
_cell_angle_beta	89.992926
_cell_angle_gamma	96.257517
loop_
_atom_site_label
_atom_site_type_symbol
_atom_site_fract_x
_atom_site_fract_y
_atom_site_fract_z
O1	O	-1.505665	0.103783	0.066284
O2	O	-1.175198	0.114464	0.066286
O3	O	-1.349763	-0.001015	0.066283
O4	O	-1.331100	0.219262	0.066287
O5	O	-1.349740	-0.001022	-0.066293
O6	O	-1.175175	0.114457	-0.066291
O7	O	-1.505642	0.103776	-0.066292
Zn8	Zn	-1.340405	0.109115	-0.087341
Zn9	Zn	-1.340435	0.109125	0.087334
O10	O	-1.331077	0.219255	-0.066290
C11	C	-1.132904	0.113788	-0.000002
C12	C	-1.006915	0.111774	-0.000002
C13	C	-1.349081	-0.029219	-0.000004
C14	C	-1.347070	-0.113248	-0.000000
C15	C	-1.547936	0.104452	-0.000002
C16	C	-1.673925	0.106466	0.000002
C17	C	-0.904598	0.110138	0.000002
C18	C	-0.776236	0.108091	0.000002
C19	C	-1.346141	-0.152716	0.072268
C20	C	-1.344244	-0.231669	0.072269
C21	C	-1.343285	-0.271153	0.000001
C22	C	-1.344211	-0.231679	-0.072273
C23	C	-1.346100	-0.152726	-0.072273
C24	C	-1.336593	-0.550085	-0.072274
C25	C	-1.334707	-0.629043	-0.072268
C26	C	-1.334737	-0.629028	0.072268
C27	C	-1.336626	-0.550075	0.072268
C28	C	-1.337546	-0.510607	-0.000005
C29	C	-1.339600	-0.424997	-0.000006
C30	C	-1.341238	-0.356763	0.000000
C31	C	-1.331759	0.247459	-0.000001
C32	C	-1.333770	0.331488	0.000001
N33	N	-1.340392	0.109108	-0.206552
C34	C	-1.417713	0.057995	-0.248270
C35	C	-1.417719	0.057995	-0.331723
C36	C	-1.340409	0.109111	-0.373455
C37	C	-1.263080	0.160227	-0.331731
C38	C	-1.263069	0.160223	-0.248280
C39	C	-1.263121	0.160242	-0.668278
C40	C	-1.263140	0.160243	-0.751735
C41	C	-1.417771	0.058013	-0.751720
C42	C	-1.417760	0.058010	-0.668270
C43	C	-1.340428	0.109122	-0.626553
C44	C	-1.340421	0.109121	-0.536065
C45	C	-1.340421	0.109117	-0.463942
N46	N	-1.340457	0.109126	0.206546
H47	H	-1.346928	-0.120575	0.131118
Br48	Br	-1.522652	-0.011376	-0.388343
Br49	Br	-1.158148	0.229596	-0.388365
H50	H	-1.480672	0.016374	-0.214297
Br51	Br	-1.522690	-0.011360	-0.611635
H52	H	-1.333923	-0.661188	-0.131122
H53	H	-1.346841	-0.120591	-0.131122
Br54	Br	-1.158122	0.229589	-0.191662
H55	H	-1.480736	0.016392	-0.785695
H56	H	-1.333982	-0.661171	0.131117
H57	H	-1.343423	-0.263832	-0.131115
H58	H	-1.337365	-0.517961	-0.131124
H59	H	-1.200157	0.201861	-0.634319
Br60	Br	-1.342981	-0.285231	0.170352
H61	H	-1.200181	0.201870	-0.785712
H62	H	-1.337412	-0.517932	0.131116
