data_functionalizedCrystal
_audit_creation_method	'MofGen! by Chris Wilmer'
_symmetry_space_group_name_H-M	'P1'
_symmetry_Int_Tables_number	1
_symmetry_cell_setting	triclinic
loop_
_symmetry_equiv_pos_as_xyz
  x,y,z
_cell_length_a	10.685980
_cell_length_b	25.639239
_cell_length_c	10.686551
_cell_angle_alpha	85.590528
_cell_angle_beta	81.591741
_cell_angle_gamma	94.404956
loop_
_atom_site_label
_atom_site_type_symbol
_atom_site_fract_x
_atom_site_fract_y
_atom_site_fract_z
Zn1	Zn	1.995668	-0.117194	-0.866668
Zn2	Zn	1.979148	-0.211916	-0.654375
Zn3	Zn	1.767080	-0.131747	-0.638128
Zn4	Zn	1.783272	-0.211866	-0.850285
O5	O	1.881292	-0.168181	-0.752364
O6	O	2.171116	-0.123690	-0.852162
O7	O	1.937327	-0.207393	-0.474586
O8	O	1.797540	-0.056645	-0.668501
O9	O	2.158980	-0.193282	-0.696192
O10	O	1.965483	-0.045954	-0.836408
O11	O	1.781522	-0.148493	-0.462649
O12	O	1.591588	-0.148444	-0.652615
O13	O	1.825137	-0.193196	-1.030093
O14	O	1.603485	-0.207307	-0.808487
O15	O	1.981183	-0.123641	-1.042129
O16	O	1.953028	-0.285081	-0.680307
O17	O	1.809119	-0.285044	-0.824241
C18	C	1.551477	-0.179449	-0.727011
C19	C	1.410382	-0.184282	-0.716195
C20	C	1.881074	-0.304033	-0.752290
C21	C	1.881100	-0.362145	-0.752309
C22	C	1.956448	-0.722495	-0.677572
C23	C	1.956499	-0.777097	-0.677593
O24	O	2.020336	-0.805333	-0.613968
N25	N	1.881522	-0.804409	-0.752465
C26	C	1.806499	-0.777116	-0.827332
O27	O	1.742731	-0.805361	-0.891020
C28	C	1.806456	-0.722514	-0.827317
C29	C	1.881429	-0.695206	-0.752430
C30	C	2.031415	-0.695187	-0.602692
C31	C	2.031363	-0.640589	-0.602670
C32	C	1.956343	-0.613299	-0.677527
C33	C	1.881376	-0.640608	-0.752408
C34	C	1.731442	-0.695221	-0.902190
C35	C	1.731406	-0.640616	-0.902169
C36	C	1.806378	-0.613308	-0.827282
C37	C	1.806304	-0.558720	-0.827243
N38	N	1.881281	-0.531408	-0.752371
C39	C	1.956300	-0.558698	-0.677513
C40	C	1.806596	-0.891783	-0.827359
C41	C	1.806631	-0.946383	-0.827367
C42	C	1.956633	-0.946361	-0.677630
C43	C	1.956590	-0.891760	-0.677615
C44	C	1.881573	-0.864471	-0.752486
C45	C	1.956183	-0.444038	-0.677471
C46	C	1.956120	-0.389435	-0.677451
C47	C	1.806124	-0.389462	-0.827193
C48	C	1.806182	-0.444060	-0.827208
C49	C	1.881221	-0.471346	-0.752344
O50	O	1.742503	-0.530450	-0.890839
O51	O	2.020071	-0.530445	-0.613848
C52	C	2.212396	-0.156869	-0.777817
C53	C	2.353493	-0.152048	-0.788663
C54	C	1.906809	-0.156789	-1.083457
C55	C	1.917683	-0.151935	-1.224549
C56	C	1.881548	-0.031796	-0.752469
C57	C	1.881657	0.026323	-0.752514
C58	C	1.855948	-0.179488	-0.422565
C59	C	1.845320	-0.184186	-0.281492
H60	H	1.412728	-0.120752	-0.858979
H61	H	1.670320	-0.618400	-0.963142
H62	H	1.745040	-0.367234	-0.888138
H63	H	2.092415	-0.618357	-0.541694
H64	H	1.745138	-0.466295	-0.888192
H65	H	1.775052	-0.215513	-1.222305
H66	H	1.351139	-0.215577	-0.645866
H67	H	1.987964	-0.120610	-1.283744
H68	H	2.017171	-0.367202	-0.616465
H69	H	1.670385	-0.717447	-0.963164
H70	H	2.017291	-0.466248	-0.616512
H71	H	2.017640	-0.869528	-0.616636
H72	H	2.092512	-0.717400	-0.541734
H73	H	2.017723	-0.968590	-0.616681
H74	H	1.745569	-0.968614	-0.888335
H75	H	1.745498	-0.869567	-0.888323
