data_functionalizedCrystal
_audit_creation_method	'MofGen! by Chris Wilmer'
_symmetry_space_group_name_H-M	'P1'
_symmetry_Int_Tables_number	1
_symmetry_cell_setting	triclinic
loop_
_symmetry_equiv_pos_as_xyz
  x,y,z
_cell_length_a	10.723024
_cell_length_b	15.944499
_cell_length_c	9.198806
_cell_angle_alpha	89.999923
_cell_angle_beta	90.003383
_cell_angle_gamma	83.972739
loop_
_atom_site_label
_atom_site_type_symbol
_atom_site_fract_x
_atom_site_fract_y
_atom_site_fract_z
O1	O	1.655666	0.117811	0.120872
O2	O	1.292368	0.129088	0.120875
O3	O	1.483972	0.001228	0.120876
O4	O	1.464063	0.245670	0.120871
O5	O	1.483958	0.001228	-0.120909
O6	O	1.292354	0.129087	-0.120910
O7	O	1.655652	0.117810	-0.120914
Cu8	Cu	1.474002	0.123449	-0.142988
Cu9	Cu	1.474019	0.123449	0.142950
O10	O	1.464049	0.245670	-0.120914
C11	C	1.245872	0.128267	-0.000016
C12	C	1.107350	0.125812	-0.000015
C13	C	1.483150	-0.030071	-0.000013
C14	C	1.480706	-0.123333	-0.000002
C15	C	1.031444	0.197355	-0.000015
C16	C	0.888273	0.194819	-0.000013
C17	C	1.592023	-0.414232	-0.000011
C18	C	1.534150	-0.353538	-0.119228
C19	C	1.471828	-0.459021	-0.000019
C20	C	1.534132	-0.353544	0.119153
C21	C	1.476197	-0.294087	-0.000008
C22	C	1.413922	-0.399555	-0.119335
C23	C	1.413921	-0.399568	0.119154
C24	C	1.355961	-0.338892	-0.000093
C25	C	1.469315	-0.554035	-0.000026
C26	C	1.478700	-0.199074	-0.000011
C27	C	1.702148	0.118631	-0.000018
C28	C	1.840671	0.121087	-0.000011
C29	C	1.464871	0.276969	-0.000022
C30	C	1.467315	0.370231	-0.000023
N31	N	1.473999	0.123448	-0.344102
C32	C	1.401879	0.074739	-0.416332
C33	C	1.401895	0.074736	-0.583744
N34	N	1.474031	0.123443	0.344064
H35	H	1.072451	0.260483	-0.000024
O36	O	1.711082	-0.453213	0.000049
C37	C	1.909748	-0.473061	0.124477
C38	C	1.774959	-0.428852	0.124580
H39	H	1.961423	-0.453395	0.225164
H40	H	1.960840	-0.454256	0.022783
H41	H	1.906735	-0.544317	0.125448
H42	H	1.777857	-0.357589	0.123660
H43	H	1.723920	-0.447726	0.226264
O44	O	1.353440	-0.423645	-0.239858
C45	C	1.347923	-0.427097	-0.501650
C46	C	1.416516	-0.399748	-0.365284
H47	H	1.398906	-0.407804	-0.603092
H48	H	1.247599	-0.395309	-0.502184
H49	H	1.346525	-0.498489	-0.500619
H50	H	1.418009	-0.328366	-0.366225
H51	H	1.516803	-0.431598	-0.364803
O52	O	1.547512	0.173296	-0.581791
C53	C	1.555019	0.286599	-0.409704
C54	C	1.471656	0.230211	-0.493620
H55	H	1.493726	0.332617	-0.338374
H56	H	1.609304	0.323334	-0.490041
H57	H	1.623763	0.245541	-0.338493
H58	H	1.402841	0.271206	-0.564833
H59	H	1.417459	0.193471	-0.413204
O60	O	0.810346	0.267834	0.000182
C61	C	0.646041	0.353847	0.125495
C62	C	0.734203	0.271114	0.125436
H63	H	0.584475	0.356534	0.226767
H64	H	0.584269	0.356548	0.024380
H65	H	0.704183	0.409741	0.125422
H66	H	0.676160	0.215173	0.125561
H67	H	0.795979	0.268487	0.226542
H68	H	1.535750	0.165152	-0.406204
O69	O	1.594620	-0.329267	0.239539
C70	C	1.601099	-0.326368	0.501322
C71	C	1.532449	-0.353888	0.365119
H72	H	1.550878	-0.346278	0.602888
H73	H	1.601577	-0.254902	0.500830
H74	H	1.701734	-0.357602	0.501073
H75	H	1.431786	-0.322713	0.365279
H76	H	1.532073	-0.425360	0.365664
H77	H	1.584984	-0.333157	-0.220016
H78	H	1.256125	-0.306281	-0.000161
O79	O	0.918591	0.048068	0.000185
C80	C	1.082912	-0.037944	0.125496
C81	C	0.994749	0.044789	0.125437
H82	H	1.144490	-0.040631	0.226766
H83	H	1.144672	-0.040644	0.024379
H84	H	1.024770	-0.093839	0.125426
H85	H	1.052792	0.100729	0.125558
H86	H	0.932986	0.047415	0.226545
O87	O	1.058501	0.050475	-0.000268
C88	C	1.043925	-0.080885	-0.125475
C89	C	1.099300	0.004414	-0.125388
H90	H	1.076911	-0.118157	-0.226608
H91	H	0.937167	-0.069562	-0.125567
H92	H	1.076773	-0.118112	-0.024239
H93	H	1.066548	0.041684	-0.226606
H94	H	1.206052	-0.006969	-0.125219
O95	O	1.353144	-0.423941	0.239241
C96	C	1.179122	-0.491538	0.332773
C97	C	1.247800	-0.463960	0.196639
H98	H	1.093953	-0.523915	0.298378
H99	H	1.147262	-0.433842	0.401756
H100	H	1.245375	-0.537327	0.398977
H101	H	1.181620	-0.418190	0.130322
H102	H	1.279680	-0.521696	0.127764
O103	O	1.328082	0.024966	-0.342485
C104	C	1.177563	-0.076759	-0.358240
C105	C	1.261058	-0.020416	-0.442047
H106	H	1.123372	-0.113478	-0.438699
H107	H	1.108751	-0.035753	-0.287036
H108	H	1.238832	-0.122803	-0.286923
H109	H	1.199888	0.025637	-0.513442
H110	H	1.329877	-0.061474	-0.513159
H111	H	1.340154	0.033033	-0.645860
