data_functionalizedCrystal
_audit_creation_method	'MofGen! by Chris Wilmer'
_symmetry_space_group_name_H-M	'P1'
_symmetry_Int_Tables_number	1
_symmetry_cell_setting	triclinic
loop_
_symmetry_equiv_pos_as_xyz
  x,y,z
_cell_length_a	14.519731
_cell_length_b	13.339070
_cell_length_c	11.804365
_cell_angle_alpha	74.887832
_cell_angle_beta	101.871444
_cell_angle_gamma	99.659074
loop_
_atom_site_label
_atom_site_type_symbol
_atom_site_fract_x
_atom_site_fract_y
_atom_site_fract_z
O1	O	-1.271041	-0.112376	-0.099026
O2	O	-1.006536	-0.127977	-0.099027
O3	O	-1.108432	0.027144	-0.099023
O4	O	-1.169146	-0.267497	-0.099030
O5	O	-1.081596	-0.013653	0.099032
O6	O	-0.979700	-0.168773	0.099028
O7	O	-1.244206	-0.153172	0.099029
Cu8	Cu	-1.109503	-0.164698	0.117112
Cu9	Cu	-1.141239	-0.116452	-0.117111
O10	O	-1.142310	-0.308293	0.099025
C11	C	-1.084758	0.044455	0.000003
C12	C	-1.054189	0.156815	-0.000002
C13	C	-0.958573	-0.147644	-0.000000
C14	C	-0.855635	-0.145454	-0.000001
C15	C	-1.292169	-0.133505	-0.000001
C16	C	-1.395108	-0.135694	-0.000008
C17	C	-0.772039	-0.143673	-0.000005
C18	C	-0.667165	-0.141448	-0.000006
C19	C	-0.583577	-0.139683	-0.000006
C20	C	-0.478696	-0.137459	-0.000008
C21	C	-1.165984	-0.325603	-0.000003
C22	C	-1.196554	-0.437963	-0.000006
N23	N	-1.087188	-0.198631	0.281852
C24	C	-1.291883	0.521158	-0.000001
C25	C	-1.320606	0.415588	0.000011
C26	C	-1.254004	0.350890	0.000007
C27	C	-1.158675	0.391771	-0.000007
C28	C	-1.129947	0.497349	-0.000009
C29	C	-1.092069	0.327081	-0.000002
C30	C	-0.996739	0.367963	-0.000016
C31	C	-0.968016	0.473530	-0.000019
C32	C	-1.034618	0.538229	-0.000015
C33	C	-1.120796	0.221504	0.000000
C34	C	-0.958860	0.197695	-0.000008
C35	C	-0.930137	0.303264	-0.000020
N36	N	-1.163559	-0.082510	-0.281850
C37	C	-1.217141	-0.001005	0.655806
C38	C	-1.234020	0.024670	0.531145
C39	C	-1.197313	-0.031153	0.468816
C40	C	-1.143725	-0.112655	0.531159
C41	C	-1.126850	-0.138338	0.655833
C42	C	-1.107022	-0.168486	0.468842
C43	C	-1.053434	-0.249988	0.531186
C44	C	-1.036561	-0.275666	0.655847
C45	C	-1.073268	-0.219844	0.718177
C46	C	-1.123897	-0.142803	0.344169
C47	C	-1.033606	-0.280137	0.344196
C48	C	-1.016727	-0.305811	0.468857
H49	H	-1.277397	0.264931	0.000017
H50	H	-0.852517	0.336565	-0.000030
C51	C	-1.224338	0.177234	-0.000241
C52	C	-1.280000	0.231071	-0.102151
C53	C	-1.375392	0.190312	-0.102426
H54	H	-1.243669	0.185193	0.068744
H55	H	-1.231960	0.105104	-0.000305
H56	H	-1.272383	0.303184	-0.102076
H57	H	-1.260699	0.223117	-0.171153
H58	H	-1.383014	0.118181	-0.102490
H59	H	-1.394713	0.198273	-0.033437
H60	H	-1.413169	0.226827	-0.171576
C61	C	-1.424152	0.371414	-0.000034
C62	C	-1.476335	0.450672	-0.000062
C63	C	-1.571732	0.410020	-0.000119
H64	H	-1.429489	0.316521	0.069017
H65	H	-1.448133	0.344981	-0.069124
H66	H	-1.452361	0.477089	0.069021
H67	H	-1.471026	0.505570	-0.069108
H68	H	-1.595713	0.383587	-0.069209
H69	H	-1.577059	0.355127	0.068934
H70	H	-1.607151	0.463791	-0.000149
H71	H	-0.992936	-0.342038	0.706608
C72	C	-0.886616	0.127465	-0.000263
C73	C	-0.912173	0.087171	-0.102174
C74	C	-0.845644	0.022477	-0.102454
H75	H	-0.885043	0.071481	0.068722
H76	H	-0.825718	0.166908	-0.000328
H77	H	-0.973054	0.047729	-0.102098
H78	H	-0.913740	0.143131	-0.171175
H79	H	-0.784746	0.061920	-0.102519
H80	H	-0.844076	-0.033501	-0.033465
H81	H	-0.862970	-0.004863	-0.171604
H82	H	-1.211059	-0.010245	0.367311
C83	C	-0.993567	-0.340732	0.276688
C84	C	-0.894585	-0.330362	0.307055
C85	C	-0.857677	-0.386176	0.244894
H86	H	-1.011182	-0.313830	0.193495
H87	H	-1.018051	-0.412540	0.297135
H88	H	-0.870110	-0.258569	0.286600
H89	H	-0.876945	-0.357270	0.390237
H90	H	-0.882161	-0.457984	0.265342
H91	H	-0.875298	-0.359269	0.161705
H92	H	-0.790515	-0.379155	0.265498
C93	C	-0.864535	0.517906	-0.000269
C94	C	-0.836492	0.506053	-0.102182
C95	C	-0.741175	0.546929	-0.102460
H96	H	-0.826507	0.481531	0.068714
H97	H	-0.856932	0.590063	-0.000333
H98	H	-0.844087	0.433909	-0.102107
H99	H	-0.874494	0.542430	-0.171182
H100	H	-0.733572	0.619086	-0.102524
H101	H	-0.703157	0.510550	-0.033473
H102	H	-0.722138	0.538901	-0.171611
C103	C	-1.364174	0.591500	-0.000236
C104	C	-1.366237	0.673780	-0.102143
C105	C	-1.432834	0.738593	-0.102406
H106	H	-1.347043	0.619062	0.068751
H107	H	-1.425091	0.552088	-0.000296
H108	H	-1.305334	0.713186	-0.102073
H109	H	-1.383379	0.646248	-0.171147
H110	H	-1.493751	0.699181	-0.102466
H111	H	-1.415697	0.766148	-0.033415
H112	H	-1.434249	0.794421	-0.171554
H113	H	-0.973094	-0.372173	0.519633
C114	C	-1.257172	0.059502	0.723407
C115	C	-1.356157	0.049092	0.693085
C116	C	-1.393069	0.104814	0.755344
H117	H	-1.232738	0.131316	0.703031
H118	H	-1.239511	0.032530	0.806594
H119	H	-1.373810	0.076068	0.609917
H120	H	-1.380617	-0.022709	0.713464
H121	H	-1.375408	0.077843	0.838531
H122	H	-1.368628	0.176625	0.734963
H123	H	-1.460234	0.097751	0.734788
H124	H	-1.277652	0.091027	0.480389
H125	H	-1.011237	0.624194	-0.000029
C126	C	-1.181897	-0.054139	0.276602
C127	C	-1.137331	0.039076	0.306977
C128	C	-1.190720	0.120796	0.244768
H129	H	-1.243537	-0.069340	0.296983
H130	H	-1.186688	-0.046724	0.193407
H131	H	-1.132551	0.031661	0.390153
H132	H	-1.075695	0.054310	0.286592
H133	H	-1.195511	0.128211	0.161574
H134	H	-1.252358	0.105585	0.265155
H135	H	-1.160486	0.184053	0.265361
H136	H	-1.059522	-0.240745	0.819686
