data_functionalizedCrystal
_audit_creation_method	'MofGen! by Chris Wilmer'
_symmetry_space_group_name_H-M	'P1'
_symmetry_Int_Tables_number	1
_symmetry_cell_setting	triclinic
loop_
_symmetry_equiv_pos_as_xyz
  x,y,z
_cell_length_a	19.121102
_cell_length_b	19.121175
_cell_length_c	19.121063
_cell_angle_alpha	85.048230
_cell_angle_beta	89.873098
_cell_angle_gamma	85.212968
loop_
_atom_site_label
_atom_site_type_symbol
_atom_site_fract_x
_atom_site_fract_y
_atom_site_fract_z
Zn1	Zn	1.078480	-0.457776	0.345237
Zn2	Zn	1.328480	-0.207776	0.595237
Zn3	Zn	1.578480	0.042224	0.845237
Zn4	Zn	1.828480	0.292224	1.095237
Zn5	Zn	1.068784	-0.344694	0.457452
Zn6	Zn	1.318784	-0.094694	0.707452
Zn7	Zn	1.568784	0.155306	0.957452
Zn8	Zn	1.818784	0.405306	1.207452
Zn9	Zn	0.956233	-0.334686	0.334783
Zn10	Zn	1.206233	-0.084686	0.584783
Zn11	Zn	1.456233	0.165314	0.834783
Zn12	Zn	1.706233	0.415314	1.084783
Zn13	Zn	0.956186	-0.457304	0.457406
Zn14	Zn	1.206186	-0.207304	0.707406
Zn15	Zn	1.456186	0.042696	0.957406
Zn16	Zn	1.706186	0.292696	1.207406
O17	O	1.014921	-0.398615	0.398719
O18	O	1.264921	-0.148615	0.648719
O19	O	1.514921	0.101385	0.898719
O20	O	1.764921	0.351385	1.148719
O21	O	1.175477	-0.447161	0.364516
O22	O	1.425477	-0.197161	0.614516
O23	O	1.675477	0.052839	0.864516
O24	O	1.925477	0.302839	1.114516
O25	O	1.049816	-0.244725	0.436824
O26	O	1.299816	0.005275	0.686824
O27	O	1.549816	0.255275	0.936824
O28	O	1.799816	0.505275	1.186824
O29	O	0.976527	-0.347024	0.237889
O30	O	1.226527	-0.097024	0.487889
O31	O	1.476527	0.152976	0.737889
O32	O	1.726527	0.402976	0.987889
O33	O	1.168354	-0.364080	0.446961
O34	O	1.418354	-0.114080	0.696961
O35	O	1.668354	0.135920	0.946961
O36	O	1.918354	0.385920	1.196961
O37	O	1.066341	-0.437457	0.245569
O38	O	1.316341	-0.187457	0.495569
O39	O	1.566341	0.062543	0.745569
O40	O	1.816341	0.312543	0.995569
O41	O	0.967125	-0.237373	0.346700
O42	O	1.217125	0.012627	0.596700
O43	O	1.467125	0.262627	0.846700
O44	O	1.717125	0.512627	1.096700
O45	O	0.857943	-0.346566	0.346655
O46	O	1.107943	-0.096566	0.596655
O47	O	1.357943	0.153434	0.846655
O48	O	1.607943	0.403434	1.096655
O49	O	0.976446	-0.556008	0.446882
O50	O	1.226446	-0.306008	0.696882
O51	O	1.476446	-0.056008	0.946882
O52	O	1.726446	0.193992	1.196882
O53	O	0.857908	-0.436653	0.436746
O54	O	1.107908	-0.186653	0.686746
O55	O	1.357908	0.063347	0.936746
O56	O	1.607908	0.313347	1.186746
O57	O	1.066295	-0.556354	0.364472
O58	O	1.316295	-0.306354	0.614472
O59	O	1.566295	-0.056354	0.864472
O60	O	1.816295	0.193646	1.114472
O61	O	1.049770	-0.363622	0.555727
O62	O	1.299770	-0.113622	0.805727
O63	O	1.549770	0.136378	1.055727
O64	O	1.799770	0.386378	1.305727
O65	O	0.967044	-0.446357	0.555693
O66	O	1.217044	-0.196357	0.805693
O67	O	1.467044	0.053643	1.055693
O68	O	1.717044	0.303643	1.305693
C69	C	0.832442	-0.390473	0.390561
C70	C	1.082442	-0.140473	0.640561
C71	C	1.332442	0.109527	0.890561
C72	C	1.582442	0.359527	1.140561
C73	C	0.754377	-0.387007	0.387089
C74	C	1.004377	-0.137007	0.637089
C75	C	1.254377	0.112993	0.887089
C76	C	1.504377	0.362993	1.137089
C77	C	0.717696	-0.432214	0.432428
C78	C	0.967696	-0.182214	0.682428
C79	C	1.217696	0.067786	0.932428
C80	C	1.467696	0.317786	1.182428
C81	C	0.644346	-0.428961	0.429156
C82	C	0.894346	-0.178961	0.679156
C83	C	1.144346	0.071039	0.929156
C84	C	1.394346	0.321039	1.179156
C85	C	0.607678	-0.380496	0.380548
C86	C	0.857678	-0.130496	0.630548
C87	C	1.107678	0.119504	0.880548
C88	C	1.357678	0.369504	1.130548
C89	C	0.644364	-0.335287	0.335205
C90	C	0.894364	-0.085287	0.585205
C91	C	1.144364	0.164713	0.835205
C92	C	1.394364	0.414713	1.085205
C93	C	0.717713	-0.338545	0.338474
C94	C	0.967713	-0.088545	0.588474
C95	C	1.217713	0.161455	0.838474
C96	C	1.467713	0.411455	1.088474
C97	C	0.386212	-0.368321	0.368326
C98	C	0.636212	-0.118321	0.618326
C99	C	0.886212	0.131679	0.868326
C100	C	1.136212	0.381679	1.118326
C101	C	0.312858	-0.365066	0.365061
C102	C	0.562858	-0.115066	0.615061
C103	C	0.812858	0.134934	0.865061
C104	C	1.062858	0.384934	1.115061
C105	C	0.312845	-0.458740	0.459012
C106	C	0.562845	-0.208740	0.709012
C107	C	0.812845	0.041260	0.959012
C108	C	1.062845	0.291260	1.209012
C109	C	0.386195	-0.461990	0.462279
C110	C	0.636195	-0.211990	0.712279
C111	C	0.886195	0.038010	0.962279
C112	C	1.136195	0.288010	1.212279
C113	C	0.422875	-0.416784	0.416933
C114	C	0.672875	-0.166784	0.666933
C115	C	0.922875	0.083216	0.916933
C116	C	1.172875	0.333216	1.166933
C117	C	0.532702	-0.377168	0.377205
C118	C	0.782702	-0.127168	0.627205
C119	C	1.032702	0.122832	0.877205
C120	C	1.282702	0.372832	1.127205
C121	C	0.497850	-0.420116	0.420275
C122	C	0.747850	-0.170116	0.670275
C123	C	0.997850	0.079884	0.920275
C124	C	1.247850	0.329884	1.170275
C125	C	1.022447	-0.582473	0.406838
C126	C	1.272447	-0.332473	0.656838
C127	C	1.522447	-0.082473	0.906838
C128	C	1.772447	0.167527	1.156838
C129	C	1.025654	-0.660822	0.410297
C130	C	1.275654	-0.410822	0.660297
C131	C	1.525654	-0.160822	0.910297
C132	C	1.775654	0.089178	1.160297
C133	C	0.984110	-0.693802	0.365001
C134	C	1.234110	-0.443802	0.615001
C135	C	1.484110	-0.193802	0.865001
C136	C	1.734110	0.056198	1.115001
C137	C	0.987121	-0.767419	0.368257
C138	C	1.237121	-0.517419	0.618257
C139	C	1.487121	-0.267419	0.868257
C140	C	1.737121	-0.017419	1.118257
C141	C	1.031680	-0.808055	0.416807
C142	C	1.281680	-0.558055	0.666807
C143	C	1.531680	-0.308055	0.916807
C144	C	1.781680	-0.058055	1.166807
C145	C	1.073225	-0.775070	0.462109
C146	C	1.323225	-0.525070	0.712109
C147	C	1.573225	-0.275070	0.962109
C148	C	1.823225	-0.025070	1.212109
C149	C	1.070210	-0.701454	0.458855
C150	C	1.320210	-0.451454	0.708855
C151	C	1.570210	-0.201454	0.958855
C152	C	1.820210	0.048546	1.208855
C153	C	1.042933	-1.030520	0.428981
C154	C	1.292933	-0.780520	0.678981
C155	C	1.542933	-0.530520	0.928981
C156	C	1.792933	-0.280520	1.178981
C157	C	1.045947	-1.104141	0.432229
C158	C	1.295947	-0.854141	0.682229
C159	C	1.545947	-0.604141	0.932229
C160	C	1.795947	-0.354141	1.182229
C161	C	0.959841	-1.096485	0.338378
C162	C	1.209841	-0.846485	0.588378
C163	C	1.459841	-0.596485	0.838378
C164	C	1.709841	-0.346485	1.088378
C165	C	0.956833	-1.022868	0.335126
C166	C	1.206833	-0.772868	0.585126
C167	C	1.456833	-0.522868	0.835126
C168	C	1.706833	-0.272868	1.085126
C169	C	0.998376	-0.989889	0.380430
C170	C	1.248376	-0.739889	0.630430
C171	C	1.498376	-0.489889	0.880430
C172	C	1.748376	-0.239889	1.130430
C173	C	1.034760	-0.883304	0.420135
C174	C	1.284760	-0.633304	0.670135
C175	C	1.534760	-0.383304	0.920135
C176	C	1.784760	-0.133304	1.170135
C177	C	0.995292	-0.914642	0.377105
C178	C	1.245292	-0.664642	0.627105
C179	C	1.495292	-0.414642	0.877105
C180	C	1.745292	-0.164642	1.127105
C181	C	1.198112	-0.406789	0.406910
C182	C	1.448112	-0.156789	0.656910
C183	C	1.698112	0.093211	0.906910
C184	C	1.948112	0.343211	1.156910
C185	C	1.276177	-0.410273	0.410400
C186	C	1.526177	-0.160273	0.660400
C187	C	1.776177	0.089727	0.910400
C188	C	2.026177	0.339727	1.160400
C189	C	1.007370	-0.406040	0.581194
C190	C	1.257370	-0.156040	0.831194
C191	C	1.507370	0.093960	1.081194
C192	C	1.757370	0.343960	1.331194
C193	C	1.004204	-0.409244	0.659262
C194	C	1.254204	-0.159244	0.909262
C195	C	1.504204	0.090756	1.159262
C196	C	1.754204	0.340756	1.409262
C197	C	1.007466	-0.215472	0.390584
C198	C	1.257466	0.034528	0.640584
C199	C	1.507466	0.284528	0.890584
C200	C	1.757466	0.534528	1.140584
C201	C	1.004403	-0.137122	0.386933
C202	C	1.254403	0.112878	0.636933
C203	C	1.504403	0.362878	0.886933
C204	C	1.754403	0.612878	1.136933
C205	C	1.022521	-0.391177	0.215534
C206	C	1.272521	-0.141177	0.465534
C207	C	1.522521	0.108823	0.715534
C208	C	1.772521	0.358823	0.965534
C209	C	1.025760	-0.388007	0.137471
C210	C	1.275760	-0.138007	0.387471
C211	C	1.525760	0.111993	0.637471
C212	C	1.775760	0.361993	0.887471
C213	C	1.045825	-0.367712	0.695936
C214	C	1.295825	-0.117712	0.945936
C215	C	1.545825	0.132288	1.195936
C216	C	1.795825	0.382288	1.445936
C217	C	1.042852	-0.370729	0.769289
C218	C	1.292852	-0.120729	1.019289
C219	C	1.542852	0.129271	1.269289
C220	C	1.792852	0.379271	1.519289
C221	C	0.998255	-0.415274	0.805966
C222	C	1.248255	-0.165274	1.055966
C223	C	1.498255	0.084726	1.305966
C224	C	1.748255	0.334726	1.555966
C225	C	0.956634	-0.456810	0.769287
C226	C	1.206634	-0.206810	1.019287
C227	C	1.456634	0.043190	1.269287
C228	C	1.706634	0.293190	1.519287
C229	C	0.959610	-0.453797	0.695936
C230	C	1.209610	-0.203797	0.945936
C231	C	1.459610	0.046203	1.195936
C232	C	1.709610	0.296203	1.445936
C233	C	0.987115	-0.426530	1.027440
C234	C	1.237115	-0.176530	1.277440
C235	C	1.487115	0.073470	1.527440
C236	C	1.737115	0.323470	1.777440
C237	C	0.984139	-0.429539	1.100797
C238	C	1.234139	-0.179539	1.350797
C239	C	1.484139	0.070461	1.600797
C240	C	1.734139	0.320461	1.850797
C241	C	1.070359	-0.343458	1.100793
C242	C	1.320359	-0.093458	1.350793
C243	C	1.570359	0.156542	1.600793
C244	C	1.820359	0.406542	1.850793
C245	C	1.073329	-0.340445	1.027440
C246	C	1.323329	-0.090445	1.277440
C247	C	1.573329	0.159555	1.527440
C248	C	1.823329	0.409555	1.777440
C249	C	1.031710	-0.381984	0.990768
C250	C	1.281710	-0.131984	1.240768
C251	C	1.531710	0.118016	1.490768
C252	C	1.781710	0.368016	1.740768
C253	C	0.995214	-0.418357	0.880945
C254	C	1.245214	-0.168357	1.130945
C255	C	1.495214	0.081643	1.380945
C256	C	1.745214	0.331643	1.630945
C257	C	1.034755	-0.378904	0.915791
C258	C	1.284755	-0.128904	1.165791
C259	C	1.534755	0.121096	1.415791
C260	C	1.784755	0.371096	1.665791
H261	H	0.747577	-0.301736	0.301551
H262	H	0.997577	-0.051736	0.551551
H263	H	1.247577	0.198264	0.801551
H264	H	1.497577	0.448264	1.051551
H265	H	1.082235	-1.137226	0.471766
H266	H	1.332235	-0.887226	0.721766
H267	H	1.582235	-0.637226	0.971766
H268	H	1.832235	-0.387226	1.221766
F269	F	0.536876	-0.471695	0.472004
F270	F	0.786876	-0.221695	0.722004
F271	F	1.036876	0.028305	0.972004
F272	F	1.286876	0.278305	1.222004
F273	F	0.936664	-0.476944	1.139830
F274	F	1.186664	-0.226944	1.389830
F275	F	1.436664	0.023056	1.639830
F276	F	1.686664	0.273056	1.889830
H277	H	0.953225	-0.460351	0.997588
H278	H	1.203225	-0.210351	1.247588
H279	H	1.453225	0.039649	1.497588
H280	H	1.703225	0.289649	1.747588
H281	H	1.104244	-0.309640	1.130660
H282	H	1.354244	-0.059640	1.380660
H283	H	1.604244	0.190360	1.630660
H284	H	1.854244	0.440360	1.880660
H285	H	1.076752	-1.003678	0.465878
H286	H	1.326752	-0.753678	0.715878
H287	H	1.576752	-0.503678	0.965878
H288	H	1.826752	-0.253678	1.215878
F289	F	0.947752	-0.465764	0.919986
F290	F	1.197752	-0.215764	1.169986
F291	F	1.447752	0.034236	1.419986
F292	F	1.697752	0.284236	1.669986
H293	H	1.071039	-0.916398	0.459665
H294	H	1.321039	-0.666398	0.709665
H295	H	1.571039	-0.416398	0.959665
H296	H	1.821039	-0.166398	1.209665
H297	H	0.614503	-0.295829	0.295625
H298	H	0.864503	-0.045829	0.545625
H299	H	1.114503	0.204171	0.795625
H300	H	1.364503	0.454171	1.045625
F301	F	0.909174	-0.504223	0.808325
F302	F	1.159174	-0.254223	1.058325
F303	F	1.409174	-0.004223	1.308325
F304	F	1.659174	0.245777	1.558325
H305	H	0.502838	-0.337707	0.337630
H306	H	0.752838	-0.087707	0.587630
H307	H	1.002838	0.162293	0.837630
H308	H	1.252838	0.412293	1.087630
F309	F	1.120803	-0.293042	0.988411
F310	F	1.370803	-0.043042	1.238411
F311	F	1.620803	0.206958	1.488411
F312	F	1.870803	0.456958	1.738411
H313	H	1.071069	-0.342638	0.885926
H314	H	1.321069	-0.092638	1.135926
H315	H	1.571069	0.157362	1.385926
H316	H	1.821069	0.407362	1.635926
F317	F	0.756715	-0.483794	0.484166
F318	F	1.006715	-0.233794	0.734166
F319	F	1.256715	0.016206	0.984166
F320	F	1.506715	0.266206	1.234166
F321	F	0.605311	-0.477077	0.477412
F322	F	0.855311	-0.227077	0.727412
F323	F	1.105311	0.022923	0.977412
F324	F	1.355311	0.272923	1.227412
F325	F	1.093287	-0.320296	0.656907
F326	F	1.343287	-0.070296	0.906907
F327	F	1.593287	0.179704	1.156907
F328	F	1.843287	0.429704	1.406907
H329	H	0.416046	-0.501454	0.501862
H330	H	0.666046	-0.251454	0.751862
H331	H	0.916046	-0.001454	1.001862
H332	H	1.166046	0.248546	1.251862
F333	F	0.942877	-0.802516	0.320070
F334	F	1.192877	-0.552516	0.570070
F335	F	1.442877	-0.302516	0.820070
F336	F	1.692877	-0.052516	1.070070
H337	H	0.947830	-0.660721	0.325462
H338	H	1.197830	-0.410721	0.575462
H339	H	1.447830	-0.160721	0.825462
H340	H	1.697830	0.089279	1.075462
H341	H	0.282973	-0.495546	0.495929
H342	H	0.532973	-0.245546	0.745929
H343	H	0.782973	0.004454	0.995929
H344	H	1.032973	0.254454	1.245929
H345	H	0.283005	-0.325604	0.325472
H346	H	0.533005	-0.075604	0.575472
H347	H	0.783005	0.174396	0.825472
H348	H	1.033005	0.424396	1.075472
F349	F	0.909409	-0.979625	0.283451
F350	F	1.159409	-0.729625	0.533451
F351	F	1.409409	-0.479625	0.783451
F352	F	1.659409	-0.229625	1.033451
H353	H	1.109502	-0.808162	0.501643
H354	H	1.359502	-0.558162	0.751643
H355	H	1.609502	-0.308162	1.001643
H356	H	1.859502	-0.058162	1.251643
F357	F	0.425240	-0.320210	0.320062
F358	F	0.675240	-0.070210	0.570062
F359	F	0.925240	0.179790	0.820062
F360	F	1.175240	0.429790	1.070062
F361	F	0.915630	-1.131589	0.290168
F362	F	1.165630	-0.881589	0.540168
F363	F	1.415630	-0.631589	0.790168
F364	F	1.665630	-0.381589	1.040168
H365	H	0.959010	-0.881553	0.337578
H366	H	1.209010	-0.631553	0.587578
H367	H	1.459010	-0.381553	0.837578
H368	H	1.709010	-0.131553	1.087578
F369	F	1.114425	-0.666355	0.507069
F370	F	1.364425	-0.416355	0.757069
F371	F	1.614425	-0.166355	1.007069
F372	F	1.864425	0.083645	1.257069
H373	H	1.076743	-0.336909	0.799145
H374	H	1.326743	-0.086909	1.049145
H375	H	1.576743	0.163091	1.299145
H376	H	1.826743	0.413091	1.549145
F377	F	0.915314	-0.498002	0.656905
F378	F	1.165314	-0.248002	0.906905
F379	F	1.415314	0.001998	1.156905
F380	F	1.665314	0.251998	1.406905
