data_functionalizedCrystal
_audit_creation_method	'MofGen! by Chris Wilmer'
_symmetry_space_group_name_H-M	'P1'
_symmetry_Int_Tables_number	1
_symmetry_cell_setting	triclinic
loop_
_symmetry_equiv_pos_as_xyz
  x,y,z
_cell_length_a	14.044220
_cell_length_b	14.044191
_cell_length_c	7.540329
_cell_angle_alpha	89.999427
_cell_angle_beta	90.002479
_cell_angle_gamma	86.809673
loop_
_atom_site_label
_atom_site_type_symbol
_atom_site_fract_x
_atom_site_fract_y
_atom_site_fract_z
O1	O	-0.230198	1.277170	-0.147388
O2	O	0.019802	1.527170	0.102612
O3	O	0.269802	1.777170	0.352612
O4	O	0.519802	2.027170	0.602612
O5	O	-0.221886	1.000498	-0.147411
O6	O	0.028114	1.250498	0.102589
O7	O	0.278114	1.500498	0.352589
O8	O	0.528114	1.750498	0.602589
O9	O	-0.087706	1.134681	-0.147392
O10	O	0.162294	1.384681	0.102608
O11	O	0.412294	1.634681	0.352608
O12	O	0.662294	1.884681	0.602608
O13	O	-0.364378	1.142987	-0.147407
O14	O	-0.114378	1.392987	0.102593
O15	O	0.135622	1.642987	0.352593
O16	O	0.385622	1.892987	0.602593
O17	O	-0.087704	1.134672	0.147573
O18	O	0.162296	1.384672	0.397573
O19	O	0.412296	1.634672	0.647573
O20	O	0.662296	1.884672	0.897573
O21	O	-0.221883	1.000489	0.147554
O22	O	0.028117	1.250489	0.397554
O23	O	0.278117	1.500489	0.647554
O24	O	0.528117	1.750489	0.897554
O25	O	-0.230196	1.277162	0.147577
O26	O	0.019804	1.527162	0.397577
O27	O	0.269804	1.777162	0.647577
O28	O	0.519804	2.027162	0.897577
Cu29	Cu	-0.226039	1.138824	0.174498
Cu30	Cu	0.023961	1.388824	0.424498
Cu31	Cu	0.273961	1.638824	0.674498
Cu32	Cu	0.523961	1.888824	0.924498
Cu33	Cu	-0.226042	1.138835	-0.174332
Cu34	Cu	0.023958	1.388835	0.075668
Cu35	Cu	0.273958	1.638835	0.325668
Cu36	Cu	0.523958	1.888835	0.575668
O37	O	-0.364375	1.142978	0.147558
O38	O	-0.114375	1.392978	0.397558
O39	O	0.135625	1.642978	0.647558
O40	O	0.385625	1.892978	0.897558
C41	C	-0.218248	0.964872	0.000068
C42	C	0.031752	1.214872	0.250068
C43	C	0.281752	1.464872	0.500068
C44	C	0.531752	1.714872	0.750068
C45	C	-0.207401	0.858728	0.000060
C46	C	0.042599	1.108728	0.250060
C47	C	0.292599	1.358728	0.500060
C48	C	0.542599	1.608728	0.750060
C49	C	-0.264501	0.613270	0.000074
C50	C	-0.014501	0.863270	0.250074
C51	C	0.235499	1.113270	0.500074
C52	C	0.485499	1.363270	0.750074
C53	C	-0.187585	0.664395	0.000075
C54	C	0.062415	0.914395	0.250075
C55	C	0.312415	1.164395	0.500075
C56	C	0.562415	1.414395	0.750075
C57	C	-0.198613	0.772532	0.000067
C58	C	0.051387	1.022532	0.250067
C59	C	0.301387	1.272532	0.500067
C60	C	0.551387	1.522532	0.750067
C61	C	-0.253474	0.505123	0.000083
C62	C	-0.003474	0.755123	0.250083
C63	C	0.246526	1.005123	0.500083
C64	C	0.496526	1.255123	0.750083
C65	C	-0.399998	1.146618	0.000073
C66	C	-0.149998	1.396618	0.250073
C67	C	0.100002	1.646618	0.500073
C68	C	0.350002	1.896618	0.750073
C69	C	-0.506142	1.157463	0.000068
C70	C	-0.256142	1.407463	0.250068
C71	C	-0.006142	1.657463	0.500068
C72	C	0.243858	1.907463	0.750068
C73	C	-0.700480	1.177289	0.000077
C74	C	-0.450480	1.427289	0.250077
C75	C	-0.200480	1.677289	0.500077
C76	C	0.049520	1.927289	0.750077
C77	C	-0.751608	1.100375	0.000073
C78	C	-0.501608	1.350375	0.250073
C79	C	-0.251608	1.600375	0.500073
C80	C	-0.001608	1.850375	0.750073
C81	C	-0.859744	1.111406	0.000078
C82	C	-0.609744	1.361406	0.250078
C83	C	-0.359744	1.611406	0.500078
C84	C	-0.109744	1.861406	0.750078
C85	C	-0.592333	1.166259	0.000072
C86	C	-0.342333	1.416259	0.250072
C87	C	-0.092333	1.666259	0.500072
C88	C	0.157667	1.916259	0.750072
C89	C	-0.052083	1.131041	0.000088
C90	C	0.197917	1.381041	0.250088
C91	C	0.447917	1.631041	0.500088
C92	C	0.697917	1.881041	0.750088
C93	C	0.054060	1.120197	0.000082
C94	C	0.304060	1.370197	0.250082
C95	C	0.554060	1.620197	0.500082
C96	C	0.804060	1.870197	0.750082
C97	C	-0.233834	1.312788	0.000093
C98	C	0.016166	1.562788	0.250093
C99	C	0.266166	1.812788	0.500093
C100	C	0.516166	2.062788	0.750093
C101	C	-0.244681	1.418931	0.000090
C102	C	0.005319	1.668931	0.250090
C103	C	0.255319	1.918931	0.500090
C104	C	0.505319	2.168931	0.750090
N105	N	-0.226037	1.138824	0.419846
N106	N	0.023963	1.388824	0.669846
N107	N	0.273963	1.638824	0.919846
N108	N	0.523963	1.888824	1.169846
N109	N	-0.226037	1.138842	-0.419681
N110	N	0.023963	1.388842	-0.169681
N111	N	0.273963	1.638842	0.080319
N112	N	0.523963	1.888842	0.330319
H113	H	-0.113452	0.626952	-0.000045
H114	H	0.136548	0.876952	0.249955
H115	H	0.386548	1.126952	0.499955
H116	H	0.636548	1.376952	0.749955
N117	N	-0.750064	1.275484	0.000120
N118	N	-0.500064	1.525484	0.250120
N119	N	-0.250064	1.775484	0.500120
N120	N	-0.000064	2.025484	0.750120
H121	H	-0.821404	1.269543	0.000136
H122	H	-0.571404	1.519543	0.250136
H123	H	-0.321404	1.769543	0.500136
H124	H	-0.071404	2.019543	0.750136
H125	H	-0.730924	1.311276	0.109486
H126	H	-0.480924	1.561276	0.359486
H127	H	-0.230924	1.811276	0.609486
H128	H	0.019076	2.061276	0.859486
N129	N	-0.362694	0.662858	0.000058
N130	N	-0.112694	0.912858	0.250058
N131	N	0.137306	1.162858	0.500058
N132	N	0.387306	1.412858	0.750058
H133	H	-0.356751	0.734197	0.000048
H134	H	-0.106751	0.984197	0.250048
H135	H	0.143249	1.234197	0.500048
H136	H	0.393249	1.484197	0.750048
H137	H	-0.398501	0.643726	-0.109297
H138	H	-0.148501	0.893726	0.140703
H139	H	0.101499	1.143726	0.390703
H140	H	0.351499	1.393726	0.640703
N141	N	-0.702023	1.002173	0.000063
N142	N	-0.452023	1.252173	0.250063
N143	N	-0.202023	1.502173	0.500063
N144	N	0.047977	1.752173	0.750063
H145	H	-0.630682	1.008107	0.000065
H146	H	-0.380682	1.258107	0.250065
H147	H	-0.130682	1.508107	0.500065
H148	H	0.119318	1.758107	0.750065
H149	H	-0.721153	0.966363	0.109414
H150	H	-0.471153	1.216363	0.359414
H151	H	-0.221153	1.466363	0.609414
H152	H	0.028847	1.716363	0.859414
