data_functionalizedCrystal
_audit_creation_method	'MofGen! by Chris Wilmer'
_symmetry_space_group_name_H-M	'P1'
_symmetry_Int_Tables_number	1
_symmetry_cell_setting	triclinic
loop_
_symmetry_equiv_pos_as_xyz
  x,y,z
_cell_length_a	19.077105
_cell_length_b	16.625546
_cell_length_c	19.076919
_cell_angle_alpha	92.269917
_cell_angle_beta	90.076224
_cell_angle_gamma	87.718759
loop_
_atom_site_label
_atom_site_type_symbol
_atom_site_fract_x
_atom_site_fract_y
_atom_site_fract_z
Zn1	Zn	1.058283	-0.390077	-0.440407
Zn2	Zn	1.558283	0.109923	0.059593
Zn3	Zn	1.062927	-0.519720	-0.322896
Zn4	Zn	1.562927	-0.019720	0.177104
Zn5	Zn	0.945500	-0.379275	-0.318200
Zn6	Zn	1.445500	0.120725	0.181800
Zn7	Zn	0.940748	-0.519234	-0.435649
Zn8	Zn	1.440748	-0.019234	0.064351
O9	O	1.001864	-0.452076	-0.379288
O10	O	1.501864	0.047924	0.120712
O11	O	1.157231	-0.411998	-0.428775
O12	O	1.657231	0.088002	0.071225
O13	O	1.051282	-0.496773	-0.223942
O14	O	1.551282	0.003227	0.276058
O15	O	0.960506	-0.267879	-0.334437
O16	O	1.460506	0.232121	0.165563
O17	O	1.160642	-0.507246	-0.342441
O18	O	1.660642	-0.007246	0.157559
O19	O	1.043367	-0.275815	-0.424222
O20	O	1.543367	0.224185	0.075778
O21	O	0.965009	-0.393589	-0.220492
O22	O	1.465009	0.106411	0.279508
O23	O	0.846538	-0.393117	-0.329824
O24	O	1.346538	0.106883	0.170176
O25	O	0.952407	-0.506418	-0.534611
O26	O	1.452407	-0.006418	-0.034611
O27	O	0.843047	-0.495944	-0.416113
O28	O	1.343047	0.004056	0.083887
O29	O	1.038759	-0.411527	-0.538107
O30	O	1.538759	0.088473	-0.038107
O31	O	1.046674	-0.632485	-0.337827
O32	O	1.546674	-0.132485	0.162173
O33	O	0.956910	-0.632127	-0.420666
O34	O	1.456910	-0.132127	0.079334
C35	C	0.819296	-0.443306	-0.371943
C36	C	1.319296	0.056694	0.128057
C37	C	0.741192	-0.439575	-0.368817
C38	C	1.241192	0.060425	0.131183
C39	C	0.702702	-0.491432	-0.412204
C40	C	1.202702	0.008568	0.087796
C41	C	0.629314	-0.487916	-0.409270
C42	C	1.129314	0.012084	0.090730
C43	C	0.594418	-0.432544	-0.362946
C44	C	1.094418	0.067456	0.137054
C45	C	0.632913	-0.380681	-0.319557
C46	C	1.132913	0.119319	0.180443
C47	C	0.706299	-0.384194	-0.322495
C48	C	1.206299	0.115806	0.177505
C49	C	0.375130	-0.416284	-0.349354
C50	C	0.875130	0.083716	0.150646
C51	C	0.301739	-0.412776	-0.346418
C52	C	0.801739	0.087224	0.153582
C53	C	0.298145	-0.520010	-0.436133
C54	C	0.798145	-0.020010	0.063867
C55	C	0.371533	-0.523522	-0.439063
C56	C	0.871533	-0.023522	0.060937
C57	C	0.410021	-0.471655	-0.395677
C58	C	0.910021	0.028345	0.104323
N59	N	0.519405	-0.428950	-0.359945
N60	N	1.019405	0.071050	0.140055
N61	N	0.485034	-0.475247	-0.398682
N62	N	0.985034	0.024753	0.101318
C63	C	1.001799	-0.661563	-0.379256
C64	C	1.501799	-0.161563	0.120744
C65	C	1.001834	-0.751186	-0.379268
C66	C	1.501834	-0.251186	0.120732
C67	C	1.001954	-1.079371	-0.379346
C68	C	1.501954	-0.579371	0.120654
C69	C	1.001918	-0.988060	-0.379327
C70	C	1.501918	-0.488060	0.120673
C71	C	1.001894	-0.915281	-0.379307
C72	C	1.501894	-0.415281	0.120693
C73	C	1.001859	-0.823965	-0.379288
C74	C	1.501859	-0.323965	0.120712
C75	C	1.185146	-0.460881	-0.386662
C76	C	1.685146	0.039119	0.113338
C77	C	1.263249	-0.464634	-0.389805
C78	C	1.763249	0.035366	0.110195
C79	C	0.994535	-0.460123	-0.562568
C80	C	1.494535	0.039877	-0.062568
C81	C	0.991412	-0.463552	-0.640671
C82	C	1.491412	0.036448	-0.140671
C83	C	1.001948	-0.241774	-0.379336
C84	C	1.501948	0.258226	0.120664
C85	C	1.001984	-0.152155	-0.379357
C86	C	1.501984	0.347845	0.120643
C87	C	1.034901	-0.415760	-0.679185
C88	C	1.534901	0.084240	-0.179185
C89	C	1.031958	-0.418978	-0.752571
C90	C	1.531958	0.081022	-0.252571
C91	C	0.985529	-0.469993	-0.787441
C92	C	1.485529	0.030007	-0.287441
C93	C	0.942035	-0.517786	-0.748922
C94	C	1.442035	-0.017786	-0.248922
C95	C	0.944975	-0.514563	-0.675537
C96	C	1.444975	-0.014563	-0.175537
C97	C	0.971911	-0.484926	-1.006722
C98	C	1.471911	0.015074	-0.506722
C99	C	0.968976	-0.488147	-1.080112
C100	C	1.468976	0.011853	-0.580112
C101	C	1.058898	-0.389338	-1.083755
C102	C	1.558898	0.110662	-0.583755
C103	C	1.061837	-0.386123	-1.010369
C104	C	1.561837	0.113877	-0.510369
C105	C	1.018341	-0.433913	-0.971856
C106	C	1.518341	0.066087	-0.471856
N107	N	0.982521	-0.473286	-0.862453
N108	N	1.482521	0.026714	-0.362453
N109	N	1.021346	-0.430616	-0.896846
N110	N	1.521346	0.069384	-0.396846
C111	C	1.009205	-0.444005	-0.196723
C112	C	1.509205	0.055995	0.303277
C113	C	1.012465	-0.440356	-0.118626
C114	C	1.512465	0.059644	0.381374
H115	H	0.399940	-0.568613	-0.476784
H116	H	0.899940	-0.068613	0.023216
C117	C	1.065396	-0.284972	-1.166694
C118	C	1.565396	0.215028	-0.666694
C119	C	1.106701	-0.336800	-1.126089
C120	C	1.606701	0.163200	-0.626089
H121	H	1.094909	-0.252531	-1.192825
H122	H	1.594909	0.247469	-0.692825
H123	H	1.037334	-0.315816	-1.197962
H124	H	1.537334	0.184184	-0.697962
H125	H	1.035941	-0.251408	-1.136831
H126	H	1.535941	0.248592	-0.636831
H127	H	1.136153	-0.370368	-1.155952
H128	H	1.636153	0.129632	-0.655952
H129	H	1.134776	-0.305952	-1.094817
H130	H	1.634776	0.194048	-0.594817
C131	C	1.121147	-0.321000	-0.748802
C132	C	1.621147	0.179000	-0.248802
C133	C	1.079768	-0.366450	-0.794905
C134	C	1.579768	0.133550	-0.294905
H135	H	1.150666	-0.288574	-0.774939
H136	H	1.650666	0.211426	-0.274939
H137	H	1.091693	-0.287429	-0.718954
H138	H	1.591693	0.212571	-0.218954
H139	H	1.149153	-0.356177	-0.721253
H140	H	1.649153	0.143823	-0.221253
H141	H	1.051758	-0.331273	-0.822451
H142	H	1.551758	0.168727	-0.322451
H143	H	1.109225	-0.400024	-0.824765
H144	H	1.609225	0.099976	-0.324765
H145	H	0.266800	-0.562235	-0.471456
H146	H	0.766800	-0.062235	0.028544
H147	H	0.273329	-0.367677	-0.308699
H148	H	0.773329	0.132323	0.191301
H149	H	0.597979	-0.530145	-0.444600
H150	H	1.097979	-0.030145	0.055400
H151	H	0.936503	-0.523853	-0.975374
H152	H	1.436503	-0.023853	-0.475374
C153	C	0.371301	-0.309936	-0.260382
C154	C	0.871301	0.190064	0.239618
C155	C	0.417431	-0.359274	-0.301663
C156	C	0.917431	0.140726	0.198337
H157	H	0.397420	-0.274742	-0.230937
H158	H	0.897420	0.225258	0.269063
H159	H	0.341466	-0.279133	-0.289903
H160	H	0.841466	0.220867	0.210097
H161	H	0.343742	-0.342475	-0.232302
H162	H	0.843742	0.157525	0.267698
H163	H	0.444987	-0.326735	-0.329748
H164	H	0.944987	0.173265	0.170252
H165	H	0.447279	-0.390080	-0.272140
H166	H	0.947279	0.109920	0.227860
C167	C	0.522015	-0.327680	-0.275219
C168	C	1.022015	0.172320	0.224781
C169	C	0.594557	-0.319812	-0.268639
C170	C	1.094557	0.180188	0.231361
H171	H	0.498339	-0.290104	-0.243780
H172	H	0.998339	0.209896	0.256220
H173	H	0.508118	-0.317464	-0.321965
H174	H	1.008118	0.182536	0.178035
H175	H	0.510393	-0.380806	-0.264364
H176	H	1.010393	0.119194	0.235636
H177	H	0.606181	-0.266687	-0.279499
H178	H	1.106181	0.233313	0.220501
H179	H	0.608460	-0.330022	-0.221883
H180	H	1.108460	0.169978	0.278117
H181	H	0.731109	-0.536524	-0.449924
H182	H	1.231109	-0.036524	0.050076
C183	C	0.880373	-0.585488	-1.069143
C184	C	1.380373	-0.085488	-0.569143
C185	C	0.917934	-0.544223	-1.118443
C186	C	1.417934	-0.044223	-0.618443
H187	H	0.848863	-0.620101	-1.092808
H188	H	1.348863	-0.120101	-0.592808
H189	H	0.912118	-0.616544	-1.041746
H190	H	1.412118	-0.116544	-0.541746
H191	H	0.854656	-0.547800	-1.039446
H192	H	1.354656	-0.047800	-0.539446
H193	H	0.943655	-0.581911	-1.148137
H194	H	1.443655	-0.081911	-0.648137
H195	H	0.886184	-0.513165	-1.145852
H196	H	1.386184	-0.013165	-0.645852
C197	C	1.150420	-0.288769	-1.021345
C198	C	1.650420	0.211231	-0.521345
C199	C	1.112870	-0.330041	-0.972042
C200	C	1.612870	0.169959	-0.472042
H201	H	1.181924	-0.254145	-0.997681
H202	H	1.681924	0.245855	-0.497681
H203	H	1.176138	-0.326445	-1.051041
H204	H	1.676138	0.173555	-0.551041
H205	H	1.118663	-0.257715	-1.048742
H206	H	1.618663	0.242285	-0.548742
H207	H	1.144628	-0.361100	-0.944648
H208	H	1.644628	0.138900	-0.444648
H209	H	1.087152	-0.292359	-0.942334
H210	H	1.587152	0.207641	-0.442334
H211	H	0.904228	-0.559320	-0.777319
H212	H	1.404228	-0.059320	-0.277319
C213	C	0.911616	-0.648461	-0.651521
C214	C	1.411616	-0.148461	-0.151521
C215	C	0.897183	-0.567105	-0.633194
C216	C	1.397183	-0.067105	-0.133194
H217	H	0.882114	-0.680897	-0.625375
H218	H	1.382114	-0.180897	-0.125375
H219	H	0.903212	-0.657678	-0.700209
H220	H	1.403212	-0.157678	-0.200209
H221	H	0.959311	-0.661983	-0.641397
H222	H	1.459311	-0.161983	-0.141397
H223	H	0.849489	-0.553582	-0.643323
H224	H	1.349489	-0.053582	-0.143323
H225	H	0.905581	-0.557883	-0.584495
H226	H	1.405581	-0.057883	-0.084495
C227	C	0.702486	-0.277859	-0.233511
C228	C	1.202486	0.222141	0.266489
C229	C	0.748611	-0.327198	-0.274796
C230	C	1.248611	0.172802	0.225204
H231	H	0.728608	-0.242674	-0.204061
H232	H	1.228608	0.257326	0.295939
H233	H	0.672655	-0.247046	-0.263028
H234	H	1.172655	0.252954	0.236972
H235	H	0.674921	-0.310398	-0.205435
H236	H	1.174921	0.189602	0.294565
H237	H	0.776172	-0.294659	-0.302876
H238	H	1.276172	0.205341	0.197124
H239	H	0.778454	-0.358013	-0.245276
H240	H	1.278454	0.141987	0.254724
C241	C	1.048011	-0.304150	-0.597079
C242	C	1.548011	0.195850	-0.097079
C243	C	1.085936	-0.359680	-0.640858
C244	C	1.585936	0.140320	-0.140858
H245	H	1.079519	-0.269529	-0.573417
H246	H	1.579519	0.230471	-0.073417
H247	H	1.016266	-0.273101	-0.624482
H248	H	1.516266	0.226899	-0.124482
H249	H	1.022537	-0.332162	-0.563638
H250	H	1.522537	0.167838	-0.063638
H251	H	1.111406	-0.331668	-0.674302
H252	H	1.611406	0.168332	-0.174302
H253	H	1.117694	-0.390732	-0.613453
H254	H	1.617694	0.109268	-0.113453
