data_functionalizedCrystal
_audit_creation_method	'MofGen! by Chris Wilmer'
_symmetry_space_group_name_H-M	'P1'
_symmetry_Int_Tables_number	1
_symmetry_cell_setting	triclinic
loop_
_symmetry_equiv_pos_as_xyz
  x,y,z
_cell_length_a	10.685980
_cell_length_b	13.897441
_cell_length_c	10.686285
_cell_angle_alpha	94.395280
_cell_angle_beta	90.334291
_cell_angle_gamma	85.604122
loop_
_atom_site_label
_atom_site_type_symbol
_atom_site_fract_x
_atom_site_fract_y
_atom_site_fract_z
Zn1	Zn	1.956340	-0.639584	0.352402
Zn2	Zn	2.456340	-0.139584	0.852402
Zn3	Zn	1.972336	-0.466950	0.562209
Zn4	Zn	2.472336	0.033050	1.062209
Zn5	Zn	1.746550	-0.465046	0.368533
Zn6	Zn	2.246550	0.034954	0.868533
Zn7	Zn	1.762649	-0.614961	0.578189
Zn8	Zn	2.262649	-0.114961	1.078189
O9	O	1.859469	-0.546635	0.465333
O10	O	2.359469	-0.046635	0.965333
O11	O	2.134015	-0.627785	0.366795
O12	O	2.634015	-0.127785	0.866795
O13	O	1.942342	-0.331710	0.536581
O14	O	2.442342	0.168290	1.036581
O15	O	1.760947	-0.497706	0.190846
O16	O	2.260947	0.002294	0.690846
O17	O	2.145767	-0.500952	0.520939
O18	O	2.645767	-0.000952	1.020939
O19	O	1.915079	-0.625938	0.178995
O20	O	2.415079	-0.125938	0.678995
O21	O	1.776458	-0.330310	0.394288
O22	O	2.276458	0.169690	0.894288
O23	O	1.573133	-0.473831	0.409783
O24	O	2.073133	0.026169	0.909783
O25	O	1.788386	-0.753216	0.548175
O26	O	2.288386	-0.253216	1.048175
O27	O	1.584961	-0.583973	0.563816
O28	O	2.084961	-0.083973	1.063816
O29	O	1.930690	-0.771305	0.382290
O30	O	2.430690	-0.271305	0.882290
O31	O	1.957952	-0.477077	0.739876
O32	O	2.457952	0.022923	1.239876
O33	O	1.803896	-0.585820	0.751616
O34	O	2.303896	-0.085820	1.251616
C35	C	1.533528	-0.526024	0.490285
C36	C	2.033528	-0.026024	0.990285
C37	C	1.394092	-0.517228	0.500989
C38	C	1.894092	-0.017228	1.000989
C39	C	1.859549	-0.798240	0.465216
C40	C	2.359549	-0.298240	0.965216
C41	C	1.859584	-0.905459	0.465165
C42	C	2.359584	-0.405459	0.965165
C43	C	1.859611	-1.101761	0.465078
C44	C	2.359611	-0.601761	0.965078
C45	C	1.859592	-0.992524	0.465130
C46	C	2.359592	-0.492524	0.965130
C47	C	2.186682	-0.567327	0.440285
C48	C	2.686682	-0.067327	0.940285
C49	C	2.326121	-0.576145	0.429611
C50	C	2.826121	-0.076145	0.929611
C51	C	1.884441	-0.529006	0.791261
C52	C	2.384441	-0.029006	1.291261
C53	C	1.895239	-0.521504	0.930685
C54	C	2.395239	-0.021504	1.430685
C55	C	1.859454	-0.296019	0.465355
C56	C	2.359454	0.203981	0.965355
C57	C	1.859636	-0.188835	0.465033
C58	C	2.359636	0.311165	0.965033
C59	C	1.834433	-0.564356	0.138130
C60	C	2.334433	-0.064356	0.638130
C61	C	1.823765	-0.571908	-0.001304
C62	C	2.323765	-0.071908	0.498696
H63	H	1.754312	-0.620802	0.950261
H64	H	2.254312	-0.120802	1.450261
O65	O	1.329884	-0.441481	0.592791
O66	O	1.829884	0.058519	1.092791
H67	H	1.275119	-0.477391	0.661220
H68	H	1.775119	0.022609	1.161220
O69	O	1.390324	-0.651884	0.337809
O70	O	1.890324	-0.151884	0.837809
H71	H	1.493441	-0.647147	0.343527
H72	H	1.993441	-0.147147	0.843527
O73	O	1.987263	-0.456744	0.994834
O74	O	2.487263	0.043256	1.494834
H75	H	1.981603	-0.460822	1.097949
H76	H	2.481603	0.039178	1.597949
