data_functionalizedCrystal
_audit_creation_method	'MofGen! by Chris Wilmer'
_symmetry_space_group_name_H-M	'P1'
_symmetry_Int_Tables_number	1
_symmetry_cell_setting	triclinic
loop_
_symmetry_equiv_pos_as_xyz
  x,y,z
_cell_length_a	10.686220
_cell_length_b	14.908178
_cell_length_c	10.686551
_cell_angle_alpha	97.435690
_cell_angle_beta	89.691918
_cell_angle_gamma	97.932243
loop_
_atom_site_label
_atom_site_type_symbol
_atom_site_fract_x
_atom_site_fract_y
_atom_site_fract_z
Zn1	Zn	1.953096	-0.221918	0.545917
Zn2	Zn	2.453096	0.278082	1.045917
Zn3	Zn	1.922619	-0.386673	0.323932
Zn4	Zn	2.422619	0.113327	0.823932
Zn5	Zn	1.725201	-0.245203	0.350507
Zn6	Zn	2.225201	0.254797	0.850507
Zn7	Zn	1.729209	-0.384828	0.549847
Zn8	Zn	2.229209	0.115172	1.049847
O9	O	1.832531	-0.309656	0.442551
O10	O	2.332531	0.190344	0.942551
O11	O	2.125371	-0.234800	0.503704
O12	O	2.625371	0.265200	1.003704
O13	O	1.881999	-0.378424	0.151131
O14	O	2.381999	0.121576	0.651131
O15	O	1.766509	-0.114731	0.385906
O16	O	2.266509	0.385269	0.885906
O17	O	2.102980	-0.355845	0.340613
O18	O	2.602980	0.144155	0.840613
O19	O	1.933943	-0.097623	0.529473
O20	O	2.433943	0.402377	1.029473
O21	O	1.736957	-0.274487	0.170656
O22	O	2.236957	0.225513	0.670656
O23	O	1.549415	-0.272698	0.389716
O24	O	2.049415	0.227302	0.889716
O25	O	1.773340	-0.352701	0.725651
O26	O	2.273340	0.147299	1.225651
O27	O	1.552359	-0.375280	0.536170
O28	O	2.052359	0.124720	1.036170
O29	O	1.937829	-0.233012	0.722765
O30	O	2.437829	0.266988	1.222765
O31	O	1.885886	-0.513812	0.344423
O32	O	2.385886	-0.013812	0.844423
O33	O	1.743788	-0.512457	0.510402
O34	O	2.243788	-0.012457	1.010402
C35	C	1.505170	-0.326316	0.466254
C36	C	2.005170	0.173684	0.966254
C37	C	1.365124	-0.333464	0.476422
C38	C	1.865124	0.166536	0.976422
C39	C	1.812001	-0.546160	0.424980
C40	C	2.312001	-0.046160	0.924980
C41	C	1.803336	-0.647329	0.417497
C42	C	2.303336	-0.147329	0.917497
C43	C	1.961296	-0.819469	0.553114
C44	C	2.461296	-0.319469	1.053114
C45	C	1.953160	-0.914526	0.546087
C46	C	2.453160	-0.414526	1.046087
C47	C	1.778923	-0.932502	0.396423
C48	C	2.278923	-0.432502	0.896423
C49	C	1.787059	-0.837445	0.403450
C50	C	2.287059	-0.337445	0.903450
C51	C	1.878250	-0.780931	0.481797
C52	C	2.378250	-0.280931	0.981797
C53	C	1.886391	-0.685873	0.488816
C54	C	2.386391	-0.185873	0.988816
C55	C	1.712149	-0.703850	0.339161
C56	C	2.212149	-0.203850	0.839161
C57	C	1.704013	-0.798907	0.332133
C58	C	2.204013	-0.298907	0.832133
C59	C	2.161171	-0.292931	0.418756
C60	C	2.661171	0.207069	0.918756
C61	C	2.301218	-0.285804	0.408616
C62	C	2.801218	0.214196	0.908616
C63	C	1.859431	-0.290053	0.771206
C64	C	2.359431	0.209947	1.271206
C65	C	1.870895	-0.281699	0.911259
C66	C	2.370895	0.218301	1.411259
C67	C	1.853179	-0.072224	0.460215
C68	C	2.353179	0.427776	0.960215
C69	C	1.861977	0.028955	0.467743
C70	C	2.361977	0.528955	0.967743
C71	C	1.805814	-0.329113	0.115174
C72	C	2.305814	0.170887	0.615174
C73	C	1.794617	-0.337197	-0.024877
C74	C	2.294617	0.162803	0.475123
H75	H	1.312690	-0.379744	0.542250
H76	H	1.812690	0.120256	1.042250
H77	H	1.353645	-0.239533	0.342784
H78	H	1.853645	0.260467	0.842784
Cl79	Cl	1.680254	-0.420429	0.894119
Cl80	Cl	2.180254	0.079571	1.394119
H81	H	1.960646	-0.639860	0.552606
H82	H	2.460646	-0.139860	1.052606
H83	H	2.035555	-0.773454	0.616897
H84	H	2.535555	-0.273454	1.116897
Cl85	Cl	1.985277	-0.198473	0.992265
Cl86	Cl	2.485277	0.301527	1.492265
Cl87	Cl	1.589372	-0.869961	0.233656
Cl88	Cl	2.089372	-0.369961	0.733656
Cl89	Cl	2.057562	-0.962970	0.635750
Cl90	Cl	2.557562	-0.462970	1.135750
H91	H	1.704675	-0.978531	0.332644
H92	H	2.204675	-0.478531	0.832644
H93	H	1.644531	-0.672463	0.281085
H94	H	2.144531	-0.172463	0.781085
