data_functionalizedCrystal
_audit_creation_method	'MofGen! by Chris Wilmer'
_symmetry_space_group_name_H-M	'P1'
_symmetry_Int_Tables_number	1
_symmetry_cell_setting	triclinic
loop_
_symmetry_equiv_pos_as_xyz
  x,y,z
_cell_length_a	12.827893
_cell_length_b	14.908520
_cell_length_c	14.908854
_cell_angle_alpha	90.221665
_cell_angle_beta	86.719798
_cell_angle_gamma	93.320575
loop_
_atom_site_label
_atom_site_type_symbol
_atom_site_fract_x
_atom_site_fract_y
_atom_site_fract_z
Zn1	Zn	1.540281	-0.328613	0.529007
Zn2	Zn	1.538996	-0.487666	0.387321
Zn3	Zn	1.374993	-0.337325	0.378670
Zn4	Zn	1.354862	-0.478933	0.537634
O5	O	1.452283	-0.408134	0.458158
O6	O	1.686346	-0.349721	0.510222
O7	O	1.525128	-0.475025	0.260350
O8	O	1.405881	-0.210342	0.391382
O9	O	1.685402	-0.466577	0.406126
O10	O	1.527318	-0.203942	0.501834
O11	O	1.404635	-0.364570	0.253994
O12	O	1.226088	-0.356101	0.399747
O13	O	1.371571	-0.451691	0.662313
O14	O	1.211298	-0.460139	0.516537
O15	O	1.507798	-0.341252	0.655975
O16	O	1.505608	-0.612335	0.414491
O17	O	1.370326	-0.605919	0.524925
C18	C	1.180776	-0.408118	0.458140
C19	C	1.064621	-0.408132	0.458155
C20	C	1.005544	-0.459703	0.515867
C21	C	0.885492	-0.459718	0.515884
C22	C	1.435670	-0.641751	0.471602
C23	C	1.428657	-0.741692	0.477384
C24	C	1.556479	-0.936106	0.373346
C25	C	1.549893	-1.030009	0.378775
C26	C	1.408904	-1.023403	0.493676
C27	C	1.415490	-0.929500	0.488247
C28	C	1.489279	-0.885855	0.428079
C29	C	1.495860	-0.791950	0.422645
C30	C	1.354876	-0.785345	0.537550
C31	C	1.348290	-0.879249	0.542980
C32	C	1.724851	-0.408152	0.458177
C33	C	1.841003	-0.408159	0.458185
C34	C	1.437583	-0.394526	0.692681
C35	C	1.431318	-0.388727	0.792621
C36	C	1.468988	-0.173604	0.444681
C37	C	1.476107	-0.073661	0.438937
C38	C	1.466991	-0.421625	0.224544
C39	C	1.473476	-0.427171	0.124590
C40	C	1.545040	-0.492844	0.987038
C41	C	1.539157	-0.487398	1.080940
C42	C	1.413676	-0.372385	1.074330
C43	C	1.419559	-0.377831	0.980427
C44	C	1.485242	-0.438063	0.936785
C45	C	1.491118	-0.443513	0.842881
C46	C	1.365643	-0.328496	0.836271
C47	C	1.359761	-0.323050	0.930174
H48	H	1.026320	-0.363987	0.408761
H49	H	1.300155	-0.744420	0.582115
H50	H	1.288216	-0.914797	0.591970
H51	H	1.306286	-0.274009	0.965720
C52	C	1.562528	-0.508932	0.795659
C53	C	1.613658	-0.555722	0.859771
C54	C	1.679462	-0.615985	0.816307
H55	H	1.522171	-0.550315	0.761279
H56	H	1.612857	-0.476681	0.757073
H57	H	1.563337	-0.587972	0.898342
H58	H	1.654035	-0.514363	0.894154
H59	H	1.729790	-0.583734	0.777720
H60	H	1.639097	-0.657362	0.781928
H61	H	1.714169	-0.647734	0.859799
C62	C	0.908820	-0.349430	0.392251
C63	C	0.971489	-0.403640	0.337521
C64	C	1.033993	-0.349570	0.276781
H65	H	0.865462	-0.317068	0.355967
H66	H	0.952083	-0.308349	0.424464
H67	H	0.928230	-0.444705	0.305310
H68	H	1.014868	-0.436001	0.373780
H69	H	1.077257	-0.308489	0.308994
H70	H	0.990628	-0.317211	0.240503
H71	H	1.076529	-0.386343	0.239645
H72	H	1.360207	-0.323341	1.109879
C73	C	1.604121	-0.546984	1.135346
C74	C	1.662880	-0.600910	1.077024
C75	C	1.722731	-0.655822	1.127110
H76	H	1.649891	-0.510565	1.170013
H77	H	1.559084	-0.584087	1.174208
H78	H	1.707913	-0.563811	1.038177
H79	H	1.617137	-0.637348	1.042355
H80	H	1.677693	-0.692926	1.165972
H81	H	1.768494	-0.619396	1.161775
H82	H	1.762598	-0.692423	1.087546
H83	H	0.834715	-0.503873	0.565291
C84	C	1.328959	-1.070915	0.559057
C85	C	1.380689	-1.121426	0.619831
C86	C	1.307078	-1.165217	0.680064
H87	H	1.289837	-1.027642	0.590973
H88	H	1.283065	-1.109646	0.526771
H89	H	1.426565	-1.082698	0.652113
H90	H	1.419807	-1.164715	0.587940
H91	H	1.261184	-1.203949	0.647778
H92	H	1.267959	-1.121938	0.711973
H93	H	1.342165	-1.199501	0.721301
C94	C	1.623007	-1.084588	0.319518
C95	C	1.682982	-1.135431	0.373620
C96	C	1.750377	-1.185701	0.319070
H97	H	1.583115	-1.123627	0.282398
H98	H	1.667951	-1.045153	0.282943
H99	H	1.638044	-1.174861	0.410179
H100	H	1.722896	-1.096414	0.410738
H101	H	1.795320	-1.146266	0.282495
H102	H	1.710476	-1.224735	0.281953
H103	H	1.791084	-1.220197	0.355770
H104	H	1.555939	-0.756416	0.373651
H105	H	1.616554	-0.900570	0.324348
H106	H	1.043845	-0.503841	0.565267
H107	H	1.598527	-0.541883	0.951504
C108	C	1.300529	-0.269122	0.781765
C109	C	1.194311	-0.287393	0.805717
C110	C	1.134294	-0.232728	0.755517
H111	H	1.319023	-0.207785	0.793643
H112	H	1.313363	-0.280998	0.719580
H113	H	1.181482	-0.275510	0.867887
H114	H	1.175785	-0.348721	0.793836
H115	H	1.147128	-0.244605	0.693333
H116	H	1.152797	-0.171394	0.767399
H117	H	1.062218	-0.245124	0.771756
