data_functionalizedCrystal
_audit_creation_method	'MofGen! by Chris Wilmer'
_symmetry_space_group_name_H-M	'P1'
_symmetry_Int_Tables_number	1
_symmetry_cell_setting	triclinic
loop_
_symmetry_equiv_pos_as_xyz
  x,y,z
_cell_length_a	16.974885
_cell_length_b	15.455341
_cell_length_c	17.699083
_cell_angle_alpha	87.004927
_cell_angle_beta	83.338128
_cell_angle_gamma	83.352751
loop_
_atom_site_label
_atom_site_type_symbol
_atom_site_fract_x
_atom_site_fract_y
_atom_site_fract_z
O1	O	1.049011	-0.001437	0.096496
O2	O	0.818090	0.014760	0.108126
O3	O	0.940075	0.006197	-0.007854
O4	O	0.927026	0.007127	0.212477
O5	O	0.946262	-0.138498	-0.001933
O6	O	0.824277	-0.129935	0.114047
O7	O	1.055198	-0.146131	0.102417
Cu8	Cu	0.940302	-0.151245	0.108773
Cu9	Cu	0.932985	0.019874	0.101771
O10	O	0.933213	-0.137568	0.218398
C11	C	0.791637	-0.055515	0.110535
C12	C	0.703600	-0.049340	0.108883
C13	C	0.207682	-0.006057	0.099209
C14	C	0.290403	-0.011870	0.100762
C15	C	0.335127	-0.093651	0.104772
C16	C	0.297128	-0.169623	0.107221
C17	C	0.214409	-0.163809	0.105662
C18	C	0.582882	-0.119498	0.109774
C19	C	0.665606	-0.125307	0.111334
C20	C	0.658875	0.032447	0.104874
C21	C	0.576154	0.038254	0.103320
C22	C	0.538163	-0.037718	0.105766
N23	N	0.419681	-0.099595	0.106361
N24	N	0.453611	-0.031773	0.104170
N25	N	0.945455	-0.271601	0.113698
C26	C	0.973898	-0.817598	0.140993
C27	C	0.970006	-0.726518	0.137264
C28	C	0.920059	-0.677613	0.089376
C29	C	0.873994	-0.719792	0.045221
C30	C	0.877883	-0.810870	0.048955
C31	C	0.903278	-0.404858	0.073277
C32	C	0.899395	-0.313774	0.069544
C33	C	0.995407	-0.320506	0.161588
C34	C	0.999294	-0.411586	0.165315
C35	C	0.953227	-0.453757	0.121163
N36	N	0.916081	-0.584514	0.085561
N37	N	0.957201	-0.546853	0.124983
C38	C	1.081650	-0.075854	0.100008
C39	C	1.169687	-0.082023	0.101660
C40	C	0.942701	-0.066118	-0.033092
C41	C	0.941298	-0.066020	-0.117116
N42	N	0.927839	0.140229	0.096840
C43	C	1.012901	-0.071043	-0.165481
C44	C	1.011578	-0.070943	-0.244430
C45	C	0.938651	-0.065825	-0.275010
C46	C	0.867043	-0.060799	-0.226638
C47	C	0.868367	-0.060893	-0.147692
C48	C	0.861704	-0.060417	-0.545021
C49	C	0.860386	-0.060326	-0.623973
C50	C	1.004915	-0.070467	-0.641759
C51	C	1.006238	-0.070561	-0.562812
C52	C	0.934630	-0.065531	-0.514447
C53	C	0.936066	-0.065638	-0.428843
C54	C	0.937216	-0.065724	-0.360613
C55	C	0.930587	-0.065251	0.243636
C56	C	0.931989	-0.065343	0.327659
H57	H	0.183474	-0.225669	0.107666
Cl58	Cl	1.027885	-0.673502	0.192799
H59	H	1.039968	-0.451398	0.204309
Cl60	Cl	0.836625	-0.252296	0.009314
H61	H	0.865769	-0.439183	0.037323
H62	H	0.689817	0.094299	0.102882
Cl63	Cl	0.771682	-0.054090	-0.484230
Cl64	Cl	1.101597	-0.077261	-0.305230
Cl65	Cl	0.768700	-0.053890	-0.662416
Cl66	Cl	1.097920	-0.076992	-0.524373
H67	H	0.833322	-0.679966	0.006233
Cl68	Cl	1.104585	-0.077486	-0.127045
Cl69	Cl	0.775364	-0.054354	-0.265083
H70	H	0.810061	-0.056802	-0.108313
Cl71	Cl	1.094938	-0.076788	-0.702565
H72	H	0.171272	0.060538	0.095949
Cl73	Cl	1.053313	-0.267485	0.217093
Cl74	Cl	0.353353	-0.272434	0.112260
Cl75	Cl	0.819974	-0.863888	-0.006552
H76	H	0.321334	0.049990	0.098761
H77	H	0.539745	0.104849	0.100054
H78	H	0.551960	-0.181360	0.111754
Cl79	Cl	0.721830	-0.228124	0.116374
H80	H	1.014574	-0.857410	0.179986
