data_functionalizedCrystal
_audit_creation_method	'MofGen! by Chris Wilmer'
_symmetry_space_group_name_H-M	'P1'
_symmetry_Int_Tables_number	1
_symmetry_cell_setting	triclinic
loop_
_symmetry_equiv_pos_as_xyz
  x,y,z
_cell_length_a	13.635800
_cell_length_b	10.992723
_cell_length_c	11.102300
_cell_angle_alpha	88.113369
_cell_angle_beta	108.605850
_cell_angle_gamma	71.229715
loop_
_atom_site_label
_atom_site_type_symbol
_atom_site_fract_x
_atom_site_fract_y
_atom_site_fract_z
V1	V	2.056196	-0.177762	0.396245
O2	O	2.035261	0.008543	0.388714
O3	O	2.045008	-0.352473	0.393524
O4	O	2.044580	-0.175028	0.569067
O5	O	2.035692	-0.170131	0.211956
V6	V	2.294693	-0.155478	0.374204
O7	O	2.193986	-0.226645	0.444594
O8	O	2.382003	-0.106596	0.325855
O9	O	2.194278	0.019233	0.376925
O10	O	2.374327	-0.341783	0.381736
O11	O	2.373896	-0.163109	0.558493
O12	O	2.194706	-0.158213	0.201383
V13	V	2.556196	-0.177762	0.396245
O14	O	2.535261	0.008543	0.388714
O15	O	2.545008	-0.352473	0.393524
O16	O	2.544580	-0.175028	0.569067
O17	O	2.535692	-0.170131	0.211956
V18	V	2.794693	-0.155478	0.374204
O19	O	2.693986	-0.226645	0.444594
O20	O	2.882003	-0.106596	0.325855
O21	O	2.694278	0.019233	0.376925
O22	O	2.874327	-0.341783	0.381736
O23	O	2.873896	-0.163109	0.558493
O24	O	2.694706	-0.158213	0.201383
C25	C	1.970267	-0.395064	0.387270
C26	C	2.001847	-0.537892	0.386198
C27	C	2.157799	-0.748833	0.391848
C28	C	2.125157	-0.600354	0.393455
C29	C	1.990103	-0.607104	0.503910
C30	C	2.023687	-0.755778	0.502940
C31	C	1.958578	-0.717503	0.259979
C32	C	1.927402	-0.568782	0.259633
C33	C	1.969720	-0.168713	0.611190
C34	C	2.000950	-0.167633	0.752473
C35	C	2.100691	0.061817	0.383176
C36	C	2.058730	0.204644	0.384257
C37	C	2.101237	-0.164532	0.159252
C38	C	2.059626	-0.165605	0.017969
C39	C	2.470267	-0.395064	0.387270
C40	C	2.501847	-0.537892	0.386198
C41	C	2.469720	-0.168713	0.611190
C42	C	2.500950	-0.167633	0.752473
C43	C	2.107644	-0.173543	0.825321
C44	C	2.136981	-0.172524	0.958070
C45	C	1.952922	-0.159691	0.945110
C46	C	1.923584	-0.160701	0.812362
C47	C	2.600691	0.061817	0.383176
C48	C	2.558730	0.204644	0.384257
C49	C	2.601237	-0.164532	0.159252
C50	C	2.559626	-0.165605	0.017969
C51	C	2.608703	-0.611537	0.392034
C52	C	2.638372	-0.745741	0.391036
C53	C	2.454317	-0.732641	0.378360
C54	C	2.424652	-0.598441	0.379367
C55	C	2.607644	-0.173543	0.825321
C56	C	2.636981	-0.172524	0.958070
C57	C	2.452922	-0.159691	0.945110
C58	C	2.423584	-0.160701	0.812362
H59	H	2.137808	-0.553203	0.309320
H60	H	2.389938	-0.154049	0.993889
H61	H	2.337635	-0.538478	0.374619
C62	C	1.806221	-0.154215	0.732220
H63	H	1.799828	-0.155799	0.644583
H64	H	1.792647	-0.226687	0.762919
H65	H	1.753782	-0.076135	0.739701
H66	H	2.391472	-0.781956	0.372796
H67	H	2.170641	-0.179186	0.776563
H68	H	2.670641	-0.179186	0.776563
H69	H	2.671561	-0.562242	0.397594
C70	C	2.754345	-0.179035	1.038199
H71	H	2.796217	-0.183319	0.983516
H72	H	2.750196	-0.103638	1.078650
H73	H	2.789039	-0.254189	1.101858
C74	C	2.254342	-0.179028	1.038204
H75	H	2.260735	-0.177420	1.125840
H76	H	2.306773	-0.257102	1.030719
H77	H	2.267915	-0.106550	1.007500
C78	C	2.306217	-0.154205	0.732224
H79	H	2.264347	-0.149950	0.786906
H80	H	2.271520	-0.079062	0.668564
H81	H	2.310381	-0.229613	0.691779
C82	C	1.804091	-0.509270	0.242506
H83	H	1.796361	-0.464615	0.312638
H84	H	1.765772	-0.450030	0.164494
H85	H	1.774067	-0.576469	0.239854
C86	C	2.755911	-0.826744	0.397447
H87	H	2.797628	-0.771457	0.401650
H88	H	2.790591	-0.891104	0.471774
H89	H	2.752026	-0.867628	0.322852
H90	H	2.186776	-0.774000	0.307211
H91	H	2.231995	-0.802970	0.481508
H92	H	2.183565	-0.581708	0.484281
C93	C	2.118941	-0.825790	0.629352
H94	H	2.136792	-0.763281	0.680811
H95	H	2.096939	-0.880925	0.674561
H96	H	2.181873	-0.876338	0.610666
H97	H	1.951486	-0.786809	0.502614
H98	H	1.901666	-0.566667	0.503072
H99	H	2.043724	-0.586919	0.597567
H100	H	1.978529	-0.742960	0.169737
H101	H	1.936530	-0.522188	0.172475
H102	H	1.889938	-0.154049	0.993889
C103	C	1.858118	-0.756953	0.250872
H104	H	1.877065	-0.820550	0.322409
H105	H	1.798371	-0.682744	0.251008
H106	H	1.836961	-0.791936	0.173587
