data_functionalizedCrystal
_audit_creation_method	'MofGen! by Chris Wilmer'
_symmetry_space_group_name_H-M	'P1'
_symmetry_Int_Tables_number	1
_symmetry_cell_setting	triclinic
loop_
_symmetry_equiv_pos_as_xyz
  x,y,z
_cell_length_a	17.699097
_cell_length_b	15.625429
_cell_length_c	16.776229
_cell_angle_alpha	71.916203
_cell_angle_beta	89.989262
_cell_angle_gamma	83.782849
loop_
_atom_site_label
_atom_site_type_symbol
_atom_site_fract_x
_atom_site_fract_y
_atom_site_fract_z
O1	O	1.004369	0.114065	-0.099321
O2	O	1.504369	0.614065	0.400679
O3	O	0.784030	0.128885	-0.103591
O4	O	1.284030	0.628885	0.396409
O5	O	0.900084	-0.009776	-0.063518
O6	O	1.400084	0.490224	0.436482
O7	O	0.888314	0.252726	-0.139394
O8	O	1.388314	0.752726	0.360606
O9	O	0.900069	-0.009784	0.069061
O10	O	1.400069	0.490216	0.569061
O11	O	0.784015	0.128877	0.028988
O12	O	1.284015	0.628877	0.528988
O13	O	1.004353	0.114056	0.033258
O14	O	1.504353	0.614056	0.533258
Zn15	Zn	0.894181	0.121465	0.052173
Zn16	Zn	1.394181	0.621465	0.552173
Zn17	Zn	0.894202	0.121476	-0.122505
Zn18	Zn	1.394202	0.621476	0.377495
O19	O	0.888299	0.252717	-0.006815
O20	O	1.388299	0.752717	0.493185
C21	C	0.755824	0.128348	-0.037146
C22	C	1.255824	0.628348	0.462854
C23	C	0.671802	0.126748	-0.036678
C24	C	1.171802	0.626748	0.463322
C25	C	0.156067	0.116951	-0.106146
C26	C	0.656067	0.616951	0.393854
C27	C	0.235015	0.118447	-0.106575
C28	C	0.735015	0.618447	0.393425
C29	C	0.274475	0.119192	-0.034519
C30	C	0.774475	0.619192	0.465481
C31	C	0.234983	0.118432	0.037972
C32	C	0.734983	0.618432	0.537972
C33	C	0.156037	0.116929	0.038402
C34	C	0.656037	0.616929	0.538402
C35	C	0.553363	0.124491	0.036242
C36	C	1.053363	0.624491	0.536242
C37	C	0.632314	0.125997	0.035806
C38	C	1.132314	0.625997	0.535806
C39	C	0.632341	0.126010	-0.108735
C40	C	1.132341	0.626010	0.391265
C41	C	0.553395	0.124507	-0.108305
C42	C	1.053395	0.624507	0.391695
C43	C	0.513911	0.123742	-0.035813
C44	C	1.013911	0.623742	0.464187
C45	C	0.428307	0.122117	-0.035349
C46	C	0.928307	0.622117	0.464651
C47	C	0.360077	0.120823	-0.034985
C48	C	0.860077	0.620823	0.465015
C49	C	0.899543	-0.043367	0.012478
C50	C	1.399543	0.456633	0.512478
C51	C	0.897945	-0.143445	0.041401
C52	C	1.397945	0.356555	0.541401
C53	C	0.892707	-0.472565	-0.224790
C54	C	1.392707	0.027435	0.275210
C55	C	0.891202	-0.566603	-0.197588
C56	C	1.391202	-0.066603	0.302412
C57	C	0.891185	-0.566599	-0.053060
C58	C	1.391185	-0.066599	0.446940
C59	C	0.892695	-0.472560	-0.080250
C60	C	1.392695	0.027440	0.419750
C61	C	0.893455	-0.425550	-0.166116
C62	C	1.393455	0.074450	0.333884
C63	C	0.893442	-0.425545	-0.021575
C64	C	1.393442	0.074455	0.478425
C65	C	0.894947	-0.331513	-0.048763
C66	C	1.394947	0.168487	0.451237
C67	C	0.895705	-0.284497	-0.134626
C68	C	1.395705	0.215503	0.365374
C69	C	0.894960	-0.331519	-0.193304
C70	C	1.394960	0.168481	0.306696
C71	C	0.892676	-0.472555	0.064290
C72	C	1.392676	0.027445	0.564290
C73	C	0.893423	-0.425540	0.122965
C74	C	1.393423	0.074460	0.622965
C75	C	0.894934	-0.331507	0.095777
C76	C	1.394934	0.168493	0.595777
C77	C	0.895692	-0.284491	0.009915
C78	C	1.395692	0.215509	0.509915
C79	C	0.895679	-0.284485	0.154455
C80	C	1.395679	0.215515	0.654455
C81	C	0.897184	-0.190454	0.127267
C82	C	1.397184	0.309546	0.627267
C83	C	0.897197	-0.190460	-0.017273
C84	C	1.397197	0.309540	0.482727
C85	C	1.032559	0.114594	-0.033189
C86	C	1.532559	0.614594	0.466811
C87	C	1.116581	0.116193	-0.033661
C88	C	1.616581	0.616193	0.466339
C89	C	0.888840	0.286308	-0.082813
C90	C	1.388840	0.786308	0.417187
C91	C	0.890439	0.386386	-0.111740
C92	C	1.390439	0.886386	0.388260
N93	N	0.894173	0.121457	0.171387
N94	N	1.394173	0.621457	0.671387
N95	N	0.894216	0.121477	-0.241717
N96	N	1.394216	0.621477	0.258283
C97	C	0.945578	0.060083	0.230841
C98	C	1.445578	0.560083	0.730841
C99	C	0.945582	0.060082	0.314293
C100	C	1.445582	0.560082	0.814293
C101	C	0.894185	0.121460	0.338289
C102	C	1.394185	0.621460	0.838289
C103	C	0.842775	0.182837	0.278828
C104	C	1.342775	0.682837	0.778828
C105	C	0.842767	0.182833	0.195378
C106	C	1.342767	0.682833	0.695378
C107	C	0.842802	0.182855	0.615370
C108	C	1.342802	0.682855	1.115370
C109	C	0.842815	0.182856	0.698826
C110	C	1.342815	0.682856	1.198826
C111	C	0.945617	0.060104	0.734285
C112	C	1.445617	0.560104	1.234285
C113	C	0.945609	0.060100	0.650835
C114	C	1.445609	0.560100	1.150835
C115	C	0.894197	0.121473	0.591383
C116	C	1.394197	0.621473	1.091383
C117	C	0.894192	0.121472	0.500895
C118	C	1.394192	0.621472	1.000895
C119	C	0.894193	0.121466	0.428774
C120	C	1.394193	0.621466	0.928774
H121	H	0.123944	0.116350	-0.164824
H122	H	0.623944	0.616350	0.335176
H123	H	0.800942	0.232829	0.566969
H124	H	1.300942	0.732829	1.066969
F125	F	0.276981	0.119222	0.114660
F126	F	0.776981	0.619222	0.614660
H127	H	0.890563	-0.604886	0.016852
H128	H	1.390563	-0.104886	0.516852
H129	H	0.800958	0.232840	0.718359
H130	H	1.300958	0.732840	1.218359
F131	F	0.898017	-0.140425	-0.108662
F132	F	1.398017	0.359575	0.391338
F133	F	0.674370	0.126819	-0.185887
F134	F	1.174370	0.626819	0.314113
H135	H	0.800922	0.232810	0.298370
H136	H	1.300922	0.732810	0.798370
H137	H	0.987464	0.010123	0.631302
H138	H	1.487464	0.510123	1.131302
H139	H	0.987477	0.010128	0.782702
H140	H	1.487477	0.510128	1.282702
H141	H	0.664440	0.126604	0.094485
H142	H	1.164440	0.626604	0.594485
F143	F	0.788053	0.248153	0.132103
F144	F	1.288053	0.748153	0.632103
H145	H	0.267162	0.119059	-0.165597
H146	H	0.767162	0.619059	0.334403
F147	F	0.897983	-0.140415	0.189715
F148	F	1.397983	0.359585	0.689715
F149	F	0.511403	0.123719	-0.184997
F150	F	1.011403	0.623719	0.315003
F151	F	0.114014	0.116116	0.115552
F152	F	0.614014	0.616116	0.615552
H153	H	0.893333	-0.434289	-0.294711
H154	H	1.393333	0.065711	0.205289
H155	H	0.521226	0.123855	0.095273
H156	H	1.021226	0.623855	0.595273
F157	F	0.897309	-0.184419	-0.163562
F158	F	1.397309	0.315581	0.336438
F159	F	0.891072	-0.572632	0.093224
F160	F	1.391072	-0.072632	0.593224
H161	H	0.895586	-0.293242	-0.263224
H162	H	1.395586	0.206758	0.236776
H163	H	0.987434	0.010106	0.211310
H164	H	1.487434	0.510106	0.711310
H165	H	0.890586	-0.604878	-0.245375
H166	H	1.390586	-0.104878	0.254625
F167	F	0.892608	-0.475579	0.214347
F168	F	1.392608	0.024421	0.714347
F169	F	0.894857	-0.334526	0.245836
F170	F	1.394857	0.165474	0.745836
F171	F	1.000291	-0.005240	0.377570
F172	F	1.500291	0.494760	0.877570
