data_functionalizedCrystal
_audit_creation_method	'MofGen! by Chris Wilmer'
_symmetry_space_group_name_H-M	'P1'
_symmetry_Int_Tables_number	1
_symmetry_cell_setting	triclinic
loop_
_symmetry_equiv_pos_as_xyz
  x,y,z
_cell_length_a	6.817900
_cell_length_b	7.190334
_cell_length_c	11.102183
_cell_angle_alpha	92.055521
_cell_angle_beta	108.603876
_cell_angle_gamma	60.611776
loop_
_atom_site_label
_atom_site_type_symbol
_atom_site_fract_x
_atom_site_fract_y
_atom_site_fract_z
V1	V	-4.248748	0.664997	-0.173812
O2	O	-4.205181	0.652342	0.010438
O3	O	-4.224575	0.660445	-0.346645
O4	O	-4.285380	0.955027	-0.170223
O5	O	-4.143955	0.355721	-0.167206
V6	V	-4.718219	0.628006	-0.151881
O7	O	-4.540832	0.746141	-0.221917
O8	O	-4.876332	0.546862	-0.103775
O9	O	-4.519185	0.632557	0.020952
O10	O	-4.879183	0.640661	-0.336131
O11	O	-4.940409	0.937282	-0.158487
O12	O	-4.458380	0.337976	-0.155470
C13	C	-4.072719	0.649954	-0.388807
C14	C	-4.134808	0.648165	-0.530095
C15	C	-4.150291	1.025719	-0.163756
C16	C	-4.263777	1.267276	-0.161930
C17	C	-3.933837	0.257514	-0.495008
C18	C	-3.862520	0.061356	-0.543841
C19	C	-3.920869	0.059687	-0.676594
C20	C	-4.050553	0.254198	-0.760519
C21	C	-4.121870	0.450356	-0.711686
C22	C	-4.063503	0.452003	-0.578928
C23	C	-4.322853	0.841004	-0.746773
C24	C	-4.264492	0.842676	-0.614020
C25	C	-4.452538	1.035514	-0.830698
C26	C	-4.523843	1.231677	-0.781865
C27	C	-4.465484	1.233337	-0.649103
C28	C	-4.335809	1.038835	-0.565187
C29	C	-4.334383	0.643043	0.063107
C30	C	-4.251536	0.644845	0.204394
H31	H	-3.886256	0.258850	-0.386910
H32	H	-4.523591	1.393075	-0.609354
H33	H	-3.862801	-0.100042	-0.716353
H34	H	-3.756933	-0.097010	-0.475495
C35	C	-4.024736	0.039119	-0.931584
C36	C	-4.114707	0.252365	-0.906444
H37	H	-4.064335	0.037995	-1.021673
H38	H	-4.093544	-0.025822	-0.899189
H39	H	-3.855300	-0.039429	-0.890954
H40	H	-4.284145	0.330909	-0.947067
H41	H	-4.045907	0.317335	-0.938854
C42	C	-4.415227	1.129468	-1.024338
C43	C	-4.516662	1.033684	-0.976622
H44	H	-4.454822	1.128349	-1.114427
H45	H	-4.245816	1.050906	-0.983705
H46	H	-4.476286	1.274128	-1.007260
H47	H	-4.455589	0.889019	-0.993692
H48	H	-4.686108	1.112244	-1.017269
C49	C	-4.881668	1.466440	-0.957580
C50	C	-4.666384	1.445459	-0.874117
H51	H	-4.969657	1.598417	-1.014540
H52	H	-4.973819	1.465786	-0.909169
H53	H	-4.847521	1.349360	-1.005648
H54	H	-4.700531	1.562532	-0.826042
H55	H	-4.574215	1.446133	-0.922533
C56	C	-4.482540	1.157586	-0.390644
C57	C	-4.271674	1.040668	-0.419262
H58	H	-4.442942	1.158722	-0.300556
H59	H	-4.577708	1.091852	-0.418310
H60	H	-4.569955	1.301490	-0.433643
H61	H	-4.184266	0.896759	-0.376271
H62	H	-4.176467	1.106397	-0.391582
