data_functionalizedCrystal
_audit_creation_method	'MofGen! by Chris Wilmer'
_symmetry_space_group_name_H-M	'P1'
_symmetry_Int_Tables_number	1
_symmetry_cell_setting	triclinic
loop_
_symmetry_equiv_pos_as_xyz
  x,y,z
_cell_length_a	19.077105
_cell_length_b	29.839131
_cell_length_c	19.077174
_cell_angle_alpha	92.270061
_cell_angle_beta	85.483752
_cell_angle_gamma	87.737628
loop_
_atom_site_label
_atom_site_type_symbol
_atom_site_fract_x
_atom_site_fract_y
_atom_site_fract_z
Zn1	Zn	1.093604	-0.218280	-0.441818
Zn2	Zn	1.088756	-0.290261	-0.323922
Zn3	Zn	0.970992	-0.212000	-0.319217
Zn4	Zn	0.975650	-0.290232	-0.437040
O5	O	1.032251	-0.252693	-0.380499
O6	O	1.191610	-0.230469	-0.430148
O7	O	1.069156	-0.277264	-0.224649
O8	O	0.987337	-0.149969	-0.335510
O9	O	1.188048	-0.283353	-0.343531
O10	O	1.077420	-0.154583	-0.425585
O11	O	0.982636	-0.219766	-0.221191
O12	O	0.872961	-0.219737	-0.330877
O13	O	0.995275	-0.283303	-0.536324
O14	O	0.876383	-0.277214	-0.417442
O15	O	1.081936	-0.230441	-0.539834
O16	O	1.073672	-0.353121	-0.338898
O17	O	0.990574	-0.353100	-0.422005
C18	C	0.849094	-0.247791	-0.373131
C19	C	0.770739	-0.245705	-0.369995
C20	C	0.735725	-0.274692	-0.413521
C21	C	0.662102	-0.272726	-0.410578
C22	C	0.623495	-0.241776	-0.364105
C23	C	0.658514	-0.212786	-0.320578
C24	C	0.732136	-0.214750	-0.323525
C25	C	0.403119	-0.232687	-0.350470
C26	C	0.329492	-0.230726	-0.347525
C27	C	0.333085	-0.290665	-0.437525
C28	C	0.406708	-0.292628	-0.440465
C29	C	0.441721	-0.263637	-0.396941
N30	N	0.548241	-0.239767	-0.361094
N31	N	0.516973	-0.265644	-0.399956
C32	C	1.032122	-0.369412	-0.380459
C33	C	1.032132	-0.419346	-0.380468
C34	C	1.075605	-0.728996	-0.337295
C35	C	1.075693	-0.916672	-0.337326
O36	O	1.112552	-0.940939	-0.300587
N37	N	1.032399	-0.940141	-0.380559
C38	C	0.989083	-0.916687	-0.423790
O39	O	0.952267	-0.940955	-0.460568
C40	C	0.988999	-0.729012	-0.423763
C41	C	1.032291	-0.705546	-0.380522
C42	C	1.118893	-0.705530	-0.294058
C43	C	1.118868	-0.658614	-0.294048
C44	C	1.075554	-0.635163	-0.337275
C45	C	1.032266	-0.658630	-0.380511
C46	C	0.945688	-0.705560	-0.466997
C47	C	0.945672	-0.658638	-0.466988
C48	C	0.988964	-0.635172	-0.423747
C49	C	0.988926	-0.588263	-0.423728
N50	N	1.032220	-0.564795	-0.380495
C51	C	1.075534	-0.588245	-0.337268
C52	C	0.989129	-1.015219	-0.423801
C53	C	0.989149	-1.062138	-0.423807
C54	C	1.075760	-1.062120	-0.337343
C55	C	1.075736	-1.015200	-0.337334
C56	C	1.032423	-0.991751	-0.380568
C57	C	1.075477	-0.489717	-0.337250
C58	C	1.075446	-0.442797	-0.337242
C59	C	0.988839	-0.442819	-0.423708
C60	C	0.988867	-0.489735	-0.423714
C61	C	1.032192	-0.513183	-0.380483
O62	O	0.952092	-0.563968	-0.460453
O63	O	1.112357	-0.563970	-0.300507
C64	C	1.075630	-0.775913	-0.337305
C65	C	1.032341	-0.799379	-0.380542
C66	C	0.989028	-0.775929	-0.423769
C67	C	1.032361	-0.846297	-0.380548
C68	C	1.075675	-0.869747	-0.337321
C69	C	1.118969	-0.846279	-0.294088
C70	C	1.118944	-0.799363	-0.294078
C71	C	0.945734	-0.799397	-0.467001
C72	C	0.945762	-0.846313	-0.467007
C73	C	0.989076	-0.869763	-0.423781
C74	C	1.216123	-0.257615	-0.387897
C75	C	1.294478	-0.259712	-0.391050
C76	C	1.039666	-0.257569	-0.564373
C77	C	1.042826	-0.259647	-0.642729
C78	C	1.032400	-0.135520	-0.380556
C79	C	1.032463	-0.085588	-0.380580
C80	C	0.999266	-0.230687	-0.677740
C81	C	1.002232	-0.232643	-0.751363
C82	C	1.048762	-0.263557	-0.789974
C83	C	1.092324	-0.292519	-0.754958
C84	C	1.089354	-0.290565	-0.681336
C85	C	1.062473	-0.272613	-1.010355
C86	C	1.065442	-0.274564	-1.083982
C87	C	0.975348	-0.214688	-1.080382
C88	C	0.972385	-0.212735	-1.006759
C89	C	1.015944	-0.241699	-0.971749
N90	N	1.051797	-0.265556	-0.865230
N91	N	1.012905	-0.239702	-0.896495
C92	C	1.024905	-0.247805	-0.197343
C93	C	1.021882	-0.245605	-0.118993
H94	H	0.760643	-0.191144	-0.288086
O95	O	0.947013	-1.084946	-0.465702
C96	C	0.852256	-1.135701	-0.471303
C97	C	0.899914	-1.109889	-0.423768
H98	H	0.814175	-1.155881	-0.437419
H99	H	0.821247	-1.110895	-0.502182
H100	H	0.886104	-1.159459	-0.509511
H101	H	0.866119	-1.086130	-0.385520
H102	H	0.930927	-1.134721	-0.392938
H103	H	1.110988	-0.996097	-0.302124
O104	O	1.131599	-0.318676	-0.647212
C105	C	1.166979	-0.342184	-0.535387
C106	C	1.119088	-0.310327	-0.573941
H107	H	1.156891	-0.335439	-0.476142
H108	H	1.155133	-0.378469	-0.549293
H109	H	1.224411	-0.336208	-0.552193
H110	H	1.061640	-0.316263	-0.557156
H111	H	1.130994	-0.274054	-0.560034
O112	O	1.117568	-0.420073	-0.295217
C113	C	1.203444	-0.425014	-0.209426
C114	C	1.155789	-0.450802	-0.256993
H115	H	1.234347	-0.449846	-0.178499
H116	H	1.241620	-0.404870	-0.243265
H117	H	1.169601	-0.401225	-0.171261
H118	H	1.189576	-0.474614	-0.295166
H119	H	1.117608	-0.470916	-0.223110
H120	H	0.304570	-0.314267	-0.472962
H121	H	0.953618	-0.508843	-0.458926
H122	H	0.767154	-0.299896	-0.451361
H123	H	1.097934	-0.296202	-0.981858
O124	O	1.117650	-0.512511	-0.295364
C125	C	1.212481	-0.567717	-0.289796
C126	C	1.164777	-0.541929	-0.337314
H127	H	1.250585	-0.591514	-0.323692
H128	H	1.243463	-0.542897	-0.258916
H129	H	1.178669	-0.587854	-0.251588
H130	H	1.198536	-0.521792	-0.375562
H131	H	1.133791	-0.566772	-0.368144
H132	H	0.939884	-0.191108	-1.108895
H133	H	0.298060	-0.205517	-0.309685
O134	O	0.628199	-0.300934	-0.452877
C135	C	0.639533	-0.360586	-0.542467
C136	C	0.678016	-0.328670	-0.494592
H137	H	0.679793	-0.383012	-0.576217
H138	H	0.603750	-0.382292	-0.508678
H139	H	0.606560	-0.340055	-0.577984
H140	H	0.711026	-0.349165	-0.459067
H141	H	0.713757	-0.306963	-0.528423
H142	H	0.953857	-0.996130	-0.459008
O143	O	0.927142	-0.182767	-0.969178
C144	C	0.828589	-0.171970	-0.882268
C145	C	0.879789	-0.205959	-0.924768
H146	H	0.790282	-0.190709	-0.846363
H147	H	0.859550	-0.148436	-0.849065
H148	H	0.797998	-0.151601	-0.919957
H149	H	0.910392	-0.226360	-0.887130
H150	H	0.848788	-0.229464	-0.957980
H151	H	0.431617	-0.209083	-0.315023
O152	O	1.110734	-0.304575	-1.121420
C153	C	1.231526	-0.330178	-1.148808
C154	C	1.180314	-0.296175	-1.106354
H155	H	1.287794	-0.323393	-1.136653
H156	H	1.218570	-0.365695	-1.133811
H157	H	1.226126	-0.326601	-1.207435
H158	H	1.185686	-0.299711	-1.047716
H159	H	1.193285	-0.260671	-1.121409
H160	H	0.966758	-0.209063	-0.779866
O161	O	1.137504	-0.322510	-0.792571
C162	C	1.181980	-0.352075	-0.907581
C163	C	1.130791	-0.318082	-0.865075
H164	H	1.176559	-0.348513	-0.966208
H165	H	1.238267	-0.345326	-0.895449
H166	H	1.168973	-0.387576	-0.892547
H167	H	1.143732	-0.282568	-0.880085
H168	H	1.074518	-0.324870	-0.877211
H169	H	1.154121	-0.639510	-0.258839
O170	O	0.444102	-0.322706	-0.485672
C171	C	0.439893	-0.381970	-0.574596
C172	C	0.397458	-0.347919	-0.523448
H173	H	0.402199	-0.402370	-0.605141
H174	H	0.475863	-0.363304	-0.612944
H175	H	0.473038	-0.405467	-0.543527
H176	H	0.364272	-0.324413	-0.554458
H177	H	0.361532	-0.366614	-0.485100
H178	H	1.154168	-0.724618	-0.258857
H179	H	0.627075	-0.187584	-0.282742
O180	O	1.117860	-1.084976	-0.295461
C181	C	1.156340	-1.157259	-0.257238
C182	C	1.108610	-1.131427	-0.304678
H183	H	1.148867	-1.194818	-0.264662
H184	H	1.213667	-1.149861	-0.272012
H185	H	1.141782	-1.146216	-0.199874
H186	H	1.123105	-1.142455	-0.362056
H187	H	1.051295	-1.138826	-0.289844
O188	O	0.903617	-0.728279	-0.509071
C189	C	0.817692	-0.723324	-0.594811
C190	C	0.865317	-0.697540	-0.547205
H191	H	0.786703	-0.698482	-0.625644
H192	H	0.851494	-0.747089	-0.633051
H193	H	0.779584	-0.743492	-0.560937
H194	H	0.903433	-0.677347	-0.581022
H195	H	0.831472	-0.673803	-0.508961
O196	O	0.903700	-0.635844	-0.509065
C197	C	0.897951	-0.585103	-0.603813
C198	C	0.945566	-0.610900	-0.556223
H199	H	0.931779	-0.564922	-0.641943
H200	H	0.867030	-0.609918	-0.634770
H201	H	0.859782	-0.561345	-0.569919
H202	H	0.983776	-0.634658	-0.590065
H203	H	0.976437	-0.586060	-0.525262
O204	O	0.946832	-0.419967	-0.465678
C205	C	0.908399	-0.347687	-0.503951
C206	C	0.956012	-0.373513	-0.456393
H207	H	0.915794	-0.310124	-0.496450
H208	H	0.923036	-0.358692	-0.561318
H209	H	0.851075	-0.355128	-0.489255
H210	H	1.013351	-0.366084	-0.471025
H211	H	0.941316	-0.362504	-0.399038
H212	H	1.154235	-0.865380	-0.258889
O213	O	1.161066	-0.776642	-0.252057
C214	C	1.246942	-0.781592	-0.166268
C215	C	1.199282	-0.807375	-0.213836
H216	H	1.277841	-0.806428	-0.135343
H217	H	1.285123	-0.761451	-0.200106
H218	H	1.213104	-0.757802	-0.128101
H219	H	1.233064	-0.831188	-0.252010
H220	H	1.161098	-0.827487	-0.179954
H221	H	0.910503	-0.865415	-0.502219
H222	H	0.910463	-0.780307	-0.502203
H223	H	0.961379	-0.205512	-0.646308
