data_functionalizedCrystal
_audit_creation_method	'MofGen! by Chris Wilmer'
_symmetry_space_group_name_H-M	'P1'
_symmetry_Int_Tables_number	1
_symmetry_cell_setting	triclinic
loop_
_symmetry_equiv_pos_as_xyz
  x,y,z
_cell_length_a	16.109301
_cell_length_b	14.586319
_cell_length_c	16.109304
_cell_angle_alpha	89.999019
_cell_angle_beta	83.462059
_cell_angle_gamma	89.999213
loop_
_atom_site_label
_atom_site_type_symbol
_atom_site_fract_x
_atom_site_fract_y
_atom_site_fract_z
O1	O	1.103132	-0.076177	0.106866
O2	O	0.861070	-0.076190	0.120165
O3	O	0.988749	-0.076184	-0.007515
O4	O	0.975453	-0.076183	0.234546
O5	O	0.988741	0.076297	-0.007517
O6	O	0.861061	0.076290	0.120163
O7	O	1.103123	0.076304	0.106864
Cu8	Cu	0.982091	0.090220	0.113514
Cu9	Cu	0.982102	-0.090106	0.113516
O10	O	0.975444	0.076297	0.234545
C11	C	0.830091	0.000048	0.119626
C12	C	0.737795	0.000043	0.118010
N13	N	0.982090	0.217052	0.113511
N14	N	0.982110	-0.216938	0.113511
C15	C	0.515524	0.000053	0.190018
C16	C	0.428803	0.000059	0.188494
C17	C	0.448676	0.000055	0.037005
C18	C	0.535395	0.000056	0.038530
C19	C	0.568816	0.000050	0.115039
C20	C	0.395377	0.000055	0.111990
C21	C	0.301351	0.000062	0.110337
C22	C	0.662848	0.000046	0.116693
C23	C	1.134102	0.000064	0.107404
C24	C	1.226398	0.000063	0.109019
C25	C	0.988206	0.000055	-0.038491
C26	C	0.986590	0.000048	-0.130786
C27	C	1.038645	0.452061	0.056993
C28	C	1.038647	0.548042	0.056991
C29	C	0.925549	0.548046	0.170032
C30	C	0.925543	0.452066	0.170029
C31	C	0.982096	0.404077	0.113511
C32	C	0.982104	0.596037	0.113512
C33	C	0.982106	0.700104	0.113510
C34	C	0.982093	0.300003	0.113512
C35	C	0.982861	-0.083066	-0.343123
C36	C	0.981335	-0.083065	-0.429843
C37	C	0.981330	0.083178	-0.429842
C38	C	0.982850	0.083176	-0.343122
C39	C	0.983620	0.000052	-0.299766
C40	C	0.980573	0.000054	-0.473205
C41	C	0.978919	0.000056	-0.567231
C42	C	0.985273	0.000050	-0.205734
C43	C	0.975987	0.000057	0.265520
C44	C	0.977603	0.000057	0.357816
H45	H	0.385416	0.000064	0.249550
H46	H	0.980704	0.150855	-0.465154
H47	H	1.084694	0.587109	0.010969
O48	O	0.983448	-0.163837	-0.301028
C49	C	0.911121	-0.214401	-0.312809
H50	H	0.860410	-0.165757	-0.330048
H51	H	0.887961	-0.252114	-0.252617
H52	H	0.926506	-0.266221	-0.365286
H53	H	0.983463	0.150864	-0.307820
H54	H	0.542732	0.000056	0.252316
H55	H	0.980716	-0.150748	-0.465140
H56	H	0.421454	0.000065	-0.025285
O57	O	0.587051	0.000011	-0.034386
C58	C	0.538959	0.000031	-0.102241
H59	H	0.474230	-0.028839	-0.081127
H60	H	0.570969	-0.044238	-0.154772
H61	H	0.532790	0.073183	-0.125695
H62	H	0.879505	0.587129	0.216049
O63	O	1.093604	0.405585	0.002009
C64	C	1.143529	0.468525	-0.047862
H65	H	1.109447	0.536945	-0.048806
H66	H	1.156227	0.440797	-0.114257
H67	H	1.205282	0.478726	-0.020851
H68	H	0.879490	0.412995	0.216053
