data_functionalizedCrystal
_audit_creation_method	'MofGen! by Chris Wilmer'
_symmetry_space_group_name_H-M	'P1'
_symmetry_Int_Tables_number	1
_symmetry_cell_setting	triclinic
loop_
_symmetry_equiv_pos_as_xyz
  x,y,z
_cell_length_a	16.959455
_cell_length_b	16.959454
_cell_length_c	16.959447
_cell_angle_alpha	89.976829
_cell_angle_beta	89.982507
_cell_angle_gamma	90.017022
loop_
_atom_site_label
_atom_site_type_symbol
_atom_site_fract_x
_atom_site_fract_y
_atom_site_fract_z
Zn1	Zn	1.208408	-0.314758	-0.446928
Zn2	Zn	1.208324	-0.446942	-0.314758
Zn3	Zn	1.076230	-0.314775	-0.314766
Zn4	Zn	1.076202	-0.446891	-0.446897
O5	O	1.142291	-0.380842	-0.380837
O6	O	1.319008	-0.332307	-0.429406
O7	O	1.190777	-0.429438	-0.204148
O8	O	1.093811	-0.204162	-0.332314
O9	O	1.318946	-0.429422	-0.332301
O10	O	1.190922	-0.204149	-0.429413
O11	O	1.093728	-0.332335	-0.204154
O12	O	0.965615	-0.332286	-0.332283
O13	O	1.093763	-0.429335	-0.557512
O14	O	0.965594	-0.429352	-0.429359
O15	O	1.190895	-0.332258	-0.557535
O16	O	1.190750	-0.557546	-0.332270
O17	O	1.093681	-0.557509	-0.429352
C18	C	0.936925	-0.380816	-0.380819
C19	C	0.849068	-0.380823	-0.380830
C20	C	0.477579	-0.330258	-0.330395
C21	C	0.477606	-0.431490	-0.431324
C22	C	0.560152	-0.431479	-0.431320
C23	C	0.601415	-0.380857	-0.380851
C24	C	0.560132	-0.330247	-0.330387
C25	C	0.601441	-0.482094	-0.481777
C26	C	0.683992	-0.482085	-0.481773
C27	C	0.725256	-0.431459	-0.431308
C28	C	0.683969	-0.380846	-0.380843
C29	C	0.725232	-0.330224	-0.330374
C30	C	0.683945	-0.279607	-0.279913
C31	C	0.601397	-0.279621	-0.279922
C32	C	0.807805	-0.431445	-0.431299
C33	C	0.807785	-0.330213	-0.330366
C34	C	1.142225	-0.586208	-0.380824
C35	C	1.142269	-0.674065	-0.380844
C36	C	1.091820	-1.045551	-0.431382
C37	C	1.192982	-1.045530	-0.330373
C38	C	1.192954	-0.962984	-0.330365
C39	C	1.142358	-0.921717	-0.380867
C40	C	1.091789	-0.962997	-0.431375
C41	C	1.243516	-0.921698	-0.279852
C42	C	1.243490	-0.839147	-0.279842
C43	C	1.192897	-0.797879	-0.330348
C44	C	1.142327	-0.839164	-0.380859
C45	C	1.091731	-0.797898	-0.431360
C46	C	1.041164	-0.839181	-0.481876
C47	C	1.041196	-0.921729	-0.481881
C48	C	1.192865	-0.715331	-0.330343
C49	C	1.091700	-0.715344	-0.431353
C50	C	1.348459	-0.380868	-0.380856
C51	C	1.436316	-0.380880	-0.380864
C52	C	1.142335	-0.380789	-0.587006
C53	C	1.142354	-0.380767	-0.674862
C54	C	1.142379	-0.174673	-0.380868
C55	C	1.142416	-0.086817	-0.380881
C56	C	1.091792	-0.431301	-0.716126
C57	C	1.192929	-0.330206	-0.716152
C58	C	1.192946	-0.330181	-0.798698
C59	C	1.142384	-0.380715	-0.839962
C60	C	1.091805	-0.431275	-0.798679
C61	C	1.243518	-0.279616	-0.839987
C62	C	1.243536	-0.279587	-0.922538
C63	C	1.192977	-0.330126	-0.963803
C64	C	1.142397	-0.380689	-0.922515
C65	C	1.091835	-0.431223	-0.963779
C66	C	1.041258	-0.481790	-0.922493
C67	C	1.041246	-0.481814	-0.839944
C68	C	1.192989	-0.330103	-1.046351
C69	C	1.091848	-0.431197	-1.046332
C70	C	1.142292	-0.380837	-0.175471
C71	C	1.142426	-0.380637	-0.087615
H72	H	0.717600	-0.523301	-0.522863
H73	H	1.000069	-0.522982	-0.806322
H74	H	0.567839	-0.523313	-0.522860
H75	H	1.234091	-0.289060	-0.682551
O76	O	1.042811	-1.085735	-0.480489
C77	C	1.032153	-1.178846	-0.587243
C78	C	1.087743	-1.133400	-0.531668
H79	H	1.068459	-1.217382	-0.628647
H80	H	0.990871	-1.217596	-0.550966
H81	H	0.995968	-1.135156	-0.623298
H82	H	1.123979	-1.177034	-0.495602
H83	H	1.128973	-1.094639	-0.567991
H84	H	1.000027	-0.955349	-0.523007
O85	O	1.242223	-1.085541	-0.281356
C86	C	1.376696	-1.110821	-0.243127
C87	C	1.321025	-1.065432	-0.298677
H88	H	1.440420	-1.094592	-0.257122
H89	H	1.362910	-1.094621	-0.179363
H90	H	1.367970	-1.176904	-0.251806
H91	H	1.329720	-0.999339	-0.290068
H92	H	1.334825	-1.081698	-0.362420
H93	H	1.000086	-0.522931	-0.956100
H94	H	1.284703	-0.955303	-0.238731
O95	O	0.847788	-0.480633	-0.480385
C96	C	0.839099	-0.581083	-0.580456
C97	C	0.793722	-0.525404	-0.524914
H98	H	0.795406	-0.617307	-0.616460
H99	H	0.877744	-0.544881	-0.621901
H100	H	0.877750	-0.622324	-0.544079
H101	H	0.755028	-0.484152	-0.561227
H102	H	0.755126	-0.561656	-0.483467
O103	O	0.992090	-0.798969	-0.530905
C104	C	0.947178	-0.671798	-0.575609
C105	C	1.002806	-0.717242	-0.520059
H106	H	0.955812	-0.605714	-0.566847
H107	H	0.961029	-0.687919	-0.639378
H108	H	0.883465	-0.688126	-0.561684
H109	H	1.066538	-0.700939	-0.533912
H110	H	0.988888	-0.701117	-0.456306
O111	O	1.042663	-0.675225	-0.480496
C112	C	1.031931	-0.581939	-0.587160
C113	C	1.087553	-0.627338	-0.531569
H114	H	1.068201	-0.543199	-0.628456
H115	H	0.995812	-0.625590	-0.623322
H116	H	0.990589	-0.543375	-0.550813
H117	H	1.128942	-0.665903	-0.567855
H118	H	1.123616	-0.583645	-0.495405
H119	H	0.717552	-0.238394	-0.238818
H120	H	1.284664	-0.805539	-0.238711
O121	O	0.561374	-0.230499	-0.230797
C122	C	0.536013	-0.191993	-0.096412
C123	C	0.581409	-0.247657	-0.151955
H124	H	0.552182	-0.205857	-0.032655
H125	H	0.552267	-0.128258	-0.110333
H126	H	0.469932	-0.200693	-0.105132
H127	H	0.647501	-0.239027	-0.143266
H128	H	0.565090	-0.311372	-0.138020
O129	O	1.242049	-0.675351	-0.281251
C130	C	1.342344	-0.684046	-0.181014
C131	C	1.286694	-0.729420	-0.236588
H132	H	1.378441	-0.727741	-0.144878
H133	H	1.383697	-0.645375	-0.217293
H134	H	1.306045	-0.645422	-0.139686
H135	H	1.322929	-0.768087	-0.277926
H136	H	1.245339	-0.768042	-0.200259
O137	O	0.437443	-0.281204	-0.281295
C138	C	0.344163	-0.270432	-0.174639
C139	C	0.389583	-0.326076	-0.230182
H140	H	0.305445	-0.306688	-0.133311
H141	H	0.387801	-0.234265	-0.138509
H142	H	0.305576	-0.229136	-0.211021
H143	H	0.428171	-0.367420	-0.193860
H144	H	0.345902	-0.362188	-0.266314
H145	H	1.234161	-0.288925	-1.079963
H146	H	1.050676	-0.472351	-1.079923
O147	O	1.292619	-0.230619	-0.799784
C148	C	1.337421	-0.185864	-0.672619
C149	C	1.281775	-0.241398	-0.718055
H150	H	1.328661	-0.194548	-0.606533
H151	H	1.401166	-0.199762	-0.688810
H152	H	1.323594	-0.122123	-0.688883
H153	H	1.295531	-0.305158	-0.701815
H154	H	1.218047	-0.227432	-0.701859
H155	H	1.050616	-0.472474	-0.682507
O156	O	1.292629	-0.230361	-0.962549
C157	C	1.331025	-0.095900	-0.987855
C158	C	1.275387	-0.151558	-0.942480
H159	H	1.317093	-0.032175	-0.971658
H160	H	1.394764	-0.109726	-0.971610
H161	H	1.322370	-0.104600	-1.053940
H162	H	1.283972	-0.142889	-0.876385
H163	H	1.211668	-0.137718	-0.958790
O164	O	0.847831	-0.281124	-0.281226
C165	C	0.872999	-0.242546	-0.146836
C166	C	0.827613	-0.298199	-0.202397
H167	H	0.856658	-0.256320	-0.083092
H168	H	0.939101	-0.251236	-0.155425
H169	H	0.856798	-0.178834	-0.160868
H170	H	0.843748	-0.361932	-0.188399
H171	H	0.761523	-0.289440	-0.193797
O172	O	0.437404	-0.480588	-0.480320
C173	C	0.310242	-0.525507	-0.525023
C174	C	0.355675	-0.469849	-0.469505
H175	H	0.244156	-0.516855	-0.516287
H176	H	0.326437	-0.511704	-0.588799
H177	H	0.326506	-0.589214	-0.511043
H178	H	0.339435	-0.406123	-0.483414
H179	H	0.339476	-0.483719	-0.405745
