data_functionalizedCrystal
_audit_creation_method	'MofGen! by Chris Wilmer'
_symmetry_space_group_name_H-M	'P1'
_symmetry_Int_Tables_number	1
_symmetry_cell_setting	triclinic
loop_
_symmetry_equiv_pos_as_xyz
  x,y,z
_cell_length_a	11.792241
_cell_length_b	17.699083
_cell_length_c	16.176319
_cell_angle_alpha	90.005533
_cell_angle_beta	90.000399
_cell_angle_gamma	83.738215
loop_
_atom_site_label
_atom_site_type_symbol
_atom_site_fract_x
_atom_site_fract_y
_atom_site_fract_z
O1	O	-1.505666	-0.103724	0.068668
O2	O	-1.005666	0.396276	0.568668
O3	O	-1.175197	-0.114415	0.068688
O4	O	-0.675197	0.385585	0.568688
O5	O	-1.349768	0.001070	0.068670
O6	O	-0.849768	0.501070	0.568670
O7	O	-1.331095	-0.219209	0.068686
O8	O	-0.831095	0.280791	0.568686
O9	O	-1.349751	0.001049	-0.068823
O10	O	-0.849751	0.501049	0.431177
O11	O	-1.175180	-0.114436	-0.068806
O12	O	-0.675180	0.385564	0.431194
O13	O	-1.505649	-0.103745	-0.068825
O14	O	-1.005649	0.396255	0.431175
Cu15	Cu	-1.340413	-0.109092	-0.081370
Cu16	Cu	-0.840413	0.390908	0.418630
Cu17	Cu	-1.340433	-0.109067	0.081232
Cu18	Cu	-0.840433	0.390933	0.581232
O19	O	-1.331078	-0.219230	-0.068808
O20	O	-0.831078	0.280770	0.431192
C21	C	-1.349091	0.029260	-0.000077
C22	C	-0.849091	0.529260	0.499923
C23	C	-1.347083	0.113289	-0.000077
C24	C	-0.847083	0.613289	0.499923
C25	C	-1.132906	-0.113754	-0.000057
C26	C	-0.632906	0.386246	0.499943
C27	C	-1.006916	-0.111744	-0.000049
C28	C	-0.506916	0.388256	0.499951
C29	C	-1.547941	-0.104406	-0.000079
C30	C	-1.047941	0.395594	0.499921
C31	C	-1.673930	-0.106416	-0.000081
C32	C	-1.173930	0.393584	0.499919
C33	C	-0.776248	-0.108048	-0.000073
C34	C	-0.276248	0.391952	0.499927
C35	C	-0.904609	-0.110101	-0.000060
C36	C	-0.404609	0.389899	0.499940
C37	C	-1.331756	-0.247420	-0.000059
C38	C	-0.831756	0.252580	0.499941
C39	C	-1.333763	-0.331449	-0.000053
C40	C	-0.833763	0.168551	0.499947
N41	N	-1.340408	-0.109109	-0.195735
N42	N	-0.840408	0.390891	0.304265
C43	C	-1.449553	0.161364	-0.000084
C44	C	-0.949553	0.661364	0.499916
C45	C	-1.447660	0.240317	-0.000077
C46	C	-0.947660	0.740317	0.499923
C47	C	-1.343297	0.271194	-0.000068
C48	C	-0.843297	0.771194	0.499932
C49	C	-1.240819	0.223113	-0.000058
C50	C	-0.740819	0.723113	0.499942
C51	C	-1.242713	0.144161	-0.000060
C52	C	-0.742713	0.644161	0.499940
C53	C	-1.233178	0.541517	-0.000051
C54	C	-0.733178	1.041517	0.499949
C55	C	-1.231292	0.620475	-0.000052
C56	C	-0.731292	1.120475	0.499948
C57	C	-1.438126	0.637673	-0.000068
C58	C	-0.938126	1.137673	0.499932
C59	C	-1.440020	0.558721	-0.000070
C60	C	-0.940020	1.058721	0.499930
C61	C	-1.337543	0.510647	-0.000055
C62	C	-0.837543	1.010647	0.499945
C63	C	-1.339596	0.425037	-0.000062
C64	C	-0.839596	0.925037	0.499938
C65	C	-1.341242	0.356803	-0.000067
C66	C	-0.841242	0.856803	0.499933
C67	C	-1.271742	-0.062837	-0.761124
C68	C	-0.771742	0.437163	-0.261124
C69	C	-1.271740	-0.062843	-0.674577
C70	C	-0.771740	0.437157	-0.174577
C71	C	-1.340438	-0.109061	-0.631310
C72	C	-0.840438	0.390939	-0.131310
C73	C	-1.409152	-0.155270	-0.674595
C74	C	-0.909152	0.344730	-0.174595
C75	C	-1.409160	-0.155259	-0.761141
C76	C	-0.909160	0.344741	-0.261141
C77	C	-1.409124	-0.155312	-0.325567
C78	C	-0.909124	0.344688	0.174433
C79	C	-1.409108	-0.155321	-0.239015
C80	C	-0.909108	0.344679	0.260985
C81	C	-1.271704	-0.062896	-0.239003
C82	C	-0.771704	0.437104	0.260997
C83	C	-1.271711	-0.062886	-0.325549
C84	C	-0.771711	0.437114	0.174451
C85	C	-1.340429	-0.109091	-0.368826
C86	C	-0.840429	0.390909	0.131174
C87	C	-1.340433	-0.109083	-0.462670
C88	C	-0.840433	0.390917	0.037330
C89	C	-1.340429	-0.109073	-0.537468
C90	C	-0.840429	0.390927	-0.037468
N91	N	-1.340448	-0.109044	0.195597
N92	N	-0.840448	0.390956	0.695597
H93	H	-1.534538	0.136230	-0.000096
H94	H	-1.034538	0.636230	0.499904
C95	C	-1.554816	0.524756	-0.000082
C96	C	-1.054816	1.024756	0.499918
H97	H	-1.541267	0.470850	-0.000090
H98	H	-1.041267	0.970850	0.499910
H99	H	-1.597009	0.541232	0.047861
H100	H	-1.097009	1.041232	0.547861
H101	H	-1.596988	0.541225	-0.048039
H102	H	-1.096988	1.041225	0.451961
C103	C	-1.484685	-0.206157	-0.191419
C104	C	-0.984685	0.293843	0.308581
H105	H	-1.474826	-0.199550	-0.133678
H106	H	-0.974826	0.300450	0.366322
H107	H	-1.562377	-0.192438	-0.205592
H108	H	-1.062377	0.307562	0.294408
H109	H	-1.463453	-0.257851	-0.205615
H110	H	-0.963453	0.242149	0.294385
H111	H	-1.465078	-0.192937	-0.360793
H112	H	-0.965078	0.307063	0.139207
H113	H	-1.465093	-0.192898	-0.639360
H114	H	-0.965093	0.307102	-0.139360
H115	H	-1.521567	0.676825	-0.000075
H116	H	-1.021567	1.176825	0.499925
H117	H	-1.146302	0.645611	-0.000047
H118	H	-0.646302	1.145611	0.499953
C119	C	-1.126018	0.257072	-0.000042
C120	C	-0.626018	0.757072	0.499958
H121	H	-1.065262	0.217131	-0.000029
H122	H	-0.565262	0.717131	0.499971
H123	H	-1.120967	0.287511	-0.047987
H124	H	-0.620967	0.787511	0.452013
H125	H	-1.120993	0.287516	0.047913
H126	H	-0.620993	0.787516	0.547913
H127	H	-1.149735	0.502384	-0.000040
H128	H	-0.649735	1.002384	0.499960
C129	C	-1.130000	0.091276	-0.000052
C130	C	-0.630000	0.591276	0.499948
H131	H	-1.146074	0.039833	-0.000045
H132	H	-0.646074	0.539833	0.499955
H133	H	-1.087185	0.100674	-0.047993
H134	H	-0.587185	0.600674	0.452007
H135	H	-1.087210	0.100687	0.047906
H136	H	-0.587210	0.600687	0.547906
C137	C	-1.484730	-0.206091	-0.808747
C138	C	-0.984730	0.293909	-0.308747
H139	H	-1.525635	-0.233624	-0.770586
H140	H	-1.025635	0.266376	-0.270586
H141	H	-1.537052	-0.175308	-0.842501
H142	H	-1.037052	0.324692	-0.342501
H143	H	-1.438118	-0.240714	-0.842517
H144	H	-0.938118	0.259286	-0.342517
C145	C	-1.560374	0.293200	-0.000076
C146	C	-1.060374	0.793200	0.499924
H147	H	-1.544302	0.344643	-0.000061
H148	H	-1.044302	0.844643	0.499939
H149	H	-1.603178	0.283797	-0.048024
H150	H	-1.103178	0.783797	0.451976
H151	H	-1.603174	0.283791	0.047875
H152	H	-1.103174	0.783791	0.547875
C153	C	-1.196163	-0.012003	-0.808710
C154	C	-0.696163	0.487997	-0.308710
H155	H	-1.155249	0.015518	-0.770536
H156	H	-0.655249	0.515518	-0.270536
H157	H	-1.143848	-0.042784	-0.842478
H158	H	-0.643848	0.457216	-0.342478
H159	H	-1.242771	0.022630	-0.842463
H160	H	-0.742771	0.522630	-0.342463
H161	H	-1.215754	-0.025271	-0.203756
H162	H	-0.715754	0.474729	0.296244
H163	H	-1.215795	-0.025215	-0.639343
H164	H	-0.715795	0.474785	-0.139343
C165	C	-1.196147	-0.012045	-0.373138
C166	C	-0.696147	0.487955	0.126862
H167	H	-1.155234	0.015480	-0.334966
H168	H	-0.655234	0.515480	0.165034
H169	H	-1.143831	-0.042819	-0.406911
H170	H	-0.643831	0.457181	0.093089
H171	H	-1.242768	0.022585	-0.406886
H172	H	-0.742768	0.522585	0.093114
