data_functionalizedCrystal
_audit_creation_method	'MofGen! by Chris Wilmer'
_symmetry_space_group_name_H-M	'P1'
_symmetry_Int_Tables_number	1
_symmetry_cell_setting	triclinic
loop_
_symmetry_equiv_pos_as_xyz
  x,y,z
_cell_length_a	9.065218
_cell_length_b	8.965430
_cell_length_c	9.065218
_cell_angle_alpha	89.998922
_cell_angle_beta	85.015885
_cell_angle_gamma	89.997199
loop_
_atom_site_label
_atom_site_type_symbol
_atom_site_fract_x
_atom_site_fract_y
_atom_site_fract_z
O1	O	1.960386	0.124037	0.216350
O2	O	1.531102	0.124038	0.234096
O3	O	1.754617	0.124034	0.010580
O4	O	1.736871	0.124040	0.439865
O5	O	1.754628	-0.124045	0.010588
O6	O	1.531112	-0.124041	0.234103
O7	O	1.960397	-0.124042	0.216357
Cu8	Cu	1.745756	-0.146693	0.225231
Cu9	Cu	1.745743	0.146689	0.225222
O10	O	1.736881	-0.124038	0.439872
C11	C	1.476120	-0.000001	0.232394
C12	C	1.312277	-0.000000	0.227294
N13	N	1.745775	-0.353042	0.225236
C14	C	1.849177	-0.450310	0.121875
C15	C	1.715458	-0.549714	0.091433
C16	C	1.879442	-0.549765	0.255581
C17	C	1.611987	-0.450258	0.194728
C18	C	1.776060	-0.450300	0.358935
C19	C	1.642245	-0.549659	0.328549
C20	C	2.015378	0.000000	0.218059
C21	C	2.179221	0.000009	0.223158
C22	C	1.752917	-0.000003	-0.044403
C23	C	1.747817	0.000004	-0.208245
N24	N	1.745735	0.353038	0.225206
C25	C	1.738582	0.000002	0.494855
C26	C	1.743681	0.000004	0.658698
H27	H	1.936536	-0.406686	0.034419
H28	H	1.498903	-0.406732	0.168920
C29	C	1.680803	-0.608715	-0.061316
H30	H	1.592987	-0.666982	-0.050810
H31	H	1.760812	-0.668519	-0.101878
H32	H	1.667209	-0.527023	-0.125493
C33	C	1.523971	-0.608237	0.446612
H34	H	1.429102	-0.573979	0.424798
H35	H	1.544690	-0.572692	0.541345
H36	H	1.525135	-0.714193	0.446503
H37	H	1.801745	-0.406599	0.471979
C38	C	2.032162	-0.608815	0.290287
H39	H	2.021609	-0.667131	0.378073
H40	H	2.096352	-0.527159	0.303919
H41	H	2.072735	-0.668613	0.210269
