data_functionalizedCrystal
_audit_creation_method	'MofGen! by Chris Wilmer'
_symmetry_space_group_name_H-M	'P1'
_symmetry_Int_Tables_number	1
_symmetry_cell_setting	triclinic
loop_
_symmetry_equiv_pos_as_xyz
  x,y,z
_cell_length_a	16.625548
_cell_length_b	29.839131
_cell_length_c	16.625539
_cell_angle_alpha	90.039748
_cell_angle_beta	90.020568
_cell_angle_gamma	90.036296
loop_
_atom_site_label
_atom_site_type_symbol
_atom_site_fract_x
_atom_site_fract_y
_atom_site_fract_z
Zn1	Zn	1.232609	-0.178840	0.455845
Zn2	Zn	1.732609	0.321160	0.955845
Zn3	Zn	1.232482	-0.253971	0.320985
Zn4	Zn	1.732482	0.246029	0.820985
Zn5	Zn	1.097771	-0.178857	0.321026
Zn6	Zn	1.597771	0.321143	0.821026
Zn7	Zn	1.097711	-0.253945	0.455775
Zn8	Zn	1.597711	0.246055	0.955775
O9	O	1.165143	-0.216403	0.388408
O10	O	1.665143	0.283597	0.888408
O11	O	1.345425	-0.188810	0.437968
O12	O	1.845425	0.311190	0.937968
O13	O	1.214584	-0.244025	0.208158
O14	O	1.714584	0.255975	0.708158
O15	O	1.115735	-0.115987	0.338956
O16	O	1.615735	0.384013	0.838956
O17	O	1.345331	-0.244008	0.338887
O18	O	1.845331	0.255992	0.838887
O19	O	1.214800	-0.115975	0.438007
O20	O	1.714800	0.384025	0.938007
O21	O	1.115612	-0.188839	0.208188
O22	O	1.615612	0.311161	0.708188
O23	O	0.984930	-0.188814	0.338888
O24	O	1.484930	0.311186	0.838888
O25	O	1.115634	-0.243964	0.568617
O26	O	1.615634	0.256036	1.068617
O27	O	0.984887	-0.243981	0.437888
O28	O	1.484887	0.256019	0.937888
O29	O	1.214743	-0.188785	0.568668
O30	O	1.714743	0.311215	1.068668
O31	O	1.214526	-0.316834	0.338820
O32	O	1.714526	0.183166	0.838820
O33	O	1.115511	-0.316815	0.437849
O34	O	1.615511	0.183185	0.937849
C35	C	0.955652	-0.216397	0.388385
C36	C	1.455652	0.283603	0.888385
C37	C	0.866031	-0.216405	0.388395
C38	C	1.366031	0.283595	0.888395
C39	C	0.537856	-0.216408	0.388429
C40	C	1.037856	0.283592	0.888429
C41	C	0.629164	-0.216406	0.388417
C42	C	1.129164	0.283594	0.888417
C43	C	0.701941	-0.216406	0.388411
C44	C	1.201941	0.283594	0.888411
C45	C	0.793255	-0.216404	0.388401
C46	C	1.293255	0.283596	0.888401
C47	C	1.165020	-0.333126	0.388340
C48	C	1.665020	0.166874	0.888340
C49	C	1.165041	-0.383060	0.388338
C50	C	1.665041	0.116940	0.888338
C51	C	1.216715	-0.692662	0.440057
C52	C	1.716715	-0.192662	0.940057
C53	C	1.216803	-0.880335	0.440106
C54	C	1.716803	-0.380335	0.940106
O55	O	1.260617	-0.904565	0.484029
O56	O	1.760617	-0.404565	0.984029
N57	N	1.165280	-0.903845	0.388497
N58	N	1.665280	-0.403845	0.888497
C59	C	1.113728	-0.880434	0.336877
C60	C	1.613728	-0.380434	0.836877
O61	O	1.069901	-0.904737	0.292988
O62	O	1.569901	-0.404737	0.792988
C63	C	1.113637	-0.692762	0.336833
C64	C	1.613637	-0.192762	0.836833
C65	C	1.165169	-0.669254	0.388439
C66	C	1.665169	-0.169254	0.888439
C67	C	1.268242	-0.669154	0.491660
C68	C	1.768242	-0.169154	0.991660
C69	C	1.268223	-0.622239	0.491644
C70	C	1.768223	-0.122239	0.991644
C71	C	1.216677	-0.598831	0.440026
C72	C	1.716677	-0.098831	0.940026
C73	C	1.165150	-0.622339	0.388423
C74	C	1.665150	-0.122339	0.888423
C75	C	1.062082	-0.669352	0.285217
C76	C	1.562082	-0.169352	0.785217
C77	C	1.062063	-0.622431	0.285212
C78	C	1.562063	-0.122431	0.785212
C79	C	1.113594	-0.598923	0.336818
C80	C	1.613594	-0.098923	0.836818
C81	C	1.113584	-0.552016	0.336790
C82	C	1.613584	-0.052016	0.836790
N83	N	1.165107	-0.528505	0.388398
N84	N	1.665107	-0.028505	0.888398
C85	C	1.216653	-0.551913	0.440016
C86	C	1.716653	-0.051913	0.940016
C87	C	1.113781	-0.978965	0.336902
C88	C	1.613781	-0.478965	0.836902
C89	C	1.113805	-1.025882	0.336912
C90	C	1.613805	-0.525882	0.836912
C91	C	1.216878	-1.025780	0.440142
C92	C	1.716878	-0.525780	0.940142
C93	C	1.216858	-0.978861	0.440128
C94	C	1.716858	-0.478861	0.940128
C95	C	1.165303	-0.955455	0.388511
C96	C	1.665303	-0.455455	0.888511
C97	C	1.216609	-0.453387	0.439979
C98	C	1.716609	0.046613	0.939979
C99	C	1.216588	-0.406468	0.439956
C100	C	1.716588	0.093532	0.939956
C101	C	1.113511	-0.406574	0.336729
C102	C	1.613511	0.093426	0.836729
C103	C	1.113536	-0.453490	0.336749
C104	C	1.613536	0.046510	0.836749
C105	C	1.165087	-0.476895	0.388380
C106	C	1.665087	0.023105	0.888380
O107	O	1.069787	-0.527757	0.292896
O108	O	1.569787	-0.027757	0.792896
O109	O	1.260461	-0.527602	0.483911
O110	O	1.760461	-0.027602	0.983911
C111	C	1.216734	-0.739577	0.440073
C112	C	1.716734	-0.239577	0.940073
C113	C	1.165208	-0.763085	0.388471
C114	C	1.665208	-0.263085	0.888471
C115	C	1.113662	-0.739677	0.336852
C116	C	1.613662	-0.239677	0.836852
C117	C	1.165231	-0.810003	0.388480
C118	C	1.665231	-0.310003	0.888480
C119	C	1.216777	-0.833411	0.440099
C120	C	1.716777	-0.333411	0.940099
C121	C	1.268300	-0.809901	0.491707
C122	C	1.768300	-0.309901	0.991707
C123	C	1.268281	-0.762985	0.491691
C124	C	1.768281	-0.262985	0.991691
C125	C	1.062139	-0.763187	0.285244
C126	C	1.562139	-0.263187	0.785244
C127	C	1.062163	-0.810103	0.285263
C128	C	1.562163	-0.310103	0.785263
C129	C	1.113709	-0.833511	0.336882
C130	C	1.613709	-0.333511	0.836882
C131	C	1.375452	-0.216410	0.388431
C132	C	1.875452	0.283590	0.888431
C133	C	1.465073	-0.216413	0.388441
C134	C	1.965073	0.283587	0.888441
C135	C	1.165196	-0.216370	0.598717
C136	C	1.665196	0.283630	1.098717
C137	C	1.165218	-0.216355	0.688338
C138	C	1.665218	0.283645	1.188338
C139	C	1.165289	-0.099225	0.388494
C140	C	1.665289	0.400775	0.888494
C141	C	1.165351	-0.049290	0.388530
C142	C	1.665351	0.450710	0.888530
C143	C	1.165137	-0.216404	0.178917
C144	C	1.665137	0.283596	0.678917
C145	C	1.165271	-0.216292	0.089297
C146	C	1.665271	0.283708	0.589297
C147	C	1.165255	-0.216305	1.016514
C148	C	1.665255	0.283695	1.516514
C149	C	1.165243	-0.216320	0.925205
C150	C	1.665243	0.283680	1.425205
C151	C	1.165237	-0.216330	0.852429
C152	C	1.665237	0.283670	1.352429
C153	C	1.165224	-0.216345	0.761115
C154	C	1.665224	0.283655	1.261115
H155	H	1.258582	-0.472439	0.482027
H156	H	1.758582	0.027561	0.982027
H157	H	1.020201	-0.829239	0.243232
H158	H	1.520201	-0.329239	0.743232
O159	O	1.011956	-0.740503	0.235134
O160	O	1.511956	-0.240503	0.735134
C161	C	0.931588	-0.751992	0.252693
C162	C	1.431588	-0.251992	0.752693
H163	H	0.929915	-0.786040	0.283709
H164	H	1.429915	-0.286040	0.783709
H165	H	0.895473	-0.753650	0.194464
H166	H	1.395473	-0.253650	0.694464
H167	H	0.904387	-0.725576	0.294102
H168	H	1.404387	-0.225576	0.794102
O169	O	1.012093	-0.599645	0.235028
O170	O	1.512093	-0.099645	0.735028
C171	C	1.058011	-0.572517	0.182965
C172	C	1.558011	-0.072517	0.682965
H173	H	1.119097	-0.565441	0.211452
H174	H	1.619097	-0.065441	0.711452
H175	H	1.025154	-0.539548	0.172117
H176	H	1.525154	-0.039548	0.672117
H177	H	1.066910	-0.590626	0.123228
H178	H	1.566910	-0.090626	0.623228
O179	O	1.266671	-0.383702	0.490167
O180	O	1.766671	0.116298	0.990167
C181	C	1.312181	-0.414428	0.535716
C182	C	1.812181	0.085572	1.035716
H183	H	1.279165	-0.447886	0.538484
H184	H	1.779165	0.052114	1.038484
H185	H	1.320740	-0.400839	0.599250
H186	H	1.820740	0.099161	1.099250
H187	H	1.373438	-0.419403	0.506249
H188	H	1.873438	0.080597	1.006249
O189	O	1.318442	-0.832574	0.541882
O190	O	1.818442	-0.332574	1.041882
C191	C	1.363903	-0.801770	0.587453
C192	C	1.863903	-0.301770	1.087453
H193	H	1.366717	-0.768339	0.554424
H194	H	1.866717	-0.268339	1.054424
H195	H	1.427426	-0.815297	0.596128
H196	H	1.927426	-0.315297	1.096128
H197	H	1.334329	-0.796764	0.648657
H198	H	1.834329	-0.296764	1.148657
H199	H	1.258850	-1.044847	0.482171
H200	H	1.758850	-0.544847	0.982171
O201	O	1.318302	-0.599476	0.541855
O202	O	1.818302	-0.099476	1.041855
C203	C	1.363810	-0.630205	0.587398
C204	C	1.863810	-0.130205	1.087398
H205	H	1.330791	-0.663663	0.590158
H206	H	1.830791	-0.163663	1.090158
H207	H	1.372369	-0.616621	0.650934
H208	H	1.872369	-0.116621	1.150934
H209	H	1.425066	-0.635180	0.557930
H210	H	1.925066	-0.135180	1.057930
H211	H	1.071581	-0.472631	0.294720
H212	H	1.571581	0.027369	0.794720
O213	O	1.012131	-0.692202	0.235012
O214	O	1.512131	-0.192202	0.735012
C215	C	1.058053	-0.719356	0.182984
C216	C	1.558053	-0.219356	0.682984
H217	H	1.121558	-0.705194	0.178040
H218	H	1.621558	-0.205194	0.678040
H219	H	1.028908	-0.719929	0.120914
H220	H	1.528908	-0.219929	0.620914
H221	H	1.060829	-0.754901	0.207925
H222	H	1.560829	-0.254901	0.707925
O223	O	1.266934	-0.956097	0.490340
O224	O	1.766934	-0.456097	0.990340
C225	C	1.312447	-0.986825	0.535882
C226	C	1.812447	-0.486825	1.035882
H227	H	1.279434	-1.020285	0.538640
H228	H	1.779434	-0.520285	1.038640
H229	H	1.321003	-0.973240	0.599419
H230	H	1.821003	-0.473240	1.099419
H231	H	1.373705	-0.991795	0.506414
H232	H	1.873705	-0.491795	1.006414
O233	O	1.063677	-1.048646	0.286750
O234	O	1.563677	-0.548646	0.786750
C235	C	1.018193	-1.017918	0.241179
C236	C	1.518193	-0.517918	0.741179
H237	H	1.015373	-0.984461	0.274200
H238	H	1.515373	-0.484461	0.774200
H239	H	0.954674	-1.031507	0.232522
H240	H	1.454674	-0.531507	0.732522
H241	H	1.047752	-1.012941	0.179968
H242	H	1.547752	-0.512941	0.679968
O243	O	1.318205	-0.691908	0.541890
O244	O	1.818205	-0.191908	1.041890
C245	C	1.272300	-0.719057	0.593928
C246	C	1.772300	-0.219057	1.093928
H247	H	1.208781	-0.704955	0.598851
H248	H	1.708781	-0.204955	1.098851
H249	H	1.301434	-0.719539	0.656004
H250	H	1.801434	-0.219539	1.156004
H251	H	1.269565	-0.754630	0.569011
H252	H	1.769565	-0.254630	1.069011
H253	H	1.071546	-0.387508	0.294700
H254	H	1.571546	0.112492	0.794700
O255	O	1.063814	-0.956180	0.286715
O256	O	1.563814	-0.456180	0.786715
C257	C	1.109735	-0.929051	0.234657
C258	C	1.609735	-0.429051	0.734657
H259	H	1.170817	-0.921973	0.263152
H260	H	1.670817	-0.421973	0.763152
H261	H	1.076877	-0.896082	0.223805
H262	H	1.576877	-0.396082	0.723805
H263	H	1.118644	-0.947158	0.174921
H264	H	1.618644	-0.447158	0.674921
O265	O	1.318420	-0.740133	0.541711
O266	O	1.818420	-0.240133	1.041711
C267	C	1.370505	-0.712980	0.495857
C268	C	1.870505	-0.212980	0.995857
H269	H	1.375529	-0.727142	0.432358
H270	H	1.875529	-0.227142	0.932358
H271	H	1.432539	-0.712410	0.525080
H272	H	1.932539	-0.212410	1.025080
H273	H	1.345567	-0.677434	0.493055
H274	H	1.845567	-0.177434	0.993055
