data_functionalizedCrystal
_audit_creation_method	'MofGen! by Chris Wilmer'
_symmetry_space_group_name_H-M	'P1'
_symmetry_Int_Tables_number	1
_symmetry_cell_setting	triclinic
loop_
_symmetry_equiv_pos_as_xyz
  x,y,z
_cell_length_a	19.805407
_cell_length_b	21.295417
_cell_length_c	19.805399
_cell_angle_alpha	90.029796
_cell_angle_beta	90.017803
_cell_angle_gamma	90.027018
loop_
_atom_site_label
_atom_site_type_symbol
_atom_site_fract_x
_atom_site_fract_y
_atom_site_fract_z
Zn1	Zn	1.034720	-0.250669	0.382677
Zn2	Zn	1.034628	-0.355938	0.269485
Zn3	Zn	0.921535	-0.250681	0.269505
Zn4	Zn	0.921492	-0.355899	0.382635
O5	O	0.978094	-0.303297	0.326075
O6	O	1.129425	-0.264644	0.367671
O7	O	1.019606	-0.341996	0.174771
O8	O	0.936605	-0.162590	0.284544
O9	O	1.129357	-0.341984	0.284509
O10	O	1.019762	-0.162581	0.367691
O11	O	0.936517	-0.264665	0.174786
O12	O	0.826813	-0.264628	0.284503
O13	O	0.936532	-0.341919	0.477357
O14	O	0.826781	-0.341931	0.367619
O15	O	1.019721	-0.264607	0.477388
O16	O	1.019564	-0.444022	0.284468
O17	O	0.936443	-0.443994	0.367599
C18	C	0.802238	-0.303277	0.326059
C19	C	0.727006	-0.303284	0.326068
C20	C	0.691697	-0.263084	0.369436
C21	C	0.621009	-0.263087	0.369439
C22	C	0.585630	-0.303294	0.326076
C23	C	0.620944	-0.343496	0.282703
C24	C	0.691631	-0.343489	0.282698
C25	C	0.335870	-0.343524	0.282724
C26	C	0.265178	-0.343529	0.282734
C27	C	0.265248	-0.263122	0.369465
C28	C	0.335936	-0.263115	0.369460
C29	C	0.371243	-0.303314	0.326084
C30	C	0.447891	-0.303310	0.326081
C31	C	0.508983	-0.303303	0.326082
C32	C	0.978008	-0.466848	0.326041
C33	C	0.978033	-0.536816	0.326049
C34	C	1.021308	-0.569621	0.369375
C35	C	1.021331	-0.635364	0.369391
C36	C	0.978087	-0.668299	0.326071
C37	C	0.934804	-0.635486	0.282742
C38	C	0.934777	-0.569745	0.282731
N39	N	0.972976	-0.771560	0.266835
N40	N	0.973006	-0.834011	0.266847
C41	C	0.978167	-0.866374	0.326101
N42	N	0.983309	-0.833925	0.385344
N43	N	0.983283	-0.771468	0.385331
C44	C	0.978112	-0.739584	0.326078
C45	C	1.021470	-0.970464	0.369448
C46	C	1.021489	-1.036208	0.369466
C47	C	0.934965	-1.036329	0.282811
C48	C	0.934942	-0.970587	0.282799
C49	C	0.978198	-0.937658	0.326117
C50	C	1.154637	-0.303317	0.326092
C51	C	1.229868	-0.303326	0.326100
C52	C	0.978132	-0.303257	0.502618
C53	C	0.978148	-0.303240	0.577850
C54	C	0.978199	-0.139106	0.326125
C55	C	0.978244	-0.069138	0.326146
C56	C	0.978095	-0.303291	0.150220
C57	C	0.978210	-0.303130	0.074988
C58	C	1.021465	-0.262982	0.613212
C59	C	1.021472	-0.262963	0.683900
C60	C	0.978165	-0.303207	0.719226
C61	C	0.934843	-0.343468	0.683860
C62	C	0.934833	-0.343482	0.613172
C63	C	0.934881	-0.343409	0.968933
C64	C	0.934896	-0.343393	1.039625
C65	C	1.021520	-0.262890	1.039661
C66	C	1.021510	-0.262905	0.968974
C67	C	0.978186	-0.303162	0.933613
C68	C	0.978178	-0.303181	0.856965
C69	C	0.978176	-0.303192	0.795873
H70	H	0.236493	-0.230388	0.404781
O71	O	1.063520	-0.223768	0.718171
C72	C	1.048756	-0.161031	0.700919
H73	H	1.022727	-0.159740	0.649593
H74	H	1.097624	-0.132813	0.698510
H75	H	1.013980	-0.139810	0.740702
H76	H	1.056527	-0.542813	0.404648
O77	O	0.370197	-0.223999	0.411604
C78	C	0.323874	-0.188527	0.449895
H79	H	0.273475	-0.186319	0.422181
H80	H	0.344321	-0.138937	0.457208
H81	H	0.316369	-0.211641	0.501256
O82	O	0.892932	-0.938619	0.240770
C83	C	0.902193	-0.873533	0.250037
H84	H	0.924325	-0.864503	0.302290
H85	H	0.851486	-0.848590	0.245395
H86	H	0.938254	-0.854873	0.209919
H87	H	0.899593	-0.662306	0.247471
O88	O	1.063497	-1.068006	0.411648
C89	C	1.048658	-1.051920	0.479094
H90	H	1.022617	-1.004208	0.480467
H91	H	1.097492	-1.049611	0.509480
H92	H	1.013865	-1.088933	0.501873
O93	O	0.586684	-0.382575	0.240517
C94	C	0.633008	-0.418066	0.202250
H95	H	0.683405	-0.392273	0.199950
H96	H	0.612560	-0.424721	0.148911
H97	H	0.640520	-0.465903	0.226944
H98	H	0.899579	-0.376233	0.712627
O99	O	0.726007	-0.382572	0.240666
C100	C	0.766883	-0.423282	0.279118
H101	H	0.777500	-0.401143	0.330455
H102	H	0.816576	-0.431678	0.251528
H103	H	0.739627	-0.469944	0.286464
H104	H	0.899751	-1.063144	0.247542
O105	O	0.230915	-0.382606	0.240542
C106	C	0.277235	-0.418096	0.202267
H107	H	0.327633	-0.392306	0.199968
H108	H	0.256782	-0.424743	0.148928
H109	H	0.284744	-0.465936	0.226953
O110	O	0.370234	-0.382609	0.240689
C111	C	0.411108	-0.423322	0.279140
H112	H	0.421734	-0.401180	0.330475
H113	H	0.460797	-0.431726	0.251545
H114	H	0.383846	-0.469980	0.286493
H115	H	0.899536	-0.543035	0.247450
O116	O	0.725957	-0.223969	0.411584
C117	C	0.679631	-0.188499	0.449874
H118	H	0.629233	-0.186290	0.422156
H119	H	0.700077	-0.138909	0.457192
H120	H	0.672122	-0.211616	0.501233
H121	H	1.056565	-0.662079	0.404680
O122	O	0.892742	-0.382657	0.578925
C123	C	0.854512	-0.418168	0.625260
H124	H	0.882238	-0.420333	0.675654
H125	H	0.847267	-0.467770	0.604822
H126	H	0.803117	-0.395116	0.632771
H127	H	1.056689	-0.943652	0.404723
O128	O	0.586639	-0.224127	0.411605
C129	C	0.545766	-0.260027	0.455263
H130	H	0.535143	-0.307700	0.431292
H131	H	0.496074	-0.234400	0.464395
H132	H	0.573027	-0.267009	0.505404
H133	H	1.056733	-0.230212	0.584455
O134	O	1.063600	-0.223752	0.934764
C135	C	1.101847	-0.188224	0.981134
H136	H	1.074134	-0.186031	1.031519
H137	H	1.109094	-0.138632	0.960726
H138	H	1.153240	-0.211279	0.988651
O139	O	0.892862	-0.382602	0.934627
C140	C	0.907596	-0.445341	0.951895
H141	H	0.961674	-0.448532	0.971319
H142	H	0.901717	-0.476451	0.905401
H143	H	0.871311	-0.461772	0.992927
H144	H	1.056794	-0.230108	1.068460
H145	H	0.899627	-0.376165	1.068385
