data_functionalizedCrystal
_audit_creation_method	'MofGen! by Chris Wilmer'
_symmetry_space_group_name_H-M	'P1'
_symmetry_Int_Tables_number	1
_symmetry_cell_setting	triclinic
loop_
_symmetry_equiv_pos_as_xyz
  x,y,z
_cell_length_a	27.440280
_cell_length_b	27.440279
_cell_length_c	23.096457
_cell_angle_alpha	60.012310
_cell_angle_beta	90.008258
_cell_angle_gamma	60.007051
loop_
_atom_site_label
_atom_site_type_symbol
_atom_site_fract_x
_atom_site_fract_y
_atom_site_fract_z
Zr1	Zr	0.469661	0.533235	-0.075864
O2	O	0.391859	0.634884	-0.168284
O3	O	0.493488	0.431591	-0.047550
O4	O	0.493498	0.533233	-0.168315
O5	O	0.391868	0.533240	0.047763
O6	O	0.573700	0.533226	-0.168318
O7	O	0.391849	0.533242	-0.047519
O8	O	0.573682	0.351406	0.047708
O9	O	0.391886	0.715060	-0.168263
O10	O	0.563532	0.473390	-0.035455
O11	O	0.503693	0.473395	0.035655
O12	O	0.503705	0.593066	-0.106529
O13	O	0.443865	0.593071	-0.035419
Zr14	Zr	0.597604	0.533220	0.076095
Zr15	Zr	0.597574	0.533222	-0.075869
Zr16	Zr	0.469692	0.533232	0.076100
Zr17	Zr	0.469704	0.661106	-0.075830
Zr18	Zr	0.597561	0.405349	0.076061
O19	O	0.573778	0.634863	0.047781
O20	O	0.573734	0.634866	-0.168292
O21	O	0.391902	0.634881	0.047789
O22	O	0.675407	0.431570	0.168515
O23	O	0.675364	0.431574	-0.047558
O24	O	0.493531	0.431588	0.168523
O25	O	0.675398	0.533214	-0.047532
O26	O	0.573767	0.533221	0.168546
O27	O	0.493566	0.533229	0.168549
O28	O	0.675417	0.533213	0.047750
O29	O	0.493559	0.715050	-0.168267
O30	O	0.573706	0.351405	0.168498
O31	O	0.675380	0.351395	0.168494
O32	O	0.675356	0.351396	0.047703
O33	O	0.391910	0.715058	-0.047472
O34	O	0.493584	0.715048	-0.047476
O35	O	0.563561	0.473388	0.106761
O36	O	0.623401	0.473384	0.035650
O37	O	0.563573	0.593059	-0.035424
O38	O	0.503733	0.593064	0.035686
C39	C	0.533579	0.373280	0.000074
C40	C	0.533561	0.318995	0.000060
C41	C	0.502389	0.084239	0.037239
C42	C	0.502378	0.135269	0.037230
O43	O	0.475825	0.161648	0.068812
N44	N	0.533605	0.160792	0.000102
C45	C	0.564851	0.135277	-0.037014
O46	O	0.591412	0.161671	-0.068594
C47	C	0.564866	0.084244	-0.037000
C48	C	0.533632	0.058729	0.000125
C49	C	0.471158	0.058724	0.074361
C50	C	0.471169	0.007698	0.074369
C51	C	0.502411	-0.017812	0.037255
C52	C	0.533643	0.007703	0.000133
C53	C	0.596115	0.058726	-0.074110
C54	C	0.596128	0.007689	-0.074093
C55	C	0.564893	-0.017825	-0.036968
C56	C	0.564896	-0.068833	-0.036973
N57	N	0.533668	-0.094355	0.000155
C58	C	0.502426	-0.068845	0.037269
C59	C	0.564818	0.242448	-0.037039
C60	C	0.564801	0.293483	-0.037057
C61	C	0.502328	0.293471	0.037187
C62	C	0.502343	0.242439	0.037201
C63	C	0.533591	0.216925	0.000089
C64	C	0.502451	-0.176002	0.037283
C65	C	0.502463	-0.227031	0.037285
C66	C	0.564938	-0.227017	-0.036956
C67	C	0.564924	-0.175991	-0.036962
C68	C	0.533679	-0.150486	0.000163
O69	O	0.591437	-0.095245	-0.068537
O70	O	0.475876	-0.095252	0.068852
C71	C	0.373633	0.533243	0.000122
C72	C	0.319331	0.533248	0.000125
C73	C	-0.017377	0.533213	-0.052377
C74	C	-0.068395	0.533208	-0.052378
O75	O	-0.094779	0.533183	-0.097005
N76	N	-0.093903	0.533208	0.000113
C77	C	-0.068386	0.533207	0.052612
O78	O	-0.094766	0.533206	0.097260
C79	C	-0.017366	0.533207	0.052615
C80	C	0.008135	0.533213	0.000116
C81	C	0.008124	0.533218	-0.104871
C82	C	0.059138	0.533224	-0.104871
C83	C	0.084650	0.533225	-0.052377
C84	C	0.059149	0.533219	0.000116
C85	C	0.008152	0.533200	0.105116
C86	C	0.059175	0.533200	0.105114
C87	C	0.084676	0.533206	0.052616
C88	C	0.135674	0.533226	0.052610
N89	N	0.161182	0.533225	0.000119
C90	C	0.135670	0.533225	-0.052375
C91	C	-0.175530	0.533205	0.052603
C92	C	-0.226550	0.533210	0.052598
C93	C	-0.226556	0.533210	-0.052391
C94	C	-0.175536	0.533210	-0.052388
C95	C	-0.150022	0.533205	0.000112
C96	C	0.242802	0.533239	-0.052372
C97	C	0.293819	0.533248	-0.052369
C98	C	0.293821	0.533244	0.052622
C99	C	0.242807	0.533239	0.052618
C100	C	0.217300	0.533234	0.000117
O101	O	0.162092	0.533248	0.097216
O102	O	0.162061	0.533217	-0.097010
C103	C	0.693632	0.533212	0.000109
C104	C	0.747935	0.533206	0.000106
C105	C	0.533595	0.533230	-0.189968
C106	C	0.533582	0.533231	-0.254481
C107	C	0.533687	0.693175	0.000157
C108	C	0.533705	0.747459	0.000171
C109	C	0.502355	0.595698	-0.321884
C110	C	0.502371	0.595699	-0.382501
C111	C	0.533604	0.533229	-0.375709
C112	C	0.564838	0.470753	-0.308294
C113	C	0.564826	0.470754	-0.247679
N114	N	0.529277	0.486732	-0.443277
N115	N	0.529284	0.486736	-0.500860
C116	C	0.533641	0.533223	-0.558335
N117	N	0.537978	0.579717	-0.556056
N118	N	0.537968	0.579716	-0.498469
C119	C	0.533620	0.533221	-0.441431
C120	C	0.502429	0.595696	-0.691468
C121	C	0.502449	0.595694	-0.752084
C122	C	0.564912	0.470747	-0.677875
C123	C	0.564896	0.470750	-0.617261
C124	C	0.533652	0.533227	-0.624062
C125	C	0.533671	0.533224	0.190199
C126	C	0.533684	0.533224	0.254712
C127	C	0.693578	0.373264	0.000067
C128	C	0.747863	0.318974	0.000051
C129	C	0.533617	0.373277	0.190157
C130	C	0.533612	0.318992	0.254656
C131	C	0.693617	0.373262	0.190151
C132	C	0.747914	0.318971	0.254647
C133	C	0.373649	0.693193	-0.189919
C134	C	0.319352	0.747484	-0.254416
C135	C	0.373687	0.693190	0.000164
C136	C	0.319403	0.747480	0.000180
C137	C	0.533649	0.693177	-0.189926
C138	C	0.533654	0.747463	-0.254425
C139	C	0.742104	0.293483	-0.037080
C140	C	0.793105	0.242479	-0.037109
C141	C	0.849864	0.216964	-0.000004
C142	C	0.855621	0.242460	0.037127
C143	C	0.804620	0.293467	0.037152
C144	C	0.564860	0.293495	0.322068
C145	C	0.564852	0.242495	0.382677
C146	C	0.533600	0.216989	0.375872
C147	C	0.502348	0.242491	0.308454
C148	C	0.502352	0.293493	0.247846
C149	C	0.804653	0.293473	0.247816
C150	C	0.855676	0.242468	0.308411
C151	C	0.849958	0.216958	0.375836
C152	C	0.793212	0.242461	0.382666
C153	C	0.742191	0.293469	0.322071
C154	C	0.262613	0.772988	-0.247585
C155	C	0.211590	0.824009	-0.308180
C156	C	0.217308	0.849521	-0.375605
C157	C	0.274053	0.824014	-0.382435
C158	C	0.325075	0.772998	-0.321840
C159	C	0.325161	0.772977	0.037304
C160	C	0.274160	0.823995	0.037317
C161	C	0.217402	0.849512	0.000210
C162	C	0.211645	0.824013	-0.036919
C163	C	0.262645	0.772999	-0.036935
C164	C	0.564912	0.772952	-0.247598
C165	C	0.564929	0.823953	-0.308195
C166	C	0.533684	0.849466	-0.375619
C167	C	0.502424	0.823971	-0.382445
C168	C	0.502412	0.772968	-0.321848
H169	H	0.445737	-0.013074	0.104603
C170	C	0.679674	0.321546	-0.077904
C171	C	0.673353	0.293502	-0.118750
C172	C	0.610925	0.321565	-0.159581
C173	C	0.554818	0.377672	-0.159566
C174	C	0.561137	0.405719	-0.118718
C175	C	0.623565	0.377656	-0.077887
H176	H	0.714889	0.251966	-0.118763
H177	H	0.606247	0.300803	-0.189819
H178	H	0.508605	0.398446	-0.189791
H179	H	0.519602	0.447255	-0.118705
H180	H	0.628243	0.398418	-0.047648
C181	C	0.599186	0.214394	-0.077876
C182	C	0.582861	0.263483	-0.158494
C183	C	0.617229	0.235432	-0.199329
C184	C	0.667922	0.158292	-0.159547
C185	C	0.684250	0.109199	-0.078924
C186	C	0.649882	0.137250	-0.038089
H187	H	0.545332	0.320590	-0.187947
H188	H	0.605141	0.271774	-0.259011
H189	H	0.693363	0.137527	-0.189776
H190	H	0.721778	0.052092	-0.049471
H191	H	0.661969	0.100908	0.021593
H192	H	0.477026	-0.247801	0.067516
C193	C	0.905961	0.160850	-0.000030
C194	C	0.899620	0.132810	-0.040871
C195	C	0.955715	0.076695	-0.040896
C196	C	1.018151	0.048620	-0.000082
C197	C	1.024495	0.076660	0.040762
C198	C	0.968400	0.132775	0.040788
H199	H	0.853399	0.153593	-0.071087
H200	H	0.951018	0.055938	-0.071132
H201	H	1.059676	0.007080	-0.000101
H202	H	1.070716	0.055877	0.070978
H203	H	0.973096	0.153532	0.071023
C204	C	0.468071	0.664417	-0.698943
C205	C	0.433731	0.733133	-0.773091
C206	C	0.399374	0.801854	-0.780568
C207	C	0.399358	0.801859	-0.713896
C208	C	0.433699	0.733140	-0.639743
C209	C	0.468056	0.664419	-0.632266
H210	H	0.433742	0.733132	-0.822450
H211	H	0.373952	0.852725	-0.835461
H212	H	0.373925	0.852730	-0.719431
H213	H	0.433688	0.733141	-0.590384
H214	H	0.493478	0.613548	-0.577373
C215	C	0.630500	-0.020373	-0.114920
C216	C	0.614183	0.028710	-0.195537
C217	C	0.648553	0.000650	-0.236365
C218	C	0.699241	-0.076492	-0.196576
C219	C	0.715561	-0.125579	-0.115955
C220	C	0.681190	-0.097520	-0.075126
H221	H	0.576659	0.085819	-0.224995
H222	H	0.636472	0.036988	-0.296047
H223	H	0.724684	-0.097263	-0.226800
H224	H	0.753085	-0.182689	-0.086497
H225	H	0.693272	-0.133858	-0.015445
H226	H	0.079947	0.533193	0.147869
C227	C	-0.254623	0.533203	-0.110132
C228	C	-0.277254	0.592634	-0.188794
C229	C	-0.305323	0.592627	-0.246531
C230	C	-0.310761	0.533189	-0.225605
C231	C	-0.288129	0.473753	-0.146939
C232	C	-0.260060	0.473760	-0.089202
H233	H	-0.273229	0.636638	-0.204288
H234	H	-0.322076	0.636626	-0.304764
H235	H	-0.331539	0.533184	-0.268345
H236	H	-0.292154	0.429750	-0.131445
H237	H	-0.243307	0.429762	-0.030968
H238	H	0.901840	0.221678	0.067337
H239	H	0.278859	0.844748	0.067555
C240	C	0.786763	0.214434	-0.077949
C241	C	0.753954	0.263535	-0.158559
C242	C	0.747609	0.235490	-0.199397
C243	C	0.774074	0.158346	-0.159625
C244	C	0.806885	0.109240	-0.079010
C245	C	0.813229	0.137284	-0.038172
H246	H	0.734361	0.320646	-0.188005
H247	H	0.723320	0.271842	-0.259073
H248	H	0.769377	0.137586	-0.189855
H249	H	0.826478	0.052128	-0.049564
H250	H	0.837519	0.100932	0.021504
C251	C	0.149208	0.852078	-0.077725
C252	C	0.093115	0.908182	-0.077690
C253	C	0.030677	0.936243	-0.118489
C254	C	0.024331	0.908199	-0.159323
C255	C	0.080426	0.852091	-0.159360
C256	C	0.142865	0.824030	-0.118560
H257	H	0.097811	0.928945	-0.047461
H258	H	-0.010848	0.977778	-0.118462
H259	H	-0.021889	0.928971	-0.189525
H260	H	0.075731	0.831328	-0.189589
H261	H	0.184390	0.782496	-0.118587
C262	C	0.387488	0.744942	-0.329361
C263	C	0.393770	0.773008	-0.403531
C264	C	0.456182	0.744957	-0.411058
C265	C	0.512312	0.688840	-0.344416
C266	C	0.506031	0.660772	-0.270241
C267	C	0.443619	0.688823	-0.262714
H268	H	0.352218	0.814552	-0.452868
H269	H	0.460831	0.765736	-0.465967
H270	H	0.558512	0.668075	-0.349988
H271	H	0.547583	0.619228	-0.220904
H272	H	0.438970	0.668044	-0.207805
H273	H	0.590350	-0.155209	-0.067200
H274	H	0.175879	0.891051	0.000229
H275	H	0.175758	0.891061	-0.424939
H276	H	0.371372	0.752205	0.067526
H277	H	0.257949	0.752241	-0.067164
H278	H	0.590356	0.752188	-0.192703
C279	C	0.599310	0.851996	-0.300676
C280	C	0.633667	0.823938	-0.226509
C281	C	0.668047	0.851980	-0.218988
C282	C	0.668070	0.908079	-0.285634
C283	C	0.633712	0.936140	-0.359806
C284	C	0.599332	0.908098	-0.367327
H285	H	0.633651	0.782407	-0.177170
H286	H	0.693482	0.831207	-0.164081
H287	H	0.693520	0.928837	-0.280066
H288	H	0.633728	0.977671	-0.409146
H289	H	0.573898	0.928871	-0.422234
H290	H	-0.154776	0.533215	-0.095137
C291	C	0.810960	0.321496	0.078009
C292	C	0.873396	0.293419	0.118828
C293	C	0.879741	0.321444	0.159689
C294	C	0.823650	0.377545	0.159731
C295	C	0.761211	0.405624	0.118911
C296	C	0.754866	0.377600	0.078050
H297	H	0.914921	0.251887	0.118798
H298	H	0.925963	0.300657	0.189906
H299	H	0.828347	0.398290	0.189978
H300	H	0.719685	0.447157	0.118940
H301	H	0.708643	0.398387	0.047832
C302	C	0.786932	0.214388	0.456839
C303	C	0.754170	0.263459	0.479169
C304	C	0.747893	0.235379	0.553344
C305	C	0.774377	0.158227	0.605189
C306	C	0.807141	0.109151	0.582860
C307	C	0.813418	0.137232	0.508685
H308	H	0.734563	0.320576	0.440789
H309	H	0.723639	0.271708	0.569873
H310	H	0.769731	0.137440	0.660098
H311	H	0.826748	0.052034	0.621240
H312	H	0.837672	0.100902	0.492156
H313	H	0.476941	0.646569	-0.437391
C314	C	0.214752	0.533237	0.110363
C315	C	0.149924	0.592738	0.089466
C316	C	0.121878	0.592730	0.147217
C317	C	0.158659	0.533220	0.225865
C318	C	0.223490	0.473714	0.246765
C319	C	0.251537	0.473723	0.189014
H320	H	0.122693	0.636795	0.031243
H321	H	0.073885	0.636780	0.131745
H322	H	0.137897	0.533213	0.268616
H323	H	0.250721	0.429657	0.304988
H324	H	0.299529	0.429673	0.204486
H325	H	0.278702	0.844793	-0.437340
C326	C	0.599237	0.321547	0.329565
C327	C	0.633600	0.293498	0.403724
C328	C	0.667976	0.321549	0.411229
C329	C	0.667989	0.377651	0.344573
C330	C	0.633624	0.405704	0.270408
C331	C	0.599248	0.377652	0.262904
H332	H	0.633592	0.251965	0.453072
H333	H	0.693415	0.300782	0.466131
H334	H	0.693436	0.398417	0.350128
H335	H	0.633632	0.447236	0.221061
H336	H	0.573809	0.398419	0.208002
C337	C	0.599236	0.214446	0.456831
C338	C	0.667097	0.179374	0.479095
C339	C	0.701481	0.151326	0.553246
C340	C	0.668005	0.158352	0.605134
C341	C	0.600141	0.193426	0.582871
C342	C	0.565756	0.221473	0.508719
H343	H	0.691881	0.174172	0.440684
H344	H	0.751719	0.125362	0.569726
H345	H	0.693458	0.137589	0.660025
H346	H	0.575356	0.198628	0.621282
H347	H	0.515519	0.247437	0.492239
C348	C	0.533697	0.905574	-0.442273
C349	C	0.474440	0.975717	-0.496005
C350	C	0.474454	1.031826	-0.562655
C351	C	0.533726	1.017792	-0.575573
C352	C	0.592987	0.947646	-0.521840
C353	C	0.592973	0.891537	-0.455189
H354	H	0.430560	0.986108	-0.486443
H355	H	0.430584	1.083752	-0.602432
H356	H	0.533736	1.059327	-0.624912
H357	H	0.636868	0.937254	-0.531401
H358	H	0.636843	0.839610	-0.415412
C359	C	0.468052	0.852046	-0.456615
C360	C	0.501539	0.845040	-0.508500
C361	C	0.467164	0.873121	-0.582673
C362	C	0.399301	0.908208	-0.604961
C363	C	0.365811	0.915216	-0.553074
C364	C	0.400186	0.887135	-0.478902
H365	H	0.551778	0.819065	-0.492003
H366	H	0.491956	0.867933	-0.621083
H367	H	0.373855	0.928995	-0.659868
H368	H	0.315572	0.941191	-0.569572
H369	H	0.375394	0.892323	-0.440492
C370	C	0.599240	0.402033	-0.543112
C371	C	0.649914	0.384844	-0.491215
C372	C	0.684262	0.316123	-0.417065
C373	C	0.667935	0.264591	-0.394812
C374	C	0.617258	0.281778	-0.446710
C375	C	0.582911	0.350499	-0.520860
H376	H	0.662002	0.422993	-0.507687
H377	H	0.721776	0.303400	-0.378647
H378	H	0.693361	0.213719	-0.339922
H379	H	0.605170	0.243629	-0.430238
H380	H	0.545397	0.363222	-0.559279
H381	H	0.891507	0.175425	0.425171
H382	H	0.695993	0.314223	0.327643
H383	H	0.477008	-0.155241	0.067512
H384	H	0.476909	0.221668	0.067431
C385	C	0.436785	0.086780	0.115189
C386	C	0.453099	0.037696	0.195805
C387	C	0.418719	0.065752	0.236631
C388	C	0.368025	0.142892	0.196841
C389	C	0.351708	0.191981	0.116220
C390	C	0.386089	0.163925	0.075394
H391	H	0.490629	-0.019412	0.225264
H392	H	0.430798	0.029413	0.296312
H393	H	0.342575	0.163661	0.227062
H394	H	0.314179	0.249089	0.086761
H395	H	0.374010	0.200264	0.015713
C396	C	0.467969	0.321530	0.078024
C397	C	0.467964	0.377656	0.078014
C398	C	0.433609	0.405715	0.118851
C399	C	0.399258	0.377647	0.159698
C400	C	0.399262	0.321518	0.159709
C401	C	0.433617	0.293460	0.118872
H402	H	0.493393	0.398436	0.047776
H403	H	0.433606	0.447265	0.118842
H404	H	0.373827	0.398418	0.189927
H405	H	0.373833	0.300738	0.189947
H406	H	0.433620	0.251909	0.118881
H407	H	0.477023	0.646565	-0.806969
H408	H	0.476955	0.752220	-0.327417
C409	C	0.321871	0.533252	-0.110118
C410	C	0.344600	0.473746	-0.118088
C411	C	0.372651	0.473749	-0.175834
C412	C	0.377974	0.533257	-0.225611
C413	C	0.355245	0.592767	-0.217642
C414	C	0.327194	0.592764	-0.159896
H415	H	0.340660	0.429691	-0.081239
H416	H	0.389476	0.429695	-0.181733
H417	H	0.398739	0.533259	-0.268358
H418	H	0.359185	0.636822	-0.254491
H419	H	0.310369	0.636818	-0.153998
H420	H	0.257945	0.752219	-0.192689
H421	H	0.590269	0.419890	-0.302768
C422	C	0.533602	0.160882	0.442546
C423	C	0.567981	0.132838	0.516695
C424	C	0.567987	0.076729	0.583371
C425	C	0.533615	0.048666	0.575897
C426	C	0.499234	0.076710	0.501745
C427	C	0.499228	0.132818	0.435069
H428	H	0.593427	0.153612	0.522231
H429	H	0.593438	0.055969	0.638264
H430	H	0.533620	0.007131	0.625255
H431	H	0.473788	0.055936	0.496209
H432	H	0.473777	0.153579	0.380176
C433	C	0.467977	0.214424	0.300978
C434	C	0.484279	0.179342	0.262028
C435	C	0.449913	0.151269	0.254556
C436	C	0.399245	0.158278	0.286035
C437	C	0.382940	0.193361	0.324988
C438	C	0.417307	0.221434	0.332460
H439	H	0.521789	0.174153	0.238723
H440	H	0.461983	0.125299	0.225721
H441	H	0.373805	0.137497	0.280504
H442	H	0.345431	0.198551	0.348293
H443	H	0.405237	0.247405	0.361296
C444	C	0.087192	0.533221	-0.162614
C445	C	0.109903	0.473720	-0.170587
C446	C	0.137955	0.473714	-0.228330
C447	C	0.143297	0.533208	-0.278100
C448	C	0.120585	0.592713	-0.270128
C449	C	0.092533	0.592720	-0.212385
H450	H	0.105949	0.429675	-0.133743
H451	H	0.154768	0.429664	-0.234232
H452	H	0.164063	0.533203	-0.320845
H453	H	0.124539	0.636758	-0.306972
H454	H	0.075720	0.636770	-0.206484
H455	H	0.590227	0.314261	-0.067297
H456	H	0.809320	0.314235	0.192920
H457	H	0.621549	0.079493	-0.104340
H458	H	0.590373	-0.247793	-0.067176
H459	H	0.222040	0.533233	-0.095121
H460	H	-0.012642	0.533215	-0.147618
H461	H	-0.247315	0.533216	0.095341
H462	H	0.476909	0.314246	0.192959
H463	H	-0.154761	0.533207	0.095354
C464	C	0.918090	0.214417	0.300886
C465	C	0.961743	0.137271	0.332326
C466	C	1.024155	0.109222	0.324799
C467	C	1.042914	0.158319	0.285832
C468	C	0.999259	0.235470	0.254390
C469	C	0.936847	0.263519	0.261917
H470	H	0.947858	0.100922	0.361174
H471	H	1.056471	0.052109	0.348074
H472	H	1.089115	0.137555	0.280260
H473	H	1.013144	0.271819	0.225542
H474	H	0.904532	0.320631	0.238642
C475	C	-0.019889	0.533186	0.162869
C476	C	-0.025201	0.473669	0.212649
C477	C	-0.053240	0.473653	0.270407
C478	C	-0.075968	0.533154	0.278384
C479	C	-0.070657	0.592676	0.228603
C480	C	-0.042618	0.592692	0.170845
H481	H	-0.008376	0.429619	0.206745
H482	H	-0.057172	0.429591	0.307258
H483	H	-0.096725	0.533142	0.321140
H484	H	-0.087482	0.636726	0.234507
H485	H	-0.038686	0.636754	0.133993
C486	C	0.321891	0.533241	0.110366
C487	C	0.386722	0.473729	0.160139
C488	C	0.414796	0.473720	0.217887
C489	C	0.378039	0.533223	0.225862
C490	C	0.313205	0.592740	0.176087
C491	C	0.285131	0.592749	0.118339
H492	H	0.413935	0.429678	0.154237
H493	H	0.462791	0.429662	0.254734
H494	H	0.398821	0.533217	0.268611
H495	H	0.285992	0.636792	0.181989
H496	H	0.237136	0.636807	0.081492
H497	H	0.165390	0.844767	-0.302605
H498	H	0.590255	0.419884	-0.192794
H499	H	0.590344	0.419882	-0.672344
H500	H	0.476916	0.646572	-0.327428
