data_functionalizedCrystal
_audit_creation_method	'MofGen! by Chris Wilmer'
_symmetry_space_group_name_H-M	'P1'
_symmetry_Int_Tables_number	1
_symmetry_cell_setting	triclinic
loop_
_symmetry_equiv_pos_as_xyz
  x,y,z
_cell_length_a	17.699077
_cell_length_b	17.699083
_cell_length_c	16.176319
_cell_angle_alpha	89.992304
_cell_angle_beta	89.993140
_cell_angle_gamma	83.281795
loop_
_atom_site_label
_atom_site_type_symbol
_atom_site_fract_x
_atom_site_fract_y
_atom_site_fract_z
O1	O	1.004082	0.095692	-0.068737
O2	O	1.504082	0.595692	0.431263
O3	O	0.783703	0.108149	-0.068741
O4	O	1.283703	0.608149	0.431259
O5	O	0.900118	-0.008269	-0.068732
O6	O	1.400118	0.491731	0.431268
O7	O	0.887666	0.212110	-0.068747
O8	O	1.387666	0.712110	0.431253
O9	O	0.900102	-0.008277	0.068761
O10	O	1.400102	0.491723	0.568761
O11	O	0.783687	0.108141	0.068752
O12	O	1.283687	0.608141	0.568752
O13	O	1.004066	0.095684	0.068756
O14	O	1.504066	0.595684	0.568756
Cu15	Cu	0.893875	0.101912	0.081308
Cu16	Cu	1.393875	0.601912	0.581308
Cu17	Cu	0.893894	0.101921	-0.081294
Cu18	Cu	1.393894	0.601921	0.418706
O19	O	0.887650	0.212102	0.068746
O20	O	1.387650	0.712102	0.568746
C21	C	0.755498	0.107700	0.000005
C22	C	1.255498	0.607700	0.500005
C23	C	0.671479	0.106363	0.000003
C24	C	1.171479	0.606363	0.500003
C25	C	0.632003	0.105729	0.074952
C26	C	1.132003	0.605729	0.574952
C27	C	0.553061	0.104461	0.074953
C28	C	1.053061	0.604461	0.574953
C29	C	0.513595	0.103832	0.000004
C30	C	1.013595	0.603832	0.500004
C31	C	0.553077	0.104464	-0.074950
C32	C	1.053077	0.604464	0.425050
C33	C	0.632019	0.105726	-0.074950
C34	C	1.132019	0.605726	0.425050
C35	C	0.234714	0.099370	-0.074951
C36	C	0.734714	0.599370	0.425049
C37	C	0.155766	0.098110	-0.074945
C38	C	0.655766	0.598110	0.425055
C39	C	0.155755	0.098105	0.074952
C40	C	0.655755	0.598105	0.574952
C41	C	0.234697	0.099367	0.074951
C42	C	0.734697	0.599367	0.574951
C43	C	0.274173	0.099995	-0.000002
C44	C	0.774173	0.599995	0.499998
C45	C	0.359772	0.101369	-0.000002
C46	C	0.859772	0.601369	0.499998
C47	C	0.427997	0.102464	0.000004
C48	C	0.927997	0.602464	0.500004
C49	C	0.899664	-0.036470	0.000015
C50	C	1.399664	0.463530	0.500015
C51	C	0.898326	-0.120488	0.000015
C52	C	1.398326	0.379512	0.500015
C53	C	0.966659	-0.169110	0.000018
C54	C	1.466659	0.330890	0.500018
C55	C	0.965397	-0.248054	0.000010
C56	C	1.465397	0.251946	0.500010
C57	C	0.895800	-0.278373	0.000006
C58	C	1.395800	0.221627	0.500006
C59	C	0.827461	-0.229744	0.000001
C60	C	1.327461	0.270256	0.500001
C61	C	0.828724	-0.150803	0.000003
C62	C	1.328724	0.349197	0.500003
C63	C	0.822366	-0.548107	-0.000005
C64	C	1.322366	-0.048107	0.499995
C65	C	0.821108	-0.627055	-0.000004
C66	C	1.321108	-0.127055	0.499996
C67	C	0.959039	-0.645358	0.000002
C68	C	1.459039	-0.145358	0.500002
C69	C	0.960302	-0.566417	0.000003
C70	C	1.460302	-0.066417	0.500003
C71	C	0.891963	-0.517795	-0.000006
C72	C	1.391963	-0.017795	0.499994
C73	C	0.893333	-0.432196	0.000000
C74	C	1.393333	0.067804	0.500000
C75	C	0.894430	-0.363971	0.000006
C76	C	1.394430	0.136029	0.500006
C77	C	1.032271	0.096133	0.000008
C78	C	1.532271	0.596133	0.500008
C79	C	1.116289	0.097470	0.000004
C80	C	1.616289	0.597470	0.500004
C81	C	0.888104	0.240303	-0.000002
C82	C	1.388104	0.740303	0.499998
C83	C	0.889443	0.324321	-0.000008
C84	C	1.389443	0.824321	0.499992
N85	N	0.893867	0.101906	0.195673
N86	N	1.393867	0.601906	0.695673
N87	N	0.893907	0.101921	-0.195659
N88	N	1.393907	0.601921	0.304341
C89	C	0.945431	0.050377	0.238942
C90	C	1.445431	0.550377	0.738942
C91	C	0.945435	0.050376	0.325489
C92	C	1.445435	0.550376	0.825489
C93	C	0.893878	0.101908	0.368766
C94	C	1.393878	0.601908	0.868766
C95	C	0.842308	0.153439	0.325491
C96	C	1.342308	0.653439	0.825491
C97	C	0.842301	0.153436	0.238946
C98	C	1.342301	0.653436	0.738946
C99	C	0.842334	0.153454	0.674520
C100	C	1.342334	0.653454	1.174520
C101	C	0.842346	0.153455	0.761071
C102	C	1.342346	0.653455	1.261071
C103	C	0.945468	0.050393	0.761063
C104	C	1.445468	0.550393	1.261063
C105	C	0.945461	0.050390	0.674517
C106	C	1.445461	0.550390	1.174517
C107	C	0.893889	0.101918	0.631250
C108	C	1.393889	0.601918	1.131250
C109	C	0.893884	0.101918	0.537406
C110	C	1.393884	0.601918	1.037406
C111	C	0.893885	0.101913	0.462608
C112	C	1.393885	0.601913	0.962608
H113	H	0.520924	0.103932	0.135983
H114	H	1.020924	0.603932	0.635983
H115	H	0.987446	0.008430	0.639284
H116	H	1.487446	0.508430	1.139284
H117	H	0.123605	0.097590	0.135983
H118	H	0.623605	0.597590	0.635983
H119	H	0.266826	0.099883	0.135982
H120	H	0.766826	0.599883	0.635982
Br121	Br	1.015412	-0.019559	0.180218
Br122	Br	1.515412	0.480441	0.680218
Br123	Br	0.772347	0.223384	0.615805
Br124	Br	1.272347	0.723384	1.115805
Br125	Br	1.015460	-0.019541	0.819786
Br126	Br	1.515460	0.480459	1.319786
Br127	Br	0.772313	0.223366	0.180224
Br128	Br	1.272313	0.723366	0.680224
H129	H	0.123635	0.097597	-0.135981
H130	H	0.623635	0.597597	0.364019
H131	H	0.766721	-0.508528	-0.000013
H132	H	1.266721	-0.008528	0.499987
H133	H	0.266845	0.099879	-0.135983
H134	H	0.766845	0.599879	0.364017
Br135	Br	0.726649	-0.668202	-0.000009
Br136	Br	1.226649	-0.168202	0.499991
Br137	Br	0.733007	-0.270891	-0.000018
Br138	Br	1.233007	0.229109	0.499982
H139	H	0.664130	0.106247	0.135984
H140	H	1.164130	0.606247	0.635984
Br141	Br	0.499522	0.103577	-0.176667
Br142	Br	0.999522	0.603577	0.323333
H143	H	0.773080	-0.111214	0.000001
H144	H	1.273080	0.388786	0.500001
Br145	Br	0.685595	0.106580	-0.176670
Br146	Br	1.185595	0.606580	0.323330
Br147	Br	1.015414	-0.019560	0.384213
Br148	Br	1.515414	0.480440	0.884213
Br149	Br	0.772371	0.223397	0.819805
Br150	Br	1.272371	0.723397	1.319805
Br151	Br	1.061117	-0.127971	0.000035
Br152	Br	1.561117	0.372029	0.500035
H153	H	1.021041	-0.287639	0.000014
H154	H	1.521041	0.212361	0.500014
Br155	Br	1.054757	-0.525273	0.000008
Br156	Br	1.554757	-0.025273	0.500008
H157	H	1.014683	-0.684956	0.000005
H158	H	1.514683	-0.184956	0.500005
H159	H	0.800325	0.195395	0.360733
H160	H	1.300325	0.695395	0.860733
