data_functionalizedCrystal
_audit_creation_method	'MofGen! by Chris Wilmer'
_symmetry_space_group_name_H-M	'P1'
_symmetry_Int_Tables_number	1
_symmetry_cell_setting	triclinic
loop_
_symmetry_equiv_pos_as_xyz
  x,y,z
_cell_length_a	19.077105
_cell_length_b	12.645330
_cell_length_c	19.076919
_cell_angle_alpha	92.276250
_cell_angle_beta	90.076224
_cell_angle_gamma	87.714233
loop_
_atom_site_label
_atom_site_type_symbol
_atom_site_fract_x
_atom_site_fract_y
_atom_site_fract_z
Zn1	Zn	1.058309	-0.512860	-0.440444
Zn2	Zn	1.558309	-0.012860	0.059556
Zn3	Zn	1.062962	-0.683311	-0.322946
Zn4	Zn	1.562962	-0.183311	0.177054
Zn5	Zn	0.945526	-0.498659	-0.318237
Zn6	Zn	1.445526	0.001341	0.181763
Zn7	Zn	0.940784	-0.682672	-0.435699
Zn8	Zn	1.440784	-0.182672	0.064301
O9	O	1.001896	-0.594376	-0.379332
O10	O	1.501896	-0.094376	0.120668
O11	O	1.157259	-0.541682	-0.428815
O12	O	1.657259	-0.041682	0.071185
O13	O	1.051316	-0.653141	-0.223990
O14	O	1.551316	-0.153141	0.276010
O15	O	0.960524	-0.352199	-0.334463
O16	O	1.460524	0.147801	0.165537
O17	O	1.160677	-0.666911	-0.342490
O18	O	1.660677	-0.166911	0.157510
O19	O	1.043386	-0.362632	-0.424248
O20	O	1.543386	0.137368	0.075752
O21	O	0.965036	-0.517478	-0.220530
O22	O	1.465036	-0.017478	0.279470
O23	O	0.846565	-0.516858	-0.329862
O24	O	1.346565	-0.016858	0.170138
O25	O	0.952442	-0.665822	-0.534660
O26	O	1.452442	-0.165822	-0.034660
O27	O	0.843081	-0.652051	-0.416161
O28	O	1.343081	-0.152051	0.083839
O29	O	1.038788	-0.541062	-0.538146
O30	O	1.538788	-0.041062	-0.038146
O31	O	1.046718	-0.831570	-0.337888
O32	O	1.546718	-0.331570	0.162112
O33	O	0.956954	-0.831101	-0.420727
O34	O	1.456954	-0.331101	0.079273
C35	C	0.819326	-0.582845	-0.371986
C36	C	1.319326	-0.082845	0.128014
C37	C	0.741222	-0.577939	-0.368860
C38	C	1.241222	-0.077939	0.131140
C39	C	0.702735	-0.646120	-0.412251
C40	C	1.202735	-0.146120	0.087749
C41	C	0.629348	-0.641496	-0.409318
C42	C	1.129348	-0.141496	0.090682
C43	C	0.594448	-0.568695	-0.362988
C44	C	1.094448	-0.068695	0.137012
C45	C	0.632940	-0.500507	-0.319594
C46	C	1.132940	-0.000507	0.180406
C47	C	0.706326	-0.505126	-0.322532
C48	C	1.206326	-0.005126	0.177468
C49	C	0.375159	-0.547316	-0.349394
C50	C	0.875159	-0.047316	0.150606
C51	C	0.301768	-0.542704	-0.346458
C52	C	0.801768	-0.042704	0.153542
C53	C	0.298181	-0.683692	-0.436183
C54	C	0.798181	-0.183692	0.063817
C55	C	0.371569	-0.688309	-0.439113
C56	C	0.871569	-0.188309	0.060887
C57	C	0.410054	-0.620117	-0.395722
C58	C	0.910054	-0.120117	0.104278
N59	N	0.519434	-0.563970	-0.359986
N60	N	1.019434	-0.063970	0.140014
N61	N	0.485066	-0.624839	-0.398728
N62	N	0.985066	-0.124839	0.101272
C63	C	1.001845	-0.869801	-0.379320
C64	C	1.501845	-0.369801	0.120680
C65	C	1.001886	-0.987635	-0.379341
C66	C	1.501886	-0.487635	0.120659
C67	C	0.945633	-1.154972	-0.431631
C68	C	1.445633	-0.654972	0.068369
C69	C	0.945363	-1.032385	-0.431445
C70	C	1.445363	-0.532385	0.068555
C71	C	0.984820	-1.026659	-0.304483
C72	C	1.484820	-0.526659	0.195517
C73	C	0.984477	-1.149256	-0.304800
C74	C	1.484477	-0.649256	0.195200
C75	C	1.075561	-1.160522	-0.401321
C76	C	1.575561	-0.660522	0.098679
C77	C	1.075039	-1.037980	-0.402922
C78	C	1.575039	-0.537980	0.097078
C79	C	1.185178	-0.605952	-0.386707
C80	C	1.685178	-0.105952	0.113293
C81	C	1.263281	-0.610885	-0.389850
C82	C	1.763281	-0.110885	0.110150
C83	C	0.994567	-0.604955	-0.562612
C84	C	1.494567	-0.104955	-0.062612
C85	C	0.991444	-0.609463	-0.640716
C86	C	1.491444	-0.109463	-0.140716
C87	C	1.001965	-0.317876	-0.379360
C88	C	1.501965	0.182124	0.120640
C89	C	1.001995	-0.200049	-0.379372
C90	C	1.501995	0.299951	0.120628
C91	C	1.034930	-0.546628	-0.679225
C92	C	1.534930	-0.046628	-0.179225
C93	C	1.031987	-0.550859	-0.752611
C94	C	1.531987	-0.050859	-0.252611
C95	C	0.985561	-0.617932	-0.787487
C96	C	1.485561	-0.117932	-0.287487
C97	C	0.942070	-0.680769	-0.748972
C98	C	1.442070	-0.180769	-0.248972
C99	C	0.945010	-0.676531	-0.675587
C100	C	1.445010	-0.176531	-0.175587
C101	C	0.971944	-0.637565	-1.006769
C102	C	1.471944	-0.137565	-0.506769
C103	C	0.969009	-0.641800	-1.080159
C104	C	1.469009	-0.141800	-0.580159
C105	C	1.058925	-0.511889	-1.083793
C106	C	1.558925	-0.011889	-0.583793
C107	C	1.061864	-0.507662	-1.010407
C108	C	1.561864	-0.007662	-0.510407
C109	C	1.018371	-0.570495	-0.971898
C110	C	1.518371	-0.070495	-0.471898
N111	N	0.982553	-0.622261	-0.862499
N112	N	1.482553	-0.122261	-0.362499
N113	N	1.021376	-0.566159	-0.896887
N114	N	1.521376	-0.066159	-0.396887
C115	C	1.009236	-0.583764	-0.196766
C116	C	1.509236	-0.083764	0.303234
C117	C	1.012495	-0.578966	-0.118668
C118	C	1.512495	-0.078966	0.381332
H119	H	0.406485	-0.491797	-0.314057
H120	H	0.906485	0.008203	0.185943
O121	O	1.037646	-0.988026	-0.251318
O122	O	1.537646	-0.488026	0.248682
H123	H	1.010227	-0.938227	-0.209824
H124	H	1.510227	-0.438227	0.290176
H125	H	1.067399	-0.499695	-0.783962
H126	H	1.567399	0.000305	-0.283962
O127	O	0.925017	-0.705334	-0.965262
O128	O	1.425017	-0.205334	-0.465262
H129	H	0.957767	-0.759340	-0.933078
H130	H	1.457767	-0.259340	-0.433078
O131	O	1.105819	-0.444114	-1.125338
O132	O	1.605819	0.055886	-0.625338
H133	H	1.161531	-0.464963	-1.113486
H134	H	1.661531	0.035037	-0.613486
O135	O	1.096951	-1.206982	-0.472610
O136	O	1.596951	-0.706982	0.027390
H137	H	1.148973	-1.177910	-0.486885
H138	H	1.648973	-0.677910	0.013115
O139	O	0.918922	-0.714133	-1.117773
O140	O	1.418922	-0.214133	-0.617773
H141	H	0.924190	-0.706526	-1.175271
H142	H	1.424190	-0.206526	-0.675271
O143	O	0.256674	-0.757229	-0.482990
O144	O	0.756674	-0.257229	0.017010
H145	H	0.199780	-0.741783	-0.473171
H146	H	0.699780	-0.241783	0.026829
H147	H	0.904267	-0.735377	-0.777373
H148	H	1.404267	-0.235377	-0.277373
H149	H	0.955696	-1.006214	-0.486858
H150	H	1.455696	-0.506214	0.013142
H151	H	0.598015	-0.697017	-0.444651
H152	H	1.098015	-0.197017	0.055349
O153	O	0.595304	-0.422009	-0.269604
O154	O	1.095304	0.077991	0.230396
H155	H	0.537808	-0.430267	-0.274838
H156	H	1.037808	0.069733	0.225162
O157	O	1.111936	-0.435315	-0.972792
O158	O	1.611936	0.064685	-0.472792
H159	H	1.149015	-0.483097	-0.940800
H160	H	1.649015	0.016903	-0.440800
O161	O	0.898099	-0.744287	-0.634046
O162	O	1.398099	-0.244287	-0.134046
H163	H	0.865322	-0.791640	-0.670624
H164	H	1.365322	-0.291640	-0.170624
H165	H	0.731145	-0.705405	-0.449976
H166	H	1.231145	-0.205405	0.050024
O167	O	0.747842	-0.431590	-0.275732
O168	O	1.247842	0.068410	0.224268
H169	H	0.782698	-0.478992	-0.241272
H170	H	1.282698	0.021008	0.258728
H171	H	0.399979	-0.747594	-0.476839
H172	H	0.899979	-0.247594	0.023161
H173	H	0.273354	-0.483409	-0.308735
H174	H	0.773354	0.016591	0.191265
H175	H	0.955843	-1.188371	-0.487220
H176	H	1.455843	-0.688371	0.012780
H177	H	0.931710	-0.991707	-0.285967
H178	H	1.431710	-0.491707	0.214033
H179	H	1.087964	-1.012952	-0.458029
H180	H	1.587964	-0.512952	0.041971
O181	O	0.873753	-1.190351	-0.412289
O182	O	1.373753	-0.690351	0.087711
H183	H	0.877994	-1.239900	-0.365615
H184	H	1.377994	-0.739900	0.134385
H185	H	0.890765	-0.998945	-0.416668
H186	H	1.390765	-0.498945	0.083332
H187	H	0.930788	-1.173588	-0.286552
H188	H	1.430788	-0.673588	0.213448
O189	O	1.036695	-1.188475	-0.251244
O190	O	1.536695	-0.688475	0.248756
H191	H	1.062076	-1.119872	-0.225230
H192	H	1.562076	-0.619872	0.274770
H193	H	1.119004	-1.007870	-0.367868
H194	H	1.619004	-0.507870	0.132132
H195	H	1.117515	-1.189748	-0.363295
H196	H	1.617515	-0.689748	0.136705
O197	O	1.085004	-0.474285	-0.641610
O198	O	1.585004	0.025715	-0.141610
H199	H	1.114742	-0.431297	-0.680720
H200	H	1.614742	0.068703	-0.180720
