data_functionalizedCrystal
_audit_creation_method	'MofGen! by Chris Wilmer'
_symmetry_space_group_name_H-M	'P1'
_symmetry_Int_Tables_number	1
_symmetry_cell_setting	triclinic
loop_
_symmetry_equiv_pos_as_xyz
  x,y,z
_cell_length_a	29.839134
_cell_length_b	18.050590
_cell_length_c	29.839125
_cell_angle_alpha	90.019325
_cell_angle_beta	89.987811
_cell_angle_gamma	89.996937
loop_
_atom_site_label
_atom_site_type_symbol
_atom_site_fract_x
_atom_site_fract_y
_atom_site_fract_z
Zn1	Zn	0.686779	0.296149	-0.254003
Zn2	Zn	0.686736	0.420315	-0.178870
Zn3	Zn	0.611661	0.296101	-0.178885
Zn4	Zn	0.611634	0.420259	-0.253972
O5	O	0.649202	0.358206	-0.216432
O6	O	0.749640	0.312663	-0.244043
O7	O	0.676770	0.403841	-0.116005
O8	O	0.621655	0.192183	-0.188869
O9	O	0.749608	0.403887	-0.188844
O10	O	0.676844	0.192218	-0.244057
O11	O	0.621614	0.312582	-0.116016
O12	O	0.548791	0.312528	-0.188839
O13	O	0.621609	0.403792	-0.316843
O14	O	0.548771	0.403746	-0.244004
O15	O	0.676817	0.312608	-0.316866
O16	O	0.676744	0.524232	-0.188814
O17	O	0.621567	0.524191	-0.243990
C18	C	0.532480	0.358126	-0.216420
C19	C	0.482545	0.358110	-0.216425
C20	C	0.649160	0.551158	-0.216407
C21	C	0.649183	0.633704	-0.216411
C22	C	0.125971	0.310804	-0.245231
C23	C	0.313644	0.310745	-0.245221
O24	O	0.337919	0.270429	-0.269711
N25	N	0.337100	0.358159	-0.216436
C26	C	0.313636	0.405595	-0.187653
O27	O	0.337893	0.445927	-0.163173
C28	C	0.125964	0.405658	-0.187666
C29	C	0.102509	0.358235	-0.216450
C30	C	0.102516	0.263386	-0.274013
C31	C	0.055601	0.263399	-0.274014
C32	C	0.032140	0.310829	-0.245232
C33	C	0.055594	0.358248	-0.216451
C34	C	0.102500	0.453097	-0.158887
C35	C	0.055579	0.453110	-0.158893
C36	C	0.032125	0.405687	-0.187677
C37	C	-0.014783	0.405691	-0.187670
N38	N	-0.038239	0.358277	-0.216455
C39	C	-0.014778	0.310846	-0.245236
C40	C	0.412166	0.405557	-0.187648
C41	C	0.459084	0.405541	-0.187644
C42	C	0.459089	0.310691	-0.245212
C43	C	0.412170	0.310705	-0.245214
C44	C	0.388710	0.358143	-0.216433
C45	C	-0.113304	0.310875	-0.245235
C46	C	-0.160224	0.310890	-0.245232
C47	C	-0.160224	0.405742	-0.187665
C48	C	-0.113309	0.405725	-0.187667
C49	C	-0.089850	0.358289	-0.216455
O50	O	-0.039087	0.445991	-0.163197
O51	O	-0.039044	0.270531	-0.269720
C52	C	0.172886	0.310792	-0.245231
C53	C	0.196340	0.358210	-0.216449
C54	C	0.172879	0.405641	-0.187668
C55	C	0.243258	0.358193	-0.216445
C56	C	0.266719	0.310763	-0.245226
C57	C	0.243263	0.263349	-0.274011
C58	C	0.196347	0.263361	-0.274012
C59	C	0.196336	0.453055	-0.158883
C60	C	0.243251	0.453038	-0.158884
C61	C	0.266712	0.405607	-0.187665
C62	C	0.679242	0.833150	-0.186440
C63	C	0.690209	0.882504	-0.227440
C64	C	0.649202	0.784834	-0.216423
C65	C	0.638275	0.882562	-0.175435
C66	C	0.649221	0.930819	-0.216431
C67	C	0.660190	0.833101	-0.257445
C68	C	0.608237	0.833155	-0.205412
C69	C	0.619188	0.882486	-0.246441
C70	C	0.649192	0.700736	-0.216418
C71	C	0.649231	1.014916	-0.216441
C72	C	0.766381	0.358286	-0.216445
C73	C	0.816315	0.358321	-0.216451
C74	C	0.649215	0.358199	-0.333611
C75	C	0.649220	0.358196	-0.383545
C76	C	0.649247	1.164500	-0.216458
C77	C	0.649239	1.081955	-0.216443
C78	C	0.677997	0.310593	-0.693204
C79	C	0.678019	0.310530	-0.880877
O80	O	0.702453	0.270126	-0.905154
N81	N	0.649279	0.357998	-0.904331
C82	C	0.620530	0.405481	-0.880863
O83	O	0.596082	0.445849	-0.905118
C84	C	0.620505	0.405540	-0.693191
C85	C	0.649251	0.358075	-0.669740
C86	C	0.706739	0.263130	-0.669752
C87	C	0.706735	0.263149	-0.622837
C88	C	0.677989	0.310631	-0.599373
C89	C	0.649246	0.358094	-0.622824
C90	C	0.591754	0.453020	-0.669724
C91	C	0.591750	0.453029	-0.622803
C92	C	0.620495	0.405563	-0.599352
C93	C	0.620496	0.405595	-0.552445
N94	N	0.649236	0.358127	-0.528991
C95	C	0.677982	0.310645	-0.552455
C96	C	0.620545	0.405448	-0.979394
C97	C	0.620552	0.405434	-1.026312
C98	C	0.678041	0.310481	-1.026322
C99	C	0.678036	0.310499	-0.979403
C100	C	0.649285	0.357980	-0.955940
C101	C	0.677972	0.310689	-0.453929
C102	C	0.677966	0.310715	-0.407009
C103	C	0.620476	0.405665	-0.407003
C104	C	0.620482	0.405642	-0.453919
C105	C	0.649232	0.358148	-0.477380
O106	O	0.596071	0.445972	-0.528138
O107	O	0.702419	0.270272	-0.528192
C108	C	0.678001	0.310574	-0.740119
C109	C	0.649259	0.358036	-0.763570
C110	C	0.620512	0.405518	-0.740106
C111	C	0.649265	0.358023	-0.810488
C112	C	0.678012	0.310541	-0.833952
C113	C	0.706752	0.263073	-0.810499
C114	C	0.706748	0.263092	-0.763583
C115	C	0.591772	0.452986	-0.763560
C116	C	0.591779	0.452964	-0.810476
C117	C	0.620526	0.405482	-0.833940
C118	C	0.649216	0.358159	-0.099710
C119	C	0.649298	0.357953	-0.049776
H120	H	-0.179318	0.272269	-0.268671
H121	H	0.568372	0.491623	-0.829566
H122	H	0.573595	0.811461	-0.196081
H123	H	0.724861	0.904182	-0.236759
H124	H	-0.094211	0.444334	-0.164225
C125	C	0.534950	0.546839	-0.768272
C126	C	0.560172	0.505184	-0.737773
H127	H	0.515443	0.579069	-0.752353
H128	H	0.517779	0.514460	-0.786570
H129	H	0.554525	0.575246	-0.786574
H130	H	0.540598	0.476772	-0.719474
H131	H	0.577345	0.537567	-0.719468
H132	H	0.669406	0.811467	-0.292141
C133	C	0.728639	0.137408	-0.608427
C134	C	0.738327	0.210955	-0.597069
H135	H	0.748141	0.105180	-0.592521
H136	H	0.732751	0.130625	-0.639726
H137	H	0.698455	0.126537	-0.600730
H138	H	0.768510	0.221828	-0.604769
H139	H	0.734219	0.217741	-0.565763
C140	C	0.560051	0.415893	-0.506670
C141	C	0.588886	0.457818	-0.479698
H142	H	0.540544	0.448102	-0.522584
H143	H	0.542880	0.383537	-0.488362
H144	H	0.577175	0.387616	-0.527360
H145	H	0.571762	0.486091	-0.459006
H146	H	0.606059	0.490186	-0.498007
H147	H	0.701442	0.271847	-0.960312
C148	C	0.713025	0.163203	-0.722514
C149	C	0.738341	0.210929	-0.695537
H150	H	0.732539	0.130973	-0.738427
H151	H	0.695918	0.191463	-0.743201
H152	H	0.693455	0.134796	-0.704208
H153	H	0.757909	0.239340	-0.713843
H154	H	0.755456	0.182665	-0.674847
C155	C	0.596465	0.886449	-0.323588
C156	C	0.584905	0.911555	-0.280711
H157	H	0.575303	0.904401	-0.344746
H158	H	0.596445	0.833832	-0.323940
H159	H	0.625485	0.904100	-0.331160
H160	H	0.555886	0.893900	-0.273138
H161	H	0.584921	0.964183	-0.280358
C162	C	0.712903	0.726332	-0.152313
C163	C	0.713547	0.803897	-0.152248
H164	H	0.734080	0.708274	-0.131204
H165	H	0.720390	0.708675	-0.181355
H166	H	0.683803	0.709443	-0.144418
H167	H	0.742646	0.820786	-0.160146
H168	H	0.706063	0.821561	-0.123200
C169	C	0.143584	0.163485	-0.280374
C170	C	0.170571	0.211237	-0.305655
H171	H	0.127675	0.131303	-0.299912
H172	H	0.122893	0.191731	-0.263241
H173	H	0.161884	0.135029	-0.260831
H174	H	0.152270	0.239697	-0.325196
H175	H	0.191263	0.182988	-0.322796
C176	C	0.657279	0.886979	-0.097296
C177	C	0.625783	0.911888	-0.128638
H178	H	0.649567	0.905079	-0.068405
H179	H	0.686176	0.904605	-0.105326
H180	H	0.657447	0.834357	-0.096896
H181	H	0.625617	0.964510	-0.129041
H182	H	0.596878	0.894266	-0.120606
H183	H	0.568346	0.491672	-0.688811
C184	C	0.734792	0.216850	-0.411739
C185	C	0.709563	0.258533	-0.381232
H186	H	0.754295	0.184633	-0.395826
H187	H	0.751968	0.249212	-0.430038
H188	H	0.715221	0.188427	-0.430039
H189	H	0.729133	0.286960	-0.362934
H190	H	0.692385	0.226167	-0.362926
H191	H	0.597072	0.444325	-0.387890
H192	H	0.701381	0.272013	-0.473026
C193	C	0.703563	0.268292	-1.098252
C194	C	0.709634	0.258278	-1.052120
H195	H	0.723062	0.236057	-1.114179
H196	H	0.710132	0.318183	-1.105935
H197	H	0.673377	0.257413	-1.105930
H198	H	0.739819	0.269162	-1.044441
H199	H	0.703067	0.208375	-1.044434
H200	H	0.597149	0.444094	-1.045402
C201	C	0.359422	0.505477	-0.181292
C202	C	0.386384	0.457706	-0.156007
H203	H	0.343509	0.537672	-0.161756
H204	H	0.338734	0.477246	-0.198428
H205	H	0.377738	0.533918	-0.200833
H206	H	0.368067	0.429260	-0.136468
H207	H	0.407074	0.485939	-0.138864
H208	H	0.597133	0.444117	-0.960294
H209	H	0.568331	0.491687	-0.603702
H210	H	0.730155	0.224440	-0.744493
H211	H	0.262344	0.491654	-0.135441
C212	C	0.713019	0.163163	-0.863269
C213	C	0.738349	0.210875	-0.836295
H214	H	0.732524	0.130936	-0.879194
H215	H	0.695906	0.191435	-0.883946
H216	H	0.693454	0.134753	-0.844960
H217	H	0.757912	0.239289	-0.854605
H218	H	0.755470	0.182600	-0.815616
C219	C	-0.118025	0.217116	-0.302136
C220	C	-0.087523	0.258731	-0.276877
H221	H	-0.102108	0.184920	-0.321666
H222	H	-0.136316	0.249522	-0.319283
H223	H	-0.136332	0.188674	-0.282586
H224	H	-0.069217	0.287177	-0.296427
H225	H	-0.069224	0.226320	-0.259728
H226	H	0.121614	0.224762	-0.297452
C227	C	0.060333	0.169653	-0.330919
C228	C	0.029824	0.211278	-0.305659
H229	H	0.044421	0.137479	-0.350459
H230	H	0.078622	0.141193	-0.311374
H231	H	0.078642	0.202059	-0.348061
H232	H	0.011517	0.178871	-0.288514
H233	H	0.011527	0.239739	-0.325206
H234	H	0.393077	0.272088	-0.268651
H235	H	0.478177	0.444149	-0.164201
C236	C	0.531017	0.268570	-0.270769
C237	C	0.484884	0.258561	-0.276853
H238	H	0.546942	0.236394	-0.290306
H239	H	0.538692	0.257615	-0.240600
H240	H	0.538703	0.318488	-0.277283
H241	H	0.477196	0.208644	-0.270336
H242	H	0.477205	0.269510	-0.307029
C243	C	-0.212983	0.505632	-0.181328
C244	C	-0.186019	0.457880	-0.156032
H245	H	-0.228906	0.537824	-0.161800
H246	H	-0.233661	0.477387	-0.198467
H247	H	-0.194666	0.534077	-0.200867
H248	H	-0.204336	0.429430	-0.136495
H249	H	-0.165338	0.486127	-0.138886
C250	C	0.097762	0.546864	-0.101995
C251	C	0.128272	0.505231	-0.127249
H252	H	0.113674	0.579055	-0.082464
H253	H	0.079458	0.514470	-0.084847
H254	H	0.079469	0.575313	-0.121548
H255	H	0.146564	0.476777	-0.107696
H256	H	0.146584	0.537629	-0.144398
C257	C	0.315191	0.221227	-0.299567
C258	C	0.269058	0.211215	-0.305650
H259	H	0.331116	0.189049	-0.319102
H260	H	0.322867	0.210278	-0.269398
H261	H	0.322877	0.271144	-0.306084
H262	H	0.261371	0.161299	-0.299130
H263	H	0.261378	0.222159	-0.335827
C264	C	0.002827	0.553017	-0.152543
C265	C	0.029792	0.505257	-0.127255
H266	H	-0.013090	0.585211	-0.133011
H267	H	-0.017857	0.524779	-0.169679
H268	H	0.021141	0.581461	-0.172086
H269	H	0.011477	0.476809	-0.107715
H270	H	0.050479	0.533498	-0.110112
H271	H	0.177238	0.491680	-0.135446
