data_functionalizedCrystal
_audit_creation_method	'MofGen! by Chris Wilmer'
_symmetry_space_group_name_H-M	'P1'
_symmetry_Int_Tables_number	1
_symmetry_cell_setting	triclinic
loop_
_symmetry_equiv_pos_as_xyz
  x,y,z
_cell_length_a	12.759400
_cell_length_b	19.805407
_cell_length_c	19.805399
_cell_angle_alpha	90.017803
_cell_angle_beta	90.023237
_cell_angle_gamma	90.012001
loop_
_atom_site_label
_atom_site_type_symbol
_atom_site_fract_x
_atom_site_fract_y
_atom_site_fract_z
Zn1	Zn	-0.418366	1.034791	0.382708
Zn2	Zn	0.081634	1.534791	0.882708
Zn3	Zn	-0.594059	1.034729	0.269528
Zn4	Zn	-0.094059	1.534729	0.769528
Zn5	Zn	-0.418387	0.921605	0.269536
Zn6	Zn	0.081613	1.421605	0.769536
Zn7	Zn	-0.593995	0.921592	0.382679
Zn8	Zn	-0.093995	1.421592	0.882679
O9	O	-0.506202	0.978179	0.326113
O10	O	-0.006202	1.478179	0.826113
O11	O	-0.441690	1.129499	0.367704
O12	O	0.058310	1.629499	0.867704
O13	O	-0.570791	1.019702	0.174813
O14	O	-0.070791	1.519702	0.674813
O15	O	-0.271363	0.936651	0.284564
O16	O	0.228637	1.436651	0.784564
O17	O	-0.570771	1.129454	0.284551
O18	O	-0.070771	1.629454	0.784551
O19	O	-0.271348	1.019808	0.367711
O20	O	0.228652	1.519808	0.867711
O21	O	-0.441725	0.936591	0.174819
O22	O	0.058275	1.436591	0.674819
O23	O	-0.441663	0.826887	0.284536
O24	O	0.058337	1.326887	0.784536
O25	O	-0.570662	0.936629	0.477399
O26	O	-0.070662	1.436629	0.977399
O27	O	-0.570682	0.826877	0.367661
O28	O	-0.070682	1.326877	0.867661
O29	O	-0.441628	1.019795	0.477421
O30	O	0.058372	1.519795	0.977421
O31	O	-0.741072	1.019689	0.284523
O32	O	-0.241072	1.519689	0.784523
O33	O	-0.741025	0.936568	0.367654
O34	O	-0.241025	1.436568	0.867654
C35	C	-0.506169	0.802323	0.326096
C36	C	-0.006169	1.302323	0.826096
C37	C	-0.506180	0.727091	0.326105
C38	C	-0.006180	1.227091	0.826105
C39	C	-0.439086	0.691772	0.369469
C40	C	0.060914	1.191772	0.869469
C41	C	-0.439092	0.621083	0.369471
C42	C	0.060908	1.121083	0.869471
C43	C	-0.506197	0.585716	0.326114
C44	C	-0.006197	1.085716	0.826114
C45	C	-0.573294	0.621040	0.282745
C46	C	-0.073294	1.121040	0.782745
C47	C	-0.573282	0.691728	0.282740
C48	C	-0.073282	1.191728	0.782740
C49	C	-0.573341	0.335967	0.282766
C50	C	-0.073341	0.835967	0.782766
C51	C	-0.573350	0.265275	0.282776
C52	C	-0.073350	0.765275	0.782776
C53	C	-0.439151	0.265323	0.369498
C54	C	0.060849	0.765323	0.869498
C55	C	-0.439139	0.336010	0.369492
C56	C	0.060861	0.836010	0.869492
C57	C	-0.506231	0.371328	0.326122
C58	C	-0.006231	0.871328	0.826122
C59	C	-0.506223	0.447977	0.326119
C60	C	-0.006223	0.947977	0.826119
C61	C	-0.506211	0.509069	0.326120
C62	C	-0.006211	1.009069	0.826120
C63	C	-0.779169	0.978139	0.326099
C64	C	-0.279169	1.478139	0.826099
C65	C	-0.895946	0.978184	0.326115
C66	C	-0.395946	1.478184	0.826115
C67	C	-0.950797	1.021513	0.282877
C68	C	-0.450797	1.521513	0.782877
C69	C	-1.060521	1.021555	0.282898
C70	C	-0.560521	1.521555	0.782898
C71	C	-1.060532	0.934932	0.369397
C72	C	-0.560532	1.434932	0.869397
C73	C	-0.950810	0.934894	0.369379
C74	C	-0.450810	1.434894	0.869379
C75	C	-0.895933	1.064802	0.239613
C76	C	-0.395933	1.564802	0.739613
C77	C	-0.950784	1.108135	0.196370
C78	C	-0.450784	1.608135	0.696370
C79	C	-1.060508	1.108176	0.196391
C80	C	-0.560508	1.608176	0.696391
C81	C	-1.115381	1.064886	0.239655
C82	C	-0.615381	1.564886	0.739655
C83	C	-0.232168	0.978238	0.326142
C84	C	0.267832	1.478238	0.826142
C85	C	-0.115392	0.978263	0.326154
C86	C	0.384608	1.478263	0.826154
C87	C	-0.506136	0.978217	0.502656
C88	C	-0.006136	1.478217	1.002656
C89	C	-0.506107	0.978233	0.577888
C90	C	-0.006107	1.478233	1.077888
C91	C	-0.506236	1.154722	0.326130
C92	C	-0.006236	1.654722	0.826130
C93	C	-0.506250	1.229954	0.326137
C94	C	-0.006250	1.729954	0.826137
C95	C	-0.506192	0.978180	0.150257
C96	C	-0.006192	1.478180	0.650257
C97	C	-0.505924	0.978295	0.075025
C98	C	-0.005924	1.478295	0.575025
C99	C	-0.438916	1.021539	0.613244
C100	C	0.061084	1.521539	1.113244
C101	C	-0.438886	1.021546	0.683933
C102	C	0.061114	1.521546	1.183933
C103	C	-0.506052	0.978250	0.719263
C104	C	-0.006052	1.478250	1.219263
C105	C	-0.573247	0.934940	0.683902
C106	C	-0.073247	1.434940	1.183902
C107	C	-0.573271	0.934930	0.613215
C108	C	-0.073271	1.434930	1.113215
C109	C	-0.573149	0.934978	0.968975
C110	C	-0.073149	1.434978	1.468975
C111	C	-0.573122	0.934992	1.039667
C112	C	-0.073122	1.434992	1.539667
C113	C	-0.438763	1.021594	1.039693
C114	C	0.061237	1.521594	1.539693
C115	C	-0.438788	1.021584	0.969006
C116	C	0.061212	1.521584	1.469006
C117	C	-0.505977	0.978272	0.933651
C118	C	-0.005977	1.478272	1.433651
C119	C	-0.506008	0.978264	0.857002
C120	C	-0.006008	1.478264	1.357002
C121	C	-0.506028	0.978261	0.795911
C122	C	-0.006028	1.478261	1.295911
H123	H	-0.627973	0.364715	0.247452
H124	H	-0.127973	0.864715	0.747452
H125	H	-0.384174	1.056812	0.712717
H126	H	0.115826	1.556812	1.212717
O127	O	-1.113807	1.150378	0.154508
O128	O	-0.613807	1.650378	0.654508
C129	C	-1.237528	1.241849	0.145568
C130	C	-0.737528	1.741849	0.645568
C131	C	-1.177239	1.194086	0.193069
C132	C	-0.677239	1.694086	0.693069
H133	H	-1.288844	1.277190	0.176724
H134	H	-0.788844	1.777190	0.676724
H135	H	-1.179474	1.272829	0.114685
H136	H	-0.679474	1.772829	0.614685
H137	H	-1.288958	1.210851	0.110119
H138	H	-0.788958	1.710851	0.610119
H139	H	-1.125808	1.225033	0.228559
H140	H	-0.625808	1.725033	0.728559
H141	H	-1.235350	1.163104	0.223904
H142	H	-0.735350	1.663104	0.723904
H143	H	-0.627916	0.720484	0.247428
H144	H	-0.127916	1.220484	0.747428
H145	H	-0.627927	0.592239	0.247439
H146	H	-0.127927	1.092239	0.747439
O147	O	-1.113995	0.892901	0.411353
O148	O	-0.613995	1.392901	0.911353
C149	C	-1.283035	0.854596	0.449740
C150	C	-0.783035	1.354596	0.949740
C151	C	-1.222622	0.902222	0.402182
C152	C	-0.722622	1.402222	0.902182
H153	H	-1.370870	0.862126	0.442352
H154	H	-0.870870	1.362126	0.942352
H155	H	-1.261615	0.800003	0.437800
H156	H	-0.761615	1.300003	0.937800
H157	H	-1.261332	0.866434	0.504318
H158	H	-0.761332	1.366434	1.004318
H159	H	-1.244292	0.890445	0.347588
H160	H	-0.744292	1.390445	0.847588
H161	H	-1.244047	0.956801	0.414179
H162	H	-0.744047	1.456801	0.914179
O163	O	-0.638445	0.892886	0.578763
O164	O	-0.138445	1.392886	1.078763
C165	C	-0.698072	0.854515	0.469851
C166	C	-0.198072	1.354515	0.969851
C167	C	-0.624196	0.902157	0.508783
C168	C	-0.124196	1.402157	1.008783
H169	H	-0.686594	0.862004	0.413266
H170	H	-0.186594	1.362004	0.913266
H171	H	-0.679604	0.799929	0.483693
H172	H	-0.179604	1.299929	0.983693
H173	H	-0.782776	0.866376	0.483781
H174	H	-0.282776	1.366376	0.983781
H175	H	-0.539468	0.890357	0.494874
H176	H	-0.039468	1.390357	0.994874
H177	H	-0.642754	0.956729	0.494938
H178	H	-0.142754	1.456729	0.994938
H179	H	-1.204725	1.064928	0.239673
H180	H	-0.704725	1.564928	0.739673
H181	H	-0.384097	1.056843	0.940243
H182	H	0.115903	1.556843	1.440243
H183	H	-0.906150	0.899612	0.404589
H184	H	-0.406150	1.399612	0.904589
H185	H	-0.627874	0.899720	0.940198
H186	H	-0.127874	1.399720	1.440198
O187	O	-0.638568	0.231023	0.240589
O188	O	-0.138568	0.731023	0.740589
C189	C	-0.771714	0.238431	0.154591
C190	C	-0.271714	0.738431	0.654591
C191	C	-0.697895	0.277305	0.202317
C192	C	-0.197895	0.777305	0.702317
H193	H	-0.819714	0.275833	0.123646
H194	H	-0.319714	0.775833	0.623646
H195	H	-0.723456	0.205342	0.119216
H196	H	-0.223456	0.705342	0.619216
H197	H	-0.826676	0.205328	0.185619
H198	H	-0.326676	0.705328	0.685619
H199	H	-0.642918	0.310444	0.171344
H200	H	-0.142918	0.810444	0.671344
H201	H	-0.746218	0.310351	0.237694
H202	H	-0.246218	0.810351	0.737694
O203	O	-0.373803	0.726020	0.411611
O204	O	0.126197	1.226020	0.911611
C205	C	-0.240738	0.718598	0.497660
C206	C	0.259262	1.218598	0.997660
C207	C	-0.314604	0.679731	0.449957
C208	C	0.185396	1.179731	0.949957
H209	H	-0.192872	0.681190	0.528685
H210	H	0.307128	1.181190	1.028685
H211	H	-0.185663	0.751666	0.466678
H212	H	0.314337	1.251666	0.966678
H213	H	-0.289059	0.751719	0.532967
H214	H	0.210941	1.251719	1.032967
H215	H	-0.266368	0.646573	0.414641
H216	H	0.233632	1.146573	0.914641
H217	H	-0.369683	0.646705	0.480981
H218	H	0.130317	1.146705	0.980981
H219	H	-0.906102	1.143384	0.161150
H220	H	-0.406102	1.643384	0.661150
H221	H	-0.384050	1.056859	1.068488
H222	H	0.115950	1.556859	1.568488
O223	O	-0.638400	0.892865	1.073884
O224	O	-0.138400	1.392865	1.573884
C225	C	-0.771706	0.806984	1.066403
C226	C	-0.271706	1.306984	1.566403
C227	C	-0.697820	0.854643	1.027569
C228	C	-0.197820	1.354643	1.527569
H229	H	-0.819782	0.776080	1.028974
H230	H	-0.319782	1.276080	1.528974
H231	H	-0.723496	0.771569	1.099481
H232	H	-0.223496	1.271569	1.599481
H233	H	-0.826594	0.838063	1.099513
H234	H	-0.326594	1.338063	1.599513
H235	H	-0.642917	0.823619	0.994423
H236	H	-0.142917	1.323619	1.494423
H237	H	-0.746096	0.890061	0.994534
H238	H	-0.246096	1.390061	1.494534
H239	H	-0.384224	1.056798	0.584483
H240	H	0.115776	1.556798	1.084483
O241	O	-0.638604	0.892978	0.718251
O242	O	-0.138604	1.392978	1.218251
C243	C	-0.780378	0.883851	0.798071
C244	C	-0.280378	1.383851	1.298071
C245	C	-0.706441	0.931449	0.759203
C246	C	-0.206441	1.431449	1.259203
H247	H	-0.835228	0.914935	0.831201
H248	H	-0.335228	1.414935	1.331201
H249	H	-0.828482	0.852907	0.760688
H250	H	-0.328482	1.352907	1.260688
H251	H	-0.732101	0.848462	0.831136
H252	H	-0.232101	1.348462	1.331136
H253	H	-0.754637	0.966878	0.726138
H254	H	-0.254637	1.466878	1.226138
H255	H	-0.658333	0.962345	0.796623
H256	H	-0.158333	1.462345	1.296623
O257	O	-0.374068	0.586702	0.411633
O258	O	0.125932	1.086702	0.911633
C259	C	-0.360145	0.506968	0.503071
C260	C	0.139855	1.006968	1.003071
C261	C	-0.433906	0.545848	0.455352
C262	C	0.066094	1.045848	0.955352
H263	H	-0.408496	0.473939	0.538439
H264	H	0.091504	0.973939	1.038439
H265	H	-0.305159	0.473821	0.472103
H266	H	0.194841	0.973821	0.972103
H267	H	-0.312167	0.544404	0.534030
H268	H	0.187833	1.044404	1.034030
H269	H	-0.481952	0.508461	0.424383
H270	H	0.018048	1.008461	0.924383
H271	H	-0.488823	0.579006	0.486359
H272	H	0.011177	1.079006	0.986359
H273	H	-0.384499	0.364802	0.404801
H274	H	0.115501	0.864802	0.904801
H275	H	-0.384517	0.236558	0.404810
H276	H	0.115483	0.736558	0.904810
H277	H	-0.806590	1.064772	0.239589
H278	H	-0.306590	1.564772	0.739589
