data_functionalizedCrystal
_audit_creation_method	'MofGen! by Chris Wilmer'
_symmetry_space_group_name_H-M	'P1'
_symmetry_Int_Tables_number	1
_symmetry_cell_setting	triclinic
loop_
_symmetry_equiv_pos_as_xyz
  x,y,z
_cell_length_a	12.811438
_cell_length_b	23.532407
_cell_length_c	11.892276
_cell_angle_alpha	94.378715
_cell_angle_beta	99.760087
_cell_angle_gamma	83.450517
loop_
_atom_site_label
_atom_site_type_symbol
_atom_site_fract_x
_atom_site_fract_y
_atom_site_fract_z
O1	O	1.394961	0.078418	0.049008
O2	O	1.087296	0.085660	0.017460
O3	O	1.250408	-0.000809	0.034206
O4	O	1.231850	0.164887	0.032262
O5	O	1.262371	0.005761	0.223433
O6	O	1.099260	0.092230	0.206687
O7	O	1.406924	0.084988	0.238235
Zn8	Zn	1.254991	0.089652	0.252505
Zn9	Zn	1.239229	0.080996	0.003190
O10	O	1.243813	0.171457	0.221489
C11	C	1.053924	0.088338	0.108039
C12	C	0.936661	0.086520	0.096016
C13	C	0.764861	0.080376	-0.024065
C14	C	0.875039	0.082084	-0.012778
C15	C	0.888097	0.089246	0.193530
C16	C	0.777919	0.087539	0.182243
C17	C	0.716304	0.083105	0.073442
C18	C	0.606123	0.081401	0.062156
C19	C	0.619184	0.088560	0.268462
C20	C	0.729362	0.090268	0.279749
C21	C	1.255917	-0.018744	0.128774
C22	C	1.254497	-0.081973	0.128637
C23	C	1.342107	-0.480292	0.137559
C24	C	1.340787	-0.539705	0.137415
O25	O	1.422004	-0.575722	0.145701
N26	N	1.243818	-0.563201	0.127473
C27	C	1.148163	-0.527282	0.117662
O28	O	1.065562	-0.552723	0.109191
C29	C	1.149484	-0.467871	0.117798
C30	C	1.246460	-0.444378	0.127752
C31	C	1.439075	-0.456799	0.147511
C32	C	1.440395	-0.397390	0.147657
C33	C	1.344747	-0.361476	0.137851
C34	C	1.247780	-0.384969	0.127899
C35	C	1.053829	-0.431953	0.107980
C36	C	1.055158	-0.372539	0.108116
C37	C	1.152134	-0.349045	0.118070
C38	C	1.153452	-0.289646	0.118238
N39	N	1.250420	-0.266150	0.128180
C40	C	1.346068	-0.302065	0.137987
C41	C	1.145396	-0.652049	0.117375
C42	C	1.144075	-0.711459	0.117248
C43	C	1.336699	-0.723878	0.136998
C44	C	1.338020	-0.664467	0.137134
C45	C	1.242365	-0.628553	0.127318
C46	C	1.348833	-0.177302	0.138294
C47	C	1.350145	-0.117888	0.138444
C48	C	1.157520	-0.105474	0.118687
C49	C	1.156208	-0.164883	0.118543
C50	C	1.251873	-0.200797	0.128343
O51	O	1.072277	-0.253594	0.109952
O52	O	1.428654	-0.276616	0.146441
C53	C	1.440297	0.082310	0.147654
C54	C	1.557559	0.084128	0.159669
C55	C	1.238303	0.189392	0.126918
C56	C	1.239723	0.252621	0.127048
N57	N	1.265756	0.095560	0.422657
C58	C	1.153433	0.033954	0.647853
C59	C	1.160982	0.038087	0.766965
C60	C	1.288397	0.107961	0.779993
C61	C	1.280848	0.103828	0.660881
C62	C	1.213365	0.066823	0.594815
C63	C	1.205822	0.062687	0.475702
C64	C	1.333231	0.132564	0.488732
C65	C	1.340780	0.136697	0.607843
N66	N	1.228463	0.075089	0.833038
H67	H	0.714691	0.076772	-0.112655
H68	H	1.382033	0.159327	0.445537
H69	H	0.914569	0.079862	-0.092178
C70	C	1.080278	-0.006213	0.575924
C71	C	1.086515	-0.002808	0.460261
C72	C	1.019151	-0.039808	0.393970
H73	H	1.009077	0.004552	0.587888
H74	H	1.101568	-0.044392	0.597440
H75	H	1.065219	0.035363	0.438753
H76	H	1.157700	-0.013577	0.448262
H77	H	1.040441	-0.077987	0.415486
H78	H	0.947954	-0.029040	0.405944
H79	H	1.023381	-0.037506	0.315487
H80	H	1.429117	-0.098763	0.146553
C81	C	1.414214	0.176827	0.679451
C82	C	1.518985	0.160777	0.661372
C83	C	1.586664	0.197735	0.727304
H84	H	1.410268	0.174615	0.758018
H85	H	1.393008	0.215000	0.657854
H86	H	1.540186	0.122614	0.682976
H87	H	1.522965	0.162992	0.582819
H88	H	1.565457	0.235908	0.705707
H89	H	1.582709	0.195520	0.805867
H90	H	1.657757	0.186854	0.715038
C91	C	0.948649	-0.457558	0.097223
C92	C	0.967940	-0.517275	0.099221
C93	C	0.871068	-0.540879	0.089323
H94	H	0.905059	-0.447611	0.027205
H95	H	0.913447	-0.443013	0.159193
H96	H	1.003126	-0.531814	0.037256
H97	H	1.011513	-0.527237	0.169233
H98	H	0.835866	-0.526334	0.151293
H99	H	0.827486	-0.530928	0.019304
H100	H	0.884144	-0.581398	0.090687
H101	H	1.065109	-0.730581	0.109161
H102	H	1.112177	0.011323	0.810143
H103	H	0.977262	-0.343300	0.100120
C104	C	0.954849	0.094144	0.311718
C105	C	0.919583	0.144773	0.369944
C106	C	0.981039	0.149298	0.478829
H107	H	1.027442	0.094802	0.304638
H108	H	0.947848	0.062214	0.353174
H109	H	0.926594	0.176695	0.328499
H110	H	0.847000	0.144126	0.377055
H111	H	0.974038	0.117368	0.520285
H112	H	1.053628	0.149954	0.471738
H113	H	0.957114	0.183647	0.518353
C114	C	0.539413	0.076557	-0.056065
C115	C	0.605530	0.074518	-0.139039
C116	C	0.544120	0.070047	-0.247958
H117	H	0.487747	0.108868	-0.065790
H118	H	0.504586	0.042589	-0.063946
H119	H	0.640340	0.108483	-0.131162
H120	H	0.657195	0.042209	-0.129352
H121	H	0.509293	0.036078	-0.255839
H122	H	0.492456	0.102358	-0.257671
H123	H	0.588972	0.068657	-0.304269
C124	C	0.796241	0.094965	0.397901
C125	C	0.785797	0.047813	0.458665
C126	C	0.847399	0.052119	0.567506
H127	H	0.772530	0.129264	0.437705
H128	H	0.868835	0.095561	0.390708
H129	H	0.713219	0.047223	0.465863
H130	H	0.809516	0.013508	0.418896
H131	H	0.919993	0.052715	0.560313
H132	H	0.823682	0.086419	0.607300
H133	H	0.840329	0.020125	0.608744
C134	C	1.050810	-0.190286	0.107669
C135	C	0.967328	-0.146115	0.099087
C136	C	0.870218	-0.169490	0.089038
H137	H	1.050303	-0.210918	0.173148
H138	H	1.042065	-0.215469	0.041175
H139	H	0.976071	-0.120942	0.165574
H140	H	0.967801	-0.125480	0.033610
H141	H	0.861472	-0.194673	0.022544
H142	H	0.869721	-0.190121	0.154519
H143	H	0.813563	-0.139525	0.083204
H144	H	1.343334	0.138091	0.833803
H145	H	1.079647	-0.076222	0.110707
H146	H	0.579637	0.090784	0.347859
C147	C	1.452814	-0.216190	0.149009
C148	C	1.538008	-0.182888	0.157786
C149	C	1.633810	-0.218690	0.167682
H150	H	1.452295	-0.241922	0.083412
H151	H	1.460537	-0.237330	0.215386
H152	H	1.530286	-0.161758	0.091417
H153	H	1.538561	-0.157158	0.223382
H154	H	1.641534	-0.239830	0.234058
H155	H	1.633281	-0.244420	0.102082
H156	H	1.691626	-0.196100	0.173648
H157	H	1.516968	-0.486035	0.155493
C158	C	1.545790	-0.372001	0.158407
C159	C	1.629257	-0.416180	0.166931
C160	C	1.726365	-0.392818	0.176817
H161	H	1.554642	-0.346806	0.224857
H162	H	1.546197	-0.351387	0.092863
H163	H	1.628852	-0.436784	0.232469
H164	H	1.620441	-0.441379	0.100489
H165	H	1.726772	-0.372205	0.111273
H166	H	1.735206	-0.367623	0.243267
H167	H	1.783009	-0.422790	0.182591
H168	H	1.416986	-0.645343	0.145239
C169	C	1.440596	-0.762844	0.147871
C170	C	1.505177	-0.748786	0.251227
C171	C	1.600880	-0.784675	0.261288
H172	H	1.476342	-0.757977	0.086051
H173	H	1.425958	-0.801596	0.146424
H174	H	1.519816	-0.710043	0.252663
H175	H	1.469464	-0.753655	0.313065
H176	H	1.586243	-0.823427	0.259842
H177	H	1.636617	-0.779805	0.199464
H178	H	1.644706	-0.775145	0.331419
H179	H	1.067498	-0.622810	0.109391
H180	H	1.150876	0.032555	0.421913
