data_functionalizedCrystal
_audit_creation_method	'MofGen! by Chris Wilmer'
_symmetry_space_group_name_H-M	'P1'
_symmetry_Int_Tables_number	1
_symmetry_cell_setting	triclinic
loop_
_symmetry_equiv_pos_as_xyz
  x,y,z
_cell_length_a	6.817900
_cell_length_b	13.694001
_cell_length_c	15.301058
_cell_angle_alpha	79.368549
_cell_angle_beta	104.176278
_cell_angle_gamma	106.288079
loop_
_atom_site_label
_atom_site_type_symbol
_atom_site_fract_x
_atom_site_fract_y
_atom_site_fract_z
V1	V	-4.029088	-0.140882	-0.246397
O2	O	-4.021992	0.006052	-0.277287
O3	O	-3.975361	-0.278655	-0.210492
O4	O	-3.984086	-0.139030	-0.369471
O5	O	-4.013206	-0.134539	-0.117207
V6	V	-4.512965	-0.123270	-0.235102
O7	O	-4.289568	-0.179516	-0.271174
O8	O	-4.702682	-0.084636	-0.210325
O9	O	-4.343485	0.014503	-0.271007
O10	O	-4.637458	-0.270204	-0.204212
O11	O	-4.646243	-0.129613	-0.364292
O12	O	-4.334760	-0.125122	-0.112027
C13	C	-3.818956	-0.312231	-0.197775
C14	C	-3.856337	-0.424864	-0.169238
C15	C	-3.830085	-0.134125	-0.400568
C16	C	-3.874540	-0.133522	-0.500957
C17	C	-3.932472	-0.226057	-0.538103
C18	C	-3.974250	-0.225489	-0.632430
C19	C	-3.958081	-0.132385	-0.689609
C20	C	-3.900149	-0.039843	-0.652457
C21	C	-3.858387	-0.040413	-0.558132
C22	C	-3.987193	-0.038663	-0.849059
C23	C	-4.028955	-0.038093	-0.943390
C24	C	-4.103057	-0.223739	-0.923357
C25	C	-4.061294	-0.224309	-0.829032
C26	C	-4.003362	-0.131767	-0.791887
C27	C	-4.129472	-0.801058	-0.404630
C28	C	-4.094366	-0.695235	-0.431446
C29	C	-4.034857	-0.627637	-0.365896
C30	C	-4.010458	-0.665873	-0.273526
C31	C	-4.045584	-0.771707	-0.246708
C32	C	-3.950968	-0.598286	-0.207974
C33	C	-3.926569	-0.636521	-0.115604
C34	C	-3.961691	-0.742345	-0.088791
C35	C	-4.021200	-0.809943	-0.154341
C36	C	-3.915843	-0.492452	-0.234792
C37	C	-3.831954	-0.463100	-0.076871
C38	C	-3.867060	-0.568923	-0.050055
C39	C	-4.163232	0.048074	-0.283720
C40	C	-4.105089	0.160706	-0.312262
C41	C	-4.152103	-0.130031	-0.080925
C42	C	-4.086887	-0.130628	0.019464
H43	H	-4.021429	-0.300840	-0.662669
H44	H	-3.940029	0.036694	-0.818819
H45	H	-4.006274	-0.541472	-0.387735
H46	H	-4.049785	-0.896114	-0.132512
H47	H	-3.783502	-0.408061	-0.023494
H48	H	-4.114221	-0.664111	-0.506653
H49	H	-4.074451	-0.300122	-0.782478
H50	H	-4.177942	-0.856105	-0.457990
H51	H	-3.811217	0.034939	-0.527890
C52	C	-4.166392	-0.324198	-0.963737
C53	C	-4.364384	-0.334099	-1.020435
C54	C	-4.422799	-0.426630	-1.057642
H55	H	-4.067977	-0.324697	-0.998046
H56	H	-4.170162	-0.379759	-0.916199
H57	H	-4.360600	-0.278553	-1.067966
H58	H	-4.462844	-0.333619	-0.986146
H59	H	-4.426569	-0.482191	-1.010104
H60	H	-4.324372	-0.427120	-1.091947
H61	H	-4.557149	-0.433364	-1.096109
C62	C	-3.935008	-0.783658	0.011541
C63	C	-3.875323	-0.701812	0.063210
C64	C	-3.850695	-0.739827	0.155639
H65	H	-4.063326	-0.827618	0.023349
H66	H	-3.830430	-0.820992	0.027387
H67	H	-3.979894	-0.664494	0.047370
H68	H	-3.746996	-0.657844	0.051430
H69	H	-3.746117	-0.777161	0.171485
H70	H	-3.979020	-0.783787	0.167437
H71	H	-3.810178	-0.684300	0.190708
C72	C	-3.942711	-0.451097	-0.335111
C73	C	-4.148358	-0.490597	-0.379267
C74	C	-4.173178	-0.452537	-0.471688
H75	H	-3.913438	-0.378399	-0.341829
H76	H	-3.849337	-0.471200	-0.361138
H77	H	-4.241703	-0.470488	-0.353248
H78	H	-4.177677	-0.563291	-0.372575
H79	H	-4.079804	-0.472640	-0.497716
H80	H	-4.143896	-0.379841	-0.478397
H81	H	-4.312704	-0.479340	-0.501662
C82	C	-3.882598	0.061346	-0.714385
C83	C	-3.822987	0.142261	-0.661663
C84	C	-3.806825	0.235492	-0.718678
H85	H	-3.780863	0.068821	-0.749481
H86	H	-4.013834	0.062232	-0.753722
H87	H	-3.691769	0.141376	-0.622342
H88	H	-3.924699	0.134820	-0.626569
H89	H	-3.938061	0.236378	-0.758014
H90	H	-3.705091	0.242956	-0.753771
H91	H	-3.766396	0.290403	-0.682915
H92	H	-3.945629	-0.301872	-0.491554
H93	H	-3.847201	-0.600070	0.025154
H94	H	-4.015841	0.037718	-0.989945
