data_functionalizedCrystal
_audit_creation_method	'MofGen! by Chris Wilmer'
_symmetry_space_group_name_H-M	'P1'
_symmetry_Int_Tables_number	1
_symmetry_cell_setting	triclinic
loop_
_symmetry_equiv_pos_as_xyz
  x,y,z
_cell_length_a	13.032831
_cell_length_b	25.639239
_cell_length_c	13.033109
_cell_angle_alpha	97.152107
_cell_angle_beta	76.665514
_cell_angle_gamma	82.842759
loop_
_atom_site_label
_atom_site_type_symbol
_atom_site_fract_x
_atom_site_fract_y
_atom_site_fract_z
Zn1	Zn	1.699833	-0.367536	-0.806318
Zn2	Zn	1.677108	-0.442245	-0.628682
Zn3	Zn	1.499677	-0.342107	-0.606217
Zn4	Zn	1.522123	-0.442199	-0.783726
O5	O	1.599685	-0.398522	-0.706236
O6	O	1.845447	-0.388108	-0.801610
O7	O	1.634667	-0.418339	-0.477073
O8	O	1.526345	-0.272326	-0.632814
O9	O	1.828751	-0.442996	-0.671102
O10	O	1.673399	-0.291009	-0.779827
O11	O	1.504309	-0.344768	-0.460568
O12	O	1.354026	-0.344723	-0.610908
O13	O	1.564601	-0.442917	-0.935352
O14	O	1.370518	-0.418260	-0.741323
O15	O	1.695164	-0.388063	-0.951950
O16	O	1.656433	-0.515393	-0.649197
O17	O	1.542566	-0.515359	-0.763107
C18	C	1.323735	-0.378728	-0.671227
C19	C	1.205685	-0.370274	-0.656275
C20	C	1.161229	-0.402934	-0.714039
C21	C	1.039219	-0.394197	-0.698587
C22	C	1.599501	-0.534348	-0.706165
C23	C	1.599523	-0.592465	-0.706182
C24	C	1.659168	-0.952867	-0.647061
C25	C	1.659211	-1.007476	-0.647081
O26	O	1.709731	-1.035729	-0.596737
N27	N	1.599881	-1.034779	-0.706330
C28	C	1.540513	-1.007473	-0.765573
O29	O	1.490053	-1.035711	-0.815971
C30	C	1.540477	-0.952866	-0.765558
C31	C	1.599802	-0.925564	-0.706297
C32	C	1.718489	-0.925566	-0.587805
C33	C	1.718444	-0.870961	-0.587784
C34	C	1.659078	-0.843658	-0.647020
C35	C	1.599757	-0.870960	-0.706276
C36	C	1.481115	-0.925561	-0.824806
C37	C	1.481085	-0.870951	-0.824788
C38	C	1.540410	-0.843650	-0.765526
C39	C	1.540346	-0.789052	-0.765490
N40	N	1.599676	-0.761749	-0.706241
C41	C	1.659042	-0.789052	-0.647006
C42	C	1.540595	-1.122150	-0.765599
C43	C	1.540625	-1.176755	-0.765608
C44	C	1.659324	-1.176754	-0.647117
C45	C	1.659288	-1.122148	-0.647103
C46	C	1.599925	-1.094847	-0.706350
C47	C	1.658943	-0.674378	-0.646966
C48	C	1.658889	-0.619768	-0.646947
C49	C	1.540194	-0.619774	-0.765441
C50	C	1.540243	-0.674378	-0.765456
C51	C	1.599625	-0.701679	-0.706216
O52	O	1.489856	-0.760764	-0.815812
O53	O	1.709504	-0.760808	-0.596626
C54	C	1.876714	-0.418394	-0.741382
C55	C	1.994767	-0.426862	-0.756360
C56	C	1.634921	-0.418322	-0.983267
C57	C	1.649937	-0.426759	-1.101321
C58	C	1.599903	-0.262169	-0.706334
C59	C	1.599995	-0.204063	-0.706376
C60	C	1.592133	-0.394120	-1.145787
C61	C	1.607650	-0.402840	-1.267801
C62	C	1.564648	-0.378766	-0.430291
C63	C	1.549838	-0.370195	-0.312263
H64	H	1.047031	-0.461291	-0.817264
O65	O	0.977037	-0.353080	-0.625921
C66	C	0.971424	-0.277871	-0.492816
C67	C	1.041972	-0.324405	-0.575088
H68	H	1.023893	-0.254681	-0.451678
H69	H	0.925773	-0.250335	-0.535107
H70	H	0.912357	-0.294172	-0.430700
H71	H	1.101098	-0.308151	-0.637225
H72	H	1.087547	-0.351933	-0.532723
O73	O	1.776047	-0.952150	-0.530252
C74	C	1.772378	-1.004631	-0.388764
C75	C	1.707044	-0.974545	-0.453847
H76	H	1.716614	-1.022736	-0.326960
H77	H	1.834050	-1.037645	-0.444627
H78	H	1.814839	-0.975747	-0.346472
H79	H	1.664517	-1.003388	-0.496146
H80	H	1.645435	-0.941524	-0.397932
O81	O	1.143442	-0.329223	-0.583490
C82	C	1.086283	-0.288392	-0.398608
C83	C	1.156834	-0.334906	-0.480933
H84	H	1.097068	-0.292977	-0.315669
H85	H	1.110482	-0.249128	-0.420067
H86	H	0.998999	-0.288657	-0.399138
H87	H	1.244136	-0.334692	-0.480446
H88	H	1.132544	-0.374149	-0.459444
O89	O	1.717060	-1.203378	-0.589756
C90	C	1.769856	-1.287528	-0.537426
C91	C	1.704397	-1.257436	-0.602396
H92	H	1.759623	-1.331237	-0.547605
H93	H	1.857858	-1.284243	-0.567108
H94	H	1.740485	-1.269368	-0.449395
H95	H	1.733676	-1.275575	-0.690440
H96	H	1.616406	-1.260719	-0.572625
H97	H	1.488855	-0.335794	-1.260006
H98	H	1.668630	-0.437242	-1.320060
O99	O	1.716618	-0.593333	-0.589358
C100	C	1.834303	-0.599099	-0.471782
C101	C	1.768994	-0.629101	-0.536969
H102	H	1.876648	-0.628002	-0.429390
H103	H	1.896054	-0.580978	-0.527576
H104	H	1.778487	-0.566093	-0.410056
H105	H	1.824727	-0.662130	-0.598698
H106	H	1.707233	-0.647184	-0.481108
O107	O	1.716771	-0.700932	-0.589593
C108	C	1.858423	-0.771783	-0.593635
C109	C	1.793029	-0.741752	-0.658739
H110	H	1.920077	-0.804799	-0.649508
H111	H	1.900887	-0.742908	-0.551323
H112	H	1.802654	-0.789897	-0.531851
H113	H	1.848724	-0.723636	-0.720577
H114	H	1.750552	-0.770649	-0.700976
O115	O	1.423519	-0.952151	-0.882290
C116	C	1.371034	-1.036276	-0.934936
C117	C	1.436287	-1.006227	-0.869758
H118	H	1.381352	-1.080004	-0.924845
H119	H	1.282994	-1.018146	-0.905359
H120	H	1.400511	-1.032928	-1.022929
H121	H	1.406903	-1.009564	-0.781753
H122	H	1.524317	-1.024364	-0.899424
H123	H	1.766755	-0.848736	-0.539532
O124	O	1.423325	-0.844508	-0.882366
C125	C	1.305670	-0.850286	-0.999967
C126	C	1.371013	-0.880294	-0.934788
H127	H	1.263377	-0.879208	-1.042386
H128	H	1.243875	-0.817303	-0.944162
H129	H	1.361454	-0.832136	-1.061670
H130	H	1.315313	-0.898478	-0.873082
H131	H	1.432820	-0.913249	-0.990660
H132	H	1.710912	-0.461159	-1.153583
O133	O	1.717016	-1.095715	-0.589520
C134	C	1.834693	-1.101486	-0.471937
C135	C	1.769380	-1.131484	-0.537124
H136	H	1.877028	-1.130389	-0.429540
H137	H	1.896451	-1.083369	-0.527732
H138	H	1.778881	-1.068476	-0.410216
H139	H	1.825108	-1.164517	-0.598849
H140	H	1.707610	-1.149563	-0.481262
H141	H	1.492305	-1.198978	-0.813854
H142	H	1.492245	-1.099923	-0.813840
H143	H	1.491940	-0.696609	-0.813716
O144	O	1.482627	-0.593170	-0.822961
C145	C	1.429933	-0.509033	-0.875394
C146	C	1.495187	-0.539099	-0.810218
H147	H	1.440048	-0.465310	-0.865097
H148	H	1.459430	-0.527160	-0.963437
H149	H	1.341943	-0.512369	-0.845837
H150	H	1.583190	-0.535775	-0.839683
H151	H	1.465602	-0.520965	-0.722186
O152	O	1.223548	-0.443960	-0.786835
C153	C	1.280626	-0.484829	-0.971695
C154	C	1.210022	-0.438331	-0.889369
H155	H	1.269698	-0.480300	-1.054609
H156	H	1.367944	-0.484561	-0.971308
H157	H	1.256449	-0.524074	-0.950096
H158	H	1.234104	-0.399062	-0.910911
H159	H	1.122721	-0.438646	-0.889772
O160	O	1.519465	-0.353092	-1.083297
C161	C	1.437665	-0.307026	-0.904701
C162	C	1.520017	-0.353504	-0.975344
H163	H	1.438068	-0.307350	-0.817406
H164	H	1.459122	-0.267737	-0.928763
H165	H	1.354774	-0.311605	-0.915641
H166	H	1.602937	-0.348976	-0.964440
H167	H	1.498468	-0.392775	-0.951266
