data_functionalizedCrystal
_audit_creation_method	'MofGen! by Chris Wilmer'
_symmetry_space_group_name_H-M	'P1'
_symmetry_Int_Tables_number	1
_symmetry_cell_setting	triclinic
loop_
_symmetry_equiv_pos_as_xyz
  x,y,z
_cell_length_a	19.188930
_cell_length_b	19.188924
_cell_length_c	14.185569
_cell_angle_alpha	76.888872
_cell_angle_beta	103.095687
_cell_angle_gamma	83.143372
loop_
_atom_site_label
_atom_site_type_symbol
_atom_site_fract_x
_atom_site_fract_y
_atom_site_fract_z
O1	O	0.910195	0.103108	-0.083741
O2	O	1.410195	0.603108	0.416259
O3	O	0.706896	0.114829	-0.083672
O4	O	1.206896	0.614829	0.416328
O5	O	0.814417	0.007311	-0.083697
O6	O	1.314417	0.507311	0.416303
O7	O	0.802674	0.210626	-0.083716
O8	O	1.302674	0.710626	0.416284
O9	O	0.846179	-0.024448	0.083131
O10	O	1.346179	0.475552	0.583131
O11	O	0.738658	0.083071	0.083155
O12	O	1.238658	0.583071	0.583155
O13	O	0.941957	0.071349	0.083087
O14	O	1.441957	0.571349	0.583087
Cu15	Cu	0.843208	0.074310	0.098354
Cu16	Cu	1.343208	0.574310	0.598354
Cu17	Cu	0.805645	0.111868	-0.098939
Cu18	Cu	1.305645	0.611868	0.401061
O19	O	0.834436	0.178868	0.083111
O20	O	1.334436	0.678868	0.583111
C21	C	0.696768	0.098568	-0.000250
C22	C	1.196768	0.598568	0.499750
C23	C	0.619268	0.097422	-0.000223
C24	C	1.119268	0.597422	0.499777
C25	C	0.574339	0.160518	-0.000245
C26	C	1.074339	0.660518	0.499755
C27	C	0.501513	0.159448	-0.000256
C28	C	1.001513	0.659448	0.499744
C29	C	0.473616	0.095283	-0.000265
C30	C	0.973616	0.595283	0.499735
C31	C	0.518557	0.032179	-0.000238
C32	C	1.018557	0.532179	0.499762
C33	C	0.591383	0.033248	-0.000217
C34	C	1.091383	0.533248	0.499783
N35	N	0.354820	0.057052	-0.057080
N36	N	0.854820	0.557052	0.442920
N37	N	0.285637	0.056041	-0.057102
N38	N	0.785637	0.556041	0.442898
C39	C	0.254196	0.092057	-0.000326
C40	C	0.754196	0.592057	0.499674
N41	N	0.294547	0.129136	0.056459
N42	N	0.794547	0.629136	0.556459
N43	N	0.363735	0.130150	0.056477
N44	N	0.863735	0.630150	0.556477
C45	C	0.394649	0.094117	-0.000288
C46	C	0.894649	0.594117	0.499712
C47	C	0.130300	0.153996	-0.000359
C48	C	0.630300	0.653996	0.499641
C49	C	0.057474	0.152923	-0.000363
C50	C	0.557474	0.652923	0.499637
C51	C	0.074518	0.025654	-0.000355
C52	C	0.574518	0.525654	0.499645
C53	C	0.147344	0.026727	-0.000340
C54	C	0.647344	0.526727	0.499660
C55	C	0.175229	0.090901	-0.000347
C56	C	0.675229	0.590901	0.499653
C57	C	0.829919	-0.034580	-0.000282
C58	C	1.329919	0.465420	0.499718
C59	C	0.828781	-0.112085	-0.000279
C60	C	1.328781	0.387915	0.499721
C61	C	0.810935	-0.131173	-0.091217
C62	C	1.310935	0.368827	0.408783
C63	C	0.809854	-0.203994	-0.091224
C64	C	1.309854	0.296006	0.408776
C65	C	0.826633	-0.257728	-0.000288
C66	C	1.326633	0.242272	0.499712
C67	C	0.844477	-0.238634	0.090661
C68	C	1.344477	0.261366	0.590661
C69	C	0.845551	-0.165812	0.090666
C70	C	1.345551	0.334188	0.590666
N71	N	0.877564	-0.390273	0.067380
N72	N	1.377564	0.109727	0.567380
N73	N	0.876545	-0.459449	0.067369
N74	N	1.376545	0.040551	0.567369
C75	C	0.823397	-0.477136	-0.000297
C76	C	1.323397	0.022864	0.499703
N77	N	0.771314	-0.423030	-0.067967
N78	N	1.271314	0.076970	0.432033
N79	N	0.772337	-0.353848	-0.067960
N80	N	1.272337	0.146152	0.432040
C81	C	0.825470	-0.336693	-0.000283
C82	C	1.325470	0.163307	0.499717
C83	C	0.804378	-0.575183	-0.091249
C84	C	1.304378	-0.075183	0.408751
C85	C	0.803293	-0.648006	-0.091252
C86	C	1.303293	-0.148006	0.408748
C87	C	0.837923	-0.682645	0.090636
C88	C	1.337923	-0.182645	0.590636
C89	C	0.839000	-0.609823	0.090637
C90	C	1.339000	-0.109823	0.590637
C91	C	0.822230	-0.556096	-0.000308
C92	C	1.322230	-0.056096	0.499692
C93	C	0.952085	0.087611	-0.000338
C94	C	1.452085	0.587611	0.499662
C95	C	1.029583	0.088758	-0.000371
C96	C	1.529583	0.588758	0.499629
C97	C	0.818934	0.220759	-0.000306
C98	C	1.318934	0.720759	0.499694
C99	C	0.820071	0.298265	-0.000316
C100	C	1.320071	0.798265	0.499684
N101	N	0.869633	0.047893	0.237119
N102	N	1.369633	0.547893	0.737119
N103	N	0.779226	0.138279	-0.237704
N104	N	1.279226	0.638279	0.262296
C105	C	0.701590	0.215862	0.604806
C106	C	1.201590	0.715862	1.104806
C107	C	0.721611	0.195856	0.709823
C108	C	1.221611	0.695856	1.209823
C109	C	0.816840	0.100683	0.709763
C110	C	1.316840	0.600683	1.209763
C111	C	0.796824	0.120679	0.604744
C112	C	1.296824	0.620679	1.104744
C113	C	0.739199	0.178269	0.552274
C114	C	1.239199	0.678269	1.052274
C115	C	0.834434	0.083086	0.552211
C116	C	1.334434	0.583086	1.052211
C117	C	0.814422	0.103083	0.447201
C118	C	1.314422	0.603083	0.947201
C119	C	0.756801	0.160672	0.394724
C120	C	1.256801	0.660672	0.894724
C121	C	0.719187	0.198265	0.447264
C122	C	1.219187	0.698265	0.947264
C123	C	0.892062	0.025500	0.604683
C124	C	1.392062	0.525500	1.104683
C125	C	0.929671	-0.012093	0.552151
C126	C	1.429671	0.487907	1.052151
C127	C	0.909656	0.007900	0.447139
C128	C	1.409656	0.507900	0.947139
C129	C	0.852035	0.065489	0.394661
C130	C	1.352035	0.565489	0.894661
C131	C	0.947269	-0.029693	0.394599
C132	C	1.447269	0.470307	0.894599
C133	C	0.927258	-0.009697	0.289589
C134	C	1.427258	0.490303	0.789589
C135	C	0.832023	0.085486	0.289651
C136	C	1.332023	0.585486	0.789651
H137	H	0.051793	-0.026578	-0.000425
H138	H	0.551793	0.473422	0.499575
F139	F	0.857994	-0.589508	0.187426
F140	F	1.357994	-0.089508	0.687426
H141	H	0.690980	0.226474	0.752590
H142	H	1.190980	0.726474	1.252590
H143	H	0.788757	-0.663542	-0.165307
H144	H	1.288757	-0.163542	0.334693
H145	H	0.495836	-0.020062	-0.000259
H146	H	0.995836	0.479938	0.499741
F147	F	0.855777	-0.739828	0.187417
F148	F	1.355777	-0.239828	0.687417
F149	F	0.878169	0.039395	0.765614
F150	F	1.378169	0.539395	1.265614
F151	F	0.913360	0.004224	0.716446
F152	F	1.413360	0.504224	1.216446
H153	H	0.785094	0.132377	0.246928
H154	H	1.285094	0.632377	0.746928
H155	H	0.153008	0.206248	-0.000349
H156	H	0.653008	0.706248	0.499651
H157	H	0.654661	0.262752	0.562083
H158	H	1.154661	0.762752	1.062083
H159	H	0.976592	-0.058982	0.594884
H160	H	1.476592	0.441018	1.094884
H161	H	0.672258	0.245156	0.404541
H162	H	1.172258	0.745156	0.904541
F163	F	0.195162	-0.040427	-0.000322
F164	F	0.695162	0.459573	0.499678
F165	F	0.639202	-0.033909	-0.000194
F166	F	1.139202	0.466091	0.499806
H167	H	0.994193	-0.076579	0.437333
H168	H	1.494193	0.423421	0.937333
H169	H	0.020894	0.204304	-0.000375
H170	H	0.520894	0.704304	0.499625
F171	F	0.967289	-0.049706	0.233679
F172	F	1.467289	0.450294	0.733679
H173	H	0.795318	-0.219538	-0.165278
H174	H	1.295318	0.280462	0.334722
F175	F	0.735506	0.181956	0.282961
F176	F	1.235506	0.681956	0.782961
H177	H	0.597038	0.212773	-0.000253
H178	H	1.097038	0.712773	0.499747
F179	F	0.864543	-0.145499	0.187459
F180	F	1.364543	0.354501	0.687459
F181	F	0.793084	-0.073996	-0.188009
F182	F	1.293084	0.426004	0.311991
F183	F	0.862330	-0.295822	0.187442
F184	F	1.362330	0.204178	0.687442
F185	F	0.453687	0.226605	-0.000277
F186	F	0.953687	0.726605	0.499723
F187	F	0.786525	-0.518000	-0.188039
F188	F	1.286525	-0.018000	0.311961
