data_functionalizedCrystal
_audit_creation_method	'MofGen! by Chris Wilmer'
_symmetry_space_group_name_H-M	'P1'
_symmetry_Int_Tables_number	1
_symmetry_cell_setting	triclinic
loop_
_symmetry_equiv_pos_as_xyz
  x,y,z
_cell_length_a	6.817900
_cell_length_b	10.992421
_cell_length_c	23.753023
_cell_angle_alpha	95.064930
_cell_angle_beta	100.067528
_cell_angle_gamma	108.764763
loop_
_atom_site_label
_atom_site_type_symbol
_atom_site_fract_x
_atom_site_fract_y
_atom_site_fract_z
V1	V	-4.015971	-0.179383	-0.178380
O2	O	-3.975965	0.006951	-0.174993
O3	O	-3.994226	-0.354081	-0.177152
O4	O	-3.950699	-0.177356	-0.256181
O5	O	-4.019794	-0.170997	-0.095416
V6	V	-4.498331	-0.157009	-0.168458
O7	O	-4.279780	-0.228463	-0.200145
O8	O	-4.684720	-0.107929	-0.146693
O9	O	-4.296869	0.017689	-0.169686
O10	O	-4.655734	-0.343342	-0.171845
O11	O	-4.611905	-0.165394	-0.251422
O12	O	-4.340397	-0.159036	-0.090657
C13	C	-3.846257	-0.396645	-0.174336
C14	C	-3.909653	-0.539468	-0.173851
C15	C	-3.790733	-0.171214	-0.275145
C16	C	-3.818826	-0.170713	-0.338748
C17	C	-3.779472	-0.734719	-0.169938
C18	C	-3.713238	-0.586077	-0.170216
C19	C	-4.009658	-0.577618	-0.120496
C20	C	-4.074205	-0.726156	-0.119931
C21	C	-4.145451	-0.765732	-0.229306
C22	C	-4.075759	-0.617229	-0.230463
C23	C	-4.049610	-0.285491	-0.741333
C24	C	-4.076044	-0.285040	-0.801097
O25	O	-4.137668	-0.384932	-0.838953
N26	N	-4.032946	-0.167080	-0.822820
C27	C	-3.963429	-0.049564	-0.784777
O28	O	-3.929201	0.050811	-0.808742
C29	C	-3.937011	-0.050017	-0.725014
C30	C	-3.980093	-0.167984	-0.703294
C31	C	-4.092690	-0.403448	-0.719613
C32	C	-4.066253	-0.403899	-0.659853
C33	C	-3.996737	-0.286391	-0.621814
C34	C	-3.953657	-0.168434	-0.643535
C35	C	-3.867510	0.067497	-0.686972
C36	C	-3.841096	0.067034	-0.627207
C37	C	-3.884178	-0.050933	-0.605487
C38	C	-3.857704	-0.051377	-0.545737
N39	N	-3.900802	-0.169337	-0.524013
C40	C	-3.970318	-0.286844	-0.562052
C41	C	-4.018918	-0.048623	-0.910282
C42	C	-4.045321	-0.048168	-0.970042
C43	C	-4.157937	-0.283645	-0.986359
C44	C	-4.131519	-0.284097	-0.926596
C45	C	-4.062016	-0.166583	-0.888558
C46	C	-3.914794	-0.287781	-0.436552
C47	C	-3.888342	-0.288220	-0.376787
C48	C	-3.775739	-0.052745	-0.360476
C49	C	-3.802178	-0.052304	-0.420236
C50	C	-3.871717	-0.169833	-0.458274
O51	O	-3.796096	0.048463	-0.507847
O52	O	-4.004562	-0.387204	-0.538079
C53	C	-4.108182	0.060247	-0.172500
C54	C	-4.024024	0.203068	-0.172989
C55	C	-4.163706	-0.165182	-0.071690
C56	C	-4.114851	-0.165676	-0.008087
H57	H	-3.635110	-0.560660	-0.208341
F58	F	-4.231889	-0.408706	-1.026852
H59	H	-4.116870	-0.815616	-0.269678
F60	F	-3.999424	0.077390	-0.993151
F61	F	-3.944909	0.076463	-0.869802
F62	F	-4.304584	-0.779596	-0.119821
H63	H	-3.586951	-0.533266	-0.129569
F64	F	-3.701747	0.072309	-0.319982
H65	H	-3.832407	0.163559	-0.704645
H66	H	-4.154950	-0.547388	-0.121111
F67	F	-4.267251	-0.577822	-0.238253
H68	H	-3.923424	-0.384287	-0.359106
F69	F	-3.959892	-0.748549	-0.064559
F70	F	-3.988801	-0.412868	-0.477027
H71	H	-3.784504	0.162731	-0.596238
F72	F	-3.756300	0.073250	-0.443353
H73	H	-4.005011	-0.593692	-0.269938
H74	H	-4.101350	-0.499960	-0.642175
F75	F	-3.718425	-0.795849	-0.219458
F76	F	-4.177378	-0.409653	-0.903486
F77	F	-3.657362	-0.761107	-0.116854
H78	H	-4.149303	-0.499143	-0.750579
H79	H	-4.323759	-0.806875	-0.232102
H80	H	-3.892159	-0.522999	-0.078584
