data_functionalizedCrystal
_audit_creation_method	'MofGen! by Chris Wilmer'
_symmetry_space_group_name_H-M	'P1'
_symmetry_Int_Tables_number	1
_symmetry_cell_setting	triclinic
loop_
_symmetry_equiv_pos_as_xyz
  x,y,z
_cell_length_a	10.654550
_cell_length_b	9.065218
_cell_length_c	9.730223
_cell_angle_alpha	89.997438
_cell_angle_beta	89.999957
_cell_angle_gamma	84.750408
loop_
_atom_site_label
_atom_site_type_symbol
_atom_site_fract_x
_atom_site_fract_y
_atom_site_fract_z
O1	O	1.668660	0.207235	-0.114181
O2	O	2.168660	0.707235	0.385819
O3	O	1.303260	0.226979	-0.114206
O4	O	1.803260	0.726979	0.385794
O5	O	1.493512	0.002423	-0.114190
O6	O	1.993512	0.502423	0.385810
O7	O	1.478407	0.431790	-0.114197
O8	O	1.978407	0.931790	0.385803
O9	O	1.493500	0.002417	0.114390
O10	O	1.993500	0.502417	0.614390
O11	O	1.303247	0.226972	0.114374
O12	O	1.803247	0.726972	0.614374
O13	O	1.668647	0.207228	0.114399
O14	O	2.168647	0.707228	0.614399
Zn15	Zn	1.485945	0.217099	0.150678
Zn16	Zn	1.985945	0.717099	0.650678
Zn17	Zn	1.485962	0.217108	-0.150486
Zn18	Zn	1.985962	0.717108	0.349514
O19	O	1.478395	0.431784	0.114383
O20	O	1.978395	0.931784	0.614383
C21	C	1.256450	0.225526	0.000081
C22	C	1.756450	0.725526	0.500081
C23	C	1.116989	0.221188	0.000071
C24	C	1.616989	0.721188	0.500071
C25	C	1.492055	-0.052559	0.000097
C26	C	1.992055	0.447441	0.500097
C27	C	1.487714	-0.216378	0.000091
C28	C	1.987714	0.283622	0.500091
C29	C	1.038027	0.353403	0.000073
C30	C	1.538027	0.853403	0.500073
C31	C	0.906990	0.349319	0.000097
C32	C	1.406990	0.849319	0.500097
C33	C	0.933890	0.080794	0.000112
C34	C	1.433890	0.580794	0.500112
C35	C	1.064924	0.084879	0.000098
C36	C	1.564924	0.584879	0.500098
C37	C	1.715457	0.208681	0.000109
C38	C	2.215457	0.708681	0.500109
C39	C	1.854918	0.213019	0.000109
C40	C	2.354918	0.713019	0.500109
C41	C	1.479852	0.486766	0.000092
C42	C	1.979852	0.986766	0.500092
C43	C	1.484193	0.650585	0.000090
C44	C	1.984193	1.150585	0.500090
N45	N	1.485943	0.217093	0.356215
N46	N	1.985943	0.717093	0.856215
N47	N	1.485973	0.217102	-0.356022
N48	N	1.985973	0.717102	0.143978
C49	C	1.570217	0.117702	0.428148
C50	C	2.070217	0.617702	0.928148
C51	C	1.570229	0.117703	0.572031
C52	C	2.070229	0.617703	1.072031
C53	C	1.401691	0.316498	0.572035
C54	C	1.901691	0.816498	1.072035
C55	C	1.401674	0.316489	0.428155
C56	C	1.901674	0.816489	0.928155
H57	H	1.080414	0.464395	0.000062
H58	H	1.580414	0.964395	0.500062
F59	F	1.659901	0.011912	0.351589
F60	F	2.159901	0.511912	0.851589
F61	F	1.312012	0.422281	0.648608
F62	F	1.812012	0.922281	1.148608
F63	F	1.311969	0.422274	0.351593
F64	F	1.811969	0.922274	0.851593
F65	F	0.822958	0.490041	0.000101
F66	F	1.322958	0.990041	0.500101
H67	H	1.638850	0.036768	0.630594
H68	H	2.138850	0.536768	1.130594
H69	H	0.891482	-0.030185	0.000141
H70	H	1.391482	0.469815	0.500141
H71	H	1.129219	-0.022793	0.000100
H72	H	1.629219	0.477207	0.500100
