data_functionalizedCrystal
_audit_creation_method	'MofGen! by Chris Wilmer'
_symmetry_space_group_name_H-M	'P1'
_symmetry_Int_Tables_number	1
_symmetry_cell_setting	triclinic
loop_
_symmetry_equiv_pos_as_xyz
  x,y,z
_cell_length_a	10.540539
_cell_length_b	16.992695
_cell_length_c	15.455313
_cell_angle_alpha	87.152573
_cell_angle_beta	92.706132
_cell_angle_gamma	87.596857
loop_
_atom_site_label
_atom_site_type_symbol
_atom_site_fract_x
_atom_site_fract_y
_atom_site_fract_z
O1	O	-1.700697	-0.107164	-0.072091
O2	O	-1.332189	-0.117581	-0.072101
O3	O	-1.514965	0.001778	-0.072089
O4	O	-1.517921	-0.226523	-0.072103
O5	O	-1.504510	-0.005019	0.072172
O6	O	-1.321734	-0.124378	0.072160
O7	O	-1.690242	-0.113961	0.072171
Cu8	Cu	-1.505033	-0.119790	0.085338
Cu9	Cu	-1.517398	-0.111752	-0.085268
O10	O	-1.507466	-0.233320	0.072159
C11	C	-1.279591	-0.120198	0.000028
C12	C	-1.138440	-0.117861	0.000024
C13	C	-1.505937	0.027613	0.000041
C14	C	-1.494596	0.114721	0.000041
C15	C	-1.742840	-0.111344	0.000039
C16	C	-1.883991	-0.113681	0.000038
C17	C	-0.947217	-0.028316	0.000366
C18	C	-1.094065	-0.030670	0.000032
C19	C	-1.086379	-0.155939	-0.082356
C20	C	-0.939580	-0.152961	-0.082415
C21	C	-0.927357	-0.162464	0.081637
C22	C	-1.074330	-0.163318	0.082716
C23	C	-1.516494	-0.259155	0.000026
C24	C	-1.527835	-0.346263	0.000021
N25	N	-1.496346	-0.125444	0.205333
C26	C	-1.604016	0.164349	0.000045
C27	C	-1.593354	0.246195	0.000036
C28	C	-1.473270	0.278413	0.000030
C29	C	-1.363842	0.228779	0.000023
C30	C	-1.374506	0.146934	0.000025
C31	C	-1.429072	0.522259	0.000017
C32	C	-1.418415	0.604110	0.000017
C33	C	-1.647928	0.621521	0.000028
C34	C	-1.658581	0.539673	0.000036
C35	C	-1.549154	0.490047	0.000025
N36	N	-1.462368	0.362073	0.000024
N37	N	-1.560057	0.406389	0.000024
N38	N	-1.526094	-0.106092	-0.205263
C39	C	-1.574027	-0.074755	0.250732
C40	C	-1.567470	-0.079037	0.341539
C41	C	-1.483238	-0.134013	0.386946
C42	C	-1.405549	-0.184704	0.341540
C43	C	-1.412100	-0.180417	0.250734
C44	C	-1.454957	-0.152496	0.658525
C45	C	-1.448413	-0.156781	0.749337
C46	C	-1.610334	-0.051113	0.749330
C47	C	-1.616883	-0.046834	0.658523
C48	C	-1.539190	-0.097522	0.613125
N49	N	-1.476536	-0.138394	0.479766
N50	N	-1.545886	-0.093137	0.520307
H51	H	-1.129534	-0.000436	0.059086
Cl52	Cl	-1.299649	-0.253814	0.398621
Cl53	Cl	-1.707995	0.012609	0.806406
Cl54	Cl	-1.314435	-0.244141	0.193662
Cl55	Cl	-0.891850	0.020569	0.091581
H56	H	-0.888837	-0.137189	0.144080
Cl57	Cl	-1.291504	0.459882	0.000000
Cl58	Cl	-1.722777	0.022278	0.601440
H59	H	-0.918291	0.008752	-0.058380
Cl60	Cl	-1.809552	0.499179	0.000016
H61	H	-1.137212	0.005366	-0.059120
Cl62	Cl	-1.155079	-0.106478	-0.177009
Cl63	Cl	-0.898755	-0.100600	-0.177482
H64	H	-0.897324	-0.215491	-0.086158
H65	H	-1.103712	-0.227120	0.087687
Cl66	Cl	-0.862819	-0.259736	0.082492
Cl67	Cl	-1.129849	-0.254566	-0.087116
Cl68	Cl	-1.236944	0.084545	0.000017
Cl69	Cl	-1.212879	0.269281	0.000004
H70	H	-1.379818	-0.201552	0.786303
Cl71	Cl	-1.754986	0.123855	0.000062
H72	H	-1.391697	-0.193770	0.621570
Cl73	Cl	-1.126481	-0.120346	0.176810
Cl74	Cl	-1.785485	0.683912	0.000040
Cl75	Cl	-1.730917	0.308581	0.000044
H76	H	-1.320623	0.630337	0.000026
H77	H	-1.642623	-0.029991	0.213768
H78	H	-1.630722	-0.037762	0.378503
