data_functionalizedCrystal
_audit_creation_method	'MofGen! by Chris Wilmer'
_symmetry_space_group_name_H-M	'P1'
_symmetry_Int_Tables_number	1
_symmetry_cell_setting	triclinic
loop_
_symmetry_equiv_pos_as_xyz
  x,y,z
_cell_length_a	15.298068
_cell_length_b	29.839131
_cell_length_c	15.298259
_cell_angle_alpha	80.273620
_cell_angle_beta	91.587309
_cell_angle_gamma	99.692747
loop_
_atom_site_label
_atom_site_type_symbol
_atom_site_fract_x
_atom_site_fract_y
_atom_site_fract_z
Zn1	Zn	1.253481	-0.008246	-0.727432
Zn2	Zn	1.278690	-0.093840	-0.580907
Zn3	Zn	1.132326	-0.033507	-0.555569
Zn4	Zn	1.106935	-0.098161	-0.701940
O5	O	1.192858	-0.058439	-0.641462
O6	O	1.379408	-0.007220	-0.729267
O7	O	1.280451	-0.094600	-0.454968
O8	O	1.148474	0.032723	-0.578432
O9	O	1.397929	-0.070106	-0.621616
O10	O	1.237485	0.051282	-0.704699
O11	O	1.172918	-0.050274	-0.436352
O12	O	1.006375	-0.054464	-0.553714
O13	O	1.105198	-0.077470	-0.827900
O14	O	0.987720	-0.101965	-0.661251
O15	O	1.212864	-0.011410	-0.846629
O16	O	1.255830	-0.157293	-0.596897
O17	O	1.129643	-0.160467	-0.685820
C18	C	0.965263	-0.081425	-0.601967
C19	C	0.867893	-0.091268	-0.585092
C20	C	0.554792	0.011797	-0.762074
C21	C	0.646275	0.021044	-0.777934
C22	C	0.701684	-0.007033	-0.729725
C23	C	0.665601	-0.044359	-0.665653
C24	C	0.574108	-0.053609	-0.649796
C25	C	0.721000	-0.072439	-0.617447
C26	C	0.684917	-0.109765	-0.553375
C27	C	0.593433	-0.119013	-0.537521
C28	C	0.538024	-0.090936	-0.585730
C29	C	0.812493	-0.063189	-0.633304
C30	C	0.831809	-0.128595	-0.521026
C31	C	0.740326	-0.137842	-0.505166
C32	C	1.192737	-0.175180	-0.641365
C33	C	1.192761	-0.225112	-0.641367
C34	C	1.239180	-0.525036	-0.707287
C35	C	1.239266	-0.712696	-0.707356
O36	O	1.278612	-0.728713	-0.763326
N37	N	1.192990	-0.745859	-0.641585
C38	C	1.146684	-0.732105	-0.575796
O39	O	1.107318	-0.764618	-0.519860
C40	C	1.146594	-0.544446	-0.575731
C41	C	1.192880	-0.511285	-0.641501
C42	C	1.285462	-0.491875	-0.773052
C43	C	1.285444	-0.444963	-0.773031
C44	C	1.239144	-0.431212	-0.707245
C45	C	1.192862	-0.464372	-0.641480
C46	C	1.100283	-0.530693	-0.509946
C47	C	1.100263	-0.483775	-0.509937
C48	C	1.146549	-0.450613	-0.575707
C49	C	1.146544	-0.403709	-0.575673
N50	N	1.192820	-0.370546	-0.641444
C51	C	1.239120	-0.384297	-0.707230
C52	C	1.146736	-0.830628	-0.575833
C53	C	1.146760	-0.877542	-0.575848
C54	C	1.239341	-0.858130	-0.707410
C55	C	1.239322	-0.811214	-0.707390
C56	C	1.193013	-0.797465	-0.641604
C57	C	1.239080	-0.285779	-0.707181
C58	C	1.239061	-0.238864	-0.707153
C59	C	1.146476	-0.258280	-0.575594
C60	C	1.146499	-0.305192	-0.575620
C61	C	1.192802	-0.318939	-0.641421
O62	O	1.107210	-0.387658	-0.519738
O63	O	1.278465	-0.351777	-0.763169
C64	C	1.239198	-0.571948	-0.707308
C65	C	1.192916	-0.605109	-0.641542
C66	C	1.146616	-0.591357	-0.575756
C67	C	1.192940	-0.652023	-0.641557
C68	C	1.239240	-0.665775	-0.707343
C69	C	1.285516	-0.632611	-0.773114
C70	C	1.285498	-0.585699	-0.773094
C71	C	1.100340	-0.624521	-0.509985
C72	C	1.100362	-0.671432	-0.510011
C73	C	1.146663	-0.685183	-0.575797
C74	C	1.421342	-0.035363	-0.681111
C75	C	1.518708	-0.025530	-0.698008
C76	C	1.153387	-0.042104	-0.869936
C77	C	1.136567	-0.035143	-0.967298
C78	C	1.193000	0.058762	-0.641583
C79	C	1.193060	0.108706	-0.641634
C80	C	1.313103	-0.107839	-1.280506
C81	C	1.328902	-0.114383	-1.189029
C82	C	1.280820	-0.094573	-1.133592
C83	C	1.216936	-0.068220	-1.169640
C84	C	1.201130	-0.061679	-1.261126
C85	C	1.168847	-0.048413	-1.114211
C86	C	1.104963	-0.022059	-1.150260
C87	C	1.089161	-0.015519	-1.241737
C88	C	1.137243	-0.035328	-1.297174
C89	C	1.184652	-0.054954	-1.022726
C90	C	1.072679	-0.008793	-1.003346
C91	C	1.056880	-0.002250	-1.094823
C92	C	1.232226	-0.074672	-0.413886
C93	C	1.249216	-0.081489	-0.316554
H94	H	0.564056	-0.149409	-0.485356
C95	C	0.700627	-0.178901	-0.434694
C96	C	0.649598	-0.170646	-0.355103
C97	C	0.609898	-0.211705	-0.284632
C98	C	0.621226	-0.261020	-0.293752
C99	C	0.672258	-0.269277	-0.373346
C100	C	0.711958	-0.228218	-0.443817
H101	H	0.641209	-0.134139	-0.348349
H102	H	0.572121	-0.205593	-0.225711
H103	H	0.591838	-0.291414	-0.241585
H104	H	0.680646	-0.305784	-0.380100
H105	H	0.749734	-0.234331	-0.502738
H106	H	0.841863	-0.032797	-0.685471
H107	H	0.675647	0.051434	-0.830104
C108	C	0.892749	-0.159482	-0.467988
C109	C	0.993383	-0.149307	-0.485425
C110	C	1.054329	-0.180192	-0.432394
C111	C	1.014641	-0.221252	-0.361926
C112	C	0.914002	-0.231429	-0.344486
C113	C	0.853056	-0.200544	-0.397517
H114	H	1.022767	-0.118910	-0.537593
H115	H	1.128828	-0.172659	-0.445305
H116	H	1.059757	-0.244116	-0.322669
H117	H	0.884618	-0.261826	-0.292318
H118	H	0.778557	-0.208077	-0.384607
C119	C	1.019786	0.013001	-0.942375
C120	C	1.037172	0.005809	-0.841751
C121	C	0.984281	0.027601	-0.780774
C122	C	0.914004	0.056584	-0.820422
C123	C	0.896614	0.063777	-0.921051
C124	C	0.949505	0.041986	-0.982028
H125	H	1.089198	-0.015647	-0.812397
H126	H	0.997155	0.022276	-0.706281
H127	H	0.874851	0.072715	-0.775283
H128	H	0.844588	0.085233	-0.950405
H129	H	0.936632	0.047311	-1.056521
H130	H	1.037133	0.005935	-1.271083
C131	C	1.095597	-0.341674	-0.503268
C132	C	1.120032	-0.341640	-0.404947
C133	C	1.069125	-0.378120	-0.332598
C134	C	0.993784	-0.414632	-0.358571
C135	C	0.969345	-0.414667	-0.456896
C136	C	1.020252	-0.378188	-0.529245
H137	H	1.175808	-0.314610	-0.385716
H138	H	1.087216	-0.378094	-0.259811
H139	H	0.956099	-0.441636	-0.305014
H140	H	0.913570	-0.441697	-0.476126
H141	H	1.002161	-0.378214	-0.602032
H142	H	0.776174	0.000500	-0.742639
H143	H	1.004865	0.019208	-1.124187
C144	C	1.290018	-0.300897	-0.779558
C145	C	1.390826	-0.284844	-0.789759
C146	C	1.441769	-0.299961	-0.862131
C147	C	1.391906	-0.331133	-0.924301
C148	C	1.291093	-0.347188	-0.914101
C149	C	1.240149	-0.332070	-0.841730
H150	H	1.427743	-0.261767	-0.743736
H151	H	1.516398	-0.288076	-0.869681
H152	H	1.429617	-0.342324	-0.977874
H153	H	1.254176	-0.370264	-0.960125
H154	H	1.165520	-0.343955	-0.834180
C155	C	1.289974	-0.202386	-0.779507
C156	C	1.340896	-0.217516	-0.851874
C157	C	1.391805	-0.181041	-0.924227
C158	C	1.391792	-0.129436	-0.924215
C159	C	1.340868	-0.114303	-0.851846
C160	C	1.289959	-0.150778	-0.779492
H161	H	1.340907	-0.255720	-0.851885
H162	H	1.429502	-0.192244	-0.977799
H163	H	1.429478	-0.102434	-0.977775
H164	H	1.340857	-0.076099	-0.851834
H165	H	1.252262	-0.139575	-0.725920
H166	H	0.509670	0.034651	-0.801324
C167	C	1.336403	-0.506994	-0.845422
C168	C	1.437209	-0.490935	-0.855621
C169	C	1.488161	-0.506048	-0.927991
C170	C	1.438307	-0.537221	-0.990163
C171	C	1.337496	-0.553283	-0.979966
C172	C	1.286544	-0.538169	-0.907596
H173	H	1.474119	-0.467857	-0.809596
H174	H	1.562789	-0.494159	-0.935539
H175	H	1.476025	-0.548410	-1.043736
H176	H	1.300586	-0.576361	-1.025991
H177	H	1.211916	-0.550059	-0.900048
H178	H	0.463529	-0.098465	-0.572826
C179	C	1.049442	-0.707908	-0.437658
C180	C	0.974099	-0.744418	-0.463639
C181	C	0.923174	-0.780892	-0.391295
C182	C	0.947591	-0.780857	-0.292971
C183	C	1.022938	-0.744346	-0.266986
C184	C	1.073864	-0.707872	-0.339330
H185	H	0.956021	-0.744445	-0.536428
H186	H	0.867397	-0.807920	-0.410531
H187	H	0.909892	-0.807857	-0.239417
H188	H	1.041016	-0.744319	-0.194196
H189	H	1.129640	-0.680844	-0.320093
H190	H	1.109025	-0.819437	-0.522260
C191	C	1.399184	-0.143365	-1.149394
C192	C	1.496593	-0.128734	-1.179275
C193	C	1.566885	-0.157716	-1.139648
C194	C	1.539769	-0.201329	-1.070141
C195	C	1.442355	-0.215961	-1.040257
C196	C	1.372063	-0.186979	-1.079884
H197	H	1.516670	-0.096448	-1.230731
H198	H	1.638997	-0.146884	-1.161771
H199	H	1.591803	-0.222783	-1.040807
H200	H	1.422278	-0.248248	-0.988801
H201	H	1.299951	-0.197812	-1.057761
C202	C	1.365976	-0.129629	-1.341493
C203	C	1.317085	-0.164239	-1.397756
C204	C	1.369956	-0.186032	-1.458748
C205	C	1.471718	-0.173214	-1.463477
C206	C	1.520614	-0.138602	-1.407212
C207	C	1.467743	-0.116810	-1.346220
H208	H	1.241751	-0.173729	-1.394257
H209	H	1.333760	-0.211654	-1.500399
H210	H	1.510856	-0.189346	-1.508627
H211	H	1.595949	-0.129112	-1.410710
H212	H	1.503939	-0.091188	-1.304568
C213	C	1.049352	-0.567162	-0.437603
C214	C	1.073758	-0.567121	-0.339277
C215	C	1.022818	-0.603589	-0.266932
C216	C	0.947471	-0.640097	-0.292912
C217	C	0.923062	-0.640138	-0.391242
C218	C	0.974002	-0.603671	-0.463588
H219	H	1.129537	-0.540094	-0.320041
H220	H	1.040888	-0.603557	-0.194142
H221	H	0.909762	-0.667092	-0.239358
H222	H	0.867283	-0.667165	-0.410479
H223	H	0.955932	-0.603702	-0.536378
C224	C	1.290231	-0.774739	-0.779742
C225	C	1.391044	-0.771592	-0.789959
C226	C	1.441954	-0.735118	-0.862315
C227	C	1.392051	-0.701792	-0.924454
C228	C	1.291232	-0.704938	-0.914239
C229	C	1.240323	-0.741411	-0.841883
H230	H	1.427990	-0.796263	-0.743958
H231	H	1.516587	-0.732790	-0.869877
H232	H	1.429737	-0.674792	-0.978017
H233	H	1.254286	-0.680267	-0.960240
H234	H	1.165690	-0.743740	-0.834322
H235	H	1.108782	-0.247077	-0.522030
C236	C	1.290269	-0.873261	-0.779780
C237	C	1.365634	-0.901253	-0.753834
C238	C	1.416553	-0.916387	-0.826204
C239	C	1.392108	-0.903528	-0.924519
C240	C	1.316739	-0.875534	-0.950468
C241	C	1.265820	-0.860400	-0.878099
H242	H	1.383733	-0.910774	-0.681052
H243	H	1.472346	-0.937110	-0.806993
H244	H	1.429801	-0.914731	-0.978091
H245	H	1.298640	-0.866013	-1.023251
H246	H	1.210027	-0.839677	-0.897309
H247	H	1.109080	-0.904539	-0.522284
H248	H	1.323132	-0.417965	-0.826589
H249	H	1.062549	-0.472583	-0.456366
H250	H	1.323189	-0.558702	-0.826650
H251	H	1.323219	-0.643815	-0.826677
H252	H	1.062635	-0.613329	-0.456415
H253	H	1.236673	-0.076408	-0.993385
H254	H	1.124385	-0.030001	-1.371663
H255	H	1.293687	-0.099903	-1.059107
