data_functionalizedCrystal
_audit_creation_method	'MofGen! by Chris Wilmer'
_symmetry_space_group_name_H-M	'P1'
_symmetry_Int_Tables_number	1
_symmetry_cell_setting	triclinic
loop_
_symmetry_equiv_pos_as_xyz
  x,y,z
_cell_length_a	16.109302
_cell_length_b	16.109304
_cell_length_c	14.586319
_cell_angle_alpha	89.999019
_cell_angle_beta	89.994552
_cell_angle_gamma	83.462209
loop_
_atom_site_label
_atom_site_type_symbol
_atom_site_fract_x
_atom_site_fract_y
_atom_site_fract_z
O1	O	1.103131	0.106869	-0.076276
O2	O	1.436465	0.440202	0.257058
O3	O	1.769798	0.773536	0.590391
O4	O	0.861070	0.120168	-0.076268
O5	O	1.194403	0.453501	0.257066
O6	O	1.527736	0.786834	0.590399
O7	O	0.988749	-0.007513	-0.076272
O8	O	1.322082	0.325821	0.257061
O9	O	1.655416	0.659154	0.590394
O10	O	0.975452	0.234549	-0.076271
O11	O	1.308786	0.567882	0.257062
O12	O	1.642119	0.901216	0.590396
O13	O	0.988740	-0.007514	0.076208
O14	O	1.322074	0.325819	0.409542
O15	O	1.655407	0.659152	0.742875
O16	O	0.861061	0.120166	0.076213
O17	O	1.194394	0.453499	0.409546
O18	O	1.527728	0.786832	0.742880
O19	O	1.103123	0.106867	0.076205
O20	O	1.436456	0.440200	0.409538
O21	O	1.769789	0.773534	0.742872
Cu22	Cu	0.982091	0.113516	0.090132
Cu23	Cu	1.315424	0.446849	0.423465
Cu24	Cu	1.648758	0.780183	0.756798
Cu25	Cu	0.982101	0.113518	-0.090194
Cu26	Cu	1.315435	0.446852	0.243139
Cu27	Cu	1.648768	0.780185	0.576472
O28	O	0.975443	0.234547	0.076210
O29	O	1.308777	0.567880	0.409543
O30	O	1.642110	0.901214	0.742876
C31	C	0.830090	0.119628	-0.000026
C32	C	1.163424	0.452961	0.333307
C33	C	1.496757	0.786294	0.666640
C34	C	0.737795	0.118012	-0.000024
C35	C	1.071128	0.451346	0.333310
C36	C	1.404462	0.784679	0.666643
C37	C	0.525449	0.114276	0.083084
C38	C	0.858783	0.447610	0.416418
C39	C	1.192116	0.780943	0.749751
C40	C	0.438729	0.112750	0.083081
C41	C	0.772063	0.446083	0.416415
C42	C	1.105396	0.779416	0.749748
C43	C	0.438749	0.112756	-0.083162
C44	C	0.772083	0.446089	0.250172
C45	C	1.105416	0.779423	0.583505
C46	C	0.525469	0.114277	-0.083157
C47	C	0.858802	0.447610	0.250176
C48	C	1.192135	0.780943	0.583509
C49	C	0.568816	0.115041	-0.000032
C50	C	0.902149	0.448374	0.333302
C51	C	1.235483	0.781708	0.666635
C52	C	0.395377	0.111994	-0.000039
C53	C	0.728710	0.445327	0.333294
C54	C	1.062043	0.778660	0.666628
C55	C	0.301351	0.110338	-0.000043
C56	C	0.634684	0.443672	0.333290
C57	C	0.968017	0.777005	0.666624
C58	C	0.662848	0.116695	-0.000027
C59	C	0.996181	0.450028	0.333306
C60	C	1.329514	0.783362	0.666639
C61	C	0.988206	-0.038488	-0.000034
C62	C	1.321539	0.294845	0.333299
C63	C	1.654872	0.628178	0.666633
C64	C	0.986590	-0.130784	-0.000040
C65	C	1.319923	0.202550	0.333293
C66	C	1.653256	0.535883	0.666626
C67	C	0.982861	-0.343120	-0.083154
C68	C	1.316194	-0.009787	0.250179
C69	C	1.649527	0.323547	0.583513
C70	C	0.981335	-0.429840	-0.083153
C71	C	1.314668	-0.096507	0.250180
C72	C	1.648001	0.236827	0.583513
C73	C	0.981329	-0.429839	0.083090
C74	C	1.314663	-0.096506	0.416423
C75	C	1.647996	0.236828	0.749756
C76	C	0.982849	-0.343120	0.083088
C77	C	1.316183	-0.009786	0.416421
C78	C	1.649516	0.323547	0.749755
C79	C	0.983619	-0.299763	-0.000037
C80	C	1.316953	0.033570	0.333297
C81	C	1.650286	0.366904	0.666630
C82	C	0.980573	-0.473202	-0.000034
C83	C	1.313906	-0.139869	0.333299
C84	C	1.647240	0.193464	0.666633
C85	C	0.978918	-0.567228	-0.000032
C86	C	1.312252	-0.233895	0.333301
C87	C	1.645585	0.099438	0.666634
C88	C	0.985272	-0.205731	-0.000039
C89	C	1.318606	0.127602	0.333295
C90	C	1.651939	0.460936	0.666628
C91	C	1.134102	0.107407	-0.000038
C92	C	1.467435	0.440740	0.333295
C93	C	1.800769	0.774073	0.666628
C94	C	1.226397	0.109022	-0.000047
C95	C	1.559731	0.442355	0.333286
C96	C	1.893064	0.775689	0.666620
C97	C	0.975987	0.265523	-0.000031
C98	C	1.309320	0.598856	0.333303
C99	C	1.642653	0.932190	0.666636
C100	C	0.977603	0.357818	-0.000030
C101	C	1.310936	0.691151	0.333303
C102	C	1.644270	1.024485	0.666636
N103	N	0.982090	0.113514	0.216963
N104	N	1.315423	0.446847	0.550297
N105	N	1.648756	0.780181	0.883630
N106	N	0.982109	0.113514	-0.217026
N107	N	1.315443	0.446847	0.116307
N108	N	1.648776	0.780181	0.449640
C109	C	1.038645	0.056996	0.451968
C110	C	1.371978	0.390330	0.785301
C111	C	1.705311	0.723663	1.118635
C112	C	1.038647	0.056994	0.547949
C113	C	1.371980	0.390328	0.881282
C114	C	1.705314	0.723661	1.214616
C115	C	0.925548	0.170034	0.547963
C116	C	1.258882	0.503368	0.881296
C117	C	1.592215	0.836701	1.214629
C118	C	0.925542	0.170032	0.451983
C119	C	1.258876	0.503365	0.785317
C120	C	1.592209	0.836698	1.118650
C121	C	0.982095	0.113514	0.403988
C122	C	1.315429	0.446847	0.737322
C123	C	1.648762	0.780180	1.070655
C124	C	0.982104	0.113514	0.595949
C125	C	1.315437	0.446848	0.929282
C126	C	1.648770	0.780181	1.262616
C127	C	0.982106	0.113513	0.700016
C128	C	1.315439	0.446846	1.033350
C129	C	1.648772	0.780179	1.366683
C130	C	0.982092	0.113514	0.299915
C131	C	1.315426	0.446847	0.633248
C132	C	1.648759	0.780181	0.966581
H133	H	0.403424	0.112127	0.150763
H134	H	0.736757	0.445460	0.484096
H135	H	1.070091	0.778794	0.817430
H136	H	1.084694	0.010972	0.587012
H137	H	1.418027	0.344305	0.920345
H138	H	1.751360	0.677638	1.253678
H139	H	0.980704	-0.465151	0.150767
H140	H	1.314037	-0.131818	0.484100
H141	H	1.647371	0.201516	0.817434
C142	C	0.983698	-0.295429	-0.174593
C143	C	1.317032	0.037904	0.158740
C144	C	1.650365	0.371237	0.492073
N145	N	0.984326	-0.259511	-0.243468
N146	N	1.317659	0.073823	0.089865
N147	N	1.650992	0.407156	0.423198
H148	H	1.084692	0.010975	0.412893
H149	H	1.418026	0.344308	0.746226
H150	H	1.751359	0.677641	1.079559
H151	H	0.879505	0.216051	0.587050
H152	H	1.212838	0.549385	0.920383
H153	H	1.546172	0.882718	1.253716
H154	H	0.879489	0.216055	0.412916
H155	H	1.212823	0.549389	0.746249
H156	H	1.546156	0.882722	1.079582
C157	C	0.980533	-0.477533	-0.174589
C158	C	1.313866	-0.144200	0.158744
C159	C	1.647200	0.189134	0.492078
N160	N	0.979940	-0.513456	-0.243463
N161	N	1.313273	-0.180123	0.089871
N162	N	1.646607	0.153210	0.423204
C163	C	0.573175	0.115113	-0.174597
C164	C	0.906509	0.448446	0.158737
C165	C	1.239842	0.781780	0.492070
N166	N	0.609108	0.115739	-0.243466
N167	N	0.942442	0.449073	0.089868
N168	N	1.275775	0.782406	0.423201
C169	C	0.573129	0.115107	0.174525
C170	C	0.906463	0.448441	0.507858
C171	C	1.239796	0.781774	0.841192
N172	N	0.609040	0.115729	0.243401
N173	N	0.942374	0.449063	0.576734
N174	N	1.275707	0.782396	0.910068
C175	C	0.983683	-0.295424	0.174528
C176	C	1.317016	0.037909	0.507862
C177	C	1.650349	0.371242	0.841195
N178	N	0.984308	-0.259500	0.243398
N179	N	1.317642	0.073834	0.576732
N180	N	1.650975	0.407167	0.910065
C181	C	0.391059	0.111922	-0.174595
C182	C	0.724392	0.445255	0.158738
C183	C	1.057725	0.778588	0.492072
N184	N	0.355138	0.111296	-0.243465
N185	N	0.688472	0.444630	0.089869
N186	N	1.021805	0.777963	0.423202
