data_functionalizedCrystal
_audit_creation_method	'MofGen! by Chris Wilmer'
_symmetry_space_group_name_H-M	'P1'
_symmetry_Int_Tables_number	1
_symmetry_cell_setting	triclinic
loop_
_symmetry_equiv_pos_as_xyz
  x,y,z
_cell_length_a	15.995343
_cell_length_b	15.995350
_cell_length_c	14.472310
_cell_angle_alpha	89.998838
_cell_angle_beta	89.991294
_cell_angle_gamma	96.509221
loop_
_atom_site_label
_atom_site_type_symbol
_atom_site_fract_x
_atom_site_fract_y
_atom_site_fract_z
O1	O	1.111001	-0.107890	-0.076744
O2	O	0.867224	-0.121224	-0.076765
O3	O	0.995776	0.007331	-0.076753
O4	O	0.982449	-0.236445	-0.076756
O5	O	0.995743	0.007323	0.076929
O6	O	0.867191	-0.121232	0.076917
O7	O	1.110968	-0.107897	0.076938
Cu8	Cu	0.989076	-0.114565	0.090960
Cu9	Cu	0.989116	-0.114556	-0.090787
O10	O	0.982416	-0.236452	0.076926
C11	C	0.836013	-0.120678	0.000073
C12	C	0.743062	-0.119028	0.000065
C13	C	0.572876	-0.116035	0.000077
C14	C	0.549530	-0.023238	0.000078
C15	C	0.452852	-0.021492	0.000432
C16	C	0.405316	-0.113086	0.000088
C17	C	0.434389	-0.159750	0.087673
C18	C	0.531181	-0.160851	0.087741
C19	C	0.531129	-0.162201	-0.087030
C20	C	0.434635	-0.158776	-0.088176
C21	C	0.310618	-0.111425	0.000098
C22	C	0.667574	-0.117699	0.000074
C23	C	0.995209	0.038522	0.000086
C24	C	0.993557	0.131472	0.000081
C25	C	1.142179	-0.108444	0.000098
C26	C	1.235130	-0.110093	0.000101
C27	C	0.982983	-0.267643	0.000085
C28	C	0.984635	-0.360594	0.000084
N29	N	0.989055	-0.114571	0.218791
C30	C	0.987625	0.469220	0.000083
C31	C	0.896073	0.421783	-0.000269
C32	C	0.897725	0.325093	0.000077
C33	C	0.990567	0.301659	0.000082
C34	C	1.035705	0.342734	0.087844
C35	C	1.033405	0.439369	0.087917
C36	C	1.035334	0.439736	-0.086848
C37	C	1.035313	0.342791	-0.088008
C38	C	0.992235	0.206962	0.000084
C39	C	0.985960	0.563917	0.000088
N40	N	0.989144	-0.114544	-0.218618
C41	C	0.989114	-0.114553	0.592882
C42	C	0.920098	-0.183109	0.553710
C43	C	0.920257	-0.183359	0.446622
C44	C	0.989084	-0.114562	0.407291
C45	C	1.076449	-0.133641	0.446136
C46	C	1.076061	-0.134128	0.553257
C47	C	0.971545	-0.026714	0.553410
C48	C	0.969541	-0.027299	0.446283
C49	C	0.989073	-0.114565	0.302403
C50	C	0.989132	-0.114551	0.697770
H51	H	0.402542	-0.227161	0.090683
O52	O	0.994151	0.305140	0.174357
H53	H	0.941358	0.257214	0.155070
O54	O	0.995706	0.466935	-0.174965
H55	H	0.941557	0.501775	-0.157780
H56	H	0.855317	-0.171992	0.420360
O57	O	0.586643	0.024441	-0.083090
H58	H	0.629766	0.079657	-0.059739
O59	O	1.125001	0.322455	-0.095022
H60	H	1.133241	0.288168	-0.160481
H61	H	1.103913	0.328610	0.091111
O62	O	0.991661	0.306635	-0.174014
H63	H	1.036989	0.275847	-0.216773
H64	H	1.102835	0.471499	-0.087434
H65	H	0.416091	-0.124793	-0.152972
H66	H	0.905275	-0.012820	0.420895
H67	H	0.854948	-0.171929	0.579492
H68	H	0.862242	0.296673	-0.062835
O69	O	1.031812	0.043450	0.410851
H70	H	1.077869	0.017405	0.364693
O71	O	0.587893	0.023635	0.083152
H72	H	0.623514	-0.018875	0.124443
H73	H	0.931163	-0.247926	0.580620
O74	O	0.935123	-0.269699	0.412653
H75	H	0.942235	-0.311434	0.472739
H76	H	0.401679	-0.225608	-0.093737
H77	H	0.859629	0.441373	0.062310
O78	O	0.989767	0.463619	0.174806
H79	H	0.924679	0.431114	0.176335
O80	O	1.096568	-0.218980	0.586354
H81	H	1.106663	-0.259282	0.525848
O82	O	1.097446	-0.217535	0.410605
H83	H	1.100214	-0.215978	0.333983
O84	O	1.146135	-0.070512	0.587592
H85	H	1.180153	-0.039541	0.527682
H86	H	1.129033	-0.085036	0.420657
O87	O	0.888973	-0.002421	0.589216
H88	H	0.859532	-0.052691	0.635550
H89	H	1.021876	0.024304	0.578742
O90	O	0.428398	0.026645	0.084090
H91	H	0.485658	0.048760	0.124456
H92	H	0.433846	0.015036	-0.062340
H93	H	0.414283	-0.127739	0.153102
O94	O	1.122433	0.482098	0.093219
H95	H	1.166937	0.433712	0.095726
O96	O	0.850389	0.288175	0.083557
H97	H	0.784283	0.302899	0.080503
O98	O	0.566654	-0.118557	0.174794
H99	H	0.514650	-0.097508	0.216444
O100	O	0.550497	-0.250987	0.092698
H101	H	0.490726	-0.293597	0.095043
H102	H	0.559414	-0.132921	-0.153438
H103	H	0.545143	-0.230506	-0.087875
O104	O	0.847611	0.446349	-0.083624
H105	H	0.880469	0.429835	-0.147502
