data_functionalizedCrystal
_audit_creation_method	'MofGen! by Chris Wilmer'
_symmetry_space_group_name_H-M	'P1'
_symmetry_Int_Tables_number	1
_symmetry_cell_setting	triclinic
loop_
_symmetry_equiv_pos_as_xyz
  x,y,z
_cell_length_a	19.188930
_cell_length_b	19.188928
_cell_length_c	15.072220
_cell_angle_alpha	90.008546
_cell_angle_beta	89.973638
_cell_angle_gamma	96.855705
loop_
_atom_site_label
_atom_site_type_symbol
_atom_site_fract_x
_atom_site_fract_y
_atom_site_fract_z
O1	O	0.926153	-0.087163	-0.074082
O2	O	1.426153	0.412837	0.425918
O3	O	0.722841	-0.098897	-0.074023
O4	O	1.222841	0.401103	0.425977
O5	O	0.830365	0.008626	-0.074032
O6	O	1.330365	0.508626	0.425968
O7	O	0.818629	-0.194686	-0.074073
O8	O	1.318629	0.305314	0.425927
O9	O	0.830339	0.008620	0.073533
O10	O	1.330339	0.508620	0.573533
O11	O	0.722815	-0.098903	0.073542
O12	O	1.222815	0.401097	0.573542
O13	O	0.926126	-0.087169	0.073483
O14	O	1.426126	0.412831	0.573483
Zn15	Zn	0.824466	-0.093037	0.096942
Zn16	Zn	1.324466	0.406963	0.596942
Zn17	Zn	0.824501	-0.093029	-0.097482
Zn18	Zn	1.324501	0.406971	0.402518
O19	O	0.818603	-0.194692	0.073492
O20	O	1.318603	0.305308	0.573492
C21	C	0.696817	-0.098520	-0.000233
C22	C	1.196817	0.401480	0.499767
C23	C	0.619313	-0.097380	-0.000209
C24	C	1.119313	0.402620	0.499791
C25	C	0.574388	-0.160471	-0.000236
C26	C	1.074388	0.339529	0.499764
C27	C	0.501564	-0.159399	-0.000245
C28	C	1.001564	0.340601	0.499755
C29	C	0.473668	-0.095233	-0.000246
C30	C	0.973668	0.404767	0.499754
C31	C	0.518603	-0.032133	-0.000214
C32	C	1.018603	0.467867	0.499786
C33	C	0.591425	-0.033207	-0.000196
C34	C	1.091425	0.466793	0.499804
N35	N	0.365698	-0.046184	-0.050495
N36	N	0.865698	0.453816	0.449505
N37	N	0.296519	-0.045168	-0.050514
N38	N	0.796519	0.454832	0.449486
C39	C	0.254260	-0.091995	-0.000300
C40	C	0.754260	0.408005	0.499700
N41	N	0.283791	-0.139885	0.049924
N42	N	0.783791	0.360115	0.549924
N43	N	0.352976	-0.140903	0.049939
N44	N	0.852976	0.359097	0.549939
C45	C	0.394706	-0.094062	-0.000265
C46	C	0.894706	0.405938	0.499735
C47	C	0.130371	-0.153928	-0.000336
C48	C	0.630371	0.346072	0.499664
C49	C	0.057546	-0.152853	-0.000340
C50	C	0.557546	0.347147	0.499660
C51	C	0.074586	-0.025586	-0.000317
C52	C	0.574586	0.474414	0.499683
C53	C	0.147409	-0.026662	-0.000304
C54	C	0.647409	0.473338	0.499696
C55	C	0.175297	-0.090835	-0.000318
C56	C	0.675297	0.409165	0.499682
C57	C	0.829972	0.034634	-0.000245
C58	C	1.329972	0.534634	0.499755
C59	C	0.828832	0.112138	-0.000233
C60	C	1.328832	0.612138	0.499767
C61	C	0.891923	0.157062	-0.000245
C62	C	1.391923	0.657062	0.499755
C63	C	0.890852	0.229886	-0.000256
C64	C	1.390852	0.729886	0.499744
C65	C	0.826686	0.257783	-0.000236
C66	C	1.326686	0.757783	0.499764
C67	C	0.763587	0.212849	-0.000229
C68	C	1.263587	0.712849	0.499771
C69	C	0.764660	0.140027	-0.000228
C70	C	1.264660	0.640027	0.499772
N71	N	0.777631	0.365786	0.050003
N72	N	1.277631	0.865786	0.550003
N73	N	0.776616	0.434964	0.050004
N74	N	1.276616	0.934964	0.550004
C75	C	0.823450	0.477192	-0.000242
C76	C	1.323450	0.977192	0.499758
N77	N	0.871348	0.447628	-0.050477
N78	N	1.371348	0.947628	0.449523
N79	N	0.872365	0.378443	-0.050474
N80	N	1.372365	0.878443	0.449526
C81	C	0.825516	0.336745	-0.000238
C82	C	1.325516	0.836745	0.499762
C83	C	0.885384	0.601080	-0.000266
C84	C	1.385384	1.101080	0.499734
C85	C	0.884311	0.673905	-0.000282
C86	C	1.384311	1.173905	0.499718
C87	C	0.757043	0.656866	-0.000247
C88	C	1.257043	1.156866	0.499753
C89	C	0.758119	0.584043	-0.000240
C90	C	1.258119	1.084043	0.499760
C91	C	0.822291	0.556155	-0.000245
C92	C	1.322291	1.056155	0.499755
C93	C	0.952151	-0.087546	-0.000309
C94	C	1.452151	0.412454	0.499691
C95	C	1.029655	-0.088687	-0.000339
C96	C	1.529655	0.411313	0.499661
N97	N	0.824448	-0.093042	0.229631
N98	N	1.324448	0.406958	0.729631
C99	C	0.818998	0.779300	-0.000284
C100	C	1.318998	1.279300	0.499716
C101	C	0.820144	0.701797	-0.000264
C102	C	1.320144	1.201797	0.499736
N103	N	0.824526	-0.093019	-0.230171
N104	N	1.324526	0.406981	0.269829
C105	C	0.824500	-0.093026	0.588832
C106	C	1.324500	0.406974	1.088832
C107	C	0.766774	-0.150368	0.551230
C108	C	1.266774	0.349632	1.051230
C109	C	0.766905	-0.150576	0.448404
C110	C	1.266905	0.349424	0.948404
C111	C	0.824473	-0.093034	0.410628
C112	C	1.324473	0.406966	0.910628
C113	C	0.897276	-0.108724	0.447894
C114	C	1.397276	0.391276	0.947894
C115	C	0.896952	-0.109131	0.550752
C116	C	1.396952	0.390869	1.050752
C117	C	0.810073	-0.019824	0.550953
C118	C	1.310073	0.480176	1.050953
C119	C	0.808400	-0.020318	0.448090
C120	C	1.308400	0.479682	0.948090
C121	C	0.824463	-0.093037	0.309915
C122	C	1.324463	0.406963	0.809915
C123	C	0.824515	-0.093025	0.689545
C124	C	1.324515	0.406975	1.189545
H125	H	0.464980	-0.210777	-0.000265
H126	H	0.964980	0.289223	0.499735
Br127	Br	0.672490	0.523070	-0.000223
Br128	Br	1.172490	1.023070	0.499777
Br129	Br	0.873961	0.054110	0.405252
Br130	Br	1.373961	0.554110	0.905252
Br131	Br	0.480746	0.054950	-0.000206
Br132	Br	0.980746	0.554950	0.499794
H133	H	0.758151	-0.004683	0.576962
H134	H	1.258151	0.495317	1.076962
Br135	Br	-0.003426	-0.238485	-0.000368
Br136	Br	0.496574	0.261515	0.499632
Br137	Br	0.719140	-0.000461	0.407503
Br138	Br	1.219140	0.499539	0.907503
H139	H	0.937637	0.578372	-0.000275
H140	H	1.437637	1.078372	0.499725
Br141	Br	0.676266	-0.135093	0.592504
Br142	Br	1.176266	0.364907	1.092504
Br143	Br	0.919043	-0.196675	0.404920
Br144	Br	1.419043	0.303325	0.904920
H145	H	0.183988	0.024713	-0.000287
H146	H	0.683988	0.524713	0.499713
Br147	Br	0.976482	0.290866	-0.000276
Br148	Br	1.476482	0.790866	0.499724
H149	H	0.852173	0.022845	0.575268
H150	H	1.352173	0.522845	1.075268
H151	H	0.712783	-0.141262	0.423211
H152	H	1.212783	0.358738	0.923211
H153	H	0.935689	0.710482	-0.000297
H154	H	1.435689	1.210482	0.499703
H155	H	0.597089	-0.212725	-0.000249
H156	H	1.097089	0.287275	0.499751
Br157	Br	0.679029	0.079054	-0.000214
Br158	Br	1.179029	0.579054	0.499786
Br159	Br	0.168223	-0.241017	-0.000347
Br160	Br	0.668223	0.258983	0.499653
Br161	Br	0.669959	0.694718	-0.000229
Br162	Br	1.169959	1.194718	0.499771
H163	H	0.628003	0.018171	-0.000174
H164	H	1.128003	0.518171	0.499826
H165	H	0.051874	0.026659	-0.000373
H166	H	0.551874	0.526659	0.499627
H167	H	0.775835	-0.204389	0.577053
H168	H	1.275835	0.295611	1.077053
H169	H	0.944177	0.134361	-0.000253
H170	H	1.444177	0.634361	0.499747
Br171	Br	0.676504	0.250706	-0.000214
Br172	Br	1.176504	0.750706	0.499786
H173	H	0.941248	-0.068061	0.423420
H174	H	1.441248	0.431939	0.923420
Br175	Br	0.782188	-0.241134	0.407346
Br176	Br	1.282188	0.258866	0.907346
H177	H	0.941237	-0.069001	0.575622
H178	H	1.441237	0.430999	1.075622
Br179	Br	0.918198	-0.198098	0.590702
Br180	Br	1.418198	0.301902	1.090702
