data_functionalizedCrystal
_audit_creation_method	'MofGen! by Chris Wilmer'
_symmetry_space_group_name_H-M	'P1'
_symmetry_Int_Tables_number	1
_symmetry_cell_setting	triclinic
loop_
_symmetry_equiv_pos_as_xyz
  x,y,z
_cell_length_a	16.625548
_cell_length_b	13.032721
_cell_length_c	16.625539
_cell_angle_alpha	82.844953
_cell_angle_beta	90.017055
_cell_angle_gamma	97.205603
loop_
_atom_site_label
_atom_site_type_symbol
_atom_site_fract_x
_atom_site_fract_y
_atom_site_fract_z
Zn1	Zn	1.191890	-0.416032	0.496666
Zn2	Zn	1.174679	-0.590793	0.378954
Zn3	Zn	1.057057	-0.416066	0.361850
Zn4	Zn	1.039905	-0.590739	0.513738
O5	O	1.115883	-0.503407	0.437802
O6	O	1.302439	-0.439223	0.481064
O7	O	1.159051	-0.567652	0.263856
O8	O	1.089324	-0.269821	0.365431
O9	O	1.289794	-0.567619	0.394582
O10	O	1.188386	-0.269796	0.464479
O11	O	1.072635	-0.439281	0.251290
O12	O	0.941950	-0.439228	0.381985
O13	O	1.060091	-0.567527	0.624302
O14	O	0.929349	-0.567560	0.493577
O15	O	1.171754	-0.439170	0.611759
O16	O	1.142420	-0.737026	0.411136
O17	O	1.043402	-0.736986	0.510162
C18	C	1.089204	-0.774925	0.464375
C19	C	1.077864	-0.891081	0.475770
C20	C	0.906394	-0.503393	0.437778
C21	C	0.816771	-0.503411	0.437789
C22	C	1.121844	-0.942852	0.431891
C23	C	1.110125	-1.062905	0.443667
C24	C	0.488594	-0.503418	0.437824
C25	C	0.579903	-0.503413	0.437812
C26	C	0.652679	-0.503415	0.437806
C27	C	0.743994	-0.503409	0.437795
C28	C	1.326190	-0.503423	0.437827
C29	C	1.415811	-0.503430	0.437837
C30	C	1.115929	-0.503338	0.648104
C31	C	1.115949	-0.503309	0.737722
C32	C	1.142688	-0.230830	0.411143
C33	C	1.154111	-0.114674	0.399782
C34	C	1.115891	-0.503401	0.228310
C35	C	1.116056	-0.503136	0.138664
C36	C	1.115964	-0.503286	0.810503
C37	C	1.115987	-0.503247	0.901807
C38	C	1.116010	-0.503210	0.974580
C39	C	1.116033	-0.503173	1.065891
H40	H	1.063796	-1.107457	0.489958
N41	N	1.215490	-1.055675	0.338472
H42	H	1.215165	-0.978276	0.338749
H43	H	1.201127	-1.074759	0.282733
N44	N	1.016488	-0.950090	0.537074
H45	H	0.988747	-0.899047	0.564738
H46	H	1.044900	-0.995311	0.578825
N47	N	1.183221	-0.883847	0.370585
H48	H	1.182894	-0.806448	0.370865
H49	H	1.168859	-0.902929	0.314846
