data_functionalizedCrystal
_audit_creation_method	'MofGen! by Chris Wilmer'
_symmetry_space_group_name_H-M	'P1'
_symmetry_Int_Tables_number	1
_symmetry_cell_setting	triclinic
loop_
_symmetry_equiv_pos_as_xyz
  x,y,z
_cell_length_a	19.188930
_cell_length_b	14.044190
_cell_length_c	12.503552
_cell_angle_alpha	86.163821
_cell_angle_beta	93.525087
_cell_angle_gamma	88.168277
loop_
_atom_site_label
_atom_site_type_symbol
_atom_site_fract_x
_atom_site_fract_y
_atom_site_fract_z
O1	O	0.937485	0.112791	0.089682
O2	O	1.187485	0.362791	0.339682
O3	O	1.437485	0.612791	0.589682
O4	O	1.687485	0.862791	0.839682
O5	O	0.735199	0.128722	0.089610
O6	O	0.985199	0.378722	0.339610
O7	O	1.235199	0.628722	0.589610
O8	O	1.485199	0.878722	0.839610
O9	O	0.833302	-0.017214	0.089624
O10	O	1.083302	0.232786	0.339624
O11	O	1.333302	0.482786	0.589624
O12	O	1.583302	0.732786	0.839624
O13	O	0.839382	0.258728	0.089668
O14	O	1.089382	0.508728	0.339668
O15	O	1.339382	0.758728	0.589668
O16	O	1.589382	1.008728	0.839668
O17	O	0.825915	-0.006229	-0.089020
O18	O	1.075915	0.243771	0.160980
O19	O	1.325915	0.493771	0.410980
O20	O	1.575915	0.743771	0.660980
O21	O	0.727812	0.139707	-0.089033
O22	O	0.977812	0.389707	0.160967
O23	O	1.227812	0.639707	0.410967
O24	O	1.477812	0.889707	0.660967
O25	O	0.930098	0.123776	-0.088962
O26	O	1.180098	0.373776	0.161038
O27	O	1.430098	0.623776	0.411038
O28	O	1.680098	0.873776	0.661038
Cu29	Cu	0.828281	0.132745	-0.105309
Cu30	Cu	1.078281	0.382745	0.144691
Cu31	Cu	1.328281	0.632745	0.394691
Cu32	Cu	1.578281	0.882745	0.644691
Cu33	Cu	0.837016	0.119754	0.105958
Cu34	Cu	1.087016	0.369754	0.355958
Cu35	Cu	1.337016	0.619754	0.605958
Cu36	Cu	1.587016	0.869754	0.855958
O37	O	0.831995	0.269713	-0.088975
O38	O	1.081995	0.519713	0.161025
O39	O	1.331995	0.769713	0.411025
O40	O	1.581995	1.019713	0.661025
C41	C	0.826950	-0.047025	0.000298
C42	C	1.076950	0.202975	0.250298
C43	C	1.326950	0.452975	0.500298
C44	C	1.576950	0.702975	0.750298
C45	C	0.819018	-0.152217	0.000286
C46	C	1.069018	0.097783	0.250286
C47	C	1.319018	0.347783	0.500286
C48	C	1.569018	0.597783	0.750286
C49	C	0.705461	0.133699	0.000279
C50	C	0.955461	0.383699	0.250279
C51	C	1.205461	0.633699	0.500279
C52	C	1.455461	0.883699	0.750279
C53	C	0.627855	0.132153	0.000250
C54	C	0.877855	0.382153	0.250250
C55	C	1.127855	0.632153	0.500250
C56	C	1.377855	0.882153	0.750250
C57	C	0.860769	-0.402680	0.000343
C58	C	1.110769	-0.152680	0.250343
C59	C	1.360769	0.097320	0.500343
C60	C	1.610769	0.347320	0.750343
C61	C	0.804532	-0.344816	0.000315
C62	C	1.054532	-0.094816	0.250315
C63	C	1.304532	0.155184	0.500315
C64	C	1.554532	0.405184	0.750315
C65	C	0.812594	-0.237644	0.000299
C66	C	1.062594	0.012356	0.250299
C67	C	1.312594	0.262356	0.500299
C68	C	1.562594	0.512356	0.750299
C69	C	0.852707	-0.509862	0.000359
C70	C	1.102707	-0.259862	0.250359
C71	C	1.352707	-0.009862	0.500359
C72	C	1.602707	0.240138	0.750359
C73	C	0.588460	0.217781	0.000281
C74	C	0.838460	0.467781	0.250281
C75	C	1.088460	0.717781	0.500281
C76	C	1.338460	0.967781	0.750281
C77	C	0.515543	0.216326	0.000293
C78	C	0.765543	0.466326	0.250293
C79	C	1.015543	0.716326	0.500293
C80	C	1.265543	0.966326	0.750293
C81	C	0.482024	0.129236	0.000295
C82	C	0.732024	0.379236	0.250295
C83	C	0.982024	0.629236	0.500295
C84	C	1.232024	0.879236	0.750295
C85	C	0.521429	0.043597	0.000258
C86	C	0.771429	0.293597	0.250258
C87	C	1.021429	0.543597	0.500258
C88	C	1.271429	0.793597	0.750258
C89	C	0.594344	0.045056	0.000236
C90	C	0.844344	0.295056	0.250236
C91	C	1.094344	0.545056	0.500236
C92	C	1.344344	0.795056	0.750236
N93	N	0.372263	0.058927	0.061128
N94	N	0.622263	0.308927	0.311128
N95	N	0.872263	0.558927	0.561128
N96	N	1.122263	0.808927	0.811128
N97	N	0.302996	0.057547	0.061151
N98	N	0.552996	0.307547	0.311151
N99	N	0.802996	0.557547	0.561151
N100	N	1.052996	0.807547	0.811151
C101	C	0.262335	0.124837	0.000360
C102	C	0.512335	0.374837	0.250360
C103	C	0.762335	0.624837	0.500360
C104	C	1.012335	0.874837	0.750360
N105	N	0.293557	0.193573	-0.060442
N106	N	0.543557	0.443573	0.189558
N107	N	0.793557	0.693573	0.439558
N108	N	1.043557	0.943573	0.689558
N109	N	0.362830	0.194955	-0.060461
N110	N	0.612830	0.444955	0.189539
N111	N	0.862830	0.694955	0.439539
N112	N	1.112830	0.944955	0.689539
C113	C	0.402960	0.127645	0.000319
C114	C	0.652960	0.377645	0.250319
C115	C	0.902960	0.627645	0.500319
C116	C	1.152960	0.877645	0.750319
C117	C	0.143874	0.208894	0.000402
C118	C	0.393874	0.458894	0.250402
C119	C	0.643874	0.708894	0.500402
C120	C	0.893874	0.958894	0.750402
C121	C	0.070955	0.207435	0.000407
C122	C	0.320955	0.457435	0.250407
C123	C	0.570955	0.707435	0.500407
C124	C	0.820955	0.957435	0.750407
C125	C	0.076844	0.034703	0.000383
C126	C	0.326844	0.284703	0.250383
C127	C	0.576844	0.534703	0.500383
C128	C	0.826844	0.784703	0.750383
C129	C	0.149760	0.036165	0.000368
C130	C	0.399760	0.286165	0.250368
C131	C	0.649760	0.536165	0.500368
C132	C	0.899760	0.786165	0.750368
C133	C	0.183271	0.123262	0.000382
C134	C	0.433271	0.373262	0.250382
C135	C	0.683271	0.623262	0.500382
C136	C	0.933271	0.873262	0.750382
C137	C	0.959836	0.118799	0.000372
C138	C	1.209836	0.368799	0.250372
C139	C	1.459836	0.618799	0.500372
C140	C	1.709836	0.868799	0.750372
C141	C	1.037442	0.120345	0.000407
C142	C	1.287442	0.370345	0.250407
C143	C	1.537442	0.620345	0.500407
C144	C	1.787442	0.870345	0.750407
C145	C	0.838347	0.299523	0.000353
C146	C	1.088347	0.549523	0.250353
C147	C	1.338347	0.799523	0.500353
C148	C	1.588347	1.049523	0.750353
C149	C	0.846279	0.404715	0.000372
C150	C	1.096279	0.654715	0.250372
C151	C	1.346279	0.904715	0.500372
C152	C	1.596279	1.154715	0.750372
N153	N	0.822142	0.141881	-0.253903
N154	N	1.072142	0.391881	-0.003903
N155	N	1.322142	0.641881	0.246097
N156	N	1.572142	0.891881	0.496097
C157	C	0.852187	0.097167	-0.526332
C158	C	1.102187	0.347167	-0.276332
C159	C	1.352187	0.597167	-0.026332
C160	C	1.602187	0.847167	0.223668
C161	C	0.813117	0.155321	-0.473013
C162	C	1.063117	0.405321	-0.223013
C163	C	1.313117	0.655321	0.026987
C164	C	1.563117	0.905321	0.276987
C165	C	0.818139	0.147841	-0.351089
C166	C	1.068139	0.397841	-0.101089
C167	C	1.318139	0.647841	0.148911
C168	C	1.568139	0.897841	0.398911
C169	C	0.847165	0.104645	-0.648267
C170	C	1.097165	0.354645	-0.398267
C171	C	1.347165	0.604645	-0.148267
C172	C	1.597165	0.854645	0.101733
N173	N	0.843160	0.110610	0.254551
N174	N	1.093160	0.360610	0.504551
N175	N	1.343160	0.610610	0.754551
N176	N	1.593160	0.860610	1.004551
H177	H	0.750331	-0.375766	0.000302
H178	H	1.000331	-0.125766	0.250302
H179	H	1.250331	0.124234	0.500302
H180	H	1.500331	0.374234	0.750302
H181	H	0.889407	0.041766	-0.480416
H182	H	1.139407	0.291766	-0.230416
H183	H	1.389407	0.541766	0.019584
H184	H	1.639407	0.791766	0.269584
Br185	Br	0.751079	0.247669	-0.549547
Br186	Br	1.001079	0.497669	-0.299547
Br187	Br	1.251079	0.747669	-0.049547
Br188	Br	1.501079	0.997669	0.200453
H189	H	0.914965	-0.371732	0.000351
H190	H	1.164965	-0.121732	0.250351
H191	H	1.414965	0.128268	0.500351
H192	H	1.664965	0.378268	0.750351
Br193	Br	0.017488	0.323656	0.000439
Br194	Br	0.267488	0.573656	0.250439
Br195	Br	0.517488	0.823656	0.500439
Br196	Br	0.767488	1.073656	0.750439
H197	H	0.615740	0.288703	0.000295
H198	H	0.865740	0.538703	0.250295
H199	H	1.115740	0.788703	0.500295
H200	H	1.365740	1.038703	0.750295
H201	H	0.483460	0.286057	0.000315
H202	H	0.733460	0.536057	0.250315
H203	H	0.983460	0.786057	0.500315
H204	H	1.233460	1.036057	0.750315
H205	H	0.171160	0.279815	0.000398
H206	H	0.421160	0.529815	0.250398
H207	H	0.671160	0.779815	0.500398
H208	H	0.921160	1.029815	0.750398
Br209	Br	0.475942	-0.074596	0.000251
Br210	Br	0.725942	0.175404	0.250251
Br211	Br	0.975942	0.425404	0.500251
Br212	Br	1.225942	0.675404	0.750251
H213	H	0.049557	-0.036211	0.000452
H214	H	0.299557	0.213789	0.250452
H215	H	0.549557	0.463789	0.500452
H216	H	0.799557	0.713789	0.750452
Br217	Br	0.647813	-0.071163	0.000192
Br218	Br	0.897813	0.178837	0.250192
Br219	Br	1.147813	0.428837	0.500192
Br220	Br	1.397813	0.678837	0.750192
Br221	Br	0.203229	-0.080052	0.000329
Br222	Br	0.453229	0.169948	0.250329
Br223	Br	0.703229	0.419948	0.500329
Br224	Br	0.953229	0.669948	0.750329
