data_functionalizedCrystal
_audit_creation_method	'MofGen! by Chris Wilmer'
_symmetry_space_group_name_H-M	'P1'
_symmetry_Int_Tables_number	1
_symmetry_cell_setting	triclinic
loop_
_symmetry_equiv_pos_as_xyz
  x,y,z
_cell_length_a	29.839134
_cell_length_b	29.839131
_cell_length_c	15.296720
_cell_angle_alpha	80.362437
_cell_angle_beta	80.349372
_cell_angle_gamma	90.034165
loop_
_atom_site_label
_atom_site_type_symbol
_atom_site_fract_x
_atom_site_fract_y
_atom_site_fract_z
Zn1	Zn	0.642730	-0.222905	0.510311
Zn2	Zn	1.142730	0.277095	1.010311
Zn3	Zn	0.655666	-0.285039	0.359458
Zn4	Zn	1.155666	0.214961	0.859458
Zn5	Zn	0.580617	-0.209914	0.359451
Zn6	Zn	1.080617	0.290086	0.859451
Zn7	Zn	0.567568	-0.297991	0.510221
Zn8	Zn	1.067568	0.202009	1.010221
O9	O	0.611645	-0.253962	0.434860
O10	O	1.111645	0.246038	0.934860
O11	O	0.707310	-0.231163	0.490340
O12	O	1.207310	0.268837	0.990340
O13	O	0.656585	-0.264216	0.233227
O14	O	1.156585	0.235784	0.733227
O15	O	0.588904	-0.148773	0.379498
O16	O	1.088904	0.351227	0.879498
O17	O	0.716814	-0.276813	0.379509
O18	O	1.216814	0.223187	0.879509
O19	O	0.634538	-0.158317	0.490334
O20	O	1.134538	0.341683	0.990334
O21	O	0.601447	-0.209022	0.233222
O22	O	1.101447	0.290978	0.733222
O23	O	0.516023	-0.221581	0.379411
O24	O	1.016023	0.278419	0.879411
O25	O	0.566664	-0.298888	0.636463
O26	O	1.066664	0.201112	1.136463
O27	O	0.506436	-0.286291	0.490181
O28	O	1.006436	0.213709	0.990181
O29	O	0.621885	-0.243722	0.636529
O30	O	1.121885	0.256278	1.136529
O31	O	0.643932	-0.349621	0.379422
O32	O	1.143932	0.150379	0.879422
O33	O	0.579207	-0.359137	0.490187
O34	O	1.079207	0.140863	0.990187
C35	C	0.494929	-0.253932	0.434786
C36	C	0.994929	0.246068	0.934786
C37	C	0.444996	-0.253932	0.434775
C38	C	0.944996	0.246068	0.934775
C39	C	0.093370	-0.220235	0.377300
C40	C	0.593370	0.279765	0.877300
C41	C	0.281048	-0.220218	0.377245
C42	C	0.781048	0.279782	0.877245
O43	O	0.309539	-0.191522	0.328294
O44	O	0.809539	0.308478	0.828294
N45	N	0.299547	-0.253944	0.434820
N46	N	0.799547	0.246056	0.934820
C47	C	0.271122	-0.287674	0.492418
C48	C	0.771122	0.212326	0.992418
O49	O	0.291162	-0.316357	0.541394
O50	O	0.791162	0.183643	1.041394
C51	C	0.083445	-0.287689	0.492476
C52	C	0.583445	0.212311	0.992476
C53	C	0.064950	-0.253964	0.434891
C54	C	0.564950	0.246036	0.934891
C55	C	0.074875	-0.186513	0.319720
C56	C	0.574875	0.313487	0.819720
C57	C	0.027958	-0.186519	0.319731
C58	C	0.527958	0.313481	0.819731
C59	C	-0.000462	-0.220248	0.377322
C60	C	0.499538	0.279752	0.877322
C61	C	0.018033	-0.253970	0.434902
C62	C	0.518033	0.246030	0.934902
C63	C	0.055021	-0.321418	0.550077
C64	C	0.555021	0.178582	1.050077
C65	C	0.008099	-0.321418	0.550088
C66	C	0.508099	0.178582	1.050088
C67	C	-0.010396	-0.287693	0.492503
C68	C	0.489604	0.212307	0.992503
C69	C	-0.057304	-0.287705	0.492503
C70	C	0.442696	0.212295	0.992503
N71	N	-0.075802	-0.253980	0.434928
N72	N	0.424198	0.246020	0.934928
C73	C	-0.047381	-0.220251	0.377337
C74	C	0.452619	0.279749	0.877337
C75	C	0.369656	-0.287664	0.492382
C76	C	0.869656	0.212336	0.992382
C77	C	0.416575	-0.287661	0.492366
C78	C	0.916575	0.212339	0.992366
C79	C	0.426498	-0.220204	0.377195
C80	C	0.926498	0.279796	0.877195
C81	C	0.379578	-0.220210	0.377206
C82	C	0.879578	0.279790	0.877206
C83	C	0.351157	-0.253939	0.434806
C84	C	0.851157	0.246061	0.934806
C85	C	-0.145910	-0.220266	0.377364
C86	C	0.354090	0.279734	0.877364
C87	C	-0.192830	-0.220277	0.377377
C88	C	0.307170	0.279723	0.877377
C89	C	-0.202749	-0.287732	0.492551
C90	C	0.297251	0.212268	0.992551
C91	C	-0.155833	-0.287723	0.492535
C92	C	0.344167	0.212277	0.992535
C93	C	-0.127414	-0.253987	0.434938
C94	C	0.372586	0.246013	0.934938
O95	O	-0.085822	-0.316383	0.541436
O96	O	0.414178	0.183617	1.041436
O97	O	-0.067431	-0.191567	0.328382
O98	O	0.432569	0.308433	0.828382
C99	C	0.140287	-0.220229	0.377289
C100	C	0.640287	0.279771	0.877289
C101	C	0.158782	-0.253952	0.434869
C102	C	0.658782	0.246048	0.934869
C103	C	0.130362	-0.287681	0.492460
C104	C	0.630362	0.212319	0.992460
C105	C	0.205702	-0.253949	0.434854
C106	C	0.705702	0.246051	0.934854
C107	C	0.234122	-0.220220	0.377263
C108	C	0.734122	0.279780	0.877263
C109	C	0.215624	-0.186494	0.319688
C110	C	0.715624	0.313506	0.819688
C111	C	0.168708	-0.186500	0.319699
C112	C	0.668708	0.313500	0.819699
C113	C	0.148860	-0.321406	0.550035
C114	C	0.648860	0.178594	1.050035
C115	C	0.195777	-0.321398	0.550019
C116	C	0.695777	0.178602	1.050019
C117	C	0.224198	-0.287669	0.492428
C118	C	0.724198	0.212331	0.992428
C119	C	0.611568	-0.370681	0.434815
C120	C	1.111568	0.129319	0.934815
C121	C	0.611574	-0.420616	0.434827
C122	C	1.111574	0.079384	0.934827
C123	C	0.645393	-0.725302	0.377269
C124	C	1.145393	-0.225302	0.877269
C125	C	0.645445	-0.912978	0.377304
C126	C	1.145445	-0.412978	0.877304
O127	O	0.674138	-0.933025	0.328333
O128	O	1.174138	-0.433025	0.828333
N129	N	0.611733	-0.941410	0.434928
N130	N	1.111733	-0.441410	0.934928
C131	C	0.578006	-0.922921	0.492552
C132	C	1.078006	-0.422921	0.992552
O133	O	0.549336	-0.951411	0.541572
O134	O	1.049336	-0.451411	1.041572
C135	C	0.577956	-0.735246	0.492521
C136	C	1.077956	-0.235246	0.992521
C137	C	0.611668	-0.706816	0.434886
C138	C	1.111668	-0.206816	0.934886
C139	C	0.679102	-0.696872	0.319640
C140	C	1.179102	-0.196872	0.819640
C141	C	0.679087	-0.649956	0.319629
C142	C	1.179087	-0.149956	0.819629
C143	C	0.645363	-0.631469	0.377246
C144	C	1.145363	-0.131469	0.877246
C145	C	0.611653	-0.659899	0.434875
C146	C	1.111653	-0.159899	0.934875
C147	C	0.544232	-0.716758	0.550148
C148	C	1.044232	-0.216758	1.050148
C149	C	0.544224	-0.669836	0.550137
C150	C	1.044224	-0.169836	1.050137
C151	C	0.577935	-0.641405	0.492503
C152	C	1.077935	-0.141405	0.992503
C153	C	0.577914	-0.594496	0.492480
C154	C	1.077914	-0.094496	0.992480
N155	N	0.611627	-0.566064	0.434856
N156	N	1.111627	-0.066064	0.934856
C157	C	0.645351	-0.584551	0.377239
C158	C	1.145351	-0.084551	0.877239
C159	C	0.578035	-1.021452	0.492563
C160	C	1.078035	-0.521452	0.992563
C161	C	0.578047	-1.068371	0.492570
C162	C	1.078047	-0.568371	0.992570
C163	C	0.645486	-1.058425	0.377323
C164	C	1.145486	-0.558425	0.877323
C165	C	0.645472	-1.011506	0.377312
C166	C	1.145472	-0.511506	0.877312
C167	C	0.611747	-0.993020	0.434939
C168	C	1.111747	-0.493020	0.934939
C169	C	0.645317	-0.486023	0.377218
C170	C	1.145317	0.013977	0.877218
C171	C	0.645298	-0.439103	0.377209
C172	C	1.145298	0.060897	0.877209
C173	C	0.577860	-0.449053	0.492459
C174	C	1.077860	0.050947	0.992459
C175	C	0.577878	-0.495969	0.492465
C176	C	1.077878	0.004031	0.992465
C177	C	0.611610	-0.514453	0.434842
C178	C	1.111610	-0.014453	0.934842
O179	O	0.549239	-0.574419	0.541434
O180	O	1.049239	-0.074419	1.041434
O181	O	0.674023	-0.556055	0.328240
O182	O	1.174023	-0.056055	0.828240
C183	C	0.645407	-0.772219	0.377281
C184	C	1.145407	-0.272219	0.877281
C185	C	0.611698	-0.800649	0.434910
C186	C	1.111698	-0.300649	0.934910
C187	C	0.577974	-0.782162	0.492527
C188	C	1.077974	-0.282162	0.992527
C189	C	0.611710	-0.847567	0.434917
C190	C	1.111710	-0.347567	0.934917
C191	C	0.645434	-0.866054	0.377299
C192	C	1.145434	-0.366054	0.877299
C193	C	0.679147	-0.837622	0.319675
C194	C	1.179147	-0.337622	0.819675
C195	C	0.679132	-0.790705	0.319664
C196	C	1.179132	-0.290705	0.819664
C197	C	0.544261	-0.810594	0.550151
C198	C	1.044261	-0.310594	1.050151
C199	C	0.544279	-0.857510	0.550157
C200	C	1.044279	-0.357510	1.050157
C201	C	0.578003	-0.875996	0.492540
C202	C	1.078003	-0.375996	0.992540
C203	C	0.728817	-0.253992	0.434936
C204	C	1.228817	0.246008	0.934936
C205	C	0.778749	-0.254005	0.434968
C206	C	1.278749	0.245995	0.934968
C207	C	0.591376	-0.274199	0.670141
C208	C	1.091376	0.225801	1.170141
C209	C	0.582738	-0.282823	0.770404
C210	C	1.082738	0.217177	1.270404
C211	C	0.611733	-0.136789	0.434925
C212	C	1.111733	0.363211	0.934925
C213	C	0.611771	-0.086857	0.434953
C214	C	1.111771	0.413143	0.934953
C215	C	0.631862	-0.233772	0.200495
C216	C	1.131862	0.266228	0.700495
C217	C	0.640586	-0.225021	0.100232
C218	C	1.140586	0.274979	0.600232
C219	C	0.673397	-0.192248	1.053166
C220	C	1.173397	0.307752	1.553166
C221	C	0.681515	-0.184146	0.958964
C222	C	1.181515	0.315854	1.458964
C223	C	0.656821	-0.208815	0.911819
C224	C	1.156821	0.291185	1.411819
C225	C	0.624008	-0.241586	0.958886
C226	C	1.124008	0.258414	1.458886
C227	C	0.615892	-0.249691	1.053097
C228	C	1.115892	0.250309	1.553097
C229	C	0.599316	-0.266258	0.911751
C230	C	1.099316	0.233742	1.411751
C231	C	0.566503	-0.299030	0.958817
C232	C	1.066503	0.200970	1.458817
C233	C	0.558388	-0.307133	1.053019
C234	C	1.058388	0.192867	1.553019
C235	C	0.583082	-0.282465	1.100163
C236	C	1.083082	0.217535	1.600163
C237	C	0.607433	-0.258153	0.817539
C238	C	1.107433	0.241847	1.317539
C239	C	0.549928	-0.315596	0.817471
C240	C	1.049928	0.184404	1.317471
C241	C	0.541810	-0.323698	0.911672
C242	C	1.041810	0.176302	1.411672
H243	H	0.098011	-0.159044	0.272823
H244	H	0.598011	0.340956	0.772823
H245	H	0.550401	-0.433993	0.539368
H246	H	1.050401	0.066007	1.039368
H247	H	0.663433	-0.202216	0.835116
H248	H	1.163433	0.297784	1.335116
H249	H	0.706583	-0.767560	0.272733
H250	H	1.206583	-0.267560	0.772733
H251	H	0.576473	-0.289059	1.176870
H252	H	1.076473	0.210941	1.676870
H253	H	0.706539	-0.626811	0.272701
H254	H	1.206539	-0.126811	0.772701
H255	H	0.693501	-0.172169	1.091560
H256	H	1.193501	0.327831	1.591560
H257	H	0.672786	-0.501067	0.330298
H258	H	1.172786	-0.001067	0.830298
C259	C	-0.213173	-0.183176	0.314035
C260	C	0.286827	0.316824	0.814035
H261	H	-0.189524	-0.163085	0.279743
H262	H	0.310476	0.336915	0.779743
H263	H	-0.228102	-0.196945	0.274672
H264	H	0.271898	0.303055	0.774672
H265	H	-0.234436	-0.166602	0.348622
H266	H	0.265564	0.333398	0.848622
H267	H	-0.225898	-0.315194	0.539437
H268	H	0.274102	0.184806	1.039437
C269	C	0.540795	-0.527243	0.555859
C270	C	1.040795	-0.027243	1.055859
H271	H	0.520710	-0.509511	0.590175
H272	H	1.020710	-0.009511	1.090175
H273	H	0.524216	-0.542604	0.521322
H274	H	1.024216	-0.042604	1.021322
H275	H	0.554587	-0.548902	0.595212
H276	H	1.054587	-0.048902	1.095212
C277	C	0.716200	-0.717200	0.256251
C278	C	1.216200	-0.217200	0.756251
H279	H	0.736269	-0.693542	0.221929
H280	H	1.236269	-0.193542	0.721929
H281	H	0.732794	-0.738452	0.290790
H282	H	1.232794	-0.238452	0.790790
H283	H	0.702422	-0.732137	0.216904
H284	H	1.202422	-0.232137	0.716904
C285	C	0.522763	-0.342731	0.765622
C286	C	1.022763	0.157269	1.265622
H287	H	0.532292	-0.333208	0.702776
H288	H	1.032292	0.166792	1.202776
H289	H	0.527983	-0.374245	0.781043
H290	H	1.027983	0.125755	1.281043
H291	H	0.491253	-0.337473	0.781045
H292	H	0.991253	0.162527	1.281045
H293	H	-0.122776	-0.192793	0.330467
H294	H	0.377224	0.307207	0.830467
C295	C	0.007619	-0.149416	0.256397
C296	C	0.507619	0.350584	0.756397
H297	H	0.031270	-0.129328	0.222108
H298	H	0.531270	0.370672	0.722108
H299	H	-0.007312	-0.163181	0.217031
H300	H	0.492688	0.336819	0.717031
H301	H	-0.013642	-0.132841	0.290986
H302	H	0.486358	0.367159	0.790986
H303	H	0.634149	-0.231469	0.779227
H304	H	1.134149	0.268531	1.279227
H305	H	0.550571	-1.006406	0.539491
H306	H	1.050571	-0.506406	1.039491
C307	C	0.359237	-0.183109	0.313871
C308	C	0.859237	0.316891	0.813871
H309	H	0.382887	-0.163022	0.279577
H310	H	0.882887	0.336978	0.779577
H311	H	0.344304	-0.196877	0.274510
H312	H	0.844304	0.303123	0.774510
H313	H	0.337977	-0.166533	0.348460
H314	H	0.837977	0.333467	0.848460
H315	H	0.672923	-0.988360	0.330382
H316	H	1.172923	-0.488360	0.830382
H317	H	0.449646	-0.192741	0.330301
H318	H	0.949646	0.307259	0.830301
C319	C	0.540961	-1.099638	0.555962
C320	C	1.040961	-0.599638	1.055962
H321	H	0.520879	-1.081905	0.590279
H322	H	1.020879	-0.581905	1.090279
H323	H	0.524380	-1.114995	0.521421
H324	H	1.024380	-0.614995	1.021421
H325	H	0.554749	-1.121302	0.595313
H326	H	1.054749	-0.621302	1.095313
H327	H	0.153654	-0.159038	0.272807
H328	H	0.653654	0.340962	0.772807
H329	H	0.708232	-0.157465	0.920649
H330	H	1.208232	0.342535	1.420649
C331	C	0.216120	-0.358503	0.613351
C332	C	0.716120	0.141497	1.113351
H333	H	0.248134	-0.353676	0.605096
H334	H	0.748134	0.146324	1.105096
H335	H	0.203223	-0.357194	0.673986
H336	H	0.703223	0.142806	1.173986
H337	H	0.209556	-0.387532	0.600028
H338	H	0.709556	0.112468	1.100028
C339	C	0.682581	-1.078766	0.313943
C340	C	1.182581	-0.578766	0.813943
H341	H	0.677758	-1.110781	0.322210
H342	H	1.177758	-0.610781	0.822210
H343	H	0.681254	-1.065880	0.253317
H344	H	1.181254	-0.565880	0.753317
H345	H	0.711617	-1.072194	0.327219
H346	H	1.211617	-0.572194	0.827219
C347	C	0.246892	-0.149392	0.256343
C348	C	0.746892	0.350608	0.756343
H349	H	0.277483	-0.154220	0.264595
H350	H	0.777483	0.345780	0.764595
H351	H	0.244414	-0.150702	0.195710
H352	H	0.744414	0.349298	0.695710
H353	H	0.238076	-0.120362	0.269665
H354	H	0.738076	0.379638	0.769665
H355	H	0.431630	-0.315128	0.539248
H356	H	0.931630	0.184872	1.039248
H357	H	0.531673	-0.333822	1.091338
H358	H	1.031673	0.166178	1.591338
H359	H	0.706605	-0.852681	0.272759
H360	H	1.206605	-0.352681	0.772759
C361	C	0.505721	-0.359748	0.963452
C362	C	1.005721	0.140252	1.463452
H363	H	0.504428	-0.361043	1.026308
H364	H	1.004428	0.138957	1.526308
H365	H	0.476872	-0.351840	0.948000
H366	H	0.976872	0.148160	1.448000
H367	H	0.513606	-0.388607	0.948001
H368	H	1.013606	0.111393	1.448001
C369	C	0.075354	-0.358513	0.613430
C370	C	0.575354	0.141487	1.113430
H371	H	0.051701	-0.378594	0.647735
H372	H	0.551701	0.121406	1.147735
H373	H	0.096619	-0.375092	0.578865
H374	H	0.596619	0.124908	1.078865
H375	H	0.090281	-0.344737	0.652795
H376	H	0.590281	0.155263	1.152795
C377	C	-0.023165	-0.358507	0.613484
C378	C	0.476835	0.141493	1.113484
H379	H	-0.005427	-0.378586	0.647780
H380	H	0.494573	0.121414	1.147780
H381	H	-0.044832	-0.344722	0.652841
H382	H	0.455168	0.155278	1.152841
H383	H	-0.038517	-0.375096	0.578944
H384	H	0.461483	0.124904	1.078944
C385	C	-0.135486	-0.324821	0.555872
C386	C	0.364514	0.175179	1.055872
H387	H	-0.159135	-0.344909	0.590174
H388	H	0.340865	0.155091	1.090174
H389	H	-0.114219	-0.341394	0.521298
H390	H	0.385781	0.158606	1.021298
H391	H	-0.120562	-0.311045	0.595239
H392	H	0.379438	0.188955	1.095239
C393	C	0.682384	-0.407832	0.313813
C394	C	1.182384	0.092168	0.813813
H395	H	0.702473	-0.425566	0.279509
H396	H	1.202473	0.074434	0.779509
H397	H	0.668601	-0.386168	0.274464
H398	H	1.168601	0.113832	0.774464
H399	H	0.698964	-0.392478	0.348366
H400	H	1.198964	0.107522	0.848366
C401	C	0.338400	-0.324777	0.555725
C402	C	0.838400	0.175223	1.055725
H403	H	0.356142	-0.344864	0.589996
H404	H	0.856142	0.155136	1.089996
H405	H	0.316719	-0.311022	0.595107
H406	H	0.816719	0.188978	1.095107
H407	H	0.323064	-0.341352	0.521135
H408	H	0.823064	0.158648	1.021135
H409	H	0.125724	-0.348873	0.596934
H410	H	0.625724	0.151127	1.096934
H411	H	0.516779	-0.739898	0.597076
H412	H	1.016779	-0.239898	1.097076
H413	H	0.516761	-0.654788	0.597066
H414	H	1.016761	-0.154788	1.097066
C415	C	0.507194	-0.888778	0.613561
C416	C	1.007194	-0.388778	1.113561
H417	H	0.487111	-0.871045	0.647878
H418	H	0.987111	-0.371045	1.147878
H419	H	0.490612	-0.904138	0.579027
H420	H	0.990612	-0.404138	1.079027
H421	H	0.520984	-0.910439	0.652913
H422	H	1.020984	-0.410439	1.152913
H423	H	0.516799	-0.795546	0.597071
H424	H	1.016799	-0.295546	1.097071
