data_functionalizedCrystal
_audit_creation_method	'MofGen! by Chris Wilmer'
_symmetry_space_group_name_H-M	'P1'
_symmetry_Int_Tables_number	1
_symmetry_cell_setting	triclinic
loop_
_symmetry_equiv_pos_as_xyz
  x,y,z
_cell_length_a	11.792241
_cell_length_b	11.792241
_cell_length_c	10.868271
_cell_angle_alpha	89.999850
_cell_angle_beta	89.996558
_cell_angle_gamma	84.193415
loop_
_atom_site_label
_atom_site_type_symbol
_atom_site_fract_x
_atom_site_fract_y
_atom_site_fract_z
O1	O	1.506908	0.155568	-0.102283
O2	O	1.756908	0.405568	0.147717
O3	O	2.006908	0.655568	0.397717
O4	O	2.256908	0.905568	0.647717
O5	O	1.176567	0.171601	-0.102290
O6	O	1.426567	0.421601	0.147710
O7	O	1.676567	0.671601	0.397710
O8	O	1.926567	0.921601	0.647710
O9	O	1.349754	-0.001586	-0.102294
O10	O	1.599754	0.248414	0.147706
O11	O	1.849754	0.498414	0.397706
O12	O	2.099754	0.748414	0.647706
O13	O	1.333721	0.328755	-0.102279
O14	O	1.583721	0.578755	0.147721
O15	O	1.833721	0.828755	0.397721
O16	O	2.083721	1.078755	0.647721
O17	O	1.349740	-0.001592	0.102351
O18	O	1.599740	0.248408	0.352351
O19	O	1.849740	0.498408	0.602351
O20	O	2.099740	0.748408	0.852351
O21	O	1.176553	0.171595	0.102355
O22	O	1.426553	0.421595	0.352355
O23	O	1.676553	0.671595	0.602355
O24	O	1.926553	0.921595	0.852355
O25	O	1.506894	0.155562	0.102361
O26	O	1.756894	0.405562	0.352361
O27	O	2.006894	0.655562	0.602361
O28	O	2.256894	0.905562	0.852361
Zn29	Zn	1.341721	0.163577	0.134850
Zn30	Zn	1.591721	0.413577	0.384850
Zn31	Zn	1.841721	0.663577	0.634850
Zn32	Zn	2.091721	0.913577	0.884850
Zn33	Zn	1.341740	0.163586	-0.134778
Zn34	Zn	1.591740	0.413586	0.115222
Zn35	Zn	1.841740	0.663586	0.365222
Zn36	Zn	2.091740	0.913586	0.615222
O37	O	1.333707	0.328749	0.102365
O38	O	1.583707	0.578749	0.352365
O39	O	1.833707	0.828749	0.602365
O40	O	2.083707	1.078749	0.852365
C41	C	1.134269	0.170591	0.000032
C42	C	1.384269	0.420591	0.250032
C43	C	1.634269	0.670591	0.500032
C44	C	1.884269	0.920591	0.750032
C45	C	1.008255	0.167576	0.000029
C46	C	1.258255	0.417576	0.250029
C47	C	1.508255	0.667576	0.500029
C48	C	1.758255	0.917576	0.750029
N49	N	1.341717	0.163570	0.318864
N50	N	1.591717	0.413570	0.568864
N51	N	1.841717	0.663570	0.818864
N52	N	2.091717	0.913570	1.068864
C53	C	1.348740	-0.043880	0.000024
C54	C	1.598740	0.206120	0.250024
C55	C	1.848740	0.456120	0.500024
C56	C	2.098740	0.706120	0.750024
C57	C	1.345726	-0.169894	0.000011
C58	C	1.595726	0.080106	0.250011
C59	C	1.845726	0.330106	0.500011
C60	C	2.095726	0.580106	0.750011
C61	C	1.549192	0.156572	0.000037
C62	C	1.799192	0.406572	0.250037
C63	C	2.049192	0.656572	0.500037
C64	C	2.299192	0.906572	0.750037
C65	C	1.675206	0.159587	0.000032
C66	C	1.925206	0.409587	0.250032
C67	C	2.175206	0.659587	0.500032
C68	C	2.425206	0.909587	0.750032
C69	C	1.905918	0.165130	0.000033
C70	C	2.155918	0.415130	0.250033
C71	C	2.405918	0.665130	0.500033
C72	C	2.655918	0.915130	0.750033
C73	C	1.777533	0.162050	0.000033
C74	C	2.027533	0.412050	0.250033
C75	C	2.277533	0.662050	0.500033
C76	C	2.527533	0.912050	0.750033
C77	C	1.334721	0.371043	0.000045
C78	C	1.584721	0.621043	0.250045
C79	C	1.834721	0.871043	0.500045
C80	C	2.084721	1.121043	0.750045
C81	C	1.337736	0.497057	0.000050
C82	C	1.587736	0.747057	0.250050
C83	C	1.837736	0.997057	0.500050
C84	C	2.087736	1.247057	0.750050
C85	C	1.343279	0.727769	0.000019
C86	C	1.593279	0.977769	0.250019
C87	C	1.843279	1.227769	0.500019
C88	C	2.093279	1.477769	0.750019
C89	C	1.340199	0.599384	0.000036
C90	C	1.590199	0.849384	0.250036
C91	C	1.840199	1.099384	0.500036
C92	C	2.090199	1.349384	0.750036
N93	N	1.341754	0.163584	-0.318792
N94	N	1.591754	0.413584	-0.068792
N95	N	1.841754	0.663584	0.181208
N96	N	2.091754	0.913584	0.431208
C97	C	1.341734	0.163584	0.569870
C98	C	1.591734	0.413584	0.819870
C99	C	1.841734	0.663584	1.069870
C100	C	2.091734	0.913584	1.319870
C101	C	1.341721	0.163580	0.430193
C102	C	1.591721	0.413580	0.680193
C103	C	1.841721	0.663580	0.930193
C104	C	2.091721	0.913580	1.180193
