data_functionalizedCrystal
_audit_creation_method	'MofGen! by Chris Wilmer'
_symmetry_space_group_name_H-M	'P1'
_symmetry_Int_Tables_number	1
_symmetry_cell_setting	triclinic
loop_
_symmetry_equiv_pos_as_xyz
  x,y,z
_cell_length_a	14.853567
_cell_length_b	10.654550
_cell_length_c	9.130313
_cell_angle_alpha	90.003780
_cell_angle_beta	90.002541
_cell_angle_gamma	95.940083
loop_
_atom_site_label
_atom_site_type_symbol
_atom_site_fract_x
_atom_site_fract_y
_atom_site_fract_z
O1	O	0.126622	-1.666519	-0.121906
O2	O	0.138686	-1.300915	-0.121881
O3	O	0.001476	-1.493483	-0.121899
O4	O	0.263831	-1.473951	-0.121889
O5	O	0.001480	-1.493480	0.121700
O6	O	0.138690	-1.300912	0.121717
O7	O	0.126626	-1.666516	0.121693
Cu8	Cu	0.132658	-1.483714	0.143948
Cu9	Cu	0.132654	-1.483717	-0.144136
O10	O	0.263835	-1.473948	0.121710
C11	C	0.137802	-1.254125	-0.000079
C12	C	0.135152	-1.114709	-0.000070
N13	N	0.132661	-1.483721	0.346570
C14	C	-0.032115	-1.492596	-0.000104
C15	C	-0.132213	-1.489944	-0.000116
C16	C	-0.545419	-1.364344	-0.000080
C17	C	-0.565475	-1.593119	-0.000095
C18	C	-0.471428	-1.595613	-0.000104
C19	C	-0.414372	-1.482470	-0.000099
C20	C	-0.451363	-1.366834	-0.000084
C21	C	-0.434430	-1.711247	-0.000104
C22	C	-0.340378	-1.713745	-0.000111
C23	C	-0.283320	-1.600601	-0.000116
C24	C	-0.320316	-1.484961	-0.000103
C25	C	-0.263260	-1.371818	-0.000097
C26	C	-0.300254	-1.256176	-0.000095
C27	C	-0.394305	-1.253691	-0.000089
C28	C	-0.189269	-1.603087	-0.000122
C29	C	-0.169204	-1.374308	-0.000102
C30	C	0.297427	-1.474835	-0.000088
C31	C	0.397525	-1.477487	-0.000085
C32	C	0.127510	-1.713306	-0.000113
C33	C	0.130160	-1.852722	-0.000131
C34	C	0.215939	-1.034384	-0.000088
C35	C	0.213443	-0.903389	-0.000114
C36	C	0.049367	-0.933057	-0.000109
C37	C	0.051863	-1.064050	-0.000073
C38	C	0.299227	-1.085044	-0.000085
C39	C	0.380021	-1.004717	-0.000105
C40	C	0.377525	-0.873722	-0.000131
C41	C	0.294236	-0.823054	-0.000136
N42	N	0.132644	-1.483720	-0.346759
C43	C	0.071925	-1.569012	0.423214
C44	C	0.071914	-1.569009	0.576551
C45	C	0.193382	-1.398420	0.576586
C46	C	0.193388	-1.398418	0.423252
C47	C	0.011197	-1.654315	0.346533
C48	C	-0.049542	-1.739614	0.423177
C49	C	-0.049553	-1.739610	0.576514
C50	C	0.011176	-1.654308	0.653206
H51	H	-0.122754	-1.282173	-0.000104
Cl52	Cl	0.011150	-1.654300	0.845975
Cl53	Cl	-0.125917	-1.846830	0.672865
Cl54	Cl	0.302370	-1.249721	-0.000061
Cl55	Cl	0.484720	-1.068414	-0.000082
H56	H	-0.310265	-1.807907	-0.000115
Cl57	Cl	-0.637203	-1.735347	-0.000078
H58	H	0.443311	-0.808324	-0.000132
Cl59	Cl	0.269725	-1.291195	0.672999
Cl60	Cl	0.291102	-0.658372	-0.000147
Cl61	Cl	-0.055332	-0.869357	-0.000124
H62	H	-0.253787	-1.164056	-0.000080
Cl63	Cl	-0.440819	-1.108326	-0.000090
Cl64	Cl	-0.591924	-1.218973	-0.000091
H65	H	0.242844	-1.328965	0.360848
Cl66	Cl	-0.142765	-1.748452	-0.000097
H67	H	-0.013920	-1.129453	-0.000062
Cl68	Cl	0.011211	-1.654328	0.153767
Cl69	Cl	-0.125891	-1.846833	0.326768
H70	H	-0.480892	-1.803361	-0.000095
