data_functionalizedCrystal
_audit_creation_method	'MofGen! by Chris Wilmer'
_symmetry_space_group_name_H-M	'P1'
_symmetry_Int_Tables_number	1
_symmetry_cell_setting	triclinic
loop_
_symmetry_equiv_pos_as_xyz
  x,y,z
_cell_length_a	14.628931
_cell_length_b	14.560438
_cell_length_c	14.560438
_cell_angle_alpha	60.000905
_cell_angle_beta	90.000974
_cell_angle_gamma	59.999690
loop_
_atom_site_label
_atom_site_type_symbol
_atom_site_fract_x
_atom_site_fract_y
_atom_site_fract_z
Zr1	Zr	0.880618	1.005274	-0.120506
O2	O	0.734654	1.196878	-0.267151
O3	O	0.925364	0.813673	-0.075554
O4	O	0.925359	1.005277	-0.267154
O5	O	0.734662	1.005271	0.075590
O6	O	1.075791	1.005276	-0.267154
O7	O	0.734658	1.005274	-0.075550
O8	O	1.075799	0.662532	0.075584
O9	O	0.734654	1.348016	-0.267148
O10	O	1.056713	0.892480	-0.056379
O11	O	0.944450	0.892479	0.056415
O12	O	0.944445	1.118067	-0.169170
O13	O	0.832182	1.118066	-0.056375
Zr14	Zr	1.120546	1.005269	0.120547
Zr15	Zr	1.120540	1.005274	-0.120506
Zr16	Zr	0.880624	1.005270	0.120546
Zr17	Zr	0.880618	1.246322	-0.120501
Zr18	Zr	1.120545	0.764222	0.120542
O19	O	1.075800	1.196871	0.075594
O20	O	1.075792	1.196877	-0.267151
O21	O	0.734662	1.196872	0.075594
O22	O	1.266510	0.813666	0.267192
O23	O	1.266502	0.813672	-0.075553
O24	O	0.925372	0.813667	0.267191
O25	O	1.266502	1.005272	-0.075550
O26	O	1.075805	1.005267	0.267195
O27	O	0.925373	1.005268	0.267195
O28	O	1.266506	1.005270	0.075591
O29	O	0.925360	1.348015	-0.267148
O30	O	1.075804	0.662528	0.267189
O31	O	1.266510	0.662528	0.267189
O32	O	1.266505	0.662531	0.075585
O33	O	0.734659	1.348013	-0.075544
O34	O	0.925365	1.348012	-0.075544
O35	O	1.056719	0.892476	0.169210
O36	O	1.168982	0.892478	0.056416
O37	O	1.056714	1.118065	-0.056375
O38	O	0.944451	1.118064	0.056420
C39	C	1.000581	0.703758	0.000015
C40	C	1.000581	0.601427	0.000013
C41	C	1.059179	0.553352	-0.058865
C42	C	1.059183	0.457192	-0.058854
C43	C	0.941983	0.457196	0.058913
C44	C	0.941986	0.553347	0.058908
C45	C	0.700476	1.005273	0.000020
C46	C	0.598623	1.005273	0.000020
C47	C	0.608906	0.893367	0.055971
C48	C	0.503637	0.893364	0.055973
C49	C	1.300688	1.005271	0.000021
C50	C	1.402541	1.005271	0.000021
C51	C	1.000574	1.005277	-0.301499
C52	C	1.000572	1.005279	-0.403832
C53	C	1.000582	1.306786	0.000026
C54	C	1.000583	1.409117	0.000028
C55	C	0.941970	1.123031	-0.510784
C56	C	0.941983	1.123025	-0.606933
C57	C	1.059201	0.887504	-0.489164
C58	C	1.059194	0.887511	-0.393018
C59	C	1.000590	1.005267	0.301540
C60	C	1.000592	1.005265	0.403873
C61	C	1.300687	0.703757	0.000015
C62	C	1.402540	0.601426	0.000013
C63	C	1.000589	0.703753	0.301534
C64	C	1.000591	0.601420	0.403865
C65	C	1.300695	0.703752	0.301535
C66	C	1.402550	0.601419	0.403866
C67	C	0.700469	1.306792	-0.301494
C68	C	0.598614	1.409125	-0.403825
C69	C	0.700477	1.306787	0.000026
C70	C	0.598624	1.409118	0.000027
C71	C	1.000575	1.306791	-0.301493
C72	C	1.000572	1.409123	-0.403824
C73	C	1.391790	0.553349	-0.058863
C74	C	1.487496	0.457206	-0.058868
C75	C	1.604697	0.457221	0.058887
C76	C	1.508993	0.553369	0.058886
C77	C	1.059194	0.553341	0.510818
C78	C	1.059184	0.457198	0.606965
C79	C	0.941966	0.457217	0.489192
C80	C	0.941970	0.553365	0.393048
C81	C	1.509002	0.553341	0.393067
C82	C	1.604702	0.457197	0.489221
C83	C	1.487485	0.457213	0.606971
C84	C	1.391787	0.553362	0.510818
H85	H	1.106900	0.418051	-0.106796
C86	C	0.877528	0.606233	0.123682
C87	C	0.877540	0.711987	0.123684
C88	C	0.813093	0.764867	0.188461
C89	C	0.748632	0.711993	0.253236
C90	C	0.748617	0.606233	0.253237
C91	C	0.813065	0.553353	0.188460
H92	H	0.925260	0.751133	0.075731
H93	H	0.813104	0.843158	0.188460
H94	H	0.700924	0.751138	0.301188
H95	H	0.700898	0.567088	0.301190
H96	H	0.813054	0.475063	0.188461
H97	H	1.305116	0.592486	-0.106812
C98	C	1.475670	0.404314	-0.123626
C99	C	1.358576	0.457177	-0.188379
C100	C	1.346747	0.404286	-0.253140
C101	C	1.452013	0.298531	-0.253148
C102	C	1.569115	0.245662	-0.188392
C103	C	1.580944	0.298553	-0.123632
H104	H	1.280645	0.535469	-0.188375
H105	H	1.260059	0.443424	-0.301076
H106	H	1.443256	0.259378	-0.301087
H107	H	1.647047	0.167370	-0.188396
H108	H	1.667632	0.259415	-0.075696
H109	H	1.691380	0.418079	0.106821
H110	H	1.106903	0.418057	0.694048
C111	C	1.520838	0.606215	0.275420
C112	C	1.637938	0.553332	0.263546
C113	C	1.649779	0.606206	0.145901
C114	C	1.544521	0.711963	0.040130
C115	C	1.427413	0.764853	0.052001
C116	C	1.415572	0.711979	0.169646
H117	H	1.715864	0.475038	0.341847
H118	H	1.736471	0.567053	0.137114
H119	H	1.553287	0.751104	-0.046958
H120	H	1.349487	0.843146	-0.026300
H121	H	1.328880	0.751132	0.178433
H122	H	0.894276	0.418039	0.106862
C123	C	1.123666	0.606212	0.522714
C124	C	1.188122	0.553327	0.640365
C125	C	1.252592	0.606199	0.652266
C126	C	1.252605	0.711956	0.546516
C127	C	1.188146	0.764847	0.428857
C128	C	1.123676	0.711975	0.416956
H129	H	1.188114	0.475035	0.718655
H130	H	1.300308	0.567045	0.739366
H131	H	1.300329	0.751095	0.555326
H132	H	1.188153	0.843140	0.350567
H133	H	1.075960	0.751129	0.329856
H134	H	0.511885	1.101078	-0.047879
H135	H	0.894243	0.592515	0.305956
H136	H	1.106893	0.592494	-0.106819
H137	H	0.695644	0.797561	0.103878
H138	H	0.512267	0.797557	0.103867
H139	H	0.393903	1.101083	-0.047889
H140	H	1.106920	0.791618	-0.305927
H141	H	0.894240	0.418078	0.480399
H142	H	0.894236	1.218925	-0.519595
H143	H	0.894265	1.218910	-0.694014
H144	H	1.106928	0.791622	-0.480373
H145	H	1.691378	0.418056	0.480421
H146	H	1.517754	0.592517	0.106829
H147	H	1.478735	0.418071	0.694061
H148	H	1.305103	0.592511	0.519619
