data_functionalizedCrystal
_audit_creation_method	'MofGen! by Chris Wilmer'
_symmetry_space_group_name_H-M	'P1'
_symmetry_Int_Tables_number	1
_symmetry_cell_setting	triclinic
loop_
_symmetry_equiv_pos_as_xyz
  x,y,z
_cell_length_a	21.295419
_cell_length_b	21.295417
_cell_length_c	21.295411
_cell_angle_alpha	89.979403
_cell_angle_beta	89.975461
_cell_angle_gamma	90.044503
loop_
_atom_site_label
_atom_site_type_symbol
_atom_site_fract_x
_atom_site_fract_y
_atom_site_fract_z
Zn1	Zn	0.962359	-0.250432	-0.355916
Zn2	Zn	1.462359	0.249568	0.144084
Zn3	Zn	0.962263	-0.355684	-0.250643
Zn4	Zn	1.462263	0.144316	0.249357
Zn5	Zn	0.857082	-0.250460	-0.250661
Zn6	Zn	1.357082	0.249540	0.249339
Zn7	Zn	0.857053	-0.355695	-0.355875
Zn8	Zn	1.357053	0.144305	0.144125
O9	O	0.909689	-0.303068	-0.303274
O10	O	1.409689	0.196932	0.196726
O11	O	1.050436	-0.264378	-0.341961
O12	O	1.550436	0.235622	0.158039
O13	O	0.948282	-0.341733	-0.162556
O14	O	1.448282	0.158267	0.337444
O15	O	0.871100	-0.162367	-0.264648
O16	O	1.371100	0.337633	0.235352
O17	O	1.050365	-0.341706	-0.264617
O18	O	1.550365	0.158294	0.235383
O19	O	0.948446	-0.162347	-0.341978
O20	O	1.448446	0.337653	0.158022
O21	O	0.871007	-0.264425	-0.162569
O22	O	1.371007	0.235575	0.337431
O23	O	0.768989	-0.264436	-0.264608
O24	O	1.268989	0.235564	0.235392
O25	O	0.871050	-0.341724	-0.443970
O26	O	1.371050	0.158276	0.056030
O27	O	0.768968	-0.341751	-0.341908
O28	O	1.268968	0.158249	0.158092
O29	O	0.948418	-0.264388	-0.444000
O30	O	1.448418	0.235612	0.056000
O31	O	0.948254	-0.443775	-0.264578
O32	O	1.448254	0.056225	0.235422
O33	O	0.870957	-0.443783	-0.341891
O34	O	1.370957	0.056217	0.158109
C35	C	0.746138	-0.303098	-0.303256
C36	C	1.246138	0.196902	0.196744
C37	C	0.676170	-0.303126	-0.303263
C38	C	1.176170	0.196874	0.196737
C39	C	0.643362	-0.262927	-0.343598
C40	C	1.143362	0.237073	0.156402
C41	C	0.577620	-0.262910	-0.343601
C42	C	1.077620	0.237090	0.156399
C43	C	0.544687	-0.303104	-0.303275
C44	C	1.044687	0.196896	0.196725
C45	C	0.577502	-0.343305	-0.262932
C46	C	1.077502	0.156695	0.237068
C47	C	0.643244	-0.343317	-0.262926
C48	C	1.143244	0.156683	0.237074
N49	N	0.441412	-0.358181	-0.298356
N50	N	0.941412	0.141819	0.201644
N51	N	0.378961	-0.358168	-0.298365
N52	N	0.878961	0.141832	0.201635
C53	C	0.346612	-0.303071	-0.303289
C54	C	0.846612	0.196929	0.196711
N55	N	0.379074	-0.247985	-0.308215
N56	N	0.879074	0.252015	0.191785
N57	N	0.441532	-0.247999	-0.308209
N58	N	0.941532	0.252001	0.191791
C59	C	0.473402	-0.303095	-0.303276
C60	C	0.973402	0.196905	0.196724
C61	C	0.242519	-0.262850	-0.343628
C62	C	0.742519	0.237150	0.156372
C63	C	0.176776	-0.262832	-0.343626
C64	C	0.676776	0.237168	0.156374
C65	C	0.176660	-0.343233	-0.262961
C66	C	0.676660	0.156767	0.237039
C67	C	0.242402	-0.343245	-0.262960
C68	C	0.742402	0.156755	0.237040
C69	C	0.275328	-0.303055	-0.303297
C70	C	0.775328	0.196945	0.196703
C71	C	0.909609	-0.466619	-0.303242
C72	C	1.409609	0.033381	0.196758
C73	C	0.909632	-0.536588	-0.303249
C74	C	1.409632	-0.036588	0.196751
C75	C	0.949884	-0.569386	-0.343544
C76	C	1.449884	-0.069386	0.156456
C77	C	0.949906	-0.635129	-0.343559
C78	C	1.449906	-0.135129	0.156441
C79	C	0.909683	-0.668070	-0.303269
C80	C	1.409683	-0.168070	0.196731
C81	C	0.869424	-0.635263	-0.262971
C82	C	1.369424	-0.135263	0.237029
C83	C	0.869399	-0.569522	-0.262962
C84	C	1.369399	-0.069522	0.237038
N85	N	0.904924	-0.771324	-0.248178
N86	N	1.404924	-0.271324	0.251822
N87	N	0.904952	-0.833775	-0.248189
N88	N	1.404952	-0.333775	0.251811
C89	C	0.909757	-0.866145	-0.303297
C90	C	1.409757	-0.366145	0.196703
N91	N	0.914545	-0.833704	-0.358395
N92	N	1.414545	-0.333704	0.141605
N93	N	0.914521	-0.771247	-0.358383
N94	N	1.414521	-0.271247	0.141617
C95	C	0.909706	-0.739355	-0.303276
C96	C	1.409706	-0.239355	0.196724
C97	C	0.950034	-0.970229	-0.343612
C98	C	1.450034	-0.470229	0.156388
C99	C	0.950052	-1.035973	-0.343629
C100	C	1.450052	-0.535973	0.156371
C101	C	0.869574	-1.036106	-0.263035
C102	C	1.369574	-0.536106	0.236965
C103	C	0.869553	-0.970363	-0.263024
C104	C	1.369553	-0.470363	0.236976
C105	C	0.909786	-0.937429	-0.303312
C106	C	1.409786	-0.437429	0.196688
C107	C	1.073880	-0.303038	-0.303292
C108	C	1.573880	0.196962	0.196708
C109	C	1.143848	-0.303025	-0.303299
C110	C	1.643848	0.196975	0.196701
C111	C	0.909742	-0.303055	-0.467464
C112	C	1.409742	0.196945	0.032536
C113	C	0.909764	-0.303049	-0.537432
C114	C	1.409764	0.196951	-0.037432
C115	C	0.909787	-0.138878	-0.303319
C116	C	1.409787	0.361122	0.196681
C117	C	0.909829	-0.068909	-0.303339
C118	C	1.409829	0.431091	0.196661
C119	C	0.950048	-0.262778	-0.570315
C120	C	1.450048	0.237222	-0.070315
C121	C	0.950047	-0.262751	-0.636058
C122	C	1.450047	0.237249	-0.136058
C123	C	0.909769	-0.303006	-0.668915
C124	C	1.409769	0.196994	-0.168915
C125	C	0.869477	-0.343279	-0.636023
C126	C	1.369477	0.156721	-0.136023
C127	C	0.869475	-0.343301	-0.570282
C128	C	1.369475	0.156699	-0.070282
N129	N	0.904913	-0.358075	-0.772131
N130	N	1.404913	0.141925	-0.272131
N131	N	0.904919	-0.358052	-0.834582
N132	N	1.404919	0.141948	-0.334582
C133	C	0.909773	-0.302942	-0.866989
C134	C	1.409773	0.197058	-0.366989
N135	N	0.914633	-0.247853	-0.834586
N136	N	1.414633	0.252147	-0.334586
N137	N	0.914630	-0.247876	-0.772128
N138	N	1.414630	0.252124	-0.272128
C139	C	0.909767	-0.302986	-0.740200
C140	C	1.409767	0.197014	-0.240200
C141	C	0.950058	-0.262638	-0.971158
C142	C	1.450058	0.237362	-0.471158
C143	C	0.950052	-0.262610	-1.036902
C144	C	1.450052	0.237390	-0.536902
C145	C	0.869486	-0.343143	-1.036866
C146	C	1.369486	0.156857	-0.536866
C147	C	0.869488	-0.343166	-0.971124
C148	C	1.369488	0.156834	-0.471124
C149	C	0.909777	-0.302914	-0.938274
C150	C	1.409777	0.197086	-0.438274
C151	C	0.909674	-0.303036	-0.139722
C152	C	1.409674	0.196964	0.360278
C153	C	0.909773	-0.302864	-0.069754
C154	C	1.409773	0.197136	0.430246
H155	H	0.150065	-0.230094	-0.376471
H156	H	0.650065	0.269906	0.123529
C157	C	0.542022	-0.219347	-0.387504
C158	C	1.042022	0.280653	0.112496
C159	C	0.558020	-0.233168	-0.449759
C160	C	1.058020	0.266832	0.050241
C161	C	0.525235	-0.193058	-0.490221
C162	C	1.025235	0.306942	0.009779
H163	H	0.552799	-0.177014	-0.378460
H164	H	1.052799	0.322986	0.121540
H165	H	0.498147	-0.225105	-0.381773
H166	H	0.998147	0.274895	0.118227
H167	H	0.601885	-0.227404	-0.455488
H168	H	1.101885	0.272596	0.044512
H169	H	0.547241	-0.275493	-0.458823
H170	H	1.047241	0.224507	0.041177
H171	H	0.481361	-0.198816	-0.484490
H172	H	0.981361	0.301184	0.015510
H173	H	0.536015	-0.150728	-0.481171
H174	H	1.036015	0.349272	0.018829
H175	H	0.536081	-0.202434	-0.532466
H176	H	1.036081	0.297566	-0.032466
C177	C	0.825857	-0.386932	-0.935339
C178	C	1.325857	0.113068	-0.435339
C179	C	0.861474	-0.427275	-0.897598
C180	C	1.361474	0.072725	-0.397598
C181	C	0.821299	-0.467596	-0.864618
C182	C	1.321299	0.032404	-0.364618
H183	H	0.801855	-0.410963	-0.964250
H184	H	1.301855	0.089037	-0.464250
H185	H	0.798452	-0.362883	-0.909646
H186	H	1.298452	0.137117	-0.409646
H187	H	0.888868	-0.451322	-0.923288
H188	H	1.388868	0.048678	-0.423288
H189	H	0.885475	-0.403262	-0.868675
H190	H	1.385475	0.096738	-0.368675
H191	H	0.793894	-0.443547	-0.838926
H192	H	1.293894	0.056453	-0.338926
H193	H	0.797298	-0.491623	-0.893534
H194	H	1.297298	0.008377	-0.393534
H195	H	0.845458	-0.494970	-0.839003
H196	H	1.345458	0.005030	-0.339003
C197	C	0.541637	-0.386922	-0.219219
C198	C	1.041637	0.113078	0.280781
C199	C	0.477041	-0.378322	-0.227870
C200	C	0.977041	0.121678	0.272130
C201	C	0.443983	-0.418496	-0.187615
C202	C	0.943983	0.081504	0.312385
H203	H	0.552320	-0.377689	-0.176914
H204	H	1.052320	0.122311	0.323086
H205	H	0.552341	-0.429246	-0.228359
H206	H	1.052341	0.070754	0.271641
H207	H	0.466341	-0.336007	-0.218725
H208	H	0.966341	0.163993	0.281275
H209	H	0.466339	-0.387560	-0.270167
H210	H	0.966339	0.112440	0.229833
H211	H	0.454687	-0.460820	-0.196755
H212	H	0.954687	0.039180	0.303245
H213	H	0.454671	-0.409259	-0.145312
H214	H	0.954671	0.090741	0.354688
H215	H	0.400151	-0.412670	-0.193483
H216	H	0.900151	0.087330	0.306517
C217	C	0.993705	-0.218958	-0.534694
C218	C	1.493705	0.281042	-0.034694
C219	C	0.980015	-0.156678	-0.550685
C220	C	1.480015	0.343322	-0.050685
C221	C	1.020212	-0.116288	-0.517879
C222	C	1.520212	0.383712	-0.017879
H223	H	1.036017	-0.228074	-0.545459
H224	H	1.536017	0.271926	-0.045459
H225	H	0.987936	-0.224685	-0.490822
H226	H	1.487936	0.275315	0.009178
H227	H	0.985790	-0.150953	-0.594546
H228	H	1.485790	0.349047	-0.094546
H229	H	0.937710	-0.147542	-0.539917
H230	H	1.437710	0.352458	-0.039917
H231	H	1.014443	-0.122015	-0.474008
H232	H	1.514443	0.377985	0.025992
H233	H	1.062522	-0.125409	-0.528648
H234	H	1.562522	0.374591	-0.028648
H235	H	1.010926	-0.074026	-0.528720
H236	H	1.510926	0.425974	-0.028720
H237	H	0.269329	-0.230121	-0.376469
H238	H	0.769329	0.269879	0.123531
C239	C	0.678754	-0.387036	-0.219111
C240	C	1.178754	0.112964	0.280889
C241	C	0.635845	-0.422243	-0.183803
C242	C	1.135845	0.077757	0.316197
C243	C	0.668535	-0.462532	-0.143442
C244	C	1.168535	0.037468	0.356558
H245	H	0.704413	-0.362991	-0.191671
H246	H	1.204413	0.137009	0.308329
H247	H	0.704369	-0.414538	-0.243127
H248	H	1.204369	0.085462	0.256873
H249	H	0.610241	-0.394745	-0.159789
H250	H	1.110241	0.105255	0.340211
H251	H	0.610184	-0.446301	-0.211227
H252	H	1.110184	0.053699	0.288773
H253	H	0.694151	-0.490034	-0.167458
H254	H	1.194151	0.009966	0.332542
H255	H	0.694194	-0.438482	-0.116006
H256	H	1.194194	0.061518	0.383994
H257	H	0.639427	-0.486429	-0.119485
H258	H	1.139427	0.013571	0.380515
C259	C	0.993816	-0.218863	-0.935601
C260	C	1.493816	0.281137	-0.435601
C261	C	1.029079	-0.183572	-0.978474
C262	C	1.529079	0.316428	-0.478474
C263	C	1.069389	-0.143234	-0.945744
C264	C	1.569389	0.356766	-0.445744
H265	H	1.021286	-0.242876	-0.909965
H266	H	1.521286	0.257124	-0.409965
H267	H	0.969764	-0.191417	-0.909958
H268	H	1.469764	0.308583	-0.409958
H269	H	1.053129	-0.211015	-1.004105
H270	H	1.553129	0.288985	-0.504105
H271	H	1.001626	-0.159546	-1.004112
H272	H	1.501626	0.340454	-0.504112
H273	H	1.045337	-0.115787	-0.920101
H274	H	1.545337	0.384213	-0.420101
H275	H	1.096855	-0.167252	-0.920108
H276	H	1.596855	0.332748	-0.420108
H277	H	1.093316	-0.119280	-0.974828
H278	H	1.593316	0.380720	-0.474828
H279	H	0.670166	-0.230200	-0.376443
H280	H	1.170166	0.269800	0.123557
H281	H	0.149847	-0.375959	-0.230127
H282	H	0.649847	0.124041	0.269873
H283	H	0.269114	-0.375982	-0.230117
H284	H	0.769114	0.124018	0.269883
C285	C	0.825880	-0.934635	-0.219338
C286	C	1.325880	-0.434635	0.280662
C287	C	0.834455	-0.870012	-0.227963
C288	C	1.334455	-0.370012	0.272037
C289	C	0.794224	-0.837080	-0.187736
C290	C	1.294224	-0.337080	0.312264
H291	H	0.835077	-0.945344	-0.177027
H292	H	1.335077	-0.445344	0.322973
H293	H	0.783570	-0.945417	-0.228520
H294	H	1.283570	-0.445417	0.271480
H295	H	0.876754	-0.859234	-0.218777
H296	H	1.376754	-0.359234	0.281223
H297	H	0.825253	-0.859285	-0.270266
H298	H	1.325253	-0.359285	0.229734
H299	H	0.751915	-0.847862	-0.196918
H300	H	1.251915	-0.347862	0.303082
H301	H	0.803425	-0.847794	-0.145428
H302	H	1.303425	-0.347794	0.354572
H303	H	0.800033	-0.793230	-0.193587
H304	H	1.300033	-0.293230	0.306413
H305	H	0.982642	-0.542573	-0.376350
H306	H	1.482642	-0.042573	0.123650
H307	H	0.982678	-0.661839	-0.376379
H308	H	1.482678	-0.161839	0.123621
H309	H	0.836674	-0.662088	-0.230168
H310	H	1.336674	-0.162088	0.269832
C311	C	0.825966	-1.071976	-0.219320
C312	C	1.325966	-0.571976	0.280680
C313	C	0.834610	-1.136570	-0.227944
C314	C	1.334610	-0.636570	0.272056
C315	C	0.794450	-1.169636	-0.187681
C316	C	1.294450	-0.669636	0.312319
H317	H	0.783638	-1.061318	-0.228455
H318	H	1.283638	-0.561318	0.271545
H319	H	0.835198	-1.061252	-0.177016
H320	H	1.335198	-0.561252	0.322984
H321	H	0.825374	-1.147289	-0.270238
H322	H	1.325374	-0.647289	0.229762
H323	H	0.876929	-1.147246	-0.218804
H324	H	1.376929	-0.647246	0.281196
H325	H	0.803682	-1.158912	-0.145377
H326	H	1.303682	-0.658912	0.354623
H327	H	0.752125	-1.158973	-0.196820
H328	H	1.252125	-0.658973	0.303180
H329	H	0.800314	-1.213466	-0.193523
H330	H	1.300314	-0.713466	0.306477
C331	C	0.993684	-0.218953	-0.671804
C332	C	1.493684	0.281047	-0.171804
C333	C	0.958073	-0.178587	-0.709525
C334	C	1.458073	0.321413	-0.209525
C335	C	0.998250	-0.138229	-0.742455
C336	C	1.498250	0.361771	-0.242455
H337	H	1.021107	-0.242954	-0.697509
H338	H	1.521107	0.257046	-0.197509
H339	H	1.017668	-0.194947	-0.642845
H340	H	1.517668	0.305053	-0.142845
H341	H	0.934100	-0.202591	-0.738481
H342	H	1.434100	0.297409	-0.238481
H343	H	0.930652	-0.154573	-0.683835
H344	H	1.430652	0.345427	-0.183835
H345	H	1.022233	-0.114222	-0.713496
H346	H	1.522233	0.385778	-0.213496
H347	H	1.025671	-0.162234	-0.768157
H348	H	1.525671	0.337766	-0.268157
H349	H	0.974093	-0.110832	-0.768048
H350	H	1.474093	0.389168	-0.268048
H351	H	0.836681	-0.376052	-0.662779
H352	H	1.336681	0.123948	-0.162779
C353	C	0.825596	-0.533988	-0.219244
C354	C	1.325596	-0.033988	0.280756
C355	C	0.763312	-0.550053	-0.232886
C356	C	1.263312	-0.050053	0.267114
C357	C	0.722945	-0.517337	-0.192620
C358	C	1.222945	-0.017337	0.307380
H359	H	0.831258	-0.490109	-0.224967
H360	H	1.331258	0.009891	0.275033
H361	H	0.834795	-0.544788	-0.176948
H362	H	1.334795	-0.044788	0.323052
H363	H	0.754117	-0.539249	-0.275172
H364	H	1.254117	-0.039249	0.224828
H365	H	0.757631	-0.593927	-0.227159
H366	H	1.257631	-0.093927	0.272841
H367	H	0.732144	-0.528137	-0.150324
H368	H	1.232144	-0.028137	0.349676
H369	H	0.728613	-0.473459	-0.198346
H370	H	1.228613	0.026541	0.301654
H371	H	0.680682	-0.528237	-0.201867
H372	H	1.180682	-0.028237	0.298133
H373	H	0.982793	-0.943413	-0.376419
H374	H	1.482793	-0.443413	0.123581
C375	C	0.993828	-1.071472	-0.387402
C376	C	1.493828	-0.571472	0.112598
C377	C	1.029068	-1.028555	-0.422666
C378	C	1.529068	-0.528555	0.077334
C379	C	1.069408	-1.061235	-0.462989
C380	C	1.569408	-0.561235	0.037011
H381	H	0.969819	-1.097134	-0.414872
H382	H	1.469819	-0.597134	0.085128
H383	H	1.021307	-1.097085	-0.363360
H384	H	1.521307	-0.597085	0.136640
H385	H	1.001592	-1.002953	-0.446706
H386	H	1.501592	-0.502953	0.053294
H387	H	1.053089	-1.002892	-0.395213
H388	H	1.553089	-0.502892	0.104787
H389	H	1.096887	-1.086848	-0.438947
H390	H	1.596887	-0.586848	0.061053
H391	H	1.045394	-1.086895	-0.490454
H392	H	1.545394	-0.586895	0.009546
H393	H	1.093327	-1.032121	-0.486916
H394	H	1.593327	-0.532121	0.013084
C395	C	0.825717	-0.387100	-0.534690
C396	C	1.325717	0.112900	-0.034690
C397	C	0.790451	-0.422359	-0.577531
C398	C	1.290451	0.077641	-0.077531
C399	C	0.750144	-0.462722	-0.544766
C400	C	1.250144	0.037278	-0.044766
H401	H	0.798248	-0.363106	-0.509028
H402	H	1.298248	0.136894	-0.009028
H403	H	0.849770	-0.414566	-0.509070
H404	H	1.349770	0.085434	-0.009070
H405	H	0.766400	-0.394897	-0.603140
H406	H	1.266400	0.105103	-0.103140
H407	H	0.817904	-0.446366	-0.603195
H408	H	1.317904	0.053634	-0.103195
H409	H	0.774196	-0.490187	-0.519146
H410	H	1.274196	0.009813	-0.019146
H411	H	0.722679	-0.438723	-0.519105
H412	H	1.222679	0.061277	-0.019105
H413	H	0.726215	-0.486654	-0.573829
H414	H	1.226215	0.013346	-0.073829
C415	C	0.993684	-0.218800	-1.072637
C416	C	1.493684	0.281200	-0.572637
C417	C	0.958065	-0.178431	-1.110347
C418	C	1.458065	0.321569	-0.610347
C419	C	0.998235	-0.138057	-1.143267
C420	C	1.498235	0.361943	-0.643267
H421	H	1.021110	-0.242790	-1.098348
H422	H	1.521110	0.257210	-0.598348
H423	H	1.017663	-0.194797	-1.043672
H424	H	1.517663	0.305203	-0.543672
H425	H	0.934096	-0.202432	-1.139309
H426	H	1.434096	0.297568	-0.639309
H427	H	0.930640	-0.154428	-1.084651
H428	H	1.430640	0.345572	-0.584651
H429	H	1.022214	-0.114054	-1.114302
H430	H	1.522214	0.385946	-0.614302
H431	H	1.025659	-0.162052	-1.168975
H432	H	1.525659	0.337948	-0.668975
H433	H	0.974073	-0.110658	-1.168853
H434	H	1.474073	0.389342	-0.668853
H435	H	0.836685	-0.375913	-1.063618
H436	H	1.336685	0.124087	-0.563618
