data_functionalizedCrystal
_audit_creation_method	'MofGen! by Chris Wilmer'
_symmetry_space_group_name_H-M	'P1'
_symmetry_Int_Tables_number	1
_symmetry_cell_setting	triclinic
loop_
_symmetry_equiv_pos_as_xyz
  x,y,z
_cell_length_a	23.532407
_cell_length_b	23.532407
_cell_length_c	13.330367
_cell_angle_alpha	89.990692
_cell_angle_beta	89.997789
_cell_angle_gamma	82.848678
loop_
_atom_site_label
_atom_site_type_symbol
_atom_site_fract_x
_atom_site_fract_y
_atom_site_fract_z
O1	O	0.755262	0.069134	-0.083308
O2	O	0.589399	0.079138	-0.083339
O3	O	0.677332	-0.008796	-0.083305
O4	O	0.667329	0.157068	-0.083343
O5	O	0.677319	-0.008798	0.083543
O6	O	0.589386	0.079136	0.083508
O7	O	0.755249	0.069133	0.083539
Cu8	Cu	0.672317	0.074134	0.098758
Cu9	Cu	0.672332	0.074136	-0.098558
O10	O	0.667316	0.157066	0.083504
C11	C	0.568176	0.078882	0.000081
C12	C	0.504959	0.078116	0.000070
C13	C	0.105856	0.125350	0.000104
C14	C	0.046456	0.124638	0.000110
O15	O	0.009711	0.168424	0.000137
N16	N	0.023830	0.072362	0.000121
C17	C	0.060607	0.020794	0.000135
O18	O	0.035908	-0.023737	0.000146
C19	C	0.120006	0.021506	0.000136
C20	C	0.142629	0.073785	0.000115
C21	C	0.128479	0.177625	0.000084
C22	C	0.187876	0.178336	0.000076
C23	C	0.224649	0.126772	0.000088
C24	C	0.202025	0.074496	0.000107
C25	C	0.156783	-0.030062	0.000158
C26	C	0.216185	-0.029345	0.000159
C27	C	0.238808	0.022934	0.000139
C28	C	0.298194	0.023643	0.000110
N29	N	0.320820	0.075920	0.000100
C30	C	0.284048	0.127484	0.000089
C31	C	-0.064135	0.019302	0.000135
C32	C	-0.123533	0.018589	0.000127
C33	C	-0.137680	0.122434	0.000104
C34	C	-0.078281	0.123146	0.000105
C35	C	-0.041509	0.071578	0.000125
C36	C	0.408784	0.128974	0.000071
C37	C	0.468186	0.129680	0.000058
C38	C	0.482329	0.025836	0.000087
C39	C	0.422932	0.025129	0.000094
C40	C	0.386160	0.076702	0.000089
O41	O	0.334974	-0.020119	0.000088
O42	O	0.308755	0.172007	0.000091
C43	C	0.677071	-0.030013	0.000122
C44	C	0.676305	-0.093230	0.000129
C45	C	0.723539	-0.492333	0.000083
C46	C	0.722827	-0.551733	0.000075
O47	O	0.766613	-0.588478	0.000046
N48	N	0.670551	-0.574359	0.000066
C49	C	0.618983	-0.537582	0.000055
O50	O	0.574452	-0.562281	0.000045
C51	C	0.619695	-0.478182	0.000055
C52	C	0.671974	-0.455560	0.000074
C53	C	0.775814	-0.469710	0.000101
C54	C	0.776525	-0.410313	0.000111
C55	C	0.724961	-0.373540	0.000102
C56	C	0.672685	-0.396164	0.000084
C57	C	0.568127	-0.441406	0.000037
C58	C	0.568844	-0.382004	0.000036
C59	C	0.621123	-0.359381	0.000056
C60	C	0.621832	-0.299995	0.000085
N61	N	0.674109	-0.277368	0.000094
C62	C	0.725673	-0.314141	0.000103
C63	C	0.617491	-0.662324	0.000052
C64	C	0.616778	-0.721722	0.000058
C65	C	0.720623	-0.735869	0.000077
C66	C	0.721335	-0.676470	0.000078
C67	C	0.669767	-0.639698	0.000061
C68	C	0.727163	-0.189405	0.000124
C69	C	0.727869	-0.130003	0.000138
C70	C	0.624025	-0.115860	0.000114
C71	C	0.623318	-0.175257	0.000105
C72	C	0.674891	-0.212029	0.000107
O73	O	0.578070	-0.263215	0.000110
O74	O	0.770196	-0.289433	0.000099
C75	C	0.776472	0.069388	0.000117
C76	C	0.839689	0.070154	0.000121
C77	C	0.667577	0.178283	0.000076
C78	C	0.668343	0.241500	0.000062
N79	N	0.672310	0.074132	0.237539
N80	N	0.672342	0.074134	-0.237340
C81	C	0.633393	0.113058	0.710147
C82	C	0.711285	0.035210	0.710146
C83	C	0.711279	0.035208	0.605127
C84	C	0.672330	0.074132	0.552614
C85	C	0.633387	0.113058	0.605119
C86	C	0.750225	-0.003713	0.552614
C87	C	0.750221	-0.003716	0.447590
C88	C	0.711268	0.035206	0.395074
C89	C	0.672323	0.074133	0.447586
C90	C	0.633374	0.113057	0.395072
C91	C	0.594426	0.151982	0.447582
C92	C	0.594434	0.151980	0.552603
C93	C	0.711260	0.035208	0.290053
C94	C	0.633367	0.113058	0.290044
H95	H	0.246123	-0.071339	0.000176
H96	H	0.781933	-0.035411	0.404843
H97	H	0.763906	-0.658056	0.000092
H98	H	0.742973	0.003518	0.247304
H99	H	0.817806	-0.499645	0.000104
H100	H	0.562724	0.183672	0.595363
H101	H	0.486602	0.172255	0.000041
H102	H	0.770443	-0.111587	0.000156
H103	H	0.378851	0.170970	0.000070
H104	H	0.762610	-0.765821	0.000080
H105	H	0.574207	-0.740136	0.000060
H106	H	0.206289	0.220908	0.000059
H107	H	0.601648	0.144753	0.247294
H108	H	0.138375	-0.072634	0.000175
H109	H	0.098544	0.219617	0.000079
H110	H	0.582043	-0.085909	0.000110
H111	H	0.404512	-0.017441	0.000096
H112	H	-0.059867	0.165717	0.000094
H113	H	-0.141947	-0.023982	0.000128
H114	H	0.562715	0.183677	0.404813
H115	H	0.769159	-0.219337	0.000121
H116	H	0.512280	-0.016146	0.000092
H117	H	0.819097	-0.391900	0.000122
H118	H	0.743000	0.003522	0.752905
H119	H	0.575496	-0.632386	0.000047
H120	H	-0.167632	0.164421	0.000100
H121	H	0.525555	-0.459814	0.000015
H122	H	0.526850	-0.352066	0.000021
H123	H	-0.034198	-0.022693	0.000142
H124	H	0.580748	-0.193677	0.000117
H125	H	0.601680	0.144748	0.752903
H126	H	0.781939	-0.035402	0.595374
