data_functionalizedCrystal
_audit_creation_method	'MofGen! by Chris Wilmer'
_symmetry_space_group_name_H-M	'P1'
_symmetry_Int_Tables_number	1
_symmetry_cell_setting	triclinic
loop_
_symmetry_equiv_pos_as_xyz
  x,y,z
_cell_length_a	17.699104
_cell_length_b	10.723023
_cell_length_c	16.776229
_cell_angle_alpha	89.994384
_cell_angle_beta	89.991971
_cell_angle_gamma	83.879533
loop_
_atom_site_label
_atom_site_type_symbol
_atom_site_fract_x
_atom_site_fract_y
_atom_site_fract_z
O1	O	1.005064	0.157921	-0.066303
O2	O	1.505064	0.657921	0.433697
O3	O	0.784817	0.178424	-0.066300
O4	O	1.284817	0.678424	0.433700
O5	O	0.900022	-0.013490	-0.066298
O6	O	1.400022	0.486510	0.433702
O7	O	0.889860	0.349835	-0.066305
O8	O	1.389860	0.849835	0.433695
O9	O	0.900006	-0.013502	0.066278
O10	O	1.400006	0.486498	0.566278
O11	O	0.784802	0.178412	0.066276
O12	O	1.284802	0.678412	0.566276
O13	O	1.005049	0.157909	0.066274
O14	O	1.505049	0.657909	0.566274
Zn15	Zn	0.894923	0.168159	0.087324
Zn16	Zn	1.394923	0.668159	0.587324
Zn17	Zn	0.894943	0.168174	-0.087351
Zn18	Zn	1.394943	0.668174	0.412649
O19	O	0.889845	0.349823	0.066272
O20	O	1.389845	0.849823	0.566272
C21	C	0.756608	0.177679	-0.000012
C22	C	1.256608	0.677679	0.499988
C23	C	0.672577	0.175461	-0.000011
C24	C	1.172577	0.675461	0.499989
C25	C	0.148338	0.275607	-0.000021
C26	C	0.648338	0.775607	0.499979
C27	C	0.227294	0.277683	-0.000024
C28	C	0.727294	0.777683	0.499976
C29	C	0.275202	0.165022	-0.000021
C30	C	0.775202	0.665022	0.499979
C31	C	0.244148	0.050278	-0.000025
C32	C	0.744148	0.550278	0.499975
C33	C	0.165193	0.048203	-0.000028
C34	C	0.665193	0.548203	0.499972
C35	C	0.562567	0.058641	-0.000012
C36	C	1.062567	0.558641	0.499988
C37	C	0.641527	0.060725	-0.000007
C38	C	1.141527	0.560725	0.499993
C39	C	0.624669	0.288121	-0.000008
C40	C	1.124669	0.788121	0.499992
C41	C	0.545713	0.286046	-0.000011
C42	C	1.045713	0.786046	0.499989
C43	C	0.514667	0.171303	-0.000019
C44	C	1.014667	0.671303	0.499981
C45	C	0.429053	0.169054	-0.000018
C46	C	0.929053	0.669054	0.499982
C47	C	0.360814	0.167270	-0.000017
C48	C	0.860814	0.667270	0.499983
C49	C	0.899274	-0.059983	-0.000011
C50	C	1.399274	0.440017	0.499989
C51	C	0.897062	-0.198500	-0.000013
C52	C	1.397062	0.301500	0.499987
C53	C	0.896084	-0.260243	-0.068693
C54	C	1.396084	0.239757	0.431307
C55	C	0.893798	-0.403407	-0.068697
C56	C	1.393798	0.096593	0.431303
C57	C	1.033258	0.158654	-0.000016
C58	C	1.533258	0.658654	0.499984
C59	C	1.117289	0.160871	-0.000022
C60	C	1.617289	0.660871	0.499978
C61	C	0.890592	0.396316	-0.000017
C62	C	1.390592	0.896316	0.499983
C63	C	0.892804	0.534833	-0.000020
C64	C	1.392804	1.034833	0.499980
N65	N	0.894915	0.168147	0.206536
N66	N	1.394915	0.668147	0.706536
N67	N	0.894958	0.168176	-0.206562
N68	N	1.394958	0.668176	0.293438
C69	C	0.945943	0.083203	0.248254
C70	C	1.445943	0.583203	0.748254
C71	C	0.945947	0.083201	0.331706
C72	C	1.445947	0.583201	0.831706
C73	C	0.894926	0.168152	0.373438
C74	C	1.394926	0.668152	0.873438
C75	C	0.843892	0.253101	0.331715
C76	C	1.343892	0.753101	0.831715
C77	C	0.843885	0.253095	0.248264
C78	C	1.343885	0.753095	0.748264
C79	C	0.843920	0.253125	0.668262
C80	C	1.343920	0.753125	1.168262
C81	C	0.843933	0.253127	0.751718
C82	C	1.343933	0.753127	1.251718
C83	C	0.945982	0.083232	0.751704
C84	C	1.445982	0.583232	1.251704
C85	C	0.945974	0.083226	0.668253
C86	C	1.445974	0.583226	1.168253
C87	C	0.894938	0.168170	0.626536
C88	C	1.394938	0.668170	1.126536
C89	C	0.894934	0.168168	0.536048
C90	C	1.394934	0.668168	1.036048
C91	C	0.894934	0.168161	0.463925
C92	C	1.394934	0.668161	0.963925
H93	H	0.537299	-0.034789	-0.000017
H94	H	1.037299	0.465211	0.499983
Br95	Br	0.892405	-0.491899	-0.166706
Br96	Br	1.392405	0.008101	0.333294
Br97	Br	0.309164	-0.102622	-0.000027
Br98	Br	0.809164	0.397378	0.499973
Br99	Br	1.015195	-0.032086	0.191625
Br100	Br	1.515195	0.467914	0.691625
Br101	Br	0.774660	0.368405	0.611651
Br102	Br	1.274660	0.868405	1.111651
H103	H	0.506710	0.377787	-0.000009
H104	H	1.006710	0.877787	0.499991
H105	H	0.987497	0.014032	0.365672
H106	H	1.487497	0.514032	0.865672
H107	H	0.139915	-0.045226	-0.000031
H108	H	0.639915	0.454774	0.499969
H109	H	0.896202	-0.251627	0.058783
H110	H	1.396202	0.248373	0.558783
Br111	Br	0.897527	-0.171709	-0.166697
Br112	Br	1.397527	0.328291	0.333303
Br113	Br	1.015223	-0.032060	0.611618
Br114	Br	1.515223	0.467940	1.111618
H115	H	0.109336	0.367349	-0.000017
H116	H	0.609336	0.867349	0.499983
Br117	Br	0.774642	0.368385	0.388349
Br118	Br	1.274642	0.868385	0.888349
H119	H	0.649956	0.381551	-0.000005
H120	H	1.149956	0.881551	0.499995
H121	H	0.252570	0.371111	-0.000030
H122	H	0.752570	0.871111	0.499970
Br123	Br	0.774624	0.368374	0.191646
Br124	Br	1.274624	0.868374	0.691646
Br125	Br	0.894215	-0.376687	0.097992
Br126	Br	1.394215	0.123313	0.597992
H127	H	0.987536	0.014062	0.785678
H128	H	1.487536	0.514062	1.285678
Br129	Br	0.706545	-0.092183	-0.000002
Br130	Br	1.206545	0.407817	0.499998
H131	H	0.802382	0.322307	0.785696
H132	H	1.302382	0.822307	1.285696
