data_functionalizedCrystal
_audit_creation_method	'MofGen! by Chris Wilmer'
_symmetry_space_group_name_H-M	'P1'
_symmetry_Int_Tables_number	1
_symmetry_cell_setting	triclinic
loop_
_symmetry_equiv_pos_as_xyz
  x,y,z
_cell_length_a	9.616153
_cell_length_b	11.792241
_cell_length_c	11.792254
_cell_angle_alpha	95.803993
_cell_angle_beta	90.002416
_cell_angle_gamma	89.997326
loop_
_atom_site_label
_atom_site_type_symbol
_atom_site_fract_x
_atom_site_fract_y
_atom_site_fract_z
O1	O	0.115511	-1.506920	0.155562
O2	O	0.615511	-1.006920	0.655562
O3	O	0.115544	-1.176580	0.171595
O4	O	0.615544	-0.676580	0.671595
O5	O	0.115517	-1.349759	-0.001591
O6	O	0.615517	-0.849759	0.498409
O7	O	0.115538	-1.333741	0.328748
O8	O	0.615538	-0.833741	0.828748
O9	O	-0.115775	-1.349735	-0.001587
O10	O	0.384225	-0.849735	0.498413
O11	O	-0.115748	-1.176556	0.171599
O12	O	0.384252	-0.676556	0.671599
O13	O	-0.115780	-1.506896	0.155566
O14	O	0.384220	-1.006896	0.655566
Zn15	Zn	-0.152486	-1.341722	0.163583
Zn16	Zn	0.347514	-0.841722	0.663583
Zn17	Zn	0.152250	-1.341754	0.163578
Zn18	Zn	0.652250	-0.841754	0.663578
O19	O	-0.115753	-1.333717	0.328752
O20	O	0.384247	-0.833717	0.828752
C21	C	-0.000098	-1.134277	0.170590
C22	C	0.499902	-0.634277	0.670590
C23	C	-0.000086	-1.008263	0.167576
C24	C	0.499914	-0.508263	0.667576
N25	N	-0.360461	-1.341709	0.163586
N26	N	0.139539	-0.841709	0.663586
C27	C	-0.000128	-1.348738	-0.043880
C28	C	0.499872	-0.848738	0.456120
C29	C	-0.000127	-1.345718	-0.169893
C30	C	0.499873	-0.845718	0.330107
C31	C	-0.580817	-1.248789	0.255919
C32	C	-0.080817	-0.748789	0.755919
C33	C	-0.419649	-1.248992	0.256264
C34	C	0.080351	-0.748992	0.756264
C35	C	-0.418920	-1.460302	0.190183
C36	C	0.081080	-0.960302	0.690183
C37	C	-0.580138	-1.459795	0.190836
C38	C	-0.080138	-0.959795	0.690836
C39	C	-0.580377	-1.317220	0.044349
C40	C	-0.080377	-0.817220	0.544349
C41	C	-0.419150	-1.314494	0.045131
C42	C	0.080850	-0.814494	0.545131
N43	N	0.360224	-1.341776	0.163567
N44	N	0.860224	-0.841776	0.663567
C45	C	-0.000135	-1.549199	0.156571
C46	C	0.499865	-1.049199	0.656571
C47	C	-0.000139	-1.675213	0.159586
C48	C	0.499861	-1.175213	0.659586
C49	C	-0.000126	-0.777551	0.162033
C50	C	0.499874	-0.277551	0.662033
C51	C	-0.000104	-0.905936	0.165112
C52	C	0.499896	-0.405936	0.665112
C53	C	-0.000122	-1.343264	-0.272229
C54	C	0.499878	-0.843264	0.227771
C55	C	-0.000108	-1.340196	-0.400616
C56	C	0.499892	-0.840196	0.099384
C57	C	-0.000105	-1.334738	0.371041
C58	C	0.499895	-0.834738	0.871041
C59	C	-0.000098	-1.337758	0.497054
C60	C	0.499902	-0.837758	0.997054
H61	H	-0.380127	-1.160864	0.240309
H62	H	0.119873	-0.660864	0.740309
N63	N	-0.370821	-1.549202	0.108078
N64	N	0.129179	-1.049202	0.608078
N65	N	-0.292731	-1.526091	0.028858
N66	N	0.207269	-1.026091	0.528858
H67	H	-0.258758	-1.588874	-0.029132
H68	H	0.241242	-1.088874	0.470868
N69	N	-0.368236	-1.487913	0.298044
N70	N	0.131764	-0.987913	0.798044
N71	N	-0.289079	-1.420449	0.355505
N72	N	0.210921	-0.920449	0.855505
H73	H	-0.253283	-1.439943	0.431685
H74	H	0.246717	-0.939943	0.931685
N75	N	-0.627271	-1.486780	0.299946
N76	N	-0.127271	-0.986780	0.799946
N77	N	-0.594011	-1.424545	0.387890
N78	N	-0.094011	-0.924545	0.887890
H79	H	-0.627289	-1.443600	0.464954
H80	H	-0.127289	-0.943600	0.964954
H81	H	-0.618504	-1.385022	-0.024385
H82	H	-0.118504	-0.885022	0.475615
H83	H	-0.619620	-1.160384	0.240215
H84	H	-0.119620	-0.660384	0.740215
H85	H	-0.621108	-1.232588	0.018953
H86	H	-0.121108	-0.732588	0.518953
H87	H	-0.621311	-1.264333	0.343875
H88	H	-0.121311	-0.764333	0.843875
H89	H	-0.619137	-1.531189	0.126262
H90	H	-0.119137	-1.031189	0.626262
N91	N	-0.371220	-1.205047	0.019842
N92	N	0.128780	-0.705047	0.519842
N93	N	-0.294119	-1.147244	0.088743
N94	N	0.205881	-0.647244	0.588743
H95	H	-0.260259	-1.069946	0.070886
H96	H	0.239741	-0.569946	0.570886
H97	H	-0.381066	-1.264742	0.344720
H98	H	0.118934	-0.764742	0.844720
H99	H	-0.378866	-1.377758	-0.026868
H100	H	0.121134	-0.877758	0.473132
