data_functionalizedCrystal
_audit_creation_method	'MofGen! by Chris Wilmer'
_symmetry_space_group_name_H-M	'P1'
_symmetry_Int_Tables_number	1
_symmetry_cell_setting	triclinic
loop_
_symmetry_equiv_pos_as_xyz
  x,y,z
_cell_length_a	13.635800
_cell_length_b	10.992469
_cell_length_c	9.582906
_cell_angle_alpha	90.906325
_cell_angle_beta	68.792474
_cell_angle_gamma	71.234376
loop_
_atom_site_label
_atom_site_type_symbol
_atom_site_fract_x
_atom_site_fract_y
_atom_site_fract_z
V1	V	2.071727	-0.177225	-0.466581
O2	O	2.050512	0.009068	-0.457722
O3	O	2.060418	-0.351938	-0.463369
O4	O	2.066892	-0.174257	-0.670083
O5	O	2.043994	-0.169843	-0.249576
V6	V	2.309362	-0.154971	-0.440629
O7	O	2.211410	-0.226042	-0.523511
O8	O	2.394778	-0.106155	-0.383699
O9	O	2.209067	0.019742	-0.443841
O10	O	2.389276	-0.341264	-0.449488
O11	O	2.395794	-0.162353	-0.657633
O12	O	2.202594	-0.157939	-0.237127
V13	V	2.571727	-0.177225	-0.466581
O14	O	2.550512	0.009068	-0.457722
O15	O	2.560418	-0.351938	-0.463369
O16	O	2.566892	-0.174257	-0.670083
O17	O	2.543994	-0.169843	-0.249576
V18	V	2.809362	-0.154971	-0.440629
O19	O	2.711410	-0.226042	-0.523511
O20	O	2.894778	-0.106155	-0.383699
O21	O	2.709067	0.019742	-0.443841
O22	O	2.889276	-0.341264	-0.449488
O23	O	2.895794	-0.162353	-0.657633
O24	O	2.702594	-0.157939	-0.237127
C25	C	1.985428	-0.394537	-0.456003
C26	C	2.016954	-0.537365	-0.454733
C27	C	1.917468	-0.583874	-0.445233
C28	C	1.950372	-0.732512	-0.444499
C29	C	2.153879	-0.763845	-0.600747
C30	C	2.120358	-0.615198	-0.602110
C31	C	2.049582	-0.577224	-0.316330
C32	C	2.079846	-0.725448	-0.312977
C33	C	1.993685	-0.167886	-0.719686
C34	C	2.030458	-0.166615	-0.886050
C35	C	2.115729	0.062334	-0.451203
C36	C	2.073823	0.205161	-0.452482
C37	C	2.485428	-0.394537	-0.456003
C38	C	2.516954	-0.537365	-0.454733
C39	C	2.107472	-0.164315	-0.187516
C40	C	2.060317	-0.165579	-0.021151
C41	C	2.640457	-0.599663	-0.463264
C42	C	2.673135	-0.748148	-0.461352
C43	C	2.469868	-0.717905	-0.305093
C44	C	2.437787	-0.569337	-0.306379
C45	C	2.508502	-0.607037	-0.592161
C46	C	2.543845	-0.756048	-0.592866
C47	C	2.493685	-0.167886	-0.719686
C48	C	2.530458	-0.166615	-0.886050
C49	C	2.615729	0.062334	-0.451203
C50	C	2.573823	0.205161	-0.452482
C51	C	2.607472	-0.164315	-0.187516
C52	C	2.560317	-0.165579	-0.021151
H53	H	1.839564	-0.531402	-0.339250
H54	H	2.442033	-0.523179	-0.202339
H55	H	1.891877	-0.557089	-0.544655
N56	N	1.873046	-0.757304	-0.310866
N57	N	1.815640	-0.822892	-0.321640
H58	H	1.761016	-0.840393	-0.227263
H59	H	2.195774	-0.585807	-0.615137
H60	H	2.698306	-0.773070	-0.361237
H61	H	2.702593	-0.580698	-0.569883
H62	H	2.619078	-0.808258	-0.701838
N63	N	2.651911	-0.539605	-0.339391
N64	N	2.721037	-0.482499	-0.364142
H65	H	2.729125	-0.440081	-0.276655
N66	N	1.938485	-0.790452	-0.569302
N67	N	1.905841	-0.721109	-0.657227
H68	H	1.897448	-0.762028	-0.745378
H69	H	2.167109	-0.767102	-0.310154
N70	N	2.095843	-0.586162	-0.733406
N71	N	2.103560	-0.675608	-0.823394
H72	H	2.086246	-0.655109	-0.916125
H73	H	2.244957	-0.805609	-0.611999
N74	N	2.323238	-0.515909	-0.290796
N75	N	2.267220	-0.588366	-0.278997
H76	H	2.186318	-0.550636	-0.267974
H77	H	2.472961	-0.788592	-0.595031
N78	N	2.396159	-0.555830	-0.585939
N79	N	2.322549	-0.468414	-0.480856
H80	H	2.243204	-0.432243	-0.476448
N81	N	2.150246	-0.824977	-0.730726
N82	N	2.088802	-0.891405	-0.714539
H83	H	2.086229	-0.934579	-0.806333
H84	H	2.394372	-0.746741	-0.293213
N85	N	2.770634	-0.814902	-0.594202
N86	N	2.768119	-0.801401	-0.722275
H87	H	2.836984	-0.848540	-0.816103
H88	H	2.123599	-0.547669	-0.321901
H89	H	2.489192	-0.743626	-0.200812
N90	N	2.577719	-0.581306	-0.732509
N91	N	2.634124	-0.511296	-0.732946
H92	H	2.683014	-0.493120	-0.832060
N93	N	1.959608	-0.508936	-0.176819
N94	N	1.870335	-0.430051	-0.177708
H95	H	1.806781	-0.381822	-0.079185
H96	H	2.020189	-0.743777	-0.203377
