data_functionalizedCrystal
_audit_creation_method	'MofGen! by Chris Wilmer'
_symmetry_space_group_name_H-M	'P1'
_symmetry_Int_Tables_number	1
_symmetry_cell_setting	triclinic
loop_
_symmetry_equiv_pos_as_xyz
  x,y,z
_cell_length_a	10.654553
_cell_length_b	12.837942
_cell_length_c	9.730223
_cell_angle_alpha	89.998914
_cell_angle_beta	90.003344
_cell_angle_gamma	89.657559
loop_
_atom_site_label
_atom_site_type_symbol
_atom_site_fract_x
_atom_site_fract_y
_atom_site_fract_z
O1	O	1.683740	0.145731	0.114305
O2	O	1.319776	0.159611	0.114304
O3	O	1.493688	0.001710	0.114296
O4	O	1.509828	0.303632	0.114313
O5	O	1.493676	0.001720	-0.114284
O6	O	1.319765	0.159621	-0.114276
O7	O	1.683728	0.145741	-0.114275
Zn8	Zn	1.501745	0.152683	-0.150567
Zn9	Zn	1.501760	0.152669	0.150597
O10	O	1.509817	0.303642	-0.114267
C11	C	1.272861	0.158596	0.000014
C12	C	1.133085	0.155545	0.000014
C13	C	0.936069	0.151244	-0.124576
C14	C	1.067403	0.154117	-0.124584
C15	C	1.067426	0.154111	0.124627
C16	C	0.936094	0.151246	0.124633
C17	C	0.936057	0.151243	-0.268456
C18	C	1.067391	0.154116	-0.268464
C19	C	1.488229	-0.036945	0.000007
C20	C	1.471967	-0.152139	0.000009
C21	C	1.667471	-0.391690	0.000038
C22	C	1.652197	-0.499926	0.000040
C23	C	1.426145	-0.476848	0.000026
C24	C	1.441419	-0.368613	0.000023
C25	C	1.562086	-0.326038	0.000028
C26	C	1.577359	-0.217800	0.000015
C27	C	1.351309	-0.194724	0.000011
C28	C	1.336035	-0.302960	0.000013
C29	C	1.730643	0.146756	0.000018
C30	C	1.870419	0.149807	0.000028
C31	C	1.515275	0.342297	0.000025
C32	C	1.531538	0.457491	0.000032
N33	N	1.501743	0.152692	-0.356104
C34	C	1.418004	0.089152	-0.571929
C35	C	1.417993	0.089169	-0.428046
C36	C	1.585519	0.216194	-0.428052
C37	C	1.585534	0.216171	-0.571932
C38	C	1.321281	0.015818	-0.571924
C39	C	1.321270	0.015835	-0.428041
N40	N	1.501770	0.152652	0.356133
H41	H	0.897594	0.222942	-0.323697
H42	H	1.105848	0.082415	-0.323704
H43	H	1.675612	-0.183137	0.000014
H44	H	1.225001	0.041358	-0.389017
H45	H	1.105211	0.229790	-0.313106
C46	C	1.677663	0.286043	-0.651060
N47	N	1.747048	0.338685	-0.710658
C48	C	1.293422	-0.523701	0.000008
N49	N	1.193453	-0.558991	-0.000015
H50	H	1.343280	-0.066005	-0.610940
C51	C	1.800203	-0.344855	0.000035
N52	N	1.900180	-0.309581	0.000035
C53	C	1.768129	-0.572140	0.000042
N54	N	1.855455	-0.626533	0.000042
C55	C	1.203308	-0.349806	-0.000008
N56	N	1.103335	-0.385089	-0.000033
H57	H	1.230262	0.048419	-0.616579
H58	H	1.120915	0.155284	0.226076
H59	H	0.898224	0.075576	-0.313099
C60	C	1.235378	-0.122497	-0.000002
N61	N	1.148061	-0.068095	-0.000015
H62	H	1.352266	-0.062281	-0.383388
C63	C	1.677655	0.286061	-0.348911
N64	N	1.747054	0.338687	-0.289303
H65	H	0.882647	0.150089	0.226097
