data_functionalizedCrystal
_audit_creation_method	'MofGen! by Chris Wilmer'
_symmetry_space_group_name_H-M	'P1'
_symmetry_Int_Tables_number	1
_symmetry_cell_setting	triclinic
loop_
_symmetry_equiv_pos_as_xyz
  x,y,z
_cell_length_a	23.532407
_cell_length_b	14.519709
_cell_length_c	12.996460
_cell_angle_alpha	89.999966
_cell_angle_beta	89.989202
_cell_angle_gamma	96.735588
loop_
_atom_site_label
_atom_site_type_symbol
_atom_site_fract_x
_atom_site_fract_y
_atom_site_fract_z
O1	O	0.074654	-1.222985	-0.085444
O2	O	0.574654	-0.722985	0.414556
O3	O	0.083445	-0.954405	-0.085477
O4	O	0.583445	-0.454405	0.414523
O5	O	-0.003845	-1.096794	-0.085440
O6	O	0.496155	-0.596794	0.414560
O7	O	0.161945	-1.080596	-0.085480
O8	O	0.661945	-0.580596	0.414520
O9	O	-0.003850	-1.096779	0.085693
O10	O	0.496150	-0.596779	0.585693
O11	O	0.083441	-0.954390	0.085657
O12	O	0.583441	-0.454390	0.585657
O13	O	0.074649	-1.222971	0.085690
O14	O	0.574649	-0.722971	0.585690
Cu15	Cu	0.079044	-1.088679	0.101299
Cu16	Cu	0.579044	-0.588679	0.601299
Cu17	Cu	0.079050	-1.088696	-0.101086
Cu18	Cu	0.579050	-0.588696	0.398914
O19	O	0.161940	-1.080581	0.085654
O20	O	0.661940	-0.580581	0.585654
C21	C	0.083033	-0.920042	0.000086
C22	C	0.583033	-0.420042	0.500086
C23	C	0.081805	-0.817676	0.000075
C24	C	0.581805	-0.317676	0.500075
C25	C	-0.025066	-1.096374	0.000129
C26	C	0.474934	-0.596374	0.500129
C27	C	-0.088288	-1.095134	0.000137
C28	C	0.411712	-0.595134	0.500137
C29	C	0.075061	-1.257333	0.000125
C30	C	0.575061	-0.757333	0.500125
C31	C	0.076289	-1.359700	0.000130
C32	C	0.576289	-0.859700	0.500130
C33	C	-0.487046	-1.171619	0.000090
C34	C	0.012954	-0.671619	0.500090
C35	C	-0.546452	-1.170467	0.000082
C36	C	-0.046452	-0.670467	0.500082
O37	O	-0.582876	-1.241369	0.000052
O38	O	-0.082876	-0.741369	0.500052
N39	N	-0.569460	-1.085816	0.000072
N40	N	-0.069460	-0.585816	0.500072
C41	C	-0.533059	-1.002312	0.000060
C42	C	-0.033059	-0.502312	0.500060
O43	O	-0.558084	-0.930205	0.000050
O44	O	-0.058084	-0.430205	0.500050
C45	C	-0.473655	-1.003465	0.000061
C46	C	0.026345	-0.503465	0.500061
C47	C	-0.450650	-1.088121	0.000081
C48	C	0.049350	-0.588121	0.500081
C49	C	-0.464041	-1.256268	0.000109
C50	C	0.035959	-0.756268	0.500109
C51	C	-0.404640	-1.257420	0.000119
C52	C	0.095360	-0.757420	0.500119
C53	C	-0.368244	-1.173922	0.000110
C54	C	0.131756	-0.673922	0.500110
C55	C	-0.391249	-1.089273	0.000091
C56	C	0.108751	-0.589273	0.500091
C57	C	-0.437255	-0.919962	0.000041
C58	C	0.062745	-0.419962	0.500041
C59	C	-0.377847	-0.921123	0.000041
C60	C	0.122153	-0.421123	0.500041
C61	C	-0.354843	-1.005779	0.000061
C62	C	0.145157	-0.505779	0.500061
C63	C	-0.295451	-1.006927	0.000091
C64	C	0.204549	-0.506927	0.500091
N65	N	-0.272443	-1.091578	0.000101
N66	N	0.227557	-0.591578	0.500101
C67	C	-0.308839	-1.175075	0.000110
C68	C	0.191161	-0.675075	0.500110
C69	C	-0.657813	-0.999897	0.000057
C70	C	-0.157813	-0.499897	0.500057
C71	C	-0.717216	-0.998743	0.000064
C72	C	-0.217216	-0.498743	0.500064
C73	C	-0.730604	-1.166898	0.000084
C74	C	-0.230604	-0.666898	0.500084
C75	C	-0.671200	-1.168051	0.000084
C76	C	-0.171200	-0.668051	0.500084
C77	C	-0.634804	-1.084548	0.000067
C78	C	-0.134804	-0.584548	0.500067
C79	C	-0.184092	-1.177487	0.000132
C80	C	0.315908	-0.677487	0.500132
C81	C	-0.124685	-1.178632	0.000146
C82	C	0.375315	-0.678632	0.500146
C83	C	-0.111301	-1.010477	0.000121
C84	C	0.388699	-0.510477	0.500121
C85	C	-0.170703	-1.009332	0.000112
C86	C	0.329297	-0.509332	0.500112
C87	C	-0.207098	-1.092845	0.000114
C88	C	0.292902	-0.592845	0.500114
O89	O	-0.258992	-0.936062	0.000117
O90	O	0.241008	-0.436062	0.500117
O91	O	-0.283806	-1.247171	0.000106
O92	O	0.216194	-0.747171	0.500106
C93	C	0.183160	-1.081001	0.000082
C94	C	0.683160	-0.581001	0.500082
C95	C	0.246383	-1.082241	0.000067
C96	C	0.746383	-0.582241	0.500067
N97	N	0.079040	-1.088673	0.243647
N98	N	0.579040	-0.588673	0.743647
C99	C	0.077286	-0.442833	0.000123
C100	C	0.577286	0.057167	0.500123
C101	C	0.078541	-0.547126	0.000109
C102	C	0.578541	-0.047126	0.500109
C103	C	0.079545	-0.630251	0.000098
C104	C	0.579545	-0.130251	0.500098
C105	C	0.080801	-0.734551	0.000086
C106	C	0.580801	-0.234551	0.500086
N107	N	0.079050	-1.088709	-0.243433
N108	N	0.579050	-0.588709	0.256567
C109	C	0.079051	-1.088695	0.663461
C110	C	0.579051	-0.588695	1.163461
C111	C	0.079050	-1.088686	0.546656
C112	C	0.579050	-0.588686	1.046656
C113	C	0.079046	-1.088685	0.453557
C114	C	0.579046	-0.588685	0.953557
C115	C	0.079044	-1.088675	0.336745
C116	C	0.579044	-0.588675	0.836745
H117	H	-0.105958	-1.247572	0.000165
H118	H	0.394042	-0.747572	0.500165
Cl119	Cl	-0.776371	-1.271867	0.000088
Cl120	Cl	-0.276371	-0.771867	0.500088
H121	H	-0.652474	-1.236985	0.000100
H122	H	-0.152474	-0.736985	0.500100
H123	H	-0.735940	-0.929808	0.000065
H124	H	-0.235940	-0.429808	0.500065
H125	H	-0.348216	-0.853122	0.000025
H126	H	0.151784	-0.353122	0.500025
H127	H	-0.628182	-0.931894	0.000052
H128	H	-0.128182	-0.431894	0.500052
H129	H	-0.455975	-0.851027	0.000019
H130	H	0.044025	-0.351027	0.500019
H131	H	-0.081657	-0.942496	0.000117
H132	H	0.418343	-0.442496	0.500117
Cl133	Cl	-0.229836	-1.282476	0.000136
Cl134	Cl	0.270164	-0.782476	0.500136
H135	H	-0.189434	-0.940399	0.000124
H136	H	0.310566	-0.440399	0.500124
H137	H	-0.385915	-1.326355	0.000131
H138	H	0.114085	-0.826355	0.500131
H139	H	-0.493670	-1.324266	0.000112
H140	H	0.006330	-0.824266	0.500112
