data_functionalizedCrystal
_audit_creation_method	'MofGen! by Chris Wilmer'
_symmetry_space_group_name_H-M	'P1'
_symmetry_Int_Tables_number	1
_symmetry_cell_setting	triclinic
loop_
_symmetry_equiv_pos_as_xyz
  x,y,z
_cell_length_a	16.109301
_cell_length_b	10.723024
_cell_length_c	14.586319
_cell_angle_alpha	89.997376
_cell_angle_beta	89.999213
_cell_angle_gamma	83.964675
loop_
_atom_site_label
_atom_site_type_symbol
_atom_site_fract_x
_atom_site_fract_y
_atom_site_fract_z
O1	O	1.104075	0.160391	-0.076180
O2	O	0.862130	0.180351	-0.076194
O3	O	0.988683	-0.011279	-0.076183
O4	O	0.977521	0.352021	-0.076191
O5	O	0.988674	-0.011282	0.076297
O6	O	0.862121	0.180348	0.076287
O7	O	1.104066	0.160388	0.076301
Cu8	Cu	0.983093	0.170368	0.090216
Cu9	Cu	0.983103	0.170371	-0.090110
O10	O	0.977513	0.352018	0.076290
C11	C	0.831146	0.179541	0.000044
C12	C	0.738836	0.177117	0.000039
C13	C	0.517200	0.285190	0.000047
C14	C	0.430466	0.282903	0.000053
C15	C	0.449003	0.055540	0.000054
C16	C	0.535735	0.057829	0.000055
C17	C	0.569831	0.172657	0.000047
C18	C	0.396365	0.168081	0.000052
C19	C	0.302324	0.165600	0.000058
C20	C	0.663877	0.175139	0.000042
C21	C	0.987866	-0.057770	0.000056
C22	C	0.985436	-0.196292	0.000053
C23	C	1.056249	-0.272213	0.000055
C24	C	1.053739	-0.415383	0.000052
C25	C	1.135050	0.161198	0.000060
C26	C	1.227359	0.163622	0.000060
C27	C	0.978329	0.398508	0.000049
C28	C	0.980760	0.537031	0.000046
N29	N	0.983091	0.170365	0.217048
N30	N	0.983111	0.170364	-0.216942
C31	C	1.039148	0.085539	0.452059
C32	C	1.039150	0.085536	0.548041
C33	C	0.927048	0.255194	0.548040
C34	C	0.927043	0.255190	0.452061
C35	C	0.983097	0.170364	0.404073
C36	C	0.983105	0.170365	0.596034
C37	C	0.983107	0.170362	0.700101
C38	C	0.983094	0.170365	0.299999
H39	H	1.118732	-0.231219	0.000065
H40	H	0.578589	-0.033815	0.000057
O41	O	0.908353	-0.385339	0.000082
C42	C	0.840011	-0.457393	0.000050
H43	H	0.860480	-0.554569	0.028917
H44	H	0.816502	-0.466599	-0.073106
C45	C	0.744323	-0.273041	0.024386
C46	C	0.769462	-0.392392	0.059849
H47	H	0.700803	-0.232944	0.061269
H48	H	0.790366	-0.224495	0.024404
H49	H	0.724737	-0.280729	-0.036576
H50	H	0.789057	-0.384701	0.120805
H51	H	0.723421	-0.440935	0.059842
H52	H	0.922953	-0.237286	0.000043
H53	H	0.544958	0.378691	0.000048
H54	H	1.114359	-0.480619	0.000058
O55	O	0.872708	0.337651	0.405341
C56	C	0.917669	0.414668	0.349832
H57	H	0.982440	0.364993	0.335452
H58	H	0.923845	0.506896	0.386814
C59	C	0.791392	0.502325	0.276323
C60	C	0.870942	0.441308	0.258655
H61	H	0.762568	0.518764	0.220082
H62	H	0.761100	0.450441	0.313723
H63	H	0.796550	0.579175	0.307144
H64	H	0.865783	0.364453	0.227845
H65	H	0.901232	0.493180	0.221248
O66	O	1.093622	0.003015	0.405585
C67	C	1.143107	-0.071834	0.468526
H68	H	1.109016	-0.073251	0.536946
H69	H	1.205098	-0.031294	0.478726
C70	C	1.201342	-0.204702	0.347041
C71	C	1.159468	-0.206452	0.431074
H72	H	1.211439	-0.287740	0.323938
H73	H	1.168006	-0.154273	0.304636
H74	H	1.252997	-0.170913	0.355553
H75	H	1.107810	-0.240226	0.422559
H76	H	1.192796	-0.256890	0.473477
O77	O	1.093485	0.003016	0.594695
C78	C	1.048529	-0.073970	0.650236
H79	H	0.982952	-0.076107	0.621317
H80	H	1.044397	-0.034920	0.722977
C81	C	1.174132	-0.205301	0.687229
C82	C	1.093590	-0.207935	0.651706
H83	H	1.201928	-0.287936	0.688140
H84	H	1.204420	-0.153432	0.649813
H85	H	1.170677	-0.172754	0.747843
H86	H	1.097046	-0.240466	0.591089
H87	H	1.063303	-0.259813	0.689112
O88	O	0.415920	-0.056031	0.000213
C89	C	0.442766	-0.124653	0.079171
H90	H	0.461181	-0.057516	0.134372
H91	H	0.498891	-0.194203	0.061317
C92	C	0.348780	-0.278812	0.047172
C93	C	0.371391	-0.196352	0.114974
H94	H	0.304755	-0.323045	0.069255
H95	H	0.330695	-0.232584	-0.006025
H96	H	0.395557	-0.336758	0.032300
H97	H	0.324617	-0.138399	0.129837
H98	H	0.389466	-0.242573	0.168175
H99	H	0.881411	0.324259	0.587122
H100	H	0.387617	0.374539	0.000056
