data_functionalizedCrystal
_audit_creation_method	'MofGen! by Chris Wilmer'
_symmetry_space_group_name_H-M	'P1'
_symmetry_Int_Tables_number	1
_symmetry_cell_setting	triclinic
loop_
_symmetry_equiv_pos_as_xyz
  x,y,z
_cell_length_a	29.839131
_cell_length_b	29.839134
_cell_length_c	29.839125
_cell_angle_alpha	90.021980
_cell_angle_beta	89.982291
_cell_angle_gamma	89.963719
loop_
_atom_site_label
_atom_site_type_symbol
_atom_site_fract_x
_atom_site_fract_y
_atom_site_fract_z
Zn1	Zn	-0.178978	-0.686720	-0.254125
Zn2	Zn	0.321022	-0.186720	0.245875
Zn3	Zn	-0.254090	-0.686652	-0.178995
Zn4	Zn	0.245910	-0.186652	0.321005
Zn5	Zn	-0.178968	-0.611602	-0.178995
Zn6	Zn	0.321032	-0.111602	0.321005
Zn7	Zn	-0.254075	-0.611550	-0.254083
Zn8	Zn	0.245925	-0.111550	0.245917
O9	O	-0.216528	-0.649131	-0.216549
O10	O	0.283472	-0.149131	0.283451
O11	O	-0.188952	-0.749578	-0.244176
O12	O	0.311048	-0.249578	0.255824
O13	O	-0.244127	-0.676690	-0.116128
O14	O	0.255873	-0.176690	0.383872
O15	O	-0.116102	-0.621617	-0.188978
O16	O	0.383898	-0.121617	0.311022
O17	O	-0.244137	-0.749528	-0.188979
O18	O	0.255863	-0.249528	0.311021
O19	O	-0.116109	-0.676805	-0.244176
O20	O	0.383891	-0.176805	0.255824
O21	O	-0.188935	-0.621551	-0.116127
O22	O	0.311065	-0.121551	0.383873
O23	O	-0.188921	-0.548728	-0.188938
O24	O	0.311079	-0.048728	0.311062
O25	O	-0.244111	-0.621528	-0.316956
O26	O	0.255889	-0.121528	0.183044
O27	O	-0.244101	-0.548690	-0.244105
O28	O	0.255899	-0.048690	0.255895
O29	O	-0.188937	-0.676755	-0.316987
O30	O	0.311063	-0.176755	0.183013
O31	O	-0.316955	-0.676639	-0.188938
O32	O	0.183045	-0.176639	0.311062
O33	O	-0.316944	-0.621462	-0.244105
O34	O	0.183056	-0.121462	0.255895
C35	C	-0.216509	-0.532408	-0.216517
C36	C	0.283491	-0.032408	0.283483
C37	C	-0.216511	-0.482474	-0.216514
C38	C	0.283489	0.017526	0.283486
C39	C	-0.333250	-0.649050	-0.216527
C40	C	0.166750	-0.149050	0.283473
C41	C	-0.383185	-0.649056	-0.216533
C42	C	0.116815	-0.149056	0.283467
C43	C	-0.216524	-0.649143	-0.333728
C44	C	0.283476	-0.149143	0.166272
C45	C	-0.216522	-0.649148	-0.383662
C46	C	0.283478	-0.149148	0.116338
C47	C	-0.692821	-0.677914	-0.187866
C48	C	-0.192821	-0.177914	0.312134
C49	C	-0.880494	-0.677969	-0.187883
C50	C	-0.380494	-0.177969	0.312117
O51	O	-0.904753	-0.702441	-0.163493
O52	O	-0.404753	-0.202441	0.336507
N53	N	-0.903970	-0.649224	-0.216583
N54	N	-0.403970	-0.149224	0.283417
C55	C	-0.880524	-0.620465	-0.245283
C56	C	-0.380524	-0.120465	0.254717
O57	O	-0.904798	-0.596020	-0.269698
O58	O	-0.404798	-0.096020	0.230302
C59	C	-0.692852	-0.620412	-0.245268
C60	C	-0.192852	-0.120412	0.254732
C61	C	-0.669379	-0.649156	-0.216563
C62	C	-0.169379	-0.149156	0.283437
C63	C	-0.669348	-0.706656	-0.159164
C64	C	-0.169348	-0.206656	0.340836
C65	C	-0.622433	-0.706640	-0.159158
C66	C	-0.122433	-0.206640	0.340842
C67	C	-0.598990	-0.677882	-0.187854
C68	C	-0.098990	-0.177882	0.312146
C69	C	-0.622463	-0.649140	-0.216557
C70	C	-0.122463	-0.149140	0.283443
C71	C	-0.669407	-0.591656	-0.273969
C72	C	-0.169407	-0.091656	0.226031
C73	C	-0.622486	-0.591646	-0.273964
C74	C	-0.122486	-0.091646	0.226036
C75	C	-0.599013	-0.620390	-0.245259
C76	C	-0.099013	-0.120390	0.254741
C77	C	-0.552106	-0.620367	-0.245248
C78	C	-0.052106	-0.120367	0.254752
N79	N	-0.528630	-0.649112	-0.216548
N80	N	-0.028630	-0.149112	0.283452
C81	C	-0.552072	-0.677869	-0.187851
C82	C	-0.052072	-0.177869	0.312149
C83	C	-0.979055	-0.620494	-0.245289
C84	C	-0.479055	-0.120494	0.254711
C85	C	-1.025973	-0.620507	-0.245292
C86	C	-0.525973	-0.120507	0.254708
C87	C	-1.025939	-0.678012	-0.187893
C88	C	-0.525939	-0.178012	0.312107
C89	C	-0.979021	-0.677996	-0.187887
C90	C	-0.479021	-0.177996	0.312113
C91	C	-0.955579	-0.649239	-0.216589
C92	C	-0.455579	-0.149239	0.283411
C93	C	-0.453547	-0.677834	-0.187841
C94	C	0.046453	-0.177834	0.312159
C95	C	-0.406627	-0.677814	-0.187836
C96	C	0.093373	-0.177814	0.312164
C97	C	-0.406664	-0.620311	-0.245237
C98	C	0.093336	-0.120311	0.254763
C99	C	-0.453580	-0.620329	-0.245240
C100	C	0.046420	-0.120329	0.254760
C101	C	-0.477020	-0.649094	-0.216540
C102	C	0.022980	-0.149094	0.283460
O103	O	-0.527818	-0.595912	-0.269629
O104	O	-0.027818	-0.095912	0.230371
O105	O	-0.527791	-0.702318	-0.163447
O106	O	-0.027791	-0.202318	0.336553
C107	C	-0.739737	-0.677930	-0.187872
C108	C	-0.239737	-0.177930	0.312128
C109	C	-0.763210	-0.649188	-0.216574
C110	C	-0.263210	-0.149188	0.283426
C111	C	-0.739767	-0.620430	-0.245271
C112	C	-0.239767	-0.120430	0.254729
C113	C	-0.810128	-0.649200	-0.216578
C114	C	-0.310128	-0.149200	0.283422
C115	C	-0.833570	-0.677958	-0.187881
C116	C	-0.333570	-0.177958	0.312119
C117	C	-0.810094	-0.706703	-0.159181
C118	C	-0.310094	-0.206703	0.340819
C119	C	-0.763179	-0.706687	-0.159175
C120	C	-0.263179	-0.206687	0.340825
C121	C	-0.763243	-0.591685	-0.273971
C122	C	-0.263243	-0.091685	0.226029
C123	C	-0.810158	-0.591703	-0.273974
C124	C	-0.310158	-0.091703	0.226026
C125	C	-0.833601	-0.620461	-0.245277
C126	C	-0.333601	-0.120461	0.254723
C127	C	-0.099349	-0.649225	-0.216582
C128	C	0.400651	-0.149225	0.283418
C129	C	-0.049415	-0.649265	-0.216595
C130	C	0.450585	-0.149265	0.283405
C131	C	-0.216547	-0.766309	-0.216582
C132	C	0.283453	-0.266309	0.283418
C133	C	-0.216555	-0.816244	-0.216596
C134	C	0.283445	-0.316244	0.283404
C135	C	-0.245303	-0.172820	-0.245240
C136	C	0.254697	0.327180	0.254760
C137	C	-0.245315	0.014853	-0.245260
C138	C	0.254685	0.514853	0.254740
O139	O	-0.269774	0.039127	-0.269665
O140	O	0.230226	0.539127	0.230335
N141	N	-0.216544	0.038311	-0.216583
N142	N	0.283456	0.538311	0.283417
C143	C	-0.187766	0.014848	-0.187902
C144	C	0.312234	0.514848	0.312098
O145	O	-0.163291	0.039107	-0.163514
O146	O	0.336709	0.539107	0.336486
C147	C	-0.187751	-0.172824	-0.187884
C148	C	0.312249	0.327176	0.312116
C149	C	-0.216527	-0.196280	-0.216560
C150	C	0.283473	0.303720	0.283440
C151	C	-0.274076	-0.196276	-0.273913
C152	C	0.225924	0.303724	0.226087
C153	C	-0.274075	-0.243191	-0.273906
C154	C	0.225925	0.256809	0.226094
C155	C	-0.245299	-0.266651	-0.245226
C156	C	0.254701	0.233349	0.254774
C157	C	-0.216526	-0.243195	-0.216553
C158	C	0.283474	0.256805	0.283447
C159	C	-0.158971	-0.196286	-0.159205
C160	C	0.341029	0.303714	0.340795
C161	C	-0.158969	-0.243207	-0.159204
C162	C	0.341031	0.256793	0.340796
C163	C	-0.187745	-0.266663	-0.187880
C164	C	0.312255	0.233337	0.312120
C165	C	-0.187749	-0.313570	-0.187865
C166	C	0.312251	0.186430	0.312135
N167	N	-0.216520	-0.337029	-0.216542
N168	N	0.283480	0.162971	0.283458
C169	C	-0.245295	-0.313569	-0.245222
C170	C	0.254705	0.186431	0.254778
C171	C	-0.187776	0.113379	-0.187912
C172	C	0.312224	0.613379	0.312088
C173	C	-0.187780	0.160297	-0.187916
C174	C	0.312220	0.660297	0.312084
C175	C	-0.245329	0.160298	-0.245275
C176	C	0.254671	0.660298	0.254725
C177	C	-0.245327	0.113380	-0.245269
C178	C	0.254673	0.613380	0.254731
C179	C	-0.216547	0.089921	-0.216589
C180	C	0.283453	0.589921	0.283411
C181	C	-0.245290	-0.412095	-0.245205
C182	C	0.254710	0.087905	0.254795
C183	C	-0.245287	-0.459014	-0.245194
C184	C	0.254713	0.040986	0.254806
C185	C	-0.187736	-0.459012	-0.187837
C186	C	0.312264	0.040988	0.312163
C187	C	-0.187740	-0.412096	-0.187846
C188	C	0.312260	0.087904	0.312154
C189	C	-0.216519	-0.388639	-0.216534
C190	C	0.283481	0.111361	0.283466
O191	O	-0.163299	-0.337873	-0.163477
O192	O	0.336701	0.162127	0.336523
O193	O	-0.269759	-0.337836	-0.269613
O194	O	0.230241	0.162164	0.230387
C195	C	-0.245304	-0.125905	-0.245247
C196	C	0.254696	0.374095	0.254753
C197	C	-0.216531	-0.102449	-0.216574
C198	C	0.283469	0.397551	0.283426
C199	C	-0.187755	-0.125909	-0.187893
C200	C	0.312245	0.374091	0.312107
C201	C	-0.216535	-0.055531	-0.216577
C202	C	0.283465	0.444469	0.283423
C203	C	-0.245310	-0.032071	-0.245258
C204	C	0.254690	0.467929	0.254742
C205	C	-0.274082	-0.055529	-0.273934
C206	C	0.225918	0.444471	0.226066
C207	C	-0.274080	-0.102445	-0.273927
C208	C	0.225920	0.397555	0.226073
C209	C	-0.158984	-0.102451	-0.159217
C210	C	0.341016	0.397549	0.340783
C211	C	-0.158989	-0.055535	-0.159226
C212	C	0.341011	0.444465	0.340774
C213	C	-0.187764	-0.032075	-0.187906
C214	C	0.312236	0.467925	0.312094
C215	C	-0.187718	-0.677935	-0.693325
C216	C	0.312282	-0.177935	-0.193325
C217	C	-0.187680	-0.677957	-0.880998
C218	C	0.312320	-0.177957	-0.380998
O219	O	-0.163232	-0.702399	-0.905279
O220	O	0.336768	-0.202399	-0.405279
N221	N	-0.216402	-0.649208	-0.904448
N222	N	0.283598	-0.149208	-0.404448
C223	C	-0.245133	-0.620449	-0.880976
C224	C	0.254867	-0.120449	-0.380976
O225	O	-0.269559	-0.595993	-0.905228
O226	O	0.230441	-0.095993	-0.405228
C227	C	-0.245169	-0.620424	-0.693304
C228	C	0.254831	-0.120424	-0.193304
C229	C	-0.216448	-0.649179	-0.669857
C230	C	0.283552	-0.149179	-0.169857
C231	C	-0.158999	-0.706687	-0.669877
C232	C	0.341001	-0.206687	-0.169877
C233	C	-0.159011	-0.706683	-0.622962
C234	C	0.340989	-0.206683	-0.122962
C235	C	-0.187741	-0.677927	-0.599494
C236	C	0.312259	-0.177927	-0.099494
C237	C	-0.216460	-0.649175	-0.622941
C238	C	0.283540	-0.149175	-0.122941
C239	C	-0.273898	-0.591663	-0.669833
C240	C	0.226102	-0.091663	-0.169833
C241	C	-0.273903	-0.591659	-0.622912
C242	C	0.226097	-0.091659	-0.122912
C243	C	-0.245183	-0.620414	-0.599465
C244	C	0.254817	-0.120414	-0.099465
C245	C	-0.245202	-0.620415	-0.552558
C246	C	0.254798	-0.120415	-0.052558
N247	N	-0.216480	-0.649164	-0.529108
N248	N	0.283520	-0.149164	-0.029108
C249	C	-0.187749	-0.677920	-0.552576
C250	C	0.312251	-0.177920	-0.052576
C251	C	-0.245113	-0.620464	-0.979507
C252	C	0.254887	-0.120464	-0.479507
C253	C	-0.245105	-0.620471	-1.026425
C254	C	0.254895	-0.120471	-0.526425
C255	C	-0.187650	-0.677979	-1.026443
C256	C	0.312350	-0.177979	-0.526443
C257	C	-0.187661	-0.677974	-0.979524
C258	C	0.312339	-0.177974	-0.479524
C259	C	-0.216391	-0.649214	-0.956057
C260	C	0.283609	-0.149214	-0.456057
C261	C	-0.187776	-0.677910	-0.454050
C262	C	0.312224	-0.177910	0.045950
C263	C	-0.187792	-0.677904	-0.407130
C264	C	0.312208	-0.177904	0.092870
C265	C	-0.245244	-0.620395	-0.407116
C266	C	0.254756	-0.120395	0.092884
C267	C	-0.245230	-0.620401	-0.454032
C268	C	0.254770	-0.120401	0.045968
C269	C	-0.216493	-0.649161	-0.477497
C270	C	0.283507	-0.149161	0.022503
O271	O	-0.269633	-0.595982	-0.528248
O272	O	0.230367	-0.095982	-0.028248
O273	O	-0.163320	-0.702366	-0.528316
O274	O	0.336680	-0.202366	-0.028316
C275	C	-0.187706	-0.677939	-0.740240
C276	C	0.312294	-0.177939	-0.240240
C277	C	-0.216425	-0.649187	-0.763688
C278	C	0.283575	-0.149187	-0.263688
C279	C	-0.245155	-0.620431	-0.740219
C280	C	0.254845	-0.120431	-0.240219
C281	C	-0.216417	-0.649194	-0.810605
C282	C	0.283583	-0.149194	-0.310605
C283	C	-0.187686	-0.677950	-0.834074
C284	C	0.312314	-0.177950	-0.334074
C285	C	-0.158964	-0.706699	-0.810624
C286	C	0.341036	-0.206699	-0.310624
C287	C	-0.158976	-0.706695	-0.763708
C288	C	0.341024	-0.206695	-0.263708
C289	C	-0.273877	-0.591682	-0.763669
C290	C	0.226123	-0.091682	-0.263669
C291	C	-0.273864	-0.591689	-0.810585
C292	C	0.226136	-0.091689	-0.310585
C293	C	-0.245133	-0.620445	-0.834053
C294	C	0.254867	-0.120445	-0.334053
C295	C	-0.216499	-0.649145	-0.099827
C296	C	0.283501	-0.149145	0.400173
C297	C	-0.216374	-0.649227	-0.049893
C298	C	0.283626	-0.149227	0.450107
H299	H	-0.387517	-0.701220	-0.164459
H300	H	0.112483	-0.201220	0.335541
C301	C	-0.127310	-0.269012	-0.127656
C302	C	0.372690	0.230988	0.372344
C303	C	-0.076245	-0.262590	-0.131419
C304	C	0.423755	0.237410	0.368581
C305	C	-0.044587	-0.288395	-0.099871
C306	C	0.455413	0.211605	0.400129
C307	C	-0.063994	-0.320621	-0.064558
C308	C	0.436006	0.179379	0.435442
C309	C	-0.115062	-0.327044	-0.060793
C310	C	0.384938	0.172956	0.439207
C311	C	-0.146720	-0.301240	-0.092342
C312	C	0.353280	0.198760	0.407658
H313	H	-0.061876	-0.238733	-0.157561
H314	H	0.438124	0.261267	0.342439
H315	H	-0.006783	-0.283640	-0.102658
H316	H	0.493217	0.216360	0.397342
H317	H	-0.040559	-0.339723	-0.041204
H318	H	0.459441	0.160277	0.458796
H319	H	-0.129431	-0.350901	-0.034652
H320	H	0.370569	0.149099	0.465348
H321	H	-0.184523	-0.305995	-0.089554
H322	H	0.315477	0.194005	0.410446
H323	H	-0.268721	-0.478110	-0.268545
H324	H	0.231279	0.021890	0.231455
C325	C	-0.127394	-0.738324	-0.695687
C326	C	0.372606	-0.238324	-0.195687
C327	C	-0.131075	-0.789390	-0.689239
C328	C	0.368925	-0.289390	-0.189239
C329	C	-0.099470	-0.821032	-0.715043
C330	C	0.400530	-0.321032	-0.215043
C331	C	-0.064183	-0.801608	-0.747296
C332	C	0.435817	-0.301608	-0.247296
C333	C	-0.060500	-0.750539	-0.753746
C334	C	0.439500	-0.250539	-0.253746
C335	C	-0.092105	-0.718897	-0.727941
C336	C	0.407895	-0.218897	-0.227941
H337	H	-0.157198	-0.803771	-0.665362
H338	H	0.342802	-0.303771	-0.165362
H339	H	-0.102197	-0.858836	-0.710269
H340	H	0.397803	-0.358836	-0.210269
H341	H	-0.040787	-0.825031	-0.766399
H342	H	0.459213	-0.325031	-0.266399
H343	H	-0.034377	-0.736157	-0.777623
H344	H	0.465623	-0.236157	-0.277623
H345	H	-0.089379	-0.681092	-0.732716
H346	H	0.410621	-0.181092	-0.232716
H347	H	-0.387570	-0.596895	-0.268600
H348	H	0.112430	-0.096895	0.231400
H349	H	-0.268621	-0.596991	-0.473123
H350	H	0.231379	-0.096991	0.026877
C351	C	-0.695129	-0.738291	-0.127592
C352	C	-0.195129	-0.238291	0.372408
C353	C	-0.727410	-0.718859	-0.092298
C354	C	-0.227410	-0.218859	0.407702
C355	C	-0.753187	-0.750494	-0.060720
C356	C	-0.253187	-0.250494	0.439280
C357	C	-0.746681	-0.801561	-0.064437
C358	C	-0.246681	-0.301561	0.435563
C359	C	-0.714398	-0.820995	-0.099733
C360	C	-0.214398	-0.320995	0.400267
C361	C	-0.688622	-0.789360	-0.131310
C362	C	-0.188622	-0.289360	0.368690
H363	H	-0.732228	-0.681054	-0.089545
H364	H	-0.232228	-0.181054	0.410455
H365	H	-0.777085	-0.736107	-0.034592
H366	H	-0.277085	-0.236107	0.465408
H367	H	-0.765762	-0.824979	-0.041062
H368	H	-0.265762	-0.324979	0.458938
H369	H	-0.709581	-0.858800	-0.102486
H370	H	-0.209581	-0.358800	0.397514
H371	H	-0.664723	-0.803747	-0.157438
H372	H	-0.164723	-0.303747	0.342562
C373	C	-0.127412	-0.738310	-0.597175
C374	C	0.372588	-0.238310	-0.097175
C375	C	-0.076340	-0.734679	-0.603639
C376	C	0.423660	-0.234679	-0.103639
C377	C	-0.044737	-0.766307	-0.577857
C378	C	0.455263	-0.266307	-0.077857
C379	C	-0.064207	-0.801565	-0.545611
C380	C	0.435793	-0.301565	-0.045611
C381	C	-0.115282	-0.805197	-0.539146
C382	C	0.384718	-0.305197	-0.039146
C383	C	-0.146884	-0.773569	-0.564928
C384	C	0.353116	-0.273569	-0.064928
H385	H	-0.061925	-0.708578	-0.627511
H386	H	0.438075	-0.208578	-0.127511
H387	H	-0.006928	-0.763618	-0.582644
H388	H	0.493072	-0.263618	-0.082644
H389	H	-0.040813	-0.824977	-0.526526
H390	H	0.459187	-0.324977	-0.026526
H391	H	-0.129696	-0.831298	-0.515274
H392	H	0.370304	-0.331298	-0.015274
H393	H	-0.184693	-0.776258	-0.560141
H394	H	0.315307	-0.276258	-0.060141
H395	H	-0.164274	-0.701388	-0.960437
H396	H	0.335726	-0.201388	-0.460437
H397	H	-0.164309	-0.478121	-0.164485
H398	H	0.335691	0.021879	0.335515
C399	C	-0.305483	-0.560029	-0.695624
C400	C	0.194517	-0.060029	-0.195624
C401	C	-0.285991	-0.524781	-0.727868
C402	C	0.214009	-0.024781	-0.227868
C403	C	-0.317574	-0.493143	-0.753660
C404	C	0.182426	0.006857	-0.253660
C405	C	-0.368650	-0.496753	-0.747210
C406	C	0.131350	0.003247	-0.247210
C407	C	-0.388144	-0.532003	-0.714964
C408	C	0.111856	-0.032003	-0.214964
C409	C	-0.356561	-0.563641	-0.689172
C410	C	0.143439	-0.063641	-0.189172
H411	H	-0.248180	-0.522107	-0.732644
H412	H	0.251820	-0.022107	-0.232644
H413	H	-0.303143	-0.467049	-0.777530
H414	H	0.196857	0.032951	-0.277530
H415	H	-0.392029	-0.473333	-0.766303
H416	H	0.107971	0.026667	-0.266303
H417	H	-0.425955	-0.534676	-0.710188
H418	H	0.074045	-0.034676	-0.210188
H419	H	-0.370992	-0.589735	-0.665302
H420	H	0.129008	-0.089735	-0.165302
H421	H	-0.164374	-0.701327	-0.473150
H422	H	0.335626	-0.201327	0.026850
H423	H	-0.164257	-0.701393	-1.045559
H424	H	0.335743	-0.201393	-0.545559
H425	H	-0.268723	-0.393001	-0.268566
H426	H	0.231277	0.106999	0.231434
H427	H	-0.959912	-0.701402	-0.164514
H428	H	-0.459912	-0.201402	0.335486
H429	H	-0.603324	-0.730047	-0.135785
H430	H	-0.103324	-0.230047	0.364215
H431	H	-0.297506	-0.262285	-0.297258
H432	H	0.202494	0.237715	0.202742
H433	H	-0.268511	-0.597044	-0.960404
H434	H	0.231489	-0.097044	-0.460404
C435	C	-0.276981	0.186109	-0.276826
C436	C	0.223019	0.686109	0.223174
C437	C	-0.312223	0.218396	-0.257301
C438	C	0.187777	0.718396	0.242699
C439	C	-0.343871	0.244209	-0.288853
C440	C	0.156129	0.744209	0.211147
C441	C	-0.340276	0.237734	-0.339931
C442	C	0.159724	0.737734	0.160069
C443	C	-0.305032	0.205446	-0.359459
C444	C	0.194968	0.705446	0.140541
C445	C	-0.273385	0.179633	-0.327906
C446	C	0.226615	0.679633	0.172094
H447	H	-0.314886	0.223190	-0.219488
H448	H	0.185114	0.723190	0.280512
H449	H	-0.369961	0.268111	-0.274397
H450	H	0.130039	0.768111	0.225603
H451	H	-0.363703	0.256843	-0.363288
H452	H	0.136297	0.756843	0.136712
H453	H	-0.302369	0.200652	-0.397272
H454	H	0.197631	0.700652	0.102728
H455	H	-0.247295	0.155731	-0.342363
H456	H	0.252705	0.655731	0.157637
H457	H	-0.164352	0.179390	-0.164561
H458	H	0.335648	0.679390	0.335439
C459	C	-0.276978	0.087580	-0.276814
C460	C	0.223022	0.587580	0.223186
C461	C	-0.328045	0.094064	-0.273056
C462	C	0.171955	0.594064	0.226944
C463	C	-0.359696	0.068267	-0.304604
C464	C	0.140304	0.568267	0.195396
C465	C	-0.340282	0.035988	-0.339911
C466	C	0.159718	0.535988	0.160089
C467	C	-0.289213	0.029503	-0.343671
C468	C	0.210787	0.529503	0.156329
C469	C	-0.257561	0.055299	-0.312122
C470	C	0.242439	0.555299	0.187878
H471	H	-0.342419	0.117960	-0.246918
H472	H	0.157581	0.617960	0.253082
H473	H	-0.397501	0.073068	-0.301820
H474	H	0.102499	0.573068	0.198180
H475	H	-0.363712	0.016892	-0.363264
H476	H	0.136288	0.516892	0.136736
H477	H	-0.274839	0.005606	-0.369808
H478	H	0.225161	0.505606	0.130192
H479	H	-0.219757	0.050499	-0.314906
H480	H	0.280243	0.550499	0.185094
H481	H	-1.045034	-0.701427	-0.164527
H482	H	-0.545034	-0.201427	0.335473
C483	C	-0.156195	-0.709535	-0.381339
C484	C	0.343805	-0.209535	0.118661
C485	C	-0.120928	-0.690094	-0.349082
C486	C	0.379072	-0.190094	0.150918
C487	C	-0.089332	-0.721722	-0.323293
C488	C	0.410668	-0.221722	0.176707
C489	C	-0.093003	-0.772791	-0.329762
C490	C	0.406997	-0.272791	0.170238
C491	C	-0.128271	-0.792235	-0.362021
C492	C	0.371729	-0.292235	0.137979
C493	C	-0.159868	-0.760606	-0.387810
C494	C	0.340132	-0.260606	0.112190
H495	H	-0.118209	-0.652287	-0.344292
H496	H	0.381791	-0.152287	0.155708
H497	H	-0.063224	-0.707329	-0.299412
H498	H	0.436776	-0.207329	0.200588
H499	H	-0.069614	-0.796204	-0.310671
H500	H	0.430386	-0.296204	0.189329
H501	H	-0.130990	-0.830041	-0.366811
H502	H	0.369010	-0.330041	0.133189
H503	H	-0.185976	-0.775000	-0.411690
H504	H	0.314024	-0.275000	0.088310
C505	C	-0.276849	-0.588771	-0.381291
C506	C	0.223151	-0.088771	0.118709
C507	C	-0.257382	-0.553518	-0.349022
C508	C	0.242618	-0.053518	0.150978
C509	C	-0.288987	-0.521895	-0.323194
C510	C	0.211013	-0.021895	0.176806
C511	C	-0.340058	-0.525524	-0.329634
C512	C	0.159942	-0.025524	0.170366
C513	C	-0.359528	-0.560778	-0.361904
C514	C	0.140472	-0.060778	0.138096
C515	C	-0.327923	-0.592402	-0.387732
C516	C	0.172077	-0.092402	0.112268
H517	H	-0.219574	-0.550830	-0.344254
H518	H	0.280426	-0.050830	0.155746
H519	H	-0.274574	-0.495797	-0.299305
H520	H	0.225426	0.004203	0.200695
H521	H	-0.363454	-0.502115	-0.310514
H522	H	0.136546	-0.002115	0.189486
H523	H	-0.397337	-0.563467	-0.366672
H524	H	0.102663	-0.063467	0.133328
H525	H	-0.342336	-0.618499	-0.411621
H526	H	0.157664	-0.118499	0.088379
H527	H	-0.164309	-0.392998	-0.164496
H528	H	0.335691	0.107002	0.335504
H529	H	-0.829189	-0.730117	-0.135814
H530	H	-0.329189	-0.230117	0.364186
C531	C	-0.305735	-0.170476	-0.305463
C532	C	0.194265	0.329524	0.194537
C533	C	-0.356798	-0.176907	-0.301697
C534	C	0.143202	0.323093	0.198303
C535	C	-0.388462	-0.151111	-0.333247
C536	C	0.111538	0.348889	0.166753
C537	C	-0.369062	-0.118884	-0.368563
C538	C	0.130938	0.381116	0.131437
C539	C	-0.317996	-0.112452	-0.372331
C540	C	0.182004	0.387548	0.127669
C541	C	-0.286332	-0.138248	-0.340781
C542	C	0.213668	0.361752	0.159219
H543	H	-0.371162	-0.200764	-0.275553
H544	H	0.128838	0.299236	0.224447
H545	H	-0.426265	-0.155873	-0.330457
H546	H	0.073735	0.344127	0.169543
H547	H	-0.392502	-0.099789	-0.391918
H548	H	0.107498	0.400211	0.108082
H549	H	-0.303633	-0.088595	-0.398475
H550	H	0.196367	0.411405	0.101525
H551	H	-0.248529	-0.133486	-0.343570
H552	H	0.251471	0.366514	0.156430
H553	H	-0.268497	-0.597061	-1.045512
H554	H	0.231503	-0.097061	-0.545512
H555	H	-0.164339	0.094283	-0.164556
H556	H	0.335661	0.594283	0.335444
H557	H	-0.135539	-0.177197	-0.135854
H558	H	0.364461	0.322803	0.364146
C559	C	-0.479401	-0.588710	-0.276816
C560	C	0.020599	-0.088710	0.223184
C561	C	-0.511616	-0.608167	-0.312115
C562	C	-0.011616	-0.108167	0.187885
C563	C	-0.537432	-0.576552	-0.343696
C564	C	-0.037432	-0.076552	0.156304
C565	C	-0.531033	-0.525480	-0.339978
C566	C	-0.031033	-0.025480	0.160022
C567	C	-0.498817	-0.506021	-0.304678
C568	C	0.001183	-0.006021	0.195322
C569	C	-0.473001	-0.537636	-0.273096
C570	C	0.026999	-0.037636	0.226904
H571	H	-0.516354	-0.645975	-0.314868
H572	H	-0.016354	-0.145975	0.185132
H573	H	-0.561281	-0.590957	-0.369828
H574	H	-0.061281	-0.090957	0.130172
H575	H	-0.550144	-0.502077	-0.363357
H576	H	-0.050144	-0.002077	0.136643
H577	H	-0.494079	-0.468212	-0.301924
H578	H	0.005921	0.031788	0.198076
H579	H	-0.449152	-0.523231	-0.246964
H580	H	0.050848	-0.023231	0.253036
H581	H	-0.297294	-0.568233	-0.603808
H582	H	0.202706	-0.068233	-0.103808
C583	C	-0.127333	-0.029738	-0.127678
C584	C	0.372667	0.470262	0.372322
C585	C	-0.076268	-0.036228	-0.131440
C586	C	0.423732	0.463772	0.368560
C587	C	-0.044610	-0.010433	-0.099896
C588	C	0.455390	0.489567	0.400104
C589	C	-0.064018	0.021850	-0.064590
C590	C	0.435982	0.521850	0.435410
C591	C	-0.115086	0.028341	-0.060826
C592	C	0.384914	0.528341	0.439174
C593	C	-0.146743	0.002547	-0.092370
C594	C	0.353257	0.502547	0.407630
H595	H	-0.061899	-0.060127	-0.157578
H596	H	0.438101	0.439873	0.342422
H597	H	-0.006806	-0.015239	-0.102683
H598	H	0.493194	0.484761	0.397317
H599	H	-0.040583	0.040945	-0.041239
H600	H	0.459417	0.540945	0.458761
H601	H	-0.129455	0.052241	-0.034689
H602	H	0.370545	0.552241	0.465311
H603	H	-0.184547	0.007352	-0.089584
H604	H	0.315453	0.507352	0.410416
C605	C	-0.127333	-0.128250	-0.127660
C606	C	0.372667	0.371750	0.372340
C607	C	-0.076267	-0.121827	-0.131410
C608	C	0.423733	0.378173	0.368590
C609	C	-0.044618	-0.147622	-0.099847
C610	C	0.455382	0.352378	0.400153
C611	C	-0.064034	-0.179841	-0.064533
C612	C	0.435966	0.320159	0.435467
C613	C	-0.115102	-0.186266	-0.060780
C614	C	0.384898	0.313734	0.439220
C615	C	-0.146752	-0.160470	-0.092344
C616	C	0.353248	0.339530	0.407656
H617	H	-0.061892	-0.097975	-0.157553
H618	H	0.438108	0.402025	0.342447
H619	H	-0.006813	-0.142866	-0.102625
H620	H	0.493187	0.357134	0.397375
H621	H	-0.040604	-0.198937	-0.041167
H622	H	0.459396	0.301063	0.458833
H623	H	-0.129477	-0.210117	-0.034637
H624	H	0.370523	0.289883	0.465363
H625	H	-0.184556	-0.165226	-0.089566
H626	H	0.315444	0.334774	0.410434
H627	H	-0.744071	-0.730093	-0.135801
H628	H	-0.244071	-0.230093	0.364199
C629	C	-0.127360	-0.738331	-0.836445
C630	C	0.372640	-0.238331	-0.336445
C631	C	-0.146826	-0.773585	-0.868712
C632	C	0.353174	-0.273585	-0.368712
C633	C	-0.115221	-0.805212	-0.894535
C634	C	0.384779	-0.305212	-0.394535
C635	C	-0.064150	-0.801585	-0.888092
C636	C	0.435850	-0.301585	-0.388092
C637	C	-0.044681	-0.766329	-0.855823
C638	C	0.455319	-0.266329	-0.355823
C639	C	-0.076286	-0.734702	-0.830000
C640	C	0.423714	-0.234702	-0.330000
H641	H	-0.184634	-0.776272	-0.873483
H642	H	0.315366	-0.276272	-0.373483
H643	H	-0.129634	-0.831311	-0.918422
H644	H	0.370366	-0.331311	-0.418422
H645	H	-0.040754	-0.824997	-0.907208
H646	H	0.459246	-0.324997	-0.407208
H647	H	-0.006873	-0.763643	-0.851052
H648	H	0.493127	-0.263643	-0.351052
H649	H	-0.061873	-0.708603	-0.806113
H650	H	0.438127	-0.208603	-0.306113
C651	C	-0.305457	-0.560052	-0.836371
C652	C	0.194543	-0.060052	-0.336371
C653	C	-0.356531	-0.563665	-0.829915
C654	C	0.143469	-0.063665	-0.329915
C655	C	-0.388119	-0.532024	-0.855699
C656	C	0.111881	-0.032024	-0.355699
C657	C	-0.368632	-0.496769	-0.887938
C658	C	0.131368	0.003231	-0.387938
C659	C	-0.317555	-0.493154	-0.894395
C660	C	0.182445	0.006846	-0.394395
C661	C	-0.285968	-0.524795	-0.868612
C662	C	0.214032	-0.024795	-0.368612
H663	H	-0.370959	-0.589764	-0.806049
H664	H	0.129041	-0.089764	-0.306049
H665	H	-0.425929	-0.534700	-0.850919
H666	H	0.074071	-0.034700	-0.350919
H667	H	-0.392015	-0.473346	-0.907025
H668	H	0.107985	0.026654	-0.407025
H669	H	-0.303127	-0.467054	-0.918262
H670	H	0.196873	0.032946	-0.418262
H671	H	-0.248157	-0.522119	-0.873392
H672	H	0.251843	-0.022119	-0.373392
H673	H	-0.297274	-0.568265	-0.744566
H674	H	0.202726	-0.068265	-0.244566
H675	H	-0.829266	-0.568292	-0.297349
H676	H	-0.329266	-0.068292	0.202651
H677	H	-0.297512	-0.121538	-0.297278
H678	H	0.202488	0.378462	0.202722
H679	H	-0.472626	-0.701258	-0.164472
H680	H	0.027374	-0.201258	0.335528
H681	H	-0.135588	-0.730110	-0.744622
H682	H	0.364412	-0.230110	-0.244622
H683	H	-1.045080	-0.597097	-0.268662
H684	H	-0.545080	-0.097097	0.231338
C685	C	-0.953274	-0.588857	-0.276861
C686	C	-0.453274	-0.088857	0.223139
C687	C	-0.959779	-0.537790	-0.273137
C688	C	-0.459779	-0.037790	0.226863
C689	C	-0.934002	-0.506151	-0.304709
C690	C	-0.434002	-0.006151	0.195291
C691	C	-0.901720	-0.525578	-0.340006
C692	C	-0.401720	-0.025578	0.159994
C693	C	-0.895213	-0.576647	-0.343731
C694	C	-0.395213	-0.076647	0.156269
C695	C	-0.920990	-0.608286	-0.312159
C696	C	-0.420990	-0.108286	0.187841
H697	H	-0.983678	-0.523407	-0.247007
H698	H	-0.483678	-0.023407	0.252993
H699	H	-0.938818	-0.468347	-0.301951
H700	H	-0.438818	0.031653	0.198049
H701	H	-0.882638	-0.502157	-0.363377
H702	H	-0.382638	-0.002157	0.136623
H703	H	-0.871315	-0.591030	-0.369861
H704	H	-0.371315	-0.091030	0.130139
H705	H	-0.916174	-0.646091	-0.314918
H706	H	-0.416174	-0.146091	0.185082
H707	H	-0.688511	-0.568248	-0.297342
H708	H	-0.188511	-0.068248	0.202658
H709	H	-0.603402	-0.568229	-0.297337
H710	H	-0.103402	-0.068229	0.202663
H711	H	-0.744160	-0.568268	-0.297340
H712	H	-0.244160	-0.068268	0.202660
H713	H	-0.297513	-0.036420	-0.297286
H714	H	0.202487	0.463580	0.202714
