data_functionalizedCrystal
_audit_creation_method	'MofGen! by Chris Wilmer'
_symmetry_space_group_name_H-M	'P1'
_symmetry_Int_Tables_number	1
_symmetry_cell_setting	triclinic
loop_
_symmetry_equiv_pos_as_xyz
  x,y,z
_cell_length_a	19.288864
_cell_length_b	14.421503
_cell_length_c	19.288865
_cell_angle_alpha	90.000948
_cell_angle_beta	83.136245
_cell_angle_gamma	90.021447
loop_
_atom_site_label
_atom_site_type_symbol
_atom_site_fract_x
_atom_site_fract_y
_atom_site_fract_z
O1	O	0.921353	0.077420	0.086638
O2	O	1.254686	0.410753	0.419971
O3	O	1.588019	0.744086	0.753305
O4	O	0.719092	0.077358	0.098327
O5	O	1.052425	0.410691	0.431660
O6	O	1.385759	0.744024	0.764993
O7	O	0.826067	0.077372	-0.008648
O8	O	1.159400	0.410705	0.324685
O9	O	1.492733	0.744039	0.658019
O10	O	0.814378	0.077405	0.193613
O11	O	1.147711	0.410738	0.526946
O12	O	1.481045	0.744072	0.860279
O13	O	0.826049	-0.076851	-0.008632
O14	O	1.159382	0.256482	0.324701
O15	O	1.492716	0.589815	0.658035
O16	O	0.719074	-0.076866	0.098343
O17	O	1.052408	0.256467	0.431676
O18	O	1.385741	0.589801	0.765009
O19	O	0.921335	-0.076804	0.086654
O20	O	1.254668	0.256529	0.419987
O21	O	1.588002	0.589863	0.753321
Cu22	Cu	0.820203	-0.090917	0.092500
Cu23	Cu	1.153536	0.242417	0.425833
Cu24	Cu	1.486870	0.575750	0.759166
Cu25	Cu	0.820224	0.091470	0.092481
Cu26	Cu	1.153557	0.424804	0.425814
Cu27	Cu	1.486891	0.758137	0.759148
O28	O	0.814360	-0.076818	0.193629
O29	O	1.147693	0.256515	0.526962
O30	O	1.481027	0.589848	0.860295
C31	C	0.693207	0.000238	0.097959
C32	C	1.026540	0.333571	0.431292
C33	C	1.359873	0.666904	0.764625
C34	C	0.616103	0.000213	0.096830
C35	C	0.949436	0.333547	0.430163
C36	C	1.282770	0.666880	0.763496
N37	N	0.820193	-0.219198	0.092513
N38	N	1.153527	0.114135	0.425846
N39	N	1.486860	0.447469	0.759179
C40	C	0.571407	0.000238	0.159598
C41	C	0.904740	0.333571	0.492931
C42	C	1.238073	0.666905	0.826264
C43	C	0.498960	0.000248	0.158537
C44	C	0.832293	0.333581	0.491870
C45	C	1.165626	0.666915	0.825204
C46	C	0.471212	0.000252	0.094705
C47	C	0.804545	0.333585	0.428038
C48	C	1.137879	0.666919	0.761371
C49	C	0.515918	0.000222	0.031929
C50	C	0.849252	0.333555	0.365262
C51	C	1.182585	0.666889	0.698595
C52	C	0.588364	0.000202	0.032991
C53	C	0.921697	0.333536	0.366324
C54	C	1.255030	0.666869	0.699658
C55	C	0.362956	0.054306	0.044520
C56	C	0.696290	0.387640	0.377853
C57	C	1.029623	0.720973	0.711187
C58	C	0.290512	0.054331	0.043460
C59	C	0.623845	0.387665	0.376793
C60	C	0.957179	0.720998	0.710127
C61	C	0.247767	0.000308	0.091425
C62	C	0.581100	0.333641	0.424758
C63	C	0.914433	0.666974	0.758092
C64	C	0.277473	-0.053729	0.140462
C65	C	0.610806	0.279604	0.473795
C66	C	0.944140	0.612937	0.807128
C67	C	0.349919	-0.053749	0.141524
C68	C	0.683252	0.279585	0.474857
C69	C	1.016585	0.612918	0.808191
C70	C	0.392658	0.000272	0.093546
C71	C	0.725991	0.333606	0.426879
C72	C	1.059325	0.666939	0.760212
C73	C	0.124514	0.000342	0.153047
C74	C	0.457848	0.333675	0.486381
C75	C	0.791181	0.667009	0.819714
C76	C	0.052066	0.000346	0.151984
C77	C	0.385400	0.333680	0.485317
C78	C	0.718733	0.667013	0.818650
C79	C	0.069026	0.000329	0.025374
C80	C	0.402360	0.333663	0.358707
C81	C	0.735693	0.666996	0.692040
C82	C	0.141473	0.000316	0.026439
C83	C	0.474806	0.333649	0.359772
C84	C	0.808140	0.666982	0.693106
C85	C	0.169212	0.000326	0.090277
C86	C	0.502546	0.333660	0.423611
C87	C	0.835879	0.666993	0.756944
C88	C	0.770720	-0.468858	0.141956
C89	C	1.104053	-0.135525	0.475289
C90	C	1.437386	0.197808	0.808622
C91	C	0.833441	-0.530639	0.155241
C92	C	1.166774	-0.197305	0.488574
C93	C	1.500107	0.136028	0.821907
C94	C	0.820210	-0.408359	0.092496
C95	C	1.153544	-0.075026	0.425829
C96	C	1.486877	0.258307	0.759163
C97	C	0.757505	-0.530673	0.079227
C98	C	1.090839	-0.197339	0.412560
C99	C	1.424172	0.135994	0.745894
C100	C	0.820221	-0.591081	0.092481
C101	C	1.153554	-0.257747	0.425815
C102	C	1.486888	0.075586	0.759148
C103	C	0.882963	-0.468779	0.105812
C104	C	1.216296	-0.135446	0.439146
C105	C	1.549630	0.197888	0.772479
C106	C	0.806986	-0.468808	0.029771
C107	C	1.140320	-0.135474	0.363105
C108	C	1.473653	0.197859	0.696438
C109	C	0.869753	-0.530560	0.043030
C110	C	1.203086	-0.197227	0.376363
C111	C	1.536419	0.136106	0.709696
C112	C	0.820203	-0.303098	0.092506
C113	C	1.153536	0.030235	0.425839
C114	C	1.486870	0.363568	0.759173
C115	C	0.820235	-0.696340	0.092471
C116	C	1.153569	-0.363006	0.425804
C117	C	1.486902	-0.029673	0.759137
C118	C	0.947220	0.000318	0.087022
C119	C	1.280553	0.333651	0.420355
C120	C	1.613887	0.666985	0.753689
C121	C	1.024324	0.000349	0.088151
C122	C	1.357657	0.333682	0.421484
C123	C	1.690990	0.667015	0.754818
C124	C	0.825682	0.000257	-0.034516
C125	C	1.159015	0.333591	0.298817
C126	C	1.492348	0.666924	0.632150
C127	C	0.824553	0.000249	-0.111620
C128	C	1.157886	0.333582	0.221713
C129	C	1.491219	0.666916	0.555047
N130	N	0.820239	0.219752	0.092463
N131	N	1.153572	0.553085	0.425796
N132	N	1.486906	0.886418	0.759129
C133	C	0.887321	0.000264	-0.156316
C134	C	1.220654	0.333597	0.177017
C135	C	1.553987	0.666930	0.510350
C136	C	0.886260	0.000278	-0.228763
C137	C	1.219593	0.333611	0.104570
C138	C	1.552927	0.666945	0.437903
C139	C	0.822428	0.000259	-0.256511
C140	C	1.155761	0.333592	0.076822
C141	C	1.489094	0.666926	0.410156
C142	C	0.759652	0.000250	-0.211805
C143	C	1.092985	0.333583	0.121529
C144	C	1.426318	0.666916	0.454862
C145	C	0.760714	0.000244	-0.139359
C146	C	1.094047	0.333578	0.193974
C147	C	1.427381	0.666911	0.527307
C148	C	0.772242	-0.053778	-0.364793
C149	C	1.105575	0.279556	-0.031459
C150	C	1.438909	0.612889	0.301874
C151	C	0.771182	-0.053778	-0.437237
C152	C	1.104515	0.279555	-0.103904
C153	C	1.437849	0.612888	0.229429
C154	C	0.819148	0.000279	-0.479956
C155	C	1.152481	0.333612	-0.146623
C156	C	1.485815	0.666945	0.186710
C157	C	0.868186	0.054324	-0.450224
C158	C	1.201519	0.387658	-0.116891
C159	C	1.534852	0.720991	0.216443
C160	C	0.869248	0.054319	-0.377778
C161	C	1.202581	0.387653	-0.044445
C162	C	1.535915	0.720986	0.288888
C163	C	0.821269	0.000265	-0.335065
C164	C	1.154602	0.333598	-0.001732
C165	C	1.487935	0.666932	0.331602
C166	C	0.880770	0.000310	-0.603209
C167	C	1.214104	0.333644	-0.269875
C168	C	1.547437	0.666977	0.063458
C169	C	0.879707	0.000330	-0.675657
C170	C	1.213040	0.333664	-0.342323
C171	C	1.546374	0.666997	-0.008990
C172	C	0.753097	0.000293	-0.658697
C173	C	1.086430	0.333626	-0.325363
C174	C	1.419763	0.666959	0.007970
C175	C	0.754162	0.000282	-0.586250
C176	C	1.087495	0.333615	-0.252917
C177	C	1.420829	0.666949	0.080417
C178	C	0.818001	0.000286	-0.558511
C179	C	1.151334	0.333620	-0.225178
C180	C	1.484667	0.666953	0.108156
C181	C	0.814745	0.000298	0.219497
C182	C	1.148078	0.333632	0.552830
C183	C	1.481412	0.666965	0.886164
C184	C	0.815874	0.000313	0.296601
C185	C	1.149207	0.333646	0.629934
C186	C	1.482541	0.666980	0.963267
H187	H	0.462561	0.000266	0.209652
H188	H	0.795894	0.333599	0.542985
H189	H	1.129228	0.666932	0.876318
O190	O	0.792136	-0.432791	-0.040460
O191	O	1.125469	-0.099457	0.292873
O192	O	1.458803	0.233876	0.626206
H193	H	0.740026	-0.457534	-0.051349
H194	H	1.073359	-0.124201	0.281984
H195	H	1.406692	0.209132	0.615317
H196	H	0.046435	0.000390	-0.026600
H197	H	0.379769	0.333723	0.306734
H198	H	0.713102	0.667057	0.640067
O199	O	0.690805	0.000228	-0.241732
O200	O	1.024138	0.333561	0.091601
O201	O	1.357471	0.666894	0.424935
H202	H	0.647335	0.000223	-0.198477
H203	H	0.980668	0.333556	0.134856
H204	H	1.314001	0.666890	0.468190
O205	O	0.189689	0.000297	-0.041261
O206	O	0.523022	0.333630	0.292073
O207	O	0.856355	0.666964	0.625406
H208	H	0.158225	0.000307	-0.085827
H209	H	0.491559	0.333640	0.247506
H210	H	0.824892	0.666974	0.580840
O211	O	0.258473	0.112598	-0.009433
O212	O	0.591806	0.445931	0.323900
O213	O	0.925139	0.779265	0.657234
H214	H	0.300367	0.150142	-0.042620
H215	H	0.633700	0.483475	0.290714
H216	H	0.967033	0.816809	0.624047
O217	O	0.956171	0.000294	-0.126395
O218	O	1.289505	0.333628	0.206938
O219	O	1.622838	0.666961	0.540272
H220	H	0.999640	0.000321	-0.169652
H221	H	1.332974	0.333654	0.163682
H222	H	1.666307	0.666987	0.497015
O223	O	0.231379	-0.112003	0.192201
O224	O	0.564712	0.221330	0.525534
O225	O	0.898046	0.554663	0.858867
H226	H	0.246220	-0.186071	0.185246
H227	H	0.579553	0.147262	0.518579
H228	H	0.912887	0.480596	0.851913
O229	O	0.409059	0.112583	-0.007213
O230	O	0.742392	0.445917	0.326120
O231	O	1.075726	0.779250	0.659454
H232	H	0.376232	0.150173	-0.041480
H233	H	0.709566	0.483507	0.291854
H234	H	1.042899	0.816840	0.625187
H235	H	0.493322	0.000238	-0.020044
H236	H	0.826655	0.333571	0.313289
H237	H	1.159988	0.666904	0.646623
H238	H	0.147101	0.000337	0.205028
H239	H	0.480434	0.333670	0.538362
H240	H	0.813767	0.667004	0.871695
O241	O	0.636579	0.000180	-0.034711
O242	O	0.969913	0.333514	0.298623
O243	O	1.303246	0.666847	0.631956
H244	H	0.605117	0.000187	-0.079278
H245	H	0.938451	0.333520	0.254056
H246	H	1.271784	0.666854	0.587389
H247	H	0.728909	-0.441766	0.183815
H248	H	1.062243	-0.108433	0.517149
H249	H	1.395576	0.224901	0.850482
H250	H	0.374103	-0.097750	0.181449
H251	H	0.707436	0.235583	0.514783
H252	H	1.040769	0.568916	0.848116
H253	H	0.704472	-0.557862	0.068011
H254	H	1.037806	-0.224528	0.401344
H255	H	1.371139	0.108805	0.734677
H256	H	0.844636	-0.557798	0.208279
H257	H	1.177969	-0.224464	0.541612
H258	H	1.511302	0.108869	0.874946
O259	O	0.953228	-0.432932	0.120758
O260	O	1.286561	-0.099599	0.454092
O261	O	1.619895	0.233735	0.787425
H262	H	0.952662	-0.355972	0.120675
H263	H	1.285996	-0.022638	0.454008
H264	H	1.619329	0.310695	0.787342
O265	O	0.925251	-0.566242	-0.012383
O266	O	1.258585	-0.232908	0.320950
O267	O	1.591918	0.100425	0.654283
H268	H	0.977222	-0.541320	-0.001205
H269	H	1.310556	-0.207987	0.332128
H270	H	1.643889	0.125346	0.665462
H271	H	0.937375	0.000294	-0.265162
H272	H	1.270708	0.333627	0.068171
H273	H	1.604041	0.666960	0.401505
H274	H	0.733180	-0.097802	-0.330016
H275	H	1.066514	0.235531	0.003318
H276	H	1.399847	0.568864	0.336651
H277	H	0.909175	0.098327	-0.353573
H278	H	1.242508	0.431660	-0.020240
H279	H	1.575842	0.764994	0.313093
O280	O	0.003857	0.000371	0.219690
O281	O	0.337190	0.333704	0.553023
O282	O	0.670523	0.667038	0.886356
H283	H	-0.029575	-0.062486	0.222246
H284	H	0.303758	0.270847	0.555580
H285	H	0.637092	0.604180	0.888913
O286	O	0.601317	0.000234	0.228454
O287	O	0.934651	0.333567	0.561787
O288	O	1.267984	0.666900	0.895121
H289	H	0.633942	0.063086	0.231969
H290	H	0.967275	0.396419	0.565302
H291	H	1.300609	0.729753	0.898636
O292	O	0.693010	0.000211	-0.091148
O293	O	1.026343	0.333544	0.242186
O294	O	1.359676	0.666878	0.575519
H295	H	0.662453	0.063057	-0.100983
H296	H	0.995786	0.396391	0.232351
H297	H	1.329119	0.729724	0.565684
H298	H	0.907244	0.098343	-0.485005
H299	H	1.240577	0.431677	-0.151672
H300	H	1.573911	0.765010	0.181662
H301	H	0.932751	0.000318	-0.580622
H302	H	1.266085	0.333652	-0.247289
H303	H	1.599418	0.666985	0.086044
O304	O	0.947409	0.000339	-0.723871
O305	O	1.280743	0.333672	-0.390538
O306	O	1.614076	0.667005	-0.057205
H307	H	0.991975	0.000329	-0.692408
H308	H	1.325309	0.333662	-0.359074
H309	H	1.658642	0.666996	-0.025741
H310	H	0.701123	0.000282	-0.681288
H311	H	1.034457	0.333615	-0.347954
H312	H	1.367790	0.666948	-0.014621
O313	O	0.686462	0.000243	-0.538034
O314	O	1.019796	0.333576	-0.204701
O315	O	1.353129	0.666910	0.128632
H316	H	0.641896	0.000221	-0.569498
H317	H	0.975229	0.333554	-0.236164
H318	H	1.308563	0.666888	0.097169
H319	H	0.731250	-0.097780	-0.461439
H320	H	1.064583	0.235553	-0.128106
H321	H	1.397916	0.568887	0.205228
