data_functionalizedCrystal
_audit_creation_method	'MofGen! by Chris Wilmer'
_symmetry_space_group_name_H-M	'P1'
_symmetry_Int_Tables_number	1
_symmetry_cell_setting	triclinic
loop_
_symmetry_equiv_pos_as_xyz
  x,y,z
_cell_length_a	14.908782
_cell_length_b	12.594516
_cell_length_c	14.908308
_cell_angle_alpha	86.729931
_cell_angle_beta	83.240320
_cell_angle_gamma	86.718597
loop_
_atom_site_label
_atom_site_type_symbol
_atom_site_fract_x
_atom_site_fract_y
_atom_site_fract_z
Zn1	Zn	1.354288	-0.545259	0.431813
Zn2	Zn	1.362946	-0.713550	0.280464
Zn3	Zn	1.211661	-0.525889	0.289217
Zn4	Zn	1.202919	-0.713491	0.440525
O5	O	1.282954	-0.624547	0.360505
O6	O	1.482098	-0.575714	0.404427
O7	O	1.350160	-0.680575	0.154963
O8	O	1.230615	-0.379517	0.308150
O9	O	1.488459	-0.699357	0.293232
O10	O	1.335403	-0.393747	0.412914
O11	O	1.239011	-0.542701	0.161393
O12	O	1.083840	-0.542644	0.316598
O13	O	1.215717	-0.699256	0.566032
O14	O	1.077417	-0.680474	0.427763
O15	O	1.326927	-0.575657	0.559631
O16	O	1.341684	-0.862484	0.301680
O17	O	1.224113	-0.862441	0.419276
C18	C	1.047786	-0.609452	0.374076
C19	C	0.947180	-0.603021	0.379903
C20	C	0.764762	-0.719488	0.274889
C21	C	0.670233	-0.713449	0.280361
C22	C	0.663591	-0.584910	0.396324
C23	C	0.758120	-0.590949	0.390852
C24	C	0.808702	-0.658239	0.330131
C25	C	0.903233	-0.664272	0.324655
C26	C	0.896589	-0.535740	0.440622
C27	C	0.802061	-0.529700	0.446094
C28	C	1.282913	-0.901085	0.360492
C29	C	1.282976	-1.019396	0.360511
C30	C	1.346989	-1.088642	0.296611
C31	C	1.364338	-1.166059	0.377949
C32	C	1.265738	-1.152789	0.279220
C33	C	1.300364	-1.095260	0.441890
C34	C	1.201729	-1.081977	0.343107
C35	C	1.219043	-1.159363	0.424504
C36	C	1.519039	-0.639703	0.346881
C37	C	1.619644	-0.646161	0.341076
C38	C	1.269381	-0.639611	0.596592
C39	C	1.263597	-0.646030	0.697199
C40	C	1.283018	-0.346933	0.360537
C41	C	1.283046	-0.228630	0.360550
C42	C	1.296526	-0.609469	0.125333
C43	C	1.302485	-0.602762	0.024717
C44	C	1.368529	-0.529363	0.879585
C45	C	1.363097	-0.535391	0.974114
C46	C	1.247298	-0.664107	0.980786
C47	C	1.252730	-0.658079	0.886257
C48	C	1.313348	-0.590706	0.835660
C49	C	1.318784	-0.584684	0.741130
C50	C	1.202981	-0.713394	0.747804
C51	C	1.197549	-0.719422	0.842332
H52	H	0.932376	-0.485861	0.485600
H53	H	1.401129	-1.057597	0.242619
O54	O	1.446403	-1.209813	0.395388
C55	C	1.513666	-1.173747	0.327855
H56	H	1.481509	-1.147427	0.263988
H57	H	1.547207	-1.103620	0.352763
C58	C	1.624769	-1.296962	0.385154
C59	C	1.585274	-1.264643	0.306709
H60	H	1.668943	-1.353028	0.372112
H61	H	1.579454	-1.321258	0.430654
H62	H	1.652713	-1.238514	0.405902
H63	H	1.557321	-1.323086	0.285969
H64	H	1.630586	-1.240359	0.261205
O65	O	1.188466	-0.729683	1.029848
C66	C	1.209559	-0.835571	1.005633
H67	H	1.248293	-0.835653	0.934988
H68	H	1.253032	-0.877787	1.056149
C69	C	1.073980	-0.894000	1.093139
C70	C	1.121547	-0.894100	1.006369
H71	H	1.019691	-0.930107	1.093597
H72	H	1.059770	-0.822662	1.109456
H73	H	1.110217	-0.929178	1.135226
H74	H	1.085314	-0.858911	0.964286
H75	H	1.135748	-0.965434	0.990045
H76	H	1.133012	-1.045238	0.328338
O77	O	0.752819	-0.464482	0.505123
C78	C	0.694810	-0.525416	0.566681
H79	H	0.682484	-0.603076	0.535470
H80	H	0.727398	-0.543828	0.631633
C81	C	0.619212	-0.366815	0.626680
C82	C	0.604067	-0.462194	0.588343
H83	H	0.563239	-0.327817	0.640046
H84	H	0.658296	-0.325762	0.585210
H85	H	0.646371	-0.382172	0.680802
H86	H	0.576920	-0.446836	0.534217
H87	H	0.564977	-0.503244	0.629805
H88	H	1.148194	-0.774273	0.883541
H89	H	1.417891	-0.474511	0.838388
O90	O	1.154399	-1.196224	0.488937
C91	C	1.091457	-1.250849	0.447782
H92	H	1.093052	-1.222043	0.373746
H93	H	1.109683	-1.339997	0.452243
C94	C	0.993967	-1.264383	0.587741
C95	C	0.995921	-1.228997	0.496811
H96	H	0.935037	-1.250909	0.617987
H97	H	1.036374	-1.227585	0.615470
H98	H	1.009160	-1.338671	0.591447
H99	H	0.980740	-1.154709	0.493107
H100	H	0.953510	-1.265783	0.469083
O101	O	1.416794	-0.475767	1.016638
C102	C	1.471441	-0.414992	0.951706
H103	H	1.478439	-0.454492	0.884138
H104	H	1.438887	-0.331390	0.943574
C105	C	1.557063	-0.359665	1.066025
C106	C	1.565664	-0.408184	0.983039
H107	H	1.615183	-0.355461	1.085353
H108	H	1.520245	-0.400607	1.109772
H109	H	1.529931	-0.290001	1.059237
H110	H	1.592785	-0.477851	0.989830
H111	H	1.602489	-0.367254	0.939294
O112	O	1.317923	-1.064841	0.523877
C113	C	1.317688	-0.952816	0.522862
H114	H	1.331950	-0.919587	0.450151
H115	H	1.248746	-0.919936	0.553574
C116	C	1.373781	-0.960558	0.667789
C117	C	1.391305	-0.919747	0.578485
H118	H	1.419188	-0.940158	0.702104
H119	H	1.373936	-1.036032	0.668476
H120	H	1.316328	-0.933155	0.693371
H121	H	1.448752	-0.947161	0.552902
H122	H	1.391161	-0.844276	0.577796
O123	O	1.248411	-1.183076	0.197114
C124	C	1.316046	-1.147093	0.129938
H125	H	1.348933	-1.076446	0.154782
H126	H	1.369470	-1.214167	0.115114
C127	C	1.232941	-1.199383	0.012510
C128	C	1.273329	-1.112607	0.043021
H129	H	1.206593	-1.178115	-0.041106
H130	H	1.187375	-1.223630	0.057767
H131	H	1.277468	-1.255271	0.000164
H132	H	1.228800	-1.056728	0.055378
H133	H	1.318886	-1.088351	-0.002236
O134	O	1.377541	-0.519169	0.691887
C135	C	1.329156	-0.443619	0.640209
H136	H	1.261373	-0.475864	0.630001
H137	H	1.317124	-0.366432	0.677226
C138	C	1.467373	-0.382199	0.560083
C139	C	1.384124	-0.421806	0.547539
H140	H	1.501280	-0.368739	0.502921
H141	H	1.499972	-0.433095	0.594902
H142	H	1.457334	-0.317881	0.590933
H143	H	1.394163	-0.486130	0.516700
H144	H	1.351528	-0.370920	0.512713
H145	H	1.158051	-0.763347	0.712030
H146	H	0.622391	-0.530135	0.445767
O147	O	0.813764	-0.784937	0.215887
C148	C	0.754710	-0.837679	0.168281
H149	H	0.685201	-0.839491	0.209247
H150	H	0.748597	-0.793553	0.100175
C151	C	0.877730	-0.950224	0.102624
C152	C	0.792359	-0.952458	0.152943
H153	H	0.900954	-1.021024	0.093158
H154	H	0.917516	-0.914689	0.134694
H155	H	0.872624	-0.913448	0.045874
H156	H	0.797468	-0.989223	0.209695
H157	H	0.752574	-0.988003	0.120882
H158	H	0.944416	-0.719060	0.275211
H159	H	0.634460	-0.763325	0.235379
