data_functionalizedCrystal
_audit_creation_method	'MofGen! by Chris Wilmer'
_symmetry_space_group_name_H-M	'P1'
_symmetry_Int_Tables_number	1
_symmetry_cell_setting	triclinic
loop_
_symmetry_equiv_pos_as_xyz
  x,y,z
_cell_length_a	15.944551
_cell_length_b	16.992695
_cell_length_c	15.455313
_cell_angle_alpha	87.152573
_cell_angle_beta	92.676985
_cell_angle_gamma	87.083481
loop_
_atom_site_label
_atom_site_type_symbol
_atom_site_fract_x
_atom_site_fract_y
_atom_site_fract_z
O1	O	-1.124754	-0.097702	-0.072040
O2	O	-0.881041	-0.110169	-0.072062
O3	O	-1.001920	0.010207	-0.072045
O4	O	-1.003875	-0.218078	-0.072058
O5	O	-0.995006	0.003352	0.072217
O6	O	-0.874127	-0.117024	0.072199
O7	O	-1.117839	-0.104557	0.072221
Cu8	Cu	-0.995352	-0.111417	0.085382
Cu9	Cu	-1.003529	-0.103310	-0.085223
O10	O	-0.996960	-0.224933	0.072203
C11	C	-0.995949	0.035992	0.000086
C12	C	-0.988449	0.123037	0.000085
C13	C	-0.846255	-0.113079	0.000066
C14	C	-0.752906	-0.111527	0.000058
C15	C	-1.152625	-0.101647	0.000091
C16	C	-1.245975	-0.103199	0.000093
C17	C	-0.532795	-0.033204	0.000079
C18	C	-0.477623	-0.066195	-0.071051
C19	C	-0.581991	-0.108720	0.000068
C20	C	-0.470830	-0.072971	0.071179
C21	C	-0.416895	-0.106003	0.000082
C22	C	-0.528052	-0.141729	-0.071121
C23	C	-0.521261	-0.148498	0.071173
C24	C	-0.466111	-0.181543	0.000025
C25	C	-0.677099	-0.110283	0.000059
C26	C	-0.321790	-0.104446	0.000084
C27	C	-1.002931	-0.250718	0.000071
C28	C	-1.010431	-0.337762	0.000066
N29	N	-0.989607	-0.117118	0.205377
C30	C	-1.060814	0.173273	0.000092
C31	C	-1.053762	0.255060	0.000083
C32	C	-0.974345	0.286609	0.000073
C33	C	-0.901975	0.236367	0.000063
C34	C	-0.909028	0.154581	0.000066
C35	C	-0.945114	0.530209	0.000059
C36	C	-0.938067	0.612001	0.000059
C37	C	-1.089855	0.630689	0.000077
C38	C	-1.096900	0.548901	0.000085
C39	C	-1.024531	0.498666	0.000070
N40	N	-0.967135	0.370209	0.000067
N41	N	-1.031742	0.415068	0.000070
N42	N	-1.009280	-0.097602	-0.205218
C43	C	-1.040980	-0.065997	0.250778
C44	C	-1.036644	-0.070316	0.341586
C45	C	-0.980937	-0.125761	0.386990
C46	C	-0.929558	-0.176884	0.341582
C47	C	-0.933890	-0.172561	0.250776
C48	C	-0.962233	-0.144402	0.658568
C49	C	-0.957906	-0.148723	0.749380
C50	C	-1.064992	-0.042153	0.749378
C51	C	-1.069323	-0.037838	0.658571
C52	C	-1.017941	-0.088958	0.613171
N53	N	-0.976505	-0.130179	0.479809
N54	N	-1.022369	-0.084536	0.520353
H55	H	-0.458253	-0.031397	-0.131184
H56	H	-0.540650	-0.183270	0.131308
H57	H	-0.884195	-0.222026	0.378555
C58	C	-0.866476	0.475777	-0.000081
C59	C	-0.822519	0.493574	-0.074290
C60	C	-0.750063	0.443452	-0.074440
H61	H	-0.881925	0.422524	-0.000124
H62	H	-0.831685	0.482970	0.050199
H63	H	-0.857303	0.486374	-0.124557
H64	H	-0.807049	0.546819	-0.074262
H65	H	-0.715272	0.450646	-0.024160
H66	H	-0.765520	0.390202	-0.074481
H67	H	-0.720225	0.455526	-0.124785
H68	H	-1.114684	0.007309	0.621604
C69	C	-0.561564	-0.180409	-0.151366
C70	C	-0.649274	-0.181360	-0.150466
C71	C	-0.680177	-0.216973	-0.224378
H72	H	-0.538258	-0.232959	-0.151650
H73	H	-0.546347	-0.151358	-0.201836
H74	H	-0.664484	-0.210411	-0.100010
H75	H	-0.672603	-0.128820	-0.150195
H76	H	-0.664960	-0.187922	-0.274848
H77	H	-0.656865	-0.269521	-0.224656
H78	H	-0.739692	-0.217616	-0.223781
H79	H	-0.561929	0.029473	-0.000005
H80	H	-0.850101	0.113679	0.000060
C81	C	-0.437470	-0.034053	0.151331
C82	C	-0.471471	0.043577	0.150998
C83	C	-0.440771	0.079455	0.224821
H84	H	-0.377927	-0.033697	0.151106
H85	H	-0.453140	-0.062727	0.201865
H86	H	-0.455796	0.072243	0.100479
H87	H	-0.531012	0.043243	0.151237
H88	H	-0.456440	0.050781	0.275354
H89	H	-0.381228	0.079805	0.224589
H90	H	-0.463841	0.132127	0.224609
C91	C	-1.147071	0.139075	-0.000078
C92	C	-1.194688	0.168115	-0.074307
C93	C	-1.274149	0.136624	-0.074504
H94	H	-1.174795	0.153913	0.050170
H95	H	-1.140946	0.083171	-0.000124
H96	H	-1.200815	0.224008	-0.074254
H97	H	-1.166990	0.153279	-0.124568
H98	H	-1.268025	0.080720	-0.074550
H99	H	-1.301866	0.151464	-0.024252
H100	H	-1.306464	0.156317	-0.124871
C101	C	-1.132313	0.309646	-0.000089
C102	C	-1.136274	0.360648	-0.074324
C103	C	-1.208634	0.410935	-0.074521
H104	H	-1.130387	0.339633	0.050156
H105	H	-1.180642	0.279169	-0.000126
H106	H	-1.087958	0.391122	-0.074279
H107	H	-1.138214	0.330683	-0.124580
H108	H	-1.256963	0.380458	-0.074558
H109	H	-1.206702	0.440916	-0.024273
H110	H	-1.211335	0.445541	-0.124892
C111	C	-0.815736	0.270583	-0.000129
C112	C	-0.775234	0.248592	-0.074365
C113	C	-0.695793	0.280104	-0.074575
H114	H	-0.783195	0.250976	0.050115
H115	H	-0.821867	0.326492	-0.000174
H116	H	-0.769099	0.192694	-0.074311
H117	H	-0.807750	0.268198	-0.124621
H118	H	-0.701923	0.336013	-0.074621
H119	H	-0.663260	0.260495	-0.024328
H120	H	-0.668305	0.265194	-0.124947
H121	H	-0.437162	-0.244278	-0.000019
H122	H	-1.161570	0.523220	0.000093
H123	H	-1.078476	-0.028689	0.378551
C124	C	-1.168403	0.685278	-0.000096
C125	C	-1.172356	0.736284	-0.074329
C126	C	-1.244713	0.786575	-0.074527
H127	H	-1.166478	0.715262	0.050150
H128	H	-1.216735	0.654805	-0.000138
H129	H	-1.124037	0.766754	-0.074278
H130	H	-1.174296	0.706322	-0.124587
H131	H	-1.293045	0.756102	-0.074569
H132	H	-1.242780	0.816554	-0.024278
H133	H	-1.247408	0.821183	-0.124897
H134	H	-1.106824	-0.000533	0.786351
C135	C	-0.897325	-0.208941	0.798521
C136	C	-0.853233	-0.252768	0.739328
C137	C	-0.797413	-0.308236	0.784565
H138	H	-0.927939	-0.243366	0.833939
H139	H	-0.858742	-0.182408	0.833935
H140	H	-0.891811	-0.279301	0.703929
H141	H	-0.822602	-0.218366	0.703908
H142	H	-0.758830	-0.281703	0.819979
H143	H	-0.828034	-0.342655	0.819981
H144	H	-0.767484	-0.337975	0.744409
C145	C	-0.851910	0.646406	0.000090
C146	C	-0.861226	0.728781	0.000119
C147	C	-0.781882	0.760502	0.000163
H148	H	-0.824224	0.631642	-0.050208
H149	H	-0.819457	0.626817	0.050412
H150	H	-0.893666	0.748363	-0.050198
H151	H	-0.888899	0.743567	0.050414
H152	H	-0.749429	0.740913	0.050486
H153	H	-0.754202	0.745732	-0.050136
H154	H	-0.788192	0.816395	0.000191
C155	C	-1.101488	-0.005718	0.201643
C156	C	-1.145533	0.038141	0.260845
C157	C	-1.201271	0.093687	0.215617
H158	H	-1.140111	-0.032165	0.166206
H159	H	-1.070790	0.028669	0.166250
H160	H	-1.176229	0.003758	0.296224
H161	H	-1.106932	0.064605	0.296284
H162	H	-1.170573	0.128074	0.180223
H163	H	-1.239888	0.067233	0.180181
H164	H	-1.231156	0.123457	0.255778
H165	H	-0.920397	-0.186027	0.621611
H166	H	-0.892055	-0.214188	0.213811
