data_functionalizedCrystal
_audit_creation_method	'MofGen! by Chris Wilmer'
_symmetry_space_group_name_H-M	'P1'
_symmetry_Int_Tables_number	1
_symmetry_cell_setting	triclinic
loop_
_symmetry_equiv_pos_as_xyz
  x,y,z
_cell_length_a	17.917603
_cell_length_b	31.640172
_cell_length_c	17.917603
_cell_angle_alpha	90.006769
_cell_angle_beta	60.138055
_cell_angle_gamma	63.032812
loop_
_atom_site_label
_atom_site_type_symbol
_atom_site_fract_x
_atom_site_fract_y
_atom_site_fract_z
Zr1	Zr	0.806770	0.431294	-0.128959
O2	O	0.951815	0.370647	-0.249509
O3	O	0.654539	0.446988	-0.087304
O4	O	0.796390	0.454645	-0.242711
O5	O	0.820659	0.360246	0.023139
O6	O	0.796376	0.524201	-0.242694
O7	O	0.809965	0.362989	-0.094102
O8	O	0.542631	0.510504	0.035300
O9	O	1.074404	0.373943	-0.254855
O10	O	0.719805	0.509091	-0.075205
O11	O	0.727796	0.455135	0.012279
O12	O	0.894807	0.464150	-0.170693
O13	O	0.902798	0.410194	-0.083209
Zr14	Zr	0.823804	0.537853	0.058053
Zr15	Zr	0.806748	0.542228	-0.128933
Zr16	Zr	0.823826	0.426919	0.058027
Zr17	Zr	1.002284	0.436552	-0.137486
Zr18	Zr	0.628290	0.532595	0.066580
O19	O	0.976035	0.522160	0.016398
O20	O	0.951783	0.528381	-0.249472
O21	O	0.976066	0.364425	0.016361
O22	O	0.678759	0.598501	0.178603
O23	O	0.654507	0.604722	-0.087267
O24	O	0.678790	0.440766	0.178566
O25	O	0.809915	0.608901	-0.094045
O26	O	0.834184	0.514502	0.171805
O27	O	0.834198	0.444946	0.171788
O28	O	0.820609	0.606158	0.023196
O29	O	1.074386	0.462121	-0.254835
O30	O	0.556188	0.507026	0.183929
O31	O	0.556170	0.595204	0.183950
O32	O	0.542613	0.598681	0.035321
O33	O	1.087961	0.370466	-0.106227
O34	O	1.087943	0.458644	-0.106206
O35	O	0.735767	0.504997	0.099787
O36	O	0.727775	0.558953	0.012303
O37	O	0.902778	0.514012	-0.083185
O38	O	0.910769	0.460056	0.004299
C39	C	0.570729	0.477996	-0.024787
C40	C	0.487728	0.475764	-0.021167
C41	C	0.815315	0.345812	-0.035485
C42	C	0.815324	0.298717	-0.035496
C43	C	0.335762	0.471686	-0.014557
C44	C	0.294807	0.497460	-0.056347
C45	C	0.210248	0.495191	-0.052669
C46	C	0.420329	0.473954	-0.018234
C47	C	0.723929	0.030167	0.014409
C48	C	0.723913	-0.146819	0.014427
O49	O	0.646226	-0.149755	0.056849
N50	N	0.815261	-0.192407	-0.035418
C51	C	0.906621	-0.193748	-0.085266
O52	O	0.984319	-0.236585	-0.127654
C53	C	0.906637	-0.016763	-0.085278
C54	C	0.815282	0.028825	-0.035438
C55	C	0.632582	0.075753	0.064246
C56	C	0.632586	0.119997	0.064238
C57	C	0.723939	0.118655	0.014391
C58	C	0.815286	0.073069	-0.035447
C59	C	0.997996	-0.018104	-0.135121
C60	C	0.997992	0.026147	-0.135118
C61	C	0.906637	0.071735	-0.085277
C62	C	0.906644	0.115970	-0.085302
N63	N	0.815295	0.161559	-0.035457
C64	C	0.723943	0.162901	0.014389
C65	C	0.906606	-0.286666	-0.085258
C66	C	0.906602	-0.330912	-0.085256
C67	C	0.723893	-0.283980	0.014439
C68	C	0.723898	-0.239733	0.014431
C69	C	0.815257	-0.241078	-0.035413
C70	C	0.723959	0.255814	0.014366
C71	C	0.723972	0.300060	0.014350
C72	C	0.906680	0.253123	-0.085340
C73	C	0.906668	0.208881	-0.085328
C74	C	0.815300	0.210230	-0.035468
O75	O	0.984290	0.118944	-0.127694
O76	O	0.646258	0.205742	0.056787
C77	C	0.723925	-0.014077	0.014418
C78	C	0.815272	-0.059662	-0.035420
C79	C	0.906625	-0.061005	-0.085266
C80	C	0.815268	-0.103909	-0.035418
C81	C	0.723916	-0.102566	0.014428
C82	C	0.632568	-0.056978	0.064273
C83	C	0.632572	-0.012734	0.064264
C84	C	0.997973	-0.106593	-0.135111
C85	C	0.997961	-0.150835	-0.135099
C86	C	0.906608	-0.149493	-0.085253
C87	C	1.059845	0.491151	-0.046119
C88	C	1.142846	0.493383	-0.049739
C89	C	0.793953	0.490046	-0.269344
C90	C	0.786712	0.491904	-0.348724
C91	C	0.815259	0.623335	-0.035420
C92	C	0.815249	0.670430	-0.035409
C93	C	0.773486	0.495307	-0.494079
C94	C	0.857083	0.473841	-0.576830
C95	C	0.849725	0.475735	-0.657710
C96	C	0.780843	0.493414	-0.413190
C97	C	0.836621	0.479101	0.198438
C98	C	0.843862	0.477243	0.277818
C99	C	0.570701	0.616758	-0.024754
C100	C	0.487690	0.661620	-0.021123
C101	C	0.592063	0.472524	0.209104
C102	C	0.516303	0.468434	0.292104
C103	C	0.592035	0.611285	0.209137
C104	C	0.516265	0.654290	0.292148
C105	C	1.038539	0.357862	-0.280042
C106	C	1.114309	0.314857	-0.363054
C107	C	1.059873	0.352389	-0.046151
C108	C	1.142884	0.307527	-0.049782
C109	C	1.038511	0.496624	-0.280010
C110	C	1.114271	0.500713	-0.363010
C111	C	0.444546	0.656661	-0.065104
C112	C	0.366559	0.698810	-0.061711
C113	C	0.331711	0.745918	-0.014330
C114	C	0.374863	0.750877	0.029652
C115	C	0.452854	0.708728	0.026252
C116	C	0.484886	0.492540	0.376768
C117	C	0.413713	0.488696	0.454763
C118	C	0.373952	0.460748	0.448091
C119	C	0.405376	0.436638	0.363418
C120	C	0.476553	0.440480	0.285426
C121	C	0.476511	0.702655	0.285465
C122	C	0.405328	0.743067	0.363456
C123	C	0.373894	0.735113	0.448128
C124	C	0.413655	0.686744	0.454809
C125	C	0.484843	0.646333	0.376819
C126	C	1.154072	0.266492	-0.356372
C127	C	1.225280	0.226081	-0.434363
C128	C	1.256718	0.234035	-0.519036
C129	C	1.216951	0.282404	-0.525716
C130	C	1.145750	0.322815	-0.447725
C131	C	1.186035	0.312487	-0.005810
C132	C	1.264042	0.270338	-0.009225
C133	C	1.298892	0.223231	-0.056608
C134	C	1.255738	0.218272	-0.100586
C135	C	1.177736	0.260420	-0.097176
C136	C	1.154010	0.528666	-0.356310
C137	C	1.225185	0.532518	-0.434290
C138	C	1.256626	0.508415	-0.518970
C139	C	1.216879	0.480461	-0.525668
C140	C	1.145700	0.476612	-0.447689
H141	H	0.323252	0.521230	-0.094888
H142	H	0.649559	0.256919	0.054968
H143	H	0.517252	0.515299	0.382217
O144	O	0.671369	0.521537	-0.480696
H145	H	0.611258	0.536976	-0.407599
H146	H	0.981057	0.252039	-0.125927
H147	H	0.346478	0.789238	0.068227
O148	O	1.333513	0.190444	-0.603147
H149	H	1.348704	0.204096	-0.663154
H150	H	1.314585	0.511553	-0.582458
H151	H	1.284125	0.179911	-0.139165
H152	H	1.113353	0.453848	-0.453157
H153	H	0.315996	0.457623	0.511605
O154	O	0.379810	0.514710	0.546083
H155	H	0.419403	0.534798	0.537612
H156	H	1.257646	0.186700	-0.428906
H157	H	1.128479	0.260007	-0.287434
H158	H	1.142605	0.256374	-0.132982
O159	O	0.499372	0.714082	0.073704
H160	H	0.489004	0.693637	0.124836
H161	H	0.649577	0.337179	0.054939
O162	O	0.362458	0.406510	0.356229
H163	H	0.307670	0.407902	0.424691
H164	H	0.517201	0.606953	0.382272
H165	H	1.242558	0.288875	-0.594665
O166	O	1.250761	0.454474	-0.616996
H167	H	1.285604	0.413960	-0.626158
O168	O	1.102850	0.374980	-0.454936
H169	H	1.136669	0.373716	-0.526918
H170	H	1.299167	0.274385	0.026592
O171	O	0.298105	0.440193	0.036482
H172	H	0.236646	0.443327	0.031383
H173	H	1.157667	0.350840	0.032781
O174	O	0.482133	0.605855	-0.116220
H175	H	0.439030	0.609496	-0.146239
H176	H	0.558195	0.157113	0.104819
H177	H	0.502122	0.420851	0.216492
O178	O	1.096534	-0.067266	-0.188874
H179	H	1.096521	-0.087424	-0.239566
H180	H	0.934180	0.454040	-0.586932
H181	H	0.372961	0.782449	0.358001
O182	O	1.382996	0.177770	-0.060254
H183	H	1.407126	0.189137	-0.021697
H184	H	0.331434	0.694763	-0.097526
O185	O	0.247584	0.791377	-0.010658
H186	H	0.223436	0.780009	-0.049196
H187	H	0.502094	0.709140	0.216528
H188	H	0.315928	0.768023	0.511625
O189	O	0.534039	-0.055538	0.118036
H190	H	0.485828	-0.034674	0.093638
O191	O	1.268050	0.562665	-0.427050
H192	H	1.250159	0.592965	-0.458163
O193	O	0.534039	0.077210	0.118004
H194	H	0.494629	0.095833	0.190199
O195	O	0.625368	-0.190565	0.068193
H196	H	0.561850	-0.197071	0.102855
O197	O	1.096499	-0.200005	-0.188863
H198	H	1.144700	-0.203887	-0.164461
O199	O	0.379734	0.678167	0.546136
H200	H	0.323542	0.714396	0.599237
O201	O	1.120095	0.554671	-0.264981
H202	H	1.159683	0.574760	-0.273437
H203	H	0.980991	-0.368028	-0.125853
O204	O	0.625359	-0.282534	0.068210
H205	H	0.640715	-0.320962	0.059839
H206	H	1.072390	0.025046	-0.175696
O207	O	1.005148	-0.288120	-0.139032
H208	H	1.068657	-0.327255	-0.173696
H209	H	0.558182	0.024382	0.104852
O210	O	1.005196	0.159709	-0.139085
H211	H	1.068719	0.166211	-0.173744
O212	O	1.096507	-0.108044	-0.188886
H213	H	1.160017	-0.147179	-0.223546
