data_functionalizedCrystal
_audit_creation_method	'MofGen! by Chris Wilmer'
_symmetry_space_group_name_H-M	'P1'
_symmetry_Int_Tables_number	1
_symmetry_cell_setting	triclinic
loop_
_symmetry_equiv_pos_as_xyz
  x,y,z
_cell_length_a	16.992695
_cell_length_b	14.971486
_cell_length_c	13.448316
_cell_angle_alpha	90.001801
_cell_angle_beta	89.993283
_cell_angle_gamma	92.858824
loop_
_atom_site_label
_atom_site_type_symbol
_atom_site_fract_x
_atom_site_fract_y
_atom_site_fract_z
O1	O	0.102190	-1.194127	-0.082578
O2	O	0.114427	-0.934587	-0.082605
O3	O	-0.005835	-1.063317	-0.082584
O4	O	0.222452	-1.065398	-0.082599
O5	O	-0.005843	-1.063299	0.082800
O6	O	0.114420	-0.934569	0.082779
O7	O	0.102182	-1.194110	0.082806
Cu8	Cu	0.108300	-1.064338	0.097893
Cu9	Cu	0.108309	-1.064359	-0.097692
O10	O	0.222445	-1.065380	0.082785
C11	C	0.113876	-0.901215	0.000083
C12	C	0.112236	-0.801803	0.000073
C13	C	-0.035054	-1.060631	0.000108
C14	C	-0.122105	-1.052644	0.000107
C15	C	0.102733	-1.227482	0.000115
C16	C	0.104373	-1.326894	0.000119
C17	C	-0.172274	-1.129708	0.000116
C18	C	-0.254067	-1.122198	0.000106
C19	C	-0.285691	-1.037623	0.000093
C20	C	-0.235517	-0.960553	0.000081
C21	C	-0.153724	-0.968064	0.000084
C22	C	-0.529318	-1.006493	0.000076
C23	C	-0.611117	-0.998988	0.000076
C24	C	-0.629662	-1.160634	0.000099
C25	C	-0.547867	-1.168138	0.000108
C26	C	-0.497700	-1.091068	0.000090
N27	N	-0.369297	-1.029945	0.000086
N28	N	-0.414095	-1.098747	0.000091
C29	C	0.251664	-1.068066	0.000091
C30	C	0.338715	-1.076053	0.000085
N31	N	0.108294	-1.064329	0.235457
C32	C	0.182887	-0.749541	0.000070
C33	C	0.181341	-0.656133	0.000085
C34	C	0.109144	-0.614988	0.000096
C35	C	0.038488	-0.667257	0.000102
C36	C	0.040034	-0.760663	0.000095
C37	C	0.035269	-0.472568	0.000116
C38	C	0.033723	-0.379155	0.000122
C39	C	0.176577	-0.368038	0.000106
C40	C	0.178123	-0.461445	0.000099
C41	C	0.107466	-0.513707	0.000103
N42	N	0.108310	-1.064374	-0.235257
C43	C	0.055064	-1.121351	0.287507
C44	C	0.055063	-1.121357	0.391611
C45	C	0.108297	-1.064344	0.443662
C46	C	0.161530	-1.007316	0.391605
C47	C	0.161526	-1.007307	0.287504
C48	C	0.161535	-1.007341	0.608585
C49	C	0.161540	-1.007352	0.712694
C50	C	0.055072	-1.121392	0.712692
C51	C	0.055068	-1.121382	0.608591
C52	C	0.108302	-1.064355	0.556541
H53	H	-0.146533	-1.198578	0.000132
C54	C	-0.308440	-1.205948	-0.000034
C55	C	-0.294110	-1.256561	-0.085096
C56	C	-0.344174	-1.333727	-0.085252
H57	H	-0.361709	-1.189495	-0.000093
H58	H	-0.298839	-1.240424	0.057617
H59	H	-0.303718	-1.222091	-0.142732
H60	H	-0.240851	-1.273037	-0.085055
H61	H	-0.334573	-1.368203	-0.027601
H62	H	-0.397441	-1.317265	-0.085308
H63	H	-0.334454	-1.368081	-0.142960
C64	C	0.261355	-0.794041	0.000107
C65	C	0.322896	-0.728275	0.000135
C66	C	0.395193	-0.769231	0.000186
H67	H	0.265044	-0.830240	-0.057553
H68	H	0.264967	-0.830227	0.057800
H69	H	0.319285	-0.692104	-0.057552
H70	H	0.319233	-0.692073	0.057792
H71	H	0.398806	-0.805418	0.057879
H72	H	0.398874	-0.805429	-0.057475
H73	H	0.436957	-0.724616	0.000215
C74	C	-0.002853	-1.183257	0.769067
C75	C	-0.079933	-1.163271	0.743739
C76	C	-0.133308	-1.220254	0.795645
H77	H	0.004658	-1.175157	0.838537
H78	H	0.005710	-1.243575	0.751972
H79	H	-0.088493	-1.102968	0.760841
H80	H	-0.087469	-1.171377	0.674279
H81	H	-0.124745	-1.280572	0.778549
H82	H	-0.125790	-1.212149	0.865112
H83	H	-0.185613	-1.206707	0.778460
H84	H	-0.636861	-0.930114	0.000082
H85	H	-0.112878	-0.905310	0.000077
H86	H	-0.488481	-0.943737	0.000063
C87	C	0.257991	-0.599287	-0.000085
C88	C	0.261266	-0.545318	-0.085155
C89	C	0.331863	-0.492933	-0.085340
H90	H	0.301273	-0.637064	-0.000151
H91	H	0.260371	-0.562567	0.057561
H92	H	0.258895	-0.582033	-0.142785
H93	H	0.218001	-0.507522	-0.085106
H94	H	0.334243	-0.456213	-0.027694
H95	H	0.375139	-0.530717	-0.085403
H96	H	0.334091	-0.456303	-0.143053
H97	H	0.236912	-0.494942	0.000080
H98	H	0.204888	-0.960925	0.755069
C99	C	0.253318	-0.311349	-0.000098
C100	C	0.296774	-0.330695	-0.085207
C101	C	0.367465	-0.278480	-0.085441
H102	H	0.283012	-0.324333	0.057501
H103	H	0.242095	-0.249815	-0.000140
H104	H	0.307999	-0.392215	-0.085155
H105	H	0.267104	-0.317707	-0.142819
H106	H	0.356242	-0.216946	-0.085483
H107	H	0.397152	-0.291468	-0.027839
H108	H	0.396955	-0.291593	-0.143190
C109	C	0.219422	-0.945396	0.552251
C110	C	0.266060	-0.895488	0.620114
C111	C	0.319402	-0.838429	0.568256
H112	H	0.191253	-0.906062	0.511647
H113	H	0.252152	-0.979885	0.511653
H114	H	0.233334	-0.861000	0.660696
H115	H	0.294246	-0.934798	0.660720
H116	H	0.352132	-0.872919	0.527657
H117	H	0.291226	-0.799101	0.527654
H118	H	0.351057	-0.804566	0.614293
H119	H	-0.261271	-0.891690	0.000065
C120	C	0.219410	-0.945365	0.231168
C121	C	0.266046	-0.895455	0.299031
C122	C	0.319383	-0.838390	0.247173
H123	H	0.191236	-0.906033	0.190567
H124	H	0.252141	-0.979851	0.190567
H125	H	0.233319	-0.860973	0.339615
H126	H	0.294236	-0.934764	0.339634
H127	H	0.352114	-0.872875	0.206571
H128	H	0.291203	-0.799064	0.206573
H129	H	0.351037	-0.804525	0.293209
H130	H	-0.025067	-0.345658	0.000133
C131	C	-0.041528	-0.529156	0.000063
C132	C	-0.105088	-0.473134	0.000042
C133	C	-0.175843	-0.525231	-0.000028
H134	H	-0.044013	-0.565843	0.057715
H135	H	-0.043930	-0.565804	-0.057638
H136	H	-0.102687	-0.436502	0.057738
H137	H	-0.102628	-0.436447	-0.057605
H138	H	-0.178244	-0.561879	-0.057730
H139	H	-0.178320	-0.561916	0.057625
H140	H	-0.218976	-0.487228	-0.000051
H141	H	0.204871	-0.960891	0.433991
H142	H	-0.522126	-1.237008	0.000118
C143	C	-0.036758	-0.817253	0.000042
C144	C	-0.100318	-0.761230	0.000025
C145	C	-0.171073	-0.813327	-0.000034
H146	H	-0.039239	-0.853936	0.057696
H147	H	-0.039164	-0.853903	-0.057657
H148	H	-0.097913	-0.724595	0.057718
H149	H	-0.097863	-0.724547	-0.057626
H150	H	-0.173479	-0.849978	-0.057733
H151	H	-0.173545	-0.850009	0.057621
H152	H	-0.214206	-0.775324	-0.000055
H153	H	0.011718	-1.167781	0.245134
C154	C	-0.002755	-1.183378	0.447942
C155	C	-0.049354	-1.233330	0.380076
C156	C	-0.102617	-1.290487	0.431932
H157	H	-0.035525	-1.148985	0.488571
H158	H	0.025499	-1.222674	0.488515
H159	H	-0.077607	-1.194039	0.339521
H160	H	-0.016606	-1.267742	0.339445
H161	H	-0.074362	-1.329783	0.472504
H162	H	-0.135382	-1.256087	0.472559
H163	H	-0.134236	-1.324392	0.385893
H164	H	-0.670517	-1.223380	0.000111
H165	H	-0.020297	-0.633749	0.000126
H166	H	0.011725	-1.167810	0.566210
