data_functionalizedCrystal
_audit_creation_method	'MofGen! by Chris Wilmer'
_symmetry_space_group_name_H-M	'P1'
_symmetry_Int_Tables_number	1
_symmetry_cell_setting	triclinic
loop_
_symmetry_equiv_pos_as_xyz
  x,y,z
_cell_length_a	15.297327
_cell_length_b	17.077404
_cell_length_c	17.077404
_cell_angle_alpha	89.994264
_cell_angle_beta	80.340314
_cell_angle_gamma	80.292864
loop_
_atom_site_label
_atom_site_type_symbol
_atom_site_fract_x
_atom_site_fract_y
_atom_site_fract_z
Zn1	Zn	-0.359310	-1.145810	0.497917
Zn2	Zn	0.140690	-0.645810	0.997917
Zn3	Zn	-0.510152	-1.123022	0.389352
Zn4	Zn	-0.010152	-0.623022	0.889352
Zn5	Zn	-0.359303	-1.014575	0.366664
Zn6	Zn	0.140697	-0.514575	0.866664
Zn7	Zn	-0.510138	-0.991785	0.520573
Zn8	Zn	-0.010138	-0.491785	1.020573
O9	O	-0.434726	-1.068798	0.443627
O10	O	0.065274	-0.568798	0.943627
O11	O	-0.379329	-1.252633	0.483529
O12	O	0.120671	-0.752633	0.983529
O13	O	-0.490144	-1.108636	0.276496
O14	O	0.009856	-0.608636	0.776496
O15	O	-0.233051	-1.051058	0.365098
O16	O	0.266949	-0.551058	0.865098
O17	O	-0.490152	-1.235890	0.403767
O18	O	0.009848	-0.735890	0.903767
O19	O	-0.233056	-1.147477	0.461529
O20	O	0.266944	-0.647477	0.961529
O21	O	-0.379316	-1.028961	0.259827
O22	O	0.120684	-0.528961	0.759827
O23	O	-0.379302	-0.901706	0.387067
O24	O	0.120698	-0.401706	0.887067
O25	O	-0.490128	-1.012216	0.627414
O26	O	0.009872	-0.512216	1.127414
O27	O	-0.490120	-0.884963	0.500144
O28	O	0.009880	-0.384963	1.000144
O29	O	-0.379315	-1.125378	0.610769
O30	O	0.120685	-0.625378	1.110769
O31	O	-0.636403	-1.086538	0.425736
O32	O	-0.136403	-0.586538	0.925736
O33	O	-0.636393	-0.990119	0.522143
O34	O	-0.136393	-0.490119	1.022143
C35	C	-0.434709	-0.864853	0.443602
C36	C	0.065291	-0.364853	0.943602
C37	C	-0.434724	-0.777601	0.443614
C38	C	0.065276	-0.277601	0.943614
C39	C	-0.669134	-1.033404	0.478877
C40	C	-0.169134	-0.533404	0.978877
C41	C	-0.769415	-1.018334	0.493984
C42	C	-0.269415	-0.518334	0.993984
C43	C	-0.434721	-1.068797	0.648370
C44	C	0.065279	-0.568797	1.148370
C45	C	-0.434719	-1.068797	0.735620
C46	C	0.065281	-0.568797	1.235620
C47	C	-1.051986	-1.176829	0.335925
C48	C	-0.551986	-0.676829	0.835925
C49	C	-0.957767	-1.190988	0.321728
C50	C	-0.457767	-0.690988	0.821728
C51	C	-0.910674	-1.147826	0.364790
C52	C	-0.410674	-0.647826	0.864790
C53	C	-0.957810	-1.090502	0.422053
C54	C	-0.457810	-0.590502	0.922053
C55	C	-1.052038	-1.076338	0.436248
C56	C	-0.552038	-0.576338	0.936248
C57	C	-0.910726	-1.047334	0.465113
C58	C	-0.410726	-0.547334	0.965113
C59	C	-0.957862	-0.990011	0.522376
C60	C	-0.457862	-0.490011	1.022376
C61	C	-1.052080	-0.975849	0.536568
C62	C	-0.552080	-0.475849	1.036568
C63	C	-1.099173	-1.019011	0.493505
C64	C	-0.599173	-0.519011	0.993505
C65	C	-0.816498	-1.061499	0.450919
C66	C	-0.316498	-0.561499	0.950919
C67	C	-0.816550	-0.961007	0.551241
C68	C	-0.316550	-0.461007	1.051241
C69	C	-0.910769	-0.946849	0.565439
C70	C	-0.410769	-0.446849	1.065439
C71	C	-0.199402	-1.104352	0.408255
C72	C	0.300598	-0.604352	0.908255
C73	C	-0.099121	-1.119503	0.393182
C74	C	0.400879	-0.619503	0.893182
C75	C	-0.434743	-1.273540	0.443651
C76	C	0.065257	-0.773540	0.943651
C77	C	-0.434750	-1.360788	0.443662
C78	C	0.065250	-0.860788	0.943662
C79	C	-0.492514	-0.727899	0.502426
C80	C	0.007486	-0.227899	1.002426
C81	C	-0.492516	-0.645919	0.502438
C82	C	0.007484	-0.145919	1.002438
C83	C	-0.434732	-0.613640	0.443636
C84	C	0.065268	-0.113640	0.943636
C85	C	-0.376936	-0.663348	0.384821
C86	C	0.123064	-0.163348	0.884821
C87	C	-0.376930	-0.745328	0.384812
C88	C	0.123070	-0.245328	0.884812
C89	C	-0.376953	-0.492475	0.384842
C90	C	0.123047	0.007525	0.884842
C91	C	-0.376960	-0.410489	0.384850
C92	C	0.123040	0.089511	0.884850
C93	C	-0.492540	-0.393066	0.502469
C94	C	0.007460	0.106934	1.002469
C95	C	-0.492534	-0.475046	0.502460
C96	C	0.007466	0.024954	1.002460
C97	C	-0.434738	-0.524748	0.443644
C98	C	0.065262	-0.024748	0.943644
C99	C	-0.492447	-1.110277	1.120119
C100	C	0.007553	-0.610277	1.620119
C101	C	-0.492446	-1.110274	1.038138
C102	C	0.007554	-0.610274	1.538138
C103	C	-0.434739	-1.068794	0.988472
C104	C	0.065261	-0.568794	1.488472
C105	C	-0.377036	-1.027308	1.020790
C106	C	0.122964	-0.527308	1.520790
C107	C	-0.377042	-1.027308	1.102770
C108	C	0.122958	-0.527308	1.602770
C109	C	-0.377026	-1.027314	0.849918
C110	C	0.122974	-0.527314	1.349918
C111	C	-0.377018	-1.027316	0.767933
C112	C	0.122982	-0.527316	1.267933
C113	C	-0.492430	-1.110281	0.785287
C114	C	0.007570	-0.610281	1.285287
C115	C	-0.492436	-1.110280	0.867267
C116	C	0.007564	-0.610280	1.367267
C117	C	-0.434731	-1.068795	0.899579
C118	C	0.065269	-0.568795	1.399579
C119	C	-0.434749	-1.068792	1.239682
C120	C	0.065251	-0.568792	1.739682
C121	C	-0.434746	-1.068797	1.152432
C122	C	0.065254	-0.568797	1.652432
H123	H	-0.778129	-1.108172	0.404295
H124	H	-0.278129	-0.608172	0.904295
H125	H	-0.330025	-0.993542	0.727495
H126	H	0.169975	-0.493542	1.227495
H127	H	-0.833957	-1.159356	0.353227
H128	H	-0.333957	-0.659356	0.853227
H129	H	-1.090337	-1.211960	0.300865
H130	H	-0.590337	-0.711960	0.800865
H131	H	-0.539592	-0.501323	0.550339
H132	H	-0.039592	-0.001323	1.050339
H133	H	-0.329866	-0.785795	0.336925
H134	H	0.170134	-0.285795	0.836925
C135	C	-0.313549	-0.981685	0.885461
C136	C	0.186451	-0.481685	1.385461
H137	H	-0.279172	-0.956988	0.844140
H138	H	0.220828	-0.456988	1.344140
H139	H	-0.348054	-0.942267	0.922624
H140	H	0.151946	-0.442267	1.422624
H141	H	-0.274243	-1.017661	0.911536
H142	H	0.225757	-0.517661	1.411536
H143	H	-0.329883	-0.637061	0.336946
H144	H	0.170117	-0.137061	0.836946
H145	H	-0.919393	-1.237659	0.275104
H146	H	-0.419393	-0.737659	0.775104
C147	C	-0.555911	-1.155906	0.749747
C148	C	-0.055911	-0.655906	1.249747
H149	H	-0.547653	-1.149958	0.693812
H150	H	-0.047653	-0.649958	1.193812
H151	H	-0.542716	-1.210642	0.761202
H152	H	-0.042716	-0.710642	1.261202
H153	H	-0.616531	-1.135251	0.772293
H154	H	-0.116531	-0.635251	1.272293
H155	H	-1.175894	-1.007488	0.505063
H156	H	-0.675894	-0.507488	1.005063
H157	H	-0.539435	-1.144060	1.160552
H158	H	-0.039435	-0.644060	1.660552
C159	C	-0.313376	-0.547146	0.320149
C160	C	0.186624	-0.047146	0.820149
H161	H	-0.278968	-0.516182	0.285125
H162	H	0.221032	-0.016182	0.785125
H163	H	-0.274118	-0.585058	0.344327
H164	H	0.225882	-0.085058	0.844327
H165	H	-0.347830	-0.573918	0.291072
H166	H	0.152170	-0.073918	0.791072
H167	H	-0.539443	-1.144041	1.011835
H168	H	-0.039443	-0.644041	1.511835
C169	C	-0.556108	-0.338399	0.567169
C170	C	-0.056108	0.161601	1.067169
H171	H	-0.547830	-0.284952	0.558760
H172	H	-0.047830	0.215048	1.058760
H173	H	-0.616706	-0.342681	0.564705
H174	H	-0.116706	0.157319	1.064705
H175	H	-0.542992	-0.353828	0.617958
H176	H	-0.042992	0.146172	1.117958
H177	H	-0.330054	-0.993530	0.980345
H178	H	0.169946	-0.493530	1.480345
C179	C	-0.555914	-1.155904	0.921899
C180	C	-0.055914	-0.655904	1.421899
H181	H	-0.590287	-1.180604	0.890916
H182	H	-0.090287	-0.680604	1.390916
H183	H	-0.521411	-1.195319	0.948702
H184	H	-0.021411	-0.695319	1.448702
H185	H	-0.595223	-1.119926	0.959779
H186	H	-0.095223	-0.619926	1.459779
C187	C	-1.103932	-0.912796	0.599553
C188	C	-0.603932	-0.412796	1.099553
H189	H	-1.166791	-0.910539	0.601835
H190	H	-0.666791	-0.410539	1.101835
H191	H	-1.088454	-0.926571	0.649972
H192	H	-0.588454	-0.426571	1.149972
H193	H	-1.088547	-0.862371	0.585699
H194	H	-0.588547	-0.362371	1.085699
C195	C	-0.313576	-0.981677	1.138319
C196	C	0.186424	-0.481677	1.638319
H197	H	-0.321851	-0.987610	1.194257
H198	H	0.178149	-0.487610	1.694257
H199	H	-0.252955	-1.002321	1.115781
H200	H	0.247045	-0.502321	1.615781
H201	H	-0.326783	-0.926939	1.126860
H202	H	0.173217	-0.426939	1.626860
H203	H	-0.949160	-0.900175	0.612062
H204	H	-0.449160	-0.400175	1.112062
H205	H	-0.778208	-0.925860	0.586305
H206	H	-0.278208	-0.425860	1.086305
C207	C	-0.556082	-0.763402	0.567104
C208	C	-0.056082	-0.263402	1.067104
H209	H	-0.547811	-0.819343	0.558672
H210	H	-0.047811	-0.319343	1.058672
H211	H	-0.542978	-0.751958	0.617896
H212	H	-0.042978	-0.251958	1.117896
H213	H	-0.616683	-0.740812	0.564634
H214	H	-0.116683	-0.240812	1.064634
C215	C	-0.313390	-0.374985	0.320176
C216	C	0.186610	0.125015	0.820176
H217	H	-0.278958	-0.416327	0.285153
H218	H	0.221042	0.083673	0.785153
H219	H	-0.347838	-0.337796	0.291105
H220	H	0.152162	0.162204	0.791105
H221	H	-0.274140	-0.348938	0.344373
H222	H	0.225860	0.151062	0.844373
C223	C	-0.556140	-0.591242	0.567091
C224	C	-0.056140	-0.091242	1.067091
H225	H	-0.590577	-0.622204	0.602093
H226	H	-0.090577	-0.122204	1.102093
H227	H	-0.521744	-0.564439	0.596192
H228	H	-0.021744	-0.064439	1.096192
H229	H	-0.595383	-0.553356	0.542863
H230	H	-0.095383	-0.053356	1.042863
