data_functionalizedCrystal
_audit_creation_method	'MofGen! by Chris Wilmer'
_symmetry_space_group_name_H-M	'P1'
_symmetry_Int_Tables_number	1
_symmetry_cell_setting	triclinic
loop_
_symmetry_equiv_pos_as_xyz
  x,y,z
_cell_length_a	17.699083
_cell_length_b	9.198806
_cell_length_c	17.699092
_cell_angle_alpha	90.001497
_cell_angle_beta	83.284691
_cell_angle_gamma	89.997911
loop_
_atom_site_label
_atom_site_type_symbol
_atom_site_fract_x
_atom_site_fract_y
_atom_site_fract_z
O1	O	1.004078	0.120683	0.095709
O2	O	0.783700	0.120730	0.108162
O3	O	0.900112	0.120702	-0.008253
O4	O	0.887666	0.120711	0.212124
O5	O	0.900103	-0.121083	-0.008254
O6	O	0.783691	-0.121055	0.108161
O7	O	1.004069	-0.121102	0.095709
Cu8	Cu	0.893879	-0.143155	0.101935
Cu9	Cu	0.893890	0.142784	0.101935
O10	O	0.887657	-0.121074	0.212124
C11	C	0.755499	-0.000156	0.107715
C12	C	0.671480	-0.000138	0.106377
N13	N	0.893877	-0.344269	0.101934
C14	C	0.622862	-0.000136	0.174710
C15	C	0.543918	-0.000155	0.173448
C16	C	0.513595	-0.000166	0.103851
C17	C	0.562220	-0.000172	0.035513
C18	C	0.641162	-0.000164	0.036776
C19	C	0.243857	-0.000209	0.030418
C20	C	0.164909	-0.000213	0.029160
C21	C	0.146613	-0.000199	0.167089
C22	C	0.225555	-0.000191	0.168352
C23	C	0.274173	-0.000205	0.100014
C24	C	0.359772	-0.000188	0.101384
C25	C	0.427998	-0.000173	0.102481
C26	C	0.942757	-0.416478	0.052842
C27	C	0.942769	-0.583890	0.052839
C28	C	1.032271	-0.000212	0.096155
C29	C	1.116289	-0.000221	0.097494
C30	C	0.899661	-0.000188	-0.036450
C31	C	0.898319	-0.000181	-0.120468
N32	N	0.893898	0.343898	0.101930
C33	C	0.897696	0.131618	-0.159935
C34	C	0.896431	0.131620	-0.238878
C35	C	0.895795	-0.000179	-0.278353
C36	C	0.896416	-0.131988	-0.238880
C37	C	0.897676	-0.131988	-0.159938
C38	C	0.891336	-0.131989	-0.557245
C39	C	0.890078	-0.131978	-0.636193
C40	C	0.890091	0.131619	-0.636186
C41	C	0.891351	0.131619	-0.557243
C42	C	0.891968	-0.000189	-0.517777
C43	C	0.893338	-0.000190	-0.432178
C44	C	0.894430	-0.000180	-0.363952
C45	C	0.888109	-0.000180	0.240321
C46	C	0.889450	-0.000178	0.324339
H47	H	0.647544	-0.000126	0.231383
H48	H	0.504335	-0.000151	0.229091
H49	H	0.984595	-0.354362	0.010810
H50	H	0.898172	-0.239312	-0.127803
C51	C	0.693916	0.000141	-0.037439
C52	C	0.680244	0.124549	-0.079345
C53	C	0.728833	0.124883	-0.147712
H54	H	0.684788	-0.084079	-0.066073
H55	H	0.745284	0.000223	-0.026750
H56	H	0.628888	0.124453	-0.090036
H57	H	0.689377	0.208788	-0.050733
H58	H	0.780201	0.124965	-0.137024
H59	H	0.719700	0.040658	-0.176340
H60	H	0.719568	0.209298	-0.176151
H61	H	0.984620	-0.645987	0.010811
H62	H	0.250239	-0.000175	0.225025
H63	H	0.852050	-0.594015	0.143965
C64	C	0.838048	-0.427270	0.157856
C65	C	0.791728	-0.514688	0.117693
C66	C	0.740295	-0.591179	0.169184
H67	H	0.807305	-0.360427	0.188679
H68	H	0.865325	-0.486728	0.189200
H69	H	0.764453	-0.455235	0.086363
H70	H	0.822450	-0.581558	0.086873
H71	H	0.767572	-0.650637	0.200527
H72	H	0.709558	-0.524325	0.200004
H73	H	0.708866	-0.650511	0.141941
H74	H	0.889585	0.238944	-0.668329
H75	H	0.898218	0.238943	-0.127801
H76	H	0.895927	0.238943	-0.271010
C77	C	0.093736	0.000027	0.241230
C78	C	0.047860	0.124394	0.244524
C79	C	-0.000863	0.124648	0.312804
H80	H	0.123007	0.000116	0.282921
H81	H	0.062521	-0.084250	0.243614
H82	H	0.079072	0.208649	0.242147
H83	H	0.018573	0.124331	0.202849
H84	H	-0.032079	0.040370	0.315188
H85	H	0.028414	0.124732	0.354490
H86	H	-0.032001	0.209021	0.315045
H87	H	0.537525	-0.000202	-0.021154
C88	C	0.892000	0.274867	-0.514517
C89	C	0.891162	0.390296	-0.565975
C90	C	0.891745	0.522279	-0.526642
H91	H	0.936597	0.280545	-0.489568
H92	H	0.848353	0.280429	-0.477884
H93	H	0.934804	0.384736	-0.602594
H94	H	0.846567	0.384666	-0.590926
H95	H	0.848099	0.527841	-0.490010
H96	H	0.936343	0.527942	-0.501695
H97	H	0.891170	0.600613	-0.561550
H98	H	0.889558	-0.239311	-0.668331
C99	C	0.891977	-0.274939	-0.514262
C100	C	0.893194	-0.246745	-0.436675
C101	C	0.893776	-0.378401	-0.397051
H102	H	0.935878	-0.329208	-0.532960
H103	H	0.847633	-0.329096	-0.521306
H104	H	0.937533	-0.192612	-0.429636
H105	H	0.849296	-0.192498	-0.417955
H106	H	0.849432	-0.432558	-0.404095
H107	H	0.937677	-0.432661	-0.415755
H108	H	0.894594	-0.359290	-0.344403
H109	H	0.895893	-0.239300	-0.271026
H110	H	0.140224	-0.000224	-0.027517
H111	H	0.283433	-0.000222	-0.025227
