data_functionalizedCrystal
_audit_creation_method	'MofGen! by Chris Wilmer'
_symmetry_space_group_name_H-M	'P1'
_symmetry_Int_Tables_number	1
_symmetry_cell_setting	triclinic
loop_
_symmetry_equiv_pos_as_xyz
  x,y,z
_cell_length_a	17.699097
_cell_length_b	23.532407
_cell_length_c	22.010155
_cell_angle_alpha	89.990798
_cell_angle_beta	89.980702
_cell_angle_gamma	83.068554
loop_
_atom_site_label
_atom_site_type_symbol
_atom_site_fract_x
_atom_site_fract_y
_atom_site_fract_z
O1	O	1.003716	0.072053	-0.050582
O2	O	1.337050	0.405387	0.282752
O3	O	1.670383	0.738720	0.616085
O4	O	0.783292	0.081415	-0.050573
O5	O	1.116625	0.414749	0.282761
O6	O	1.449959	0.748082	0.616094
O7	O	0.900151	-0.006178	-0.050566
O8	O	1.233484	0.327155	0.282767
O9	O	1.566818	0.660489	0.616100
O10	O	0.886857	0.159647	-0.050588
O11	O	1.220191	0.492980	0.282745
O12	O	1.553524	0.826313	0.616079
O13	O	0.900116	-0.006178	0.050484
O14	O	1.233449	0.327155	0.383817
O15	O	1.566783	0.660488	0.717151
O16	O	0.783257	0.081415	0.050478
O17	O	1.116590	0.414748	0.383811
O18	O	1.449924	0.748082	0.717144
O19	O	1.003681	0.072053	0.050469
O20	O	1.337015	0.405386	0.383802
O21	O	1.670348	0.738720	0.717135
Cu22	Cu	0.893466	0.076734	0.059700
Cu23	Cu	1.226799	0.410067	0.393033
Cu24	Cu	1.560133	0.743401	0.726366
Cu25	Cu	0.893507	0.076734	-0.059804
Cu26	Cu	1.226841	0.410068	0.273529
Cu27	Cu	1.560174	0.743401	0.606863
O28	O	0.886822	0.159646	0.050462
O29	O	1.220156	0.492980	0.383796
O30	O	1.553489	0.826313	0.717129
C31	C	0.755079	0.081078	-0.000046
C32	C	1.088413	0.414412	0.333287
C33	C	1.421746	0.747745	0.666620
C34	C	0.671067	0.080068	-0.000042
C35	C	1.004400	0.413402	0.333291
C36	C	1.337733	0.746735	0.666624
C37	C	0.899795	-0.027395	-0.000040
C38	C	1.233128	0.305938	0.333294
C39	C	1.566462	0.639271	0.666627
C40	C	0.898777	-0.090615	-0.000035
C41	C	1.232111	0.242718	0.333298
C42	C	1.565444	0.576051	0.666632
C43	C	0.155399	0.073876	-0.055149
C44	C	0.488732	0.407209	0.278185
C45	C	0.822066	0.740543	0.611518
C46	C	0.234338	0.074821	-0.055146
C47	C	0.567672	0.408155	0.278188
C48	C	0.901005	0.741488	0.611521
C49	C	0.273783	0.075295	-0.000061
C50	C	0.607116	0.408628	0.333273
C51	C	0.940449	0.741961	0.666606
C52	C	0.234285	0.074817	0.055025
C53	C	0.567618	0.408151	0.388358
C54	C	0.900952	0.741484	0.721692
C55	C	0.155348	0.073868	0.055021
C56	C	0.488681	0.407201	0.388355
C57	C	0.822015	0.740534	0.721688
C58	C	0.552630	0.078645	0.055040
C59	C	0.885963	0.411979	0.388374
C60	C	1.219296	0.745312	0.721707
C61	C	0.631572	0.079596	0.055040
C62	C	0.964905	0.412930	0.388373
C63	C	1.298239	0.746263	0.721706
C64	C	0.631620	0.079599	-0.055127
C65	C	0.964953	0.412932	0.278207
C66	C	1.298287	0.746265	0.611540
C67	C	0.552683	0.078649	-0.055130
C68	C	0.886016	0.411983	0.278203
C69	C	1.219350	0.745316	0.611536
C70	C	0.513193	0.078169	-0.000045
C71	C	0.846526	0.411502	0.333288
C72	C	1.179859	0.744835	0.666622
C73	C	0.427598	0.077143	-0.000049
C74	C	0.760931	0.410476	0.333285
C75	C	1.094265	0.743809	0.666618
C76	C	0.359375	0.076325	-0.000056
C77	C	0.692709	0.409658	0.333277
C78	C	1.026042	0.742992	0.666610
C79	C	0.961548	-0.489536	-0.000071
C80	C	1.294882	-0.156202	0.333262
C81	C	1.628215	0.177131	0.666596
C82	C	0.960603	-0.548939	-0.000075
C83	C	1.293936	-0.215605	0.333258
C84	C	1.627269	0.117728	0.666591
O85	O	1.018792	-0.585514	-0.000100
O86	O	1.352125	-0.252181	0.333233
O87	O	1.685459	0.081153	0.666566
N88	N	0.891130	-0.571767	-0.000072
N89	N	1.224463	-0.238434	0.333261
N90	N	1.557797	0.094900	0.666595
C91	C	0.822598	-0.535189	-0.000070
C92	C	1.155932	-0.201855	0.333263
C93	C	1.489265	0.131478	0.666596
O94	O	0.763419	-0.560060	-0.000069
O95	O	1.096753	-0.226727	0.333265
O96	O	1.430086	0.106606	0.666598
C97	C	0.823545	-0.475787	-0.000070
C98	C	1.156878	-0.142454	0.333263
C99	C	1.490211	0.190880	0.666596
C100	C	0.893022	-0.452962	-0.000067
C101	C	1.226355	-0.119629	0.333266
C102	C	1.559688	0.213705	0.666599
C103	C	1.031020	-0.466710	-0.000069
C104	C	1.364353	-0.133377	0.333265
C105	C	1.697686	0.199956	0.666598
C106	C	1.031965	-0.407311	-0.000063
C107	C	1.365298	-0.073978	0.333270
C108	C	1.698632	0.259355	0.666604
C109	C	0.963439	-0.370738	-0.000059
C110	C	1.296772	-0.037405	0.333274
C111	C	1.630105	0.295929	0.666607
C112	C	0.893967	-0.393563	-0.000062
C113	C	1.227300	-0.060230	0.333272
C114	C	1.560634	0.273103	0.666605
C115	C	0.755014	-0.439210	-0.000073
C116	C	1.088347	-0.105876	0.333260
C117	C	1.421680	0.227457	0.666594
C118	C	0.755966	-0.379805	-0.000073
C119	C	1.089299	-0.046471	0.333260
C120	C	1.422633	0.286862	0.666594
C121	C	0.825443	-0.356980	-0.000070
C122	C	1.158776	-0.023646	0.333263
C123	C	1.492110	0.309687	0.666596
C124	C	0.826386	-0.297591	-0.000052
C125	C	1.159719	0.035743	0.333281
C126	C	1.493052	0.369076	0.666614
N127	N	0.895858	-0.274763	-0.000056
N128	N	1.229192	0.058571	0.333278
N129	N	1.562525	0.391904	0.666611
C130	C	0.964385	-0.311336	-0.000059
C131	C	1.297718	0.021997	0.333274
C132	C	1.631051	0.355331	0.666607
C133	C	0.820616	-0.659937	-0.000072
C134	C	1.153950	-0.326604	0.333261
C135	C	1.487283	0.006730	0.666595
C136	C	0.819669	-0.719338	-0.000068
C137	C	1.153002	-0.386004	0.333265
C138	C	1.486336	-0.052671	0.666599
C139	C	0.957674	-0.733084	-0.000074
C140	C	1.291007	-0.399750	0.333259
C141	C	1.624341	-0.066417	0.666593
C142	C	0.958620	-0.673682	-0.000074
C143	C	1.291954	-0.340348	0.333260
C144	C	1.625287	-0.007015	0.666593
C145	C	0.890089	-0.637109	-0.000075
C146	C	1.223422	-0.303775	0.333258
C147	C	1.556756	0.029558	0.666591
C148	C	0.966365	-0.186594	-0.000047
C149	C	1.299698	0.146740	0.333287
C150	C	1.633031	0.480073	0.666620
C151	C	0.967304	-0.127189	-0.000038
C152	C	1.300637	0.206145	0.333295
C153	C	1.633970	0.539478	0.666628
C154	C	0.829299	-0.113448	-0.000036
C155	C	1.162633	0.219885	0.333298
C156	C	1.495966	0.553219	0.666631
C157	C	0.828360	-0.172848	-0.000041
C158	C	1.161693	0.160486	0.333293
C159	C	1.495026	0.493819	0.666626
C160	C	0.896899	-0.209420	-0.000048
C161	C	1.230232	0.123914	0.333285
C162	C	1.563565	0.457247	0.666618
O163	O	0.768227	-0.260981	-0.000030
O164	O	1.101560	0.072353	0.333303
O165	O	1.434894	0.405686	0.666637
O166	O	1.023554	-0.286456	-0.000069
O167	O	1.356887	0.046877	0.333264
O168	O	1.690221	0.380211	0.666598
C169	C	1.031894	0.072390	-0.000059
C170	C	1.365227	0.405723	0.333274
C171	C	1.698561	0.739057	0.666607
C172	C	1.115906	0.073400	-0.000067
C173	C	1.449240	0.406733	0.333266
C174	C	1.782573	0.740067	0.666599
C175	C	0.887178	0.180864	-0.000066
C176	C	1.220512	0.514197	0.333267
C177	C	1.553845	0.847530	0.666601
C178	C	0.888196	0.244084	-0.000075
C179	C	1.221529	0.577417	0.333259
C180	C	1.554863	0.910750	0.666592
N181	N	0.893442	0.076734	0.143752
N182	N	1.226776	0.410067	0.477086
N183	N	1.560109	0.743400	0.810419
N184	N	0.893537	0.076730	-0.143856
N185	N	1.226870	0.410063	0.189477
N186	N	1.560204	0.743397	0.522810
C187	C	0.939151	0.111227	0.563525
C188	C	1.272484	0.444561	0.896858
C189	C	1.605818	0.777894	1.230192
C190	C	0.939160	0.111226	0.627133
C191	C	1.272493	0.444559	0.960466
C192	C	1.605826	0.777893	1.293799
O193	O	0.977996	0.140550	0.660018
O194	O	1.311329	0.473883	0.993352
O195	O	1.644662	0.807217	1.326685
N196	N	0.893522	0.076728	0.658959
N197	N	1.226855	0.410061	0.992293
N198	N	1.560189	0.743394	1.325626
C199	C	0.847878	0.042224	0.627175
C200	C	1.181212	0.375557	0.960509
C201	C	1.514545	0.708891	1.293842
O202	O	0.809061	0.012880	0.660087
O203	O	1.142395	0.346213	0.993420
O204	O	1.475728	0.679547	1.326754
C205	C	0.847874	0.042223	0.563569
C206	C	1.181207	0.375556	0.896902
C207	C	1.514541	0.708890	1.230235
C208	C	0.893509	0.076728	0.531745
C209	C	1.226842	0.410061	0.865079
C210	C	1.560176	0.743395	1.198412
C211	C	0.984783	0.145729	0.531701
C212	C	1.318116	0.479062	0.865035
C213	C	1.651449	0.812396	1.198368
C214	C	0.984772	0.145731	0.468098
C215	C	1.318106	0.479064	0.801431
C216	C	1.651439	0.812398	1.134765
C217	C	0.939131	0.111232	0.436319
C218	C	1.272464	0.444565	0.769652
C219	C	1.605797	0.777898	1.102985
C220	C	0.893499	0.076730	0.468142
C221	C	1.226832	0.410063	0.801475
C222	C	1.560165	0.743397	1.134809
C223	C	0.802235	0.007717	0.531786
C224	C	1.135568	0.341050	0.865119
C225	C	1.468902	0.674383	1.198453
C226	C	0.802235	0.007718	0.468175
C227	C	1.135568	0.341051	0.801508
C228	C	1.468902	0.674385	1.134842
C229	C	0.847870	0.042223	0.436352
C230	C	1.181203	0.375556	0.769685
C231	C	1.514536	0.708890	1.103018
C232	C	0.847847	0.042232	0.372759
C233	C	1.181180	0.375566	0.706093
C234	C	1.514513	0.708899	1.039426
N235	N	0.893484	0.076731	0.340932
N236	N	1.226818	0.410064	0.674266
N237	N	1.560151	0.743397	1.007599
C238	C	0.939126	0.111230	0.372712
C239	C	1.272460	0.444564	0.706045
C240	C	1.605793	0.777897	1.039379
C241	C	0.847892	0.042229	0.760753
C242	C	1.181225	0.375562	1.094086
C243	C	1.514559	0.708895	1.427420
C244	C	0.847892	0.042233	0.824358
C245	C	1.181225	0.375566	1.157692
C246	C	1.514558	0.708899	1.491025
C247	C	0.939174	0.111234	0.824311
C248	C	1.272508	0.444567	1.157645
C249	C	1.605841	0.777900	1.490978
C250	C	0.939170	0.111233	0.760705
C251	C	1.272503	0.444566	1.094038
C252	C	1.605837	0.777899	1.427371
C253	C	0.893530	0.076727	0.728926
C254	C	1.226863	0.410060	1.062260
C255	C	1.560196	0.743394	1.395593
C256	C	0.939101	0.111232	0.239141
C257	C	1.272434	0.444566	0.572474
C258	C	1.605768	0.777899	0.905807
C259	C	0.939084	0.111233	0.175532
C260	C	1.272418	0.444567	0.508865
C261	C	1.605751	0.777900	0.842199
C262	C	0.847805	0.042230	0.175585
C263	C	1.181138	0.375563	0.508918
C264	C	1.514472	0.708897	0.842251
C265	C	0.847818	0.042231	0.239188
C266	C	1.181152	0.375565	0.572521
C267	C	1.514485	0.708898	0.905854
C268	C	0.893472	0.076734	0.270964
C269	C	1.226806	0.410067	0.604298
C270	C	1.560139	0.743401	0.937631
O271	O	0.809033	0.012922	0.339833
O272	O	1.142366	0.346255	0.673166
O273	O	1.475699	0.679588	1.006500
O274	O	0.977944	0.140564	0.339792
O275	O	1.311278	0.473897	0.673126
O276	O	1.644611	0.807231	1.006459
H277	H	0.123288	0.073494	-0.100005
H278	H	0.456622	0.406828	0.233328
H279	H	0.789955	0.740161	0.566661
Cl280	Cl	1.045966	-0.644994	-0.000071
Cl281	Cl	1.379299	-0.311661	0.333262
Cl282	Cl	1.712633	0.021672	0.666596
H283	H	0.698438	-0.457783	-0.000079
H284	H	1.031771	-0.124449	0.333254
H285	H	1.365105	0.208884	0.666588
Cl286	Cl	1.043822	-0.779073	-0.000083
Cl287	Cl	1.377156	-0.445740	0.333251
Cl288	Cl	1.710489	-0.112406	0.666584
Cl289	Cl	0.502992	0.078057	0.124291
Cl290	Cl	0.836325	0.411390	0.457624
Cl291	Cl	1.169659	0.744723	0.790957
H292	H	0.810642	0.014143	0.149698
H293	H	1.143976	0.347476	0.483031
H294	H	1.477309	0.680810	0.816365
Cl295	Cl	0.790441	-0.001141	0.279196
Cl296	Cl	1.123774	0.332192	0.612529
Cl297	Cl	1.457108	0.665525	0.945862
H298	H	0.976277	0.139328	0.265006
H299	H	1.309610	0.472661	0.598339
H300	H	1.642944	0.805994	0.931672
H301	H	1.021936	0.173826	0.442193
H302	H	1.355270	0.507160	0.775526
H303	H	1.688603	0.840493	1.108860
H304	H	0.266490	0.075205	-0.099999
H305	H	0.599824	0.408539	0.233335
H306	H	0.933157	0.741872	0.566668
H307	H	1.088540	-0.388734	-0.000063
H308	H	1.421874	-0.055400	0.333270
H309	H	1.755207	0.277933	0.666604
Cl310	Cl	1.042168	0.189107	0.571641
Cl311	Cl	1.375502	0.522440	0.904975
Cl312	Cl	1.708835	0.855773	1.238308
H313	H	1.022175	-0.216364	-0.000055
H314	H	1.355509	0.116969	0.333278
H315	H	1.688842	0.450303	0.666611
H316	H	1.023883	-0.108609	-0.000035
H317	H	1.357216	0.224725	0.333299
H318	H	1.690549	0.558058	0.666632
H319	H	0.765069	-0.020382	0.442304
H320	H	1.098402	0.312952	0.775638
H321	H	1.431735	0.646285	1.108971
H322	H	0.663685	0.079982	0.099899
H323	H	0.997019	0.413315	0.433233
H324	H	1.330352	0.746649	0.766566
Cl325	Cl	1.117180	-0.512679	-0.000072
Cl326	Cl	1.450513	-0.179346	0.333261
Cl327	Cl	1.783846	0.153988	0.666595
H328	H	0.763094	-0.737916	-0.000060
H329	H	1.096427	-0.404583	0.333274
H330	H	1.429761	-0.071249	0.666607
H331	H	0.663783	0.079988	-0.099980
H332	H	0.997117	0.413321	0.233354
H333	H	1.330450	0.746654	0.566687
Cl334	Cl	0.503100	0.078057	-0.124383
Cl335	Cl	0.836433	0.411390	0.208951
Cl336	Cl	1.169766	0.744723	0.542284
Cl337	Cl	0.734453	-0.613965	-0.000067
Cl338	Cl	1.067787	-0.280631	0.333266
Cl339	Cl	1.401120	0.052702	0.666600
H340	H	0.700158	-0.350029	-0.000075
H341	H	1.033491	-0.016696	0.333258
H342	H	1.366825	0.316638	0.666591
Cl343	Cl	0.283873	0.075411	0.124275
Cl344	Cl	0.617206	0.408745	0.457609
Cl345	Cl	0.950539	0.742078	0.790942
Cl346	Cl	0.105701	0.073264	0.124270
Cl347	Cl	0.439034	0.406598	0.457603
Cl348	Cl	0.772367	0.739931	0.790936
Cl349	Cl	0.996545	0.154609	0.720705
Cl350	Cl	1.329878	0.487942	1.054038
Cl351	Cl	1.663212	0.821276	1.387371
Cl352	Cl	0.741016	-0.201542	-0.000033
Cl353	Cl	1.074349	0.131791	0.333301
Cl354	Cl	1.407683	0.465124	0.666634
H355	H	0.773507	-0.083659	-0.000031
H356	H	1.106840	0.249674	0.333303
H357	H	1.440174	0.583007	0.666636
Cl358	Cl	0.996453	0.154618	0.135529
Cl359	Cl	1.329786	0.487951	0.468862
Cl360	Cl	1.663119	0.821285	0.802196
H361	H	0.976338	0.139326	0.850198
H362	H	1.309671	0.472659	1.183531
H363	H	1.643004	0.805993	1.516864
H364	H	0.810722	0.014142	0.850264
H365	H	1.144055	0.347475	1.183597
H366	H	1.477389	0.680809	1.516930
H367	H	0.810719	0.014132	0.734883
H368	H	1.144052	0.347465	1.068216
H369	H	1.477385	0.680799	1.401550
Cl370	Cl	0.744862	-0.035664	0.571777
Cl371	Cl	1.078195	0.297669	0.905110
Cl372	Cl	1.411528	0.631003	1.238444
