data_functionalizedCrystal
_audit_creation_method	'MofGen! by Chris Wilmer'
_symmetry_space_group_name_H-M	'P1'
_symmetry_Int_Tables_number	1
_symmetry_cell_setting	triclinic
loop_
_symmetry_equiv_pos_as_xyz
  x,y,z
_cell_length_a	12.811457
_cell_length_b	12.811442
_cell_length_c	11.295483
_cell_angle_alpha	88.702281
_cell_angle_beta	91.289320
_cell_angle_gamma	84.561231
loop_
_atom_site_label
_atom_site_type_symbol
_atom_site_fract_x
_atom_site_fract_y
_atom_site_fract_z
O1	O	1.390748	0.143896	0.035631
O2	O	1.087661	0.156845	0.001499
O3	O	1.245672	-0.001175	0.035632
O4	O	1.232737	0.301916	0.001498
O5	O	1.231793	0.012683	0.230687
O6	O	1.073782	0.170703	0.196554
O7	O	1.376869	0.157754	0.230686
Cu8	Cu	1.224059	0.165493	0.231430
Cu9	Cu	1.240472	0.149105	0.000755
O10	O	1.218858	0.315773	0.196553
C11	C	1.041904	0.162624	0.094958
C12	C	0.926237	0.159184	0.082838
C13	C	0.693756	0.167809	0.272737
C14	C	0.585077	0.164577	0.261355
C15	C	0.600198	0.149480	0.048693
C16	C	0.708878	0.152712	0.060075
C17	C	0.755652	0.161878	0.172101
C18	C	0.864333	0.165118	0.183481
C19	C	0.879453	0.150013	-0.029179
C20	C	0.770774	0.146781	-0.040561
C21	C	1.237581	-0.033065	0.137225
C22	C	1.234136	-0.148733	0.149339
C23	C	1.221721	-0.304211	0.272736
C24	C	1.224953	-0.195530	0.261356
C25	C	1.240084	-0.210624	0.048695
C26	C	1.236852	-0.319305	0.060075
C27	C	1.227672	-0.366094	0.172100
C28	C	1.224447	-0.474778	0.183479
C29	C	1.239570	-0.489869	-0.029182
C30	C	1.242803	-0.381188	-0.040562
C31	C	1.422627	0.151975	0.137224
C32	C	1.538294	0.155414	0.149336
C33	C	1.226950	0.347663	0.094957
C34	C	1.230395	0.463330	0.082835
N35	N	1.212522	0.177019	0.393675
N36	N	1.252016	0.137571	-0.161489
C37	C	1.335062	0.054542	0.669428
C38	C	1.326352	0.063260	0.792209
C39	C	1.186385	0.203167	0.762022
C40	C	1.195096	0.194449	0.639240
C41	C	1.269438	0.120135	0.592948
C42	C	1.278153	0.111423	0.470165
C43	C	1.138183	0.251325	0.439979
C44	C	1.129472	0.260043	0.562761
H45	H	0.534684	0.169412	0.343303
H46	H	1.395602	-0.005960	0.631737
H47	H	1.250274	-0.343076	-0.131769
O48	O	1.245985	-0.556612	-0.137739
H49	H	1.242189	-0.640046	-0.111011
O50	O	1.067397	0.322072	0.357481
H51	H	1.079981	0.405119	0.373790
O52	O	0.946211	0.143609	-0.137734
H53	H	1.029642	0.147389	-0.111003
O54	O	0.720322	0.136902	-0.161386
H55	H	0.634351	0.135658	-0.152398
O56	O	0.914786	0.175005	0.304304
H57	H	0.955496	0.247691	0.306019
H58	H	0.731839	0.175287	0.363951
O59	O	1.358325	0.031269	0.420226
H60	H	1.402485	-0.012886	0.494040
O61	O	1.214539	-0.525252	0.304298
H62	H	1.210931	-0.463955	0.372362
H63	H	1.379788	0.009846	0.854477
H64	H	0.562097	0.141999	-0.042511
H65	H	1.068941	0.320545	0.600466
O66	O	1.211822	-0.354689	0.393554
H67	H	1.208224	-0.293398	0.461623
O68	O	1.218550	-0.128787	0.369904
H69	H	1.143464	-0.137600	0.414524
O70	O	1.249971	-0.160149	-0.072127
H71	H	1.251217	-0.074180	-0.063127
O72	O	1.106207	0.283316	0.811959
H73	H	1.111181	0.278357	0.910186
