data_functionalizedCrystal
_audit_creation_method	'MofGen! by Chris Wilmer'
_symmetry_space_group_name_H-M	'P1'
_symmetry_Int_Tables_number	1
_symmetry_cell_setting	triclinic
loop_
_symmetry_equiv_pos_as_xyz
  x,y,z
_cell_length_a	12.827893
_cell_length_b	12.645330
_cell_length_c	12.827885
_cell_angle_alpha	90.031113
_cell_angle_beta	90.019272
_cell_angle_gamma	90.012617
loop_
_atom_site_label
_atom_site_type_symbol
_atom_site_fract_x
_atom_site_fract_y
_atom_site_fract_z
Zn1	Zn	1.597690	-0.421989	0.590839
Zn2	Zn	1.597592	-0.599289	0.416095
Zn3	Zn	1.422931	-0.422040	0.416113
Zn4	Zn	1.422925	-0.599211	0.590795
O5	O	1.510284	-0.510632	0.503461
O6	O	1.743913	-0.445520	0.567670
O7	O	1.574385	-0.575832	0.269861
O8	O	1.446157	-0.273686	0.439316
O9	O	1.743841	-0.575782	0.439286
O10	O	1.574551	-0.273648	0.567687
O11	O	1.446062	-0.445608	0.269874
O12	O	1.276694	-0.445531	0.439274
O13	O	1.446146	-0.575647	0.737037
O14	O	1.276689	-0.575697	0.567612
O15	O	1.574545	-0.445443	0.737069
O16	O	1.574379	-0.747626	0.439244
O17	O	1.446051	-0.747568	0.567595
C18	C	1.238774	-0.510612	0.503441
C19	C	1.122621	-0.510629	0.503457
C20	C	1.070862	-0.575140	0.566865
C21	C	0.950811	-0.575158	0.566883
C22	C	1.510232	-0.786062	0.503436
C23	C	1.510305	-0.903892	0.503460
C24	C	1.590906	-1.071448	0.422551
C25	C	1.591169	-0.948888	0.422749
C26	C	1.540172	-0.948266	0.613614
C27	C	1.540811	-1.070864	0.613184
C28	C	1.399806	-1.071222	0.475302
C29	C	1.400335	-0.948617	0.472832
C30	C	1.782854	-0.510654	0.503481
C31	C	1.899007	-0.510663	0.503490
C32	C	1.510355	-0.510531	0.776031
C33	C	1.510386	-0.510487	0.892184
C34	C	1.510365	-0.234127	0.503508
C35	C	1.510400	-0.116297	0.503529
C36	C	1.510274	-0.510657	0.231951
C37	C	1.510446	-0.510402	0.115798
C38	C	1.573929	-0.446045	0.943985
C39	C	1.573961	-0.445999	1.064035
H40	H	1.572482	-0.918891	0.341071
Br41	Br	1.560160	-1.120718	0.286012
H42	H	1.078058	-0.455408	0.449189
Br43	Br	1.145126	-0.667179	0.657326
H44	H	1.456002	-0.565617	0.936712
Br45	Br	0.973183	-0.418609	0.412992
H46	H	1.628302	-0.390905	0.899456
H47	H	1.620097	-0.917476	0.637922
Br48	Br	1.726705	-1.122660	0.453314
H49	H	1.337116	-0.917999	0.527488
Br50	Br	1.727696	-0.899861	0.453871
H51	H	0.906299	-0.630392	0.621166
H52	H	1.621650	-1.099375	0.637094
Br53	Br	1.447311	-1.120311	0.717161
Br54	Br	1.354534	-1.122916	0.343757
H55	H	1.628366	-0.390832	1.108582
Br56	Br	1.445407	-0.899701	0.716873
H57	H	1.456045	-0.565580	1.071257
Br58	Br	1.362791	-0.900293	0.337723
Br59	Br	1.299827	-1.119562	0.573602
