data_functionalizedCrystal
_audit_creation_method	'MofGen! by Chris Wilmer'
_symmetry_space_group_name_H-M	'P1'
_symmetry_Int_Tables_number	1
_symmetry_cell_setting	triclinic
loop_
_symmetry_equiv_pos_as_xyz
  x,y,z
_cell_length_a	19.077399
_cell_length_b	19.077068
_cell_length_c	19.077314
_cell_angle_alpha	89.878373
_cell_angle_beta	94.665049
_cell_angle_gamma	94.530727
loop_
_atom_site_label
_atom_site_type_symbol
_atom_site_fract_x
_atom_site_fract_y
_atom_site_fract_z
Zn1	Zn	1.052326	-0.223299	-0.364730
Zn2	Zn	1.051855	-0.345546	-0.251957
Zn3	Zn	0.938797	-0.232407	-0.251964
Zn4	Zn	0.929288	-0.345510	-0.374525
O5	O	0.993067	-0.286690	-0.310794
O6	O	1.151071	-0.235718	-0.345668
O7	O	1.040640	-0.334365	-0.153469
O8	O	0.958033	-0.132705	-0.262826
O9	O	1.150725	-0.325533	-0.262814
O10	O	1.041443	-0.126013	-0.345675
O11	O	0.957577	-0.251242	-0.153474
O12	O	0.838728	-0.251207	-0.272324
O13	O	0.941827	-0.325471	-0.471715
O14	O	0.831742	-0.334303	-0.362370
O15	O	1.032222	-0.235683	-0.464518
O16	O	1.031420	-0.444035	-0.272312
O17	O	0.941370	-0.444009	-0.362363
C18	C	0.809615	-0.293740	-0.318411
C19	C	0.731133	-0.296773	-0.321687
C20	C	0.697878	-0.254863	-0.276415
C21	C	0.624135	-0.257718	-0.279493
C22	C	0.583648	-0.302480	-0.327847
C23	C	0.616908	-0.344394	-0.373121
C24	C	0.690650	-0.341542	-0.370039
C25	C	0.362716	-0.315660	-0.342081
C26	C	0.288970	-0.318507	-0.345161
C27	C	0.296202	-0.231832	-0.251532
C28	C	0.369945	-0.228981	-0.248457
C29	C	0.403198	-0.270898	-0.293729
N30	N	0.508271	-0.305398	-0.330996
N31	N	0.478574	-0.267983	-0.290576
C32	C	0.985331	-0.469559	-0.318414
C33	C	0.982085	-0.547788	-0.321695
C34	C	1.027478	-0.584528	-0.276387
C35	C	1.024429	-0.658032	-0.279477
C36	C	0.975984	-0.694795	-0.327871
C37	C	0.930589	-0.658050	-0.373184
C38	C	0.933642	-0.584547	-0.370097
C39	C	0.961826	-0.914626	-0.342130
C40	C	0.958776	-0.988134	-0.345212
C41	C	1.052617	-0.988110	-0.251506
C42	C	1.055663	-0.914606	-0.248421
C43	C	1.010270	-0.877868	-0.293736
N44	N	0.972865	-0.769928	-0.331029
N45	N	1.013393	-0.802736	-0.290581
C46	C	1.177234	-0.279613	-0.303148
C47	C	1.255715	-0.276598	-0.299889
C48	C	0.986016	-0.279557	-0.494368
C49	C	0.983012	-0.276518	-0.572596
C50	C	1.000851	-0.103106	-0.303159
C51	C	1.004168	-0.024873	-0.299905
C52	C	1.024844	-0.318365	-0.609348
C53	C	1.022021	-0.315500	-0.682851
C54	C	0.977363	-0.270791	-0.719601
C55	C	0.935529	-0.228940	-0.682844
C56	C	0.938356	-0.231801	-0.609342
C57	C	0.964275	-0.257589	-0.939429
C58	C	0.961450	-0.254733	-1.012937
C59	C	1.047943	-0.341292	-1.012939
C60	C	1.050763	-0.344153	-0.939435
C61	C	1.008932	-0.302298	-0.902684
N62	N	0.974475	-0.267864	-0.794734
N63	N	1.011824	-0.305223	-0.827553
C64	C	1.000132	-0.293743	-0.127931
C65	C	1.003281	-0.296580	-0.049689
H66	H	0.389782	-0.349792	-0.378944
H67	H	0.583937	-0.380844	-0.412488
H68	H	1.066925	-0.554600	-0.236977
H69	H	0.402905	-0.192536	-0.209078
O70	O	1.073387	-0.697660	-0.230608
H71	H	1.064018	-0.686203	-0.175272
O72	O	0.906524	-1.027796	-0.397409
H73	H	0.917059	-1.011057	-0.451565
O74	O	0.878330	-0.697703	-0.425373
H75	H	0.907133	-0.728552	-0.461296
O76	O	0.919157	-0.212443	-0.899805
H77	H	0.883184	-0.246619	-0.869111
O78	O	1.067128	-0.360655	-0.722484
H79	H	1.123601	-0.347022	-0.705571
O80	O	1.107923	-0.874962	-0.196226
H81	H	1.097395	-0.891722	-0.142075
H82	H	0.924865	-0.884719	-0.379026
H83	H	0.256007	-0.354957	-0.384541
H84	H	1.089574	-1.018031	-0.214615
O85	O	1.098947	-0.392357	-0.899795
H86	H	1.127571	-0.420967	-0.937700
H87	H	0.597063	-0.223595	-0.242624
O88	O	0.884675	-0.544916	-0.418956
H89	H	0.850468	-0.582827	-0.453120
H90	H	0.717724	-0.375670	-0.406904
H91	H	1.061212	-0.354769	-0.579431
H92	H	1.082001	-0.375366	-1.042869
H93	H	0.925085	-0.218320	-1.042857
H94	H	0.899170	-0.192534	-0.712772
O95	O	0.260327	-0.186646	-0.202693
H96	H	0.227022	-0.150961	-0.234155
H97	H	0.730838	-0.218407	-0.237045
O98	O	0.893239	-0.186666	-0.569696
H99	H	0.861706	-0.155100	-0.607599
