data_functionalizedCrystal
_audit_creation_method	'MofGen! by Chris Wilmer'
_symmetry_space_group_name_H-M	'P1'
_symmetry_Int_Tables_number	1
_symmetry_cell_setting	triclinic
loop_
_symmetry_equiv_pos_as_xyz
  x,y,z
_cell_length_a	19.077236
_cell_length_b	12.594516
_cell_length_c	19.077258
_cell_angle_alpha	92.305329
_cell_angle_beta	89.918181
_cell_angle_gamma	92.304758
loop_
_atom_site_label
_atom_site_type_symbol
_atom_site_fract_x
_atom_site_fract_y
_atom_site_fract_z
Zn1	Zn	1.058268	-0.333032	0.440562
Zn2	Zn	1.558268	0.166968	0.940562
Zn3	Zn	1.062953	-0.517829	0.323063
Zn4	Zn	1.562953	-0.017829	0.823063
Zn5	Zn	0.945505	-0.347270	0.318341
Zn6	Zn	1.445505	0.152730	0.818341
Zn7	Zn	0.940754	-0.518380	0.435802
Zn8	Zn	1.440754	-0.018380	0.935802
O9	O	1.001870	-0.429128	0.379442
O10	O	1.501870	0.070872	0.879442
O11	O	1.157221	-0.351356	0.428943
O12	O	1.657221	0.148644	0.928943
O13	O	1.051323	-0.500932	0.224105
O14	O	1.551323	-0.000932	0.724105
O15	O	0.960490	-0.196433	0.334570
O16	O	1.460490	0.303567	0.834570
O17	O	1.160664	-0.487126	0.342617
O18	O	1.660664	0.012874	0.842617
O19	O	1.043337	-0.185972	0.424365
O20	O	1.543337	0.314028	0.924365
O21	O	0.965034	-0.375623	0.220636
O22	O	1.465034	0.124377	0.720636
O23	O	0.846543	-0.376158	0.329955
O24	O	1.346543	0.123842	0.829955
O25	O	0.952393	-0.488065	0.534765
O26	O	1.452393	0.011935	1.034765
O27	O	0.843052	-0.501871	0.416253
O28	O	1.343052	-0.001871	0.916253
O29	O	1.038730	-0.351890	0.538262
O30	O	1.538730	0.148110	1.038262
O31	O	1.046716	-0.666850	0.338002
O32	O	1.546716	-0.166850	0.838002
O33	O	0.956937	-0.667255	0.420831
O34	O	1.456937	-0.167255	0.920831
C35	C	0.819301	-0.440620	0.372075
C36	C	1.319301	0.059380	0.872075
C37	C	0.741197	-0.445561	0.368940
C38	C	1.241197	0.054439	0.868940
C39	C	0.702708	-0.377299	0.412482
C40	C	1.202708	0.122701	0.912482
C41	C	0.629321	-0.381937	0.409530
C42	C	1.129321	0.118063	0.909530
C43	C	0.594423	-0.454843	0.363040
C44	C	1.094423	0.045157	0.863040
C45	C	0.632917	-0.523109	0.319495
C46	C	1.132917	-0.023109	0.819495
C47	C	0.706303	-0.518465	0.322443
C48	C	1.206303	-0.018465	0.822443
C49	C	0.375135	-0.476296	0.349392
C50	C	0.875135	0.023704	0.849392
C51	C	0.301744	-0.480937	0.346448
C52	C	0.801744	0.019063	0.846448
C53	C	0.298153	-0.339763	0.436483
C54	C	0.798153	0.160237	0.936483
C55	C	0.371541	-0.335130	0.439430
C56	C	0.871541	0.164870	0.939430
C57	C	0.410028	-0.403392	0.395882
C58	C	0.910028	0.096608	0.895882
N59	N	0.519410	-0.459588	0.360024
N60	N	1.019410	0.040412	0.860024
N61	N	0.485040	-0.398641	0.398895
N62	N	0.985040	0.101359	0.898895
C63	C	1.001838	-0.705671	0.379428
C64	C	1.501838	-0.205671	0.879428
C65	C	1.001888	-0.823973	0.379449
C66	C	1.501888	-0.323973	0.879449
C67	C	1.050771	-0.892960	0.334450
C68	C	1.550771	-0.392960	0.834450
C69	C	1.065351	-0.958872	0.399277
C70	C	1.565351	-0.458872	0.899277
C71	C	0.987394	-0.968852	0.314666
C72	C	1.487394	-0.468852	0.814666
C73	C	1.016499	-0.888321	0.444310
C74	C	1.516499	-0.388321	0.944310
C75	C	0.938514	-0.898300	0.359655
C76	C	1.438514	-0.398300	0.859655
C77	C	0.953068	-0.964179	0.424525
C78	C	1.453068	-0.464179	0.924525
C79	C	1.185152	-0.417591	0.386838
C80	C	1.685152	0.082409	0.886838
C81	C	1.263256	-0.412675	0.389989
C82	C	1.763256	0.087325	0.889989
C83	C	0.994509	-0.418451	0.562722
C84	C	1.494509	0.081549	1.062722
C85	C	0.991372	-0.413901	0.640825
C86	C	1.491372	0.086099	1.140825
C87	C	1.001921	-0.151502	0.379472
C88	C	1.501921	0.348498	0.879472
C89	C	1.001942	-0.033194	0.379484
C90	C	1.501942	0.466806	0.879484
C91	C	1.034821	-0.477001	0.679327
C92	C	1.534821	0.022999	1.179327
C93	C	1.031874	-0.472713	0.752713
C94	C	1.531874	0.027287	1.252713
C95	C	0.985473	-0.405330	0.787596
C96	C	1.485473	0.094670	1.287596
C97	C	0.942023	-0.342222	0.749089
C98	C	1.442023	0.157778	1.249089
C99	C	0.944974	-0.346505	0.675705
C100	C	1.444974	0.153495	1.175705
C101	C	0.971832	-0.385519	1.006879
C102	C	1.471832	0.114481	1.506879
C103	C	0.968883	-0.381243	1.080269
C104	C	1.468883	0.118757	1.580269
C105	C	1.058735	-0.511733	1.083888
C106	C	1.558735	-0.011733	1.583888
C107	C	1.061679	-0.516015	1.010502
C108	C	1.561679	-0.016015	1.510502
C109	C	1.018231	-0.452903	0.972001
C110	C	1.518231	0.047097	1.472001
N111	N	0.982458	-0.400947	0.862609
N112	N	1.482458	0.099053	1.362609
N113	N	1.021251	-0.457281	0.896990
N114	N	1.521251	0.042719	1.396990
C115	C	1.009196	-0.439789	1.196874
C116	C	1.509196	0.060211	1.696874
C117	C	1.012331	-0.444343	1.118771
C118	C	1.512331	0.055657	1.618771
H119	H	0.273332	-0.540312	0.308590
H120	H	0.773332	-0.040312	0.808590
Br121	Br	0.418897	-0.236192	0.502533
Br122	Br	0.918897	0.263808	1.002533
H123	H	0.737639	-0.574051	0.286987
H124	H	1.237639	-0.074051	0.786987
Br125	Br	0.585557	-0.622047	0.256395
Br126	Br	1.085557	-0.122047	0.756395
Br127	Br	1.117697	-0.597379	1.136142
Br128	Br	1.617697	-0.097379	1.636142
Br129	Br	0.245918	-0.247127	0.495581
Br130	Br	0.745918	0.252873	0.995581
H131	H	0.406463	-0.531881	0.313932
H132	H	0.906463	-0.031881	0.813932
Br133	Br	0.905936	-0.289740	1.127611
Br134	Br	1.405936	0.210260	1.627611
Br135	Br	1.090839	-0.558360	0.804963
Br136	Br	1.590839	-0.058360	1.304963
H137	H	0.975113	-1.004065	0.259866
H138	H	1.475113	-0.504065	0.759866
H139	H	1.118967	-0.985647	0.416038
H140	H	1.618967	-0.485647	0.916038
Br141	Br	1.124653	-0.607468	0.963166
Br142	Br	1.624653	-0.107468	1.463166
H143	H	1.092115	-0.861691	0.296433
H144	H	1.592115	-0.361691	0.796433
H145	H	0.936451	-0.334133	0.975541
H146	H	1.436451	0.165867	1.475541
H147	H	0.904246	-0.287352	0.777497
H148	H	1.404246	0.212648	1.277497
Br149	Br	0.886011	-0.260857	0.623451
Br150	Br	1.386011	0.239143	1.123451
H151	H	1.028725	-0.853241	0.499155
H152	H	1.528725	-0.353241	0.999155
Br153	Br	0.884201	-1.015962	0.488048
Br154	Br	1.384201	-0.515962	0.988048
H155	H	1.072607	-0.531869	0.650931
H156	H	1.572607	-0.031869	1.150931
Br157	Br	0.750062	-0.278356	0.475583
Br158	Br	1.250062	0.221644	0.975583
Br159	Br	0.577089	-0.289291	0.468625
Br160	Br	1.077089	0.210709	0.968625
H161	H	0.884914	-0.871502	0.342876
H162	H	1.384914	-0.371502	0.842876
