data_functionalizedCrystal
_audit_creation_method	'MofGen! by Chris Wilmer'
_symmetry_space_group_name_H-M	'P1'
_symmetry_Int_Tables_number	1
_symmetry_cell_setting	triclinic
loop_
_symmetry_equiv_pos_as_xyz
  x,y,z
_cell_length_a	9.065218
_cell_length_b	16.992695
_cell_length_c	8.140239
_cell_angle_alpha	89.996131
_cell_angle_beta	89.997198
_cell_angle_gamma	87.842054
loop_
_atom_site_label
_atom_site_type_symbol
_atom_site_fract_x
_atom_site_fract_y
_atom_site_fract_z
O1	O	1.971073	0.115065	-0.136620
O2	O	1.542664	0.124504	-0.136623
O3	O	1.755151	0.005630	-0.136608
O4	O	1.758586	0.233939	-0.136634
O5	O	1.755138	0.005628	0.136619
O6	O	1.542651	0.124502	0.136605
O7	O	1.971060	0.115064	0.136607
Zn8	Zn	1.756854	0.119783	0.179986
Zn9	Zn	1.756871	0.119785	-0.180002
O10	O	1.758573	0.233938	0.136593
C11	C	1.487587	0.123596	-0.000009
C12	C	1.323492	0.120884	-0.000010
C13	C	1.750726	-0.023615	0.000005
C14	C	1.737542	-0.110753	0.000005
C15	C	1.864748	-0.160090	0.000007
C16	C	1.852352	-0.241964	-0.000009
C17	C	1.712748	-0.274500	-0.000015
C18	C	1.585533	-0.225157	-0.000022
C19	C	1.597931	-0.143284	-0.000019
C20	C	1.661364	-0.518463	-0.000038
C21	C	1.648976	-0.600343	-0.000037
C22	C	1.915797	-0.617144	-0.000026
C23	C	1.928182	-0.535269	-0.000012
C24	C	1.800967	-0.485933	-0.000029
N25	N	1.700074	-0.358189	-0.000026
N26	N	1.813642	-0.402245	-0.000029
C27	C	2.026138	0.115972	-0.000010
C28	C	2.190232	0.118684	-0.000020
C29	C	1.762998	0.263183	-0.000024
C30	C	1.776182	0.350320	-0.000034
N31	N	1.756853	0.119781	0.425669
N32	N	1.756882	0.119780	-0.425685
H33	H	1.978428	-0.133606	0.000022
O34	O	2.039472	-0.664990	-0.000247
C35	C	2.263685	-0.704428	-0.141862
C36	C	2.123695	-0.650186	-0.141787
H37	H	2.331803	-0.692490	-0.256302
H38	H	2.332013	-0.692471	-0.027596
H39	H	2.230814	-0.768527	-0.141788
H40	H	2.156433	-0.586067	-0.141918
H41	H	2.055402	-0.662211	-0.256043
O42	O	1.474213	-0.095468	0.000052
C43	C	1.208257	-0.087438	-0.000070
C44	C	1.348249	-0.141679	-0.000098
H45	H	1.106380	-0.124778	-0.000227
H46	H	1.207273	-0.048704	0.114299
H47	H	1.207488	-0.048669	-0.114391
H48	H	1.349110	-0.180497	0.114145
H49	H	1.349178	-0.180360	-0.114543
H50	H	1.471864	-0.251654	-0.000038
O51	O	1.537831	-0.470515	-0.000334
C52	C	1.397003	-0.368299	-0.141842
C53	C	1.536955	-0.422569	-0.141731
H54	H	1.396263	-0.329509	-0.256131
H55	H	1.295052	-0.405585	-0.141946
H56	H	1.396134	-0.329586	-0.027447
H57	H	1.537967	-0.461293	-0.256106
H58	H	1.638843	-0.385237	-0.141541
H59	H	1.535289	-0.626830	-0.000016
H60	H	2.041862	-0.508785	-0.000007
O61	O	1.976031	-0.289807	-0.000217
C62	C	2.200267	-0.329237	-0.141797
C63	C	2.060269	-0.275000	-0.141744
H64	H	2.268397	-0.317296	-0.256226
H65	H	2.268578	-0.317277	-0.027520
H66	H	2.167405	-0.393338	-0.141729
H67	H	2.092999	-0.210880	-0.141870
H68	H	1.991993	-0.287028	-0.256010
