data_functionalizedCrystal
_audit_creation_method	'MofGen! by Chris Wilmer'
_symmetry_space_group_name_H-M	'P1'
_symmetry_Int_Tables_number	1
_symmetry_cell_setting	triclinic
loop_
_symmetry_equiv_pos_as_xyz
  x,y,z
_cell_length_a	18.215405
_cell_length_b	12.827893
_cell_length_c	18.215399
_cell_angle_alpha	89.982296
_cell_angle_beta	89.972459
_cell_angle_gamma	90.022702
loop_
_atom_site_label
_atom_site_type_symbol
_atom_site_fract_x
_atom_site_fract_y
_atom_site_fract_z
Zn1	Zn	-0.292992	1.597600	-0.416076
Zn2	Zn	0.207008	2.097600	0.083924
Zn3	Zn	-0.416064	1.597477	-0.293011
Zn4	Zn	0.083936	2.097477	0.206989
Zn5	Zn	-0.293015	1.422846	-0.293028
Zn6	Zn	0.206985	1.922846	0.206972
Zn7	Zn	-0.416022	1.422804	-0.416040
Zn8	Zn	0.083978	1.922804	0.083960
O9	O	-0.354523	1.510182	-0.354539
O10	O	0.145477	2.010182	0.145461
O11	O	-0.309326	1.743820	-0.399759
O12	O	0.190674	2.243820	0.100241
O13	O	-0.399768	1.574277	-0.190029
O14	O	0.100232	2.074277	0.309971
O15	O	-0.190028	1.446097	-0.309373
O16	O	0.309972	1.946097	0.190627
O17	O	-0.399746	1.743729	-0.309343
O18	O	0.100254	2.243729	0.190657
O19	O	-0.190011	1.574488	-0.399776
O20	O	0.309989	2.074488	0.100224
O21	O	-0.309365	1.445977	-0.190041
O22	O	0.190635	1.945977	0.309959
O23	O	-0.309325	1.276605	-0.309338
O24	O	0.190675	1.776605	0.190662
O25	O	-0.399674	1.446026	-0.519029
O26	O	0.100326	1.946026	-0.019029
O27	O	-0.399697	1.276574	-0.399715
O28	O	0.100303	1.776574	0.100285
O29	O	-0.309285	1.574447	-0.519056
O30	O	0.190715	2.074447	-0.019056
O31	O	-0.519042	1.574237	-0.309309
O32	O	-0.019042	2.074237	0.190691
O33	O	-0.519012	1.445906	-0.399698
O34	O	-0.019012	1.945906	0.100302
C35	C	-0.354509	1.238672	-0.354525
C36	C	0.145491	1.738672	0.145475
C37	C	-0.354521	1.122519	-0.354536
C38	C	0.145479	1.622519	0.145464
C39	C	-0.399310	1.070746	-0.399188
C40	C	0.100690	1.570746	0.100812
C41	C	-0.399323	0.950696	-0.399201
C42	C	0.100677	1.450696	0.100799
C43	C	-0.545730	1.510082	-0.354513
C44	C	-0.045730	2.010082	0.145487
C45	C	-0.627528	1.510134	-0.354527
C46	C	-0.127528	2.010134	0.145473
C47	C	-0.815653	1.577019	-0.401664
C48	C	-0.315653	2.077019	0.098336
C49	C	-0.892511	1.577057	-0.401678
C50	C	-0.392511	2.077057	0.098322
C51	C	-0.892642	1.443474	-0.307460
C52	C	-0.392642	1.943474	0.192540
C53	C	-0.815785	1.443431	-0.307450
C54	C	-0.315785	1.943431	0.192550
C55	C	-0.777292	1.510210	-0.354551
C56	C	-0.277292	2.010210	0.145449
C57	C	-0.931008	1.510290	-0.354574
C58	C	-0.431008	2.010290	0.145426
C59	C	-1.014342	1.510331	-0.354589
C60	C	-0.514342	2.010331	0.145411
C61	C	-0.693953	1.510168	-0.354538
C62	C	-0.193953	2.010168	0.145462
C63	C	-0.162570	1.510311	-0.354580
C64	C	0.337430	2.010311	0.145420
C65	C	-0.080771	1.510366	-0.354598
C66	C	0.419229	2.010366	0.145402
C67	C	-0.354473	1.510246	-0.546492
C68	C	0.145527	2.010246	-0.046492
C69	C	-0.354451	1.510273	-0.628291
C70	C	0.145549	2.010273	-0.128291
C71	C	-0.354538	1.782752	-0.354553
C72	C	0.145462	2.282752	0.145447
C73	C	-0.354544	1.898905	-0.354559
C74	C	0.145456	2.398905	0.145441
C75	C	-0.307341	1.577166	-0.816500
C76	C	0.192659	2.077166	-0.316500
C77	C	-0.307320	1.577178	-0.893358
C78	C	0.192680	2.077178	-0.393358
C79	C	-0.401447	1.443453	-0.893320
C80	C	0.098553	1.943453	-0.393320
C81	C	-0.401464	1.443436	-0.816462
C82	C	0.098536	1.943436	-0.316462
C83	C	-0.354412	1.510299	-0.778054
C84	C	0.145588	2.010299	-0.278054
C85	C	-0.354374	1.510328	-0.931771
C86	C	0.145626	2.010328	-0.431771
C87	C	-0.354351	1.510341	-1.015104
C88	C	0.145649	2.010341	-0.515104
C89	C	-0.354434	1.510284	-0.694715
C90	C	0.145566	2.010284	-0.194715
C91	C	-0.354521	1.510179	-0.163333
C92	C	0.145479	2.010179	0.336667
C93	C	-0.354335	1.510354	-0.081534
C94	C	0.145665	2.010354	0.418466
H95	H	-0.316182	1.077966	-0.316320
H96	H	0.183818	1.577966	0.183680
H97	H	-0.923741	1.631458	-0.440043
H98	H	-0.423741	2.131458	0.059957
Br99	Br	-0.944887	1.352846	-0.243542
Br100	Br	-0.444887	1.852846	0.256458
Br101	Br	-0.763414	1.667645	-0.465587
Br102	Br	-0.263414	2.167645	0.034413
Br103	Br	-0.463211	1.144992	-0.462891
Br104	Br	0.036789	1.644992	0.037109
H105	H	-0.316200	0.943421	-0.316327
H106	H	0.183800	1.443421	0.183673
Br107	Br	-0.763719	1.352743	-0.243515
Br108	Br	-0.263719	1.852743	0.256485
H109	H	-0.268989	1.631627	-0.924657
H110	H	0.231011	2.131627	-0.424657
Br111	Br	-0.465302	1.352720	-0.945449
Br112	Br	0.034698	1.852720	-0.445449
H113	H	-0.269027	1.631606	-0.785230
H114	H	0.230973	2.131606	-0.285230
H115	H	-0.439794	1.388978	-0.785159
H116	H	0.060206	1.888978	-0.285159
H117	H	-0.437670	0.906173	-0.437428
H118	H	0.062330	1.406173	0.062572
