data_functionalizedCrystal
_audit_creation_method	'MofGen! by Chris Wilmer'
_symmetry_space_group_name_H-M	'P1'
_symmetry_Int_Tables_number	1
_symmetry_cell_setting	triclinic
loop_
_symmetry_equiv_pos_as_xyz
  x,y,z
_cell_length_a	10.540514
_cell_length_b	10.540539
_cell_length_c	9.616153
_cell_angle_alpha	89.999906
_cell_angle_beta	89.992599
_cell_angle_gamma	84.520326
loop_
_atom_site_label
_atom_site_type_symbol
_atom_site_fract_x
_atom_site_fract_y
_atom_site_fract_z
O1	O	1.685911	0.178743	-0.115656
O2	O	1.316494	0.195632	-0.115654
O3	O	1.509630	0.002480	-0.115653
O4	O	1.492774	0.371895	-0.115657
O5	O	1.509604	0.002484	0.115638
O6	O	1.316467	0.195636	0.115637
O7	O	1.685884	0.178747	0.115635
Zn8	Zn	1.501171	0.187192	0.152359
Zn9	Zn	1.501206	0.187187	-0.152378
O10	O	1.492748	0.371899	0.115635
C11	C	1.269177	0.194374	-0.000008
C12	C	1.128227	0.190605	-0.000008
C13	C	1.057522	0.328745	-0.000012
C14	C	0.910908	0.324871	-0.000544
C15	C	0.935905	0.115476	-0.131837
C16	C	1.082444	0.120329	-0.131941
C17	C	1.082816	0.118290	0.131090
C18	C	0.935837	0.116957	0.132816
C19	C	1.508353	-0.044821	-0.000010
C20	C	1.504571	-0.185769	-0.000018
C21	C	1.359652	-0.369182	-0.000536
C22	C	1.363486	-0.222564	-0.000016
C23	C	1.572452	-0.247430	0.132061
C24	C	1.567637	-0.393974	0.132172
C25	C	1.570537	-0.394497	-0.130850
C26	C	1.571836	-0.247515	-0.132596
C27	C	1.733201	0.180004	-0.000013
C28	C	1.874151	0.183774	-0.000023
C29	C	1.494025	0.419199	-0.000012
C30	C	1.497807	0.560147	-0.000013
N31	N	1.501157	0.187195	0.360333
N32	N	1.501231	0.187174	-0.360352
C33	C	1.397526	0.290172	0.580703
C34	C	1.397754	0.290557	0.419535
C35	C	1.633882	0.217316	0.418782
C36	C	1.633317	0.218045	0.580000
C37	C	1.473384	0.053759	0.580246
C38	C	1.470338	0.054624	0.419019
H39	H	0.868234	0.378589	0.093924
C40	C	1.667528	0.347319	0.364229
H41	H	1.748019	0.364694	0.400174
H42	H	1.604216	0.412070	0.393318
H43	H	1.671126	0.345388	0.265530
C44	C	1.338441	0.023764	0.367419
H45	H	1.320344	-0.056540	0.403273
H46	H	1.338268	0.020917	0.268684
H47	H	1.275333	0.087877	0.398485
C48	C	1.284654	-0.409962	0.126705
H49	H	1.337172	-0.469866	0.180149
H50	H	1.211244	-0.447832	0.096340
H51	H	1.259298	-0.337339	0.182145
C52	C	1.120594	0.187720	-0.265550
H53	H	1.046565	0.211885	-0.319250
H54	H	1.177697	0.131377	-0.318139
H55	H	1.161036	0.261499	-0.241681
H56	H	1.548997	-0.022903	0.618363
C57	C	1.284365	-0.407804	-0.128483
H58	H	1.201263	-0.364110	-0.126857
H59	H	1.278241	-0.497121	-0.126735
H60	H	1.327138	-0.385988	-0.210804
H61	H	1.712960	0.146049	0.618988
C62	C	1.096065	0.404462	0.127654
H63	H	1.155631	0.352514	0.182101
H64	H	1.022611	0.429473	0.181938
H65	H	1.133768	0.478109	0.097678
H66	H	1.415193	0.388594	0.621200
C67	C	1.263884	0.266086	0.633147
H68	H	1.270131	0.193005	0.691469
H69	H	1.210560	0.252342	0.556038
H70	H	1.228519	0.338052	0.684324
C71	C	0.880442	0.184366	0.264562
H72	H	0.918135	0.143513	0.344567
H73	H	0.790851	0.180131	0.267000
H74	H	0.898185	0.271047	0.263405
H75	H	1.672442	-0.441732	-0.131738
H76	H	1.517447	-0.422167	0.230904
H77	H	1.299136	0.272435	0.380021
C78	C	1.345379	0.015042	0.635223
H79	H	1.330398	-0.065723	0.598131
H80	H	1.278582	0.076798	0.607629
H81	H	1.348194	0.010153	0.733837
C82	C	1.098351	0.403338	-0.127526
H83	H	1.158297	0.350659	-0.180765
H84	H	1.136183	0.476859	-0.097432
H85	H	1.025753	0.428492	-0.183072
C86	C	1.421940	0.424269	0.367406
H87	H	1.431677	0.478561	0.444760
H88	H	1.351748	0.458126	0.312581
H89	H	1.497344	0.418613	0.312732
C90	C	1.565620	-0.053894	0.364606
H91	H	1.625718	-0.019616	0.305126
H92	H	1.521034	-0.113224	0.314277
H93	H	1.608923	-0.095775	0.440860
H94	H	1.669103	-0.441952	0.138164
C95	C	1.710797	-0.214819	-0.143374
H96	H	1.729698	-0.162858	-0.066812
H97	H	1.721965	-0.170234	-0.227672
H98	H	1.766469	-0.291206	-0.142252
C99	C	0.854533	0.397160	-0.128915
H100	H	0.921253	0.428997	-0.180954
H101	H	0.796053	0.466169	-0.099689
H102	H	0.811530	0.340911	-0.185313
H103	H	1.130451	0.018856	-0.137568
C104	C	1.291335	-0.164994	-0.127914
H105	H	1.293593	-0.075106	-0.127771
H106	H	1.205306	-0.184702	-0.124653
H107	H	1.330612	-0.199649	-0.210235
C108	C	0.905756	-0.024518	-0.137971
H109	H	0.855113	-0.042598	-0.060014
H110	H	0.983032	-0.078835	-0.136532
H111	H	0.860496	-0.038479	-0.221148
H112	H	0.911652	0.014111	0.141168
C113	C	0.878427	0.178761	-0.264867
H114	H	0.816813	0.246794	-0.240361
H115	H	0.838907	0.117598	-0.318084
H116	H	0.944111	0.210962	-0.318215
H117	H	1.114299	0.164275	0.231032
C118	C	1.146658	-0.019353	0.132822
H119	H	1.200733	-0.032736	0.054085
H120	H	1.082989	-0.077297	0.130127
H121	H	1.195666	-0.032931	0.215310
H122	H	1.309676	-0.180802	0.094822
H123	H	1.676060	-0.225085	0.136971
C124	C	1.508866	-0.437107	-0.266087
H125	H	1.438176	-0.482960	-0.244016
H126	H	1.569633	-0.490343	-0.317660
H127	H	1.480707	-0.364292	-0.320002
H128	H	1.525276	-0.204825	0.230350
H129	H	1.522168	-0.206654	-0.230304
H130	H	1.657672	0.315381	0.617587
H131	H	1.712937	0.144346	0.380430
