data_functionalizedCrystal
_audit_creation_method	'MofGen! by Chris Wilmer'
_symmetry_space_group_name_H-M	'P1'
_symmetry_Int_Tables_number	1
_symmetry_cell_setting	triclinic
loop_
_symmetry_equiv_pos_as_xyz
  x,y,z
_cell_length_a	12.827892
_cell_length_b	19.805407
_cell_length_c	19.805399
_cell_angle_alpha	89.980427
_cell_angle_beta	90.022529
_cell_angle_gamma	89.984608
loop_
_atom_site_label
_atom_site_type_symbol
_atom_site_fract_x
_atom_site_fract_y
_atom_site_fract_z
Zn1	Zn	-0.416057	-1.034788	0.382743
Zn2	Zn	0.083943	-0.534788	0.882743
Zn3	Zn	-0.590812	-1.034724	0.269565
Zn4	Zn	-0.090812	-0.534724	0.769565
Zn5	Zn	-0.416086	-0.921602	0.269568
Zn6	Zn	0.083914	-0.421602	0.769568
Zn7	Zn	-0.590757	-0.921587	0.382712
Zn8	Zn	-0.090757	-0.421587	0.882712
O9	O	-0.503428	-0.978175	0.326147
O10	O	-0.003428	-0.478175	0.826147
O11	O	-0.439250	-1.129496	0.367742
O12	O	0.060750	-0.629496	0.867742
O13	O	-0.567670	-1.019698	0.174849
O14	O	-0.067670	-0.519698	0.674849
O15	O	-0.269846	-0.936649	0.284595
O16	O	0.230154	-0.436649	0.784595
O17	O	-0.567642	-1.129449	0.284590
O18	O	-0.067642	-0.629449	0.784590
O19	O	-0.269825	-1.019806	0.367745
O20	O	0.230175	-0.519806	0.867745
O21	O	-0.439299	-0.936588	0.174851
O22	O	0.060701	-0.436588	0.674851
O23	O	-0.439245	-0.826884	0.284565
O24	O	0.060755	-0.326884	0.784565
O25	O	-0.567547	-0.936624	0.477433
O26	O	-0.067547	-0.436624	0.977433
O27	O	-0.567575	-0.826873	0.367691
O28	O	-0.067575	-0.326873	0.867691
O29	O	-0.439196	-1.019792	0.477456
O30	O	0.060804	-0.519792	0.977456
O31	O	-0.737041	-1.019684	0.284560
O32	O	-0.237041	-0.519684	0.784560
O33	O	-0.737000	-0.936563	0.367688
O34	O	-0.237000	-0.436563	0.867688
C35	C	-0.503408	-0.802319	0.326125
C36	C	-0.003408	-0.302319	0.826125
C37	C	-0.503425	-0.727087	0.326132
C38	C	-0.003425	-0.227087	0.826132
C39	C	-0.774938	-0.978133	0.326135
C40	C	-0.274938	-0.478133	0.826135
C41	C	-0.891091	-0.978177	0.326153
C42	C	-0.391091	-0.478177	0.826153
C43	C	-0.503362	-0.978213	0.502690
C44	C	-0.003362	-0.478213	1.002690
C45	C	-0.503334	-0.978229	0.577922
C46	C	-0.003334	-0.478229	1.077922
C47	C	-0.942862	-1.019357	0.285064
C48	C	-0.442862	-0.519357	0.785064
C49	C	-1.062912	-1.019403	0.285081
C50	C	-0.562912	-0.519403	0.785081
C51	C	-0.230858	-0.978236	0.326174
C52	C	0.269142	-0.478236	0.826174
C53	C	-0.114705	-0.978262	0.326185
C54	C	0.385295	-0.478262	0.826185
C55	C	-0.503449	-1.154718	0.326169
C56	C	-0.003449	-0.654718	0.826169
C57	C	-0.503458	-1.229950	0.326179
C58	C	-0.003458	-0.729950	0.826179
C59	C	-0.570347	-0.691755	0.369346
C60	C	-0.070347	-0.191755	0.869346
C61	C	-0.570349	-0.621067	0.369355
C62	C	-0.070349	-0.121067	0.869355
C63	C	-0.503433	-0.585712	0.326147
C64	C	-0.003433	-0.085712	0.826147
C65	C	-0.436504	-0.621049	0.282931
C66	C	0.063496	-0.121049	0.782931
C67	C	-0.436497	-0.691736	0.282926
C68	C	0.063503	-0.191736	0.782926
C69	C	-0.436527	-0.335975	0.282954
C70	C	0.063473	0.164025	0.782954
C71	C	-0.436540	-0.265283	0.282961
C72	C	0.063460	0.234717	0.782961
C73	C	-0.570378	-0.265306	0.369383
C74	C	-0.070378	0.234694	0.869383
C75	C	-0.570372	-0.335993	0.369378
C76	C	-0.070372	0.164007	0.869378
C77	C	-0.503439	-0.371324	0.326165
C78	C	-0.003439	0.128676	0.826165
C79	C	-0.503436	-0.447973	0.326156
C80	C	-0.003436	0.052027	0.826156
C81	C	-0.503440	-0.509065	0.326152
C82	C	-0.003440	-0.009065	0.826152
C83	C	-0.503418	-0.978176	0.150291
C84	C	-0.003418	-0.478176	0.650291
C85	C	-0.503152	-0.978291	0.075060
C86	C	-0.003152	-0.478291	0.575060
C87	C	-0.436499	-1.021536	0.613279
C88	C	0.063501	-0.521536	1.113279
C89	C	-0.436468	-1.021543	0.683968
C90	C	0.063532	-0.521543	1.183968
C91	C	-0.503280	-0.978246	0.719298
C92	C	-0.003280	-0.478246	1.219298
C93	C	-0.570118	-0.934935	0.683935
C94	C	-0.070118	-0.434935	1.183935
C95	C	-0.570143	-0.934925	0.613248
C96	C	-0.070143	-0.434925	1.113248
C97	C	-0.570021	-0.934973	0.969009
C98	C	-0.070021	-0.434973	1.469009
C99	C	-0.569994	-0.934988	1.039701
C100	C	-0.069994	-0.434988	1.539701
C101	C	-0.436347	-1.021591	1.039728
C102	C	0.063653	-0.521591	1.539728
C103	C	-0.436371	-1.021581	0.969041
C104	C	0.063629	-0.521581	1.469041
C105	C	-0.503205	-0.978268	0.933685
C106	C	-0.003205	-0.478268	1.433685
C107	C	-0.503236	-0.978260	0.857037
C108	C	-0.003236	-0.478260	1.357037
C109	C	-0.503255	-0.978257	0.795945
C110	C	-0.003255	-0.478257	1.295945
H111	H	-0.898310	-1.054581	0.249875
H112	H	-0.398310	-0.554581	0.749875
H113	H	-0.382096	-1.056795	0.584519
H114	H	0.117904	-0.556795	1.084519
Br115	Br	-0.345807	-1.080350	0.731950
Br116	Br	0.154193	-0.580350	1.231950
Br117	Br	-0.660845	-0.876146	0.565262
Br118	Br	-0.160845	-0.376146	1.065262
H119	H	-1.070191	-0.943002	0.361363
H120	H	-0.570191	-0.443002	0.861363
H121	H	-0.624865	-0.364776	0.404560
H122	H	-0.124865	0.135224	0.904560
Br123	Br	-0.661174	-0.739730	0.427984
Br124	Br	-0.161174	-0.239730	0.927984
H125	H	-0.381997	-0.720502	0.247740
H126	H	0.118003	-0.220502	0.747740
Br127	Br	-0.965340	-0.919474	0.384815
Br128	Br	-0.465340	-0.419474	0.884815
Br129	Br	-1.137109	-1.078162	0.226440
Br130	Br	-0.637109	-0.578162	0.726440
Br131	Br	-0.661173	-0.573118	0.428007
Br132	Br	-0.161173	-0.073118	0.928007
H133	H	-0.624874	-0.236531	0.404572
H134	H	-0.124874	0.263469	0.904572
H135	H	-0.382043	-0.236499	0.247776
H136	H	0.117957	0.263501	0.747776
H137	H	-0.381923	-1.056856	1.068524
H138	H	0.118077	-0.556856	1.568524
Br139	Br	-0.345684	-0.383916	0.224311
Br140	Br	0.154316	0.116084	0.724311
Br141	Br	-0.345678	-0.573068	0.224297
Br142	Br	0.154322	-0.073068	0.724297
H143	H	-0.381970	-1.056840	0.940279
H144	H	0.118030	-0.556840	1.440279
H145	H	-0.624402	-0.899728	1.068465
H146	H	-0.124402	-0.399728	1.568465
Br147	Br	-0.660723	-0.876190	0.921034
Br148	Br	-0.160723	-0.376190	1.421034
H149	H	-0.624514	-0.899680	0.712707
H150	H	-0.124514	-0.399680	1.212707
