data_functionalizedCrystal
_audit_creation_method	'MofGen! by Chris Wilmer'
_symmetry_space_group_name_H-M	'P1'
_symmetry_Int_Tables_number	1
_symmetry_cell_setting	triclinic
loop_
_symmetry_equiv_pos_as_xyz
  x,y,z
_cell_length_a	14.446369
_cell_length_b	14.446369
_cell_length_c	19.377372
_cell_angle_alpha	48.620146
_cell_angle_beta	89.998266
_cell_angle_gamma	59.996355
loop_
_atom_site_label
_atom_site_type_symbol
_atom_site_fract_x
_atom_site_fract_y
_atom_site_fract_z
Zr1	Zr	0.864564	1.067528	-0.114438
O2	O	0.683690	1.326776	-0.253714
O3	O	0.920018	0.854135	-0.071741
O4	O	0.876821	1.133640	-0.253706
O5	O	0.760953	0.979130	0.071787
O6	O	1.029160	1.133630	-0.253701
O7	O	0.726886	1.047271	-0.071749
O8	O	1.106430	0.633646	0.071801
O9	O	0.683682	1.479113	-0.253715
O10	O	1.057349	0.924916	-0.053529
O11	O	0.969084	0.874071	0.053587
O12	O	0.918226	1.203152	-0.160654
O13	O	0.829961	1.152307	-0.053538
Zr14	Zr	1.161859	0.958834	0.114494
Zr15	Zr	1.107526	1.067511	-0.114429
Zr16	Zr	0.918897	0.958851	0.114486
Zr17	Zr	0.864552	1.310489	-0.114439
Zr18	Zr	1.161870	0.715873	0.114496
O19	O	1.106405	1.172226	0.071797
O20	O	1.029151	1.326751	-0.253702
O21	O	0.760944	1.172251	0.071785
O22	O	1.342733	0.699586	0.253770
O23	O	1.265479	0.854111	-0.071729
O24	O	0.997272	0.699611	0.253758
O25	O	1.265469	1.047232	-0.071731
O26	O	1.149601	0.892721	0.253762
O27	O	0.997263	0.892732	0.253757
O28	O	1.299536	0.979091	0.071805
O29	O	0.876805	1.479099	-0.253708
O30	O	1.149618	0.547263	0.253765
O31	O	1.342740	0.547249	0.253771
O32	O	1.299553	0.633632	0.071808
O33	O	0.726870	1.392729	-0.071752
O34	O	0.919992	1.392716	-0.071745
O35	O	1.108197	0.823210	0.160710
O36	O	1.196461	0.874055	0.053594
O37	O	1.057338	1.152291	-0.053530
O38	O	0.969074	1.101446	0.053585
C39	C	1.013226	0.709274	0.000030
C40	C	1.013231	0.606131	0.000031
C41	C	1.068899	0.598922	-0.067538
C42	C	1.068478	0.492175	-0.067902
C43	C	0.878014	0.570171	-0.048902
C44	C	0.878308	0.677788	-0.049409
C45	C	1.091746	0.423994	0.116564
C46	C	1.094177	0.315616	0.116384
C47	C	0.709303	1.013203	0.000018
C48	C	0.606159	1.013210	0.000014
C49	C	0.371829	1.188517	-0.067209
C50	C	0.478971	1.188793	-0.067587
C51	C	0.591143	0.965372	-0.049265
C52	C	0.483257	0.966516	-0.049758
C53	C	0.524105	0.884587	0.116602
C54	C	0.630030	0.887377	0.116418
C55	C	1.317120	1.013159	0.000039
C56	C	1.420264	1.013152	0.000042
C57	C	0.945249	1.149119	-0.286320
C58	C	0.922183	1.195255	-0.383504
C59	C	1.013197	1.317088	0.000026
C60	C	1.013192	1.420231	0.000025
C61	C	1.209389	0.620826	-0.423546
C62	C	1.187691	0.664216	-0.514880
C63	C	1.042457	0.954674	-0.626700
C64	C	1.064147	0.911308	-0.535374
C65	C	1.147614	0.744381	-0.433802
C66	C	1.002372	1.034863	-0.545631
C67	C	1.024056	0.991500	-0.454312
C68	C	1.107516	0.824581	-0.352738
C69	C	1.169298	0.701018	-0.342484
C70	C	0.918900	1.201789	-0.647204
C71	C	0.857125	1.325344	-0.657460
C72	C	0.878815	1.281982	-0.566141
C73	C	0.962274	1.115063	-0.464566
C74	C	0.817033	1.405545	-0.576395
C75	C	0.838717	1.362182	-0.485076
C76	C	0.983959	1.071700	-0.373248
C77	C	1.081173	0.877243	0.286376
C78	C	1.104239	0.831106	0.383560
C79	C	1.317134	0.709252	0.000041
C80	C	1.420283	0.606102	0.000045
C81	C	1.081188	0.573336	0.286378
C82	C	1.104258	0.424057	0.383563
C83	C	1.385096	0.573314	0.286389
C84	C	1.511311	0.424028	0.383577
C85	C	0.641326	1.453048	-0.286333
C86	C	0.515112	1.602334	-0.383521
C87	C	0.709288	1.317109	0.000015
C88	C	0.606140	1.420260	0.000011
C89	C	0.945235	1.453026	-0.286322
C90	C	0.922164	1.602305	-0.383507
C91	C	1.187710	0.327400	0.485129
C92	C	1.209385	0.187146	0.576453
C93	C	1.147614	0.143544	0.566209
C94	C	1.064152	0.240215	0.464632
C95	C	1.042472	0.380473	0.373311
C96	C	1.616666	0.380461	0.373305
C97	C	1.735265	0.240208	0.464614
C98	C	1.748506	0.143517	0.566196
C99	C	1.643139	0.187094	0.576466
C100	C	1.524543	0.327351	0.485157
C101	C	0.409757	1.645912	-0.373248
C102	C	0.291158	1.786195	-0.464558
C103	C	0.277917	1.882892	-0.566140
C104	C	0.383283	1.839309	-0.576410
C105	C	0.501880	1.699034	-0.485101
C106	C	0.983955	1.645860	-0.373229
C107	C	0.962302	1.786107	-0.464535
C108	C	0.878851	1.882803	-0.566119
C109	C	0.817059	1.839238	-0.576395
C110	C	0.838719	1.698987	-0.485090
C111	C	1.654611	0.427866	0.067261
C112	C	1.547465	0.534614	0.067643
C113	C	1.435313	0.455848	0.049324
C114	C	1.543203	0.348232	0.049812
C115	C	1.502337	0.602189	-0.116549
C116	C	1.396408	0.710579	-0.116361
H117	H	1.051771	0.424546	0.167136
F118	F	1.224508	0.174783	0.164170
H119	H	1.237998	0.563590	-0.506516
H120	H	0.563497	0.755023	0.166947
F121	F	0.819642	0.511722	0.012360
H122	H	1.605907	0.459172	0.290600
H123	H	0.861225	1.997001	-0.640457
H124	H	0.788393	1.663543	-0.493473
F125	F	1.072777	1.542969	-0.265124
F126	F	0.390834	1.085914	-0.161869
F127	F	0.772983	1.493683	-0.495991
F128	F	1.412423	0.373694	0.496107
H129	H	0.372487	1.918057	-0.659128
F130	F	1.276089	0.786281	-0.187365
H131	H	0.832866	0.685671	-0.003363
H132	H	1.821046	0.204747	0.456233
F133	F	0.423821	1.543020	-0.265146
F134	F	1.197567	0.355173	-0.025029
F135	F	0.728238	1.942176	-0.684517
F136	F	1.874736	-0.005756	0.663367
H137	H	0.484993	1.229396	-0.034789
H138	H	1.541231	0.639655	0.034593
F139	F	0.614000	1.652666	-0.496051
H140	H	0.816876	0.649148	-0.133816
F141	F	1.458886	0.352724	0.160372
F142	F	0.998420	0.193789	0.453746
H143	H	1.051931	0.935772	-0.290539
F144	F	0.953655	0.483325	0.265219
F145	F	1.714933	0.496949	0.024277
H146	H	0.817270	0.809362	-0.135150
F147	F	1.298257	0.443163	-0.315438
F148	F	1.028072	1.832449	-0.453576
H149	H	0.483849	0.910939	0.157769
H150	H	1.653940	0.108348	0.659186
H151	H	1.060322	0.257423	0.170923
F152	F	1.130587	0.778430	-0.255547
F153	F	0.179035	1.832548	-0.453605
F154	F	1.752988	0.257632	0.178972
F155	F	0.750338	0.716825	0.187418
H156	H	1.570332	0.456327	0.153628
H157	H	1.191103	0.365094	0.157473
H158	H	1.462941	0.601300	-0.166891
F159	F	0.151687	2.032181	-0.663311
H160	H	1.613911	0.216755	0.135583
F161	F	0.311498	1.241700	-0.024227
F162	F	0.273446	1.314776	-0.178918
H163	H	0.974496	1.090584	-0.709411
H164	H	1.505675	0.340032	0.003991
F165	F	0.449092	1.315661	-0.179973
H166	H	1.345978	0.500232	0.002701
H167	H	1.542583	0.661302	-0.157715
H168	H	1.167859	0.546326	-0.034930
F169	F	0.996685	0.769309	-0.179232
H170	H	0.520789	0.839527	-0.003942
F171	F	1.385649	0.851709	-0.164484
F172	F	1.258166	0.523355	-0.234376
H173	H	1.238016	0.362880	0.493490
H174	H	0.680481	0.837734	-0.002641
H175	H	1.012765	0.570581	-0.153866
F176	F	0.640794	0.932397	0.164547
H177	H	0.573111	1.055180	-0.134223
H178	H	0.789164	1.461255	-0.740170
F179	F	0.728191	1.583193	-0.684502
F180	F	1.298218	0.084280	0.684547
F181	F	0.895821	1.247936	-0.744393
H182	H	1.165279	0.029333	0.640577
