data_functionalizedCrystal
_audit_creation_method	'MofGen! by Chris Wilmer'
_symmetry_space_group_name_H-M	'P1'
_symmetry_Int_Tables_number	1
_symmetry_cell_setting	triclinic
loop_
_symmetry_equiv_pos_as_xyz
  x,y,z
_cell_length_a	10.686220
_cell_length_b	12.759399
_cell_length_c	12.759393
_cell_angle_alpha	89.969094
_cell_angle_beta	85.651479
_cell_angle_gamma	85.603213
loop_
_atom_site_label
_atom_site_type_symbol
_atom_site_fract_x
_atom_site_fract_y
_atom_site_fract_z
Zn1	Zn	1.929127	0.294843	0.470991
Zn2	Zn	1.928995	0.470567	0.295318
Zn3	Zn	1.718110	0.308389	0.308783
Zn4	Zn	1.718098	0.483976	0.484405
O5	O	1.823583	0.389444	0.389874
O6	O	2.105683	0.306872	0.436438
O7	O	1.900970	0.449111	0.150086
O8	O	1.746162	0.159567	0.330322
O9	O	2.105585	0.435975	0.307372
O10	O	1.901196	0.149615	0.449495
O11	O	1.746033	0.329960	0.159979
O12	O	1.541535	0.342962	0.343329
O13	O	1.746142	0.458830	0.629643
O14	O	1.541527	0.471965	0.472357
O15	O	1.901185	0.319874	0.619788
O16	O	1.900959	0.619370	0.320379
O17	O	1.746014	0.629222	0.459301
C18	C	1.495748	0.410389	0.410760
C19	C	1.355499	0.419375	0.419721
C20	C	1.823505	0.662416	0.389855
C21	C	1.823588	0.779187	0.389875
C22	C	1.823677	0.389337	0.663902
C23	C	1.823717	0.389291	0.780676
C24	C	2.152697	0.368417	0.368907
C25	C	2.292947	0.359456	0.359972
C26	C	1.823695	0.115403	0.389914
C27	C	1.823742	-0.001377	0.389931
C28	C	1.904360	0.828879	0.317609
C29	C	1.904441	0.938597	0.317639
C30	C	1.742967	0.948925	0.462204
C31	C	1.742893	0.839207	0.462178
C32	C	1.823561	0.389470	0.116908
C33	C	1.823765	0.389204	0.000119
C34	C	1.904454	0.316926	0.830407
C35	C	1.904475	0.316879	0.940130
C36	C	1.743020	0.461572	0.950380
C37	C	1.742993	0.461613	0.840660
H38	H	1.301751	0.477559	0.477726
H39	H	1.970181	0.258034	0.781572
H40	H	1.970068	0.780012	0.258737
N41	N	1.991557	0.238838	0.993779
H42	H	1.940308	0.193406	1.042569
H43	H	2.042675	0.193099	0.939069
N44	N	1.364135	0.282389	0.283144
H45	H	1.341283	0.208791	0.301037
H46	H	1.341200	0.300154	0.209523
H47	H	1.677267	0.997806	0.521070
N48	N	1.991561	0.992194	0.239698
H49	H	2.042666	0.937520	0.193894
H50	H	1.940260	1.041078	0.194327
H51	H	1.677119	0.798746	0.521031
H52	H	1.677300	0.520457	0.999232
N53	N	1.655884	0.539648	0.787013
H54	H	1.604749	0.585458	0.841660
H55	H	1.707192	0.585012	0.738203
