data_functionalizedCrystal
_audit_creation_method	'MofGen! by Chris Wilmer'
_symmetry_space_group_name_H-M	'P1'
_symmetry_Int_Tables_number	1
_symmetry_cell_setting	triclinic
loop_
_symmetry_equiv_pos_as_xyz
  x,y,z
_cell_length_a	12.594517
_cell_length_b	12.594516
_cell_length_c	12.594509
_cell_angle_alpha	89.973672
_cell_angle_beta	89.978379
_cell_angle_gamma	90.011616
loop_
_atom_site_label
_atom_site_type_symbol
_atom_site_fract_x
_atom_site_fract_y
_atom_site_fract_z
Zn1	Zn	1.627301	-0.423732	-0.601863
Zn2	Zn	2.127301	0.076268	-0.101863
Zn3	Zn	1.627204	-0.601737	-0.423885
Zn4	Zn	2.127204	-0.101737	0.076115
Zn5	Zn	1.449304	-0.423773	-0.423892
Zn6	Zn	1.949304	0.076227	0.076108
Zn7	Zn	1.449301	-0.601668	-0.601815
Zn8	Zn	1.949301	-0.101668	-0.101815
O9	O	1.538278	-0.512728	-0.512864
O10	O	2.038278	-0.012728	-0.012864
O11	O	1.776234	-0.447357	-0.578271
O12	O	2.276234	0.052643	-0.078271
O13	O	1.603567	-0.578176	-0.274940
O14	O	2.103567	-0.078176	0.225060
O15	O	1.472958	-0.274821	-0.447522
O16	O	1.972958	0.225179	0.052478
O17	O	1.776163	-0.578136	-0.447512
O18	O	2.276163	-0.078136	0.052488
O19	O	1.603732	-0.274792	-0.578277
O20	O	2.103732	0.225208	-0.078277
O21	O	1.472864	-0.447426	-0.274945
O22	O	1.972864	0.052574	0.225055
O23	O	1.300358	-0.447359	-0.447476
O24	O	1.800358	0.052641	0.052524
O25	O	1.472952	-0.578019	-0.750767
O26	O	1.972952	-0.078019	-0.250767
O27	O	1.300355	-0.578058	-0.578196
O28	O	1.800355	-0.078058	-0.078196
O29	O	1.603728	-0.447290	-0.750802
O30	O	2.103728	0.052710	-0.250802
O31	O	1.603563	-0.750674	-0.447466
O32	O	2.103563	-0.250674	0.052534
O33	O	1.472858	-0.750623	-0.578190
O34	O	1.972858	-0.250623	-0.078190
C35	C	1.261737	-0.512706	-0.512832
C36	C	1.761737	-0.012706	-0.012832
C37	C	1.143431	-0.512723	-0.512844
C38	C	1.643431	-0.012723	-0.012844
C39	C	1.538228	-0.789269	-0.512845
C40	C	2.038228	-0.289269	-0.012845
C41	C	1.538305	-0.907574	-0.512873
C42	C	2.038305	-0.407574	-0.012873
C43	C	1.074149	-0.441538	-0.441881
C44	C	1.574149	0.058462	0.058119
C45	C	1.003345	-0.538626	-0.415702
C46	C	1.503345	-0.038626	0.084298
C47	C	1.003436	-0.415682	-0.539042
C48	C	1.503436	0.084318	-0.039042
C49	C	1.074186	-0.609862	-0.486614
C50	C	1.574186	-0.109862	0.013386
C51	C	1.074283	-0.486852	-0.609999
C52	C	1.574283	0.013148	-0.109999
C53	C	1.003511	-0.584007	-0.583857
C54	C	1.503511	-0.084007	-0.083857
C55	C	1.609478	-0.976816	-0.441848
C56	C	2.109478	-0.476816	0.058152
C57	C	1.635489	-1.047515	-0.538997
C58	C	2.135489	-0.547515	-0.038997
C59	C	1.512427	-1.047674	-0.415785
C60	C	2.012427	-0.547674	0.084215
C61	C	1.564365	-0.976715	-0.610073
C62	C	2.064365	-0.476715	-0.110073
C63	C	1.441258	-0.976867	-0.486796
C64	C	1.941258	-0.476867	0.013204
C65	C	1.467232	-1.047534	-0.584012
C66	C	1.967232	-0.547534	-0.084012
C67	C	1.815899	-0.512750	-0.512896
C68	C	2.315899	-0.012750	-0.012896
C69	C	1.934204	-0.512759	-0.512909
C70	C	2.434204	-0.012759	-0.012909
C71	C	1.538350	-0.512642	-0.790485
C72	C	2.038350	-0.012642	-0.290485
C73	C	1.538381	-0.512605	-0.908790
C74	C	2.038381	-0.012605	-0.408790
C75	C	1.538356	-0.235107	-0.512906
C76	C	2.038356	0.264893	-0.012906
C77	C	1.538390	-0.116801	-0.512923
C78	C	2.038390	0.383199	-0.012923
C79	C	1.467297	-0.583620	-1.048788
C80	C	1.967297	-0.083620	-0.548788
C81	C	1.441267	-0.486555	-0.977986
C82	C	1.941267	0.013445	-0.477986
C83	C	1.564364	-0.609660	-0.978021
C84	C	2.064364	-0.109660	-0.478021
C85	C	1.512362	-0.415355	-1.048774
C86	C	2.012362	0.084645	-0.548774
C87	C	1.635504	-0.538527	-1.048815
C88	C	2.135504	-0.038527	-0.548815
C89	C	1.609511	-0.441395	-0.978045
C90	C	2.109511	0.058605	-0.478045
C91	C	1.538267	-0.512736	-0.236323
C92	C	2.038267	-0.012736	0.263677
C93	C	1.538442	-0.512473	-0.118018
C94	C	2.038442	-0.012473	0.381982
H95	H	1.105165	-0.381399	-0.381796
H96	H	1.605165	0.118601	0.118204
H97	H	1.586315	-0.691796	-0.946943
H98	H	2.086315	-0.191796	-0.446943
Cl99	Cl	1.478578	-1.095796	-0.288990
Cl100	Cl	1.978578	-0.595796	0.211010
H101	H	0.972187	-0.560531	-0.333568
H102	H	1.472187	-0.060531	0.166432
H103	H	1.359157	-0.464568	-0.946874
H104	H	1.859157	0.035432	-0.446874
Cl105	Cl	1.702414	-0.928869	-0.349196
Cl106	Cl	2.202414	-0.428869	0.150804
Cl107	Cl	0.955447	-0.288959	-0.573208
Cl108	Cl	1.455447	0.211041	-0.073208
H109	H	1.669650	-0.381215	-0.947180
H110	H	2.169650	0.118785	-0.447180
Cl111	Cl	1.762258	-1.095408	-0.573114
Cl112	Cl	2.262258	-0.595408	-0.073114
H113	H	1.586207	-0.945679	-0.692271
H114	H	2.086207	-0.445679	-0.192271
H115	H	1.490318	-0.333197	-1.079723
H116	H	1.990318	0.166803	-0.579723
H117	H	1.105466	-0.464918	-0.692108
H118	H	1.605466	0.035082	-0.192108
Cl119	Cl	1.374362	-1.095180	-0.676882
Cl120	Cl	1.874362	-0.595180	-0.176882
Cl121	Cl	1.314523	-0.928919	-0.452658
Cl122	Cl	1.814523	-0.428919	0.047342
Cl123	Cl	1.374381	-0.676308	-1.096754
Cl124	Cl	1.874381	-0.176308	-0.596754
H125	H	1.717589	-0.560542	-1.079950
H126	H	2.217589	-0.060542	-0.579950
H127	H	0.972690	-0.644290	-0.643895
H128	H	1.472690	-0.144290	-0.143895
Cl129	Cl	1.121959	-0.736626	-0.452297
Cl130	Cl	1.621959	-0.236626	0.047703
