data_functionalizedCrystal
_audit_creation_method	'MofGen! by Chris Wilmer'
_symmetry_space_group_name_H-M	'P1'
_symmetry_Int_Tables_number	1
_symmetry_cell_setting	triclinic
loop_
_symmetry_equiv_pos_as_xyz
  x,y,z
_cell_length_a	12.645331
_cell_length_b	16.625546
_cell_length_c	16.625548
_cell_angle_alpha	90.011514
_cell_angle_beta	90.004959
_cell_angle_gamma	90.021447
loop_
_atom_site_label
_atom_site_type_symbol
_atom_site_fract_x
_atom_site_fract_y
_atom_site_fract_z
Zn1	Zn	1.620511	-0.321172	0.455902
Zn2	Zn	2.120511	0.178828	0.955902
Zn3	Zn	1.620432	-0.455971	0.321064
Zn4	Zn	2.120432	0.044029	0.821064
Zn5	Zn	1.443280	-0.321154	0.321082
Zn6	Zn	1.943280	0.178846	0.821082
Zn7	Zn	1.443192	-0.455964	0.455853
Zn8	Zn	1.943192	0.044036	0.955853
O9	O	1.531854	-0.388565	0.388475
O10	O	2.031854	0.111435	0.888475
O11	O	1.768847	-0.339064	0.438028
O12	O	2.268847	0.160936	0.938028
O13	O	1.596937	-0.438082	0.208234
O14	O	2.096937	0.061918	0.708234
O15	O	1.466860	-0.208324	0.338994
O16	O	1.966860	0.291676	0.838994
O17	O	1.768790	-0.438100	0.338964
O18	O	2.268790	0.061900	0.838964
O19	O	1.597070	-0.208338	0.438045
O20	O	2.097070	0.291662	0.938045
O21	O	1.466784	-0.339033	0.208247
O22	O	1.966784	0.160967	0.708247
O23	O	1.294921	-0.339026	0.338947
O24	O	1.794921	0.160974	0.838947
O25	O	1.466710	-0.438089	0.568692
O26	O	1.966710	0.061911	1.068692
O27	O	1.294857	-0.438071	0.437963
O28	O	1.794857	0.061929	0.937963
O29	O	1.596985	-0.339058	0.568728
O30	O	2.096985	0.160942	1.068728
O31	O	1.596852	-0.568803	0.338917
O32	O	2.096852	-0.068803	0.838917
O33	O	1.466634	-0.568798	0.437946
O34	O	1.966634	-0.068798	0.937946
C35	C	1.531754	-0.598056	0.388442
C36	C	2.031754	-0.098056	0.888442
C37	C	1.531808	-0.687677	0.388454
C38	C	2.031808	-0.187677	0.888454
C39	C	1.256424	-0.388546	0.388452
C40	C	1.756424	0.111454	0.888452
C41	C	1.138594	-0.388557	0.388461
C42	C	1.638594	0.111443	0.888461
C43	C	1.531992	-1.015853	0.388538
C44	C	2.031992	-0.515853	0.888538
C45	C	1.531938	-0.924545	0.388517
C46	C	2.031938	-0.424545	0.888517
C47	C	1.531899	-0.851768	0.388496
C48	C	2.031899	-0.351768	0.888496
C49	C	1.531846	-0.760454	0.388475
C50	C	2.031846	-0.260454	0.888475
C51	C	0.971035	-0.325962	0.326514
C52	C	1.471035	0.174038	0.826514
C53	C	1.093595	-0.326124	0.326241
C54	C	1.593595	0.173876	0.826241
C55	C	1.094074	-0.473488	0.365243
C56	C	1.594074	0.026512	0.865243
C57	C	0.971476	-0.473146	0.364820
C58	C	1.471476	0.026854	0.864820
C59	C	0.971412	-0.367030	0.473866
C60	C	1.471412	0.132970	0.973866
C61	C	1.094019	-0.365133	0.473392
C62	C	1.594019	0.134867	0.973392
C63	C	1.808359	-0.388585	0.388499
C64	C	2.308359	0.111415	0.888499
C65	C	1.926189	-0.388594	0.388509
C66	C	2.426189	0.111406	0.888509
C67	C	1.531846	-0.388575	0.598784
C68	C	2.031846	0.111425	1.098784
C69	C	1.531843	-0.388579	0.688405
C70	C	2.031843	0.111421	1.188405
C71	C	1.531983	-0.178257	0.388527
C72	C	2.031983	0.321743	0.888527
C73	C	1.532039	-0.088635	0.388549
C74	C	2.032039	0.411365	0.888549
C75	C	1.531840	-0.388582	0.761188
C76	C	2.031840	0.111418	1.261188
C77	C	1.531839	-0.388580	0.852496
C78	C	2.031839	0.111420	1.352496
C79	C	1.531843	-0.388573	0.925273
C80	C	2.031843	0.111427	1.425273
C81	C	1.531844	-0.388571	1.016587
C82	C	2.031844	0.111429	1.516587
C83	C	1.531851	-0.388573	1.178985
C84	C	2.031851	0.111427	1.678985
C85	C	1.531848	-0.388564	1.089363
C86	C	2.031848	0.111436	1.589363
H87	H	0.941572	-0.262792	0.340912
H88	H	1.441572	0.237208	0.840912
C89	C	1.135505	-0.498625	0.281846
C90	C	1.635505	0.001375	0.781846
C91	C	1.209674	-0.442242	0.234743
C92	C	1.709674	0.057758	0.734743
C93	C	1.251102	-0.467374	0.151344
C94	C	1.751102	0.032626	0.651344
C95	C	1.218362	-0.548889	0.115049
C96	C	1.718362	-0.048889	0.615049
C97	C	1.144189	-0.605277	0.162152
C98	C	1.644189	-0.105277	0.662152
C99	C	1.102760	-0.580145	0.245551
C100	C	1.602760	-0.080145	0.745551
H101	H	1.233914	-0.381896	0.261611
H102	H	1.733914	0.118104	0.761611
H103	H	1.306010	-0.425632	0.116475
H104	H	1.806010	0.074368	0.616475
H105	H	1.249029	-0.567493	0.053312
H106	H	1.749029	-0.067493	0.553312
H107	H	1.119948	-0.665624	0.135284
H108	H	1.619948	-0.165624	0.635284
H109	H	1.047852	-0.621888	0.280420
H110	H	1.547852	-0.121888	0.780420
C111	C	0.929393	-0.344989	0.241564
C112	C	1.429393	0.155011	0.741564
C113	C	0.854917	-0.417086	0.228299
C114	C	1.354917	0.082914	0.728299
C115	C	0.813275	-0.436116	0.143351
C116	C	1.313275	0.063884	0.643351
C117	C	0.846109	-0.383049	0.071667
C118	C	1.346109	0.116951	0.571667
C119	C	0.920589	-0.310946	0.084929
C120	C	1.420589	0.189054	0.584929
C121	C	0.962231	-0.291916	0.169878
C122	C	1.462231	0.208084	0.669878
H123	H	0.830608	-0.456375	0.281366
H124	H	1.330608	0.043625	0.781366
H125	H	0.758139	-0.489492	0.133533
H126	H	1.258139	0.010508	0.633533
H127	H	0.815283	-0.397136	0.008782
H128	H	1.315283	0.102864	0.508782
H129	H	0.944898	-0.271658	0.031863
H130	H	1.444898	0.228342	0.531863
H131	H	1.017367	-0.238541	0.179696
H132	H	1.517367	0.261459	0.679696
C133	C	0.932240	-0.428657	0.536272
C134	C	1.432240	0.071343	1.036272
C135	C	0.859582	-0.498205	0.509963
C136	C	1.359582	0.001795	1.009963
C137	C	0.820407	-0.559836	0.572359
C138	C	1.320407	-0.059836	1.072359
C139	C	0.853890	-0.551919	0.661066
C140	C	1.353890	-0.051919	1.161066
C141	C	0.926552	-0.482368	0.687380
C142	C	1.426552	0.017632	1.187380
C143	C	0.965727	-0.420737	0.624983
C144	C	1.465727	0.079263	1.124983
H145	H	0.834792	-0.504068	0.444293
H146	H	1.334792	-0.004068	0.944293
H147	H	0.766618	-0.611322	0.552880
H148	H	1.266618	-0.111322	1.052880
H149	H	0.824891	-0.597541	0.707256
H150	H	1.324891	-0.097541	1.207256
H151	H	0.951342	-0.476504	0.753050
H152	H	1.451342	0.023496	1.253050
H153	H	1.019516	-0.369251	0.644463
H154	H	1.519516	0.130749	1.144463
C155	C	1.133322	-0.280697	0.497047
C156	C	1.633322	0.219303	0.997047
C157	C	1.205552	-0.233216	0.439541
C158	C	1.705552	0.266784	0.939541
C159	C	1.244858	-0.148779	0.463191
C160	C	1.744858	0.351221	0.963191
C161	C	1.211933	-0.111821	0.544349
C162	C	1.711933	0.388179	1.044349
C163	C	1.139699	-0.159302	0.601860
C164	C	1.639699	0.340698	1.101860
C165	C	1.100393	-0.243740	0.578209
C166	C	1.600393	0.256260	1.078209
H167	H	1.229928	-0.260574	0.379459
H168	H	1.729928	0.239426	0.879459
H169	H	1.298331	-0.113630	0.420617
H170	H	1.798331	0.386370	0.920617
H171	H	1.241030	-0.049315	0.561856
H172	H	1.741030	0.450685	1.061856
H173	H	1.115323	-0.131944	0.661942
H174	H	1.615323	0.368056	1.161942
H175	H	1.046920	-0.278888	0.620784
H176	H	1.546920	0.221112	1.120784
H177	H	0.941808	-0.521390	0.408005
H178	H	1.441808	-0.021390	0.908005
H179	H	1.122897	-0.340374	0.262988
H180	H	1.622897	0.159626	0.762988
H181	H	1.123697	-0.263143	0.340795
H182	H	1.623697	0.236857	0.840795
H183	H	1.124652	-0.407425	0.522054
H184	H	1.624652	0.092575	1.022054
H185	H	0.942853	-0.491436	0.302420
H186	H	1.442853	0.008564	0.802420
C187	C	1.133450	-0.538220	0.424321
C188	C	1.633450	-0.038220	0.924321
C189	C	1.206662	-0.514656	0.494503
C190	C	1.706662	-0.014656	0.994503
C191	C	1.246039	-0.579387	0.553582
C192	C	1.746039	-0.079387	1.053582
C193	C	1.212205	-0.667681	0.542478
C194	C	1.712205	-0.167681	1.042478
C195	C	1.138989	-0.691249	0.472293
C196	C	1.638989	-0.191249	0.972293
C197	C	1.099611	-0.626519	0.413214
C198	C	1.599611	-0.126519	0.913214
H199	H	1.231712	-0.449292	0.502725
H200	H	1.731712	0.050708	1.002725
H201	H	1.300239	-0.561940	0.605537
H202	H	1.800239	-0.061940	1.105537
H203	H	1.241354	-0.715599	0.586212
H204	H	1.741354	-0.215599	1.086212
H205	H	1.113939	-0.756614	0.464071
H206	H	1.613939	-0.256614	0.964071
H207	H	1.045412	-0.643966	0.361258
H208	H	1.545412	-0.143966	0.861258
H209	H	0.940514	-0.306182	0.494981
H210	H	1.440514	0.193818	0.994981
