data_functionalizedCrystal
_audit_creation_method	'MofGen! by Chris Wilmer'
_symmetry_space_group_name_H-M	'P1'
_symmetry_Int_Tables_number	1
_symmetry_cell_setting	triclinic
loop_
_symmetry_equiv_pos_as_xyz
  x,y,z
_cell_length_a	14.395555
_cell_length_b	14.395555
_cell_length_c	17.052862
_cell_angle_alpha	70.263256
_cell_angle_beta	90.001611
_cell_angle_gamma	60.001260
loop_
_atom_site_label
_atom_site_type_symbol
_atom_site_fract_x
_atom_site_fract_y
_atom_site_fract_z
Zr1	Zr	0.911243	0.984156	-0.091222
O2	O	0.782755	1.138285	-0.202253
O3	O	0.950627	0.802521	-0.057184
O4	O	0.976549	0.944484	-0.202243
O5	O	0.736390	1.037208	0.057230
O6	O	1.129422	0.944479	-0.202237
O7	O	0.756833	0.996322	-0.057194
O8	O	1.083052	0.690533	0.057248
O9	O	0.782760	1.291154	-0.202255
O10	O	1.081516	0.887414	-0.042664
O11	O	0.952172	0.917930	0.042725
O12	O	0.982692	1.085074	-0.128064
O13	O	0.853349	1.115590	-0.042676
Zr14	Zr	1.122453	1.049357	0.091280
Zr15	Zr	1.155057	0.984149	-0.091212
Zr16	Zr	0.878638	1.049364	0.091270
Zr17	Zr	0.911250	1.227964	-0.091225
Zr18	Zr	1.122445	0.805548	0.091283
O19	O	1.083069	1.230992	0.057242
O20	O	1.129428	1.138274	-0.202239
O21	O	0.736396	1.231003	0.057228
O22	O	1.250941	0.895228	0.202311
O23	O	1.297300	0.802510	-0.057170
O24	O	0.904268	0.895238	0.202297
O25	O	1.297306	0.996305	-0.057172
O26	O	1.057147	1.089029	0.202301
O27	O	0.904274	1.089033	0.202295
O28	O	1.276863	1.037191	0.057252
O29	O	0.976560	1.291148	-0.202247
O30	O	1.057136	0.742365	0.202305
O31	O	1.250936	0.742359	0.202313
O32	O	1.276852	0.690527	0.057255
O33	O	0.756844	1.342986	-0.057198
O34	O	0.950644	1.342980	-0.057190
O35	O	1.051003	0.948439	0.128122
O36	O	1.180347	0.917923	0.042734
O37	O	1.081523	1.115583	-0.042667
O38	O	0.952180	1.146099	0.042722
C39	C	1.016838	0.711789	0.000032
C40	C	1.016835	0.608286	0.000034
C41	C	0.946314	0.564334	0.046594
C42	C	0.915578	0.549900	-0.033705
C43	C	1.047548	0.438316	0.080308
C44	C	0.986044	0.595262	-0.080313
C45	C	1.118064	0.483635	0.033758
C46	C	1.087363	0.469231	-0.046588
C47	C	0.711873	1.016766	0.000017
C48	C	0.608367	1.016769	0.000013
C49	C	0.493894	1.124544	-0.046544
C50	C	0.469084	1.050296	-0.080282
C51	C	0.448755	1.091010	0.033745
C52	C	0.584929	0.942503	-0.033773
C53	C	0.564588	0.983251	0.080299
C54	C	0.539848	0.908919	0.046581
C55	C	1.321823	1.016747	0.000041
C56	C	1.425329	1.016744	0.000045
C57	C	1.057631	0.935191	-0.228241
C58	C	1.071472	0.907508	-0.305714
C59	C	1.016858	1.321723	0.000026
C60	C	1.016861	1.425226	0.000024
C61	C	0.904131	1.242191	-0.702414
C62	C	0.891120	1.268204	-0.629626
C63	C	0.936207	1.178033	-0.548645
C64	C	0.994307	1.061843	-0.540458
C65	C	1.007313	1.035828	-0.613253
C66	C	1.039388	0.971669	-0.459484
C67	C	1.097488	0.855480	-0.451297
C68	C	1.110492	0.829470	-0.524086
C69	C	1.065405	0.919641	-0.605067
C70	C	1.026383	0.997685	-0.386689
C71	C	1.129564	0.791322	-0.297528
C72	C	1.142575	0.765309	-0.370316
C73	C	0.976065	1.098322	0.228299
C74	C	0.962224	1.126004	0.305772
C75	C	1.321813	0.711780	0.000045
C76	C	1.425316	0.608274	0.000050
C77	C	0.976055	0.793355	0.228303
C78	C	0.962211	0.717534	0.305777
C79	C	1.281030	0.793345	0.228315
C80	C	1.370691	0.717522	0.305793
C81	C	0.752665	1.240167	-0.228257
C82	C	0.663004	1.315991	-0.305735
C83	C	0.711882	1.321733	0.000013
C84	C	0.608380	1.425239	0.000008
C85	C	1.057641	1.240158	-0.228245
C86	C	1.071485	1.315978	-0.305719
C87	C	1.007296	0.697857	0.386744
C88	C	0.994282	0.626631	0.459546
C89	C	0.936189	0.575078	0.451379
C90	C	0.891097	0.594763	0.370403
C91	C	0.904105	0.665994	0.297603
C92	C	1.480324	0.665985	0.297606
C93	C	1.564580	0.594752	0.370398
C94	C	1.539203	0.575050	0.451376
C95	C	1.429559	0.626596	0.459562
C96	C	1.345305	0.697834	0.386771
C97	C	0.553372	1.367539	-0.297548
C98	C	0.469115	1.438803	-0.370340
C99	C	0.494493	1.458510	-0.451318
C100	C	0.604136	1.406958	-0.459504
C101	C	0.688391	1.335703	-0.386713
C102	C	1.129585	1.367510	-0.297525
C103	C	1.142615	1.438741	-0.370313
C104	C	1.097537	1.458445	-0.451294
C105	C	1.039434	1.406905	-0.459486
C106	C	1.026412	1.335668	-0.386699
C107	C	1.539794	0.564342	0.046590
C108	C	1.564625	0.438283	0.080315
C109	C	1.584908	0.549943	-0.033713
C110	C	1.448776	0.483532	0.033822
C111	C	1.469070	0.595250	-0.080251
C112	C	1.493832	0.469193	-0.046546
H113	H	0.959980	0.662559	-0.148235
Br114	Br	1.090826	0.326057	0.193462
Br115	Br	0.842927	1.364552	-0.812313
H116	H	0.558468	0.817702	0.085957
Br117	Br	0.846831	0.633073	0.112152
H118	H	0.605976	0.954967	0.148169
Br119	Br	1.186779	0.400826	-0.112308
H120	H	1.054601	0.739826	0.393410
Br121	Br	0.638560	1.433712	-0.569410
Br122	Br	1.190774	1.340788	-0.187631
H123	H	1.558190	0.605504	0.086028
H124	H	1.031008	0.610614	0.525472
Br125	Br	1.633639	0.325965	0.193449
H126	H	1.475210	0.428106	-0.085927
H127	H	1.390327	0.456336	0.062422
H128	H	0.475498	1.215656	-0.085975
Br129	Br	1.400043	0.707624	-0.193360
H130	H	1.607818	0.517040	0.510640
Br131	Br	0.380133	1.555218	-0.550099
Br132	Br	1.221422	0.607629	-0.359217
Br133	Br	1.682552	0.594995	-0.081252
H134	H	0.777657	1.293729	-0.393389
Br135	Br	0.400100	1.097501	-0.193425
H136	H	0.643395	0.879742	-0.062365
Br137	Br	0.518901	1.340809	-0.187657
Br138	Br	1.115218	1.555129	-0.550069
H139	H	1.189924	1.480701	-0.363626
Br140	Br	1.395136	0.599846	0.569468
Br141	Br	0.812259	0.524789	0.359334
Br142	Br	0.351083	1.195668	0.081271
Br143	Br	1.260695	0.438686	0.081346
H144	H	1.256039	0.739787	0.393449
H145	H	0.925610	1.199219	-0.489380
Br146	Br	0.772913	0.594892	-0.081265
Br147	Br	0.320325	1.508750	-0.359210
H148	H	0.979076	1.092288	-0.393364
H149	H	0.925605	0.517080	0.510664
H150	H	1.002735	1.422959	-0.525431
Br151	Br	0.812232	1.425882	-0.640739
Br152	Br	1.189319	0.671785	-0.512974
Br153	Br	1.083064	0.884342	-0.703858
Br154	Br	0.842913	0.692683	0.187722
H155	H	1.166274	0.717897	-0.231591
H156	H	1.501008	0.682013	0.231675
Br157	Br	1.713370	0.524807	0.359268
H158	H	0.979097	1.293718	-0.393383
