data_functionalizedCrystal
_audit_creation_method	'MofGen! by Chris Wilmer'
_symmetry_space_group_name_H-M	'P1'
_symmetry_Int_Tables_number	1
_symmetry_cell_setting	triclinic
loop_
_symmetry_equiv_pos_as_xyz
  x,y,z
_cell_length_a	12.827892
_cell_length_b	12.827893
_cell_length_c	12.827885
_cell_angle_alpha	90.021189
_cell_angle_beta	90.026888
_cell_angle_gamma	90.015540
loop_
_atom_site_label
_atom_site_type_symbol
_atom_site_fract_x
_atom_site_fract_y
_atom_site_fract_z
Zn1	Zn	0.416032	-1.597656	-0.590923
Zn2	Zn	0.590810	-1.597544	-0.416192
Zn3	Zn	0.416078	-1.422897	-0.416191
Zn4	Zn	0.590727	-1.422876	-0.590886
O5	O	0.503412	-1.510243	-0.503548
O6	O	0.439233	-1.743877	-0.567761
O7	O	0.567685	-1.574338	-0.269956
O8	O	0.269836	-1.446134	-0.439384
O9	O	0.567641	-1.743795	-0.439387
O10	O	0.269802	-1.574529	-0.567759
O11	O	0.439310	-1.446026	-0.269955
O12	O	0.439230	-1.276658	-0.439349
O13	O	0.567499	-1.446099	-0.737127
O14	O	0.567543	-1.276643	-0.567697
O15	O	0.439152	-1.574509	-0.737154
O16	O	0.737035	-1.574318	-0.439351
O17	O	0.736974	-1.445991	-0.567698
C18	C	0.774922	-1.510169	-0.503543
C19	C	0.891075	-1.510232	-0.503576
C20	C	0.503383	-1.238733	-0.503519
C21	C	0.503396	-1.122580	-0.503532
C22	C	0.942855	-1.573806	-0.440139
C23	C	1.062905	-1.573874	-0.440172
C24	C	1.230841	-1.510338	-0.503589
C25	C	1.114688	-1.510357	-0.503638
C26	C	0.439967	-1.070836	-0.567152
C27	C	0.439979	-0.950785	-0.567167
C28	C	0.503311	-1.510314	-0.776118
C29	C	0.503269	-1.510345	-0.892272
C30	C	0.503432	-0.782813	-0.503569
C31	C	0.503419	-0.898966	-0.503557
C32	C	0.439746	-1.573893	-0.944070
C33	C	0.439700	-1.573925	-1.064120
C34	C	0.503436	-1.510232	-0.232038
C35	C	0.503185	-1.510405	-0.115886
H36	H	0.898312	-1.628190	-0.385808
Cl37	Cl	0.959841	-1.426278	-0.587476
H38	H	0.385678	-0.906286	-0.621638
H39	H	0.557612	-1.455956	-0.936802
H40	H	0.385650	-1.115412	-0.621606
Cl41	Cl	0.587274	-0.967657	-0.419461
H42	H	1.107435	-1.628299	-0.385858
H43	H	0.557707	-1.078004	-0.449072
Cl44	Cl	0.355803	-1.657832	-0.875327
Cl45	Cl	0.355736	-1.657934	-1.132888
Cl46	Cl	1.045950	-1.426310	-0.587491
Cl47	Cl	0.587163	-1.426404	-1.047124
