data_functionalizedCrystal
_audit_creation_method	'MofGen! by Chris Wilmer'
_symmetry_space_group_name_H-M	'P1'
_symmetry_Int_Tables_number	1
_symmetry_cell_setting	triclinic
loop_
_symmetry_equiv_pos_as_xyz
  x,y,z
_cell_length_a	15.625020
_cell_length_b	15.538191
_cell_length_c	14.750522
_cell_angle_alpha	107.525257
_cell_angle_beta	121.741241
_cell_angle_gamma	66.738808
loop_
_atom_site_label
_atom_site_type_symbol
_atom_site_fract_x
_atom_site_fract_y
_atom_site_fract_z
O1	O	1.229105	0.239034	0.507735
O2	O	1.729105	0.739034	1.007735
O3	O	0.947727	0.231279	0.409773
O4	O	1.447727	0.731279	0.909773
O5	O	1.143190	0.102457	0.477828
O6	O	1.643190	0.602457	0.977828
O7	O	1.033643	0.367857	0.439681
O8	O	1.533643	0.867857	0.939681
O9	O	1.118996	0.064013	0.309749
O10	O	1.618996	0.564013	0.809749
O11	O	0.923533	0.192836	0.241694
O12	O	1.423533	0.692836	0.741694
O13	O	1.204912	0.200591	0.339656
O14	O	1.704912	0.700591	0.839656
Zn15	Zn	1.060381	0.190609	0.263989
Zn16	Zn	1.560381	0.690609	0.763989
Zn17	Zn	1.092257	0.241261	0.485441
Zn18	Zn	1.592257	0.741261	0.985441
O19	O	1.009449	0.329413	0.271601
O20	O	1.509449	0.829413	0.771601
C21	C	0.900497	0.208597	0.313502
C22	C	1.400497	0.708597	0.813502
C23	C	0.795818	0.198276	0.277059
C24	C	1.295818	0.698276	0.777059
C25	C	0.635089	0.162773	0.134079
C26	C	1.135089	0.662773	0.634079
C27	C	0.733452	0.172474	0.168334
C28	C	1.233452	0.672474	0.668334
C29	C	0.759839	0.214381	0.351572
C30	C	1.259839	0.714381	0.851572
C31	C	0.661478	0.204679	0.317333
C32	C	1.161478	0.704679	0.817333
C33	C	0.599109	0.178875	0.208585
C34	C	1.099109	0.678875	0.708585
C35	C	0.625498	0.220781	0.391839
C36	C	1.125498	0.720781	0.891839
C37	C	0.527143	0.211084	0.357601
C38	C	1.027143	0.711084	0.857601
C39	C	0.464767	0.185285	0.248858
C40	C	0.964767	0.685285	0.748858
C41	C	0.500754	0.169178	0.174348
C42	C	1.000754	0.669178	0.674348
C43	C	0.687865	0.246591	0.500585
C44	C	1.187865	0.746591	1.000585
C45	C	0.651886	0.262694	0.575091
C46	C	1.151886	0.762694	1.075091
C47	C	0.553532	0.252990	0.540855
C48	C	1.053532	0.752990	1.040855
C49	C	0.491156	0.227191	0.432111
C50	C	0.991156	0.727191	0.932111
C51	C	0.517546	0.269096	0.615365
C52	C	1.017546	0.769096	1.115365
C53	C	0.419190	0.259399	0.581127
C54	C	0.919190	0.759399	1.081127
C55	C	0.392801	0.217494	0.397874
C56	C	0.892801	0.717494	0.897874
C57	C	1.142554	0.049067	0.397782
C58	C	1.642554	0.549067	0.897782
C59	C	1.176695	-0.052744	0.409678
C60	C	1.676695	0.447256	0.909678
C61	C	0.837525	-0.367961	0.291575
C62	C	1.337525	0.132039	0.791575
C63	C	0.869628	-0.463632	0.302750
C64	C	1.369628	0.036368	0.802750
C65	C	1.050201	-0.471476	0.365617
C66	C	1.550201	0.028524	0.865617
C67	C	1.018114	-0.375803	0.354452
C68	C	1.518114	0.124197	0.854452
C69	C	0.911774	-0.324053	0.317430
C70	C	1.411774	0.175947	0.817430
C71	C	1.092363	-0.331894	0.380307
C72	C	1.592363	0.168106	0.880307
C73	C	1.060278	-0.236231	0.369138
C74	C	1.560278	0.263769	0.869138
C75	C	0.953943	-0.184475	0.332115
C76	C	1.453943	0.315525	0.832115
C77	C	0.879689	-0.228389	0.306261
C78	C	1.379689	0.271611	0.806261
C79	C	1.198701	-0.383647	0.417322
C80	C	1.698701	0.116353	0.917322
C81	C	1.272951	-0.339739	0.443177
C82	C	1.772951	0.160261	0.943177
C83	C	1.240867	-0.244072	0.432016
C84	C	1.740867	0.255928	0.932016
C85	C	1.134532	-0.192317	0.394992
C86	C	1.634532	0.307683	0.894992
C87	C	1.315121	-0.200158	0.457869
C88	C	1.815121	0.299842	0.957869
C89	C	1.283035	-0.104494	0.446700
C90	C	1.783035	0.395506	0.946700
C91	C	1.102446	-0.096653	0.383823
C92	C	1.602446	0.403347	0.883823
C93	C	1.252141	0.223273	0.435929
C94	C	1.752141	0.723273	0.935929
C95	C	1.356822	0.233596	0.472380
C96	C	1.856822	0.733596	0.972380
C97	C	1.010084	0.382804	0.351649
C98	C	1.510084	0.882804	0.851649
C99	C	0.975944	0.484616	0.339760
C100	C	1.475944	0.984616	0.839760
N101	N	1.038634	0.156041	0.112856
N102	N	1.538634	0.656041	0.612856
C103	C	1.174665	0.372385	-0.191568
C104	C	1.674665	0.872385	0.308432
C105	C	1.159454	0.348149	-0.297367
C106	C	1.659454	0.848149	0.202633
C107	C	1.083765	0.227705	-0.323700
C108	C	1.583765	0.727705	0.176300
C109	C	1.098966	0.251933	-0.217903
C110	C	1.598966	0.751933	0.282097
C111	C	1.144418	0.324273	-0.151844
C112	C	1.644418	0.824273	0.348156
C113	C	1.068718	0.203822	-0.178179
C114	C	1.568718	0.703822	0.321821
C115	C	1.083923	0.228045	-0.072389
C116	C	1.583923	0.728045	0.427611
C117	C	1.129376	0.300380	-0.006323
C118	C	1.629376	0.800380	0.493677
C119	C	1.159622	0.348497	-0.046055
C120	C	1.659622	0.848497	0.453945
C121	C	1.023274	0.131478	-0.244237
C122	C	1.523274	0.631478	0.255763
C123	C	0.993026	0.083367	-0.204513
C124	C	1.493026	0.583367	0.295487
C125	C	1.008224	0.107594	-0.098723
C126	C	1.508224	0.607594	0.401277
C127	C	1.053677	0.179929	-0.032658
C128	C	1.553677	0.679929	0.467342
C129	C	0.977977	0.059478	-0.058992
C130	C	1.477977	0.559478	0.441008
C131	C	0.993182	0.083701	0.046798
C132	C	1.493182	0.583701	0.546798
C133	C	1.068881	0.204153	0.073132
C134	C	1.568881	0.704153	0.573132
N135	N	1.114015	0.275822	0.636577
N136	N	1.614015	0.775822	1.136577
H137	H	0.389895	0.272514	0.641797
H138	H	0.889895	0.772514	1.141797
H139	H	1.015855	-0.054513	0.353683
H140	H	1.515855	0.445487	0.853683
Cl141	Cl	1.448796	-0.265230	0.504390
Cl142	Cl	1.948796	0.234770	1.004390
H143	H	0.927820	-0.106581	0.323016
H144	H	1.427820	0.393419	0.823016
H145	H	1.046762	0.168803	-0.377497
H146	H	1.546762	0.668803	0.122503
H147	H	1.010903	0.111752	-0.330374
H148	H	1.510903	0.611752	0.169626
H149	H	1.211663	0.431300	-0.137784
H150	H	1.711663	0.931300	0.362216
H151	H	0.940980	0.000572	-0.112789
H152	H	1.440980	0.500572	0.387211
Cl153	Cl	0.556688	0.130308	-0.002631
Cl154	Cl	1.056688	0.630308	0.497369
Cl155	Cl	0.778679	0.152228	0.074657
Cl156	Cl	1.278679	0.652228	0.574657
H157	H	0.810631	0.235394	0.440114
H158	H	1.310631	0.735394	0.940114
Cl159	Cl	0.314400	0.185029	0.261164
Cl160	Cl	0.814400	0.685029	0.761164
Cl161	Cl	1.148496	0.330832	0.126673
Cl162	Cl	1.648496	0.830832	0.626673
H163	H	1.224823	-0.461540	0.426424
H164	H	1.724823	0.038460	0.926424
Cl165	Cl	1.376375	-0.049295	0.479185
Cl166	Cl	1.876375	0.450705	0.979185
H167	H	1.184088	0.387334	-0.329705
H168	H	1.684088	0.887334	0.170295
H169	H	0.956023	0.024464	-0.258310
H170	H	1.456023	0.524464	0.241690
H171	H	0.767948	0.254492	0.528456
H172	H	1.267948	0.754492	1.028456
Cl173	Cl	0.341116	0.173099	0.205812
Cl174	Cl	0.841116	0.673099	0.705812
H175	H	0.793098	-0.186250	0.276121
H176	H	1.293098	0.313750	0.776121
Cl177	Cl	0.776272	-0.518830	0.270235
Cl178	Cl	1.276272	-0.018830	0.770235
Cl179	Cl	0.955183	0.023201	0.096750
Cl180	Cl	1.455183	0.523201	0.596750
H181	H	0.568336	0.290115	0.703906
H182	H	1.068336	0.790115	1.203906
Cl183	Cl	0.422353	0.136713	0.037638
Cl184	Cl	0.922353	0.636713	0.537638
H185	H	0.750934	-0.325822	0.261435
H186	H	1.250934	0.174178	0.761435
H187	H	1.136782	-0.513624	0.395756
H188	H	1.636782	-0.013624	0.895756
H189	H	1.359532	-0.381887	0.473317
H190	H	1.859532	0.118113	0.973317
Cl191	Cl	0.730301	0.295128	0.711798
Cl192	Cl	1.230301	0.795128	1.211798
H193	H	1.196620	0.407412	0.007730
H194	H	1.696620	0.907412	0.507730
Cl195	Cl	1.126035	0.295088	0.156190
Cl196	Cl	1.626035	0.795088	0.656190
