data_functionalizedCrystal
_audit_creation_method	'MofGen! by Chris Wilmer'
_symmetry_space_group_name_H-M	'P1'
_symmetry_Int_Tables_number	1
_symmetry_cell_setting	triclinic
loop_
_symmetry_equiv_pos_as_xyz
  x,y,z
_cell_length_a	18.050591
_cell_length_b	18.050589
_cell_length_c	17.640968
_cell_angle_alpha	101.226882
_cell_angle_beta	101.231435
_cell_angle_gamma	90.024227
loop_
_atom_site_label
_atom_site_type_symbol
_atom_site_fract_x
_atom_site_fract_y
_atom_site_fract_z
Zn1	Zn	1.220282	-0.210810	0.447104
Zn2	Zn	1.195068	-0.360115	0.314926
Zn3	Zn	1.070974	-0.235936	0.314918
Zn4	Zn	1.096040	-0.334963	0.447056
O5	O	1.145591	-0.285456	0.381001
O6	O	1.320867	-0.230626	0.429594
O7	O	1.157564	-0.364683	0.204308
O8	O	1.090843	-0.128675	0.332469
O9	O	1.302341	-0.340320	0.332484
O10	O	1.200539	-0.110215	0.429585
O11	O	1.066393	-0.273450	0.204302
O12	O	0.970370	-0.249062	0.332422
O13	O	1.133564	-0.297453	0.557679
O14	O	0.988786	-0.321816	0.429504
O15	O	1.224844	-0.206238	0.557714
O16	O	1.181869	-0.460706	0.332437
O17	O	1.109114	-0.442227	0.429512
C18	C	0.952631	-0.285437	0.380957
C19	C	0.870085	-0.285443	0.380957
C20	C	0.660621	-0.245798	0.328286
C21	C	0.607505	-0.317230	0.308838
C22	C	0.718961	-0.285458	0.380993
C23	C	0.624996	-0.214050	0.400438
C24	C	0.572983	-0.285468	0.381026
C25	C	0.666925	-0.356933	0.361508
C26	C	0.684427	-0.253701	0.453141
C27	C	0.631338	-0.325175	0.433721
C28	C	0.803056	-0.285452	0.380972
C29	C	0.488890	-0.285482	0.381047
C30	C	1.145499	-0.478411	0.380988
C31	C	1.145533	-0.560952	0.381009
C32	C	1.106014	-0.750385	0.433779
C33	C	1.074204	-0.813527	0.361646
C34	C	1.145608	-0.712081	0.381019
C35	C	1.177455	-0.796019	0.453160
C36	C	1.145680	-0.858063	0.381035
C37	C	1.113755	-0.774143	0.308847
C38	C	1.217047	-0.756621	0.400410
C39	C	1.185253	-0.819750	0.328227
C40	C	1.145564	-0.627984	0.381011
C41	C	1.145722	-0.942159	0.381035
C42	C	1.339305	-0.285476	0.381045
C43	C	1.421855	-0.285484	0.381064
C44	C	1.184813	-0.246237	0.587180
C45	C	1.201527	-0.229524	0.675042
C46	C	1.145707	-0.091745	0.381031
C47	C	1.145757	-0.009196	0.381044
C48	C	1.106565	-0.324469	0.175623
C49	C	1.089995	-0.340972	0.087762
C50	C	1.018902	-0.412017	0.963915
C51	C	1.034623	-0.396304	1.046475
C52	C	1.129665	-0.301330	1.046501
C53	C	1.113949	-0.317033	0.963940
C54	C	1.058568	-0.372378	0.922654
C55	C	1.153615	-0.277394	0.922678
C56	C	1.137903	-0.293099	0.840125
C57	C	1.082526	-0.348443	0.798833
C58	C	1.042856	-0.388083	0.840100
C59	C	1.209000	-0.222053	0.963966
C60	C	1.248666	-0.182413	0.922704
C61	C	1.232950	-0.198114	0.840149
C62	C	1.177573	-0.253458	0.798857
C63	C	1.272620	-0.158474	0.798882
C64	C	1.256908	-0.174179	0.716328
C65	C	1.161861	-0.269163	0.716304
H66	H	0.618292	-0.358767	0.478308
O67	O	1.224379	-0.206722	1.044159
C68	C	1.281754	-0.149364	1.071752
H69	H	1.316099	-0.148025	1.024185
H70	H	1.255128	-0.092419	1.086398
C71	C	1.291816	-0.167087	1.204783
C72	C	1.334003	-0.165447	1.146364
H73	H	1.324044	-0.177005	1.250809
H74	H	1.253159	-0.205728	1.186194
H75	H	1.269630	-0.119631	1.216979
H76	H	1.356180	-0.212906	1.134162
H77	H	1.372665	-0.126814	1.164952
O78	O	0.996107	-0.434928	1.086473
C79	C	1.008471	-0.512785	1.066311
H80	H	1.025610	-0.525733	1.006374
H81	H	1.055483	-0.528962	1.112775
C82	C	0.914268	-0.542586	1.136101
C83	C	0.935313	-0.558490	1.062483
H84	H	0.869143	-0.570780	1.133743
H85	H	0.905940	-0.490132	1.149688
H86	H	0.953451	-0.556067	1.174813
H87	H	0.896134	-0.545000	1.023774
H88	H	0.943633	-0.610943	1.048889
H89	H	1.174759	-0.256270	1.080127
O90	O	1.302559	-0.128738	0.962777
C91	C	1.372726	-0.148798	0.942594
H92	H	1.372128	-0.212446	0.919893
H93	H	1.383037	-0.118098	0.894682
C94	C	1.436990	-0.048032	1.043817
C95	C	1.436257	-0.126206	1.015941
H96	H	1.476179	-0.034093	1.089059
H97	H	1.389717	-0.034514	1.057413
H98	H	1.445580	-0.022458	1.003883
H99	H	1.427657	-0.151779	1.055871
H100	H	1.483530	-0.139727	1.002354
O101	O	0.688906	-0.429041	0.341945
C102	C	0.673682	-0.470857	0.397246
H103	H	0.670520	-0.430606	0.454870
H104	H	0.617469	-0.503953	0.373161
C105	C	0.741143	-0.575637	0.341570
C106	C	0.737265	-0.526201	0.412348
H107	H	0.780362	-0.609778	0.350883
H108	H	0.751397	-0.547467	0.304311
H109	H	0.694295	-0.603210	0.321507
H110	H	0.784110	-0.498623	0.432404
H111	H	0.727020	-0.554368	0.449610
H112	H	1.072457	-0.720267	0.478334
H113	H	0.717774	-0.226816	0.514123
O114	O	1.326319	-0.104632	0.839028
C115	C	1.293161	-0.047587	0.886803
H116	H	1.229936	-0.047721	0.861922
H117	H	1.302499	-0.058653	0.949363
C118	C	1.407388	0.030020	0.918654
C119	C	1.329735	0.029860	0.888090
H120	H	1.429950	0.077793	0.919451
H121	H	1.429729	-0.008413	0.886469
H122	H	1.415159	0.020795	0.970784
H123	H	1.321965	0.039076	0.835957
H124	H	1.307394	0.068297	0.920266
O125	O	1.295483	-0.135580	0.676364
C126	C	1.347744	-0.083375	0.730505
H127	H	1.328528	-0.069603	0.789350
H128	H	1.405804	-0.108906	0.739288
C129	C	1.375959	-0.027381	0.626019
C130	C	1.352355	-0.010461	0.698292
H131	H	1.378807	0.017595	0.606148
H132	H	1.340752	-0.062554	0.589542
H133	H	1.424341	-0.048658	0.633348
H134	H	1.303971	0.010807	0.690961
H135	H	1.387554	0.024717	0.734767
H136	H	1.218758	-0.849752	0.283565
O137	O	0.602942	-0.141963	0.419957
C138	C	0.617460	-0.100362	0.364200
H139	H	0.663705	-0.128053	0.334038
H140	H	0.563705	-0.099339	0.318191
C141	C	0.586667	0.015119	0.443234
C142	C	0.643470	-0.018889	0.406194
H143	H	0.602708	0.065377	0.469136
H144	H	0.576883	-0.012909	0.480798
H145	H	0.541875	0.015964	0.404887
H146	H	0.688257	-0.019742	0.444543
H147	H	0.653262	0.009141	0.368638
H148	H	0.997741	-0.433133	0.806482
H149	H	0.973787	-0.457067	0.930298
O150	O	1.209636	-0.808124	0.525873
C151	C	1.273694	-0.852020	0.520512
H152	H	1.268368	-0.885286	0.457625
H153	H	1.326699	-0.813340	0.536801
C154	C	1.285799	-0.866427	0.654842
C155	C	1.279255	-0.907290	0.577604
H156	H	1.289233	-0.900518	0.690061
H157	H	1.242644	-0.836851	0.658455
H158	H	1.329970	-0.834195	0.668405
H159	H	1.235081	-0.939514	0.564039
H160	H	1.322403	-0.936872	0.573990
H161	H	1.013825	-0.838418	0.345260
H162	H	1.277420	-0.731726	0.416832
H163	H	1.116746	-0.314213	0.682686
O164	O	1.081560	-0.762121	0.236106
C165	C	1.081898	-0.683849	0.236979
H166	H	1.085562	-0.651417	0.299960
H167	H	1.132725	-0.667114	0.213559
C168	C	1.004159	-0.704599	0.107140
C169	C	1.008653	-0.664765	0.184493
H170	H	0.958980	-0.692826	0.074762
H171	H	1.003933	-0.757332	0.106550
H172	H	1.046519	-0.690649	0.087634
H173	H	0.966298	-0.678722	0.204001
H174	H	1.008870	-0.612033	0.185085
O175	O	1.067325	-0.363821	0.718640
C176	C	1.081086	-0.440253	0.691052
H177	H	1.122503	-0.461908	0.738625
H178	H	1.025701	-0.475208	0.676399
C179	C	1.064120	-0.420677	0.558021
C180	C	1.114994	-0.447272	0.616448
H181	H	1.085032	-0.425009	0.511999
H182	H	1.054845	-0.369184	0.576606
H183	H	1.017969	-0.449809	0.545819
H184	H	1.161140	-0.418134	0.628656
H185	H	1.124277	-0.498761	0.597863
O186	O	0.676291	-0.205952	0.274951
C187	C	0.636612	-0.239697	0.198981
H188	H	0.622436	-0.301602	0.197380
H189	H	0.582126	-0.208964	0.184234
C190	C	0.703430	-0.158415	0.140046
C191	C	0.686025	-0.234450	0.138078
H192	H	0.733908	-0.155177	0.102477
H193	H	0.730161	-0.135679	0.191228
H194	H	0.658020	-0.132813	0.127759
H195	H	0.731434	-0.260049	0.150375
H196	H	0.659303	-0.257191	0.086896
H197	H	0.574172	-0.344098	0.247838
