data_functionalizedCrystal
_audit_creation_method	'MofGen! by Chris Wilmer'
_symmetry_space_group_name_H-M	'P1'
_symmetry_Int_Tables_number	1
_symmetry_cell_setting	triclinic
loop_
_symmetry_equiv_pos_as_xyz
  x,y,z
_cell_length_a	13.033293
_cell_length_b	13.897448
_cell_length_c	13.034356
_cell_angle_alpha	82.789070
_cell_angle_beta	76.646206
_cell_angle_gamma	97.187372
loop_
_atom_site_label
_atom_site_type_symbol
_atom_site_fract_x
_atom_site_fract_y
_atom_site_fract_z
Zn1	Zn	1.700362	-0.090187	-0.807222
Zn2	Zn	1.677674	-0.274998	-0.629583
Zn3	Zn	1.500147	-0.137156	-0.607013
Zn4	Zn	1.522689	-0.274907	-0.784565
O5	O	1.600218	-0.194312	-0.707096
O6	O	1.846005	-0.095084	-0.802585
O7	O	1.635196	-0.276407	-0.477940
O8	O	1.526767	0.004068	-0.633607
O9	O	1.829337	-0.230864	-0.672075
O10	O	1.673864	0.038575	-0.780700
O11	O	1.504767	-0.175135	-0.461358
O12	O	1.354484	-0.175047	-0.611638
O13	O	1.565186	-0.230709	-0.936219
O14	O	1.371046	-0.276252	-0.742085
O15	O	1.695722	-0.094996	-0.952865
O16	O	1.657054	-0.409979	-0.650105
O17	O	1.543187	-0.409912	-0.763970
C18	C	1.324221	-0.230737	-0.671954
C19	C	1.206151	-0.246340	-0.656946
C20	C	1.161772	-0.186193	-0.714928
C21	C	1.039741	-0.202318	-0.699418
C22	C	1.600137	-0.444941	-0.707055
C23	C	1.600203	-0.552143	-0.707085
C24	C	1.600323	-0.748415	-0.707166
C25	C	1.600254	-0.639195	-0.707124
C26	C	1.877293	-0.157745	-0.742375
C27	C	1.995366	-0.142162	-0.757409
C28	C	1.635500	-0.157603	-0.984162
C29	C	1.650534	-0.141960	-1.102232
C30	C	1.600332	0.057302	-0.707163
C31	C	1.600380	0.164525	-0.707192
C32	C	1.608187	-0.185972	-1.268666
C33	C	1.592645	-0.202141	-1.146634
C34	C	1.565135	-0.230800	-0.431114
C35	C	1.550306	-0.246144	-0.313072
H36	H	1.047708	-0.078722	-0.818532
H37	H	1.489249	-0.309633	-1.260747
O38	O	1.136821	-0.330360	-0.575968
H39	H	1.160344	-0.400914	-0.596710
O40	O	1.731416	-0.057848	-1.171521
H41	H	1.730923	-0.058337	-1.256494
O42	O	1.689075	-0.101869	-1.337952
H43	H	1.668200	-0.031364	-1.314404
O44	O	1.511740	-0.286237	-1.077348
H45	H	1.552853	-0.335700	-1.032833
O46	O	1.231098	-0.102164	-0.795897
H47	H	1.316067	-0.102689	-0.795378
H48	H	0.987396	-0.265752	-0.638287
