data_functionalizedCrystal
_audit_creation_method	'MofGen! by Chris Wilmer'
_symmetry_space_group_name_H-M	'P1'
_symmetry_Int_Tables_number	1
_symmetry_cell_setting	triclinic
loop_
_symmetry_equiv_pos_as_xyz
  x,y,z
_cell_length_a	14.519709
_cell_length_b	15.944545
_cell_length_c	12.996460
_cell_angle_alpha	89.991753
_cell_angle_beta	90.000034
_cell_angle_gamma	83.588159
loop_
_atom_site_label
_atom_site_type_symbol
_atom_site_fract_x
_atom_site_fract_y
_atom_site_fract_z
O1	O	1.223673	0.110109	-0.085438
O2	O	1.723673	0.610109	0.414562
O3	O	0.955174	0.123076	-0.085470
O4	O	1.455174	0.623076	0.414530
O5	O	1.096759	-0.005672	-0.085441
O6	O	1.596759	0.494328	0.414559
O7	O	1.082088	0.238857	-0.085467
O8	O	1.582088	0.738857	0.414533
O9	O	1.096744	-0.005679	0.085693
O10	O	1.596744	0.494321	0.585693
O11	O	0.955159	0.123069	0.085664
O12	O	1.455159	0.623069	0.585664
O13	O	1.223659	0.110102	0.085696
O14	O	1.723659	0.610102	0.585696
Cu15	Cu	1.089407	0.116585	0.101306
Cu16	Cu	1.589407	0.616585	0.601306
Cu17	Cu	1.089425	0.116593	-0.101080
Cu18	Cu	1.589425	0.616593	0.398920
O19	O	1.082074	0.238850	0.085667
O20	O	1.582074	0.738850	0.585667
C21	C	0.920807	0.122468	0.000093
C22	C	1.420807	0.622468	0.500093
C23	C	0.818429	0.120657	0.000081
C24	C	1.318429	0.620657	0.500081
C25	C	1.096143	-0.036970	0.000127
C26	C	1.596143	0.463030	0.500127
C27	C	1.094320	-0.130219	0.000130
C28	C	1.594320	0.369781	0.500130
C29	C	0.443545	0.113991	0.000129
C30	C	0.943545	0.613991	0.500129
C31	C	0.547850	0.115842	0.000115
C32	C	1.047850	0.615842	0.500115
C33	C	0.630984	0.117324	0.000104
C34	C	1.130984	0.617324	0.500104
C35	C	0.735295	0.119176	0.000092
C36	C	1.235295	0.619176	0.500092
C37	C	1.001113	-0.400987	0.000098
C38	C	1.501113	0.099013	0.500098
C39	C	1.046057	-0.350333	-0.084275
C40	C	1.546057	0.149667	0.415725
C41	C	1.087820	-0.465873	0.000100
C42	C	1.587820	0.034127	0.500100
C43	C	1.046066	-0.350367	0.084449
C44	C	1.546066	0.149633	0.584449
C45	C	1.091009	-0.300954	0.000116
C46	C	1.591009	0.199046	0.500116
C47	C	1.132741	-0.416447	-0.084343
C48	C	1.632741	0.083553	0.415657
C49	C	1.132737	-0.416484	0.084457
C50	C	1.632737	0.083516	0.584457
C51	C	1.177746	-0.365863	0.000064
C52	C	1.677746	0.134137	0.500064
C53	C	1.085980	-0.560877	0.000089
C54	C	1.585980	-0.060877	0.500089
C55	C	1.092856	-0.205952	0.000119
C56	C	1.592856	0.294048	0.500119
C57	C	1.258025	0.110710	0.000131
C58	C	1.758025	0.610710	0.500131
C59	C	1.360403	0.112521	0.000136
C60	C	1.860403	0.612521	0.500136
C61	C	1.082689	0.270149	0.000097
C62	C	1.582689	0.770149	0.500097
C63	C	1.084512	0.363398	0.000087
C64	C	1.584512	0.863398	0.500087
N65	N	1.089402	0.116578	0.243653
N66	N	1.589402	0.616578	0.743653
N67	N	1.089438	0.116593	-0.243427
N68	N	1.589438	0.616593	0.256573
C69	C	1.089424	0.116594	0.663467
C70	C	1.589424	0.616594	1.163467
C71	C	1.089415	0.116593	0.546662
C72	C	1.589415	0.616593	1.046662
C73	C	1.089413	0.116587	0.453564
C74	C	1.589413	0.616587	0.953564
C75	C	1.089404	0.116584	0.336751
C76	C	1.589404	0.616584	0.836751
H77	H	0.926439	-0.416748	0.000006
H78	H	1.426439	0.083252	0.500006
F79	F	1.275423	-0.345468	0.000015
F80	F	1.775423	0.154532	0.500015
F81	F	1.180578	-0.454022	-0.177682
F82	F	1.680578	0.045978	0.322318
F83	F	0.998205	-0.312581	-0.177524
F84	F	1.498205	0.187419	0.322476
H85	H	1.169318	-0.445384	0.155800
H86	H	1.669318	0.054616	0.655800
H87	H	1.009426	-0.321509	0.155778
H88	H	1.509426	0.178491	0.655778
