data_functionalizedCrystal
_audit_creation_method	'MofGen! by Chris Wilmer'
_symmetry_space_group_name_H-M	'P1'
_symmetry_Int_Tables_number	1
_symmetry_cell_setting	triclinic
loop_
_symmetry_equiv_pos_as_xyz
  x,y,z
_cell_length_a	19.188925
_cell_length_b	19.188930
_cell_length_c	12.503572
_cell_angle_alpha	93.506241
_cell_angle_beta	86.492816
_cell_angle_gamma	83.143665
loop_
_atom_site_label
_atom_site_type_symbol
_atom_site_fract_x
_atom_site_fract_y
_atom_site_fract_z
O1	O	0.930187	0.083096	-0.089355
O2	O	1.430187	0.583096	0.410645
O3	O	0.726875	0.094835	-0.089354
O4	O	1.226875	0.594835	0.410646
O5	O	0.834398	-0.012689	-0.089334
O6	O	1.334398	0.487311	0.410666
O7	O	0.822665	0.190620	-0.089376
O8	O	1.322665	0.690620	0.410624
O9	O	0.826311	-0.004590	0.089307
O10	O	1.326311	0.495410	0.589307
O11	O	0.718789	0.102934	0.089286
O12	O	1.218789	0.602934	0.589286
O13	O	0.922101	0.091196	0.089285
O14	O	1.422101	0.591196	0.589285
Cu15	Cu	0.819707	0.097805	0.105597
Cu16	Cu	1.319707	0.597805	0.605597
Cu17	Cu	0.829270	0.088226	-0.105666
Cu18	Cu	1.329270	0.588226	0.394334
O19	O	0.814579	0.198720	0.089265
O20	O	1.314579	0.698720	0.589265
C21	C	0.696821	0.098505	-0.000033
C22	C	1.196821	0.598505	0.499967
C23	C	0.619316	0.097366	-0.000032
C24	C	1.119316	0.597366	0.499968
C25	C	0.057547	0.152829	-0.000046
C26	C	0.557547	0.652829	0.499954
C27	C	0.130370	0.153905	-0.000052
C28	C	0.630370	0.653905	0.499948
C29	C	0.175304	0.090814	-0.000037
C30	C	0.675304	0.590814	0.499963
C31	C	0.147410	0.026640	-0.000044
C32	C	0.647410	0.526640	0.499956
C33	C	0.074588	0.025565	-0.000048
C34	C	0.574588	0.525565	0.499952
N35	N	0.293228	0.047896	0.060783
N36	N	0.793228	0.547896	0.560783
N37	N	0.362405	0.048921	0.060790
N38	N	0.862405	0.548921	0.560790
C39	C	0.394713	0.094049	-0.000025
C40	C	0.894713	0.594049	0.499975
N41	N	0.355228	0.138123	-0.060833
N42	N	0.855228	0.638123	0.439167
N43	N	0.286044	0.137100	-0.060835
N44	N	0.786044	0.637100	0.439165
C45	C	0.254268	0.091972	-0.000032
C46	C	0.754268	0.591972	0.499968
C47	C	0.501562	0.159385	-0.000032
C48	C	1.001562	0.659385	0.499968
C49	C	0.574387	0.160458	-0.000045
C50	C	1.074387	0.660458	0.499955
C51	C	0.591426	0.033192	-0.000026
C52	C	1.091426	0.533192	0.499974
C53	C	0.518602	0.032120	-0.000024
C54	C	1.018602	0.532120	0.499976
C55	C	0.473674	0.095219	-0.000022
C56	C	0.973674	0.595219	0.499978
C57	C	0.829974	-0.034650	-0.000010
C58	C	1.329974	0.465350	0.499990
C59	C	0.828833	-0.112154	-0.000001
C60	C	1.328833	0.387846	0.499999
C61	C	0.891924	-0.157079	0.000004
C62	C	1.391924	0.342921	0.500004
C63	C	0.890853	-0.229904	-0.000014
C64	C	1.390853	0.270096	0.499986
C65	C	0.826687	-0.257799	-0.000014
C66	C	1.326687	0.242201	0.499986
C67	C	0.763588	-0.212865	-0.000025
C68	C	1.263588	0.287135	0.499975
C69	C	0.764661	-0.140042	-0.000018
C70	C	1.264661	0.359958	0.499982
N71	N	0.774887	-0.363047	0.060781
N72	N	1.274887	0.136953	0.560781
N73	N	0.773872	-0.432226	0.060777
N74	N	1.273872	0.067774	0.560777
C75	C	0.823450	-0.477209	-0.000036
C76	C	1.323450	0.022791	0.499964
N77	N	0.874091	-0.450401	-0.060831
N78	N	1.374091	0.049599	0.439169
N79	N	0.875108	-0.381216	-0.060823
N80	N	1.375108	0.118784	0.439177
C81	C	0.825516	-0.336762	-0.000022
C82	C	1.325516	0.163238	0.499978
C83	C	0.885384	-0.601099	-0.000051
C84	C	1.385384	-0.101099	0.499949
C85	C	0.884310	-0.673925	-0.000075
C86	C	1.384310	-0.173925	0.499925
C87	C	0.757043	-0.656884	-0.000075
C88	C	1.257043	-0.156884	0.499925
C89	C	0.758119	-0.584060	-0.000062
C90	C	1.258119	-0.084060	0.499938
C91	C	0.822291	-0.556172	-0.000045
C92	C	1.322291	-0.056172	0.499955
C93	C	0.952155	0.087526	-0.000038
C94	C	1.452155	0.587526	0.499962
C95	C	1.029660	0.088664	-0.000046
C96	C	1.529660	0.588664	0.499954
C97	C	0.819002	0.220681	-0.000061
C98	C	1.319002	0.720681	0.499939
C99	C	0.820144	0.298185	-0.000077
C100	C	1.320144	0.798185	0.499923
N101	N	0.812986	0.104542	0.254188
N102	N	1.312986	0.604542	0.754188
N103	N	0.835996	0.081483	-0.254257
N104	N	1.335996	0.581483	0.245743
C105	C	0.803099	0.114458	0.473301
C106	C	1.303099	0.614458	0.973301
C107	C	0.845881	0.071570	0.526637
C108	C	1.345881	0.571570	1.026637
C109	C	0.840380	0.077087	0.648559
C110	C	1.340380	0.577087	1.148559
C111	C	0.808599	0.108941	0.351368
C112	C	1.308599	0.608941	0.851368
H113	H	0.184000	-0.024729	-0.000034
H114	H	0.684000	0.475271	0.499966
H115	H	0.944178	-0.134378	0.000014
H116	H	1.444178	0.365622	0.500014
N117	N	0.160461	0.223114	-0.000039
N118	N	0.660461	0.723114	0.499961
H119	H	0.193296	0.223400	-0.066257
H120	H	0.693296	0.723400	0.433743
H121	H	0.120910	0.262885	0.000002
H122	H	0.620910	0.762885	0.500002
N123	N	0.899873	0.017443	0.465842
N124	N	1.399873	0.517443	0.965842
H125	H	0.896203	0.021123	0.386100
H126	H	1.396203	0.521123	0.886100
H127	H	0.948528	0.026176	0.485422
H128	H	1.448528	0.526176	0.985422
N129	N	0.749111	0.168581	0.534096
N130	N	1.249111	0.668581	1.034096
H131	H	0.752787	0.164899	0.613836
H132	H	1.252787	0.664899	1.113836
H133	H	0.757983	0.217195	0.514498
H134	H	1.257983	0.717195	1.014498
H135	H	0.051885	-0.026687	-0.000049
H136	H	0.551885	0.473313	0.499951
H137	H	0.935689	-0.710503	-0.000077
H138	H	1.435689	-0.210503	0.499923
N139	N	0.009085	0.220887	0.000050
N140	N	0.509085	0.720887	0.500050
H141	H	0.037804	0.261700	0.000080
H142	H	0.537804	0.761700	0.500080
H143	H	-0.018533	0.220260	-0.066145
H144	H	0.481467	0.720260	0.433855
N145	N	0.694383	-0.242954	-0.000017
N146	N	1.194383	0.257046	0.499983
H147	H	0.663753	-0.223559	0.066205
H148	H	1.163753	0.276441	0.566205
H149	H	0.669805	-0.229549	-0.066283
H150	H	1.169805	0.270451	0.433717
H151	H	0.464980	0.210764	-0.000033
H152	H	0.964980	0.710764	0.499967
H153	H	0.628011	-0.018179	-0.000022
H154	H	1.128011	0.481821	0.499978
H155	H	0.597090	0.212711	-0.000053
H156	H	1.097090	0.712711	0.499947
H157	H	0.942231	-0.266489	-0.000014
H158	H	1.442231	0.233511	0.499986
N159	N	0.488515	-0.037085	-0.000010
N160	N	0.988515	0.462915	0.499990
H161	H	0.507912	-0.067719	-0.066226
H162	H	1.007912	0.432281	0.433774
H163	H	0.501918	-0.061656	0.066262
H164	H	1.001918	0.438344	0.566262
N165	N	0.696611	-0.091582	-0.000024
N166	N	1.196611	0.408418	0.499976
H167	H	0.655797	-0.120301	-0.000031
H168	H	1.155797	0.379699	0.499969
H169	H	0.691286	-0.058004	0.066205
H170	H	1.191286	0.441996	0.566205
H171	H	0.937637	-0.578392	-0.000042
H172	H	1.437637	-0.078392	0.499958
N173	N	0.687834	-0.686960	-0.000088
N174	N	1.187834	-0.186960	0.499912
H175	H	0.696726	-0.739911	-0.000095
H176	H	1.196726	-0.239911	0.499905
H177	H	0.657235	-0.667518	0.066136
H178	H	1.157235	-0.167518	0.566136
N179	N	0.690068	-0.535601	-0.000043
N180	N	1.190068	-0.035601	0.499957
H181	H	0.700484	-0.485236	-0.000037
H182	H	1.200484	0.014764	0.499963
H183	H	0.665089	-0.547602	-0.066267
H184	H	1.165089	-0.047602	0.433733
