data_functionalizedCrystal
_audit_creation_method	'MofGen! by Chris Wilmer'
_symmetry_space_group_name_H-M	'P1'
_symmetry_Int_Tables_number	1
_symmetry_cell_setting	triclinic
loop_
_symmetry_equiv_pos_as_xyz
  x,y,z
_cell_length_a	10.489716
_cell_length_b	10.489741
_cell_length_c	14.185328
_cell_angle_alpha	104.653505
_cell_angle_beta	104.655348
_cell_angle_gamma	84.534155
loop_
_atom_site_label
_atom_site_type_symbol
_atom_site_fract_x
_atom_site_fract_y
_atom_site_fract_z
O1	O	1.720122	0.205865	0.083413
O2	O	1.348924	0.222791	0.083417
O3	O	1.542968	0.028727	0.083409
O4	O	1.526078	0.399928	0.083421
O5	O	1.490844	-0.023376	-0.083435
O6	O	1.296801	0.170688	-0.083427
O7	O	1.667999	0.153761	-0.083431
Cu8	Cu	1.477641	0.157467	-0.098663
Cu9	Cu	1.539282	0.219085	0.098649
O10	O	1.473955	0.347825	-0.083423
C11	C	1.275330	0.195468	-0.000005
C12	C	1.133700	0.191664	-0.000003
C13	C	1.036028	0.310670	0.000003
C14	C	0.932980	0.222094	-0.082266
C15	C	0.984376	0.273436	0.082229
C16	C	1.032496	0.103116	-0.082340
C17	C	1.083921	0.154498	0.082228
C18	C	0.980916	0.065829	-0.000061
C19	C	1.515630	-0.044855	-0.000012
C20	C	1.511814	-0.186484	-0.000010
C21	C	1.388350	-0.254611	-0.000002
C22	C	1.420975	-0.372428	-0.082265
C23	C	1.472393	-0.321033	0.082230
C24	C	1.544468	-0.302457	-0.082342
C25	C	1.595892	-0.251030	0.082227
C26	C	1.628600	-0.368826	-0.000056
C27	C	1.741593	0.181085	-0.000007
C28	C	1.883226	0.184892	-0.000002
C29	C	1.501293	0.421409	0.000001
C30	C	1.505112	0.563040	0.000006
N31	N	1.434294	0.114128	-0.237442
C32	C	1.709887	0.389781	-0.605043
C33	C	1.677082	0.356933	-0.710070
C34	C	1.520957	0.200713	-0.710059
C35	C	1.553744	0.233553	-0.605029
C36	C	1.648211	0.328087	-0.552529
C37	C	1.492068	0.171858	-0.552516
C38	C	1.524858	0.204691	-0.447496
C39	C	1.619323	0.299218	-0.394989
C40	C	1.681000	0.360920	-0.447509
C41	C	1.397609	0.077318	-0.605018
C42	C	1.335932	0.015623	-0.552505
C43	C	1.368715	0.048462	-0.447482
C44	C	1.463181	0.142990	-0.394975
C45	C	1.307038	-0.013239	-0.394962
C46	C	1.339828	0.019594	-0.289941
C47	C	1.495970	0.175822	-0.289955
N48	N	1.582638	0.262415	0.237428
H49	H	1.054063	0.031167	-0.151961
C50	C	1.271977	-0.048270	-0.232174
N51	N	1.220872	-0.099388	-0.188663
C52	C	0.954996	0.370672	0.176183
N53	N	0.932871	0.443917	0.246946
H54	H	1.286812	-0.204976	-0.000084
H55	H	1.259021	-0.061351	-0.595264
C56	C	1.585591	-0.290189	-0.176405
N57	N	1.616559	-0.280946	-0.247255
H58	H	1.730190	-0.418273	-0.000103
C59	C	1.172038	0.116024	0.176190
N60	N	1.238406	0.087052	0.246971
H61	H	1.669817	-0.198270	0.151778
H62	H	1.060674	0.414163	-0.000070
C63	C	1.321048	-0.443664	-0.176217
N64	N	1.245775	-0.497314	-0.246978
C65	C	1.431144	-0.333535	0.176185
N66	N	1.400065	-0.342946	0.246949
H67	H	0.867770	0.250612	-0.151814
C68	C	0.947875	-0.074137	-0.000132
N69	N	0.922980	-0.179558	-0.000192
C70	C	1.361543	0.041201	-0.720544
N71	N	1.334379	0.014000	-0.807559
C72	C	1.784912	0.464919	-0.389753
N73	N	1.863177	0.543246	-0.346252
C74	C	1.744952	0.424798	-0.767831
N75	N	1.796076	0.475906	-0.811336
H76	H	1.572881	0.252815	-0.247206
H77	H	1.230132	-0.090219	-0.437723
C78	C	1.655391	0.335337	-0.279462
N79	N	1.682555	0.362543	-0.192447
H80	H	1.786797	0.466774	-0.562294
H81	H	1.444046	0.123738	-0.752818
