data_functionalizedCrystal
_audit_creation_method	'MofGen! by Chris Wilmer'
_symmetry_space_group_name_H-M	'P1'
_symmetry_Int_Tables_number	1
_symmetry_cell_setting	triclinic
loop_
_symmetry_equiv_pos_as_xyz
  x,y,z
_cell_length_a	11.169417
_cell_length_b	12.759394
_cell_length_c	11.169409
_cell_angle_alpha	89.967439
_cell_angle_beta	89.980487
_cell_angle_gamma	90.015891
loop_
_atom_site_label
_atom_site_type_symbol
_atom_site_fract_x
_atom_site_fract_y
_atom_site_fract_z
Zn1	Zn	1.834926	-0.418146	-0.678531
Zn2	Zn	1.834801	-0.593872	-0.477847
Zn3	Zn	1.634212	-0.418212	-0.477866
Zn4	Zn	1.634205	-0.593788	-0.678493
O5	O	1.734536	-0.506004	-0.578184
O6	O	2.002859	-0.441465	-0.651918
O7	O	1.808143	-0.570633	-0.309900
O8	O	1.660893	-0.271182	-0.504509
O9	O	2.002767	-0.570570	-0.504476
O10	O	1.808357	-0.271134	-0.651936
O11	O	1.660771	-0.441576	-0.309914
O12	O	1.466262	-0.441494	-0.504472
O13	O	1.660880	-0.570426	-0.846448
O14	O	1.466256	-0.570489	-0.651872
O15	O	1.808350	-0.441383	-0.846476
O16	O	1.808135	-0.740882	-0.504439
O17	O	1.660758	-0.740820	-0.651853
C18	C	1.422711	-0.505990	-0.578171
C19	C	1.289311	-0.506010	-0.578193
C20	C	1.734465	-0.778972	-0.578166
C21	C	1.734545	-0.895749	-0.578198
C22	C	1.888263	-1.115183	-0.424861
C23	C	1.965023	-1.060317	-0.348159
C24	C	1.964961	-0.950595	-0.348136
C25	C	1.888127	-0.895738	-0.424819
C26	C	1.811367	-0.950604	-0.501521
C27	C	1.811440	-1.060328	-0.501539
C28	C	1.657784	-0.950615	-0.654900
C29	C	1.657851	-1.060337	-0.654932
C30	C	1.580951	-0.895757	-0.731583
C31	C	1.504195	-0.950623	-0.808293
C32	C	1.504261	-1.060352	-0.808314
C33	C	1.581091	-1.115203	-0.731633
C34	C	2.047578	-0.506019	-0.578199
C35	C	2.180978	-0.506026	-0.578205
C36	C	1.734628	-0.505888	-0.891227
C37	C	1.734667	-0.505838	-1.024627
C38	C	1.734640	-0.231971	-0.578229
C39	C	1.734684	-0.115194	-0.578248
C40	C	1.734513	-0.506045	-0.266360
C41	C	1.734707	-0.505799	-0.132960
H42	H	1.888333	-1.204524	-0.424884
H43	H	1.580901	-0.806416	-0.731554
Br44	Br	1.888385	-0.746829	-0.425127
H45	H	1.441755	-1.105017	-0.870776
H46	H	2.027577	-1.104994	-0.285723
Br47	Br	2.069122	-0.876129	-0.244027
H48	H	1.581157	-1.204544	-0.731648
H49	H	1.441637	-0.905951	-0.870717
