data_functionalizedCrystal
_audit_creation_method	'MofGen! by Chris Wilmer'
_symmetry_space_group_name_H-M	'P1'
_symmetry_Int_Tables_number	1
_symmetry_cell_setting	triclinic
loop_
_symmetry_equiv_pos_as_xyz
  x,y,z
_cell_length_a	14.519731
_cell_length_b	17.666332
_cell_length_c	14.519731
_cell_angle_alpha	90.000240
_cell_angle_beta	96.311147
_cell_angle_gamma	90.009346
loop_
_atom_site_label
_atom_site_type_symbol
_atom_site_fract_x
_atom_site_fract_y
_atom_site_fract_z
O1	O	1.223871	0.062941	-0.120983
O2	O	1.723871	0.562941	0.379017
O3	O	0.955398	0.062941	-0.135199
O4	O	1.455398	0.562941	0.364801
O5	O	1.096742	0.062946	0.006145
O6	O	1.596742	0.562946	0.506145
O7	O	1.082526	0.062935	-0.262328
O8	O	1.582526	0.562935	0.237672
O9	O	1.096717	-0.062951	0.006149
O10	O	1.596717	0.437049	0.506149
O11	O	0.955373	-0.062956	-0.135195
O12	O	1.455373	0.437044	0.364805
O13	O	1.223846	-0.062956	-0.120979
O14	O	1.723846	0.437044	0.379021
Cu15	Cu	1.089607	-0.074452	-0.128087
Cu16	Cu	1.589607	0.425548	0.371913
Cu17	Cu	1.089637	0.074436	-0.128092
Cu18	Cu	1.589637	0.574436	0.371908
O19	O	1.082502	-0.062962	-0.262324
O20	O	1.582502	0.437038	0.237676
C21	C	0.921026	-0.000008	-0.134531
C22	C	1.421026	0.499992	0.365469
C23	C	0.818645	-0.000007	-0.132535
C24	C	1.318645	0.499993	0.367465
C25	C	0.735501	-0.000004	-0.130913
C26	C	1.235501	0.499996	0.369087
C27	C	0.631192	-0.000004	-0.128887
C28	C	1.131192	0.499996	0.371113
C29	C	0.548053	-0.000004	-0.127278
C30	C	1.048053	0.499996	0.372722
C31	C	0.443738	-0.000002	-0.125252
C32	C	0.943738	0.499998	0.374748
N33	N	1.089593	-0.179171	-0.128083
N34	N	1.589593	0.320829	0.371917
C35	C	1.145612	-0.218777	-0.184150
C36	C	1.645612	0.281223	0.315850
C37	C	1.145627	-0.298024	-0.184147
C38	C	1.645627	0.201976	0.315853
C39	C	1.089606	-0.337663	-0.128088
C40	C	1.589606	0.162337	0.371912
C41	C	1.033583	-0.298048	-0.072010
C42	C	1.533583	0.201952	0.427990
C43	C	1.033577	-0.218802	-0.072007
C44	C	1.533577	0.281198	0.427993
N45	N	1.008826	-0.462102	-0.125430
N46	N	1.508826	0.037898	0.374570
N47	N	1.008834	-0.537383	-0.125438
N48	N	1.508834	-0.037383	0.374562
C49	C	1.089622	-0.576427	-0.128091
C50	C	1.589622	-0.076427	0.371909
N51	N	1.170403	-0.537347	-0.130755
N52	N	1.670403	-0.037347	0.369245
N53	N	1.170393	-0.462060	-0.130752
N54	N	1.670393	0.037940	0.369248
C55	C	1.089606	-0.423592	-0.128084
C56	C	1.589606	0.076408	0.371916
C57	C	1.145662	-0.701962	-0.184159
C58	C	1.645662	-0.201962	0.315841
C59	C	1.145679	-0.781211	-0.184149
C60	C	1.645679	-0.281211	0.315851
C61	C	1.033626	-0.781233	-0.072017
C62	C	1.533626	-0.281233	0.427983
C63	C	1.033618	-0.701986	-0.072021
C64	C	1.533618	-0.201986	0.427979
C65	C	1.089635	-0.662355	-0.128097
C66	C	1.589635	-0.162355	0.371903
C67	C	1.258218	-0.000006	-0.121648
C68	C	1.758218	0.499994	0.378352
C69	C	1.360598	-0.000002	-0.123643
C70	C	1.860598	0.499998	0.376357
N71	N	1.089658	0.179155	-0.128089
N72	N	1.589658	0.679155	0.371911
C73	C	1.083180	-0.000015	-0.296685
C74	C	1.583180	0.499985	0.203315
C75	C	1.085176	-0.000019	-0.399066
C76	C	1.585176	0.499981	0.100934
C77	C	1.086798	-0.000016	-0.482210
C78	C	1.586798	0.499984	0.017790
C79	C	1.088825	-0.000008	-0.586519
C80	C	1.588825	0.499992	-0.086519
C81	C	1.090433	-0.000002	-0.669658
C82	C	1.590433	0.499998	-0.169658
C83	C	1.092459	0.000004	-0.773974
C84	C	1.592459	0.500004	-0.273974
C85	C	1.096064	0.000001	0.040507
C86	C	1.596064	0.500001	0.540507
C87	C	1.094068	0.000010	0.142887
C88	C	1.594068	0.500010	0.642887
H89	H	1.191245	-0.330278	-0.229806
H90	H	1.691245	0.169722	0.270194
O91	O	0.973203	-0.659266	-0.011537
O92	O	1.473203	-0.159266	0.488463
H93	H	0.982621	-0.597502	-0.020942
H94	H	1.482621	-0.097502	0.479058
O95	O	0.973163	-0.176064	-0.011536
O96	O	1.473163	0.323936	0.488464
H97	H	0.899486	-0.191273	-0.031427
H98	H	1.399486	0.308727	0.468573
H99	H	1.191275	-0.669693	-0.229818
H100	H	1.691275	-0.169693	0.270182
O101	O	1.206106	-0.823936	-0.244620
O102	O	1.706106	-0.323936	0.255380
H103	H	1.186151	-0.808739	-0.318285
H104	H	1.686151	-0.308739	0.181715
O105	O	0.973176	-0.340800	-0.011531
O106	O	1.473176	0.159200	0.488469
H107	H	0.934231	-0.299942	0.027470
H108	H	1.434231	0.200058	0.527470
H109	H	0.988014	-0.813506	-0.026372
H110	H	1.488014	-0.313506	0.473628
O111	O	1.206035	-0.176037	-0.244626
O112	O	1.706035	0.323963	0.255374
H113	H	1.196617	-0.114277	-0.235213
H114	H	1.696617	0.385723	0.264787
