data_functionalizedCrystal
_audit_creation_method	'MofGen! by Chris Wilmer'
_symmetry_space_group_name_H-M	'P1'
_symmetry_Int_Tables_number	1
_symmetry_cell_setting	triclinic
loop_
_symmetry_equiv_pos_as_xyz
  x,y,z
_cell_length_a	19.805407
_cell_length_b	12.759400
_cell_length_c	19.805399
_cell_angle_alpha	90.023237
_cell_angle_beta	90.019573
_cell_angle_gamma	90.014685
loop_
_atom_site_label
_atom_site_type_symbol
_atom_site_fract_x
_atom_site_fract_y
_atom_site_fract_z
Zn1	Zn	1.034791	-0.418291	0.382740
Zn2	Zn	1.534791	0.081709	0.882740
Zn3	Zn	1.034729	-0.593984	0.269560
Zn4	Zn	1.534729	-0.093984	0.769560
Zn5	Zn	0.921605	-0.418320	0.269565
Zn6	Zn	1.421605	0.081680	0.769565
Zn7	Zn	0.921592	-0.593928	0.382707
Zn8	Zn	1.421592	-0.093928	0.882707
O9	O	0.978179	-0.506131	0.326143
O10	O	1.478179	-0.006131	0.826143
O11	O	1.129499	-0.441608	0.367739
O12	O	1.629499	0.058392	0.867739
O13	O	1.019702	-0.570717	0.174844
O14	O	1.519702	-0.070717	0.674844
O15	O	0.936651	-0.271295	0.284593
O16	O	1.436651	0.228705	0.784593
O17	O	1.129454	-0.570689	0.284586
O18	O	1.629454	-0.070689	0.784586
O19	O	1.019808	-0.271273	0.367743
O20	O	1.519808	0.228727	0.867743
O21	O	0.936591	-0.441657	0.174848
O22	O	1.436591	0.058343	0.674848
O23	O	0.826887	-0.441603	0.284561
O24	O	1.326887	0.058397	0.784561
O25	O	0.936629	-0.570594	0.477428
O26	O	1.436629	-0.070594	0.977428
O27	O	0.826877	-0.570622	0.367687
O28	O	1.326877	-0.070622	0.867687
O29	O	1.019795	-0.441554	0.477452
O30	O	1.519795	0.058446	0.977452
O31	O	1.019689	-0.740998	0.284554
O32	O	1.519689	-0.240998	0.784554
O33	O	0.936568	-0.740957	0.367682
O34	O	1.436568	-0.240957	0.867682
C35	C	0.802323	-0.506110	0.326121
C36	C	1.302323	-0.006110	0.826121
C37	C	0.727091	-0.506127	0.326128
C38	C	1.227091	-0.006127	0.826128
C39	C	0.691760	-0.573408	0.369341
C40	C	1.191760	-0.073408	0.869341
C41	C	0.621071	-0.573410	0.369351
C42	C	1.121071	-0.073410	0.869351
C43	C	0.585716	-0.506135	0.326143
C44	C	1.085716	-0.006135	0.826143
C45	C	0.621052	-0.438847	0.282928
C46	C	1.121052	0.061153	0.782928
C47	C	0.691739	-0.438840	0.282922
C48	C	1.191739	0.061160	0.782922
C49	C	0.335979	-0.438870	0.282950
C50	C	0.835979	0.061130	0.782950
C51	C	0.265287	-0.438884	0.282958
C52	C	0.765287	0.061116	0.782958
C53	C	0.265311	-0.573440	0.369379
C54	C	0.765311	-0.073440	0.869379
C55	C	0.335998	-0.573433	0.369373
C56	C	0.835998	-0.073433	0.869373
C57	C	0.371328	-0.506141	0.326161
C58	C	0.871328	-0.006141	0.826161
C59	C	0.447977	-0.506139	0.326152
C60	C	0.947977	-0.006139	0.826152
C61	C	0.509069	-0.506142	0.326148
C62	C	1.009069	-0.006142	0.826148
C63	C	0.978139	-0.779098	0.326129
C64	C	1.478139	-0.279098	0.826129
C65	C	0.978184	-0.895875	0.326146
C66	C	1.478184	-0.395875	0.826146
C67	C	1.021513	-0.950723	0.282908
C68	C	1.521513	-0.450723	0.782908
C69	C	1.021555	-1.060447	0.282929
C70	C	1.521555	-0.560447	0.782929
C71	C	0.934932	-1.060464	0.369426
C72	C	1.434932	-0.560464	0.869426
C73	C	0.934894	-0.950742	0.369408
C74	C	1.434894	-0.450742	0.869408
C75	C	1.064802	-0.895855	0.239646
C76	C	1.564802	-0.395855	0.739646
C77	C	1.108135	-0.950704	0.196404
C78	C	1.608135	-0.450704	0.696404
C79	C	1.108176	-1.060428	0.196425
C80	C	1.608176	-0.560428	0.696425
C81	C	1.064886	-1.115303	0.239687
C82	C	1.564886	-0.615303	0.739687
C83	C	1.154722	-0.506152	0.326165
C84	C	1.654722	-0.006152	0.826165
C85	C	1.229954	-0.506160	0.326175
C86	C	1.729954	-0.006160	0.826175
C87	C	0.978217	-0.506064	0.502686
C88	C	1.478217	-0.006064	1.002686
C89	C	0.978233	-0.506036	0.577918
C90	C	1.478233	-0.006036	1.077918
C91	C	0.978238	-0.232097	0.326172
C92	C	1.478238	0.267903	0.826172
C93	C	0.978263	-0.115321	0.326184
C94	C	1.478263	0.384679	0.826184
C95	C	0.978180	-0.506121	0.150287
C96	C	1.478180	-0.006121	0.650287
C97	C	0.978295	-0.505853	0.075055
C98	C	1.478295	-0.005853	0.575055
C99	C	1.021539	-0.438842	0.613276
C100	C	1.521539	0.061158	1.113276
C101	C	1.021546	-0.438811	0.683964
C102	C	1.521546	0.061189	1.183964
C103	C	0.978250	-0.505981	0.719294
C104	C	1.478250	-0.005981	1.219294
C105	C	0.934940	-0.573179	0.683931
C106	C	1.434940	-0.073179	1.183931
C107	C	0.934930	-0.573203	0.613244
C108	C	1.434930	-0.073203	1.113244
C109	C	0.934978	-0.573081	0.969004
C110	C	1.434978	-0.073081	1.469004
C111	C	0.934992	-0.573054	1.039696
C112	C	1.434992	-0.073054	1.539696
C113	C	1.021594	-0.438689	1.039725
C114	C	1.521594	0.061311	1.539725
C115	C	1.021584	-0.438713	0.969038
C116	C	1.521584	0.061287	1.469038
C117	C	0.978272	-0.505906	0.933681
C118	C	1.478272	-0.005906	1.433681
C119	C	0.978264	-0.505937	0.857033
C120	C	1.478264	-0.005937	1.357033
C121	C	0.978261	-0.505957	0.795941
C122	C	1.478261	-0.005957	1.295941
H123	H	0.236502	-0.384094	0.247773
H124	H	0.736502	0.115906	0.747773
H125	H	0.592308	-0.628198	0.404539
H126	H	1.092308	-0.128198	0.904539
O127	O	0.582918	-0.366283	0.236328
O128	O	1.082918	0.133717	0.736328
H129	H	0.619364	-0.319489	0.206283
H130	H	1.119364	0.180511	0.706283
H131	H	0.236536	-0.628228	0.404567
H132	H	0.736536	-0.128228	0.904567
H133	H	0.899685	-0.627866	0.712702
H134	H	1.399685	-0.127866	1.212702
H135	H	0.364781	-0.628219	0.404555
H136	H	0.864781	-0.128219	0.904555
H137	H	0.899613	-0.906084	0.404617
H138	H	1.399613	-0.406084	0.904617
O139	O	0.888213	-0.645674	0.575110
O140	O	1.388213	-0.145674	1.075110
H141	H	0.918482	-0.699142	0.542897
H142	H	1.418482	-0.199142	1.042897
H143	H	1.056843	-0.384020	0.940276
H144	H	1.556843	0.115980	1.440276
H145	H	0.899733	-0.627754	1.068460
H146	H	1.399733	-0.127754	1.568460
H147	H	0.720505	-0.384048	0.247737
H148	H	1.220505	0.115952	0.747737
H149	H	1.064772	-0.806512	0.239622
H150	H	1.564772	-0.306512	0.739622
O151	O	1.154828	-0.891518	0.149751
O152	O	1.654828	-0.391518	0.649751
H153	H	1.184971	-0.948095	0.119695
H154	H	1.684971	-0.448095	0.619695
H155	H	0.364736	-0.384085	0.247759
H156	H	0.864736	0.115915	0.747759
O157	O	1.154909	-1.119592	0.149791
O158	O	1.654909	-0.619592	0.649791
H159	H	1.184999	-1.063002	0.119703
H160	H	1.684999	-0.563002	0.619703
O161	O	1.064930	-1.233650	0.239707
O162	O	1.564930	-0.733650	0.739707
H163	H	1.078594	-1.262512	0.290775
H164	H	1.578594	-0.762512	0.790775
H165	H	0.899686	-1.105153	0.404648
H166	H	1.399686	-0.605153	0.904648
H167	H	1.056798	-0.384147	0.584516
H168	H	1.556798	0.115853	1.084516
O169	O	1.068258	-0.366344	0.722103
O170	O	1.568258	0.133656	1.222103
H171	H	1.098370	-0.319652	0.685661
H172	H	1.598370	0.180348	1.185661
O173	O	1.068292	-0.366191	1.077868
O174	O	1.568292	0.133809	1.577868
H175	H	1.102718	-0.413194	1.110087
H176	H	1.602718	0.086806	1.610087
O177	O	0.729893	-0.645965	0.415947
O178	O	1.229893	-0.145965	0.915947
H179	H	0.693446	-0.692741	0.446003
H180	H	1.193446	-0.192741	0.946003
O181	O	0.888230	-0.645496	0.930873
O182	O	1.388230	-0.145496	1.430873
H183	H	0.858119	-0.692184	0.967317
H184	H	1.358119	-0.192184	1.467317
