data_functionalizedCrystal
_audit_creation_method	'MofGen! by Chris Wilmer'
_symmetry_space_group_name_H-M	'P1'
_symmetry_Int_Tables_number	1
_symmetry_cell_setting	triclinic
loop_
_symmetry_equiv_pos_as_xyz
  x,y,z
_cell_length_a	14.446369
_cell_length_b	21.606444
_cell_length_c	21.606444
_cell_angle_alpha	119.998708
_cell_angle_beta	89.997854
_cell_angle_gamma	59.997435
loop_
_atom_site_label
_atom_site_type_symbol
_atom_site_fract_x
_atom_site_fract_y
_atom_site_fract_z
Zr1	Zr	0.891754	0.677418	0.081179
O2	O	0.743935	0.806546	0.180005
O3	O	0.937070	0.548297	0.050886
O4	O	0.937058	0.677421	0.180005
O5	O	0.743954	0.677418	-0.050967
O6	O	1.089395	0.677415	0.180001
O7	O	0.743947	0.677422	0.050887
O8	O	1.089416	0.446436	-0.050968
O9	O	0.743934	0.908397	0.180002
O10	O	1.070082	0.601400	0.037960
O11	O	0.956400	0.601401	-0.038049
O12	O	0.956387	0.753427	0.113971
O13	O	0.842705	0.753428	0.037961
Zr14	Zr	1.134726	0.677402	-0.081273
Zr15	Zr	1.134714	0.677409	0.081173
Zr16	Zr	0.891766	0.677411	-0.081267
Zr17	Zr	0.891751	0.839859	0.081174
Zr18	Zr	1.134729	0.514962	-0.081267
O19	O	1.089410	0.806524	-0.050980
O20	O	1.089393	0.806534	0.179997
O21	O	0.743952	0.806536	-0.050972
O22	O	1.282545	0.548274	-0.180099
O23	O	1.282528	0.548284	0.050878
O24	O	0.937087	0.548287	-0.180090
O25	O	1.282526	0.677403	0.050874
O26	O	1.089422	0.677400	-0.180098
O27	O	0.937085	0.677405	-0.180095
O28	O	1.282533	0.677398	-0.050981
O29	O	0.937055	0.908390	0.179997
O30	O	1.089426	0.446431	-0.180091
O31	O	1.282547	0.446424	-0.180096
O32	O	1.282537	0.446429	-0.050973
O33	O	0.743943	0.908392	0.050879
O34	O	0.937064	0.908385	0.050875
O35	O	1.070094	0.601393	-0.114065
O36	O	1.183775	0.601392	-0.038055
O37	O	1.070080	0.753420	0.037956
O38	O	0.956398	0.753421	-0.038054
C39	C	1.013243	0.474222	-0.000040
C40	C	1.013244	0.405262	-0.000038
C41	C	0.709334	0.677422	-0.000039
C42	C	0.606191	0.677425	-0.000037
C43	C	1.072583	0.372864	0.039639
C44	C	1.072587	0.308064	0.039634
C45	C	1.013245	0.275668	-0.000044
C46	C	0.953905	0.308069	-0.039727
C47	C	0.953908	0.372863	-0.039726
C48	C	0.953892	0.046759	-0.039733
C49	C	0.953890	-0.018038	-0.039729
C50	C	1.072570	-0.018040	0.039627
C51	C	1.072573	0.046755	0.039628
C52	C	1.013239	0.079147	-0.000057
C53	C	1.013237	0.149409	-0.000053
C54	C	1.013240	0.205411	-0.000045
C55	C	0.387817	0.773299	0.047661
C56	C	0.495049	0.773364	0.047929
C57	C	0.602866	0.629802	0.034934
C58	C	0.495097	0.630410	0.035284
C59	C	0.496469	0.628431	-0.082766
C60	C	0.602438	0.630238	-0.082636
C61	C	1.317146	0.677399	-0.000054
C62	C	1.420289	0.677395	-0.000057
C63	C	1.013225	0.677419	0.203148
C64	C	1.013220	0.677422	0.272110
C65	C	1.013237	0.880598	-0.000053
C66	C	1.013236	0.949559	-0.000056
C67	C	0.953872	0.756778	0.344185
C68	C	0.953881	0.756776	0.408980
C69	C	1.013234	0.677416	0.401698
C70	C	1.072590	0.598054	0.329615
C71	C	1.072586	0.598057	0.264822
C72	C	1.072608	0.598039	0.590918
C73	C	1.072605	0.598041	0.655719
C74	C	0.953904	0.756757	0.735077
C75	C	0.953900	0.756761	0.670283
C76	C	1.013260	0.677399	0.598206
C77	C	1.013250	0.677402	0.527949
C78	C	1.013238	0.677412	0.471954
C79	C	1.013256	0.677402	0.796758
C80	C	1.013262	0.677399	0.727796
C81	C	1.317149	0.474211	-0.000048
C82	C	1.420293	0.405247	-0.000048
C83	C	1.013258	0.474214	-0.203235
C84	C	1.013265	0.405251	-0.272195
C85	C	1.317164	0.474202	-0.203242
C86	C	1.420314	0.405236	-0.272205
C87	C	0.709316	0.880618	0.203149
C88	C	0.606167	0.949585	0.272111
C89	C	0.709331	0.880610	-0.000046
C90	C	0.606187	0.949573	-0.000046
C91	C	1.013222	0.880607	0.203141
C92	C	1.013216	0.949570	0.272101
C93	C	1.409384	0.372865	0.039638
C94	C	1.506290	0.308075	0.039653
C95	C	1.614103	0.275664	-0.000023
C96	C	1.625010	0.308053	-0.039710
C97	C	1.528106	0.372846	-0.039720
C98	C	1.072614	0.372861	-0.344266
C99	C	1.072616	0.308072	-0.409067
C100	C	1.013274	0.275669	-0.401797
C101	C	0.953917	0.308065	-0.329719
C102	C	0.953909	0.372857	-0.264919
C103	C	1.528104	0.372848	-0.264914
C104	C	1.625033	0.308055	-0.329706
C105	C	1.614169	0.275647	-0.401787
C106	C	1.506367	0.308041	-0.409077
C107	C	1.409440	0.372837	-0.344286
C108	C	0.498376	0.981981	0.264821
C109	C	0.401447	1.046794	0.329612
C110	C	0.412311	1.079205	0.401694
C111	C	0.520114	1.046807	0.408983
C112	C	0.617040	0.981999	0.344192
C113	C	0.617096	0.981963	-0.039725
C114	C	0.520190	1.046770	-0.039722
C115	C	0.412377	1.079184	-0.000044
C116	C	0.401470	1.046792	0.039640
C117	C	0.498374	0.981990	0.039641
C118	C	1.072569	0.981952	0.264806
C119	C	1.072586	1.046742	0.329596
C120	C	1.013241	1.079153	0.401679
C121	C	0.953886	1.046764	0.408972
C122	C	0.953877	0.981971	0.344184
H123	H	1.120905	0.281685	0.071942
N124	N	1.136587	-0.052983	0.082423
H125	H	1.105447	-0.003543	0.137930
H126	H	1.127572	-0.098962	0.076344
H127	H	0.333480	1.131950	-0.000051
N128	N	1.136603	0.512455	0.321753
H129	H	1.219623	0.477759	0.293127
H130	H	1.127510	0.524562	0.373759
H131	H	0.905539	0.955613	0.350134
H132	H	0.313675	1.073193	0.071945
N133	N	0.889890	-0.052986	-0.082531
H134	H	0.852306	-0.022638	-0.107675
H135	H	0.944392	-0.118034	-0.122416
H136	H	1.120943	0.533417	0.532239
H137	H	0.905595	0.281682	-0.072038
H138	H	0.905532	0.821402	0.350124
N139	N	0.428380	0.675257	0.115901
H140	H	0.420850	0.633256	0.119905
H141	H	0.469163	0.694445	0.150831
H142	H	0.333378	1.131975	0.454444
H143	H	0.528946	1.073204	0.467679
H144	H	1.120913	0.533437	0.206135
H145	H	1.120895	0.955574	0.206118
H146	H	0.446447	0.659114	-0.111980
N147	N	0.733373	0.947011	-0.082523
H148	H	0.725562	0.977375	-0.107652
H149	H	0.776162	0.958286	-0.046089
H150	H	1.536972	0.399225	-0.206228
H151	H	0.523912	0.557783	-0.118489
H152	H	1.537004	0.399203	-0.072042
H153	H	0.529093	1.073133	-0.072040
N154	N	1.136578	0.407810	0.082442
H155	H	1.174170	0.377449	0.107575
H156	H	1.196244	0.396531	0.046011
H157	H	0.905602	0.281673	-0.323810
H158	H	1.120938	0.399236	-0.350200
N159	N	1.013238	1.149044	0.471559
H160	H	1.047012	1.126497	0.502749
H161	H	1.059824	1.164615	0.455938
N162	N	0.889876	1.081727	0.486720
H163	H	0.944307	1.070452	0.515370
H164	H	0.830167	1.146763	0.515303
N165	N	1.136610	1.081665	0.321720
H166	H	1.174191	1.051303	0.266223
H167	H	1.082126	1.146713	0.346876
N168	N	1.293108	0.407811	0.082432
H169	H	1.284022	0.434703	0.137939
H170	H	1.233437	0.453736	0.076347
N171	N	0.889911	0.407802	-0.082525
H172	H	0.806888	0.434692	-0.061714
H173	H	0.899009	0.453727	-0.076495
N174	N	1.494511	0.273151	0.082461
H175	H	1.411506	0.303512	0.107585
H176	H	1.532142	0.208103	0.046035
H177	H	0.681601	0.560244	-0.121181
N178	N	0.889825	0.407834	-0.187186
H179	H	0.852217	0.377485	-0.192421
H180	H	0.944254	0.396584	-0.158533
N181	N	1.494662	0.273071	-0.486825
H182	H	1.411670	0.303415	-0.481621
H183	H	1.532293	0.284342	-0.515439
N184	N	0.486600	0.947058	0.082440
H185	H	0.403594	0.977429	0.107572
H186	H	0.524215	0.882013	0.046010
H187	H	1.120890	0.073133	0.071941
N188	N	1.136643	0.273136	-0.486802
H189	H	1.174242	0.303490	-0.481569
H190	H	1.196305	0.208088	-0.515417
N191	N	1.013290	0.205781	-0.471689
H192	H	0.979524	0.228334	-0.502875
H193	H	1.093697	0.152041	-0.502813
H194	H	1.321676	0.399199	-0.350233
H195	H	1.712802	0.281686	-0.323757
N196	N	0.601764	0.676225	-0.117247
H197	H	0.670356	0.634000	-0.164462
H198	H	0.530562	0.698075	-0.130833
H199	H	0.905582	0.073122	-0.072050
H200	H	1.693000	0.222905	-0.000010
N201	N	0.889902	0.842383	0.486708
H202	H	0.806878	0.877098	0.492796
H203	H	0.898998	0.830295	0.526620
H204	H	1.693102	0.222886	-0.454538
N205	N	0.530379	0.537217	-0.007757
H206	H	0.501591	0.523755	-0.052164
H207	H	0.615813	0.495974	-0.026826
H208	H	0.905564	0.821384	0.676220
H209	H	0.704806	0.955623	0.350137
H210	H	0.493290	0.810919	0.024654
H211	H	0.333862	0.810936	0.024323
N212	N	0.486641	0.947028	0.187081
H213	H	0.403642	0.977395	0.192305
H214	H	0.524275	0.958295	0.158463
N215	N	0.706543	0.536364	-0.008878
H216	H	0.756786	0.523977	-0.051920
H217	H	0.749696	0.527310	0.025992
H218	H	0.332827	0.810757	0.108305
N219	N	1.136639	0.512440	0.647861
H220	H	1.196349	0.508914	0.672980
H221	H	1.082140	0.508950	0.672965
H222	H	0.492598	0.810961	0.108942
H223	H	0.905573	0.821378	0.793771
N224	N	0.605677	0.673616	0.114791
H225	H	0.677548	0.670911	0.114111
H226	H	0.537811	0.736776	0.146916
N227	N	1.741298	0.273092	-0.082501
H228	H	1.801021	0.227131	-0.076470
H229	H	1.750289	0.246245	-0.137991
N230	N	0.285185	1.081728	0.321741
H231	H	0.293019	1.051351	0.266245
H232	H	0.242380	1.070462	0.346901
