data_functionalizedCrystal
_audit_creation_method	'MofGen! by Chris Wilmer'
_symmetry_space_group_name_H-M	'P1'
_symmetry_Int_Tables_number	1
_symmetry_cell_setting	triclinic
loop_
_symmetry_equiv_pos_as_xyz
  x,y,z
_cell_length_a	14.519731
_cell_length_b	19.288865
_cell_length_c	18.366186
_cell_angle_alpha	89.988521
_cell_angle_beta	89.990864
_cell_angle_gamma	83.412550
loop_
_atom_site_label
_atom_site_type_symbol
_atom_site_fract_x
_atom_site_fract_y
_atom_site_fract_z
O1	O	1.223283	0.091121	-0.060560
O2	O	0.954741	0.101828	-0.060562
O3	O	1.096772	-0.004627	-0.060547
O4	O	1.081253	0.197577	-0.060575
O5	O	1.096748	-0.004633	0.060553
O6	O	0.954717	0.101823	0.060537
O7	O	1.223259	0.091116	0.060539
Zn8	Zn	1.088984	0.096469	0.079766
Zn9	Zn	1.089016	0.096476	-0.079788
O10	O	1.081229	0.197571	0.060524
C11	C	1.096260	-0.030508	0.000005
C12	C	1.094761	-0.107617	0.000012
C13	C	0.920373	0.101324	-0.000012
C14	C	0.818002	0.099820	-0.000013
C15	C	1.178099	-0.152009	0.000016
C16	C	1.176690	-0.224461	0.000004
C17	C	1.091940	-0.252518	0.000003
C18	C	1.008592	-0.208117	-0.000005
C19	C	1.010003	-0.135666	-0.000001
C20	C	1.025308	-0.361051	0.042421
C21	C	1.023901	-0.433501	0.042422
C22	C	1.087586	-0.475980	-0.000013
C23	C	1.152693	-0.446002	-0.042438
C24	C	1.154104	-0.373551	-0.042434
C25	C	1.090401	-0.331078	-0.000002
C26	C	1.169402	-0.598933	-0.000022
C27	C	1.167990	-0.671386	-0.000038
C28	C	0.999889	-0.655041	-0.000041
C29	C	1.001303	-0.582589	-0.000032
C30	C	1.086062	-0.554540	-0.000019
C31	C	0.734866	0.098599	-0.000015
C32	C	0.630567	0.097073	-0.000015
C33	C	0.547435	0.095861	-0.000015
C34	C	0.443130	0.094335	-0.000017
C35	C	1.257627	0.091620	-0.000012
C36	C	1.359998	0.093124	-0.000016
C37	C	1.081740	0.223452	-0.000030
C38	C	1.083239	0.300561	-0.000041
N39	N	1.088969	0.096463	0.188657
N40	N	1.089038	0.096475	-0.188679
C41	C	1.151881	0.049348	0.226764
C42	C	1.151887	0.049345	0.302992
C43	C	1.088990	0.096469	0.341109
C44	C	1.026066	0.143588	0.302993
C45	C	1.026056	0.143585	0.226767
C46	C	1.076645	0.159712	0.461861
C47	C	1.076661	0.159716	0.538086
C48	C	1.089016	0.096478	0.576217
C49	C	1.101374	0.033234	0.538114
C50	C	1.101364	0.033231	0.461888
C51	C	1.088994	0.096477	0.423764
C52	C	1.151938	0.049356	0.696979
C53	C	1.151937	0.049351	0.773208
C54	C	1.026121	0.143600	0.773208
C55	C	1.026117	0.143598	0.696980
C56	C	1.089030	0.096477	0.658870
H57	H	1.247116	-0.129176	0.000024
C58	C	1.221143	-0.002479	0.815132
C59	C	1.290362	-0.054293	0.773211
C60	C	1.359569	-0.106124	0.815136
C61	C	1.359557	-0.106139	0.898982
C62	C	1.290336	-0.054322	0.940907
C63	C	1.221129	-0.002492	0.898982
H64	H	1.290373	-0.054284	0.711139
H65	H	1.410812	-0.144482	0.784099
H66	H	1.410789	-0.144507	0.930017
H67	H	1.290325	-0.054332	1.002979
H68	H	1.169886	0.035866	0.930019
H69	H	1.244556	-0.260612	0.000005
H70	H	1.203119	0.010977	0.334024
C71	C	0.955250	-0.314325	0.089102
C72	C	0.850479	-0.314114	0.075936
C73	C	0.780423	-0.267388	0.122612
C74	C	0.815138	-0.220873	0.182454
C75	C	0.919915	-0.221082	0.195623
C76	C	0.989971	-0.267808	0.148947
H77	H	0.824776	-0.348549	0.031634
H78	H	0.702860	-0.267234	0.112863
H79	H	0.763279	-0.186284	0.217007
H80	H	0.945618	-0.186648	0.239924
H81	H	1.067533	-0.267963	0.158695
H82	H	1.207115	-0.349146	-0.076980
C83	C	1.114938	-0.036333	0.419974
C84	C	1.128523	-0.105897	0.461906
C85	C	1.142090	-0.175462	0.419991
C86	C	1.142072	-0.175462	0.336145
C87	C	1.128486	-0.105895	0.294209
C88	C	1.114919	-0.036330	0.336123
H89	H	1.128537	-0.105900	0.523978
H90	H	1.152147	-0.226960	0.451036
H91	H	1.152115	-0.226958	0.305118
H92	H	1.128472	-0.105893	0.232137
H93	H	1.104862	0.015168	0.305078
C94	C	1.063051	0.229277	0.419917
C95	C	1.138845	0.248626	0.367488
C96	C	1.125248	0.318187	0.325544
C97	C	1.035857	0.368401	0.336030
C98	C	0.960056	0.349053	0.388461
C99	C	0.973653	0.279492	0.430405
H100	H	1.205023	0.211454	0.359724
H101	H	1.181361	0.332509	0.286731
H102	H	1.025791	0.419894	0.304980
H103	H	0.893878	0.386225	0.396225
H104	H	0.917540	0.265170	0.469218
C105	C	0.906659	-0.685892	-0.000039
C106	C	0.882560	-0.733464	0.062844
C107	C	0.789326	-0.764317	0.062844
C108	C	0.720192	-0.747598	-0.000037
C109	C	0.744289	-0.700024	-0.062925
C110	C	0.837523	-0.669170	-0.062925
H111	H	0.933739	-0.745843	0.109397
H112	H	0.771488	-0.799535	0.109398
H113	H	0.651175	-0.770438	-0.000037
H114	H	0.693110	-0.687645	-0.109478
H115	H	0.855361	-0.633952	-0.109479
H116	H	1.203106	0.010977	0.195737
H117	H	1.111434	-0.018261	0.569159
H118	H	1.203163	0.010984	0.665949
H119	H	1.204551	-0.480587	-0.076993
H120	H	0.974853	0.181956	0.334032
C121	C	1.063067	0.229281	0.579995
C122	C	1.049456	0.298841	0.538056
C123	C	1.035860	0.368409	0.579964
C124	C	1.035875	0.368416	0.663810
C125	C	1.049486	0.298854	0.705753
C126	C	1.063082	0.229286	0.663846
H127	H	1.049445	0.298838	0.475984
H128	H	1.025784	0.419904	0.548914
H129	H	1.025811	0.419914	0.694832
H130	H	1.049498	0.298857	0.767825
H131	H	1.073158	0.177791	0.694895
H132	H	1.238417	-0.576094	-0.000015
C133	C	1.259669	-0.720220	-0.000035
C134	C	1.329180	-0.717017	0.062856
C135	C	1.420860	-0.765850	0.062859
C136	C	1.443030	-0.817887	-0.000029
C137	C	1.373517	-0.821092	-0.062926
C138	C	1.281836	-0.772258	-0.062929
H139	H	1.312770	-0.678494	0.109415
H140	H	1.472318	-0.763477	0.109420
H141	H	1.510897	-0.854036	-0.000027
H142	H	1.389926	-0.859614	-0.109484
H143	H	1.230378	-0.774631	-0.109489
H144	H	0.974825	0.181953	0.195739
H145	H	0.933441	-0.546444	-0.000031
H146	H	0.939588	-0.230966	-0.000008
C147	C	0.952283	-0.466473	0.089085
C148	C	0.882216	-0.419750	0.135748
C149	C	0.810594	-0.452720	0.182411
C150	C	0.809040	-0.532413	0.182411
C151	C	0.879110	-0.579140	0.135746
C152	C	0.950731	-0.546170	0.089083
H153	H	0.883364	-0.360753	0.135750
H154	H	0.758724	-0.418129	0.216956
H155	H	0.756022	-0.556819	0.216954
H156	H	0.877962	-0.638138	0.135744
H157	H	1.002602	-0.580761	0.054538
C158	C	0.918326	-0.086831	0.000001
C159	C	0.848805	-0.090033	-0.062884
C160	C	0.757127	-0.041196	-0.062880
C161	C	0.734970	0.010843	0.000009
C162	C	0.804493	0.014046	0.062899
C163	C	0.896171	-0.034791	0.062895
H164	H	0.865205	-0.128556	-0.109442
H165	H	0.705661	-0.043568	-0.109435
H166	H	0.667105	0.046995	0.000013
H167	H	0.788093	0.052570	0.109458
H168	H	0.947636	-0.032419	0.109450
H169	H	0.974905	0.181967	0.804243
H170	H	0.974892	0.181967	0.665951
