data_functionalizedCrystal
_audit_creation_method	'MofGen! by Chris Wilmer'
_symmetry_space_group_name_H-M	'P1'
_symmetry_Int_Tables_number	1
_symmetry_cell_setting	triclinic
loop_
_symmetry_equiv_pos_as_xyz
  x,y,z
_cell_length_a	19.077105
_cell_length_b	18.101395
_cell_length_c	19.076919
_cell_angle_alpha	92.272317
_cell_angle_beta	90.076224
_cell_angle_gamma	87.727498
loop_
_atom_site_label
_atom_site_type_symbol
_atom_site_fract_x
_atom_site_fract_y
_atom_site_fract_z
Zn1	Zn	1.058231	-0.358271	-0.440421
Zn2	Zn	1.308231	-0.108271	-0.190421
Zn3	Zn	1.558231	0.141729	0.059579
Zn4	Zn	1.808231	0.391729	0.309579
Zn5	Zn	1.062857	-0.477344	-0.322915
Zn6	Zn	1.312857	-0.227344	-0.072915
Zn7	Zn	1.562857	0.022656	0.177085
Zn8	Zn	1.812857	0.272656	0.427085
Zn9	Zn	0.945450	-0.348351	-0.318214
Zn10	Zn	1.195450	-0.098351	-0.068214
Zn11	Zn	1.445450	0.151649	0.181786
Zn12	Zn	1.695450	0.401649	0.431786
Zn13	Zn	0.940679	-0.476897	-0.435668
Zn14	Zn	1.190679	-0.226897	-0.185668
Zn15	Zn	1.440679	0.023103	0.064332
Zn16	Zn	1.690679	0.273103	0.314332
O17	O	1.001804	-0.415216	-0.379305
O18	O	1.251804	-0.165216	-0.129305
O19	O	1.501804	0.084784	0.120695
O20	O	1.751804	0.334784	0.370695
O21	O	1.157176	-0.378405	-0.428790
O22	O	1.407176	-0.128405	-0.178790
O23	O	1.657176	0.121595	0.071210
O24	O	1.907176	0.371595	0.321210
O25	O	1.051216	-0.456268	-0.223960
O26	O	1.301216	-0.206268	0.026040
O27	O	1.551216	0.043732	0.276040
O28	O	1.801216	0.293732	0.526040
O29	O	0.960470	-0.246037	-0.334447
O30	O	1.210470	0.003963	-0.084447
O31	O	1.460470	0.253963	0.165553
O32	O	1.710470	0.503963	0.415553
O33	O	1.160575	-0.465887	-0.342459
O34	O	1.410575	-0.215887	-0.092459
O35	O	1.660575	0.034113	0.157541
O36	O	1.910575	0.284113	0.407541
O37	O	1.043330	-0.253326	-0.424232
O38	O	1.293330	-0.003326	-0.174232
O39	O	1.543330	0.246674	0.075768
O40	O	1.793330	0.496674	0.325768
O41	O	0.964957	-0.361497	-0.220507
O42	O	1.214957	-0.111497	0.029493
O43	O	1.464957	0.138503	0.279493
O44	O	1.714957	0.388503	0.529493
O45	O	0.846486	-0.361064	-0.329838
O46	O	1.096486	-0.111064	-0.079838
O47	O	1.346486	0.138936	0.170162
O48	O	1.596486	0.388936	0.420162
O49	O	0.952340	-0.465126	-0.534630
O50	O	1.202340	-0.215126	-0.284630
O51	O	1.452340	0.034874	-0.034630
O52	O	1.702340	0.284874	0.215370
O53	O	0.842981	-0.455506	-0.416131
O54	O	1.092981	-0.205506	-0.166131
O55	O	1.342981	0.044494	0.083869
O56	O	1.592981	0.294494	0.333869
O57	O	1.038704	-0.377972	-0.538122
O58	O	1.288704	-0.127972	-0.288122
O59	O	1.538704	0.122028	-0.038122
O60	O	1.788704	0.372028	0.211878
O61	O	1.046590	-0.580914	-0.337850
O62	O	1.296590	-0.330914	-0.087850
O63	O	1.546590	-0.080914	0.162150
O64	O	1.796590	0.169086	0.412150
O65	O	0.956826	-0.580586	-0.420689
O66	O	1.206826	-0.330586	-0.170689
O67	O	1.456826	-0.080586	0.079311
O68	O	1.706826	0.169414	0.329311
C69	C	0.819237	-0.407161	-0.371959
C70	C	1.069237	-0.157161	-0.121959
C71	C	1.319237	0.092839	0.128041
C72	C	1.569237	0.342839	0.378041
C73	C	0.741133	-0.403733	-0.368833
C74	C	0.991133	-0.153733	-0.118833
C75	C	1.241133	0.096267	0.131167
C76	C	1.491133	0.346267	0.381167
C77	C	1.001711	-0.607621	-0.379280
C78	C	1.251711	-0.357621	-0.129280
C79	C	1.501711	-0.107621	0.120720
C80	C	1.751711	0.142379	0.370720
C81	C	1.001735	-0.689937	-0.379296
C82	C	1.251735	-0.439937	-0.129296
C83	C	1.501735	-0.189937	0.120704
C84	C	1.751735	0.060063	0.370704
C85	C	0.702636	-0.451363	-0.412222
C86	C	0.952636	-0.201363	-0.162222
C87	C	1.202636	0.048637	0.087778
C88	C	1.452636	0.298637	0.337778
C89	C	0.629249	-0.448133	-0.409288
C90	C	0.879249	-0.198133	-0.159288
C91	C	1.129249	0.051867	0.090712
C92	C	1.379249	0.301867	0.340712
C93	C	0.594361	-0.397276	-0.362962
C94	C	0.844361	-0.147276	-0.112962
C95	C	1.094361	0.102724	0.137038
C96	C	1.344361	0.352724	0.387038
C97	C	0.632863	-0.349642	-0.319571
C98	C	0.882863	-0.099642	-0.069571
C99	C	1.132863	0.150358	0.180429
C100	C	1.382863	0.400358	0.430429
C101	C	0.706248	-0.352869	-0.322509
C102	C	0.956248	-0.102869	-0.072509
C103	C	1.206248	0.147131	0.177491
C104	C	1.456248	0.397131	0.427491
C105	C	0.375075	-0.382341	-0.349369
C106	C	0.625075	-0.132341	-0.099369
C107	C	0.875075	0.117659	0.150631
C108	C	1.125075	0.367659	0.400631
C109	C	0.301684	-0.379119	-0.346433
C110	C	0.551684	-0.129119	-0.096433
C111	C	0.801684	0.120881	0.153567
C112	C	1.051684	0.370881	0.403567
C113	C	0.298076	-0.477610	-0.436152
C114	C	0.548076	-0.227610	-0.186152
C115	C	0.798076	0.022390	0.063848
C116	C	1.048076	0.272390	0.313848
C117	C	0.371463	-0.480836	-0.439082
C118	C	0.621463	-0.230836	-0.189082
C119	C	0.871463	0.019164	0.060918
C120	C	1.121463	0.269164	0.310918
C121	C	0.409959	-0.433198	-0.395694
C122	C	0.659959	-0.183198	-0.145694
C123	C	0.909959	0.066802	0.104306
C124	C	1.159959	0.316802	0.354306
N125	N	0.519348	-0.393975	-0.359960
N126	N	0.769348	-0.143975	-0.109960
N127	N	1.019348	0.106025	0.140040
N128	N	1.269348	0.356025	0.390040
N129	N	0.484970	-0.436497	-0.398700
N130	N	0.734970	-0.186497	-0.148700
N131	N	0.984970	0.063503	0.101300
N132	N	1.234970	0.313503	0.351300
C133	C	1.001887	-0.989036	-0.379340
C134	C	1.251887	-0.739036	-0.129340
C135	C	1.501887	-0.489036	0.120660
C136	C	1.751887	-0.239036	0.370660
C137	C	0.945531	-0.957547	-0.431600
C138	C	1.195531	-0.707547	-0.181600
C139	C	1.445531	-0.457547	0.068400
C140	C	1.695531	-0.207547	0.318400
C141	C	0.945280	-0.871910	-0.431419
C142	C	1.195280	-0.621910	-0.181419
C143	C	1.445280	-0.371910	0.068581
C144	C	1.695280	-0.121910	0.318581
C145	C	1.001811	-0.840650	-0.379319
C146	C	1.251811	-0.590650	-0.129319
C147	C	1.501811	-0.340650	0.120681
C148	C	1.751811	-0.090650	0.370681
C149	C	0.984741	-0.867911	-0.304458
C150	C	1.234741	-0.617911	-0.054458
C151	C	1.484741	-0.367911	0.195542
C152	C	1.734741	-0.117911	0.445542
C153	C	0.984379	-0.953554	-0.304770
C154	C	1.234379	-0.703554	-0.054770
C155	C	1.484379	-0.453554	0.195230
C156	C	1.734379	-0.203554	0.445230
C157	C	1.075459	-0.961424	-0.401293
C158	C	1.325459	-0.711424	-0.151293
C159	C	1.575459	-0.461424	0.098707
C160	C	1.825459	-0.211424	0.348707
C161	C	1.074956	-0.875820	-0.402900
C162	C	1.324956	-0.625820	-0.152900
C163	C	1.574956	-0.375820	0.097100
C164	C	1.824956	-0.125820	0.347100
C165	C	1.001770	-0.756788	-0.379302
C166	C	1.251770	-0.506788	-0.129302
C167	C	1.501770	-0.256788	0.120698
C168	C	1.751770	-0.006788	0.370698
C169	C	1.001927	-1.072898	-0.379351
C170	C	1.251927	-0.822898	-0.129351
C171	C	1.501927	-0.572898	0.120649
C172	C	1.751927	-0.322898	0.370649
C173	C	1.185084	-0.423303	-0.386679
C174	C	1.435084	-0.173303	-0.136679
C175	C	1.685084	0.076697	0.113321
C176	C	1.935084	0.326697	0.363321
C177	C	1.263188	-0.426749	-0.389822
C178	C	1.513188	-0.176749	-0.139822
C179	C	1.763188	0.073251	0.110178
C180	C	2.013188	0.323251	0.360178
C181	C	0.994474	-0.422606	-0.562585
C182	C	1.244474	-0.172606	-0.312585
C183	C	1.494474	0.077394	-0.062585
C184	C	1.744474	0.327394	0.187415
C185	C	0.991350	-0.425755	-0.640688
C186	C	1.241350	-0.175755	-0.390688
C187	C	1.491350	0.074245	-0.140688
C188	C	1.741350	0.324245	0.109312
C189	C	1.001916	-0.222060	-0.379345
C190	C	1.251916	0.027940	-0.129345
C191	C	1.501916	0.277940	0.120655
C192	C	1.751916	0.527940	0.370655
C193	C	1.001964	-0.139749	-0.379363
C194	C	1.251964	0.110251	-0.129363
C195	C	1.501964	0.360251	0.120637
C196	C	1.751964	0.610251	0.370637
C197	C	1.034846	-0.381860	-0.679200
C198	C	1.284846	-0.131860	-0.429200
C199	C	1.534846	0.118140	-0.179200
C200	C	1.784846	0.368140	0.070800
C201	C	1.031902	-0.384816	-0.752586
C202	C	1.281902	-0.134816	-0.502586
C203	C	1.531902	0.115184	-0.252586
C204	C	1.781902	0.365184	-0.002586
C205	C	0.985466	-0.431671	-0.787458
C206	C	1.235466	-0.181671	-0.537458
C207	C	1.485466	0.068329	-0.287458
C208	C	1.735466	0.318329	-0.037458
C209	C	0.941966	-0.475568	-0.748941
C210	C	1.191966	-0.225568	-0.498941
C211	C	1.441966	0.024432	-0.248941
C212	C	1.691966	0.274432	0.001059
C213	C	0.944906	-0.472608	-0.675556
C214	C	1.194906	-0.222608	-0.425556
C215	C	1.444906	0.027392	-0.175556
C216	C	1.694906	0.277392	0.074444
C217	C	0.971847	-0.445387	-1.006740
C218	C	1.221847	-0.195387	-0.756740
C219	C	1.471847	0.054613	-0.506740
C220	C	1.721847	0.304613	-0.256740
C221	C	0.968911	-0.448346	-1.080130
C222	C	1.218911	-0.198346	-0.830130
C223	C	1.468911	0.051654	-0.580130
C224	C	1.718911	0.301654	-0.330130
C225	C	1.058847	-0.357593	-1.083770
C226	C	1.308847	-0.107593	-0.833770
C227	C	1.558847	0.142407	-0.583770
C228	C	1.808847	0.392407	-0.333770
C229	C	1.061786	-0.354640	-1.010384
C230	C	1.311786	-0.104640	-0.760384
C231	C	1.561786	0.145360	-0.510384
C232	C	1.811786	0.395360	-0.260384
C233	C	1.018283	-0.398533	-0.971872
C234	C	1.268283	-0.148533	-0.721872
C235	C	1.518283	0.101467	-0.471872
C236	C	1.768283	0.351467	-0.221872
N237	N	0.982458	-0.434696	-0.862471
N238	N	1.232458	-0.184696	-0.612471
N239	N	1.482458	0.065304	-0.362471
N240	N	1.732458	0.315304	-0.112471
N241	N	1.021289	-0.395505	-0.896861
N242	N	1.271289	-0.145505	-0.646861
N243	N	1.521289	0.104495	-0.396861
N244	N	1.771289	0.354495	-0.146861
C245	C	1.009146	-0.407803	-0.196739
C246	C	1.259146	-0.157803	0.053261
C247	C	1.509146	0.092197	0.303261
C248	C	1.759146	0.342197	0.553261
C249	C	1.012406	-0.404451	-0.118642
C250	C	1.262406	-0.154451	0.131358
C251	C	1.512406	0.095549	0.381358
C252	C	1.762406	0.345549	0.631358
H253	H	0.731037	-0.492778	-0.449944
H254	H	0.981037	-0.242778	-0.199944
H255	H	1.231037	0.007222	0.050056
H256	H	1.481037	0.257222	0.300056
H257	H	0.399864	-0.522250	-0.476804
H258	H	0.649864	-0.272250	-0.226804
H259	H	0.899864	-0.022250	0.023196
H260	H	1.149864	0.227750	0.273196
H261	H	1.118927	-0.854786	-0.367848
H262	H	1.368927	-0.604786	-0.117848
H263	H	1.618927	-0.354786	0.132152
H264	H	1.868927	-0.104786	0.382152
H265	H	1.024629	-0.847532	-0.264328
H266	H	1.274629	-0.597532	-0.014328
H267	H	1.524629	-0.347532	0.235672
H268	H	1.774629	-0.097532	0.485672
H269	H	1.091602	-0.985932	-0.455108
H270	H	1.341602	-0.735932	-0.205108
H271	H	1.591602	-0.485932	0.044892
H272	H	1.841602	-0.235932	0.294892
Br273	Br	0.885870	-0.532177	-0.623288
Br274	Br	1.135870	-0.282177	-0.373288
Br275	Br	1.385870	-0.032177	-0.123288
Br276	Br	1.635870	0.217823	0.126712
Br277	Br	1.096505	-0.846682	-0.494751
Br278	Br	1.346505	-0.596682	-0.244751
Br279	Br	1.596505	-0.346682	0.005249
Br280	Br	1.846505	-0.096682	0.255249
Br281	Br	0.896229	-0.827220	-0.273595
Br282	Br	1.146229	-0.577220	-0.023595
Br283	Br	1.396229	-0.327220	0.226405
Br284	Br	1.646229	-0.077220	0.476405
Br285	Br	0.905884	-0.511936	-1.127456
Br286	Br	1.155884	-0.261936	-0.877456
Br287	Br	1.405884	-0.011936	-0.627456
Br288	Br	1.655884	0.238064	-0.377456
Br289	Br	1.050087	-0.988020	-0.237387
Br290	Br	1.300087	-0.738020	0.012613
Br291	Br	1.550087	-0.488020	0.262613
Br292	Br	1.800087	-0.238020	0.512613
Br293	Br	1.145383	-0.995469	-0.337926
Br294	Br	1.395383	-0.745469	-0.087926
Br295	Br	1.645383	-0.495469	0.162074
Br296	Br	1.895383	-0.245469	0.412074
H297	H	0.604451	-0.308230	-0.281854
H298	H	0.854451	-0.058230	-0.031854
H299	H	1.104451	0.191770	0.218146
H300	H	1.354451	0.441770	0.468146
H301	H	0.737591	-0.314080	-0.287181
H302	H	0.987591	-0.064080	-0.037181
H303	H	1.237591	0.185920	0.212819
H304	H	1.487591	0.435920	0.462819
H305	H	1.099601	-0.316487	-0.981996
H306	H	1.349601	-0.066487	-0.731996
H307	H	1.599601	0.183513	-0.481996
H308	H	1.849601	0.433513	-0.231996
Br309	Br	0.577006	-0.512774	-0.468178
Br310	Br	0.827006	-0.262774	-0.218178
Br311	Br	1.077006	-0.012774	0.031822
Br312	Br	1.327006	0.237226	0.281822
Br313	Br	0.878940	-0.539153	-0.796267
Br314	Br	1.128940	-0.289153	-0.546267
Br315	Br	1.378940	-0.039153	-0.296267
Br316	Br	1.628940	0.210847	-0.046267
Br317	Br	1.097875	-0.318274	-0.631881
Br318	Br	1.347875	-0.068274	-0.381881
Br319	Br	1.597875	0.181726	-0.131881
Br320	Br	1.847875	0.431726	0.118119
H321	H	0.266725	-0.516393	-0.471476
H322	H	0.516725	-0.266393	-0.221476
H323	H	0.766725	-0.016393	0.028524
H324	H	1.016725	0.233607	0.278524
Br325	Br	0.962504	-0.841435	-0.523782
Br326	Br	1.212504	-0.591435	-0.273782
Br327	Br	1.462504	-0.341435	-0.023782
Br328	Br	1.712504	-0.091435	0.226218
H329	H	0.936434	-0.481139	-0.975393
H330	H	1.186434	-0.231139	-0.725393
H331	H	1.436434	0.018861	-0.475393
H332	H	1.686434	0.268861	-0.225393
H333	H	1.094263	-0.321856	-1.115133
H334	H	1.344263	-0.071856	-0.865133
H335	H	1.594263	0.178144	-0.615133
H336	H	1.844263	0.428144	-0.365133
Br337	Br	0.427310	-0.317687	-0.290489
Br338	Br	0.677310	-0.067687	-0.040489
Br339	Br	0.927310	0.182313	0.209511
Br340	Br	1.177310	0.432313	0.459511
Br341	Br	0.962531	-0.996435	-0.524254
Br342	Br	1.212531	-0.746435	-0.274254
Br343	Br	1.462531	-0.496435	-0.024254
Br344	Br	1.712531	-0.246435	0.225746
Br345	Br	0.254336	-0.310103	-0.283550
Br346	Br	0.504336	-0.060103	-0.033550
Br347	Br	0.754336	0.189897	0.216450
Br348	Br	1.004336	0.439897	0.466450
Br349	Br	1.090967	-0.325278	-0.804852
Br350	Br	1.340967	-0.075278	-0.554852
Br351	Br	1.590967	0.174722	-0.304852
Br352	Br	1.840967	0.424722	-0.054852
H353	H	0.890687	-0.848550	-0.416642
H354	H	1.140687	-0.598550	-0.166642
H355	H	1.390687	-0.348550	0.083358
H356	H	1.640687	-0.098550	0.333358
H357	H	0.891266	-0.976217	-0.416994
H358	H	1.141266	-0.726217	-0.166994
H359	H	1.391266	-0.476217	0.083006
H360	H	1.641266	-0.226217	0.333006
H361	H	0.930687	-0.970551	-0.286519
H362	H	1.180687	-0.720551	-0.036519
H363	H	1.430687	-0.470551	0.213481
H364	H	1.680687	-0.220551	0.463481
