data_functionalizedCrystal
_audit_creation_method	'MofGen! by Chris Wilmer'
_symmetry_space_group_name_H-M	'P1'
_symmetry_Int_Tables_number	1
_symmetry_cell_setting	triclinic
loop_
_symmetry_equiv_pos_as_xyz
  x,y,z
_cell_length_a	8.559649
_cell_length_b	8.597304
_cell_length_c	17.766277
_cell_angle_alpha	82.293845
_cell_angle_beta	89.990778
_cell_angle_gamma	77.624695
loop_
_atom_site_label
_atom_site_type_symbol
_atom_site_fract_x
_atom_site_fract_y
_atom_site_fract_z
O1	O	2.119308	-0.053142	-0.059136
O2	O	1.655369	0.027759	-0.064386
O3	O	1.896465	-0.242259	-0.046871
O4	O	1.878212	0.216877	-0.076650
O5	O	1.896422	-0.242266	0.078318
O6	O	1.655326	0.027752	0.060803
O7	O	2.119265	-0.053149	0.066053
Cu8	Cu	1.887291	-0.012699	0.074859
Cu9	Cu	1.887342	-0.012691	-0.073192
O10	O	1.878169	0.216869	0.048539
C11	C	1.595914	0.033886	-0.002189
C12	C	1.418819	0.052135	-0.003374
C13	C	1.894481	-0.300498	0.019499
C14	C	1.888616	-0.474019	0.030748
C15	C	2.178720	-0.059276	0.003855
C16	C	2.355815	-0.077525	0.005035
C17	C	1.880152	0.275108	-0.017833
C18	C	1.886018	0.448629	-0.029087
N19	N	1.887267	-0.012707	0.178990
N20	N	1.887379	-0.012696	-0.177321
C21	C	1.994060	-0.132223	0.226129
C22	C	1.994069	-0.132232	0.304931
C23	C	1.887301	-0.012699	0.336590
C24	C	1.780487	0.106828	0.289441
C25	C	1.780470	0.106823	0.210641
C26	C	1.868636	0.132487	0.452011
C27	C	1.868664	0.132492	0.530810
C28	C	1.887344	-0.012685	0.579635
C29	C	1.906030	-0.157877	0.549653
C30	C	1.906013	-0.157882	0.470853
C31	C	1.887307	-0.012682	0.422034
C32	C	1.994153	-0.132220	0.712222
C33	C	1.994151	-0.132229	0.791025
C34	C	1.780576	0.106843	0.775532
C35	C	1.780571	0.106840	0.696731
C36	C	1.887367	-0.012691	0.665080
H37	H	1.437358	-0.202495	0.013136
H38	H	1.337267	0.177113	-0.011484
H39	H	1.886333	-0.540546	0.090590
O40	O	1.889027	-0.463274	-0.108355
H41	H	1.893336	-0.336243	-0.105054
O42	O	2.109273	-0.261194	0.678084
H43	H	2.091318	-0.241121	0.615370
H44	H	2.081016	-0.229555	0.200362
O45	O	2.109340	-0.261152	0.841870
H46	H	2.091399	-0.241085	0.901983
H47	H	2.081036	-0.229560	0.343319
H48	H	1.921223	-0.276101	0.446446
H49	H	1.921240	-0.276094	0.589406
H50	H	1.693637	0.204164	0.801308
H51	H	1.693616	0.204166	0.658347
H52	H	1.853459	0.250714	0.555214
H53	H	1.853396	0.250718	0.412262
H54	H	1.693552	0.204151	0.315221
H55	H	1.693505	0.204149	0.172258
