data_functionalizedCrystal
_audit_creation_method	'MofGen! by Chris Wilmer'
_symmetry_space_group_name_H-M	'P1'
_symmetry_Int_Tables_number	1
_symmetry_cell_setting	triclinic
loop_
_symmetry_equiv_pos_as_xyz
  x,y,z
_cell_length_a	19.188930
_cell_length_b	19.188930
_cell_length_c	17.666332
_cell_angle_alpha	90.011603
_cell_angle_beta	90.023234
_cell_angle_gamma	83.144779
loop_
_atom_site_label
_atom_site_type_symbol
_atom_site_fract_x
_atom_site_fract_y
_atom_site_fract_z
O1	O	-0.926150	-0.087169	-0.063200
O2	O	-0.722838	-0.098903	-0.063149
O3	O	-0.830361	0.008620	-0.063161
O4	O	-0.818627	-0.194692	-0.063188
O5	O	-0.830342	0.008625	0.062735
O6	O	-0.722820	-0.098897	0.062747
O7	O	-0.926131	-0.087163	0.062697
Cu8	Cu	-0.824473	-0.093030	0.074217
Cu9	Cu	-0.824496	-0.093036	-0.074670
O10	O	-0.818608	-0.194686	0.062709
C11	C	-0.829972	0.034634	-0.000211
C12	C	-0.828831	0.112138	-0.000204
C13	C	-0.696818	-0.098520	-0.000194
C14	C	-0.619313	-0.097380	-0.000174
C15	C	-0.952151	-0.087546	-0.000260
C16	C	-1.029656	-0.088687	-0.000285
C17	C	-0.574389	-0.160470	-0.000194
C18	C	-0.501566	-0.159399	-0.000203
C19	C	-0.473669	-0.095233	-0.000206
C20	C	-0.518603	-0.032133	-0.000181
C21	C	-0.591425	-0.033207	-0.000166
N22	N	-0.365695	-0.046188	-0.043078
N23	N	-0.296517	-0.045172	-0.043095
C24	C	-0.254260	-0.091994	-0.000252
N25	N	-0.283795	-0.139881	0.042599
N26	N	-0.352979	-0.140899	0.042612
C27	C	-0.394707	-0.094062	-0.000222
C28	C	-0.130372	-0.153928	-0.000280
C29	C	-0.057547	-0.152853	-0.000283
C30	C	-0.074586	-0.025586	-0.000270
C31	C	-0.147409	-0.026662	-0.000258
C32	C	-0.175298	-0.090835	-0.000267
C33	C	-0.818997	-0.220700	-0.000244
C34	C	-0.820138	-0.298204	-0.000255
N35	N	-0.824463	-0.093025	0.178937
C36	C	-0.891922	0.157062	-0.000216
C37	C	-0.890850	0.229886	-0.000228
C38	C	-0.826684	0.257782	-0.000212
C39	C	-0.763585	0.212849	-0.000205
C40	C	-0.764658	0.140026	-0.000200
N41	N	-0.777630	0.365789	0.042645
N42	N	-0.776615	0.434968	0.042642
C43	C	-0.823446	0.477191	-0.000227
N44	N	-0.871341	0.447624	-0.043084
N45	N	-0.872359	0.378439	-0.043079
C46	C	-0.825513	0.336745	-0.000218
C47	C	-0.885379	0.601079	-0.000253
C48	C	-0.884305	0.673904	-0.000270
C49	C	-0.757038	0.656865	-0.000239
C50	C	-0.758114	0.584042	-0.000230
C51	C	-0.822287	0.556154	-0.000233
N52	N	-0.824512	-0.093036	-0.179390
C53	C	-0.872089	-0.045437	0.218541
C54	C	-0.872093	-0.045433	0.297789
C55	C	-0.824478	-0.093030	0.337429
C56	C	-0.776842	-0.140621	0.297815
C57	C	-0.776835	-0.140619	0.218569
N58	N	-0.815401	-0.154837	0.461841
N59	N	-0.815413	-0.154837	0.537121
C60	C	-0.824496	-0.093040	0.576193
N61	N	-0.833582	-0.031239	0.537140
N62	N	-0.833574	-0.031240	0.461853
C63	C	-0.824480	-0.093038	0.423358
C64	C	-0.872130	-0.045444	0.701727
C65	C	-0.872129	-0.045440	0.780976
C66	C	-0.776881	-0.140634	0.781000
C67	C	-0.776878	-0.140632	0.701753
C68	C	-0.824506	-0.093038	0.662121
H69	H	-0.597091	-0.212725	-0.000203
H70	H	-0.153080	-0.206181	-0.000276
H71	H	-0.706738	0.547464	-0.000216
C72	C	-0.959277	0.278788	-0.000272
C73	C	-0.944600	0.348531	-0.000291
C74	C	-1.007617	0.393597	-0.000340
H75	H	-0.985637	0.270453	0.043617
H76	H	-0.985617	0.270390	-0.044195
H77	H	-0.918271	0.356926	0.043627
H78	H	-0.918250	0.356888	-0.044177
H79	H	-1.033956	0.385198	-0.044262
H80	H	-1.033971	0.385255	0.043550
H81	H	-0.997667	0.440922	-0.000359
H82	H	-0.051874	0.026659	-0.000319
C83	C	-0.923752	0.006321	0.658701
C84	C	-0.912656	0.074920	0.677948
C85	C	-0.960190	0.122613	0.638310
H86	H	-0.970356	-0.001058	0.671621
H87	H	-0.916908	-0.000474	0.605831
H88	H	-0.919505	0.081712	0.730807
H89	H	-0.866061	0.082321	0.665026
H90	H	-0.953347	0.115818	0.585439
H91	H	-1.006791	0.115228	0.651233
H92	H	-0.952664	0.169163	0.651358
H93	H	-0.910878	-0.006680	0.330041
H94	H	-0.910910	-0.006684	0.813222
C95	C	-0.687348	0.687103	-0.000379
C96	C	-0.649239	0.664247	-0.065150
C97	C	-0.585040	0.692098	-0.065314
H98	H	-0.661288	0.671698	0.043479
H99	H	-0.695713	0.736911	-0.000427
H100	H	-0.640872	0.614450	-0.065096
H101	H	-0.675279	0.679651	-0.109019
H102	H	-0.593405	0.741905	-0.065361
H103	H	-0.558986	0.676690	-0.021453
H104	H	-0.559178	0.676600	-0.109263
H105	H	-0.738072	-0.179374	0.330094
C106	C	-0.961665	0.126919	-0.000264
C107	C	-1.016688	0.181855	-0.000296
C108	C	-1.080944	0.154113	-0.000351
H109	H	-0.964821	0.098885	0.043628
H110	H	-0.964776	0.098877	-0.044184
H111	H	-1.013578	0.209886	0.043619
H112	H	-1.013555	0.209894	-0.044185
H113	H	-1.084056	0.126071	-0.044271
H114	H	-1.084093	0.126079	0.043541
H115	H	-1.118285	0.191382	-0.000380
H116	H	-0.738051	-0.179371	0.186322
C117	C	-0.725069	-0.192231	0.823988
C118	C	-0.656498	-0.181064	0.804764
C119	C	-0.608747	-0.228575	0.844359
H120	H	-0.732411	-0.238842	0.811017
H121	H	-0.731845	-0.185415	0.876864
H122	H	-0.649725	-0.187886	0.751899
H123	H	-0.649134	-0.134463	0.817736
H124	H	-0.615523	-0.221759	0.897236
H125	H	-0.616095	-0.275183	0.831385
H126	H	-0.562216	-0.221001	0.831327
H127	H	-0.711340	0.235567	-0.000194
C128	C	-0.696081	0.091363	-0.000144
C129	C	-0.639654	0.131376	-0.000117
C130	C	-0.576470	0.086570	-0.000053
H131	H	-0.693762	0.062572	-0.044030
H132	H	-0.693809	0.062623	0.043781
H133	H	-0.641924	0.160103	-0.044038
H134	H	-0.641949	0.160164	0.043766
H135	H	-0.574199	0.057830	0.043872
H136	H	-0.574159	0.057781	-0.043941
H137	H	-0.538177	0.113711	-0.000028
H138	H	-0.937632	0.578372	-0.000259
C139	C	-0.923711	0.006463	0.175689
C140	C	-0.912469	0.074973	0.195143
C141	C	-0.960001	0.122852	0.155735
H142	H	-0.970314	-0.000877	0.188657
H143	H	-0.916966	-0.000184	0.122786
H144	H	-0.919220	0.081618	0.248034
H145	H	-0.865875	0.082335	0.182173
H146	H	-0.953256	0.116204	0.102832
H147	H	-1.006601	0.115505	0.168706
H148	H	-0.952376	0.169341	0.168923
C149	C	-0.452895	-0.227976	-0.000271
C150	C	-0.492906	-0.284404	-0.000294
C151	C	-0.448097	-0.347587	-0.000370
H152	H	-0.424089	-0.230306	0.043611
H153	H	-0.424172	-0.230233	-0.044201
H154	H	-0.521617	-0.282148	0.043632
H155	H	-0.521710	-0.282098	-0.044172
H156	H	-0.419374	-0.349845	-0.044300
H157	H	-0.419293	-0.349910	0.043512
H158	H	-0.475238	-0.385881	-0.000393
C159	C	-0.488183	0.037462	-0.000225
C160	C	-0.414793	0.024900	-0.000266
C161	C	-0.386748	0.088996	-0.000313
H162	H	-0.503514	0.063487	0.043672
H163	H	-0.503604	0.063436	-0.044140
H164	H	-0.399378	-0.001063	0.043644
H165	H	-0.399442	-0.001114	-0.044160
H166	H	-0.402169	0.114970	-0.044228
H167	H	-0.402084	0.115016	0.043585
H168	H	-0.336950	0.080481	-0.000348
C169	C	-0.008885	-0.221432	-0.000342
C170	C	-0.048899	-0.277857	-0.000366
C171	C	-0.004095	-0.341042	-0.000430
H172	H	0.019915	-0.223760	0.043545
H173	H	0.019845	-0.223695	-0.044267
H174	H	-0.077617	-0.275595	0.043555
H175	H	-0.077698	-0.275552	-0.044249
H176	H	0.024635	-0.343305	-0.044356
H177	H	0.024703	-0.343363	0.043457
H178	H	-0.031238	-0.379334	-0.000454
C179	C	-0.725254	-0.192421	0.658791
C180	C	-0.736380	-0.261003	0.678031
C181	C	-0.688840	-0.308731	0.638463
H182	H	-0.678653	-0.185049	0.671773
H183	H	-0.732071	-0.185652	0.605910
H184	H	-0.729558	-0.267769	0.730900
H185	H	-0.782972	-0.268397	0.665047
H186	H	-0.695657	-0.301962	0.585583
H187	H	-0.642241	-0.301353	0.651448
H188	H	-0.696386	-0.355269	0.651507
H189	H	-0.935683	0.710481	-0.000284
C190	C	-0.196073	0.041913	-0.000284
C191	C	-0.156059	0.098339	-0.000308
C192	C	-0.200864	0.161524	-0.000340
H193	H	-0.224828	0.044242	0.043613
H194	H	-0.224849	0.044175	-0.044199
H195	H	-0.127295	0.096078	0.043602
H196	H	-0.127306	0.096033	-0.044202
H197	H	-0.229639	0.163786	-0.044254
H198	H	-0.229616	0.163845	0.043558
H199	H	-0.173721	0.199816	-0.000363
H200	H	-0.628003	0.018171	-0.000150
