data_functionalizedCrystal
_audit_creation_method	'MofGen! by Chris Wilmer'
_symmetry_space_group_name_H-M	'P1'
_symmetry_Int_Tables_number	1
_symmetry_cell_setting	triclinic
loop_
_symmetry_equiv_pos_as_xyz
  x,y,z
_cell_length_a	14.853559
_cell_length_b	14.853567
_cell_length_c	13.330367
_cell_angle_alpha	90.004582
_cell_angle_beta	90.002448
_cell_angle_gamma	83.633192
loop_
_atom_site_label
_atom_site_type_symbol
_atom_site_fract_x
_atom_site_fract_y
_atom_site_fract_z
O1	O	0.117704	1.196365	0.083349
O2	O	0.131725	0.933905	0.083366
O3	O	-0.006515	1.072150	0.083356
O4	O	0.255945	1.058121	0.083359
O5	O	-0.006519	1.072130	-0.083491
O6	O	0.131722	0.933885	-0.083481
O7	O	0.117701	1.196345	-0.083498
Cu8	Cu	0.124711	1.065113	-0.098724
Cu9	Cu	0.124715	1.065137	0.098592
O10	O	0.255942	1.058100	-0.083488
C11	C	0.131089	0.900307	-0.000055
C12	C	0.129185	0.800223	-0.000049
C13	C	-0.040106	1.071506	-0.000066
C14	C	-0.140190	1.069605	-0.000060
C15	C	0.039019	0.387692	-0.000072
C16	C	0.203252	0.366406	-0.000070
C17	C	0.205042	0.460440	-0.000066
C18	C	0.123819	0.518104	-0.000065
C19	C	0.040806	0.481735	-0.000066
C20	C	0.288054	0.496816	-0.000055
C21	C	0.289847	0.590855	-0.000050
C22	C	0.208623	0.648521	-0.000056
C23	C	0.125607	0.612147	-0.000058
C24	C	0.044384	0.669811	-0.000057
C25	C	-0.038633	0.633438	-0.000067
C26	C	-0.040418	0.539401	-0.000072
C27	C	0.210408	0.742559	-0.000051
C28	C	0.046172	0.763854	-0.000050
C29	C	-0.563363	1.061552	0.090889
C30	C	-0.563361	1.061530	-0.091014
C31	C	-0.469328	1.063323	-0.091015
C32	C	-0.422308	1.064230	-0.000062
C33	C	-0.469321	1.063343	0.090891
C34	C	-0.422307	1.064201	-0.181967
C35	C	-0.328268	1.065994	-0.181971
C36	C	-0.281247	1.066907	-0.091018
C37	C	-0.328266	1.066021	-0.000061
C38	C	-0.281245	1.066927	0.090892
C39	C	-0.328264	1.066047	0.181850
C40	C	-0.422300	1.064256	0.181845
C41	C	-0.187210	1.068698	-0.091012
C42	C	-0.187203	1.068718	0.090894
C43	C	0.289532	1.058745	-0.000064
C44	C	0.389616	1.060646	-0.000063
C45	C	0.118338	1.229944	-0.000074
C46	C	0.120242	1.330027	-0.000074
N47	N	0.124708	1.065103	-0.237505
C48	C	0.185904	1.003920	-0.710124
C49	C	0.063519	1.126379	-0.710101
C50	C	0.063516	1.126369	-0.605082
C51	C	0.124709	1.065134	-0.552580
C52	C	0.185905	1.003909	-0.605096
C53	C	0.002328	1.187598	-0.552559
C54	C	0.002323	1.187591	-0.447534
C55	C	0.063513	1.126351	-0.395029
C56	C	0.124710	1.065124	-0.447552
C57	C	0.185903	1.003889	-0.395050
C58	C	0.247097	0.942656	-0.447570
C59	C	0.247094	0.942670	-0.552592
C60	C	0.063515	1.126338	-0.290008
C61	C	0.185904	1.003879	-0.290021
N62	N	0.124711	1.065154	0.237374
H63	H	-0.019971	0.810799	-0.000053
H64	H	0.013696	1.176197	-0.247250
H65	H	0.269380	0.319450	-0.000063
Cl66	Cl	0.390155	0.424321	-0.000040
H67	H	-0.601650	1.060786	-0.165063
H68	H	0.296925	0.892802	-0.404811
H69	H	0.357445	0.620461	-0.000042
Cl70	Cl	-0.140737	0.705941	-0.000057
Cl71	Cl	-0.622470	1.060456	0.205231
H72	H	-0.108006	0.509777	-0.000103
Cl73	Cl	-0.065340	0.341969	-0.000090
Cl74	Cl	-0.481419	1.063041	-0.296299
Cl75	Cl	-0.269142	1.067190	0.296186
Cl76	Cl	-0.074607	1.264563	-0.381515
Cl77	Cl	-0.269167	1.067096	-0.296316
Cl78	Cl	0.314763	0.788281	-0.000031
Cl79	Cl	-0.128100	1.069864	0.205241
H80	H	-0.460590	1.063539	0.255898
H81	H	0.235732	0.954011	-0.247280
Cl82	Cl	0.324021	0.865701	-0.618619
Cl83	Cl	-0.128106	1.069802	-0.205350
Cl84	Cl	-0.074592	1.264582	-0.618559
Cl85	Cl	-0.013401	1.203362	-0.776101
Cl86	Cl	0.262827	0.926941	-0.776144
