data_functionalizedCrystal
_audit_creation_method	'MofGen! by Chris Wilmer'
_symmetry_space_group_name_H-M	'P1'
_symmetry_Int_Tables_number	1
_symmetry_cell_setting	triclinic
loop_
_symmetry_equiv_pos_as_xyz
  x,y,z
_cell_length_a	16.625548
_cell_length_b	18.050589
_cell_length_c	16.625539
_cell_angle_alpha	89.975176
_cell_angle_beta	89.979432
_cell_angle_gamma	90.029289
loop_
_atom_site_label
_atom_site_type_symbol
_atom_site_fract_x
_atom_site_fract_y
_atom_site_fract_z
Zn1	Zn	1.232648	-0.295637	-0.455929
Zn2	Zn	1.732648	0.204363	0.044071
Zn3	Zn	1.232538	-0.419835	-0.321104
Zn4	Zn	1.732538	0.080165	0.178896
Zn5	Zn	1.097810	-0.295665	-0.321109
Zn6	Zn	1.597810	0.204335	0.178891
Zn7	Zn	1.097767	-0.419792	-0.455894
Zn8	Zn	1.597767	0.080208	0.044106
O9	O	1.165191	-0.357732	-0.388509
O10	O	1.665191	0.142268	0.111491
O11	O	1.345466	-0.312118	-0.438056
O12	O	1.845466	0.187882	0.061944
O13	O	1.214638	-0.403393	-0.208272
O14	O	1.714638	0.096607	0.291728
O15	O	1.115761	-0.191737	-0.339010
O16	O	1.615761	0.308263	0.160990
O17	O	1.345385	-0.403366	-0.339001
O18	O	1.845385	0.096634	0.160999
O19	O	1.214826	-0.191716	-0.438061
O20	O	1.714826	0.308284	0.061939
O21	O	1.115654	-0.312166	-0.208276
O22	O	1.615654	0.187834	0.291724
O23	O	0.984972	-0.312125	-0.338976
O24	O	1.484972	0.187875	0.161024
O25	O	1.115687	-0.403293	-0.568731
O26	O	1.615687	0.096707	-0.068731
O27	O	0.984940	-0.403320	-0.438002
O28	O	1.484940	0.096680	0.061998
O29	O	1.214784	-0.312077	-0.568757
O30	O	1.714784	0.187923	-0.068757
O31	O	1.214596	-0.523754	-0.338968
O32	O	1.714596	-0.023754	0.161032
O33	O	1.115580	-0.523722	-0.437997
O34	O	1.615580	-0.023722	0.062003
C35	C	0.955700	-0.357722	-0.388487
C36	C	1.455700	0.142278	0.111513
C37	C	0.866079	-0.357735	-0.388496
C38	C	1.366079	0.142265	0.111504
C39	C	1.165093	-0.550684	-0.388496
C40	C	1.665093	-0.050684	0.111504
C41	C	1.165126	-0.633230	-0.388517
C42	C	1.665126	-0.133230	0.111483
C43	C	0.537903	-0.357740	-0.388531
C44	C	1.037903	0.142260	0.111469
C45	C	0.629212	-0.357736	-0.388518
C46	C	1.129212	0.142264	0.111482
C47	C	0.701988	-0.357738	-0.388513
C48	C	1.201988	0.142262	0.111487
C49	C	0.793302	-0.357734	-0.388502
C50	C	1.293302	0.142266	0.111498
C51	C	1.111334	-0.832691	-0.442350
C52	C	1.611334	-0.332691	0.057650
C53	C	1.091677	-0.882133	-0.368775
C54	C	1.591677	-0.382133	0.131225
C55	C	1.165205	-0.784360	-0.388528
C56	C	1.665205	-0.284360	0.111472
C57	C	1.184901	-0.882000	-0.462112
C58	C	1.684901	-0.382000	0.037888
C59	C	1.165280	-0.930346	-0.388544
C60	C	1.665280	-0.430346	0.111456
C61	C	1.145510	-0.832715	-0.314913
C62	C	1.645510	-0.332715	0.185087
C63	C	1.238767	-0.832578	-0.408300
C64	C	1.738767	-0.332578	0.091700
C65	C	1.219139	-0.881998	-0.334673
C66	C	1.719139	-0.381998	0.165327
C67	C	1.165160	-0.700262	-0.388519
C68	C	1.665160	-0.200262	0.111481
C69	C	1.165325	-1.014442	-0.388544
C70	C	1.665325	-0.514442	0.111456
C71	C	1.375500	-0.357743	-0.388532
C72	C	1.875500	0.142257	0.111468
C73	C	1.465121	-0.357748	-0.388542
C74	C	1.965121	0.142252	0.111458
C75	C	1.165243	-0.357677	-0.598818
C76	C	1.665243	0.142323	-0.098818
C77	C	1.165266	-0.357653	-0.688439
C78	C	1.665266	0.142347	-0.188439
C79	C	1.165310	-0.164027	-0.388540
C80	C	1.665310	0.335973	0.111460
C81	C	1.165361	-0.081481	-0.388553
C82	C	1.665361	0.418519	0.111447
C83	C	1.165303	-0.357570	-1.016615
C84	C	1.665303	0.142430	-0.516615
C85	C	1.165290	-0.357596	-0.925307
C86	C	1.665290	0.142404	-0.425307
C87	C	1.165285	-0.357612	-0.852530
C88	C	1.665285	0.142388	-0.352530
C89	C	1.165271	-0.357637	-0.761216
C90	C	1.665271	0.142363	-0.261216
C91	C	1.165185	-0.357734	-0.179018
C92	C	1.665185	0.142266	0.320982
C93	C	1.165319	-0.357548	-0.089398
C94	C	1.665319	0.142452	0.410602
H95	H	1.065710	-0.811040	-0.487802
H96	H	1.565710	-0.311040	0.012198
H97	H	1.201530	-0.903649	-0.524335
H98	H	1.701530	-0.403649	-0.024335
H99	H	1.029503	-0.903916	-0.352066
H100	H	1.529503	-0.403916	0.147934
H101	H	1.128809	-0.811156	-0.252673
H102	H	1.628809	-0.311156	0.247327
C103	C	1.280725	-0.911069	-0.273122
C104	C	1.780725	-0.411069	0.226878
N105	N	1.327108	-0.932967	-0.226760
N106	N	1.827108	-0.432967	0.273240
H107	H	1.300928	-0.810797	-0.425043
H108	H	1.800928	-0.310797	0.074957
