data_functionalizedCrystal
_audit_creation_method	'MofGen! by Chris Wilmer'
_symmetry_space_group_name_H-M	'P1'
_symmetry_Int_Tables_number	1
_symmetry_cell_setting	triclinic
loop_
_symmetry_equiv_pos_as_xyz
  x,y,z
_cell_length_a	10.540539
_cell_length_b	10.723024
_cell_length_c	9.616153
_cell_angle_alpha	90.006580
_cell_angle_beta	89.999906
_cell_angle_gamma	95.503320
loop_
_atom_site_label
_atom_site_type_symbol
_atom_site_fract_x
_atom_site_fract_y
_atom_site_fract_z
O1	O	0.178044	-1.657282	-0.115629
O2	O	0.195086	-1.294138	-0.115634
O3	O	0.001854	-1.483995	-0.115630
O4	O	0.371276	-1.467425	-0.115633
O5	O	0.001858	-1.483968	0.115662
O6	O	0.195090	-1.294112	0.115658
O7	O	0.178048	-1.657256	0.115662
Zn8	Zn	0.186570	-1.475679	0.152382
Zn9	Zn	0.186564	-1.475714	-0.152354
O10	O	0.371280	-1.467399	0.115658
C11	C	-0.045446	-1.482739	0.000013
C12	C	-0.186392	-1.479021	0.000006
C13	C	0.193848	-1.247624	0.000012
C14	C	0.190137	-1.109068	0.000010
C15	C	0.179286	-1.703769	0.000014
C16	C	0.182997	-1.842325	0.000006
C17	C	-0.369746	-1.336563	-0.000515
C18	C	-0.223130	-1.340332	0.000006
C19	C	-0.248082	-1.545750	0.132085
C20	C	-0.394624	-1.541016	0.132197
C21	C	-0.395148	-1.543867	-0.130825
C22	C	-0.248167	-1.545144	-0.132571
C23	C	0.418580	-1.468654	0.000012
C24	C	0.559526	-1.472372	0.000010
N25	N	0.186573	-1.475665	0.360357
C26	C	0.298260	-1.034139	0.000008
C27	C	0.294427	-0.890934	0.000006
N28	N	0.186551	-1.475738	-0.360329
C29	C	0.289592	-1.373794	0.580725
C30	C	0.289978	-1.374018	0.419557
C31	C	0.216639	-1.606136	0.418807
C32	C	0.217368	-1.605581	0.580025
C33	C	0.053148	-1.448364	0.580269
C34	C	0.054014	-1.445369	0.419043
H35	H	-0.180501	-1.287826	-0.094674
H36	H	0.393665	-1.076009	0.000015
H37	H	-0.442644	-1.640759	0.138190
H38	H	-0.207285	-1.496320	-0.230280
H39	H	-0.225780	-1.647599	0.136997
H40	H	0.271789	-1.276548	0.619535
H41	H	0.024516	-1.355235	0.621006
H42	H	0.388953	-1.391614	0.380977
H43	H	0.312864	-1.630611	0.378416
H44	H	0.031223	-1.349388	0.380841
H45	H	0.271897	-1.277075	0.380041
H46	H	0.386988	-0.826548	-0.000001
H47	H	0.090430	-0.906704	-0.000001
H48	H	0.094732	-1.067199	-0.000025
H49	H	0.388007	-1.391161	0.621223
H50	H	-0.026342	-1.514699	0.378749
H51	H	0.314693	-1.629522	0.617613
H52	H	-0.023545	-1.522693	0.618387
H53	H	-0.398320	-1.281789	-0.095231
H54	H	0.145338	-1.683872	0.619015
H55	H	0.143636	-1.683849	0.380457
H56	H	-0.205457	-1.499375	0.230374
H57	H	-0.181345	-1.287436	0.094842
H58	H	-0.422796	-1.491679	0.230928
H59	H	-0.399924	-1.281990	0.093670
H60	H	-0.426680	-1.498991	-0.230933
H61	H	-0.223998	-1.646260	-0.140546
H62	H	-0.442426	-1.644042	-0.131712
