data_functionalizedCrystal
_audit_creation_method	'MofGen! by Chris Wilmer'
_symmetry_space_group_name_H-M	'P1'
_symmetry_Int_Tables_number	1
_symmetry_cell_setting	triclinic
loop_
_symmetry_equiv_pos_as_xyz
  x,y,z
_cell_length_a	14.044220
_cell_length_b	14.044190
_cell_length_c	13.101018
_cell_angle_alpha	86.339369
_cell_angle_beta	93.664297
_cell_angle_gamma	93.190328
loop_
_atom_site_label
_atom_site_type_symbol
_atom_site_fract_x
_atom_site_fract_y
_atom_site_fract_z
O1	O	1.281981	0.225353	0.085126
O2	O	1.781981	0.725353	0.585126
O3	O	1.005311	0.217046	0.085151
O4	O	1.505311	0.717046	0.585151
O5	O	1.139489	0.082864	0.085119
O6	O	1.639489	0.582864	0.585119
O7	O	1.147804	0.359534	0.085158
O8	O	1.647804	0.859534	0.585158
O9	O	1.129850	0.092500	-0.085309
O10	O	1.629850	0.592500	0.414691
O11	O	0.995673	0.226681	-0.085277
O12	O	1.495673	0.726681	0.414723
O13	O	1.272343	0.234988	-0.085302
O14	O	1.772343	0.734988	0.414698
Zn15	Zn	1.132478	0.232365	-0.112349
Zn16	Zn	1.632478	0.732365	0.387651
Zn17	Zn	1.145177	0.219669	0.112197
Zn18	Zn	1.645177	0.719669	0.612197
O19	O	1.138165	0.369170	-0.085270
O20	O	1.638165	0.869170	0.414730
C21	C	0.964870	0.218228	-0.000060
C22	C	1.464870	0.718228	0.499940
C23	C	0.858728	0.207382	-0.000051
C24	C	1.358728	0.707382	0.499949
C25	C	0.664388	0.187557	-0.000075
C26	C	1.164388	0.687557	0.499925
C27	C	0.613261	0.264472	-0.000068
C28	C	1.113261	0.764472	0.499932
C29	C	0.505123	0.253441	-0.000081
C30	C	1.005123	0.753441	0.499919
C31	C	0.772535	0.198587	-0.000062
C32	C	1.272535	0.698587	0.499938
C33	C	1.131033	0.052060	-0.000098
C34	C	1.631033	0.552060	0.499902
C35	C	1.120185	-0.054083	-0.000106
C36	C	1.620185	0.445917	0.499894
C37	C	1.177288	-0.299543	-0.000071
C38	C	1.677288	0.200457	0.499929
C39	C	1.100371	-0.248418	-0.000071
C40	C	1.600371	0.251582	0.499929
C41	C	1.111398	-0.140280	-0.000091
C42	C	1.611398	0.359720	0.499909
C43	C	1.166262	-0.407691	-0.000052
C44	C	1.666262	0.092309	0.499948
C45	C	1.312784	0.233806	-0.000089
C46	C	1.812784	0.733806	0.499911
C47	C	1.418927	0.244651	-0.000091
C48	C	1.918927	0.744651	0.499909
C49	C	1.146621	0.399974	-0.000051
C50	C	1.646621	0.899974	0.499949
C51	C	1.157470	0.506116	-0.000036
C52	C	1.657470	1.006116	0.499964
N53	N	1.123818	0.241029	-0.265596
N54	N	1.623818	0.741029	0.234404
C55	C	1.165620	0.199206	-0.525515
C56	C	1.665620	0.699206	-0.025515
C57	C	1.112044	0.252818	-0.474630
C58	C	1.612044	0.752818	0.025370
C59	C	1.118597	0.246257	-0.358312
C60	C	1.618597	0.746257	0.141688
C61	C	1.159069	0.205766	-0.641843
C62	C	1.659069	0.705766	-0.141843
N63	N	1.153843	0.210998	0.265444
N64	N	1.653843	0.710998	0.765444
H65	H	0.626948	0.113431	-0.000091
H66	H	1.126948	0.613431	0.499909
O67	O	1.011873	-0.292966	-0.000199
O68	O	1.511873	0.207034	0.499801
C69	C	0.856785	-0.311917	-0.088524
C70	C	1.356785	0.188083	0.411476
C71	C	0.956961	-0.261376	-0.088490
C72	C	1.456961	0.238624	0.411510
H73	H	0.812367	-0.286411	-0.159910
H74	H	1.312367	0.213589	0.340090
H75	H	0.820296	-0.294382	-0.017253
H76	H	1.320296	0.205618	0.482747
H77	H	0.863559	-0.392435	-0.088465
H78	H	1.363559	0.107565	0.411535
H79	H	0.950272	-0.180847	-0.088586
H80	H	1.450272	0.319153	0.411414
H81	H	0.993414	-0.278989	-0.159755
H82	H	1.493414	0.221011	0.340245
H83	H	0.650703	0.338605	-0.000052
H84	H	1.150703	0.838605	0.499948
H85	H	1.251413	-0.262101	-0.000088
H86	H	1.751413	0.237899	0.499912
O87	O	1.051535	0.313440	-0.527024
O88	O	1.551535	0.813440	-0.027024
C89	C	0.989689	0.375269	-0.692414
C90	C	1.489689	0.875269	-0.192414
C91	C	1.058264	0.306592	-0.633201
C92	C	1.558264	0.806592	-0.133201
H93	H	0.995091	0.369740	-0.778269
H94	H	1.495091	0.869740	-0.278269
H95	H	1.009812	0.451643	-0.671460
H96	H	1.509812	0.951643	-0.171460
H97	H	0.913338	0.355215	-0.671340
H98	H	1.413338	0.855215	-0.171340
H99	H	1.134636	0.326558	-0.654244
H100	H	1.634636	0.826558	-0.154244
H101	H	1.038059	0.230235	-0.654161
H102	H	1.538059	0.730235	-0.154161
O103	O	1.226213	0.138677	-0.473123
O104	O	1.726213	0.638677	0.026877
C105	C	1.288026	0.076834	-0.307724
C106	C	1.788026	0.576834	0.192276
C107	C	1.219369	0.145422	-0.366947
C108	C	1.719369	0.645422	0.133053
H109	H	1.282502	0.082250	-0.221871
H110	H	1.782502	0.582250	0.278129
H111	H	1.364405	0.096931	-0.328676
H112	H	1.864405	0.596931	0.171324
H113	H	1.267950	0.000485	-0.328794
H114	H	1.767950	0.500485	0.171206
H115	H	1.239358	0.221794	-0.345909
H116	H	1.739358	0.721794	0.154091
H117	H	1.143008	0.125243	-0.345990
H118	H	1.643008	0.625243	0.154010
