data_functionalizedCrystal
_audit_creation_method	'MofGen! by Chris Wilmer'
_symmetry_space_group_name_H-M	'P1'
_symmetry_Int_Tables_number	1
_symmetry_cell_setting	triclinic
loop_
_symmetry_equiv_pos_as_xyz
  x,y,z
_cell_length_a	6.817900
_cell_length_b	17.982959
_cell_length_c	10.943624
_cell_angle_alpha	94.170339
_cell_angle_beta	108.838799
_cell_angle_gamma	102.451857
loop_
_atom_site_label
_atom_site_type_symbol
_atom_site_fract_x
_atom_site_fract_y
_atom_site_fract_z
V1	V	-4.083161	-0.105393	-0.403090
O2	O	-4.074764	0.005085	-0.394862
O3	O	-4.029326	-0.208995	-0.400867
O4	O	-4.061624	-0.103762	-0.578648
O5	O	-4.042243	-0.100876	-0.215850
V6	V	-4.564012	-0.092179	-0.380630
O7	O	-4.350280	-0.134377	-0.452359
O8	O	-4.747091	-0.063195	-0.331362
O9	O	-4.394641	0.011424	-0.382853
O10	O	-4.689806	-0.202657	-0.388858
O11	O	-4.722327	-0.096695	-0.567870
O12	O	-4.362343	-0.093809	-0.205072
C13	C	-3.872136	-0.234252	-0.394646
C14	C	-3.909586	-0.318949	-0.393998
C15	C	-4.110085	-0.362619	-0.400154
C16	C	-4.145265	-0.442201	-0.399553
C17	C	-3.979938	-0.478110	-0.392787
C18	C	-3.779424	-0.434434	-0.386635
C19	C	-3.744252	-0.354854	-0.387245
C20	C	-3.921268	-0.755370	-0.384176
C21	C	-3.956456	-0.834955	-0.383562
C22	C	-4.322281	-0.842717	-0.396483
C23	C	-4.287109	-0.763137	-0.397093
C24	C	-4.086603	-0.719468	-0.390948
C25	C	-4.048460	-0.633177	-0.391602
C26	C	-4.018073	-0.564399	-0.392124
C27	C	-3.913333	-0.100016	-0.621422
C28	C	-3.976972	-0.099368	-0.764945
C29	C	-3.823139	-0.095009	-0.842070
C30	C	-3.992647	-0.159712	-0.948391
C31	C	-3.920881	-0.033519	-0.914359
C32	C	-4.145672	-0.164132	-0.869390
C33	C	-4.073843	-0.037882	-0.835334
C34	C	-4.243482	-0.102603	-0.941625
C35	C	-4.215172	0.036676	-0.389071
C36	C	-4.156962	0.121372	-0.389727
C37	C	-4.173975	-0.097559	-0.162292
C38	C	-4.089575	-0.098202	-0.018767
H39	H	-4.421735	-0.733904	-0.402596
H40	H	-4.485548	-0.878282	-0.401489
H41	H	-4.107423	0.013626	-0.786087
C42	C	-3.793337	0.041058	-0.941964
C43	C	-3.547154	0.059388	-0.896331
C44	C	-3.419595	0.133960	-0.923934
C45	C	-3.538218	0.190202	-0.997169
C46	C	-3.784415	0.171873	-1.042807
C47	C	-3.911974	0.097301	-1.015205
H48	H	-3.459329	0.017753	-0.842114
H49	H	-3.237343	0.147529	-0.890149
H50	H	-3.443791	0.245405	-1.017602
H51	H	-3.872240	0.213508	-1.097025
H52	H	-4.094226	0.083733	-1.048989
C53	C	-3.947184	-0.229290	-1.014889
C54	C	-3.716779	-0.238669	-0.976746
C55	C	-3.671299	-0.308243	-1.043237
C56	C	-3.856225	-0.368438	-1.147871
C57	C	-4.086646	-0.359061	-1.186019
C58	C	-4.132126	-0.289486	-1.119529
H59	H	-3.579872	-0.194107	-0.899285
H60	H	-3.500725	-0.315184	-1.014996
H61	H	-3.822558	-0.419941	-1.197091
H62	H	-4.223553	-0.403622	-1.263480
H63	H	-4.302700	-0.282545	-1.147769
H64	H	-3.821819	-0.864190	-0.378061
H65	H	-4.421806	-0.105829	-0.984886
C66	C	-4.273237	-0.238790	-0.842029
C67	C	-4.255402	-0.317615	-0.895955
C68	C	-4.382953	-0.392272	-0.868591
C69	C	-4.528339	-0.388105	-0.787300
C70	C	-4.546180	-0.309277	-0.733369
C71	C	-4.418629	-0.234619	-0.760733
H72	H	-4.147773	-0.320702	-0.956136
H73	H	-4.369746	-0.450626	-0.908515
H74	H	-4.622761	-0.443371	-0.767043
H75	H	-4.653809	-0.306189	-0.673188
H76	H	-4.431837	-0.176266	-0.720809
H77	H	-4.244712	-0.333387	-0.405651
H78	H	-4.308529	-0.477755	-0.404567
H79	H	-3.758005	-0.719823	-0.379164
H80	H	-3.644819	-0.463678	-0.381134
H81	H	-3.644897	-0.091885	-0.798606
H82	H	-3.580989	-0.319298	-0.382238
