data_functionalizedCrystal
_audit_creation_method	'MofGen! by Chris Wilmer'
_symmetry_space_group_name_H-M	'P1'
_symmetry_Int_Tables_number	1
_symmetry_cell_setting	triclinic
loop_
_symmetry_equiv_pos_as_xyz
  x,y,z
_cell_length_a	13.032721
_cell_length_b	10.686154
_cell_length_c	10.685986
_cell_angle_alpha	80.970730
_cell_angle_beta	92.237678
_cell_angle_gamma	79.028863
loop_
_atom_site_label
_atom_site_type_symbol
_atom_site_fract_x
_atom_site_fract_y
_atom_site_fract_z
Zn1	Zn	-0.259938	-1.842319	-0.612236
Zn2	Zn	-0.447189	-1.827332	-0.431081
Zn3	Zn	-0.284911	-1.642169	-0.420405
Zn4	Zn	-0.447106	-1.598943	-0.659504
O5	O	-0.359786	-1.727691	-0.530807
O6	O	-0.274361	-2.019675	-0.572892
O7	O	-0.436148	-1.814587	-0.253787
O8	O	-0.135354	-1.693081	-0.421601
O9	O	-0.411933	-2.008665	-0.439798
O10	O	-0.117007	-1.840130	-0.562539
O11	O	-0.316923	-1.678549	-0.245943
O12	O	-0.316843	-1.457090	-0.467435
O13	O	-0.411792	-1.619409	-0.829112
O14	O	-0.436007	-1.425332	-0.643101
O15	O	-0.274281	-1.798216	-0.794384
O16	O	-0.593422	-1.772673	-0.485632
O17	O	-0.593361	-1.604877	-0.653454
C18	C	-0.379126	-1.394709	-0.559240
C19	C	-0.387423	-1.252252	-0.571437
C20	C	-0.631307	-1.682491	-0.575855
C21	C	-0.747456	-1.663269	-0.595159
C22	C	-0.799227	-1.737787	-0.520782
C23	C	-0.919273	-1.717922	-0.540732
C24	C	-0.087201	-1.773099	-0.485606
C25	C	0.028959	-1.792450	-0.466345
C26	C	-0.340241	-1.705663	-0.858626
C27	C	-0.331913	-1.696276	-0.998323
C28	C	-0.340361	-1.061974	-0.502253
C29	C	-0.332059	-1.204432	-0.490061
C30	C	-0.379175	-1.749719	-0.204243
C31	C	-0.387195	-1.759403	-0.064477
H32	H	-0.441181	-1.184200	-0.650439
O33	O	-0.268074	-1.285721	-0.395761
C34	C	-0.327862	-1.358685	-0.317753
H35	H	-0.403335	-1.362465	-0.373387
H36	H	-0.280851	-1.461061	-0.285960
H37	H	-0.347744	-1.311534	-0.230836
H38	H	-0.754679	-1.816296	-0.442340
H39	H	-0.963818	-1.639417	-0.619189
O40	O	-0.917883	-1.885947	-0.372622
C41	C	-0.863885	-1.828870	-0.287225
H42	H	-0.903248	-1.723035	-0.293453
H43	H	-0.865606	-1.882020	-0.186351
H44	H	-0.779141	-1.835403	-0.312814
H45	H	-0.440886	-1.820635	-1.014239
O46	O	-0.268004	-1.623057	-1.058342
C47	C	-0.327838	-1.525347	-1.151231
H48	H	-0.412942	-1.506358	-1.125913
H49	H	-0.295678	-1.432902	-1.155000
H50	H	-0.323276	-1.557766	-1.247889
O51	O	-0.800694	-1.569768	-0.688815
C52	C	-0.854646	-1.626854	-0.774247
H53	H	-0.867823	-1.724331	-0.724372
H54	H	-0.933505	-1.560888	-0.808186
H55	H	-0.806239	-1.641505	-0.859265
