data_functionalizedCrystal
_audit_creation_method	'MofGen! by Chris Wilmer'
_symmetry_space_group_name_H-M	'P1'
_symmetry_Int_Tables_number	1
_symmetry_cell_setting	triclinic
loop_
_symmetry_equiv_pos_as_xyz
  x,y,z
_cell_length_a	10.723024
_cell_length_b	11.026607
_cell_length_c	9.798715
_cell_angle_alpha	89.998891
_cell_angle_beta	89.996609
_cell_angle_gamma	96.526943
loop_
_atom_site_label
_atom_site_type_symbol
_atom_site_fract_x
_atom_site_fract_y
_atom_site_fract_z
O1	O	1.693992	0.170518	-0.113478
O2	O	1.334363	0.186840	-0.113482
O3	O	1.484372	0.001778	-0.113475
O4	O	1.543983	0.355580	-0.113485
O5	O	1.484357	0.001777	0.113507
O6	O	1.334348	0.186840	0.113500
O7	O	1.693978	0.170518	0.113504
Zn8	Zn	1.514161	0.178679	0.149540
Zn9	Zn	1.514180	0.178679	-0.149518
O10	O	1.543969	0.355580	0.113498
C11	C	1.287599	0.185652	0.000008
C12	C	1.148278	0.182098	0.000007
C13	C	1.095646	0.285649	0.000003
C14	C	0.951650	0.281979	0.000001
C15	C	1.473367	-0.043525	0.000014
C16	C	1.440584	-0.178512	0.000009
C17	C	1.531104	-0.251564	0.000008
C18	C	1.497223	-0.391080	0.000002
C19	C	1.740741	0.171706	0.000011
C20	C	1.880062	0.175259	0.000003
C21	C	1.554973	0.400883	0.000005
C22	C	1.587756	0.535869	0.000001
N23	N	1.514157	0.178677	0.353640
N24	N	1.514191	0.178671	-0.353618
C25	C	1.577067	0.100633	0.421420
C26	C	1.577087	0.100628	0.578583
H27	H	1.086734	0.090727	-0.000026
H28	H	1.633684	-0.210818	0.000017
F29	F	1.306501	-0.231762	-0.000005
H30	H	1.630909	0.033813	0.363100
F31	F	0.892447	0.397853	-0.000012
H32	H	1.690344	-0.423393	-0.000100
F33	F	1.647496	0.013296	0.654766
H34	H	1.460305	0.245487	0.411962
H35	H	1.394636	-0.431820	-0.000008
H36	H	1.460333	0.245496	0.588103
H37	H	1.157190	0.377021	0.000009
H38	H	0.925352	0.086607	-0.000002
