data_functionalizedCrystal
_audit_creation_method	'MofGen! by Chris Wilmer'
_symmetry_space_group_name_H-M	'P1'
_symmetry_Int_Tables_number	1
_symmetry_cell_setting	triclinic
loop_
_symmetry_equiv_pos_as_xyz
  x,y,z
_cell_length_a	29.999520
_cell_length_b	29.998686
_cell_length_c	29.995014
_cell_angle_alpha	60.005185
_cell_angle_beta	60.010401
_cell_angle_gamma	59.993433
loop_
_atom_site_label
_atom_site_type_symbol
_atom_site_fract_x
_atom_site_fract_y
_atom_site_fract_z
O1	O	0.061772	-0.651300	0.544623
O2	O	0.023267	-0.507084	0.438819
O3	O	0.114589	-0.598332	0.438743
O4	O	-0.029550	-0.560051	0.544699
O5	O	0.144886	-0.568039	0.468961
O6	O	0.053564	-0.476791	0.469038
O7	O	0.092069	-0.621007	0.574841
Zn8	Zn	0.077627	-0.544089	0.526737
Zn9	Zn	0.037709	-0.584002	0.486923
O10	O	0.000748	-0.529758	0.574918
N11	N	0.104871	-0.516854	0.553912
N12	N	0.010470	-0.611242	0.459748
C13	C	0.143162	-0.478782	0.827124
C14	C	0.378203	-0.478734	0.591892
C15	C	0.143005	-0.478752	0.591997
C16	C	0.142986	-0.243586	0.592008
C17	C	0.180857	-0.357087	0.629814
C18	C	0.180866	-0.440920	0.629807
C19	C	0.201840	-0.419964	0.650755
C20	C	0.293272	-0.404201	0.602606
C21	C	0.350426	-0.423248	0.583534
C22	C	0.350451	-0.515727	0.618798
C23	C	0.293297	-0.496678	0.637872
C24	C	0.194628	-0.328499	0.573626
C25	C	0.175551	-0.271340	0.554591
C26	C	0.128936	-0.271362	0.647935
C27	C	0.148014	-0.328521	0.666970
C28	C	0.124672	-0.427119	0.643641
C29	C	0.105611	-0.446170	0.624592
C30	C	0.198934	-0.492820	0.577889
C31	C	0.217998	-0.473770	0.596931
C32	C	0.124740	-0.427136	0.742229
C33	C	0.105728	-0.446202	0.799386
C34	C	0.199085	-0.492863	0.799337
C35	C	0.218096	-0.473798	0.742178
C36	C	0.180923	-0.440933	0.713626
C37	C	0.264710	-0.440915	0.629773
C38	C	0.121509	-0.499370	0.889991
C39	C	0.441068	-0.498953	0.570621
C40	C	0.121297	-0.499349	0.571429
C41	C	0.121653	-0.180715	0.571802
C42	C	-0.111071	-0.648912	0.421584
C43	C	-0.027286	-0.649018	0.421777
C44	C	-0.048200	-0.669944	0.400740
C45	C	-0.064036	-0.761340	0.448814
C46	C	-0.045033	-0.818500	0.467893
C47	C	0.047447	-0.818609	0.432797
C48	C	0.028444	-0.761451	0.413717
C49	C	-0.139731	-0.662677	0.477755
C50	C	-0.196885	-0.643554	0.496701
C51	C	-0.196717	-0.596907	0.403303
C52	C	-0.139562	-0.616030	0.384357
C53	C	-0.041053	-0.592827	0.407952
C54	C	-0.022041	-0.573809	0.427083
C55	C	0.024504	-0.667167	0.473848
C56	C	0.005492	-0.686188	0.454725
C57	C	-0.040886	-0.592836	0.309259
C58	C	-0.021740	-0.573821	0.252102
C59	C	0.024886	-0.667185	0.252163
C60	C	0.005743	-0.686199	0.309322
C61	C	-0.027145	-0.649023	0.337868
C62	C	-0.027299	-0.732818	0.421728
N63	N	0.492511	-0.516826	0.553742
O64	O	0.679283	-0.525926	0.419277
O65	O	0.679465	-0.632059	0.563349
O66	O	0.679393	-0.631817	0.471975
O67	O	0.679355	-0.526168	0.510650
O68	O	0.588593	-0.601610	0.502313
O69	O	0.588665	-0.601852	0.593686
O70	O	0.588483	-0.495720	0.449614
Zn71	Zn	0.574158	-0.543990	0.526467
Zn72	Zn	0.693790	-0.583788	0.486496
O73	O	0.588555	-0.495962	0.540987
N74	N	0.775436	-0.610952	0.459215
N75	N	0.104844	-0.129269	0.553931
O76	O	-0.029548	0.057600	0.544709
O77	O	0.114530	0.057617	0.438578
O78	O	0.023130	0.057594	0.438850
O79	O	0.061852	0.057623	0.544437
O80	O	0.053431	-0.033213	0.469115
O81	O	0.144831	-0.033190	0.468843
O82	O	0.000753	-0.033207	0.574974
Zn83	Zn	0.077603	-0.047616	0.526714
Zn84	Zn	0.037680	0.072026	0.486838
O85	O	0.092153	-0.033184	0.574702
N86	N	0.010432	0.153679	0.459622
N87	N	0.105130	-0.516904	0.941437
O88	O	0.095923	-0.651280	1.128292
O89	O	-0.010184	-0.507155	1.128318
O90	O	-0.009938	-0.598539	1.128284
O91	O	0.095677	-0.559897	1.128326
O92	O	0.020315	-0.568257	1.037481
O93	O	0.020068	-0.476874	1.037515
O94	O	0.126176	-0.620999	1.037489
Zn95	Zn	0.077925	-0.544128	1.023085
Zn96	Zn	0.038066	-0.584026	1.142722
O97	O	0.125929	-0.529616	1.037523
N98	N	0.010860	-0.611256	1.224371
C99	C	0.034807	-0.473765	0.439352
C100	C	0.147897	-0.586765	0.439257
C101	C	0.080529	-0.654326	0.574308
C102	C	-0.032561	-0.541326	0.574403
C103	C	0.634087	-0.631571	0.596668
C104	C	0.633999	-0.631272	0.483513
C105	C	0.633858	-0.496206	0.416295
C106	C	0.633949	-0.496507	0.529449
C107	C	0.147793	0.012327	0.439058
C108	C	0.034644	0.012187	0.439432
C109	C	-0.032548	0.012195	0.574457
C110	C	0.080639	0.012222	0.574120
C111	C	-0.009670	-0.473857	1.082920
C112	C	-0.009359	-0.587018	1.082860
C113	C	0.125662	-0.654297	1.082887
C114	C	0.125358	-0.541129	1.082927
H115	H	0.094465	-0.400370	0.718985
H116	H	-0.042983	-0.432464	1.082928
H117	H	0.633941	-0.463320	0.537725
O118	O	0.197322	-0.596578	0.399627
C119	C	0.231246	-0.650232	0.419358
H120	H	0.216430	-0.664690	0.465863
H121	H	0.274995	-0.650924	0.402639
H122	H	0.229745	-0.678466	0.405527
O123	O	0.197074	0.012661	0.399257
C124	C	0.231036	0.012762	0.418866
H125	H	0.204776	0.029775	0.454040
H126	H	0.256978	0.039339	0.384581
H127	H	0.258816	-0.030743	0.433831
H128	H	0.634015	-0.664461	0.475235
H129	H	0.158538	-0.532861	1.082933
H130	H	0.026351	0.012184	0.406260
O131	O	-0.048947	-0.596771	1.082727
C132	C	-0.063601	-0.559334	1.035676
H133	H	-0.052724	-0.521503	1.020038
H134	H	-0.109395	-0.547108	1.046216
H135	H	-0.040533	-0.579118	1.002730
O136	O	0.090419	-0.703786	0.613885
C137	C	0.144079	-0.737647	0.594081
H138	H	0.158480	-0.722769	0.547576
H139	H	0.144822	-0.781412	0.610757
H140	H	0.172326	-0.736143	0.607894
H141	H	0.088930	0.012231	0.607291
H142	H	0.633799	-0.462884	0.374920
H143	H	-0.073925	0.012190	0.607776
O144	O	0.097099	-0.243664	0.684076
C145	C	0.125993	-0.257613	0.717088
H146	H	0.159274	-0.299110	0.717637
H147	H	0.096690	-0.259574	0.760440
H148	H	0.145379	-0.225436	0.699884
O149	O	0.165457	-0.703635	1.082782
C150	C	0.211459	-0.696437	1.035766
H151	H	0.198295	-0.656454	1.002902
H152	H	0.231006	-0.731853	1.019968
H153	H	0.242274	-0.695185	1.046410
H154	H	0.263847	-0.485039	0.718893
O155	O	0.051136	-0.432813	0.827105
C156	C	0.027385	-0.452367	0.813161
H157	H	0.054463	-0.457964	0.771656
H158	H	-0.014664	-0.421730	0.811224
H159	H	0.023151	-0.493216	0.845326
O160	O	0.235219	-0.524856	0.827044
C161	C	0.268279	-0.572781	0.813047
H162	H	0.246198	-0.580735	0.797351
H163	H	0.276957	-0.608789	0.850621
H164	H	0.308416	-0.567574	0.779852
O165	O	0.088529	-0.395193	0.675549
C166	C	0.034843	-0.387107	0.683680
H167	H	0.034923	-0.393485	0.649223
H168	H	0.007700	-0.343760	0.683995
H169	H	0.018494	-0.417537	0.724395
H170	H	0.059853	-0.434921	0.635844
H171	H	0.229173	-0.519573	0.551126
H172	H	0.270043	-0.526578	0.659994
O173	O	0.272596	-0.487134	0.583395
C174	C	0.296284	-0.467550	0.526145
H175	H	0.269170	-0.461962	0.506161
H176	H	0.338335	-0.498162	0.512756
H177	H	0.300500	-0.426691	0.513225
O178	O	0.378140	-0.569916	0.626724
C179	C	0.340674	-0.598236	0.654779
H180	H	0.299939	-0.573307	0.678214
H181	H	0.357215	-0.639456	0.684604
H182	H	0.334574	-0.604847	0.624206
H183	H	0.634133	-0.664888	0.638048
O184	O	0.064203	-0.733828	0.387437
C185	C	0.117478	-0.771360	0.384450
H186	H	0.115246	-0.812084	0.418211
H187	H	0.140919	-0.754877	0.389689
H188	H	0.139349	-0.777466	0.343035
H189	H	0.373680	-0.393351	0.561411
O190	O	0.024939	-0.424369	0.399690
C191	C	-0.019276	-0.414621	0.387137
H192	H	-0.023616	-0.455176	0.399182
H193	H	-0.011552	-0.392476	0.341444
H194	H	-0.058413	-0.388328	0.410634
O195	O	0.265564	-0.350011	0.594644
C196	C	0.279486	-0.320519	0.538211
H197	H	0.320978	-0.345492	0.515693
H198	H	0.281437	-0.280224	0.530658
H199	H	0.247302	-0.311992	0.522649
O200	O	0.226503	-0.356166	0.537461
C201	C	0.234571	-0.318674	0.483784
H202	H	0.200103	-0.277934	0.483905
H203	H	0.234849	-0.335184	0.456654
H204	H	0.275283	-0.312588	0.467388
O205	O	0.188855	-0.243481	0.500025
C206	C	0.164988	-0.186906	0.491191
H207	H	0.128314	-0.179111	0.528708
H208	H	0.151096	-0.165176	0.454158
H209	H	0.196254	-0.170682	0.483564
O210	O	0.134734	-0.356355	0.721541
C211	C	0.182775	-0.389405	0.735333
H212	H	0.218673	-0.397955	0.697657
H213	H	0.177688	-0.429606	0.768474
H214	H	0.190811	-0.367380	0.751021
O215	O	-0.035169	-0.519219	0.224401
C216	C	-0.068290	-0.490489	0.261857
H217	H	-0.089125	-0.517716	0.302576
H218	H	-0.100581	-0.452323	0.245275
H219	H	-0.041948	-0.478197	0.268007
H220	H	0.051655	-0.697459	0.228927
H221	H	-0.067667	-0.562559	0.332499
H222	H	-0.073962	-0.533167	0.607674
O223	O	0.019026	-0.740787	0.337088
C224	C	-0.000481	-0.764492	0.323041
H225	H	-0.035681	-0.731916	0.307248
H226	H	-0.015379	-0.798155	0.360613
H227	H	0.033843	-0.782573	0.289904
O228	O	-0.072910	-0.556646	0.375976
C229	C	-0.080974	-0.502974	0.367871
H230	H	-0.074652	-0.503082	0.402379
H231	H	-0.124295	-0.475795	0.367487
H232	H	-0.050498	-0.486642	0.327196
H233	H	-0.033252	-0.528055	0.415829
H234	H	0.051198	-0.697438	0.500669
H235	H	0.092838	-0.841923	0.426277
O236	O	0.018935	-0.740789	0.468179
C237	C	0.051932	-0.769520	0.501371
H238	H	0.072715	-0.742297	0.494137
H239	H	0.084266	-0.807690	0.490701
H240	H	0.025500	-0.781807	0.546115
H241	H	-0.109425	-0.738032	0.455342
O242	O	-0.080792	-0.846120	0.494179
C243	C	-0.107527	-0.832149	0.459162
H244	H	-0.106125	-0.790690	0.426585
H245	H	-0.151854	-0.830095	0.483834
H246	H	-0.086224	-0.864362	0.438754
O247	O	-0.112112	-0.694672	0.513966
C248	C	-0.126127	-0.742578	0.546980
H249	H	-0.167605	-0.734861	0.547455
H250	H	-0.128156	-0.754624	0.590353
H251	H	-0.093955	-0.776985	0.529829
O252	O	-0.224791	-0.656946	0.551256
C253	C	-0.257851	-0.685677	0.564985
H254	H	-0.266337	-0.675359	0.527267
H255	H	-0.298079	-0.673470	0.598076
H256	H	-0.235872	-0.731433	0.580714
H257	H	-0.219915	-0.570138	0.372989
O258	O	-0.111804	-0.602632	0.329771
C259	C	-0.149207	-0.569497	0.300977
H260	H	-0.189977	-0.576733	0.328165
H261	H	-0.132638	-0.580229	0.262830
H262	H	-0.155249	-0.524737	0.288650
