data_functionalizedCrystal
_audit_creation_method	'MofGen! by Chris Wilmer'
_symmetry_space_group_name_H-M	'P1'
_symmetry_Int_Tables_number	1
_symmetry_cell_setting	triclinic
loop_
_symmetry_equiv_pos_as_xyz
  x,y,z
_cell_length_a	25.639239
_cell_length_b	16.625548
_cell_length_c	25.639243
_cell_angle_alpha	89.989046
_cell_angle_beta	90.014050
_cell_angle_gamma	89.960246
loop_
_atom_site_label
_atom_site_type_symbol
_atom_site_fract_x
_atom_site_fract_y
_atom_site_fract_z
Zn1	Zn	-0.208224	-1.232513	0.295620
Zn2	Zn	-0.295635	-1.232401	0.208184
Zn3	Zn	-0.208217	-1.097697	0.208197
Zn4	Zn	-0.295632	-1.097607	0.295587
O5	O	-0.251927	-1.165055	0.251897
O6	O	-0.219823	-1.345330	0.284029
O7	O	-0.284038	-1.214523	0.135021
O8	O	-0.135053	-1.115666	0.219813
O9	O	-0.284044	-1.345248	0.219791
O10	O	-0.135058	-1.214714	0.284042
O11	O	-0.219813	-1.115557	0.135030
O12	O	-0.219809	-0.984853	0.219782
O13	O	-0.284038	-1.115512	0.368757
O14	O	-0.284032	-0.984787	0.283987
O15	O	-0.219820	-1.214627	0.368780
O16	O	-0.368800	-1.214435	0.219759
O17	O	-0.368797	-1.115403	0.283974
C18	C	-0.387770	-1.164919	0.251873
C19	C	-0.445884	-1.164935	0.251880
C20	C	-0.251920	-0.955564	0.251882
C21	C	-0.251929	-0.865943	0.251889
C22	C	-0.251929	-1.165072	0.388270
C23	C	-0.251930	-1.165079	0.446384
C24	C	-0.806236	-1.216755	0.218517
C25	C	-0.860840	-1.216786	0.218524
O26	O	-0.889067	-1.260705	0.190132
N27	N	-0.888166	-1.165196	0.251932
C28	C	-0.860885	-1.113577	0.285338
O29	O	-0.889142	-1.069699	0.313754
C30	C	-0.806282	-1.113551	0.285333
C31	C	-0.778958	-1.165138	0.251920
C32	C	-0.778912	-1.268339	0.185107
C33	C	-0.724312	-1.268307	0.185100
C34	C	-0.697034	-1.216690	0.218502
C35	C	-0.724358	-1.165106	0.251912
C36	C	-0.779002	-1.061936	0.318742
C37	C	-0.724395	-1.061915	0.318734
C38	C	-0.697072	-1.113502	0.285321
C39	C	-0.642480	-1.113457	0.285307
N40	N	-0.615154	-1.165047	0.251900
C41	C	-0.642431	-1.216664	0.218497
C42	C	-0.975556	-1.113638	0.285346
C43	C	-1.030158	-1.113660	0.285348
C44	C	-1.030109	-1.216870	0.218535
C45	C	-0.975506	-1.216844	0.218531
C46	C	-0.948230	-1.165228	0.251939
C47	C	-0.527766	-1.216591	0.218484
C48	C	-0.473161	-1.216551	0.218478
C49	C	-0.473215	-1.113344	0.285292
C50	C	-0.527815	-1.113380	0.285297
C51	C	-0.555090	-1.165010	0.251891
O52	O	-0.614218	-1.069562	0.313687
O53	O	-0.614167	-1.260542	0.190091
C54	C	-0.115554	-1.165213	0.251932
C55	C	-0.057440	-1.165280	0.251948
C56	C	-0.251935	-1.375363	0.251912
C57	C	-0.251938	-1.464985	0.251918
C58	C	-0.251932	-0.537767	0.251911
C59	C	-0.251930	-0.629075	0.251903
C60	C	-0.251931	-0.701852	0.251899
C61	C	-0.251928	-0.793166	0.251892
C62	C	-0.285375	-1.216583	0.697565
C63	C	-0.285376	-1.216585	0.642961
O64	O	-0.313826	-1.260385	0.614713
N65	N	-0.251936	-1.165063	0.615658
C66	C	-0.218496	-1.113531	0.642962
O67	O	-0.190052	-1.069707	0.614725
C68	C	-0.218498	-1.113525	0.697566
C69	C	-0.251937	-1.165056	0.724866
C70	C	-0.318812	-1.268108	0.724865
C71	C	-0.318811	-1.268107	0.779465
C72	C	-0.285372	-1.216580	0.806766
C73	C	-0.251935	-1.165054	0.779466
C74	C	-0.185061	-1.061989	0.724869
C75	C	-0.185066	-1.061987	0.779476
C76	C	-0.218505	-1.113518	0.806776
C77	C	-0.218495	-1.113526	0.861367
N78	N	-0.251936	-1.165047	0.888670
C79	C	-0.285374	-1.216574	0.861369
C80	C	-0.218494	-1.113545	0.528292
C81	C	-0.218489	-1.113555	0.473689
C82	C	-0.285371	-1.216608	0.473691
C83	C	-0.285373	-1.216602	0.528295
C84	C	-0.251935	-1.165067	0.555594
C85	C	-0.285368	-1.216568	0.976034
C86	C	-0.285362	-1.216565	1.030640
C87	C	-0.218482	-1.113509	1.030633
C88	C	-0.218486	-1.113515	0.976032
C89	C	-0.251933	-1.165047	0.948734
O90	O	-0.190061	-1.069746	0.889649
O91	O	-0.313818	-1.260383	0.889613
C92	C	-0.251934	-1.165035	1.116054
C93	C	-0.251923	-1.165037	1.057940
H94	H	-0.450916	-1.258560	0.191267
H95	H	-0.191256	-1.071559	1.052871
Br96	Br	-0.330756	-1.286539	0.565339
Br97	Br	-0.564773	-1.286660	0.173147
Br98	Br	-0.687238	-1.338335	0.139758
Br99	Br	-0.436185	-1.043300	0.330624
H100	H	-0.801115	-1.310376	0.157907
H101	H	-0.191254	-1.071602	0.451467
H102	H	-0.191260	-1.071582	0.550516
H103	H	-0.953350	-1.071600	0.312549
H104	H	-0.953262	-1.258851	0.191323
H105	H	-0.801239	-1.019924	0.345948
H106	H	-0.157832	-1.020026	0.702651
Br107	Br	-0.364200	-1.338036	0.816507
Br108	Br	-1.067138	-1.286919	0.173200
H109	H	-0.157837	-1.020020	0.801701
Br110	Br	-0.330745	-1.286506	1.067686
Br111	Br	-0.687380	-0.991864	0.364078
H112	H	-0.346044	-1.310069	0.702642
Br113	Br	-0.173098	-1.043591	0.938981
Br114	Br	-0.564898	-1.043349	0.330631
H115	H	-1.052400	-1.071644	0.312552
Br116	Br	-0.330761	-1.286505	0.938996
Br117	Br	-0.330753	-1.286536	0.436630
