data_functionalizedCrystal
_audit_creation_method	'MofGen! by Chris Wilmer'
_symmetry_space_group_name_H-M	'P1'
_symmetry_Int_Tables_number	1
_symmetry_cell_setting	triclinic
loop_
_symmetry_equiv_pos_as_xyz
  x,y,z
_cell_length_a	10.654550
_cell_length_b	16.109318
_cell_length_c	15.186229
_cell_angle_alpha	90.000224
_cell_angle_beta	89.996404
_cell_angle_gamma	83.976747
loop_
_atom_site_label
_atom_site_type_symbol
_atom_site_fract_x
_atom_site_fract_y
_atom_site_fract_z
O1	O	0.161523	1.104082	-0.073155
O2	O	0.661523	1.604082	0.426845
O3	O	0.181588	0.862141	-0.073173
O4	O	0.681588	1.362141	0.426827
O5	O	-0.011259	0.988674	-0.073158
O6	O	0.488741	1.488674	0.426842
O7	O	0.354370	0.977549	-0.073170
O8	O	0.854370	1.477549	0.426830
O9	O	-0.011261	0.988666	0.073299
O10	O	0.488739	1.488666	0.573299
O11	O	0.181586	0.862133	0.073284
O12	O	0.681586	1.362133	0.573284
O13	O	0.161520	1.104073	0.073302
O14	O	0.661520	1.604073	0.573302
Zn15	Zn	0.171552	0.983102	0.096547
Zn16	Zn	0.671552	1.483102	0.596547
Zn17	Zn	0.171556	0.983113	-0.096417
Zn18	Zn	0.671556	1.483113	0.403583
O19	O	0.354367	0.977540	0.073287
O20	O	0.854367	1.477540	0.573287
C21	C	0.180770	0.831158	0.000054
C22	C	0.680770	1.331158	0.500054
C23	C	0.178322	0.738848	0.000047
C24	C	0.678322	1.238848	0.500047
C25	C	0.170416	0.439732	-0.079771
C26	C	0.670416	0.939732	0.420229
C27	C	0.172708	0.526467	-0.079777
C28	C	0.672708	1.026467	0.420223
C29	C	0.172688	0.526477	0.079899
C30	C	0.672688	1.026477	0.579899
C31	C	0.170387	0.439744	0.079904
C32	C	0.670387	0.939744	0.579904
C33	C	0.169258	0.396374	0.000066
C34	C	0.669258	0.896374	0.500066
C35	C	0.173851	0.569841	0.000056
C36	C	0.673851	1.069841	0.500056
C37	C	0.176336	0.663883	0.000051
C38	C	0.676336	1.163883	0.500051
C39	C	0.166770	0.302326	0.000071
C40	C	0.666770	0.802326	0.500071
C41	C	-0.058047	0.987853	0.000070
C42	C	0.441953	1.487853	0.500070
C43	C	-0.197457	0.985409	0.000069
C44	C	0.302543	1.485409	0.500069
C45	C	-0.277947	1.059910	0.000074
C46	C	0.222053	1.559910	0.500074
C47	C	-0.408937	1.057608	0.000063
C48	C	0.091063	1.557608	0.500063
C49	C	-0.378935	0.906299	0.000045
C50	C	0.121065	1.406299	0.500045
C51	C	-0.247948	0.908601	0.000050
C52	C	0.252052	1.408601	0.500050
C53	C	-0.605963	1.145355	-0.051246
C54	C	-0.105963	1.645355	0.448754
C55	C	-0.686457	1.219860	-0.051226
C56	C	-0.186457	1.719860	0.448774
C57	C	-0.657196	1.287397	0.000104
C58	C	-0.157196	1.787397	0.500104
C59	C	-0.547443	1.280433	0.051434
C60	C	-0.047443	1.780433	0.551434
C61	C	-0.466955	1.205928	0.051422
C62	C	0.033045	1.705928	0.551422
C63	C	-0.496215	1.138393	0.000072
C64	C	0.003785	1.638393	0.500072
C65	C	-0.050920	0.820860	0.051366
C66	C	0.449080	1.320860	0.551366
C67	C	0.029570	0.746353	0.051360
C68	C	0.529570	1.246353	0.551360
C69	C	0.000313	0.678809	0.000036
C70	C	0.500313	1.178809	0.500036
C71	C	-0.109442	0.685764	-0.051281
C72	C	0.390558	1.185764	0.448719
C73	C	-0.189933	0.760271	-0.051275
C74	C	0.310067	1.260271	0.448725
C75	C	-0.160667	0.827816	0.000047
C76	C	0.339333	1.327816	0.500047
C77	C	0.401155	0.978362	0.000057
C78	C	0.901155	1.478362	0.500057
C79	C	0.540566	0.980806	0.000053
C80	C	1.040566	1.480806	0.500053
C81	C	0.162338	1.135057	0.000074
C82	C	0.662338	1.635057	0.500074
C83	C	0.164786	1.227366	0.000075
C84	C	0.664786	1.727366	0.500075
N85	N	0.171549	0.983100	0.228239
N86	N	0.671549	1.483100	0.728239
N87	N	0.171549	0.983121	-0.228110
N88	N	0.671549	1.483121	0.271890
C89	C	0.086185	1.039148	0.453969
C90	C	0.586185	1.539148	0.953969
C91	C	0.086182	1.039151	0.546158
C92	C	0.586182	1.539151	1.046158
C93	C	0.256917	0.927067	0.546154
C94	C	0.756917	1.427067	1.046154
C95	C	0.256913	0.927061	0.453966
C96	C	0.756913	1.427061	0.953966
C97	C	0.171549	0.983106	0.407876
C98	C	0.671549	1.483106	0.907876
C99	C	0.171550	0.983115	0.592254
C100	C	0.671550	1.483115	1.092254
C101	C	0.171547	0.983117	0.692210
C102	C	0.671547	1.483117	1.192210
C103	C	0.171549	0.983103	0.307913
C104	C	0.671549	1.483103	0.807913
H105	H	0.173610	0.561799	0.144900
H106	H	0.673610	1.061799	0.644900
H107	H	0.173650	0.561766	-0.144788
H108	H	0.673650	1.061766	0.355212
H109	H	0.169442	0.404441	0.144921
H110	H	0.669442	0.904441	0.644921
O111	O	-0.005921	1.099573	0.404260
O112	O	0.494079	1.599573	0.904260
H113	H	0.008412	1.090155	0.332411
H114	H	0.508412	1.590155	0.832411
O115	O	-0.223482	1.142748	0.000076
O116	O	0.276518	1.642748	0.500076
H117	H	-0.301463	1.194165	0.000066
H118	H	0.198537	1.694165	0.500066
H119	H	-0.523637	1.335429	0.093238
H120	H	-0.023637	1.835429	0.593238
O121	O	-0.005877	1.099609	0.595869
O122	O	0.494123	1.599609	1.095869
H123	H	-0.103785	1.088465	0.578174
H124	H	0.396215	1.588465	1.078174
H125	H	-0.279293	0.765934	-0.093073
H126	H	0.220707	1.265934	0.406927
H127	H	0.326427	0.881421	0.416435
H128	H	0.826427	1.381421	0.916435
O129	O	-0.804828	1.227378	-0.106589
O130	O	-0.304828	1.727378	0.393411
H131	H	-0.811644	1.167903	-0.142302
H132	H	-0.311644	1.667903	0.357698
O133	O	-0.348577	1.198408	0.106769
O134	O	0.151423	1.698408	0.606769
H135	H	-0.341746	1.257890	0.142465
H136	H	0.158254	1.757890	0.642465
O137	O	0.147915	0.738861	0.106749
O138	O	0.647915	1.238861	0.606749
H139	H	0.144250	0.687366	0.154935
H140	H	0.644250	1.187366	0.654935
H141	H	-0.722744	1.348061	0.000119
H142	H	-0.222744	1.848061	0.500119
O143	O	0.349001	0.866629	0.595865
O144	O	0.849001	1.366629	1.095865
H145	H	0.334676	0.876054	0.667713
H146	H	0.834676	1.376054	1.167713
O147	O	-0.637522	1.072506	-0.106609
O148	O	-0.137522	1.572506	0.393391
H149	H	-0.727372	1.089864	-0.142281
H150	H	-0.227372	1.589864	0.357719
H151	H	0.169495	0.404423	-0.144780
H152	H	0.669495	0.904423	0.355220
H153	H	-0.420060	0.843765	0.000032
H154	H	0.079940	1.343765	0.500032
O155	O	-0.019370	0.893721	0.106720
O156	O	0.480630	1.393721	0.606720
H157	H	-0.014229	0.874941	0.177056
H158	H	0.485771	1.374941	0.677056
H159	H	-0.133282	0.630756	-0.093055
H160	H	0.366718	1.130756	0.406945
H161	H	0.065852	0.618137	0.000047
H162	H	0.565852	1.118137	0.500047
