data_functionalizedCrystal
_audit_creation_method	'MofGen! by Chris Wilmer'
_symmetry_space_group_name_H-M	'P1'
_symmetry_Int_Tables_number	1
_symmetry_cell_setting	triclinic
loop_
_symmetry_equiv_pos_as_xyz
  x,y,z
_cell_length_a	14.519709
_cell_length_b	17.666332
_cell_length_c	14.519709
_cell_angle_alpha	90.007412
_cell_angle_beta	83.680145
_cell_angle_gamma	90.003734
loop_
_atom_site_label
_atom_site_type_symbol
_atom_site_fract_x
_atom_site_fract_y
_atom_site_fract_z
O1	O	1.223874	0.062851	0.120893
O2	O	1.473874	0.312851	0.370893
O3	O	1.723874	0.562851	0.620893
O4	O	1.973874	0.812851	0.870893
O5	O	0.955397	0.062875	0.135129
O6	O	1.205397	0.312875	0.385129
O7	O	1.455397	0.562875	0.635129
O8	O	1.705397	0.812875	0.885129
O9	O	1.096754	0.062856	-0.006227
O10	O	1.346754	0.312856	0.243773
O11	O	1.596754	0.562856	0.493773
O12	O	1.846754	0.812856	0.743773
O13	O	1.082517	0.062871	0.262250
O14	O	1.332517	0.312871	0.512250
O15	O	1.582517	0.562871	0.762250
O16	O	1.832517	0.812871	1.012250
O17	O	1.096729	-0.063041	-0.006235
O18	O	1.346729	0.186959	0.243765
O19	O	1.596729	0.436959	0.493765
O20	O	1.846729	0.686959	0.743765
O21	O	0.955372	-0.063022	0.135122
O22	O	1.205372	0.186978	0.385122
O23	O	1.455372	0.436978	0.635122
O24	O	1.705372	0.686978	0.885122
O25	O	1.223849	-0.063045	0.120885
O26	O	1.473849	0.186955	0.370885
O27	O	1.723849	0.436955	0.620885
O28	O	1.973849	0.686955	0.870885
Cu29	Cu	1.089608	-0.074529	0.128003
Cu30	Cu	1.339608	0.175471	0.378003
Cu31	Cu	1.589608	0.425471	0.628003
Cu32	Cu	1.839608	0.675471	0.878003
Cu33	Cu	1.089638	0.074358	0.128012
Cu34	Cu	1.339638	0.324358	0.378012
Cu35	Cu	1.589638	0.574358	0.628012
Cu36	Cu	1.839638	0.824358	0.878012
O37	O	1.082492	-0.063026	0.262242
O38	O	1.332492	0.186974	0.512242
O39	O	1.582492	0.436974	0.762242
O40	O	1.832492	0.686974	1.012242
C41	C	0.921025	-0.000071	0.134462
C42	C	1.171025	0.249929	0.384462
C43	C	1.421025	0.499929	0.634462
C44	C	1.671025	0.749929	0.884462
C45	C	0.818643	-0.000062	0.132474
C46	C	1.068643	0.249938	0.382474
C47	C	1.318643	0.499938	0.632474
C48	C	1.568643	0.749938	0.882474
N49	N	1.089594	-0.179248	0.127996
N50	N	1.339594	0.070752	0.377996
N51	N	1.589594	0.320752	0.627996
N52	N	1.839594	0.570752	0.877996
C53	C	0.443748	-0.000097	0.125154
C54	C	0.693748	0.249903	0.375154
C55	C	0.943748	0.499903	0.625154
C56	C	1.193748	0.749903	0.875154
C57	C	0.548056	-0.000087	0.127187
C58	C	0.798056	0.249913	0.377187
C59	C	1.048056	0.499913	0.627187
C60	C	1.298056	0.749913	0.877187
C61	C	0.631192	-0.000079	0.128814
C62	C	0.881192	0.249921	0.378814
C63	C	1.131192	0.499921	0.628814
C64	C	1.381192	0.749921	0.878814
C65	C	0.735507	-0.000070	0.130847
C66	C	0.985507	0.249930	0.380847
C67	C	1.235507	0.499930	0.630847
C68	C	1.485507	0.749930	0.880847
C69	C	1.152207	-0.218867	0.065434
C70	C	1.402207	0.031133	0.315434
C71	C	1.652207	0.281133	0.565434
C72	C	1.902207	0.531133	0.815434
C73	C	1.152213	-0.298114	0.065429
C74	C	1.402213	-0.048114	0.315429
C75	C	1.652213	0.201886	0.565429
C76	C	1.902213	0.451886	0.815429
C77	C	1.089614	-0.337741	0.128003
C78	C	1.339614	-0.087741	0.378003
C79	C	1.589614	0.162259	0.628003
C80	C	1.839614	0.412259	0.878003
C81	C	1.026989	-0.298113	0.190570
C82	C	1.276989	-0.048113	0.440570
C83	C	1.526989	0.201887	0.690570
C84	C	1.776989	0.451887	0.940570
C85	C	1.026979	-0.218867	0.190566
C86	C	1.276979	0.031133	0.440566
C87	C	1.526979	0.281133	0.690566
C88	C	1.776979	0.531133	0.940566
N89	N	1.078009	-0.462154	0.209587
N90	N	1.328009	-0.212154	0.459587
N91	N	1.578009	0.037846	0.709587
N92	N	1.828009	0.287846	0.959587
N93	N	1.078024	-0.537435	0.209587
N94	N	1.328024	-0.287435	0.459587
N95	N	1.578024	-0.037435	0.709587
N96	N	1.828024	0.212565	0.959587
C97	C	1.089638	-0.576505	0.128016
C98	C	1.339638	-0.326505	0.378016
C99	C	1.589638	-0.076505	0.628016
C100	C	1.839638	0.173495	0.878016
N101	N	1.101255	-0.537450	0.046442
N102	N	1.351255	-0.287450	0.296442
N103	N	1.601255	-0.037450	0.546442
N104	N	1.851255	0.212550	0.796442
N105	N	1.101245	-0.462163	0.046442
N106	N	1.351245	-0.212163	0.296442
N107	N	1.601245	0.037837	0.546442
N108	N	1.851245	0.287837	0.796442
C109	C	1.089617	-0.423670	0.128013
C110	C	1.339617	-0.173670	0.378013
C111	C	1.589617	0.076330	0.628013
C112	C	1.839617	0.326330	0.878013
C113	C	1.152261	-0.702052	0.065444
C114	C	1.402261	-0.452052	0.315444
C115	C	1.652261	-0.202052	0.565444
C116	C	1.902261	0.047948	0.815444
C117	C	1.152259	-0.781301	0.065438
C118	C	1.402259	-0.531301	0.315438
C119	C	1.652259	-0.281301	0.565438
C120	C	1.902259	-0.031301	0.815438
C121	C	1.027040	-0.781298	0.190587
C122	C	1.277040	-0.531298	0.440587
C123	C	1.527040	-0.281298	0.690587
C124	C	1.777040	-0.031298	0.940587
C125	C	1.027037	-0.702051	0.190584
C126	C	1.277037	-0.452051	0.440584
C127	C	1.527037	-0.202051	0.690584
C128	C	1.777037	0.047949	0.940584
C129	C	1.089652	-0.662432	0.128014
C130	C	1.339652	-0.412432	0.378014
C131	C	1.589652	-0.162432	0.628014
C132	C	1.839652	0.087568	0.878014
C133	C	1.258221	-0.000098	0.121553
C134	C	1.508221	0.249902	0.371553
C135	C	1.758221	0.499902	0.621553
C136	C	2.008221	0.749902	0.871553
C137	C	1.360602	-0.000102	0.123541
C138	C	1.610602	0.249898	0.373541
C139	C	1.860602	0.499898	0.623541
C140	C	2.110602	0.749898	0.873541
C141	C	1.096078	-0.000093	-0.040591
C142	C	1.346078	0.249907	0.209409
C143	C	1.596078	0.499907	0.459409
C144	C	1.846078	0.749907	0.709409
C145	C	1.094090	-0.000093	-0.142972
C146	C	1.344090	0.249907	0.107028
C147	C	1.594090	0.499907	0.357028
C148	C	1.844090	0.749907	0.607028
N149	N	1.089659	0.179078	0.128011
N150	N	1.339659	0.429078	0.378011
N151	N	1.589659	0.679078	0.628011
N152	N	1.839659	0.929078	0.878011
C153	C	1.086770	-0.000073	-0.517868
C154	C	1.336770	0.249927	-0.267868
C155	C	1.586770	0.499927	-0.017868
C156	C	1.836770	0.749927	0.232132
C157	C	1.088803	-0.000079	-0.413560
C158	C	1.338803	0.249921	-0.163560
C159	C	1.588803	0.499921	0.086440
C160	C	1.838803	0.749921	0.336440
C161	C	1.090430	-0.000084	-0.330423
C162	C	1.340430	0.249916	-0.080423
C163	C	1.590430	0.499916	0.169577
C164	C	1.840430	0.749916	0.419577
C165	C	1.092463	-0.000088	-0.226109
C166	C	1.342463	0.249912	0.023891
C167	C	1.592463	0.499912	0.273891
C168	C	1.842463	0.749912	0.523891
C169	C	1.083168	-0.000076	0.296605
C170	C	1.333168	0.249924	0.546605
C171	C	1.583168	0.499924	0.796605
C172	C	1.833168	0.749924	1.046605
C173	C	1.085156	-0.000071	0.398987
C174	C	1.335156	0.249929	0.648987
C175	C	1.585156	0.499929	0.898987
C176	C	1.835156	0.749929	1.148987
H177	H	1.203190	-0.186612	0.014483
H178	H	1.453190	0.063388	0.264483
H179	H	1.703190	0.313388	0.514483
H180	H	1.953190	0.563388	0.764483
H181	H	1.203243	-0.669794	0.014492
H182	H	1.453243	-0.419794	0.264492
H183	H	1.703243	-0.169794	0.514492
H184	H	1.953243	0.080206	0.764492
H185	H	1.203244	-0.813559	0.014488
H186	H	1.453244	-0.563559	0.264488
H187	H	1.703244	-0.313559	0.514488
H188	H	1.953244	-0.063559	0.764488
H189	H	1.203202	-0.330377	0.014482
H190	H	1.453202	-0.080377	0.264482
H191	H	1.703202	0.169623	0.514482
H192	H	1.953202	0.419623	0.764482
H193	H	0.976055	-0.669791	0.241532
H194	H	1.226055	-0.419791	0.491532
H195	H	1.476055	-0.169791	0.741532
H196	H	1.726055	0.080209	0.991532
H197	H	0.976067	-0.813561	0.241532
H198	H	1.226067	-0.563561	0.491532
H199	H	1.476067	-0.313561	0.741532
H200	H	1.726067	-0.063561	0.991532
H201	H	0.976018	-0.330381	0.241517
H202	H	1.226018	-0.080381	0.491517
H203	H	1.476018	0.169619	0.741517
H204	H	1.726018	0.419619	0.991517
H205	H	0.975991	-0.186609	0.241513
H206	H	1.225991	0.063391	0.491513
H207	H	1.475991	0.313391	0.741513
H208	H	1.725991	0.563391	0.991513
