data_functionalizedCrystal
_audit_creation_method	'MofGen! by Chris Wilmer'
_symmetry_space_group_name_H-M	'P1'
_symmetry_Int_Tables_number	1
_symmetry_cell_setting	triclinic
loop_
_symmetry_equiv_pos_as_xyz
  x,y,z
_cell_length_a	19.188933
_cell_length_b	19.188930
_cell_length_c	17.666332
_cell_angle_alpha	89.988397
_cell_angle_beta	89.992061
_cell_angle_gamma	83.145175
loop_
_atom_site_label
_atom_site_type_symbol
_atom_site_fract_x
_atom_site_fract_y
_atom_site_fract_z
O1	O	0.926149	0.087175	-0.062932
O2	O	1.176149	0.337175	0.187068
O3	O	1.426149	0.587175	0.437068
O4	O	1.676149	0.837175	0.687068
O5	O	0.722838	0.098908	-0.062940
O6	O	0.972838	0.348908	0.187060
O7	O	1.222838	0.598908	0.437060
O8	O	1.472838	0.848908	0.687060
O9	O	0.830360	-0.008614	-0.062921
O10	O	1.080360	0.241386	0.187079
O11	O	1.330360	0.491386	0.437079
O12	O	1.580360	0.741386	0.687079
O13	O	0.818626	0.194697	-0.062951
O14	O	1.068626	0.444697	0.187049
O15	O	1.318626	0.694697	0.437049
O16	O	1.568626	0.944697	0.687049
O17	O	0.830341	-0.008620	0.062976
O18	O	1.080341	0.241380	0.312976
O19	O	1.330341	0.491380	0.562976
O20	O	1.580341	0.741380	0.812976
O21	O	0.722819	0.098902	0.062957
O22	O	0.972819	0.348902	0.312957
O23	O	1.222819	0.598902	0.562957
O24	O	1.472819	0.848902	0.812957
O25	O	0.926130	0.087170	0.062965
O26	O	1.176130	0.337170	0.312965
O27	O	1.426130	0.587170	0.562965
O28	O	1.676130	0.837170	0.812965
Cu29	Cu	0.824473	0.093035	0.074456
Cu30	Cu	1.074473	0.343035	0.324456
Cu31	Cu	1.324473	0.593035	0.574456
Cu32	Cu	1.574473	0.843035	0.824456
Cu33	Cu	0.824495	0.093042	-0.074431
Cu34	Cu	1.074495	0.343042	0.175569
Cu35	Cu	1.324495	0.593042	0.425569
Cu36	Cu	1.574495	0.843042	0.675569
O37	O	0.818607	0.194692	0.062946
O38	O	1.068607	0.444692	0.312946
O39	O	1.318607	0.694692	0.562946
O40	O	1.568607	0.944692	0.812946
C41	C	0.696817	0.098525	0.000008
C42	C	0.946817	0.348525	0.250008
C43	C	1.196817	0.598525	0.500008
C44	C	1.446817	0.848525	0.750008
C45	C	0.619313	0.097384	0.000005
C46	C	0.869313	0.347384	0.250005
C47	C	1.119313	0.597384	0.500005
C48	C	1.369313	0.847384	0.750005
C49	C	0.066068	0.089242	-0.068612
C50	C	0.316068	0.339242	0.181388
C51	C	0.566068	0.589242	0.431388
C52	C	0.816068	0.839242	0.681388
C53	C	0.138892	0.090310	-0.068615
C54	C	0.388892	0.340310	0.181385
C55	C	0.638892	0.590310	0.431385
C56	C	0.888892	0.840310	0.681385
C57	C	0.175299	0.090844	0.000011
C58	C	0.425299	0.340844	0.250011
C59	C	0.675299	0.590844	0.500011
C60	C	0.925299	0.840844	0.750011
C61	C	0.138877	0.090292	0.068645
C62	C	0.388877	0.340292	0.318645
C63	C	0.638877	0.590292	0.568645
C64	C	0.888877	0.840292	0.818645
C65	C	0.066056	0.089217	0.068647
C66	C	0.316056	0.339217	0.318647
C67	C	0.566056	0.589217	0.568647
C68	C	0.816056	0.839217	0.818647
N69	N	0.284311	0.132260	0.051087
N70	N	0.534311	0.382260	0.301087
N71	N	0.784311	0.632260	0.551087
N72	N	1.034311	0.882260	0.801087
N73	N	0.353489	0.133283	0.051081
N74	N	0.603489	0.383283	0.301081
N75	N	0.853489	0.633283	0.551081
N76	N	1.103489	0.883283	0.801081
C77	C	0.394707	0.094082	0.000012
C78	C	0.644707	0.344082	0.250012
C79	C	0.894707	0.594082	0.500012
C80	C	1.144707	0.844082	0.750012
N81	N	0.364134	0.053828	-0.051062
N82	N	0.614134	0.303828	0.198938
N83	N	0.864134	0.553828	0.448938
N84	N	1.114134	0.803828	0.698938
N85	N	0.294949	0.052808	-0.051059
N86	N	0.544949	0.302808	0.198941
N87	N	0.794949	0.552808	0.448941
N88	N	1.044949	0.802808	0.698941
C89	C	0.254262	0.092009	0.000018
C90	C	0.504262	0.342009	0.250018
C91	C	0.754262	0.592009	0.500018
C92	C	1.004262	0.842009	0.750018
C93	C	0.510085	0.095787	-0.068621
C94	C	0.760085	0.345787	0.181379
C95	C	1.010085	0.595787	0.431379
C96	C	1.260085	0.845787	0.681379
C97	C	0.582911	0.096851	-0.068621
C98	C	0.832911	0.346851	0.181379
C99	C	1.082911	0.596851	0.431379
C100	C	1.332911	0.846851	0.681379
C101	C	0.582894	0.096840	0.068641
C102	C	0.832894	0.346840	0.318641
C103	C	1.082894	0.596840	0.568641
C104	C	1.332894	0.846840	0.818641
C105	C	0.510070	0.095769	0.068639
C106	C	0.760070	0.345769	0.318639
C107	C	1.010070	0.595769	0.568639
C108	C	1.260070	0.845769	0.818639
C109	C	0.473669	0.095246	0.000006
C110	C	0.723669	0.345246	0.250006
C111	C	0.973669	0.595246	0.500006
C112	C	1.223669	0.845246	0.750006
C113	C	0.829971	-0.034628	0.000030
C114	C	1.079971	0.215372	0.250030
C115	C	1.329971	0.465372	0.500030
C116	C	1.579971	0.715372	0.750030
C117	C	0.828830	-0.112132	0.000036
C118	C	1.078830	0.137868	0.250036
C119	C	1.328830	0.387868	0.500036
C120	C	1.578830	0.637868	0.750036
C121	C	0.891921	-0.157056	0.000043
C122	C	1.141921	0.092944	0.250043
C123	C	1.391921	0.342944	0.500043
C124	C	1.641921	0.592944	0.750043
C125	C	0.890849	-0.229880	0.000030
C126	C	1.140849	0.020120	0.250030
C127	C	1.390849	0.270120	0.500030
C128	C	1.640849	0.520120	0.750030
C129	C	0.826683	-0.257777	0.000027
C130	C	1.076683	-0.007777	0.250027
C131	C	1.326683	0.242223	0.500027
C132	C	1.576683	0.492223	0.750027
C133	C	0.763584	-0.212843	0.000017
C134	C	1.013584	0.037157	0.250017
C135	C	1.263584	0.287157	0.500017
C136	C	1.513584	0.537157	0.750017
C137	C	0.764658	-0.140021	0.000021
C138	C	1.014658	0.109979	0.250021
C139	C	1.264658	0.359979	0.500021
C140	C	1.514658	0.609979	0.750021
N141	N	0.777630	-0.365784	0.042870
N142	N	1.027630	-0.115784	0.292870
N143	N	1.277630	0.134216	0.542870
N144	N	1.527630	0.384216	0.792870
N145	N	0.776614	-0.434963	0.042868
N146	N	1.026614	-0.184963	0.292868
N147	N	1.276614	0.065037	0.542868
N148	N	1.526614	0.315037	0.792868
C149	C	0.823445	-0.477185	0.000012
C150	C	1.073445	-0.227185	0.250012
C151	C	1.323445	0.022815	0.500012
C152	C	1.573445	0.272815	0.750012
N153	N	0.871341	-0.447618	-0.042832
N154	N	1.121341	-0.197618	0.207168
N155	N	1.371341	0.052382	0.457168
N156	N	1.621341	0.302382	0.707168
N157	N	0.872358	-0.378433	-0.042826
N158	N	1.122358	-0.128433	0.207174
N159	N	1.372358	0.121567	0.457174
N160	N	1.622358	0.371567	0.707174
C161	C	0.825512	-0.336739	0.000022
C162	C	1.075512	-0.086739	0.250022
C163	C	1.325512	0.163261	0.500022
C164	C	1.575512	0.413261	0.750022
C165	C	0.885378	-0.601073	0.000004
C166	C	1.135378	-0.351073	0.250004
C167	C	1.385378	-0.101073	0.500004
C168	C	1.635378	0.148927	0.750004
C169	C	0.884304	-0.673898	-0.000013
C170	C	1.134304	-0.423898	0.249987
C171	C	1.384304	-0.173898	0.499987
C172	C	1.634304	0.076102	0.749987
C173	C	0.757037	-0.656860	-0.000019
C174	C	1.007037	-0.406860	0.249981
C175	C	1.257037	-0.156860	0.499981
C176	C	1.507037	0.093140	0.749981
C177	C	0.758113	-0.584037	-0.000010
C178	C	1.008113	-0.334037	0.249990
C179	C	1.258113	-0.084037	0.499990
C180	C	1.508113	0.165963	0.749990
C181	C	0.822286	-0.556148	0.000005
C182	C	1.072286	-0.306148	0.250005
C183	C	1.322286	-0.056148	0.500005
C184	C	1.572286	0.193852	0.750005
C185	C	0.952150	0.087553	0.000016
C186	C	1.202150	0.337553	0.250016
C187	C	1.452150	0.587553	0.500016
C188	C	1.702150	0.837553	0.750016
C189	C	1.029655	0.088694	0.000013
C190	C	1.279655	0.338694	0.250013
C191	C	1.529655	0.588694	0.500013
C192	C	1.779655	0.838694	0.750013
C193	C	0.818997	0.220705	-0.000006
C194	C	1.068997	0.470705	0.249994
C195	C	1.318997	0.720705	0.499994
C196	C	1.568997	0.970705	0.749994
C197	C	0.820137	0.298210	-0.000018
C198	C	1.070137	0.548210	0.249982
C199	C	1.320137	0.798210	0.499982
C200	C	1.570137	1.048210	0.749982
N201	N	0.824462	0.093030	0.179176
N202	N	1.074462	0.343030	0.429176
N203	N	1.324462	0.593030	0.679176
N204	N	1.574462	0.843030	0.929176
N205	N	0.824511	0.093042	-0.179150
N206	N	1.074511	0.343042	0.070850
N207	N	1.324511	0.593042	0.320850
N208	N	1.574511	0.843042	0.570850
C209	C	0.872088	0.045443	0.218794
C210	C	1.122088	0.295443	0.468794
C211	C	1.372088	0.545443	0.718794
C212	C	1.622088	0.795443	0.968794
C213	C	0.872093	0.045439	0.298042
C214	C	1.122093	0.295439	0.548042
C215	C	1.372093	0.545439	0.798042
C216	C	1.622093	0.795439	1.048042
C217	C	0.824477	0.093036	0.337668
C218	C	1.074477	0.343036	0.587668
C219	C	1.324477	0.593036	0.837668
C220	C	1.574477	0.843036	1.087668
C221	C	0.776842	0.140627	0.298040
C222	C	1.026842	0.390627	0.548040
C223	C	1.276842	0.640627	0.798040
C224	C	1.526842	0.890627	1.048040
C225	C	0.776834	0.140624	0.218794
C226	C	1.026834	0.390624	0.468794
C227	C	1.276834	0.640624	0.718794
C228	C	1.526834	0.890624	0.968794
N229	N	0.815401	0.154843	0.462077
N230	N	1.065401	0.404843	0.712077
N231	N	1.315401	0.654843	0.962077
N232	N	1.565401	0.904843	1.212077
N233	N	0.815412	0.154843	0.537358
N234	N	1.065412	0.404843	0.787358
N235	N	1.315412	0.654843	1.037358
N236	N	1.565412	0.904843	1.287358
C237	C	0.824495	0.093045	0.576432
C238	C	1.074495	0.343045	0.826432
C239	C	1.324495	0.593045	1.076432
C240	C	1.574495	0.843045	1.326432
N241	N	0.833581	0.031245	0.537382
N242	N	1.083581	0.281245	0.787382
N243	N	1.333581	0.531245	1.037382
N244	N	1.583581	0.781245	1.287382
N245	N	0.833573	0.031245	0.462095
N246	N	1.083573	0.281245	0.712095
N247	N	1.333573	0.531245	0.962095
N248	N	1.583573	0.781245	1.212095
C249	C	0.824479	0.093043	0.423597
C250	C	1.074479	0.343043	0.673597
C251	C	1.324479	0.593043	0.923597
C252	C	1.574479	0.843043	1.173597
C253	C	0.872129	0.045450	0.701980
C254	C	1.122129	0.295450	0.951980
C255	C	1.372129	0.545450	1.201980
C256	C	1.622129	0.795450	1.451980
C257	C	0.872128	0.045446	0.781229
C258	C	1.122128	0.295446	1.031229
C259	C	1.372128	0.545446	1.281229
C260	C	1.622128	0.795446	1.531229
C261	C	0.776880	0.140639	0.781226
C262	C	1.026880	0.390639	1.031226
C263	C	1.276880	0.640639	1.281226
C264	C	1.526880	0.890639	1.531226
C265	C	0.776878	0.140638	0.701978
C266	C	1.026878	0.390638	0.951978
C267	C	1.276878	0.640638	1.201978
C268	C	1.526878	0.890638	1.451978
C269	C	0.824506	0.093044	0.662360
C270	C	1.074506	0.343044	0.912360
C271	C	1.324506	0.593044	1.162360
C272	C	1.574506	0.843044	1.412360
H273	H	0.612536	0.097272	0.124517
H274	H	0.862536	0.347272	0.374517
H275	H	1.112536	0.597272	0.624517
H276	H	1.362536	0.847272	0.874517
H277	H	0.910909	0.006691	0.813486
H278	H	1.160909	0.256691	1.063486
H279	H	1.410909	0.506691	1.313486
H280	H	1.660909	0.756691	1.563486
H281	H	0.738108	0.179390	0.813489
H282	H	0.988108	0.429390	1.063489
H283	H	1.238108	0.679390	1.313489
H284	H	1.488108	0.929390	1.563489
H285	H	0.168545	0.090760	-0.124499
H286	H	0.418545	0.340760	0.125501
H287	H	0.668545	0.590760	0.375501
H288	H	0.918545	0.840760	0.625501
H289	H	0.036408	0.088773	0.124531
H290	H	0.286408	0.338773	0.374531
H291	H	0.536408	0.588773	0.624531
H292	H	0.786408	0.838773	0.874531
H293	H	0.480422	0.095326	0.124521
H294	H	0.730422	0.345326	0.374521
H295	H	0.980422	0.595326	0.624521
H296	H	1.230422	0.845326	0.874521
H297	H	0.910868	0.006687	0.186539
H298	H	1.160868	0.256687	0.436539
H299	H	1.410868	0.506687	0.686539
H300	H	1.660868	0.756687	0.936539
H301	H	0.738099	0.179391	0.669719
H302	H	0.988099	0.429391	0.919719
H303	H	1.238099	0.679391	1.169719
H304	H	1.488099	0.929391	1.419719
H305	H	0.944175	-0.134354	0.000052
H306	H	1.194175	0.115646	0.250052
H307	H	1.444175	0.365646	0.500052
H308	H	1.694175	0.615646	0.750052
H309	H	0.942227	-0.266463	0.000032
H310	H	1.192227	-0.016463	0.250032
H311	H	1.442227	0.233537	0.500032
H312	H	1.692227	0.483537	0.750032
H313	H	0.937631	-0.578365	0.000012
H314	H	1.187631	-0.328365	0.250012
H315	H	1.437631	-0.078365	0.500012
H316	H	1.687631	0.171635	0.750012
H317	H	0.935682	-0.710475	-0.000012
H318	H	1.185682	-0.460475	0.249988
H319	H	1.435682	-0.210475	0.499988
H320	H	1.685682	0.039525	0.749988
H321	H	0.910877	0.006686	0.330305
H322	H	1.160877	0.256686	0.580305
H323	H	1.410877	0.506686	0.830305
H324	H	1.660877	0.756686	1.080305
H325	H	0.480446	0.095359	-0.124506
H326	H	0.730446	0.345359	0.125494
H327	H	0.980446	0.595359	0.375494
H328	H	1.230446	0.845359	0.625494
H329	H	0.704792	-0.679573	-0.000025
H330	H	0.954792	-0.429573	0.249975
H331	H	1.204792	-0.179573	0.499975
H332	H	1.454792	0.070427	0.749975
H333	H	0.706738	-0.547459	-0.000011
H334	H	0.956738	-0.297459	0.249989
H335	H	1.206738	-0.047459	0.499989
H336	H	1.456738	0.202541	0.749989
H337	H	0.711340	-0.235562	0.000013
H338	H	0.961340	0.014438	0.250013
H339	H	1.211340	0.264438	0.500013
H340	H	1.461340	0.514438	0.750013
H341	H	0.713280	-0.103444	0.000017
H342	H	0.963280	0.146556	0.250017
H343	H	1.213280	0.396556	0.500017
H344	H	1.463280	0.646556	0.750017
H345	H	0.612558	0.097292	-0.124507
H346	H	0.862558	0.347292	0.125493
H347	H	1.112558	0.597292	0.375493
H348	H	1.362558	0.847292	0.625493
H349	H	0.036435	0.088813	-0.124498
H350	H	0.286435	0.338813	0.125502
H351	H	0.536435	0.588813	0.375502
H352	H	0.786435	0.838813	0.625502
H353	H	0.738071	0.179379	0.330308
H354	H	0.988071	0.429379	0.580308
H355	H	1.238071	0.679379	0.830308
H356	H	1.488071	0.929379	1.080308
H357	H	0.738050	0.179376	0.186536
H358	H	0.988050	0.429376	0.436536
H359	H	1.238050	0.679376	0.686536
H360	H	1.488050	0.929376	0.936536
H361	H	0.168525	0.090726	0.124521
H362	H	0.418525	0.340726	0.374521
H363	H	0.668525	0.590726	0.624521
H364	H	0.918525	0.840726	0.874521
H365	H	0.910908	0.006694	0.669721
H366	H	1.160908	0.256694	0.919721
H367	H	1.410908	0.506694	1.169721
H368	H	1.660908	0.756694	1.419721
