data_functionalizedCrystal
_audit_creation_method	'MofGen! by Chris Wilmer'
_symmetry_space_group_name_H-M	'P1'
_symmetry_Int_Tables_number	1
_symmetry_cell_setting	triclinic
loop_
_symmetry_equiv_pos_as_xyz
  x,y,z
_cell_length_a	9.730223
_cell_length_b	10.654550
_cell_length_c	10.654550
_cell_angle_alpha	84.484931
_cell_angle_beta	89.998791
_cell_angle_gamma	90.003019
loop_
_atom_site_label
_atom_site_type_symbol
_atom_site_fract_x
_atom_site_fract_y
_atom_site_fract_z
O1	O	0.114187	-1.667834	-0.176394
O2	O	0.114212	-1.302355	-0.193200
O3	O	0.114190	-1.493498	-0.002057
O4	O	0.114209	-1.476692	-0.367536
O5	O	-0.114390	-1.493496	-0.002062
O6	O	-0.114368	-1.302353	-0.193204
O7	O	-0.114393	-1.667832	-0.176398
Zn8	Zn	-0.150672	-1.485092	-0.184802
Zn9	Zn	0.150492	-1.485095	-0.184796
O10	O	-0.114371	-1.476689	-0.367541
C11	C	-0.000099	-1.492263	0.044738
C12	C	-0.000096	-1.488571	0.184181
C13	C	-0.000075	-1.255556	-0.191968
C14	C	-0.000065	-1.116113	-0.188276
N15	N	-0.356209	-1.485099	-0.184806
C16	C	-0.428144	-1.569759	-0.100197
C17	C	-0.572027	-1.569756	-0.100182
C18	C	-0.572026	-1.400429	-0.269395
C19	C	-0.428146	-1.400427	-0.269403
C20	C	-0.356207	-1.654431	-0.015599
C21	C	-0.428143	-1.739099	0.069015
C22	C	-0.572026	-1.739096	0.069031
C23	C	-0.643973	-1.654425	-0.015569
N24	N	0.356028	-1.485098	-0.184782
C25	C	-0.000103	-1.714631	-0.177630
C26	C	-0.000104	-1.854074	-0.181322
C27	C	-0.000064	-1.036628	-0.300818
C28	C	-0.000088	-0.905607	-0.297341
C29	C	-0.000109	-0.933570	-0.068772
C30	C	-0.000095	-1.064588	-0.072250
C31	C	-0.000079	-1.477925	-0.414336
C32	C	-0.000072	-1.481617	-0.553779
C33	C	-0.000104	-1.601112	0.263667
C34	C	-0.000087	-1.597636	0.394688
C35	C	-0.000061	-1.369066	0.366725
C36	C	-0.000068	-1.372544	0.235706
H37	H	-0.239051	-1.654444	-0.015607
H38	H	-0.000100	-1.129309	0.019401
H39	H	-0.369556	-1.808028	0.137901
C40	C	-0.000131	-1.250210	0.149607
C41	C	-0.000152	-1.147855	0.222769
C42	C	-0.000222	-1.035149	0.143499
H43	H	0.079557	-1.246644	0.097886
H44	H	-0.079875	-1.246746	0.097937
H45	H	0.079584	-1.151317	0.274417
H46	H	-0.079834	-1.151379	0.274488
H47	H	-0.079966	-1.031685	0.091829
H48	H	0.079467	-1.031596	0.091781
H49	H	-0.000249	-0.965687	0.193128
H50	H	-0.000124	-1.695588	0.221720
H51	H	-0.630595	-1.808026	0.137935
H52	H	-0.761133	-1.654421	-0.015541
C53	C	-0.649888	-1.308371	-0.361300
C54	C	-0.556092	-1.234203	-0.435379
C55	C	-0.627765	-1.149374	-0.520046
H56	H	-0.706026	-1.353852	-0.414118
H57	H	-0.705981	-1.255636	-0.315658
H58	H	-0.500023	-1.286930	-0.481018
H59	H	-0.499951	-1.188694	-0.382595
H60	H	-0.683858	-1.096640	-0.474404
H61	H	-0.683901	-1.194867	-0.572855
H62	H	-0.564136	-1.099034	-0.570311
H63	H	-0.000090	-1.689279	0.459401
H64	H	-0.000049	-1.078574	-0.395294
C65	C	-0.349855	-1.308715	-0.361328
C66	C	-0.267229	-1.376276	-0.438813
C67	C	-0.195073	-1.291828	-0.523493
H68	H	-0.413142	-1.258257	-0.411838
H69	H	-0.293644	-1.256070	-0.315690
H70	H	-0.323435	-1.428899	-0.484447
H71	H	-0.203917	-1.426730	-0.388337
H72	H	-0.138862	-1.239182	-0.477856
H73	H	-0.258369	-1.241374	-0.573995
H74	H	-0.138994	-1.337655	-0.576070
C75	C	-0.000011	-0.819518	-0.419669
C76	C	0.000052	-0.892690	-0.522017
C77	C	0.000140	-0.813430	-0.634729
H78	H	-0.079707	-0.767812	-0.423251
H79	H	0.079725	-0.767832	-0.423126
H80	H	-0.079676	-0.944354	-0.518561
H81	H	0.079743	-0.944393	-0.518476
H82	H	0.079876	-0.761744	-0.638186
H83	H	-0.079558	-0.761728	-0.638299
H84	H	0.000195	-0.863065	-0.704185
H85	H	-0.000142	-0.891602	0.025693
H86	H	-0.000041	-1.274601	0.408693
