data_functionalizedCrystal
_audit_creation_method	'MofGen! by Chris Wilmer'
_symmetry_space_group_name_H-M	'P1'
_symmetry_Int_Tables_number	1
_symmetry_cell_setting	triclinic
loop_
_symmetry_equiv_pos_as_xyz
  x,y,z
_cell_length_a	15.944493
_cell_length_b	15.944493
_cell_length_c	15.021413
_cell_angle_alpha	90.009890
_cell_angle_beta	89.993251
_cell_angle_gamma	83.475044
loop_
_atom_site_label
_atom_site_type_symbol
_atom_site_fract_x
_atom_site_fract_y
_atom_site_fract_z
O1	O	1.114537	0.108092	-0.074008
O2	O	1.447870	0.441425	0.259325
O3	O	1.781203	0.774759	0.592658
O4	O	0.869978	0.121499	-0.074011
O5	O	1.203311	0.454833	0.259322
O6	O	1.536644	0.788166	0.592655
O7	O	0.998961	-0.007484	-0.074017
O8	O	1.332294	0.325849	0.259316
O9	O	1.665628	0.659183	0.592649
O10	O	0.985553	0.237075	-0.074003
O11	O	1.318887	0.570408	0.259331
O12	O	1.652220	0.903742	0.592664
O13	O	0.998940	-0.007466	0.074047
O14	O	1.332274	0.325868	0.407380
O15	O	1.665607	0.659201	0.740714
O16	O	0.869957	0.121518	0.074053
O17	O	1.203290	0.454851	0.407386
O18	O	1.536624	0.788184	0.740719
O19	O	1.114516	0.108110	0.074056
O20	O	1.447849	0.441444	0.407389
O21	O	1.781183	0.774777	0.740722
Zn22	Zn	0.992233	0.114817	0.097563
Zn23	Zn	1.325567	0.448150	0.430896
Zn24	Zn	1.658900	0.781484	0.764229
Zn25	Zn	0.992260	0.114793	-0.097518
Zn26	Zn	1.325594	0.448126	0.235815
Zn27	Zn	1.658927	0.781459	0.569148
O28	O	0.985533	0.237094	0.074062
O29	O	1.318866	0.570427	0.407395
O30	O	1.652200	0.903760	0.740728
C31	C	0.838673	0.120961	0.000020
C32	C	1.172006	0.454294	0.333353
C33	C	1.505339	0.787627	0.666687
C34	C	0.745424	0.119318	0.000018
C35	C	1.078758	0.452651	0.333352
C36	C	1.412091	0.785984	0.666685
C37	C	0.509649	0.195240	0.000022
C38	C	0.842982	0.528574	0.333356
C39	C	1.176315	0.861907	0.666689
C40	C	0.459089	0.154307	0.073027
C41	C	0.792422	0.487641	0.406360
C42	C	1.125755	0.820974	0.739694
C43	C	0.574704	0.116273	0.000020
C44	C	0.908037	0.449607	0.333353
C45	C	1.241371	0.782940	0.666687
C46	C	0.459114	0.154270	-0.072953
C47	C	0.792447	0.487604	0.260381
C48	C	1.125780	0.820937	0.593714
C49	C	0.409795	0.113339	0.000018
C50	C	0.743128	0.446672	0.333351
C51	C	1.076462	0.780006	0.666684
C52	C	0.525372	0.075362	0.073085
C53	C	0.858706	0.408695	0.406418
C54	C	1.192039	0.742029	0.739752
C55	C	0.525400	0.075337	-0.072960
C56	C	0.858734	0.408670	0.260373
C57	C	1.192067	0.742003	0.593706
C58	C	0.474873	0.034346	0.000062
C59	C	0.808207	0.367679	0.333396
C60	C	1.141540	0.701012	0.666729
C61	C	0.669704	0.117966	0.000022
C62	C	1.003037	0.451300	0.333355
C63	C	1.336370	0.784633	0.666689
C64	C	0.314798	0.111640	0.000022
C65	C	0.648132	0.444973	0.333355
C66	C	0.981465	0.778307	0.666688
C67	C	0.998403	-0.038769	0.000011
C68	C	1.331736	0.294564	0.333344
C69	C	1.665069	0.627897	0.666678
C70	C	0.996760	-0.132018	-0.000000
C71	C	1.330093	0.201316	0.333333
C72	C	1.663426	0.534649	0.666666
C73	C	1.072682	-0.367793	0.000017
C74	C	1.406016	-0.034460	0.333351
C75	C	1.739349	0.298873	0.666684
C76	C	1.031750	-0.418362	-0.072986
C77	C	1.365084	-0.085029	0.260347
C78	C	1.698417	0.248305	0.593681
C79	C	0.993716	-0.302738	0.000011
C80	C	1.327049	0.030595	0.333344
C81	C	1.660382	0.363929	0.666677
C82	C	1.031712	-0.418320	0.072994
C83	C	1.365045	-0.084987	0.406327
C84	C	1.698378	0.248347	0.739660
C85	C	0.990781	-0.467647	0.000025
C86	C	1.324114	-0.134314	0.333358
C87	C	1.657448	0.199020	0.666692
C88	C	0.952805	-0.352078	-0.073053
C89	C	1.286138	-0.018745	0.260280
C90	C	1.619472	0.314588	0.593614
C91	C	0.952778	-0.352033	0.072992
C92	C	1.286111	-0.018700	0.406326
C93	C	1.619444	0.314634	0.739659
C94	C	0.911788	-0.402569	-0.000029
C95	C	1.245121	-0.069235	0.333304
C96	C	1.578454	0.264098	0.666638
C97	C	0.995408	-0.207739	0.000002
C98	C	1.328742	0.125595	0.333335
C99	C	1.662075	0.458928	0.666668
C100	C	0.989082	-0.562644	0.000028
C101	C	1.322415	-0.229311	0.333361
C102	C	1.655749	0.104023	0.666694
C103	C	1.145821	0.108649	0.000022
C104	C	1.479154	0.441982	0.333356
C105	C	1.812488	0.775316	0.666689
C106	C	1.239069	0.110292	0.000018
C107	C	1.572403	0.443625	0.333351
C108	C	1.905736	0.776959	0.666685
C109	C	0.986091	0.268379	0.000031
C110	C	1.319424	0.601712	0.333365
C111	C	1.652758	0.935046	0.666698
C112	C	0.987734	0.361627	0.000037
C113	C	1.321067	0.694961	0.333370
C114	C	1.654401	1.028294	0.666703
N115	N	0.992221	0.114833	0.230700
N116	N	1.325554	0.448166	0.564034
N117	N	1.658888	0.781500	0.897367
N118	N	0.992279	0.114770	-0.230656
N119	N	1.325613	0.448103	0.102677
N120	N	1.658946	0.781437	0.436011
C121	C	0.932570	0.174447	0.470386
C122	C	1.265903	0.507780	0.803720
C123	C	1.599237	0.841113	1.137053
C124	C	1.008469	0.190739	0.529723
C125	C	1.341802	0.524072	0.863056
C126	C	1.675136	0.857405	1.196390
C127	C	0.992243	0.114812	0.412307
C128	C	1.325576	0.448145	0.745640
C129	C	1.658909	0.781479	1.078974
C130	C	0.916364	0.098539	0.529712
C131	C	1.249697	0.431872	0.863046
C132	C	1.583031	0.765206	1.196379
C133	C	0.992256	0.114794	0.587731
C134	C	1.325590	0.448127	0.921065
C135	C	1.658923	0.781460	1.254398
C136	C	1.068180	0.131141	0.470337
C137	C	1.401513	0.464475	0.803671
C138	C	1.734847	0.797808	1.137004
C139	C	0.976025	0.038909	0.470321
C140	C	1.309358	0.372242	0.803655
C141	C	1.642692	0.705576	1.136988
C142	C	1.051979	0.055168	0.529631
C143	C	1.385312	0.388502	0.862965
C144	C	1.718645	0.721835	1.196298
C145	C	0.992233	0.114825	0.311250
C146	C	1.325567	0.448158	0.644583
C147	C	1.658900	0.781491	0.977917
C148	C	0.992274	0.114780	0.688786
C149	C	1.325608	0.448114	1.022120
C150	C	1.658941	0.781447	1.355453
H151	H	0.525258	0.263261	0.000095
H152	H	0.858592	0.596595	0.333428
H153	H	1.191925	0.929928	0.666761
H154	H	0.459422	-0.033727	0.000100
H155	H	0.792755	0.299606	0.333434
H156	H	1.126088	0.632940	0.666767
Br157	Br	0.953103	-0.068032	0.426797
Br158	Br	1.286437	0.265301	0.760130
Br159	Br	1.619770	0.598634	1.093463
H160	H	0.852189	0.084784	0.555795
H161	H	1.185523	0.418117	0.889129
H162	H	1.518856	0.751450	1.222462
H163	H	0.430136	0.187664	0.134750
H164	H	0.763469	0.520997	0.468084
H165	H	1.096802	0.854330	0.801417
H166	H	0.554362	0.042005	-0.134687
H167	H	0.887695	0.375339	0.198647
H168	H	1.221029	0.708672	0.531980
H169	H	0.554198	0.042041	0.134866
H170	H	0.887532	0.375374	0.468199
H171	H	1.220865	0.708708	0.801533
Br172	Br	0.410881	0.209865	-0.175808
Br173	Br	0.744215	0.543199	0.157525
Br174	Br	1.077548	0.876532	0.490859
H175	H	1.140702	-0.352179	-0.000055
H176	H	1.474035	-0.018846	0.333278
H177	H	1.807369	0.314488	0.666612
H178	H	1.065107	-0.447322	-0.134705
H179	H	1.398441	-0.113989	0.198628
H180	H	1.731774	0.219344	0.531962
H181	H	0.919484	-0.323259	-0.134838
H182	H	1.252817	0.010074	0.198496
H183	H	1.586150	0.343407	0.531829
Br184	Br	0.798330	-0.428326	-0.000091
Br185	Br	1.131664	-0.094993	0.333242
Br186	Br	1.464997	0.238340	0.666576
H187	H	0.919449	-0.323058	0.134713
H188	H	1.252783	0.010276	0.468047
H189	H	1.586116	0.343609	0.801380
H190	H	1.102503	0.004726	0.555481
H191	H	1.435836	0.338060	0.888815
H192	H	1.769170	0.671393	1.222148
H193	H	1.065068	-0.447250	0.134709
H194	H	1.398402	-0.113917	0.468042
H195	H	1.731735	0.219416	0.801375
H196	H	0.882158	0.224919	0.444373
H197	H	1.215491	0.558252	0.777706
H198	H	1.548825	0.891586	1.111040
H199	H	1.022199	0.254920	0.555814
H200	H	1.355532	0.588253	0.889147
H201	H	1.688865	0.921587	1.222481
H202	H	1.132369	0.144974	0.444366
H203	H	1.465702	0.478307	0.777700
H204	H	1.799035	0.811641	1.111033
