data_functionalizedCrystal
_audit_creation_method	'MofGen! by Chris Wilmer'
_symmetry_space_group_name_H-M	'P1'
_symmetry_Int_Tables_number	1
_symmetry_cell_setting	triclinic
loop_
_symmetry_equiv_pos_as_xyz
  x,y,z
_cell_length_a	14.044220
_cell_length_b	14.044209
_cell_length_c	12.503572
_cell_angle_alpha	93.841427
_cell_angle_beta	93.835250
_cell_angle_gamma	86.811584
loop_
_atom_site_label
_atom_site_type_symbol
_atom_site_fract_x
_atom_site_fract_y
_atom_site_fract_z
O1	O	1.282199	-0.225116	0.089218
O2	O	1.532199	0.024884	0.339218
O3	O	1.782199	0.274884	0.589218
O4	O	2.032199	0.524884	0.839218
O5	O	1.005529	-0.216809	0.089244
O6	O	1.255529	0.033191	0.339244
O7	O	1.505529	0.283191	0.589244
O8	O	1.755529	0.533191	0.839244
O9	O	1.139711	-0.082627	0.089216
O10	O	1.389711	0.167373	0.339216
O11	O	1.639711	0.417373	0.589216
O12	O	1.889711	0.667373	0.839216
O13	O	1.148016	-0.359297	0.089246
O14	O	1.398016	-0.109297	0.339246
O15	O	1.648016	0.140703	0.589246
O16	O	1.898016	0.390703	0.839246
O17	O	1.129621	-0.092737	-0.089424
O18	O	1.379621	0.157263	0.160576
O19	O	1.629621	0.407263	0.410576
O20	O	1.879621	0.657263	0.660576
O21	O	0.995439	-0.226918	-0.089395
O22	O	1.245439	0.023082	0.160605
O23	O	1.495439	0.273082	0.410605
O24	O	1.745439	0.523082	0.660605
O25	O	1.272109	-0.235225	-0.089422
O26	O	1.522109	0.014775	0.160578
O27	O	1.772109	0.264775	0.410578
O28	O	2.022109	0.514775	0.660578
Cu29	Cu	1.132853	-0.231995	-0.105720
Cu30	Cu	1.382853	0.018005	0.144280
Cu31	Cu	1.632853	0.268005	0.394280
Cu32	Cu	1.882853	0.518005	0.644280
Cu33	Cu	1.144785	-0.220039	0.105542
Cu34	Cu	1.394785	0.029961	0.355542
Cu35	Cu	1.644785	0.279961	0.605542
Cu36	Cu	1.894785	0.529961	0.855542
O37	O	1.137927	-0.369407	-0.089394
O38	O	1.387927	-0.119407	0.160606
O39	O	1.637927	0.130593	0.410606
O40	O	1.887927	0.380593	0.660606
C41	C	0.964862	-0.218228	-0.000072
C42	C	1.214862	0.031772	0.249928
C43	C	1.464862	0.281772	0.499928
C44	C	1.714862	0.531772	0.749928
C45	C	0.858720	-0.207382	-0.000063
C46	C	1.108720	0.042618	0.249937
C47	C	1.358720	0.292618	0.499937
C48	C	1.608720	0.542618	0.749937
C49	C	1.131031	-0.052060	-0.000105
C50	C	1.381031	0.197940	0.249895
C51	C	1.631031	0.447940	0.499895
C52	C	1.881031	0.697940	0.749895
C53	C	1.120187	0.054082	-0.000109
C54	C	1.370187	0.304082	0.249891
C55	C	1.620187	0.554082	0.499891
C56	C	1.870187	0.804082	0.749891
C57	C	0.664381	-0.187558	-0.000086
C58	C	0.914381	0.062442	0.249914
C59	C	1.164381	0.312442	0.499914
C60	C	1.414381	0.562442	0.749914
C61	C	0.613251	-0.264472	-0.000082
C62	C	0.863251	-0.014472	0.249918
C63	C	1.113251	0.235528	0.499918
C64	C	1.363251	0.485528	0.749918
C65	C	0.505114	-0.253441	-0.000095
C66	C	0.755114	-0.003441	0.249905
C67	C	1.005114	0.246559	0.499905
C68	C	1.255114	0.496559	0.749905
C69	C	0.772528	-0.198587	-0.000073
C70	C	1.022528	0.051413	0.249927
C71	C	1.272528	0.301413	0.499927
C72	C	1.522528	0.551413	0.749927
C73	C	1.100363	0.248421	-0.000098
C74	C	1.350363	0.498421	0.249902
C75	C	1.600363	0.748421	0.499902
C76	C	1.850363	0.998421	0.749902
C77	C	1.177277	0.299550	-0.000104
C78	C	1.427277	0.549550	0.249896
C79	C	1.677277	0.799550	0.499896
C80	C	1.927277	1.049550	0.749896
C81	C	1.166247	0.407687	-0.000098
C82	C	1.416247	0.657687	0.249902
C83	C	1.666247	0.907687	0.499902
C84	C	1.916247	1.157687	0.749902
C85	C	1.111392	0.140274	-0.000104
C86	C	1.361392	0.390274	0.249896
C87	C	1.611392	0.640274	0.499896
C88	C	1.861392	0.890274	0.749896
C89	C	1.312776	-0.233806	-0.000103
C90	C	1.562776	0.016194	0.249897
C91	C	1.812776	0.266194	0.499897
C92	C	2.062776	0.516194	0.749897
C93	C	1.418918	-0.244651	-0.000106
C94	C	1.668918	0.005349	0.249894
C95	C	1.918918	0.255349	0.499894
C96	C	2.168918	0.505349	0.749894
N97	N	1.124467	-0.240404	-0.254311
N98	N	1.374467	0.009596	-0.004311
N99	N	1.624467	0.259596	0.245689
N100	N	1.874467	0.509596	0.495689
C101	C	1.146609	0.600026	-0.000079
C102	C	1.396609	0.850026	0.249921
C103	C	1.646609	1.100026	0.499921
C104	C	1.896609	1.350026	0.749921
C105	C	1.157458	0.493883	-0.000093
C106	C	1.407458	0.743883	0.249907
C107	C	1.657458	0.993883	0.499907
C108	C	1.907458	1.243883	0.749907
C109	C	1.112132	-0.252782	-0.473423
C110	C	1.362132	-0.002782	-0.223423
C111	C	1.612132	0.247218	0.026577
C112	C	1.862132	0.497218	0.276577
C113	C	1.165510	-0.199248	-0.526762
C114	C	1.415510	0.050752	-0.276762
C115	C	1.665510	0.300752	-0.026762
C116	C	1.915510	0.550752	0.223238
C117	C	1.158646	-0.206135	-0.648683
C118	C	1.408646	0.043865	-0.398683
C119	C	1.658646	0.293865	-0.148683
C120	C	1.908646	0.543865	0.101317
C121	C	1.118994	-0.245896	-0.351490
C122	C	1.368994	0.004104	-0.101490
C123	C	1.618994	0.254104	0.148510
C124	C	1.868994	0.504104	0.398510
N125	N	1.153178	-0.211623	0.254133
N126	N	1.403178	0.038377	0.504133
N127	N	1.653178	0.288377	0.754133
N128	N	1.903178	0.538377	1.004133
H129	H	0.650690	-0.338604	-0.000069
H130	H	0.900690	-0.088604	0.249931
H131	H	1.150690	0.161396	0.499931
H132	H	1.400690	0.411396	0.749931
C133	C	1.234222	-0.130355	-0.464753
C134	C	1.484222	0.119645	-0.214753
C135	C	1.734222	0.369645	0.035247
C136	C	1.984222	0.619645	0.285247
N137	N	1.285979	-0.078473	-0.418043
N138	N	1.535979	0.171527	-0.168043
N139	N	1.785979	0.421527	0.081957
N140	N	2.035979	0.671527	0.331957
H141	H	1.251414	0.262115	-0.000038
H142	H	1.501414	0.512115	0.249962
H143	H	1.751414	0.762115	0.499962
H144	H	2.001414	1.012115	0.749962
H145	H	1.026236	0.285858	-0.000089
H146	H	1.276236	0.535858	0.249911
H147	H	1.526236	0.785858	0.499911
H148	H	1.776236	1.035858	0.749911
H149	H	0.626944	-0.113431	-0.000100
H150	H	0.876944	0.136569	0.249900
H151	H	1.126944	0.386569	0.499900
H152	H	1.376944	0.636569	0.749900
H153	H	1.061284	-0.303783	-0.519320
H154	H	1.311284	-0.053783	-0.269320
H155	H	1.561284	0.196217	-0.019320
H156	H	1.811284	0.446217	0.230680
