data_functionalizedCrystal
_audit_creation_method	'MofGen! by Chris Wilmer'
_symmetry_space_group_name_H-M	'P1'
_symmetry_Int_Tables_number	1
_symmetry_cell_setting	triclinic
loop_
_symmetry_equiv_pos_as_xyz
  x,y,z
_cell_length_a	15.297327
_cell_length_b	19.077105
_cell_length_c	19.076919
_cell_angle_alpha	89.923776
_cell_angle_beta	101.510342
_cell_angle_gamma	82.181934
loop_
_atom_site_label
_atom_site_type_symbol
_atom_site_fract_x
_atom_site_fract_y
_atom_site_fract_z
Zn1	Zn	-0.436205	-0.997096	-0.496821
Zn2	Zn	0.063795	-0.497096	0.003179
Zn3	Zn	-0.581179	-0.981405	-0.398060
Zn4	Zn	-0.081179	-0.481405	0.101940
Zn5	Zn	-0.424127	-0.886008	-0.373052
Zn6	Zn	0.075873	-0.386008	0.126948
Zn7	Zn	-0.580636	-0.859303	-0.510742
Zn8	Zn	-0.080636	-0.359303	-0.010742
O9	O	-0.505537	-0.930953	-0.444669
O10	O	-0.005537	-0.430953	0.055331
O11	O	-0.460719	-1.092606	-0.488360
O12	O	0.039281	-0.592606	0.011640
O13	O	-0.555519	-0.973359	-0.295787
O14	O	-0.055519	-0.473359	0.204213
O15	O	-0.299557	-0.918487	-0.373179
O16	O	0.200443	-0.418487	0.126821
O17	O	-0.567231	-1.081077	-0.415800
O18	O	-0.067231	-0.581077	0.084200
O19	O	-0.308431	-1.000103	-0.464111
O20	O	0.191569	-0.500103	0.035889
O21	O	-0.440133	-0.903272	-0.277414
O22	O	0.059867	-0.403272	0.222586
O23	O	-0.439605	-0.784875	-0.386678
O24	O	0.060395	-0.284875	0.113322
O25	O	-0.566304	-0.872972	-0.607851
O26	O	-0.066304	-0.372972	-0.107851
O27	O	-0.554592	-0.765254	-0.487838
O28	O	-0.054592	-0.265254	0.012162
O29	O	-0.460192	-0.974208	-0.597623
O30	O	0.039808	-0.474208	-0.097623
O31	O	-0.707279	-0.947464	-0.429299
O32	O	-0.207279	-0.447464	0.070701
O33	O	-0.706880	-0.857757	-0.512086
O34	O	-0.206880	-0.357757	-0.012086
C35	C	-0.495730	-0.749760	-0.436055
C36	C	0.004270	-0.249760	0.063945
C37	C	-0.491557	-0.672241	-0.432390
C38	C	0.008443	-0.172241	0.067610
C39	C	-0.739796	-0.898028	-0.474933
C40	C	-0.239796	-0.398028	0.025067
C41	C	-0.840018	-0.884005	-0.487907
C42	C	-0.340018	-0.384005	0.012093
C43	C	-0.514535	-0.922362	-0.629112
C44	C	-0.014535	-0.422362	-0.129112
C45	C	-0.518369	-0.918700	-0.707711
C46	C	-0.018369	-0.418700	-0.207711
C47	C	-1.123247	-1.031451	-0.352197
C48	C	-0.623247	-0.531451	0.147803
C49	C	-1.029084	-1.044626	-0.340004
C50	C	-0.529084	-0.544626	0.159996
C51	C	-0.981812	-1.004472	-0.376979
C52	C	-0.481812	-0.504472	0.123021
C53	C	-1.028714	-0.951141	-0.426149
C54	C	-0.528714	-0.451141	0.073851
C55	C	-1.122886	-0.937961	-0.438339
C56	C	-0.622886	-0.437961	0.061661
C57	C	-0.981452	-0.910982	-0.463121
C58	C	-0.481452	-0.410982	0.036879
C59	C	-1.028353	-0.857651	-0.512291
C60	C	-0.528353	-0.357651	-0.012291
C61	C	-1.122517	-0.844474	-0.524480
C62	C	-0.622517	-0.344474	-0.024480
C63	C	-1.169788	-0.884628	-0.487505
C64	C	-0.669788	-0.384628	0.012495
C65	C	-0.887280	-0.924162	-0.450930
C66	C	-0.387280	-0.424162	0.049070
C67	C	-0.886919	-0.830672	-0.537073
C68	C	-0.386919	-0.330672	-0.037073
C69	C	-0.981082	-0.817497	-0.549266
C70	C	-0.481082	-0.317497	-0.049266
C71	C	-0.270365	-0.964025	-0.414303
C72	C	0.229635	-0.464025	0.085697
C73	C	-0.170148	-0.978118	-0.401362
C74	C	0.329852	-0.478118	0.098638
C75	C	-0.515383	-1.112853	-0.453317
C76	C	-0.015383	-0.612853	0.046683
C77	C	-0.519579	-1.190368	-0.457002
C78	C	-0.019579	-0.690368	0.042998
C79	C	-0.549547	-0.625617	-0.483277
C80	C	-0.049547	-0.125617	0.016723
C81	C	-0.545614	-0.552781	-0.479834
C82	C	-0.045614	-0.052781	0.020166
C83	C	-0.483695	-0.526571	-0.425502
C84	C	0.016305	-0.026571	0.074498
C85	C	-0.425698	-0.573201	-0.374613
C86	C	0.074302	-0.073201	0.125387
C87	C	-0.429627	-0.646036	-0.378058
C88	C	0.070373	-0.146036	0.121942
C89	C	-0.465511	-0.309833	-0.409558
C90	C	0.034489	0.190167	0.090442
C91	C	-0.461589	-0.236992	-0.406115
C92	C	0.038411	0.263008	0.093885
C93	C	-0.581504	-0.216578	-0.511338
C94	C	-0.081504	0.283422	-0.011338
C95	C	-0.585431	-0.289415	-0.514776
C96	C	-0.085431	0.210585	-0.014776
C97	C	-0.527431	-0.336039	-0.463889
C98	C	-0.027431	0.163961	0.036111
N99	N	-0.479676	-0.452121	-0.421981
N100	N	0.020324	0.047879	0.078019
N101	N	-0.531447	-0.410488	-0.467414
N102	N	-0.031447	0.089512	0.032586
C103	C	-0.464926	-0.969686	-0.739314
C104	C	0.035074	-0.469686	-0.239314
C105	C	-0.468525	-0.966238	-0.813165
C106	C	0.031475	-0.466238	-0.313165
C107	C	-0.525572	-0.911807	-0.855413
C108	C	-0.025572	-0.411807	-0.355413
C109	C	-0.579017	-0.860816	-0.823806
C110	C	-0.079017	-0.360816	-0.323806
C111	C	-0.575413	-0.864262	-0.749955
C112	C	-0.075413	-0.364262	-0.249955
C113	C	-0.542271	-0.895847	-1.076853
C114	C	-0.042271	-0.395847	-0.576853
C115	C	-0.545873	-0.892406	-1.150709
C116	C	-0.045873	-0.392406	-0.650709
C117	C	-0.435379	-0.997828	-1.140063
C118	C	0.064621	-0.497828	-0.640063
C119	C	-0.431784	-1.001271	-1.066212
C120	C	0.068216	-0.501271	-0.566212
C121	C	-0.485225	-0.950279	-1.034610
C122	C	0.014775	-0.450279	-0.534610
N123	N	-0.529254	-0.908282	-0.930901
N124	N	-0.029254	-0.408282	-0.430901
N125	N	-0.481538	-0.953801	-0.959123
N126	N	0.018462	-0.453801	-0.459123
C127	C	-0.496511	-0.939560	-0.260936
C128	C	0.003489	-0.439560	0.239064
C129	C	-0.492430	-0.943392	-0.182311
C130	C	0.007570	-0.443392	0.317689
H131	H	-0.905140	-1.015202	-0.367047
H132	H	-0.405140	-0.515202	0.132953
O133	O	-0.633052	-0.809262	-0.715872
O134	O	-0.133052	-0.309262	-0.215872
H135	H	-0.678972	-0.835585	-0.689626
H136	H	-0.178972	-0.335585	-0.189626
O137	O	-1.174219	-1.074760	-0.312315
O138	O	-0.674219	-0.574760	0.187685
H139	H	-1.159621	-1.131456	-0.324738
H140	H	-0.659621	-0.631456	0.175262
H141	H	-0.599971	-0.646951	-0.527518
H142	H	-0.099971	-0.146951	-0.027518
O143	O	-0.835954	-0.787352	-0.576959
O144	O	-0.335954	-0.287352	-0.076959
H145	H	-0.796449	-0.822868	-0.608892
H146	H	-0.296449	-0.322868	-0.108892
H147	H	-0.418290	-0.347786	-0.368118
H148	H	0.081710	0.152214	0.131882
H149	H	-0.849101	-0.967585	-0.410896
H150	H	-0.349101	-0.467585	0.089104
H151	H	-0.592837	-0.514822	-0.521271
H152	H	-0.092837	-0.014822	-0.021271
O153	O	-0.978497	-1.102149	-0.286981
O154	O	-0.478497	-0.602149	0.213019
H155	H	-1.027185	-1.127862	-0.263324
H156	H	-0.527185	-0.627862	0.236676
H157	H	-0.375279	-0.551855	-0.330377
H158	H	0.124721	-0.051855	0.169623
H159	H	-1.246463	-0.873905	-0.497431
H160	H	-0.746463	-0.373905	0.002569
H161	H	-0.585801	-0.854333	-1.051135
H162	H	-0.085801	-0.354333	-0.551135
H163	H	-0.635854	-0.310749	-0.559018
H164	H	-0.135854	0.189251	-0.059018
H165	H	-1.160700	-0.801040	-0.564509
H166	H	-0.660700	-0.301040	-0.064509
O167	O	-0.644104	-0.166306	-0.566209
O168	O	-0.144104	0.333694	-0.066209
H169	H	-0.632255	-0.179864	-0.620418
H170	H	-0.132255	0.320136	-0.120418
O171	O	-0.640543	-0.802106	-0.869374
O172	O	-0.140543	-0.302106	-0.369374
H173	H	-0.677093	-0.767226	-0.834988
H174	H	-0.177093	-0.267226	-0.334988
H175	H	-1.019283	-0.774074	-0.589301
H176	H	-0.519283	-0.274074	-0.089301
O177	O	-0.370254	-1.059984	-1.020650
O178	O	0.129746	-0.559984	-0.520650
H179	H	-0.321052	-1.036795	-0.979589
H180	H	0.178948	-0.536795	-0.479589
O181	O	-0.607392	-0.833686	-1.196278
O182	O	-0.107392	-0.333686	-0.696278
H183	H	-0.656605	-0.856873	-1.237332
H184	H	-0.156605	-0.356873	-0.737332
H185	H	-0.411156	-0.215656	-0.361874
H186	H	0.088844	0.284344	0.138126
H187	H	-0.382401	-0.683998	-0.336624
H188	H	0.117599	-0.183998	0.163376
H189	H	-0.418475	-1.014012	-0.704920
H190	H	0.081525	-0.514012	-0.204920
H191	H	-0.425008	-1.007757	-0.838892
H192	H	0.074992	-0.507757	-0.338892
H193	H	-0.391869	-1.039343	-1.165801
H194	H	0.108131	-0.539343	-0.665801
