data_functionalizedCrystal
_audit_creation_method	'MofGen! by Chris Wilmer'
_symmetry_space_group_name_H-M	'P1'
_symmetry_Int_Tables_number	1
_symmetry_cell_setting	triclinic
loop_
_symmetry_equiv_pos_as_xyz
  x,y,z
_cell_length_a	10.654550
_cell_length_b	10.654551
_cell_length_c	9.730223
_cell_angle_alpha	90.002058
_cell_angle_beta	90.001993
_cell_angle_gamma	84.485179
loop_
_atom_site_label
_atom_site_type_symbol
_atom_site_fract_x
_atom_site_fract_y
_atom_site_fract_z
O1	O	1.667839	0.176398	0.114266
O2	O	1.302360	0.193204	0.114272
O3	O	1.493502	0.002061	0.114266
O4	O	1.476697	0.367540	0.114272
O5	O	1.493492	0.002058	-0.114314
O6	O	1.302350	0.193200	-0.114308
O7	O	1.667829	0.176394	-0.114314
Zn8	Zn	1.485088	0.184797	-0.150603
Zn9	Zn	1.485101	0.184801	0.150561
O10	O	1.476687	0.367536	-0.114308
C11	C	1.255557	0.191968	-0.000017
C12	C	1.116114	0.188276	-0.000015
C13	C	1.492262	-0.044738	-0.000022
C14	C	1.488570	-0.184181	-0.000016
C15	C	1.486842	-0.249683	0.124585
C16	C	1.483362	-0.380704	0.124586
C17	C	1.483343	-0.380709	-0.124625
C18	C	1.486814	-0.249690	-0.124624
C19	C	1.714632	0.177630	-0.000022
C20	C	1.854075	0.181322	-0.000016
C21	C	1.933560	0.068780	-0.000012
C22	C	2.064581	0.072257	-0.000017
C23	C	2.036619	0.300826	-0.000022
C24	C	1.905600	0.297348	-0.000027
C25	C	1.477926	0.414336	-0.000017
C26	C	1.481619	0.553779	-0.000015
N27	N	1.485088	0.184793	-0.356140
C28	C	1.569761	0.100187	-0.571960
C29	C	1.569753	0.100189	-0.428078
C30	C	1.400434	0.269410	-0.428092
C31	C	1.400449	0.269413	-0.571972
N32	N	1.485111	0.184795	0.356097
H33	H	1.488269	-0.196350	0.226049
H34	H	1.331503	0.338303	-0.369512
H35	H	1.488213	-0.196356	-0.226095
O36	O	1.481468	-0.451354	0.258975
H37	H	1.483267	-0.383784	0.345616
O38	O	1.481487	-0.451367	-0.259021
H39	H	1.478805	-0.553481	-0.238091
O40	O	1.309177	0.360705	-0.649584
H41	H	1.250303	0.419544	-0.575397
H42	H	1.891613	-0.025696	-0.000006
H43	H	2.129293	-0.019386	-0.000016
O44	O	1.661076	0.008932	-0.649548
H45	H	1.722566	0.062376	-0.715093
O46	O	1.661044	0.008925	-0.350477
H47	H	1.719905	-0.049917	-0.424672
H48	H	1.840880	0.388999	-0.000035
O49	O	2.092191	0.425967	-0.000020
H50	H	2.196650	0.409481	-0.000001
