data_functionalizedCrystal
_audit_creation_method	'MofGen! by Chris Wilmer'
_symmetry_space_group_name_H-M	'P1'
_symmetry_Int_Tables_number	1
_symmetry_cell_setting	triclinic
loop_
_symmetry_equiv_pos_as_xyz
  x,y,z
_cell_length_a	13.339070
_cell_length_b	14.519709
_cell_length_c	11.804365
_cell_angle_alpha	101.851959
_cell_angle_beta	74.875130
_cell_angle_gamma	99.654719
loop_
_atom_site_label
_atom_site_type_symbol
_atom_site_fract_x
_atom_site_fract_y
_atom_site_fract_z
O1	O	1.363544	0.449147	-0.099080
O2	O	1.068905	0.388436	-0.099072
O3	O	1.224034	0.286542	-0.099066
O4	O	1.208414	0.551041	-0.099087
O5	O	1.183194	0.313329	0.098989
O6	O	1.028065	0.415223	0.098982
O7	O	1.322704	0.475934	0.098974
Cu8	Cu	1.171656	0.448024	0.117062
Cu9	Cu	1.219953	0.416345	-0.117160
O10	O	1.167575	0.577828	0.098968
C11	C	1.010777	0.391574	-0.000044
C12	C	0.898419	0.361005	-0.000040
C13	C	0.534064	0.598691	-0.000078
C14	C	0.639630	0.627415	-0.000085
C15	C	0.704332	0.560815	-0.000073
C16	C	0.663459	0.465486	-0.000055
C17	C	0.557884	0.436759	-0.000058
C18	C	0.728152	0.398882	-0.000053
C19	C	0.687279	0.303554	-0.000035
C20	C	0.581714	0.274831	-0.000037
C21	C	0.517012	0.341431	-0.000048
C22	C	0.833727	0.427610	-0.000051
C23	C	0.857547	0.265677	-0.000031
C24	C	0.751981	0.236954	-0.000024
C25	C	1.202886	0.265390	-0.000038
C26	C	1.200704	0.162454	-0.000038
C27	C	1.192677	-0.214489	-0.000068
C28	C	1.194906	-0.109613	-0.000059
C29	C	1.196690	-0.026021	-0.000052
C30	C	1.198920	0.078862	-0.000045
C31	C	1.380832	0.472796	-0.000057
C32	C	1.493192	0.503364	-0.000068
C33	C	1.188723	0.598979	-0.000062
C34	C	1.190907	0.701915	-0.000071
N35	N	1.137693	0.470307	0.281801
N36	N	1.253924	0.394058	-0.281899
C37	C	1.335480	0.340531	0.655758
C38	C	1.361172	0.323670	0.531097
C39	C	1.305304	0.360328	0.468767
C40	C	1.223741	0.413850	0.531110
C41	C	1.198052	0.430719	0.655783
C42	C	1.167876	0.450515	0.468792
C43	C	1.086313	0.504037	0.531135
C44	C	1.060628	0.520903	0.655795
C45	C	1.116496	0.484245	0.718126
C46	C	1.193565	0.433646	0.344119
C47	C	1.056137	0.523834	0.344144
C48	C	1.030445	0.540695	0.468805
H49	H	0.790289	0.584207	-0.000082
O50	O	1.001947	0.559607	0.283666
C51	C	1.012263	0.659279	0.314134
H52	H	1.086234	0.685141	0.348384
H53	H	1.017596	0.691505	0.232146
H54	H	0.941304	0.681788	0.386508
O55	O	1.440238	0.271429	0.470788
C56	C	1.417115	0.180096	0.501563
H57	H	1.328987	0.163653	0.535729
H58	H	1.445574	0.125538	0.419750
H59	H	1.458085	0.177244	0.574091
H60	H	0.718688	0.159335	-0.000019
O61	O	0.981532	0.573032	0.716412
C62	C	1.020970	0.653593	0.788527
H63	H	1.108529	0.670535	0.750935
H64	H	0.979510	0.716531	0.789948
H65	H	1.006760	0.638858	0.883009
O66	O	0.920253	0.200845	-0.000069
C67	C	0.861538	0.110550	-0.000035
H68	H	0.790525	0.108735	-0.037536
H69	H	0.912233	0.054448	-0.057529
H70	H	0.834376	0.095451	0.094984
H71	H	1.380966	0.310695	0.706515
H72	H	0.672904	0.705029	-0.000109
O73	O	0.471060	0.663262	-0.000039
C74	C	0.369127	0.617457	-0.000073
H75	H	0.357218	0.549025	0.037433
H76	H	0.309533	0.666022	0.057417
H77	H	0.358205	0.600288	-0.095092
O78	O	0.873514	0.520199	0.000093
C79	C	0.912689	0.555548	0.102680
H80	H	0.931795	0.494184	0.136891
H81	H	0.986641	0.606893	0.079603
H82	H	0.851311	0.594149	0.174499
O83	O	0.951152	0.592570	0.529504
C84	C	0.873762	0.536893	0.601613
H85	H	0.910102	0.477556	0.620276
H86	H	0.839759	0.583155	0.689284
H87	H	0.808847	0.504949	0.553592
O88	O	1.272664	0.381486	0.283662
C89	C	1.249733	0.290085	0.314228
H90	H	1.161632	0.273527	0.348489
H91	H	1.278190	0.235639	0.232285
H92	H	1.290833	0.287178	0.386621
H93	H	0.548441	0.197207	-0.000035
O94	O	0.414476	0.313374	0.000003
C95	C	0.392279	0.214950	-0.000024
H96	H	0.452127	0.190723	0.037477
H97	H	0.310516	0.198590	0.057474
H98	H	0.396243	0.175947	-0.095040
O99	O	1.330359	0.343821	0.347673
C100	C	1.414342	0.288740	0.306013
H101	H	1.417103	0.248030	0.377859
H102	H	1.402957	0.236526	0.222624
H103	H	1.490877	0.337122	0.283865
H104	H	1.095575	0.497970	0.819635
