data_functionalizedCrystal
_audit_creation_method	'MofGen! by Chris Wilmer'
_symmetry_space_group_name_H-M	'P1'
_symmetry_Int_Tables_number	1
_symmetry_cell_setting	triclinic
loop_
_symmetry_equiv_pos_as_xyz
  x,y,z
_cell_length_a	17.077404
_cell_length_b	19.077068
_cell_length_c	17.077396
_cell_angle_alpha	92.266197
_cell_angle_beta	89.982756
_cell_angle_gamma	92.327269
loop_
_atom_site_label
_atom_site_type_symbol
_atom_site_fract_x
_atom_site_fract_y
_atom_site_fract_z
Zn1	Zn	1.187457	-0.280191	-0.456376
Zn2	Zn	1.687457	0.219809	0.043624
Zn3	Zn	1.182084	-0.397897	-0.330374
Zn4	Zn	1.682084	0.102103	0.169626
Zn5	Zn	1.056193	-0.280218	-0.325125
Zn6	Zn	1.556193	0.219782	0.174875
Zn7	Zn	1.050874	-0.397853	-0.461596
Zn8	Zn	1.550874	0.102147	0.038404
O9	O	1.119152	-0.339040	-0.393368
O10	O	1.619152	0.160960	0.106632
O11	O	1.296591	-0.295812	-0.439673
O12	O	1.796591	0.204188	0.060327
O13	O	1.165362	-0.382315	-0.219832
O14	O	1.665362	0.117685	0.280168
O15	O	1.078080	-0.181723	-0.338154
O16	O	1.578080	0.318277	0.161846
O17	O	1.292644	-0.382290	-0.347101
O18	O	1.792644	0.117710	0.152899
O19	O	1.174519	-0.181704	-0.434583
O20	O	1.674519	0.318296	0.065417
O21	O	1.072870	-0.295857	-0.215975
O22	O	1.572870	0.204143	0.284025
O23	O	0.945641	-0.295815	-0.343216
O24	O	1.445641	0.204185	0.156784
O25	O	1.069014	-0.382216	-0.570749
O26	O	1.569014	0.117784	-0.070749
O27	O	0.941733	-0.382241	-0.443481
O28	O	1.441733	0.117759	0.056519
O29	O	1.169361	-0.295770	-0.566914
O30	O	1.669361	0.204230	-0.066914
O31	O	1.160205	-0.496382	-0.352163
O32	O	1.660205	0.003618	0.147837
O33	O	1.063805	-0.496350	-0.448571
O34	O	1.563805	0.003650	0.051429
C35	C	0.915205	-0.339027	-0.393345
C36	C	1.415205	0.160973	0.106655
C37	C	0.827954	-0.339038	-0.393355
C38	C	1.327954	0.160962	0.106645
C39	C	0.784947	-0.384108	-0.445486
C40	C	1.284947	0.115892	0.054514
C41	C	0.702966	-0.384110	-0.445498
C42	C	1.202966	0.115890	0.054502
C43	C	0.663995	-0.339044	-0.393376
C44	C	1.163995	0.160956	0.106624
C45	C	0.707008	-0.293969	-0.341243
C46	C	1.207008	0.206031	0.158757
C47	C	0.788987	-0.293965	-0.341235
C48	C	1.288987	0.206035	0.158765
C49	C	0.536137	-0.293983	-0.341263
C50	C	1.036137	0.206017	0.158737
C51	C	0.454153	-0.293988	-0.341270
C52	C	0.954153	0.206012	0.158730
C53	C	0.450117	-0.384128	-0.445526
C54	C	0.950117	0.115872	0.054474
C55	C	0.532096	-0.384124	-0.445518
C56	C	1.032096	0.115876	0.054482
C57	C	0.575103	-0.339049	-0.393384
C58	C	1.075103	0.160951	0.106616
C59	C	1.110866	-0.521903	-0.401520
C60	C	1.610866	-0.021903	0.098480
C61	C	1.107393	-0.600133	-0.405034
C62	C	1.607393	-0.100133	0.094966
C63	C	1.155990	-0.636879	-0.356533
C64	C	1.655990	-0.136879	0.143467
C65	C	1.152728	-0.710384	-0.359842
C66	C	1.652728	-0.210384	0.140158
C67	C	1.100864	-0.747143	-0.411651
C68	C	1.600864	-0.247143	0.088349
C69	C	1.052265	-0.710392	-0.460158
C70	C	1.552265	-0.210392	0.039842
C71	C	1.055531	-0.636888	-0.456851
C72	C	1.555531	-0.136888	0.043149
C73	C	1.085713	-0.966977	-0.426921
C74	C	1.585713	-0.466977	0.073079
C75	C	1.082448	-1.040486	-0.430222
C76	C	1.582448	-0.540486	0.069778
C77	C	1.182913	-1.040474	-0.329907
C78	C	1.682913	-0.540474	0.170093
C79	C	1.186172	-0.966968	-0.326602
C80	C	1.686172	-0.466968	0.173398
C81	C	1.137575	-0.930224	-0.375112
C82	C	1.637575	-0.430224	0.124888
N83	N	1.097527	-0.822277	-0.415033
N84	N	1.597527	-0.322277	0.084967
N85	N	1.140917	-0.855091	-0.371733
N86	N	1.640917	-0.355091	0.128267
C87	C	1.323896	-0.339053	-0.393391
C88	C	1.823896	0.160947	0.106609
C89	C	1.411145	-0.339059	-0.393400
C90	C	1.911145	0.160941	0.106600
C91	C	1.119194	-0.338985	-0.598110
C92	C	1.619194	0.161015	-0.098110
C93	C	1.119212	-0.338962	-0.685358
C94	C	1.619212	0.161038	-0.185358
C95	C	1.127492	-0.155462	-0.385200
C96	C	1.627492	0.344538	0.114800
C97	C	1.131046	-0.077232	-0.381720
C98	C	1.631046	0.422768	0.118280
C99	C	1.071067	-0.293938	-0.724339
C100	C	1.571067	0.206062	-0.224339
C101	C	1.071080	-0.293922	-0.806319
C102	C	1.571080	0.206078	-0.306319
C103	C	1.119243	-0.338927	-0.849316
C104	C	1.619243	0.161073	-0.349316
C105	C	1.167390	-0.383956	-0.810330
C106	C	1.667390	0.116044	-0.310330
C107	C	1.167372	-0.383975	-0.728352
C108	C	1.667372	0.116025	-0.228352
C109	C	1.167426	-0.383912	-0.981198
C110	C	1.667426	0.116088	-0.481198
C111	C	1.167446	-0.383892	-1.063182
C112	C	1.667446	0.116108	-0.563182
C113	C	1.071134	-0.293859	-1.059166
C114	C	1.571134	0.206141	-0.559166
C115	C	1.071116	-0.293878	-0.977187
C116	C	1.571116	0.206122	-0.477187
C117	C	1.119264	-0.338906	-0.938207
C118	C	1.619264	0.161094	-0.438207
C119	C	1.119158	-0.339043	-0.189420
C120	C	1.619158	0.160957	0.310580
C121	C	1.119301	-0.338868	-0.102163
C122	C	1.619301	0.161132	0.397837
H123	H	0.824003	-0.257260	-0.298789
H124	H	1.324003	0.242740	0.201211
C125	C	1.018135	-0.244368	-0.929892
C126	C	1.518135	0.255632	-0.429892
N127	N	0.978228	-0.207079	-0.894269
N128	N	1.478228	0.292921	-0.394269
H129	H	0.675271	-0.257273	-0.298808
H130	H	1.175271	0.242727	0.201192
C131	C	1.243206	-0.926540	-0.269589
C132	C	1.743206	-0.426540	0.230411
N133	N	1.286156	-0.896089	-0.226636
N134	N	1.786156	-0.396089	0.273364
H135	H	1.031872	-0.257261	-0.838054
H136	H	1.531872	0.242739	-0.338054
C137	C	1.236368	-1.080899	-0.276552
C138	C	1.736368	-0.580899	0.223448
N139	N	1.276634	-1.111347	-0.236364
N140	N	1.776634	-0.611347	0.263636
H141	H	1.031931	-0.257194	-1.090908
H142	H	1.531931	0.242806	-0.590908
H143	H	1.192301	-0.740300	-0.320346
H144	H	1.692301	-0.240300	0.179654
H145	H	1.010039	-0.740326	-0.502345
H146	H	1.510039	-0.240326	-0.002345
C147	C	1.213043	-0.596452	-0.299537
C148	C	1.713043	-0.096452	0.200463
N149	N	1.256019	-0.566004	-0.256608
N150	N	1.756019	-0.066004	0.243392
H151	H	1.040224	-1.070412	-0.472424
H152	H	1.540224	-0.570412	0.027576
C153	C	1.032294	-0.926567	-0.480324
C154	C	1.532294	-0.426567	0.019676
N155	N	0.992072	-0.896128	-0.520565
N156	N	1.492072	-0.396128	-0.020565
C157	C	0.827808	-0.433685	-0.502825
C158	C	1.327808	0.066315	-0.002825
N159	N	0.860089	-0.471026	-0.546017
N160	N	1.360089	0.028974	-0.046017
H161	H	1.206665	-0.420539	-1.098188
H162	H	1.706665	0.079461	-0.598188
C163	C	1.002070	-0.596468	-0.510208
C164	C	1.502070	-0.096468	-0.010208
N165	N	0.961804	-0.566024	-0.550400
N166	N	1.461804	-0.066024	-0.050400
C167	C	1.018082	-0.244428	-0.677050
C168	C	1.518082	0.255572	-0.177050
N169	N	0.978170	-0.207137	-0.641434
N170	N	1.478170	0.292863	-0.141434
H171	H	0.422424	-0.257284	-0.298836
H172	H	0.922424	0.242716	0.201164
C173	C	0.574963	-0.433702	-0.502851
C174	C	1.074963	0.066298	-0.002851
N175	N	0.607250	-0.471044	-0.546036
N176	N	1.107250	0.028956	-0.046036
C177	C	0.402807	-0.433707	-0.502878
C178	C	0.902807	0.066293	-0.002878
N179	N	0.367169	-0.471050	-0.546073
N180	N	0.867169	0.028950	-0.046073
C181	C	1.220390	-0.433448	-0.938321
C182	C	1.720390	0.066552	-0.438321
N183	N	1.260284	-0.470755	-0.906026
N184	N	1.760284	0.029245	-0.406026
C185	C	1.220339	-0.433502	-0.685473
C186	C	1.720339	0.066498	-0.185473
N187	N	1.260235	-0.470808	-0.653178
N188	N	1.760235	0.029192	-0.153178
H189	H	0.571152	-0.257273	-0.298816
H190	H	1.071152	0.242727	0.201184
H191	H	0.667953	-0.420811	-0.487948
H192	H	1.167953	0.079189	0.012052
H193	H	1.206602	-0.420604	-0.845345
H194	H	1.706602	0.079396	-0.345345
