data_functionalizedCrystal
_audit_creation_method	'MofGen! by Chris Wilmer'
_symmetry_space_group_name_H-M	'P1'
_symmetry_Int_Tables_number	1
_symmetry_cell_setting	triclinic
loop_
_symmetry_equiv_pos_as_xyz
  x,y,z
_cell_length_a	10.489741
_cell_length_b	8.559649
_cell_length_c	7.681481
_cell_angle_alpha	94.937828
_cell_angle_beta	84.227546
_cell_angle_gamma	77.158919
loop_
_atom_site_label
_atom_site_type_symbol
_atom_site_fract_x
_atom_site_fract_y
_atom_site_fract_z
O1	O	-0.056729	2.134608	0.146398
O2	O	0.009068	1.670162	0.146408
O3	O	-0.210540	1.912952	0.146392
O4	O	0.162879	1.891818	0.146414
O5	O	-0.183525	1.882970	-0.146463
O6	O	0.036083	1.640180	-0.146448
O7	O	-0.029713	2.104626	-0.146458
Zn8	Zn	0.007474	1.867643	-0.192950
Zn9	Zn	-0.028120	1.907146	0.192900
O10	O	0.189895	1.861836	-0.146442
C11	C	0.027562	1.595699	-0.000019
C12	C	0.042404	1.418490	-0.000015
C13	C	-0.244396	1.896365	-0.000034
C14	C	-0.385523	1.891589	-0.000031
C15	C	-0.437398	1.737110	-0.000015
C16	C	-0.523885	1.795302	-0.144410
C17	C	-0.550498	1.824899	0.144323
C18	C	-0.470140	1.949833	-0.144545
C19	C	-0.496753	1.979422	0.144318
C20	C	-0.583221	2.037723	-0.000112
C21	C	0.223750	1.878424	-0.000011
C22	C	0.364876	1.883201	-0.000003
C23	C	-0.048208	2.179090	-0.000027
C24	C	-0.063051	2.356300	-0.000019
N25	N	-0.052421	1.934106	0.456233
N26	N	0.031764	1.840695	-0.456282
H27	H	-0.164690	1.438628	-0.000016
C28	C	-0.168537	2.062905	0.557820
N29	N	-0.255995	2.159913	0.634337
H30	H	0.144049	1.336155	0.000000
C31	C	-0.352225	1.565507	-0.000211
N32	N	-0.288069	1.436259	-0.000369
C33	C	0.147863	1.711887	0.442138
N34	N	0.235311	1.614867	0.365617
C35	C	-0.541276	1.690114	-0.309320
N36	N	-0.554371	1.610876	-0.433523
H37	H	-0.434910	2.002629	-0.266756
C38	C	-0.668076	2.209448	-0.000228
N39	N	-0.731993	2.338788	-0.000326
H40	H	-0.585840	1.772014	0.266409
C41	C	-0.479312	2.084535	0.309243
N42	N	-0.466171	2.163696	0.433479
