data_functionalizedCrystal
_audit_creation_method	'MofGen! by Chris Wilmer'
_symmetry_space_group_name_H-M	'P1'
_symmetry_Int_Tables_number	1
_symmetry_cell_setting	triclinic
loop_
_symmetry_equiv_pos_as_xyz
  x,y,z
_cell_length_a	17.052755
_cell_length_b	23.196402
_cell_length_c	23.196401
_cell_angle_alpha	90.013454
_cell_angle_beta	126.513534
_cell_angle_gamma	126.522061
loop_
_atom_site_label
_atom_site_type_symbol
_atom_site_fract_x
_atom_site_fract_y
_atom_site_fract_z
Zr1	Zr	-1.124021	0.379033	-0.251922
O2	O	-1.338241	0.253362	-0.377565
O3	O	-0.909797	0.440859	-0.190112
O4	O	-1.124025	0.407229	-0.343975
O5	O	-1.124011	0.287015	-0.128829
O6	O	-1.124032	0.502096	-0.343978
O7	O	-1.124013	0.286992	-0.223701
O8	O	-0.740817	0.562255	-0.068744
O9	O	-1.507226	0.226857	-0.404063
O10	O	-0.997917	0.509875	-0.191896
O11	O	-0.997910	0.439093	-0.121092
O12	O	-1.250136	0.399498	-0.302247
O13	O	-1.250129	0.328716	-0.231443
Zr14	Zr	-1.124028	0.530373	-0.100617
Zr15	Zr	-1.124032	0.530336	-0.251927
Zr16	Zr	-1.124017	0.379070	-0.100613
Zr17	Zr	-1.393531	0.336761	-0.294185
Zr18	Zr	-0.854517	0.572646	-0.058355
O19	O	-1.338251	0.468547	-0.162428
O20	O	-1.338257	0.468495	-0.377571
O21	O	-1.338235	0.253414	-0.162422
O22	O	-0.909807	0.656045	0.025025
O23	O	-0.909813	0.655992	-0.190118
O24	O	-0.909791	0.440912	0.025031
O25	O	-1.124038	0.622391	-0.223711
O26	O	-1.124023	0.502178	-0.008564
O27	O	-1.124016	0.407310	-0.008562
O28	O	-1.124035	0.622414	-0.128839
O29	O	-1.507235	0.347122	-0.404067
O30	O	-0.740814	0.562284	0.051527
O31	O	-0.740823	0.682550	0.051523
O32	O	-0.740826	0.682521	-0.068748
O33	O	-1.507222	0.226886	-0.283792
O34	O	-1.507231	0.347151	-0.283796
O35	O	-0.997913	0.509909	-0.050293
O36	O	-0.997920	0.580690	-0.121096
O37	O	-1.250139	0.470313	-0.231447
O38	O	-1.250132	0.399532	-0.160644
C39	C	-0.786908	0.507580	-0.123406
C40	C	-0.672493	0.525526	-0.105465
C41	C	-0.525644	0.600840	-0.030173
C42	C	-0.418148	0.617697	-0.013315
C43	C	-0.457491	0.559246	-0.071752
C44	C	-0.604343	0.483934	-0.147049
C45	C	-0.711850	0.467072	-0.163905
C46	C	-0.643697	0.425478	-0.205485
C47	C	-0.790549	0.350166	-0.280782
C48	C	-0.898043	0.333307	-0.297634
C49	C	-0.858699	0.391758	-0.239197
C50	C	-0.536191	0.442341	-0.188629
C51	C	-0.722397	0.308573	-0.322362
C52	C	-0.829893	0.291715	-0.339219
C53	C	-1.124010	0.265446	-0.176264
C54	C	-1.124006	0.201214	-0.176263
C55	C	-0.461139	0.401828	-0.229132
C56	C	-0.575547	0.383886	-0.247069
C57	C	-0.992388	-0.204023	-0.118669
C58	C	-0.992380	-0.143664	-0.118669
C59	C	-1.124034	-0.171097	-0.176270
C60	C	-1.255706	-0.258897	-0.233889
C61	C	-1.255711	-0.319252	-0.233893
C62	C	-1.224894	-0.119608	-0.186806
C63	C	-1.224884	-0.059251	-0.186797
C64	C	-1.124026	0.015058	-0.176264
C65	C	-1.023153	0.029013	-0.165723
C66	C	-1.023157	-0.031343	-0.165727
C67	C	-1.124044	-0.105658	-0.176273
C68	C	-0.992353	0.168294	-0.118654
C69	C	-0.992350	0.228652	-0.118660
C70	C	-1.255680	0.113416	-0.233876
C71	C	-1.255679	0.053062	-0.233874
C72	C	-1.124011	0.080506	-0.176258
C73	C	-1.124029	0.454657	-0.365535
C74	C	-1.124031	0.454642	-0.429770
C75	C	-1.124038	0.643960	-0.176275
C76	C	-1.124043	0.708192	-0.176277
C77	C	-1.255683	0.397030	-0.517544
C78	C	-1.255685	0.397048	-0.577900
C79	C	-1.124028	0.454668	-0.550476
C80	C	-0.992358	0.512291	-0.462686
C81	C	-0.992360	0.512277	-0.402334
C82	C	-1.023157	0.465240	-0.601975
C83	C	-1.023161	0.465248	-0.662329
C84	C	-1.124017	0.454715	-0.736622
C85	C	-1.224893	0.444156	-0.750563
C86	C	-1.224895	0.444143	-0.690210
C87	C	-1.124011	0.454690	-0.615912
C88	C	-1.255679	0.397119	-0.889844
C89	C	-1.255676	0.397143	-0.950199
C90	C	-0.992346	0.512382	-0.834982
C91	C	-0.992353	0.512362	-0.774631
C92	C	-1.124024	0.454727	-0.802067
C93	C	-1.124019	0.454749	0.012995
C94	C	-1.124017	0.454765	0.077230
C95	C	-0.786922	0.696837	-0.123412
C96	C	-0.672512	0.779015	-0.105472
C97	C	-0.786902	0.507626	0.065859
C98	C	-0.672486	0.525588	0.148035
C99	C	-0.786916	0.696883	0.065853
C100	C	-0.672505	0.779077	0.148028
C101	C	-1.461132	0.212524	-0.418393
C102	C	-1.575543	0.130330	-0.500567
C103	C	-1.461127	0.212570	-0.229128
C104	C	-1.575536	0.130392	-0.247067
C105	C	-1.461146	0.401780	-0.418399
C106	C	-1.575562	0.383819	-0.500575
C107	C	-0.618782	0.780641	-0.134011
C108	C	-0.511297	0.857848	-0.117171
C109	C	-0.457537	0.933429	-0.071788
C110	C	-0.511277	0.931799	-0.043250
C111	C	-0.618767	0.854592	-0.060095
C112	C	-0.618757	0.570988	0.223589
C113	C	-0.511266	0.587860	0.300806
C114	C	-0.457499	0.559336	0.302468
C115	C	-0.511239	0.513930	0.226905
C116	C	-0.618735	0.497053	0.149689
C117	C	-0.618780	0.854629	0.149659
C118	C	-0.511293	0.931862	0.226862
C119	C	-0.457526	0.933542	0.302435
C120	C	-0.511262	0.857981	0.300801
C121	C	-0.618754	0.780749	0.223597
C122	C	-1.629281	0.054775	-0.502201
C123	C	-1.736802	-0.022463	-0.579409
C124	C	-1.790574	-0.024144	-0.654983
C125	C	-1.736832	0.051419	-0.653347
C126	C	-1.629321	0.128654	-0.576141
C127	C	-1.629277	0.128763	-0.218537
C128	C	-1.736792	0.051552	-0.235398
C129	C	-1.790557	-0.024029	-0.280784
C130	C	-1.736811	-0.022399	-0.309318
C131	C	-1.629306	0.054811	-0.292463
C132	C	-1.629295	0.412355	-0.502209
C133	C	-1.736787	0.395494	-0.579414
C134	C	-1.790551	0.350092	-0.654986
C135	C	-1.736807	0.321556	-0.653348
C136	C	-1.629310	0.338422	-0.576143
H137	H	-0.493629	0.648419	0.017402
Br138	Br	-0.813693	-0.024513	-0.040483
Br139	Br	-1.097340	0.231087	-0.399812
Br140	Br	-1.361766	-0.078189	-0.201090
Br141	Br	-1.434364	-0.066083	-0.312055
Br142	Br	-1.556324	0.057034	-0.399647
H143	H	-0.946223	0.378039	-0.252920
Br144	Br	-1.556411	0.299679	-0.573942
Br145	Br	-0.438296	1.034382	0.018344
Br146	Br	-0.691666	0.852401	-0.021351
H147	H	-1.780599	0.284588	-0.714889
Br148	Br	-0.438384	0.860040	-0.155906
H149	H	-0.370010	0.996290	-0.058076
Br150	Br	-0.438386	1.034397	0.229060
Br151	Br	-0.691696	0.609713	0.221358
Br152	Br	-0.336907	0.544546	-0.086443
H153	H	-0.467524	0.624834	0.362324
Br154	Br	-1.936444	0.327208	-0.759759
Br155	Br	-0.311610	0.582247	0.407270
H156	H	-0.662541	0.853277	0.088132
H157	H	-0.467446	0.490709	0.228271
H158	H	-0.662468	0.460089	0.088175
H159	H	-0.949472	0.230395	-0.400526
Br160	Br	-1.809706	0.049360	-0.196663
Br161	Br	-0.886274	0.479564	-0.643410
Br162	Br	-1.556396	0.231189	-0.573938
Br163	Br	-0.691723	0.678079	-0.195608
H164	H	-1.362895	0.350131	-0.649379
H165	H	-0.369958	0.572976	-0.058023
H166	H	-0.369999	0.996435	0.365293
H167	H	-0.754437	0.260977	-0.369946
Br168	Br	-0.438277	0.860275	0.403371
Br169	Br	-0.691647	0.678218	0.221399
Br170	Br	-1.809712	-0.124998	-0.581608
Br171	Br	-1.936484	-0.128972	-0.759758
H172	H	-0.885148	0.559273	-0.703158
Br173	Br	-1.809821	0.049124	-0.755919
Br174	Br	-1.556339	0.231326	-0.156942
H175	H	-0.885174	-0.181669	-0.071755
H176	H	-1.878094	-0.086892	-0.294503
H177	H	-0.941026	-0.019978	-0.157146
Br178	Br	-1.809789	-0.124981	-0.370910
Br179	Br	-0.218861	0.719897	0.088873
Br180	Br	-1.556378	0.057006	-0.331185
H181	H	-1.585537	0.449324	-0.440683
H182	H	-0.941021	0.089519	-0.157144
Br183	Br	-0.886181	0.479617	-0.501112
H184	H	-1.780534	0.418733	-0.580732
H185	H	-0.885136	0.300134	-0.071753
Br186	Br	-0.813666	0.205534	-0.040470
H187	H	-1.307029	0.435548	-0.701564
H188	H	-1.362876	0.091079	-0.280779
H189	H	-1.307035	-0.180115	-0.195387
Br190	Br	-1.434370	0.318919	-0.927074
H191	H	-1.362900	-0.281229	-0.280790
H192	H	-0.885162	0.559207	-0.440361
Br193	Br	-1.434378	0.318792	-0.554781
Br194	Br	-1.434399	-0.438399	-0.312082
H195	H	-1.307023	0.435575	-0.811057
H196	H	-1.362887	0.350230	-1.021672
H197	H	-0.885148	0.559299	-0.812652
H198	H	-0.885150	0.559193	-0.330860
