data_functionalizedCrystal
_audit_creation_method	'MofGen! by Chris Wilmer'
_symmetry_space_group_name_H-M	'P1'
_symmetry_Int_Tables_number	1
_symmetry_cell_setting	triclinic
loop_
_symmetry_equiv_pos_as_xyz
  x,y,z
_cell_length_a	13.032831
_cell_length_b	19.121063
_cell_length_c	13.033429
_cell_angle_alpha	84.898597
_cell_angle_beta	89.091437
_cell_angle_gamma	85.565596
loop_
_atom_site_label
_atom_site_type_symbol
_atom_site_fract_x
_atom_site_fract_y
_atom_site_fract_z
Zn1	Zn	1.474723	-0.337388	-0.799216
Zn2	Zn	1.974723	0.162612	-0.299216
Zn3	Zn	1.487084	-0.469982	-0.634433
Zn4	Zn	1.987084	0.030018	-0.134433
Zn5	Zn	1.324302	-0.341094	-0.605647
Zn6	Zn	1.824302	0.158906	-0.105647
Zn7	Zn	1.295403	-0.440861	-0.782984
Zn8	Zn	1.795403	0.059139	-0.282984
O9	O	1.395378	-0.397331	-0.705570
O10	O	1.895378	0.102669	-0.205570
O11	O	1.619534	-0.365614	-0.796197
O12	O	2.119534	0.134386	-0.296197
O13	O	1.482758	-0.466623	-0.487436
O14	O	1.982758	0.033377	0.012564
O15	O	1.351176	-0.243358	-0.626072
O16	O	1.851176	0.256642	-0.126072
O17	O	1.628615	-0.463030	-0.675131
O18	O	2.128615	0.036970	-0.175131
O19	O	1.461690	-0.240636	-0.768286
O20	O	1.961690	0.259364	-0.268286
O21	O	1.363162	-0.371929	-0.466287
O22	O	1.863162	0.128071	0.033713
O23	O	1.177297	-0.343692	-0.610331
O24	O	1.677297	0.156308	-0.110331
O25	O	1.301923	-0.413397	-0.928316
O26	O	1.801923	0.086603	-0.428316
O27	O	1.156066	-0.416990	-0.740620
O28	O	1.656066	0.083010	-0.240620
O29	O	1.433669	-0.337376	-0.940242
O30	O	1.933669	0.162624	-0.440242
O31	O	1.454736	-0.563363	-0.659391
O32	O	1.954736	-0.063363	-0.159391
O33	O	1.313909	-0.541968	-0.768531
O34	O	1.813909	-0.041968	-0.268531
C35	C	1.129558	-0.377583	-0.670591
C36	C	1.629558	0.122417	-0.170591
C37	C	1.015836	-0.369150	-0.655652
C38	C	1.515836	0.130850	-0.155652
C39	C	0.954664	-0.401733	-0.713367
C40	C	1.454664	0.098267	-0.213367
C41	C	0.837125	-0.393017	-0.697928
C42	C	1.337125	0.106983	-0.197928
C43	C	1.382553	-0.577880	-0.715349
C44	C	1.882553	-0.077880	-0.215349
C45	C	1.377156	-0.655123	-0.719580
C46	C	1.877156	-0.155123	-0.219580
C47	C	1.447986	-0.702527	-0.664805
C48	C	1.947986	-0.202527	-0.164805
C49	C	1.442916	-0.775104	-0.668790
C50	C	1.942916	-0.275104	-0.168790
C51	C	1.367010	-0.800276	-0.727545
C52	C	1.867010	-0.300276	-0.227545
C53	C	1.296176	-0.752867	-0.782327
C54	C	1.796176	-0.252867	-0.282327
C55	C	1.301252	-0.680291	-0.778347
C56	C	1.801252	-0.180291	-0.278347
C57	C	1.348018	-1.018853	-0.742407
C58	C	1.848018	-0.518853	-0.242407
C59	C	1.342945	-1.091435	-0.746381
C60	C	1.842945	-0.591435	-0.246381
C61	C	1.489686	-1.113667	-0.632845
C62	C	1.989686	-0.613667	-0.132845
C63	C	1.494752	-1.041088	-0.628865
C64	C	1.994752	-0.541088	-0.128865
C65	C	1.423922	-0.993685	-0.683651
C66	C	1.923922	-0.493685	-0.183651
C67	C	1.361823	-0.874462	-0.731617
C68	C	1.861823	-0.374462	-0.231617
C69	C	1.429114	-0.919501	-0.679584
C70	C	1.929114	-0.419501	-0.179584
C71	C	1.662235	-0.417157	-0.740686
C72	C	2.162235	0.082843	-0.240686
C73	C	1.775954	-0.425605	-0.755650
C74	C	2.275954	0.074395	-0.255650
C75	C	1.363194	-0.371725	-0.972441
C76	C	1.863194	0.128275	-0.472441
C77	C	1.349478	-0.360813	-1.086166
C78	C	1.849478	0.139187	-0.586166
C79	C	1.408278	-0.216078	-0.695778
C80	C	1.908278	0.283922	-0.195778
C81	C	1.413775	-0.138838	-0.691606
C82	C	1.913775	0.361162	-0.191606
C83	C	1.388368	-0.391534	-1.264869
C84	C	1.888368	0.108466	-0.764869
C85	C	1.402544	-0.402808	-1.147329
C86	C	1.902544	0.097192	-0.647329
C87	C	1.427500	-0.422792	-0.439742
C88	C	1.927500	0.077208	0.060258
C89	C	1.441427	-0.433523	-0.326034
C90	C	1.941427	0.066477	0.173966
H91	H	0.989309	-0.436079	-0.774211
H92	H	1.489309	0.063921	-0.274211
H93	H	0.802483	-0.358663	-0.637087
H94	H	1.302483	0.141337	-0.137087
C95	C	1.273930	-0.300968	-1.132957
C96	C	1.773930	0.199032	-0.632957
H97	H	1.242487	-0.276084	-1.079340
H98	H	1.742487	0.223916	-0.579340
H99	H	1.222468	-0.320265	-1.170224
H100	H	1.722468	0.179735	-0.670224
H101	H	1.310239	-0.269624	-1.178165
H102	H	1.810239	0.230376	-0.678165
C103	C	1.516968	-0.493364	-1.279230
C104	C	2.016968	0.006636	-0.779230
H105	H	1.516580	-0.493095	-1.206369
H106	H	2.016580	0.006905	-0.706369
H107	H	1.584344	-0.486642	-1.305193
H108	H	2.084344	0.013358	-0.805193
H109	H	1.496571	-0.537281	-1.297243
H110	H	1.996571	-0.037281	-0.797243
H111	H	1.458472	-0.447104	-1.112680
H112	H	1.958472	0.052896	-0.612680
H113	H	0.810593	-0.459952	-0.816502
H114	H	1.310593	0.040048	-0.316502
H115	H	0.981190	-0.334798	-0.594815
H116	H	1.481190	0.165202	-0.094815
C117	C	1.531485	-0.674843	-0.600175
C118	C	2.031485	-0.174843	-0.100175
H119	H	1.572948	-0.713472	-0.568133
H120	H	2.072948	-0.213472	-0.068133
H121	H	1.499746	-0.647943	-0.548866
H122	H	1.999746	-0.147943	-0.048866
H123	H	1.573292	-0.646045	-0.643666
H124	H	2.073292	-0.146045	-0.143666
C125	C	1.278327	-0.902151	-0.796243
C126	C	1.778327	-0.402151	-0.296243
H127	H	1.236867	-0.863527	-0.828302
H128	H	1.736867	-0.363527	-0.328302
H129	H	1.236528	-0.930955	-0.752761
H130	H	1.736528	-0.430955	-0.252761
H131	H	1.310082	-0.929047	-0.847555
H132	H	1.810082	-0.429047	-0.347555
H133	H	1.556560	-1.020595	-0.581022
H134	H	2.056560	-0.520595	-0.081022
C135	C	1.520824	-0.827245	-0.608531
C136	C	2.020824	-0.327245	-0.108531
H137	H	1.566749	-0.801859	-0.572958
H138	H	2.066749	-0.301859	-0.072958
H139	H	1.558674	-0.855070	-0.655114
H140	H	2.058674	-0.355070	-0.155114
H141	H	1.485111	-0.856968	-0.560327
H142	H	1.985111	-0.356968	-0.060327
H143	H	1.290343	-0.980262	-0.787014
H144	H	1.790343	-0.480262	-0.287014
H145	H	1.332452	-0.347237	-1.299523
H146	H	1.832452	0.152763	-0.799523
H147	H	1.234376	-0.773368	-0.830171
H148	H	1.734376	-0.273368	-0.330171
C149	C	1.223341	-0.628147	-0.838601
C150	C	1.723341	-0.128147	-0.338601
H151	H	1.177402	-0.653532	-0.874158
H152	H	1.677402	-0.153532	-0.374158
H153	H	1.259049	-0.598425	-0.886802
H154	H	1.759049	-0.098425	-0.386802
H155	H	1.185491	-0.600322	-0.792011
H156	H	1.685491	-0.100322	-0.292011
H157	H	1.547353	-1.152270	-0.588243
H158	H	2.047353	-0.652270	-0.088243
H159	H	1.490920	-0.899004	-0.631750
H160	H	1.990920	-0.399004	-0.131750
C161	C	1.259453	-1.119122	-0.811024
C162	C	1.759453	-0.619122	-0.311024
H163	H	1.218002	-1.080497	-0.843092
H164	H	1.718002	-0.580497	-0.343092
H165	H	1.217645	-1.147922	-0.767546
H166	H	1.717645	-0.647922	-0.267546
H167	H	1.291212	-1.146023	-0.862330
H168	H	1.791212	-0.646023	-0.362330
