data_functionalizedCrystal
_audit_creation_method	'MofGen! by Chris Wilmer'
_symmetry_space_group_name_H-M	'P1'
_symmetry_Int_Tables_number	1
_symmetry_cell_setting	triclinic
loop_
_symmetry_equiv_pos_as_xyz
  x,y,z
_cell_length_a	11.026607
_cell_length_b	15.995343
_cell_length_c	10.065875
_cell_angle_alpha	98.784431
_cell_angle_beta	79.302338
_cell_angle_gamma	96.037600
loop_
_atom_site_label
_atom_site_type_symbol
_atom_site_fract_x
_atom_site_fract_y
_atom_site_fract_z
O1	O	1.627913	0.340984	-0.113548
O2	O	2.127913	0.840984	0.386452
O3	O	1.274608	0.301060	-0.113544
O4	O	1.774608	0.801060	0.386456
O5	O	1.460920	0.200592	-0.113521
O6	O	1.960920	0.700592	0.386479
O7	O	1.441602	0.441451	-0.113571
O8	O	1.941602	0.941451	0.386429
O9	O	1.425393	0.219848	0.113464
O10	O	1.925393	0.719848	0.613464
O11	O	1.239081	0.320316	0.113441
O12	O	1.739081	0.820316	0.613441
O13	O	1.592386	0.360240	0.113436
O14	O	2.092386	0.860240	0.613436
Zn15	Zn	1.410093	0.343335	0.149477
Zn16	Zn	1.910093	0.843335	0.649477
Zn17	Zn	1.456902	0.317965	-0.149585
Zn18	Zn	1.956902	0.817965	0.350415
O19	O	1.406075	0.460707	0.113413
O20	O	1.906075	0.960707	0.613413
C21	C	1.211634	0.303322	-0.000050
C22	C	1.711634	0.803322	0.499950
C23	C	1.076920	0.281366	-0.000048
C24	C	1.576920	0.781366	0.499952
C25	C	1.442358	0.178906	-0.000025
C26	C	1.942358	0.678906	0.499975
C27	C	1.439966	0.085596	-0.000014
C28	C	1.939966	0.585596	0.499986
C29	C	1.003114	0.341991	-0.000061
C30	C	1.503114	0.841991	0.499939
C31	C	0.863881	0.319299	-0.000058
C32	C	1.363881	0.819299	0.499942
C33	C	1.435633	-0.085247	-0.000045
C34	C	1.935633	0.414753	0.499955
C35	C	1.301142	-0.128865	-0.000046
C36	C	1.801142	0.371135	0.499954
C37	C	1.298695	-0.225969	-0.000577
C38	C	1.798695	0.274031	0.499423
C39	C	1.431364	-0.253454	-0.000074
C40	C	1.931364	0.246546	0.499926
C41	C	1.519235	-0.225136	-0.129434
C42	C	2.019235	0.274864	0.370566
C43	C	1.520845	-0.128111	-0.129527
C44	C	2.020845	0.371889	0.370473
C45	C	1.482411	-0.106020	0.128606
C46	C	1.982411	0.393980	0.628606
C47	C	1.477183	-0.203121	0.130291
C48	C	1.977183	0.296879	0.630291
C49	C	1.428959	-0.348517	-0.000095
C50	C	1.928959	0.151483	0.499905
C51	C	1.438043	0.009815	-0.000033
C52	C	1.938043	0.509815	0.499967
C53	C	1.655361	0.357977	-0.000060
C54	C	2.155361	0.857977	0.499940
C55	C	1.790076	0.379933	-0.000072
C56	C	2.290076	0.879933	0.499928
C57	C	1.424637	0.482394	-0.000086
C58	C	1.924637	0.982394	0.499914
C59	C	1.427030	0.575703	-0.000105
C60	C	1.927030	1.075703	0.499895
N61	N	1.378156	0.360651	0.353579
N62	N	1.878156	0.860651	0.853579
N63	N	1.488848	0.300644	-0.353686
N64	N	1.988848	0.800644	0.146314
C65	C	1.445782	0.323983	0.421366
C66	C	1.945782	0.823983	0.921366
C67	C	1.421212	0.337317	0.578530
C68	C	1.921212	0.837317	1.078530
H69	H	1.043004	0.410694	-0.000068
H70	H	1.543004	0.910694	0.499932
F71	F	0.811751	0.229494	-0.000030
F72	F	1.311751	0.729494	0.499970
F73	F	1.545019	0.269865	0.345148
F74	F	2.045019	0.769865	0.845148
H75	H	1.345116	0.378581	0.636842
H76	H	1.845116	0.878581	1.136842
H77	H	1.564935	0.259372	0.588002
H78	H	2.064935	0.759372	1.088002
F79	F	0.842198	0.469741	-0.000074
F80	F	1.342198	0.969741	0.499926
F81	F	1.278698	0.414583	0.429798
F82	F	1.778698	0.914583	0.929798
F83	F	1.024786	0.191565	-0.000020
F84	F	1.524786	0.691565	0.499980
F85	F	1.253061	-0.111350	-0.121115
F86	F	1.753061	0.388650	0.378885
H87	H	1.231237	-0.245109	0.092127
H88	H	1.731237	0.254891	0.592127
H89	H	1.487961	-0.260413	-0.226071
H90	H	1.987961	0.239587	0.273929
H91	H	1.260611	-0.260255	-0.093855
H92	H	1.760611	0.239745	0.406145
F93	F	1.214023	-0.092247	0.121187
F94	F	1.714023	0.407753	0.621187
H95	H	1.620334	-0.099139	-0.135042
H96	H	2.120334	0.400861	0.364958
F97	F	1.480205	-0.112972	-0.256398
F98	F	1.980205	0.387028	0.243602
H99	H	1.617630	-0.242634	-0.133884
H100	H	2.117630	0.257366	0.366116
H101	H	1.424627	-0.075830	0.226691
H102	H	1.924627	0.424170	0.726691
H103	H	1.572766	-0.220773	0.138490
H104	H	2.072766	0.279227	0.638490
F105	F	1.393237	-0.226473	0.255384
F106	F	1.893237	0.273527	0.755384
H107	H	1.581205	-0.076973	0.129861
H108	H	2.081205	0.423027	0.629861
