data_functionalizedCrystal
_audit_creation_method	'MofGen! by Chris Wilmer'
_symmetry_space_group_name_H-M	'P1'
_symmetry_Int_Tables_number	1
_symmetry_cell_setting	triclinic
loop_
_symmetry_equiv_pos_as_xyz
  x,y,z
_cell_length_a	17.699104
_cell_length_b	17.699083
_cell_length_c	15.186229
_cell_angle_alpha	89.995368
_cell_angle_beta	89.995758
_cell_angle_gamma	83.287266
loop_
_atom_site_label
_atom_site_type_symbol
_atom_site_fract_x
_atom_site_fract_y
_atom_site_fract_z
O1	O	1.004065	0.095785	-0.073248
O2	O	1.337398	0.429119	0.260085
O3	O	1.670731	0.762452	0.593419
O4	O	0.783689	0.108221	-0.073246
O5	O	1.117022	0.441555	0.260087
O6	O	1.450355	0.774888	0.593420
O7	O	0.900103	-0.008185	-0.073239
O8	O	1.233436	0.325148	0.260094
O9	O	1.566769	0.658481	0.593427
O10	O	0.887650	0.212192	-0.073255
O11	O	1.220984	0.545525	0.260078
O12	O	1.554317	0.878859	0.593412
O13	O	0.900095	-0.008187	0.073218
O14	O	1.233428	0.325146	0.406551
O15	O	1.566762	0.658480	0.739884
O16	O	0.783681	0.108220	0.073211
O17	O	1.117014	0.441553	0.406544
O18	O	1.450347	0.774886	0.739878
O19	O	1.004057	0.095784	0.073209
O20	O	1.337390	0.429117	0.406542
O21	O	1.670724	0.762450	0.739876
Zn22	Zn	0.893868	0.102001	0.096463
Zn23	Zn	1.227201	0.435335	0.429797
Zn24	Zn	1.560534	0.768668	0.763130
Zn25	Zn	0.893878	0.102004	-0.096500
Zn26	Zn	1.227211	0.435337	0.236833
Zn27	Zn	1.560545	0.768670	0.570166
O28	O	0.887643	0.212190	0.073202
O29	O	1.220976	0.545524	0.406536
O30	O	1.554309	0.878857	0.739869
C31	C	0.755488	0.107772	-0.000017
C32	C	1.088821	0.441105	0.333316
C33	C	1.422155	0.774439	0.666649
C34	C	0.671471	0.106427	-0.000016
C35	C	1.004804	0.439761	0.333317
C36	C	1.338137	0.773094	0.666650
C37	C	0.146600	0.167171	-0.000030
C38	C	0.479933	0.500504	0.333304
C39	C	0.813266	0.833838	0.666637
C40	C	0.225543	0.168430	-0.000032
C41	C	0.558877	0.501764	0.333301
C42	C	0.892210	0.835097	0.666634
C43	C	0.274161	0.100095	-0.000027
C44	C	0.607494	0.433428	0.333306
C45	C	0.940828	0.766762	0.666639
C46	C	0.243831	0.030496	-0.000029
C47	C	0.577165	0.363829	0.333305
C48	C	0.910498	0.697163	0.666638
C49	C	0.164889	0.029238	-0.000032
C50	C	0.498222	0.362571	0.333301
C51	C	0.831555	0.695905	0.666634
C52	C	0.562197	0.035569	-0.000015
C53	C	0.895531	0.368903	0.333318
C54	C	1.228864	0.702236	0.666652
C55	C	0.641144	0.036833	-0.000009
C56	C	0.974478	0.370166	0.333325
C57	C	1.307811	0.703500	0.666658
C58	C	0.622852	0.174762	-0.000015
C59	C	0.956185	0.508095	0.333318
C60	C	1.289519	0.841428	0.666652
C61	C	0.543909	0.173503	-0.000019
C62	C	0.877243	0.506837	0.333315
C63	C	1.210576	0.840170	0.666648
C64	C	0.513587	0.103905	-0.000025
C65	C	0.846920	0.437238	0.333309
C66	C	1.180253	0.770572	0.666642
C67	C	0.427987	0.102541	-0.000024
C68	C	0.761320	0.435874	0.333310
C69	C	1.094653	0.769207	0.666643
C70	C	0.359759	0.101459	-0.000022
C71	C	0.693093	0.434792	0.333311
C72	C	1.026426	0.768125	0.666644
C73	C	0.899653	-0.036383	-0.000011
C74	C	1.232986	0.296950	0.333323
C75	C	1.566319	0.630283	0.666656
C76	C	0.898314	-0.120402	-0.000010
C77	C	1.231647	0.212932	0.333323
C78	C	1.564981	0.546265	0.666656
C79	C	0.966647	-0.169017	-0.000010
C80	C	1.299980	0.164316	0.333324
C81	C	1.633314	0.497649	0.666657
C82	C	0.965385	-0.247961	-0.000017
C83	C	1.298718	0.085373	0.333316
C84	C	1.632051	0.418706	0.666649
C85	C	0.895789	-0.278287	-0.000020
C86	C	1.229122	0.055047	0.333314
C87	C	1.562455	0.388380	0.666647
C88	C	0.827451	-0.229665	-0.000023
C89	C	1.160784	0.103669	0.333310
C90	C	1.494118	0.437002	0.666644
C91	C	0.828714	-0.150723	-0.000021
C92	C	1.162047	0.182610	0.333312
C93	C	1.495381	0.515944	0.666645
C94	C	0.822356	-0.548028	-0.000030
C95	C	1.155689	-0.214695	0.333303
C96	C	1.489022	0.118639	0.666637
C97	C	0.821098	-0.626976	-0.000029
C98	C	1.154431	-0.293643	0.333305
C99	C	1.487764	0.039690	0.666638
C100	C	0.959026	-0.645266	-0.000026
C101	C	1.292360	-0.311933	0.333307
C102	C	1.625693	0.021401	0.666641
C103	C	0.960289	-0.566324	-0.000025
C104	C	1.293623	-0.232991	0.333309
C105	C	1.626956	0.100342	0.666642
C106	C	0.891952	-0.517709	-0.000032
C107	C	1.225285	-0.184376	0.333301
C108	C	1.558618	0.148958	0.666634
C109	C	0.893321	-0.432110	-0.000026
C110	C	1.226655	-0.098776	0.333308
C111	C	1.559988	0.234557	0.666641
C112	C	0.894419	-0.363885	-0.000020
C113	C	1.227752	-0.030551	0.333313
C114	C	1.561085	0.302782	0.666647
C115	C	1.032258	0.096233	-0.000022
C116	C	1.365591	0.429566	0.333312
C117	C	1.698924	0.762899	0.666645
C118	C	1.116275	0.097578	-0.000028
C119	C	1.449608	0.430911	0.333305
C120	C	1.782941	0.764244	0.666638
C121	C	0.888093	0.240388	-0.000028
C122	C	1.221426	0.573722	0.333305
C123	C	1.554759	0.907055	0.666638
C124	C	0.889431	0.324406	-0.000034
C125	C	1.222765	0.657740	0.333299
C126	C	1.556098	0.991073	0.666632
N127	N	0.893866	0.101999	0.228156
N128	N	1.227200	0.435333	0.561489
N129	N	1.560533	0.768666	0.894823
N130	N	0.893885	0.101999	-0.228193
N131	N	1.227219	0.435333	0.105140
N132	N	1.560552	0.768666	0.438474
C133	C	0.945432	0.050472	0.453882
C134	C	1.278765	0.383805	0.787215
C135	C	1.612099	0.717138	1.120549
C136	C	0.945434	0.050470	0.546072
C137	C	1.278768	0.383803	0.879405
C138	C	1.612101	0.717137	1.212738
C139	C	0.842314	0.153529	0.546075
C140	C	1.175647	0.486863	0.879408
C141	C	1.508981	0.820196	1.212741
C142	C	0.842309	0.153527	0.453887
C143	C	1.175642	0.486860	0.787220
C144	C	1.508975	0.820194	1.120553
C145	C	0.893872	0.101999	0.407793
C146	C	1.227205	0.435332	0.741126
C147	C	1.560539	0.768666	1.074459
C148	C	0.893880	0.102000	0.592170
C149	C	1.227213	0.435333	0.925504
C150	C	1.560546	0.768666	1.258837
C151	C	0.893882	0.101998	0.692126
C152	C	1.227215	0.435332	1.025460
C153	C	1.560549	0.768665	1.358793
C154	C	0.893869	0.101999	0.307830
C155	C	1.227202	0.435333	0.641163
C156	C	1.560536	0.768666	0.974497
H157	H	0.537518	-0.021102	-0.000017
H158	H	0.870852	0.312232	0.333316
H159	H	1.204185	0.645565	0.666649
H160	H	0.107020	0.222818	-0.000027
H161	H	0.440353	0.556151	0.333306
H162	H	0.773687	0.889484	0.666639
H163	H	0.764421	-0.651664	-0.000029
H164	H	1.097755	-0.318331	0.333305
H165	H	1.431088	0.015003	0.666638
O166	O	1.025482	-0.692385	0.000009
O167	O	1.358815	-0.359051	0.333342
O168	O	1.692149	-0.025718	0.666676
C169	C	1.087177	-0.648688	-0.000007
C170	C	1.420511	-0.315355	0.333326
C171	C	1.753844	0.017978	0.666659
H172	H	1.067855	-0.589738	0.027724
H173	H	1.401188	-0.256405	0.361057
H174	H	1.734521	0.076929	0.694391
H175	H	1.135045	-0.677898	0.042512
H176	H	1.468378	-0.344564	0.375846
H177	H	1.801712	-0.011231	0.709179
H178	H	1.108522	-0.643096	-0.070269
H179	H	1.441855	-0.309763	0.263064
H180	H	1.775189	0.023571	0.596397
O181	O	0.995449	0.000447	0.590979
O182	O	1.328782	0.333780	0.924312
O183	O	1.662115	0.667113	1.257645
C184	C	0.984411	0.011505	0.682231
C185	C	1.317744	0.344839	1.015564
C186	C	1.651078	0.678172	1.348898
H187	H	0.924188	0.039864	0.694829
H188	H	1.257521	0.373198	1.028162
H189	H	1.590855	0.706531	1.361496
H190	H	0.992942	-0.045823	0.717271
H191	H	1.326275	0.287510	1.050604
H192	H	1.659608	0.620843	1.383937
H193	H	1.027177	0.049416	0.708383
H194	H	1.360510	0.382750	1.041716
H195	H	1.693844	0.716083	1.375049
H196	H	0.766711	-0.508455	-0.000036
H197	H	1.100044	-0.175121	0.333297
H198	H	1.433377	0.158212	0.666630
H199	H	0.283422	-0.025143	-0.000030
H200	H	0.616755	0.308190	0.333303
H201	H	0.950089	0.641523	0.666637
O202	O	0.792306	0.203557	0.590989
O203	O	1.125640	0.536891	0.924322
O204	O	1.458973	0.870224	1.257655
C205	C	0.803355	0.192501	0.682240
C206	C	1.136688	0.525834	1.015573
C207	C	1.470021	0.859168	1.348907
H208	H	0.863578	0.164139	0.694824
H209	H	1.196911	0.497472	1.028157
H210	H	1.530244	0.830805	1.361491
H211	H	0.794832	0.249831	0.717268
H212	H	1.128166	0.583164	1.050601
H213	H	1.461499	0.916498	1.383935
H214	H	0.760589	0.154594	0.708416
H215	H	1.093923	0.487927	1.041749
H216	H	1.427256	0.821261	1.375083
O217	O	0.792192	0.203658	0.409246
O218	O	1.125525	0.536991	0.742580
O219	O	1.458859	0.870324	1.075913
C220	C	0.746674	0.249130	0.469696
C221	C	1.080007	0.582463	0.803029
C222	C	1.413341	0.915796	1.136362
H223	H	0.777703	0.249953	0.535406
H224	H	1.111037	0.583287	0.868740
H225	H	1.444370	0.916620	1.202073
H226	H	0.735014	0.309586	0.443049
H227	H	1.068347	0.642920	0.776382
H228	H	1.401680	0.976253	1.109715
H229	H	0.690499	0.224622	0.479513
H230	H	1.023833	0.557955	0.812847
H231	H	1.357166	0.891288	1.146180
H232	H	0.250230	0.225100	-0.000042
H233	H	0.583563	0.558433	0.333292
H234	H	0.916896	0.891767	0.666625
H235	H	0.504328	0.229149	-0.000018
H236	H	0.837661	0.562482	0.333315
H237	H	1.170995	0.895816	0.666648
O238	O	0.652434	0.242306	-0.000061
O239	O	0.985768	0.575639	0.333273
O240	O	1.319101	0.908972	0.666606
C241	C	0.732536	0.228769	-0.000040
C242	C	1.065869	0.562103	0.333294
C243	C	1.399202	0.895436	0.666627
H244	H	0.751180	0.169672	-0.027764
H245	H	1.084514	0.503005	0.305570
H246	H	1.417847	0.836338	0.638903
H247	H	0.756697	0.273295	-0.042564
H248	H	1.090031	0.606628	0.290770
H249	H	1.423364	0.939961	0.624103
H250	H	0.754501	0.232395	0.070223
H251	H	1.087834	0.565729	0.403556
H252	H	1.421168	0.899062	0.736889
H253	H	0.770785	-0.254362	-0.000030
H254	H	1.104118	0.078971	0.333303
H255	H	1.437451	0.412304	0.666637
H256	H	1.016961	-0.541638	-0.000019
H257	H	1.350295	-0.208304	0.333315
H258	H	1.683628	0.125029	0.666648
H259	H	0.680728	-0.018817	-0.000007
H260	H	1.014061	0.314516	0.333326
H261	H	1.347395	0.647849	0.666660
O262	O	1.034235	-0.139527	0.000147
O263	O	1.367568	0.193807	0.333481
O264	O	1.700901	0.527140	0.666814
C265	C	1.039085	-0.094402	0.075988
C266	C	1.372419	0.238932	0.409321
C267	C	1.705752	0.572265	0.742654
H268	H	0.999567	-0.113002	0.129006
H269	H	1.332900	0.220331	0.462339
H270	H	1.666233	0.553664	0.795672
H271	H	1.100096	-0.101601	0.101445
H272	H	1.433429	0.231732	0.434778
H273	H	1.766762	0.565065	0.768112
H274	H	1.021517	-0.032114	0.058840
H275	H	1.354851	0.301220	0.392173
H276	H	1.688184	0.634553	0.725507
O277	O	0.762266	-0.103603	0.000017
O278	O	1.095599	0.229731	0.333350
O279	O	1.428932	0.563064	0.666684
C280	C	0.700567	-0.147295	-0.000008
C281	C	1.033900	0.186039	0.333326
C282	C	1.367233	0.519372	0.666659
H283	H	0.719881	-0.206250	0.027724
H284	H	1.053214	0.127083	0.361057
H285	H	1.386548	0.460417	0.694390
H286	H	0.652693	-0.118089	0.042508
H287	H	0.986026	0.215244	0.375841
H288	H	1.319359	0.548578	0.709175
H289	H	0.679235	-0.152876	-0.070272
H290	H	1.012568	0.180458	0.263061
H291	H	1.345902	0.513791	0.596395
H292	H	0.140200	-0.027432	-0.000033
H293	H	0.473534	0.305901	0.333300
H294	H	0.806867	0.639234	0.666634
H295	H	0.987417	0.008514	0.416354
H296	H	1.320750	0.341847	0.749688
H297	H	1.654083	0.675180	1.083021
H298	H	1.021028	-0.287541	-0.000015
H299	H	1.354361	0.045792	0.333318
H300	H	1.687695	0.379125	0.666652
