data_functionalizedCrystal
_audit_creation_method	'MofGen! by Chris Wilmer'
_symmetry_space_group_name_H-M	'P1'
_symmetry_Int_Tables_number	1
_symmetry_cell_setting	triclinic
loop_
_symmetry_equiv_pos_as_xyz
  x,y,z
_cell_length_a	12.827893
_cell_length_b	12.827892
_cell_length_c	18.050583
_cell_angle_alpha	90.029246
_cell_angle_beta	90.015943
_cell_angle_gamma	90.015350
loop_
_atom_site_label
_atom_site_type_symbol
_atom_site_fract_x
_atom_site_fract_y
_atom_site_fract_z
Zn1	Zn	-1.597601	0.416013	-0.419947
Zn2	Zn	-1.597506	0.590798	-0.295773
Zn3	Zn	-1.422859	0.416065	-0.295772
Zn4	Zn	-1.422822	0.590707	-0.419921
O5	O	-1.510197	0.503396	-0.357853
O6	O	-1.743825	0.439215	-0.403487
O7	O	-1.574314	0.567679	-0.191848
O8	O	-1.446094	0.269822	-0.312254
O9	O	-1.743754	0.567629	-0.312256
O10	O	-1.574477	0.269784	-0.403486
O11	O	-1.446001	0.439304	-0.191847
O12	O	-1.276618	0.439216	-0.312229
O13	O	-1.446032	0.567474	-0.523849
O14	O	-1.276591	0.567524	-0.403441
O15	O	-1.574441	0.439127	-0.523869
O16	O	-1.574278	0.737022	-0.312231
O17	O	-1.445939	0.736955	-0.403442
C18	C	-1.238687	0.503367	-0.357833
C19	C	-1.122534	0.503379	-0.357841
C20	C	-1.070764	0.566968	-0.402905
C21	C	-0.950713	0.566982	-0.402915
C22	C	-1.510122	0.774906	-0.357850
C23	C	-1.510186	0.891059	-0.357873
C24	C	-0.782767	0.503418	-0.357868
C25	C	-0.898920	0.503405	-0.357859
C26	C	-1.573766	0.942842	-0.312791
C27	C	-1.573833	1.062892	-0.312814
C28	C	-1.510243	0.503284	-0.551559
C29	C	-1.510263	0.503237	-0.634105
C30	C	-1.510292	1.230826	-0.357882
C31	C	-1.510311	1.114673	-0.357917
C32	C	-1.580162	0.433408	-0.833566
C33	C	-1.484847	0.407829	-0.882959
C34	C	-1.510305	0.503219	-0.785235
C35	C	-1.605658	0.528732	-0.882924
C36	C	-1.510354	0.503200	-0.931220
C37	C	-1.414939	0.477590	-0.833541
C38	C	-1.535815	0.598538	-0.833502
C39	C	-1.440434	0.572995	-0.882872
C40	C	-1.510278	0.503227	-0.701137
C41	C	-1.510370	0.503191	-1.015317
C42	C	-1.510211	0.503432	-0.164901
C43	C	-1.510394	0.503185	-0.082356
H44	H	-1.115318	0.621394	-0.441481
H45	H	-1.628264	1.107425	-0.274215
O46	O	-1.369764	0.643297	-0.908510
C47	C	-1.269430	0.616014	-0.883195
H48	H	-1.267472	0.529315	-0.869432
H49	H	-1.249986	0.663125	-0.831431
C50	C	-1.191148	0.746175	-0.960964
C51	C	-1.188740	0.639688	-0.944066
H52	H	-1.141372	0.760782	-0.998510
H53	H	-1.258744	0.764560	-0.978018
H54	H	-1.174947	0.785422	-0.917822
H55	H	-1.204953	0.600445	-0.987205
H56	H	-1.121144	0.621298	-0.927021
H57	H	-1.455870	1.070148	-0.396513
H58	H	-1.455807	0.935602	-0.396490
H59	H	-1.639141	0.374334	-0.811914
O60	O	-1.459293	0.311592	-0.908846
C61	C	-1.533096	0.238230	-0.883715
H62	H	-1.609167	0.279798	-0.869845
H63	H	-1.502015	0.197667	-0.832054
C64	C	-1.459506	0.105680	-0.961822
C65	C	-1.552942	0.156734	-0.944792
H66	H	-1.471745	0.055406	-0.999495
H67	H	-1.409781	0.155104	-0.978751
H68	H	-1.433615	0.071886	-0.918765
H69	H	-1.578824	0.190537	-0.987845
H70	H	-1.602672	0.107313	-0.927871
O71	O	-1.561751	0.694654	-0.807595
C72	C	-1.662354	0.721276	-0.832727
H73	H	-1.707472	0.647226	-0.846623
H74	H	-1.655756	0.771966	-0.884373
C75	C	-1.664797	0.872858	-0.754578
C76	C	-1.720215	0.781909	-0.771638
H77	H	-1.700488	0.910264	-0.716898
H78	H	-1.597018	0.854926	-0.737647
H79	H	-1.659303	0.915088	-0.797621
H80	H	-1.725696	0.739676	-0.728598
H81	H	-1.787996	0.799836	-0.788560
H82	H	-1.334297	0.455909	-0.811939
H83	H	-1.686277	0.550318	-0.904619
H84	H	-0.906192	0.621426	-0.441494
H85	H	-1.077980	0.448945	-0.319271
O86	O	-0.952134	0.438598	-0.311791
C87	C	-1.015212	0.498069	-0.263778
H88	H	-1.031458	0.577319	-0.289886
H89	H	-0.973178	0.509428	-0.208705
C90	C	-1.099000	0.343300	-0.218389
C91	C	-1.118960	0.440633	-0.250459
H92	H	-1.162994	0.307869	-0.210170
H93	H	-1.056500	0.303231	-0.250734
H94	H	-1.063969	0.352779	-0.172499
H95	H	-1.153978	0.431151	-0.296352
H96	H	-1.161468	0.480698	-0.218121
H97	H	-1.628154	0.898301	-0.274179
