data_functionalizedCrystal
_audit_creation_method	'MofGen! by Chris Wilmer'
_symmetry_space_group_name_H-M	'P1'
_symmetry_Int_Tables_number	1
_symmetry_cell_setting	triclinic
loop_
_symmetry_equiv_pos_as_xyz
  x,y,z
_cell_length_a	6.817900
_cell_length_b	16.255699
_cell_length_c	19.453114
_cell_angle_alpha	95.850056
_cell_angle_beta	101.709288
_cell_angle_gamma	103.489404
loop_
_atom_site_label
_atom_site_type_symbol
_atom_site_fract_x
_atom_site_fract_y
_atom_site_fract_z
V1	V	-4.006858	-0.117972	-0.219234
O2	O	-3.994740	0.004762	-0.214821
O3	O	-3.958520	-0.233046	-0.217965
O4	O	-3.949772	-0.116555	-0.314744
O5	O	-4.003549	-0.112535	-0.117372
V6	V	-4.491603	-0.103244	-0.207022
O7	O	-4.265435	-0.150277	-0.246021
O8	O	-4.683223	-0.070938	-0.180235
O9	O	-4.316734	0.011830	-0.208291
O10	O	-4.621117	-0.225978	-0.211435
O11	O	-4.612309	-0.108681	-0.308884
O12	O	-4.325482	-0.104661	-0.111512
C13	C	-3.803817	-0.261086	-0.214566
C14	C	-3.845525	-0.355163	-0.214165
C15	C	-3.756521	-0.577971	-0.209573
C16	C	-3.845302	-0.625362	-0.152973
C17	C	-3.921988	-0.527414	-0.213465
C18	C	-3.907546	-0.647653	-0.269359
C19	C	-3.995836	-0.693801	-0.212792
C20	C	-4.010195	-0.573557	-0.156822
C21	C	-4.072438	-0.595852	-0.273260
C22	C	-4.161339	-0.643219	-0.216648
C23	C	-3.879440	-0.431563	-0.213852
C24	C	-4.038396	-0.789650	-0.212400
C25	C	-3.792657	-0.112489	-0.338016
C26	C	-3.827267	-0.112092	-0.416098
C27	C	-4.025311	-0.116153	-0.456363
C28	C	-4.057832	-0.115781	-0.529729
C29	C	-3.892305	-0.111363	-0.562829
C30	C	-3.694230	-0.107296	-0.522554
C31	C	-3.661712	-0.107661	-0.449188
N32	N	-3.832586	-0.156056	-0.681707
N33	N	-3.863491	-0.155712	-0.751402
C34	C	-3.990271	-0.110263	-0.783875
N35	N	-4.085014	-0.065183	-0.744023
N36	N	-4.054114	-0.065531	-0.674322
C37	C	-3.927546	-0.110967	-0.642381
C38	C	-4.223589	-0.113919	-0.903692
C39	C	-4.256100	-0.113541	-0.977059
C40	C	-3.892497	-0.105065	-0.969883
C41	C	-3.859987	-0.105435	-0.896517
C42	C	-4.025543	-0.109866	-0.863427
C43	C	-4.134779	0.039866	-0.211688
C44	C	-4.072310	0.133942	-0.212093
C45	C	-4.145939	-0.108729	-0.088236
C46	C	-4.090568	-0.109122	-0.010154
H47	H	-3.864514	-0.679911	-0.316905
H48	H	-3.559458	-0.103697	-0.549508
C49	C	-4.403064	-0.118582	-0.867649
C50	C	-4.357904	-0.045867	-0.816116
C51	C	-4.523177	-0.050137	-0.782895
H52	H	-4.525780	-0.120901	-0.902057
H53	H	-4.423069	-0.168484	-0.845650
H54	H	-4.337924	0.004021	-0.838115
H55	H	-4.235216	-0.043534	-0.781694
H56	H	-4.543181	-0.100039	-0.760896
H57	H	-4.645882	-0.052458	-0.817308
H58	H	-4.492550	-0.000806	-0.747922
C59	C	-3.446858	-0.103428	-0.405416
C60	C	-3.454724	-0.176583	-0.372704
C61	C	-3.256847	-0.172724	-0.332375
H62	H	-3.352781	-0.100792	-0.435568
H63	H	-3.401384	-0.053823	-0.370085
H64	H	-3.500171	-0.226174	-0.408031
H65	H	-3.548761	-0.179233	-0.342540
H66	H	-3.211374	-0.123120	-0.297044
H67	H	-3.162786	-0.170087	-0.362533
H68	H	-3.262162	-0.222354	-0.310170
C69	C	-4.471268	-0.118124	-1.020764
C70	C	-4.610104	-0.193969	-1.014709
C71	C	-4.808332	-0.198224	-1.054967
H72	H	-4.515785	-0.070386	-1.003740
H73	H	-4.467043	-0.117315	-1.069212
H74	H	-4.614336	-0.194770	-0.966271
H75	H	-4.565655	-0.241720	-1.031738
H76	H	-4.804107	-0.197416	-1.103415
H77	H	-4.852828	-0.150482	-1.037940
H78	H	-4.902552	-0.249688	-1.050870
H79	H	-3.584971	-0.549455	-0.206513
H80	H	-4.167946	-0.582429	-0.324122
H81	H	-3.757717	-0.101461	-0.996832
H82	H	-3.698724	-0.102137	-0.863734
C83	C	-4.273004	-0.120388	-0.573453
C84	C	-4.411805	-0.196240	-0.567393
C85	C	-4.610031	-0.200528	-0.607670
H86	H	-4.317571	-0.072656	-0.556447
H87	H	-4.268751	-0.119591	-0.621900
H88	H	-4.416065	-0.197030	-0.518956
H89	H	-4.367305	-0.243986	-0.584403
H90	H	-4.605778	-0.199731	-0.656116
H91	H	-4.654578	-0.152792	-0.590660
H92	H	-4.704228	-0.251996	-0.603568
H93	H	-4.053142	-0.541399	-0.109213
H94	H	-4.332903	-0.671564	-0.219621
C95	C	-3.717726	-0.643374	-0.085244
C96	C	-3.587913	-0.693359	-0.102715
C97	C	-3.470359	-0.709975	-0.040347
H98	H	-3.635822	-0.590818	-0.056890
H99	H	-3.807958	-0.673311	-0.059444
H100	H	-3.497692	-0.663422	-0.128503
H101	H	-3.669763	-0.745924	-0.131059
H102	H	-3.560591	-0.739912	-0.014548
H103	H	-3.388468	-0.657416	-0.011998
H104	H	-3.382282	-0.743898	-0.052192
H105	H	-4.160122	-0.119758	-0.429425
