data_functionalizedCrystal
_audit_creation_method	'MofGen! by Chris Wilmer'
_symmetry_space_group_name_H-M	'P1'
_symmetry_Int_Tables_number	1
_symmetry_cell_setting	triclinic
loop_
_symmetry_equiv_pos_as_xyz
  x,y,z
_cell_length_a	19.379189
_cell_length_b	23.096457
_cell_length_c	19.377372
_cell_angle_alpha	89.998821
_cell_angle_beta	44.216146
_cell_angle_gamma	52.464394
loop_
_atom_site_label
_atom_site_type_symbol
_atom_site_fract_x
_atom_site_fract_y
_atom_site_fract_z
Zr1	Zr	1.312201	0.203846	-0.528875
O2	O	1.630810	0.008922	-0.768759
O3	O	1.049933	0.305863	-0.403357
O4	O	1.393460	0.190651	-0.693806
O5	O	1.203538	0.166942	-0.308329
O6	O	1.393469	0.285927	-0.693811
O7	O	1.287283	0.124134	-0.478310
O8	O	0.778962	0.492021	-0.174252
O9	O	1.818045	-0.039152	-0.827888
O10	O	1.136948	0.369416	-0.412631
O11	O	1.074443	0.330259	-0.285772
O12	O	1.478901	0.194611	-0.627738
O13	O	1.416396	0.155454	-0.500879
Zr14	Zr	1.178651	0.424074	-0.257784
Zr15	Zr	1.312215	0.355802	-0.528884
Zr16	Zr	1.178637	0.272119	-0.257775
Zr17	Zr	1.610819	0.127174	-0.623180
Zr18	Zr	0.880034	0.500747	-0.163479
O19	O	1.440919	0.322058	-0.383301
O20	O	1.630830	0.224983	-0.768771
O21	O	1.440899	0.105997	-0.383289
O22	O	0.860042	0.618999	-0.017900
O23	O	1.049954	0.521924	-0.403369
O24	O	0.860022	0.402938	-0.017888
O25	O	1.287315	0.460979	-0.478329
O26	O	1.097392	0.437270	-0.092853
O27	O	1.097383	0.341994	-0.092848
O28	O	1.203569	0.503787	-0.308348
O29	O	1.818056	0.081632	-0.827895
O30	O	0.672796	0.546289	0.041237
O31	O	0.672808	0.667073	0.041230
O32	O	0.778974	0.612806	-0.174259
O33	O	1.711879	0.015115	-0.612400
O34	O	1.711890	0.135899	-0.612407
O35	O	1.011951	0.433310	-0.158921
O36	O	1.074456	0.472467	-0.285780
O37	O	1.416410	0.297662	-0.500887
O38	O	1.353905	0.258505	-0.374028
C39	C	0.871901	0.409867	-0.275368
C40	C	0.745130	0.442416	-0.235333
C41	C	1.073821	0.036985	-0.734167
C42	C	0.954532	0.067657	-0.696379
C43	C	0.656122	0.272727	-0.443998
C44	C	0.775386	0.242072	-0.481762
C45	C	0.984233	0.124199	-0.626849
C46	C	0.685797	0.329286	-0.374444
C47	C	0.805053	0.298634	-0.412209
C48	C	1.013898	0.180768	-0.557292
C49	C	1.103489	0.093547	-0.664614
C50	C	0.476952	0.447160	-0.229362
C51	C	0.387363	0.534374	-0.122044
C52	C	0.506617	0.503721	-0.159803
C53	C	0.715462	0.385854	-0.304886
C54	C	0.417027	0.590941	-0.052480
C55	C	0.536283	0.560289	-0.090245
C56	C	0.834719	0.355202	-0.342651
C57	C	1.245408	0.123888	-0.393319
C58	C	1.245402	0.059379	-0.393315
C59	C	1.066949	-0.309908	-0.281049
C60	C	1.066941	-0.249289	-0.281049
C61	C	1.245435	-0.310220	-0.393331
C62	C	1.423963	-0.431791	-0.505646
C63	C	1.423970	-0.492409	-0.505653
N64	N	1.349482	-0.268237	-0.418428
N65	N	1.349461	-0.210645	-0.418412
C66	C	1.245424	-0.127586	-0.393320
N67	N	1.141371	-0.104275	-0.368213
N68	N	1.141384	-0.161869	-0.368221
C69	C	1.245447	-0.244500	-0.393337
C70	C	1.066903	0.059700	-0.281019
C71	C	1.066906	0.120316	-0.281031
C72	C	1.423927	-0.062187	-0.505620
C73	C	1.423924	-0.122802	-0.505616
C74	C	1.245404	-0.061850	-0.393307
C75	C	1.618951	0.218054	-0.511291
C76	C	1.745722	0.185505	-0.551326
C77	C	1.412495	0.228562	-0.732434
C78	C	1.469196	0.199578	-0.847523
C79	C	1.245444	0.504033	-0.393340
C80	C	1.245450	0.568542	-0.393344
C81	C	0.763220	0.560458	-0.664633
C82	C	0.816547	0.533196	-0.772806
C83	C	1.173520	0.350713	-0.997352
C84	C	1.120224	0.377962	-0.889196
C85	C	0.915070	0.482836	-0.722840
C86	C	1.272073	0.300340	-0.947403
C87	C	1.218780	0.327585	-0.839255
C88	C	1.013636	0.432451	-0.672901
C89	C	0.861776	0.510080	-0.614693
C90	C	1.477226	0.195463	-1.113759
C91	C	1.629076	0.117841	-1.171966
C92	C	1.575783	0.145089	-1.063818
C93	C	1.370640	0.249956	-0.897464
C94	C	1.727643	0.067460	-1.122026
C95	C	1.674350	0.094704	-1.013879
C96	C	1.317346	0.277200	-0.789316
C97	C	1.078357	0.399359	-0.054224
C98	C	1.021656	0.428343	0.060865
C99	C	0.871919	0.599939	-0.275379
C100	C	0.745154	0.696998	-0.235348
C101	C	0.704832	0.495265	0.063737
C102	C	0.521360	0.556799	0.218861
C103	C	0.704850	0.685338	0.063726
C104	C	0.521384	0.811380	0.218846
C105	C	1.786002	-0.057417	-0.850385
C106	C	1.969469	-0.183460	-1.005505
C107	C	1.618933	0.027982	-0.511280
C108	C	1.745698	-0.069077	-0.551311
C109	C	1.786020	0.132655	-0.850395
C110	C	1.969492	0.071122	-1.005520
C111	C	0.718249	0.688784	-0.282775
C112	C	0.599169	0.779964	-0.245191
C113	C	0.506984	0.879362	-0.160171
C114	C	0.533899	0.887572	-0.112746
C115	C	0.652989	0.796389	-0.150339
C116	C	0.402574	0.639489	0.357935
C117	C	0.230193	0.697302	0.503696
C118	C	0.176595	0.672429	0.510381
C119	C	0.295399	0.589727	0.371291
C120	C	0.467784	0.531910	0.225531
C121	C	0.467853	0.891017	0.225474
C122	C	0.295488	1.009446	0.371210
C123	C	0.176649	1.048238	0.510320
C124	C	0.230193	0.968591	0.503687
C125	C	0.402563	0.850162	0.357950
C126	C	2.023014	-0.263100	-1.012137
C127	C	2.195415	-0.381539	-1.157885
C128	C	2.314261	-0.420332	-1.296997
C129	C	2.260709	-0.340683	-1.290361
C130	C	2.088319	-0.222249	-1.144618
C131	C	1.772621	-0.060869	-0.503899
C132	C	1.891749	-0.152065	-0.541523
C133	C	1.983940	-0.251465	-0.626548
C134	C	1.957017	-0.259673	-0.673967
C135	C	1.837903	-0.168481	-0.636353
C136	C	2.023033	0.096023	-1.012153
C137	C	2.195404	0.038227	-1.157893
C138	C	2.314240	-0.044477	-1.297001
C139	C	2.260686	-0.069375	-1.290361
C140	C	2.088309	-0.011572	-1.144620
H141	H	1.273539	-0.002445	-0.782733
Cl142	Cl	2.021041	-0.042902	-1.136313
Cl143	Cl	1.873670	0.199991	-0.837295
H144	H	1.569332	-0.591388	-0.597100
H145	H	1.926258	-0.231531	-0.898878
H146	H	2.454627	-0.516772	-1.415661
Cl147	Cl	0.834130	0.563834	-0.389668
Cl148	Cl	2.072919	-0.384638	-0.780847
Cl149	Cl	0.154482	0.739120	0.129897
Cl150	Cl	1.985538	-0.064386	-1.331160
Cl151	Cl	1.336378	-0.111202	-0.916559
Cl152	Cl	0.357269	0.993985	-0.112919
Cl153	Cl	1.804060	-0.178814	-0.695957
Cl154	Cl	1.067184	-0.041996	-0.831317
H155	H	1.569263	-0.111802	-0.597048
H156	H	2.080925	-0.325710	-0.657165
Cl157	Cl	2.530944	-0.117137	-1.480209
Cl158	Cl	1.925557	-0.141719	-0.481888
H159	H	1.697559	0.020062	-0.434658
H160	H	2.238983	0.058511	-1.163270
H161	H	0.036223	0.719515	0.629078
H162	H	2.357495	-0.372284	-1.403644
H163	H	0.564485	0.464584	0.112300
H164	H	0.133480	0.764640	0.616933
Cl165	Cl	0.393573	0.420904	-0.261610
Cl166	Cl	0.227986	0.558473	0.379723
H167	H	0.564592	0.859452	0.112219
H168	H	1.004769	0.259210	-0.460770
Cl169	Cl	1.163830	0.142232	-0.604778
Cl170	Cl	0.469909	0.670783	0.349573
H171	H	0.379864	0.472118	-0.198639
H172	H	0.217312	0.630346	-0.003918
Cl173	Cl	0.842487	0.273131	-0.139855
Cl174	Cl	2.410116	-0.173360	-1.465260
H175	H	1.340556	0.265323	-1.132808
H176	H	0.251916	1.074284	0.376584
H177	H	0.463327	0.631307	-0.002855
Cl178	Cl	0.417984	1.012542	-0.005855
H179	H	0.596163	0.645860	-0.529171
Cl180	Cl	0.842523	-0.233280	-0.139859
H181	H	0.036299	1.144674	0.628979
H182	H	0.921569	-0.150300	-0.189582
Cl183	Cl	0.080771	1.017377	0.678584
H184	H	2.238985	-0.446375	-1.163257
Cl185	Cl	1.648355	-0.508391	-0.646799
Cl186	Cl	0.842490	0.136316	-0.139849
H187	H	1.569277	-0.221776	-0.597052
H188	H	0.446124	0.785329	0.352577
Cl189	Cl	1.059435	0.409069	-0.580175
Cl190	Cl	0.946633	0.466700	-0.536939
Cl191	Cl	2.021019	-0.122138	-1.136304
H192	H	0.694720	0.595482	-0.479231
Cl193	Cl	1.544223	0.161212	-1.249716
Cl194	Cl	0.625625	0.630791	-0.699614
H195	H	1.798001	0.031494	-1.061280
Cl196	Cl	0.565351	0.769621	-0.304818
Cl197	Cl	1.886972	-0.013999	-1.381099
H198	H	0.674872	0.803095	-0.111704
