data_functionalizedCrystal
_audit_creation_method	'MofGen! by Chris Wilmer'
_symmetry_space_group_name_H-M	'P1'
_symmetry_Int_Tables_number	1
_symmetry_cell_setting	triclinic
loop_
_symmetry_equiv_pos_as_xyz
  x,y,z
_cell_length_a	16.956984
_cell_length_b	12.837942
_cell_length_c	15.455313
_cell_angle_alpha	92.949088
_cell_angle_beta	87.518126
_cell_angle_gamma	85.441179
loop_
_atom_site_label
_atom_site_type_symbol
_atom_site_fract_x
_atom_site_fract_y
_atom_site_fract_z
O1	O	1.064412	0.037869	-0.072135
O2	O	0.835002	0.074029	-0.072135
O3	O	0.944620	-0.094518	-0.072130
O4	O	0.954794	0.206416	-0.072140
O5	O	0.938349	-0.084917	0.072132
O6	O	0.828731	0.083630	0.072126
O7	O	1.058141	0.047470	0.072127
Cu8	Cu	0.942863	0.066427	0.085299
Cu9	Cu	0.950280	0.055072	-0.085307
O10	O	0.948523	0.216017	0.072121
C11	C	0.802299	0.080681	-0.000005
C12	C	0.714197	0.086186	-0.000005
C13	C	0.675118	-0.005856	-0.000000
C14	C	0.592337	-0.000678	-0.000006
C15	C	0.548635	0.096543	-0.000011
C16	C	0.587719	0.188592	-0.000019
C17	C	0.670499	0.183412	-0.000019
C18	C	0.300811	0.122182	-0.000018
C19	C	0.218025	0.127354	-0.000016
C20	C	0.222649	-0.061916	-0.000005
C21	C	0.305430	-0.067086	0.000000
C22	C	0.344507	0.024961	-0.000012
N23	N	0.464019	0.101839	-0.000015
N24	N	0.429122	0.019664	-0.000014
C25	C	0.938047	-0.128043	0.000001
C26	C	0.927797	-0.242242	-0.000001
C27	C	1.051026	-0.493761	-0.000019
C28	C	1.041399	-0.601062	-0.000020
C29	C	0.898916	-0.564147	-0.000011
C30	C	0.908543	-0.456846	-0.000010
C31	C	0.984601	-0.421658	-0.000012
C32	C	0.994227	-0.314354	-0.000005
C33	C	0.851745	-0.277442	-0.000002
C34	C	0.842118	-0.384743	-0.000004
C35	C	1.090844	0.040818	-0.000006
C36	C	1.178947	0.035313	-0.000011
C37	C	0.955096	0.249542	-0.000011
C38	C	0.965346	0.363740	-0.000015
N39	N	0.937653	0.074411	0.205294
N40	N	0.955496	0.047079	-0.205303
C41	C	0.984242	0.002830	0.250691
C42	C	0.980309	0.008878	0.341498
C43	C	0.929791	0.086512	0.386908
C44	C	0.883196	0.158096	0.341505
C45	C	0.887125	0.152044	0.250699
C46	C	0.912830	0.112611	0.658488
C47	C	0.908907	0.118660	0.749301
C48	C	1.006019	-0.030561	0.749288
C49	C	1.009947	-0.036603	0.658480
C50	C	0.963349	0.034978	0.613085
N51	N	0.925772	0.092697	0.479728
N52	N	0.967365	0.028788	0.520267
H53	H	0.341007	-0.146254	0.000008
H54	H	0.842059	0.221305	0.378483
H55	H	1.025383	-0.060383	0.213724
H56	H	0.190824	-0.136857	-0.000005
H57	H	0.867767	0.181883	0.786269
O58	O	0.867543	0.182258	0.614534
C59	C	0.822103	0.252061	0.674089
H60	H	0.851877	0.254776	0.738808
H61	H	0.817396	0.333591	0.647846
H62	H	0.760292	0.224261	0.683770
H63	H	0.797656	-0.218722	0.000010
H64	H	0.849186	0.210331	0.213738
O65	O	0.545310	0.283047	-0.000179
C66	C	0.567393	0.334389	-0.074886
H67	H	0.593770	0.274119	-0.127105
H68	H	0.512995	0.379051	-0.099966
H69	H	0.613269	0.391515	-0.057998
O70	O	1.105841	-0.671247	-0.000062
C71	C	1.081038	-0.773500	-0.000041
H72	H	1.019683	-0.774109	-0.027348
H73	H	1.124695	-0.828851	-0.041928
H74	H	1.078678	-0.800224	0.069168
O75	O	0.708547	0.272757	0.000093
C76	C	0.753031	0.280413	0.074816
H77	H	0.766354	0.199133	0.099732
H78	H	0.810995	0.315702	0.058007
H79	H	0.717716	0.332596	0.127132
H80	H	0.332617	0.197133	-0.000034
H81	H	0.710695	-0.085024	0.000008
H82	H	1.056157	-0.285706	-0.000003
O83	O	1.059034	-0.112113	0.614507
C84	C	1.099328	-0.173982	0.674048
H85	H	1.063958	-0.168074	0.738787
H86	H	1.106303	-0.259008	0.647818
H87	H	1.160303	-0.144895	0.683686
O88	O	0.554500	-0.090185	0.000043
C89	C	0.610823	-0.177105	0.000034
H90	H	0.667967	-0.151231	0.027343
H91	H	0.586700	-0.239002	0.041925
H92	H	0.623348	-0.211369	-0.069172
O93	O	1.124962	-0.459751	-0.000058
C94	C	1.181527	-0.546401	-0.000038
H95	H	1.154968	-0.619296	-0.027347
H96	H	1.235953	-0.531091	-0.041923
H97	H	1.199402	-0.558884	0.069172
H98	H	0.780194	-0.413409	-0.000005
H99	H	0.182444	0.206528	-0.000016
O100	O	0.825086	-0.598479	-0.000129
C101	C	0.818502	-0.664383	-0.074859
H102	H	0.879999	-0.698124	-0.099772
H103	H	0.780860	-0.730920	-0.058061
H104	H	0.789324	-0.617401	-0.127173
O105	O	1.025656	-0.060700	0.385462
C106	C	1.071080	-0.130526	0.325910
H107	H	1.077971	-0.092689	0.261173
H108	H	1.132026	-0.149843	0.352130
H109	H	1.039976	-0.205506	0.316274
H110	H	1.043956	-0.088840	0.786257
