data_functionalizedCrystal
_audit_creation_method	'MofGen! by Chris Wilmer'
_symmetry_space_group_name_H-M	'P1'
_symmetry_Int_Tables_number	1
_symmetry_cell_setting	triclinic
loop_
_symmetry_equiv_pos_as_xyz
  x,y,z
_cell_length_a	19.188930
_cell_length_b	19.188930
_cell_length_c	18.266242
_cell_angle_alpha	90.011475
_cell_angle_beta	89.977082
_cell_angle_gamma	96.855221
loop_
_atom_site_label
_atom_site_type_symbol
_atom_site_fract_x
_atom_site_fract_y
_atom_site_fract_z
O1	O	0.926149	-0.087169	-0.061124
O2	O	0.722838	-0.098903	-0.061075
O3	O	0.830361	0.008620	-0.061087
O4	O	0.818627	-0.194691	-0.061113
O5	O	0.830343	0.008625	0.060675
O6	O	0.722820	-0.098897	0.060687
O7	O	0.926131	-0.087163	0.060638
Zn8	Zn	0.824473	-0.093029	0.079994
Zn9	Zn	0.824497	-0.093037	-0.080432
O10	O	0.818608	-0.194686	0.060649
C11	C	0.696818	-0.098520	-0.000188
C12	C	0.619313	-0.097380	-0.000169
C13	C	0.574389	-0.160470	-0.000188
C14	C	0.501566	-0.159399	-0.000196
C15	C	0.473669	-0.095233	-0.000199
C16	C	0.518603	-0.032133	-0.000175
C17	C	0.591425	-0.033207	-0.000160
N18	N	0.365695	-0.046188	-0.041663
N19	N	0.296516	-0.045172	-0.041679
C20	C	0.254260	-0.091994	-0.000243
N21	N	0.283795	-0.139881	0.041200
N22	N	0.352980	-0.140899	0.041213
C23	C	0.394707	-0.094062	-0.000215
C24	C	0.130372	-0.153928	-0.000270
C25	C	0.057547	-0.152853	-0.000274
C26	C	0.074586	-0.025586	-0.000261
C27	C	0.147409	-0.026662	-0.000250
C28	C	0.175298	-0.090835	-0.000258
C29	C	0.829972	0.034634	-0.000204
C30	C	0.828831	0.112138	-0.000197
C31	C	0.952151	-0.087546	-0.000252
C32	C	1.029656	-0.088687	-0.000276
C33	C	0.818997	-0.220700	-0.000236
C34	C	0.820138	-0.298204	-0.000247
N35	N	0.824461	-0.093024	0.189481
C36	C	0.891922	0.157062	-0.000209
C37	C	0.890850	0.229886	-0.000220
C38	C	0.826684	0.257782	-0.000206
C39	C	0.763585	0.212849	-0.000198
C40	C	0.764658	0.140026	-0.000194
N41	N	0.777631	0.365789	0.041244
N42	N	0.776615	0.434968	0.041242
C43	C	0.823446	0.477191	-0.000220
N44	N	0.871341	0.447624	-0.041669
N45	N	0.872359	0.378439	-0.041664
C46	C	0.825513	0.336745	-0.000210
C47	C	0.885379	0.601079	-0.000245
C48	C	0.884305	0.673904	-0.000261
C49	C	0.757038	0.656865	-0.000231
C50	C	0.758114	0.584042	-0.000222
C51	C	0.822287	0.556154	-0.000226
N52	N	0.824513	-0.093037	-0.189919
C53	C	0.872088	-0.045436	0.227785
C54	C	0.872092	-0.045433	0.304430
C55	C	0.824477	-0.093030	0.342768
C56	C	0.776841	-0.140621	0.304455
C57	C	0.776834	-0.140618	0.227812
N58	N	0.815401	-0.154837	0.463094
N59	N	0.815413	-0.154838	0.535902
C60	C	0.824496	-0.093040	0.573691
N61	N	0.833582	-0.031239	0.535920
N62	N	0.833574	-0.031240	0.463106
C63	C	0.824480	-0.093038	0.425875
C64	C	0.872131	-0.045444	0.695101
C65	C	0.872130	-0.045440	0.771748
C66	C	0.776882	-0.140634	0.771772
C67	C	0.776879	-0.140632	0.695127
C68	C	0.824507	-0.093038	0.656796
H69	H	0.153080	-0.206181	-0.000267
H70	H	0.910910	-0.006688	0.663892
O71	O	0.918466	0.000815	0.808845
C72	C	0.960488	0.042830	0.758574
H73	H	0.961179	0.014206	0.703933
H74	H	1.016279	0.053611	0.780693
H75	H	0.937987	0.094646	0.750447
O76	O	0.918373	0.000868	0.190666
C77	C	0.960423	0.042860	0.240915
H78	H	0.931807	0.043573	0.295566
H79	H	0.971245	0.098648	0.218783
H80	H	1.012217	0.020315	0.249031
O81	O	0.491474	0.030180	-0.000310
C82	C	0.449884	0.034598	-0.063373
H83	H	0.467023	-0.001836	-0.107449
H84	H	0.456604	0.090888	-0.084534
H85	H	0.392397	0.018317	-0.049132
O86	O	0.703305	0.096483	-0.000146
C87	C	0.646437	0.136716	-0.000158
H88	H	0.664321	0.191131	0.022884
H89	H	0.602239	0.109727	0.035204
H90	H	0.626768	0.141825	-0.058570
H91	H	0.706738	0.547464	-0.000208
O92	O	0.730656	-0.186965	0.808924
C93	C	0.741800	-0.256055	0.790188
H94	H	0.768707	-0.255903	0.734526
H95	H	0.689213	-0.290569	0.787585
H96	H	0.776488	-0.277562	0.833301
H97	H	0.738100	-0.179386	0.663938
O98	O	0.954318	0.130089	-0.000250
C99	C	1.009774	0.185362	-0.000243
H100	H	0.990358	0.234769	-0.023295
H101	H	1.054596	0.170273	-0.035600
H102	H	1.029213	0.195739	0.058169
O103	O	0.952094	0.273605	-0.000129
C104	C	0.955269	0.316236	0.062941
H105	H	0.899855	0.319751	0.083970
H106	H	0.981447	0.371048	0.048756
H107	H	0.987072	0.292383	0.107097
H108	H	0.738071	-0.179374	0.335674
O109	O	0.601363	-0.222867	-0.000156
C110	C	0.546090	-0.278323	-0.000192
H111	H	0.496663	-0.258901	0.022849
H112	H	0.561150	-0.323135	0.035159
H113	H	0.535761	-0.297777	-0.058612
H114	H	0.183988	0.024713	-0.000238
H115	H	0.711340	0.235567	-0.000187
H116	H	0.020970	-0.204232	-0.000285
H117	H	0.628003	0.018171	-0.000145
O118	O	0.947774	0.574099	-0.000294
C119	C	1.003232	0.629371	-0.000299
H120	H	0.983814	0.678778	-0.023347
H121	H	1.048047	0.614279	-0.035664
H122	H	1.022681	0.639749	0.058109
O123	O	0.457845	-0.220641	-0.000317
C124	C	0.415263	-0.223827	-0.063400
H125	H	0.411768	-0.168417	-0.084413
H126	H	0.360439	-0.249999	-0.049237
H127	H	0.439150	-0.255641	-0.107558
H128	H	0.051874	0.026659	-0.000309
H129	H	0.935683	0.710481	-0.000274
O130	O	0.694767	0.684071	-0.000187
C131	C	0.707347	0.757980	-0.000217
H132	H	0.761881	0.775254	0.022825
H133	H	0.666293	0.780226	0.035137
H134	H	0.704038	0.778225	-0.058635
H135	H	0.910877	-0.006680	0.335623
H136	H	0.738049	-0.179371	0.196624
