data_functionalizedCrystal
_audit_creation_method	'MofGen! by Chris Wilmer'
_symmetry_space_group_name_H-M	'P1'
_symmetry_Int_Tables_number	1
_symmetry_cell_setting	triclinic
loop_
_symmetry_equiv_pos_as_xyz
  x,y,z
_cell_length_a	23.532355
_cell_length_b	17.038272
_cell_length_c	15.500361
_cell_angle_alpha	86.957697
_cell_angle_beta	87.184305
_cell_angle_gamma	93.030473
loop_
_atom_site_label
_atom_site_type_symbol
_atom_site_fract_x
_atom_site_fract_y
_atom_site_fract_z
O1	O	0.757794	-0.098322	0.071826
O2	O	1.257794	0.401678	0.571826
O3	O	0.592649	-0.112093	0.071854
O4	O	1.092649	0.387907	0.571854
O5	O	0.674240	0.008600	0.071833
O6	O	1.174240	0.508600	0.571833
O7	O	0.676203	-0.219016	0.071847
O8	O	1.176203	0.280984	0.571847
O9	O	0.679165	0.015900	-0.072054
O10	O	1.179165	0.515900	0.427946
O11	O	0.597574	-0.104794	-0.072033
O12	O	1.097574	0.395206	0.427967
O13	O	0.762719	-0.091022	-0.072061
O14	O	1.262719	0.408978	0.427939
Cu15	Cu	0.680596	-0.097242	-0.085185
Cu16	Cu	1.180596	0.402758	0.414815
Cu17	Cu	0.674772	-0.105874	0.084978
Cu18	Cu	1.174772	0.394126	0.584978
O19	O	0.681128	-0.211716	-0.072040
O20	O	1.181128	0.288284	0.427960
C21	C	0.573877	-0.108100	-0.000086
C22	C	1.073877	0.391900	0.499914
C23	C	0.510604	-0.107065	-0.000076
C24	C	1.010604	0.392935	0.499924
C25	C	0.120934	-0.096582	-0.078545
C26	C	0.620934	0.403418	0.421455
C27	C	0.061483	-0.095597	-0.078549
C28	C	0.561483	0.404403	0.421451
O29	O	0.033019	-0.091678	-0.145252
O30	O	0.533019	0.408322	0.354748
N31	N	0.029064	-0.099088	-0.000116
N32	N	0.529064	0.400912	0.499884
C33	C	0.056100	-0.103556	0.078325
C34	C	0.556100	0.396444	0.578325
O35	O	0.023066	-0.106434	0.145037
O36	O	0.523066	0.393566	0.645037
C37	C	0.115550	-0.104535	0.078327
C38	C	0.615550	0.395465	0.578327
C39	C	0.147965	-0.101052	-0.000110
C40	C	0.647965	0.398948	0.499890
C41	C	0.153349	-0.093098	-0.156976
C42	C	0.653349	0.406902	0.343024
C43	C	0.212796	-0.094084	-0.156973
C44	C	0.712796	0.405916	0.343027
C45	C	0.239828	-0.098554	-0.078538
C46	C	0.739828	0.401446	0.421462
C47	C	0.207412	-0.102038	-0.000107
C48	C	0.707412	0.397962	0.499893
C49	C	0.142585	-0.108998	0.156767
C50	C	0.642585	0.391002	0.656767
C51	C	0.202039	-0.109976	0.156763
C52	C	0.702039	0.390024	0.656763
C53	C	0.234455	-0.106493	0.078325
C54	C	0.734455	0.393507	0.578325
C55	C	0.293891	-0.107494	0.078332
C56	C	0.793891	0.392506	0.578332
N57	N	0.326309	-0.104003	-0.000100
N58	N	0.826309	0.395997	0.499900
C59	C	0.299278	-0.099533	-0.078535
C60	C	0.799278	0.400467	0.421465
C61	C	-0.068750	-0.101499	0.078313
C62	C	0.431250	0.398501	0.578313
C63	C	-0.128199	-0.100525	0.078312
C64	C	0.371801	0.399475	0.578312
C65	C	-0.122812	-0.092565	-0.078562
C66	C	0.377188	0.407435	0.421438
C67	C	-0.063361	-0.093544	-0.078559
C68	C	0.436639	0.406456	0.421441
C69	C	-0.036331	-0.098008	-0.000119
C70	C	0.463669	0.401992	0.499881
C71	C	0.424120	-0.101605	-0.078522
C72	C	0.924120	0.398395	0.421478
C73	C	0.483572	-0.102595	-0.078511
C74	C	0.983572	0.397405	0.421489
C75	C	0.478180	-0.110551	0.078362
C76	C	0.978180	0.389449	0.578362
C77	C	0.418733	-0.109566	0.078352
C78	C	0.918733	0.390434	0.578352
C79	C	0.391705	-0.105090	-0.000097
C80	C	0.891705	0.394910	0.499903
O81	O	0.322393	-0.111410	0.145001
O82	O	0.822393	0.388590	0.645001
O83	O	0.332319	-0.096646	-0.145237
O84	O	0.832319	0.403354	0.354763
C85	C	0.674918	0.041365	-0.000110
C86	C	1.174918	0.541365	0.499890
C87	C	0.669591	0.128117	-0.000109
C88	C	1.169591	0.628117	0.499891
C89	C	0.781491	-0.095016	-0.000119
C90	C	1.281491	0.404984	0.499881
C91	C	0.844764	-0.096051	-0.000124
C92	C	1.344764	0.403949	0.499876
C93	C	0.680451	-0.244481	-0.000095
C94	C	1.180451	0.255519	0.499905
C95	C	0.685777	-0.331233	-0.000091
C96	C	1.185777	0.168767	0.499909
N97	N	0.684697	-0.091169	-0.204868
N98	N	1.184697	0.408831	0.295132
C99	C	0.718496	0.178606	-0.000118
C100	C	1.218496	0.678606	0.499882
C101	C	0.713488	0.260118	-0.000109
C102	C	1.213488	0.760118	0.499891
C103	C	0.659573	0.291139	-0.000097
C104	C	1.159573	0.791139	0.499903
C105	C	0.610664	0.240643	-0.000085
C106	C	1.110664	0.740643	0.499915
C107	C	0.615673	0.159133	-0.000088
C108	C	1.115673	0.659133	0.499912
C109	C	0.641877	0.536761	-0.000082
C110	C	1.141877	1.036761	0.499918
C111	C	0.636872	0.618278	-0.000082
C112	C	1.136872	1.118278	0.499918
C113	C	0.739696	0.637747	-0.000104
C114	C	1.239696	1.137747	0.499896
C115	C	0.744701	0.556234	-0.000112
C116	C	1.244701	1.056234	0.499888
C117	C	0.695791	0.505745	-0.000096
C118	C	1.195791	1.005745	0.499904
C119	C	0.654452	0.374457	-0.000090
C120	C	1.154452	0.874457	0.499910
C121	C	0.700912	0.422428	-0.000096
C122	C	1.200912	0.922428	0.499904
C123	C	0.650117	-0.142292	-0.250158
C124	C	1.150117	0.357708	0.249842
C125	C	0.653234	-0.137696	-0.340729
C126	C	1.153234	0.362304	0.159271
C127	C	0.690929	-0.081974	-0.386010
C128	C	1.190929	0.418026	0.113990
C129	C	0.725514	-0.030849	-0.340715
C130	C	1.225514	0.469151	0.159285
C131	C	0.722399	-0.035449	-0.250145
C132	C	1.222399	0.464551	0.249855
C133	C	0.702145	-0.065415	-0.659473
C134	C	1.202145	0.434585	-0.159473
C135	C	0.705256	-0.060818	-0.750049
C136	C	1.205256	0.439182	-0.250049
C137	C	0.632976	-0.167667	-0.750058
C138	C	1.132976	0.332333	-0.250058
C139	C	0.629862	-0.172259	-0.659486
C140	C	1.129862	0.327741	-0.159486
C141	C	0.664449	-0.121137	-0.614198
C142	C	1.164449	0.378863	-0.114198
C143	C	0.694116	-0.077273	-0.478589
C144	C	1.194116	0.422727	0.021411
C145	C	0.661265	-0.125841	-0.521621
C146	C	1.161265	0.374159	-0.021621
N147	N	0.670675	-0.111940	0.204661
N148	N	1.170675	0.388060	0.704661
H149	H	0.116202	-0.111833	0.220640
H150	H	0.616202	0.388167	0.720640
H151	H	0.604818	-0.209289	-0.786939
H152	H	1.104818	0.290711	-0.286939
H153	H	0.575848	0.118024	-0.000080
H154	H	1.075848	0.618024	0.499920
H155	H	0.744809	0.397167	-0.000086
H156	H	1.244809	0.897167	0.499914
H157	H	0.753312	0.301224	-0.000118
H158	H	1.253312	0.801224	0.499882
H159	H	-0.046746	-0.105141	0.142193
H160	H	0.453254	0.394859	0.642193
H161	H	0.619418	-0.187664	-0.213296
H162	H	1.119418	0.312336	0.286704
H163	H	0.500199	-0.114194	0.142222
H164	H	1.000199	0.385806	0.642222
H165	H	0.610555	0.399724	-0.000083
H166	H	1.110555	0.899724	0.499917
H167	H	0.599168	-0.217632	-0.622620
H168	H	1.099168	0.282368	-0.122620
H169	H	0.509963	-0.099761	-0.142387
H170	H	1.009963	0.400239	0.357613
H171	H	0.625076	-0.179325	-0.377603
H172	H	1.125076	0.320675	0.122397
H173	H	0.750559	0.006180	-0.213271
H174	H	1.250559	0.506180	0.286729
H175	H	0.239184	-0.091243	-0.220845
H176	H	0.739184	0.408757	0.279155
H177	H	0.131347	-0.089457	-0.220851
H178	H	0.631347	0.410543	0.279149
H179	H	0.630576	-0.171214	-0.484751
H180	H	1.130576	0.328786	0.015249
H181	H	0.788603	0.530983	-0.000122
H182	H	1.288603	1.030983	0.499878
H183	H	0.735954	-0.015438	-0.786913
H184	H	1.235954	0.484562	-0.286913
H185	H	0.756209	0.014519	-0.377588
H186	H	1.256209	0.514519	0.122412
H187	H	0.724807	-0.031901	-0.515464
H188	H	1.224807	0.468099	-0.015464
H189	H	-0.144831	-0.088924	-0.142428
H190	H	0.355169	0.411076	0.357572
H191	H	0.592966	0.643532	-0.000086
H192	H	1.092966	1.143532	0.499914
H193	H	0.402121	-0.097968	-0.142402
H194	H	0.902121	0.402032	0.357598
H195	H	0.762400	0.153356	-0.000133
H196	H	1.262400	0.653356	0.499867
H197	H	0.730306	-0.023788	-0.622607
H198	H	1.230306	0.476212	-0.122607
H199	H	0.779515	0.678863	-0.000115
H200	H	1.279515	1.178863	0.499885
H201	H	-0.154588	-0.103374	0.142184
H202	H	0.345412	0.396626	0.642184
H203	H	-0.036972	-0.090708	-0.142430
H204	H	0.463028	0.409292	0.357570
H205	H	0.224044	-0.113611	0.220640
H206	H	0.724044	0.386389	0.720640
H207	H	0.566765	0.265906	-0.000070
H208	H	1.066765	0.765906	0.499930
H209	H	0.392338	-0.112415	0.142222
H210	H	0.892338	0.387585	0.642222
H211	H	0.602051	0.495662	-0.000069
H212	H	1.102051	0.995662	0.499931
