data_functionalizedCrystal
_audit_creation_method	'MofGen! by Chris Wilmer'
_symmetry_space_group_name_H-M	'P1'
_symmetry_Int_Tables_number	1
_symmetry_cell_setting	triclinic
loop_
_symmetry_equiv_pos_as_xyz
  x,y,z
_cell_length_a	17.019372
_cell_length_b	17.038272
_cell_length_c	16.098687
_cell_angle_alpha	92.928906
_cell_angle_beta	83.409909
_cell_angle_gamma	87.242864
loop_
_atom_site_label
_atom_site_type_symbol
_atom_site_fract_x
_atom_site_fract_y
_atom_site_fract_z
O1	O	1.053645	0.099258	-0.006242
O2	O	1.553645	0.599258	0.493758
O3	O	0.824054	0.112796	0.010211
O4	O	1.324054	0.612796	0.510211
O5	O	0.937485	-0.007783	0.002075
O6	O	1.437485	0.492217	0.502075
O7	O	0.940214	0.219836	0.001893
O8	O	1.440214	0.719836	0.501893
O9	O	0.944075	-0.014802	-0.136907
O10	O	1.444075	0.485198	0.363093
O11	O	0.830644	0.105776	-0.128772
O12	O	1.330644	0.605776	0.371228
O13	O	1.060235	0.092239	-0.145225
O14	O	1.560235	0.592239	0.354775
Zn15	Zn	0.946486	0.097893	-0.159065
Zn16	Zn	1.446486	0.597893	0.340935
Zn17	Zn	0.937803	0.107141	0.024051
Zn18	Zn	1.437803	0.607141	0.524051
O19	O	0.946804	0.212817	-0.137090
O20	O	1.446804	0.712817	0.362910
C21	C	0.797828	0.108912	-0.057165
C22	C	1.297828	0.608912	0.442835
C23	C	0.709862	0.107788	-0.050861
C24	C	1.209862	0.607788	0.449139
C25	C	0.212167	0.101600	-0.011353
C26	C	0.712167	0.601600	0.488647
C27	C	0.294820	0.102656	-0.017287
C28	C	0.794820	0.602656	0.482713
C29	C	0.339731	0.099363	-0.096014
C30	C	0.839731	0.599363	0.403986
C31	C	0.301985	0.095006	-0.168812
C32	C	0.801985	0.595006	0.331188
C33	C	0.219334	0.093945	-0.162877
C34	C	0.719334	0.593945	0.337123
C35	C	0.589465	0.102370	-0.117724
C36	C	1.089465	0.602370	0.382276
C37	C	0.672122	0.103434	-0.123654
C38	C	1.172122	0.603434	0.376346
C39	C	0.664951	0.111082	0.027872
C40	C	1.164951	0.611082	0.527872
C41	C	0.582298	0.110025	0.033800
C42	C	1.082298	0.610025	0.533800
C43	C	0.544560	0.105665	-0.038998
C44	C	1.044560	0.605665	0.461002
C45	C	0.424216	0.100444	-0.102082
C46	C	0.924216	0.600444	0.397918
C47	C	0.460077	0.104578	-0.032929
C48	C	0.960077	0.604578	0.467071
C49	C	0.938298	-0.040410	-0.067238
C50	C	1.438298	0.459590	0.432762
C51	C	0.930893	-0.127169	-0.066707
C52	C	1.430893	0.372831	0.433293
C53	C	0.998883	-0.177589	-0.071580
C54	C	1.498883	0.322411	0.428420
C55	C	0.991920	-0.259108	-0.071073
C56	C	1.491920	0.240892	0.428927
C57	C	0.916966	-0.290205	-0.065699
C58	C	1.416966	0.209795	0.434301
C59	C	0.848970	-0.239779	-0.060823
C60	C	1.348970	0.260221	0.439177
C61	C	0.855934	-0.158261	-0.061324
C62	C	1.355934	0.341739	0.438676
C63	C	0.892364	-0.535852	-0.063925
C64	C	1.392364	-0.035852	0.436075
C65	C	0.885405	-0.617376	-0.063427
C66	C	1.385405	-0.117376	0.436573
C67	C	1.028356	-0.636700	-0.073675
C68	C	1.528356	-0.136700	0.426325
C69	C	1.035314	-0.555180	-0.074181
C70	C	1.535314	-0.055180	0.425819
C71	C	0.967318	-0.504760	-0.069300
C72	C	1.467318	-0.004760	0.430700
C73	C	0.909846	-0.373531	-0.065183
C74	C	1.409846	0.126469	0.434817
C75	C	0.974437	-0.421436	-0.069810
C76	C	1.474437	0.078564	0.430190
C77	C	1.086461	0.096122	-0.077847
C78	C	1.586461	0.596122	0.422153
C79	C	1.174426	0.097247	-0.084145
C80	C	1.674426	0.597247	0.415855
C81	C	0.945991	0.245444	-0.067774
C82	C	1.445991	0.745444	0.432226
C83	C	0.953396	0.332204	-0.068300
C84	C	1.453396	0.832204	0.431700
N85	N	0.952418	0.091580	-0.284037
N86	N	1.452418	0.591580	0.215963
C87	C	0.980033	0.062288	-0.810825
C88	C	1.480033	0.562288	-0.310825
C89	C	0.975866	0.066714	-0.723339
C90	C	1.475866	0.566714	-0.223339
C91	C	0.923538	0.122296	-0.676007
C92	C	1.423538	0.622296	-0.176007
C93	C	0.875380	0.173460	-0.716166
C94	C	1.375380	0.673460	-0.216166
C95	C	0.879552	0.169038	-0.803651
C96	C	1.379552	0.669038	-0.303651
C97	C	0.908432	0.138322	-0.411680
C98	C	1.408432	0.638322	0.088320
C99	C	0.904262	0.142740	-0.324190
C100	C	1.404262	0.642740	0.175810
C101	C	1.004749	0.035994	-0.331369
C102	C	1.504749	0.535994	0.168631
C103	C	1.008913	0.031573	-0.418854
C104	C	1.508913	0.531573	0.081146
C105	C	0.960758	0.082740	-0.459006
C106	C	1.460758	0.582740	0.040994
C107	C	0.919275	0.126819	-0.586582
C108	C	1.419275	0.626819	-0.086582
C109	C	0.965025	0.078220	-0.548430
C110	C	1.465025	0.578220	-0.048430
N111	N	0.931877	0.113447	0.149022
N112	N	1.431877	0.613447	0.649022
H113	H	0.188606	0.090408	-0.222153
H114	H	0.688606	0.590408	0.277847
H115	H	1.035464	-0.396112	-0.074167
H116	H	1.535464	0.103888	0.425833
Br117	Br	0.747244	-0.281981	-0.053515
Br118	Br	1.247244	0.218019	0.446485
Br119	Br	0.399127	0.109031	0.073911
Br120	Br	0.899127	0.609031	0.573911
Br121	Br	1.084198	-0.327533	-0.077687
Br122	Br	1.584198	0.172467	0.422313
H123	H	1.096349	-0.529867	-0.078557
H124	H	1.596349	-0.029867	0.421443
Br125	Br	0.783675	-0.659579	-0.056141
Br126	Br	1.283675	-0.159579	0.443859
H127	H	0.832777	0.218720	-0.677624
H128	H	1.332777	0.718720	-0.177624
H129	H	0.708686	0.100758	-0.187766
H130	H	1.208686	0.600758	0.312234
H131	H	1.043955	-0.005663	-0.298669
H132	H	1.543955	0.494337	0.201331
Br133	Br	0.151224	0.106078	0.095496
Br134	Br	0.651224	0.606078	0.595496
H135	H	0.545737	0.112706	0.097908
H136	H	1.045737	0.612706	0.597908
Br137	Br	0.763657	-0.089832	-0.054703
Br138	Br	1.263657	0.410168	0.445297
H139	H	0.836996	-0.494810	-0.059951
H140	H	1.336996	0.005190	0.440049
H141	H	1.051522	-0.013686	-0.457390
H142	H	1.551522	0.486314	0.042610
Br143	Br	0.814200	0.238476	-0.858144
Br144	Br	1.314200	0.738476	-0.358144
Br145	Br	1.036044	0.002794	-0.612666
Br146	Br	1.536044	0.502794	-0.112666
H147	H	0.460791	0.097765	-0.166182
H148	H	0.960791	0.597765	0.333818
H149	H	0.695687	0.114631	0.087140
H150	H	1.195687	0.614631	0.587140
H151	H	1.059919	-0.152277	-0.075962
H152	H	1.559919	0.347723	0.424038
H153	H	0.848818	-0.398859	-0.060810
H154	H	1.348818	0.101141	0.439190
Br155	Br	1.120631	-0.705130	-0.080299
Br156	Br	1.620631	-0.205130	0.419701
Br157	Br	0.848260	0.202251	-0.522343
Br158	Br	1.348260	0.702251	-0.022343
Br159	Br	0.538257	0.096473	-0.216522
Br160	Br	1.038257	0.596473	0.283478
H161	H	1.022640	0.017025	-0.849357
H162	H	1.522640	0.517025	-0.349357
Br163	Br	0.833235	0.218175	-0.259958
Br164	Br	1.333235	0.718175	0.240042
H165	H	1.015079	0.025057	-0.690647
H166	H	1.515079	0.525057	-0.190647
H167	H	0.869221	0.179983	-0.444365
H168	H	1.369221	0.679983	0.055635
H169	H	0.338558	0.092320	-0.232914
H170	H	0.838558	0.592320	0.267086
H171	H	0.325545	0.106196	0.041988
H172	H	0.825545	0.606196	0.541988
