data_functionalizedCrystal
_audit_creation_method	'MofGen! by Chris Wilmer'
_symmetry_space_group_name_H-M	'P1'
_symmetry_Int_Tables_number	1
_symmetry_cell_setting	triclinic
loop_
_symmetry_equiv_pos_as_xyz
  x,y,z
_cell_length_a	33.510554
_cell_length_b	33.509711
_cell_length_c	33.506470
_cell_angle_alpha	60.004186
_cell_angle_beta	60.008358
_cell_angle_gamma	59.994760
loop_
_atom_site_label
_atom_site_type_symbol
_atom_site_fract_x
_atom_site_fract_y
_atom_site_fract_z
O1	O	0.055430	-0.583081	0.487524
O2	O	0.555430	-0.083081	0.987524
O3	O	0.020931	-0.453975	0.392819
O4	O	0.520931	0.046025	0.892819
O5	O	0.102693	-0.535652	0.392731
O6	O	0.602693	-0.035652	0.892731
O7	O	-0.026332	-0.501404	0.487613
O8	O	0.473668	-0.001404	0.987613
O9	O	0.129823	-0.508526	0.419767
O10	O	0.629823	-0.008526	0.919767
O11	O	0.048062	-0.426850	0.419856
O12	O	0.548062	0.073150	0.919856
O13	O	0.082561	-0.555956	0.514561
O14	O	0.582561	-0.055956	1.014561
Cu15	Cu	0.067789	-0.488926	0.469677
Cu16	Cu	0.567789	0.011074	0.969677
Cu17	Cu	0.035703	-0.521005	0.437703
Cu18	Cu	0.535703	-0.021005	0.937703
O19	O	0.000799	-0.474279	0.514649
O20	O	0.500799	0.025721	1.014649
N21	N	0.090357	-0.466366	0.492168
N22	N	0.590357	0.033634	0.992168
N23	N	0.013139	-0.543569	0.415212
N24	N	0.513139	-0.043569	0.915212
C25	C	0.143028	-0.279707	0.544737
C26	C	0.643028	0.220293	1.044737
C27	C	0.143165	-0.413746	0.678712
C28	C	0.643165	0.086254	1.178712
C29	C	0.143043	-0.413725	0.544739
C30	C	0.643043	0.086275	1.044739
C31	C	0.277090	-0.413694	0.544637
C32	C	0.777090	0.086306	1.044637
C33	C	0.157791	-0.323929	0.559462
C34	C	0.657791	0.176071	1.059462
C35	C	0.157869	-0.398994	0.634489
C36	C	0.657869	0.101006	1.134489
C37	C	0.232865	-0.398963	0.559407
C38	C	0.732865	0.101037	1.059407
C39	C	0.157801	-0.398982	0.559463
C40	C	0.657801	0.101018	1.059463
C41	C	0.124237	-0.223419	0.525994
C42	C	0.624237	0.276581	1.025994
C43	C	0.124262	-0.432490	0.525997
C44	C	0.624262	0.067510	1.025997
C45	C	0.176583	-0.380217	0.578205
C46	C	0.676583	0.119783	1.078205
C47	C	0.358938	-0.399566	0.501510
C48	C	0.858938	0.100434	1.001510
C49	C	0.410104	-0.416609	0.484423
C50	C	0.910104	0.083391	0.984423
C51	C	0.410135	-0.499402	0.515995
C52	C	0.910135	0.000598	1.015995
C53	C	0.358969	-0.482358	0.533084
C54	C	0.858969	0.017642	1.033084
C55	C	0.136554	-0.197822	0.475693
C56	C	0.636554	0.302178	0.975693
C57	C	0.119469	-0.146653	0.458657
C58	C	0.619469	0.353347	0.958657
C59	C	0.077755	-0.146680	0.542223
C60	C	0.577755	0.353320	1.042223
C61	C	0.094840	-0.197850	0.559260
C62	C	0.594840	0.302150	1.059260
C63	C	0.073954	-0.420144	0.538396
C64	C	0.573954	0.079856	1.038396
C65	C	0.056884	-0.437203	0.521352
C66	C	0.556884	0.062797	1.021352
C67	C	0.140427	-0.478952	0.479524
C68	C	0.640427	0.021048	0.979524
C69	C	0.157498	-0.461894	0.496561
C70	C	0.657498	0.038106	0.996561
C71	C	0.074158	-0.420182	0.760618
C72	C	0.574158	0.079818	1.260618
C73	C	0.057149	-0.437256	0.811786
C74	C	0.557149	0.062744	1.311786
C75	C	0.140732	-0.479014	0.811717
C76	C	0.640732	0.020986	1.311717
C77	C	0.157740	-0.461942	0.760547
C78	C	0.657740	0.038058	1.260547
C79	C	0.124452	-0.432525	0.734999
C80	C	0.624452	0.067475	1.234999
C81	C	0.333372	-0.432439	0.525839
C82	C	0.833372	0.067561	1.025839
C83	C	-0.020612	-0.577650	0.170305
C84	C	0.479388	-0.077650	0.670305
C85	C	-0.020943	-0.788098	0.380897
C86	C	0.479057	-0.288098	0.880897
C87	C	-0.020912	-0.577638	0.380991
C88	C	0.479088	-0.077638	0.880991
C89	C	-0.231336	-0.577418	0.380585
C90	C	0.268664	-0.077418	0.880585
C91	C	-0.129735	-0.611383	0.346870
C92	C	0.370265	-0.111383	0.846870
C93	C	-0.054722	-0.611464	0.347017
C94	C	0.445278	-0.111464	0.847017
C95	C	-0.073450	-0.630202	0.328195
C96	C	0.426550	-0.130202	0.828195
C97	C	-0.087616	-0.712029	0.371239
C98	C	0.412384	-0.212029	0.871239
C99	C	-0.070599	-0.763199	0.388315
C100	C	0.429401	-0.263199	0.888315
C101	C	0.012191	-0.763282	0.356872
C102	C	0.512191	-0.263282	0.856872
C103	C	-0.004828	-0.712113	0.339795
C104	C	0.495172	-0.212113	0.839795
C105	C	-0.155381	-0.623711	0.397158
C106	C	0.344619	-0.123711	0.897158
C107	C	-0.206547	-0.606601	0.414133
C108	C	0.293453	-0.106601	0.914133
C109	C	-0.206417	-0.564839	0.330529
C110	C	0.293583	-0.064839	0.830529
C111	C	-0.155251	-0.581949	0.313554
C112	C	0.344749	-0.081949	0.813554
C113	C	-0.067051	-0.561160	0.334643
C114	C	0.432949	-0.061160	0.834643
C115	C	-0.050026	-0.544131	0.351759
C116	C	0.449974	-0.044131	0.851759
C117	C	-0.008343	-0.627704	0.393612
C118	C	0.491657	-0.127704	0.893612
C119	C	-0.025368	-0.644736	0.376502
C120	C	0.474632	-0.144736	0.876502
C121	C	-0.066922	-0.561168	0.246303
C122	C	0.433078	-0.061168	0.746303
C123	C	-0.049794	-0.544141	0.195134
C124	C	0.450206	-0.044141	0.695134
C125	C	-0.008048	-0.627719	0.195183
C126	C	0.491952	-0.127719	0.695183
C127	C	-0.025175	-0.644745	0.246352
C128	C	0.474825	-0.144745	0.746352
C129	C	-0.054614	-0.611468	0.271911
C130	C	0.445386	-0.111468	0.771911
C131	C	-0.054732	-0.686488	0.346980
C132	C	0.445268	-0.186488	0.846980
C133	C	-0.002117	-0.558258	0.114025
C134	C	0.497883	-0.058258	0.614025
C135	C	-0.002879	-0.844379	0.399940
C136	C	0.497121	-0.344379	0.899940
C137	C	-0.002504	-0.558243	0.399473
C138	C	0.497496	-0.058243	0.899473
C139	C	-0.287615	-0.558285	0.398601
C140	C	0.212385	-0.058285	0.898601
N141	N	0.434975	-0.466279	0.491900
N142	N	0.934975	0.033721	0.991900
O143	O	0.591199	-0.470749	0.375150
O144	O	1.091199	0.029251	0.875150
O145	O	0.591395	-0.565767	0.504116
O146	O	1.091395	-0.065767	1.004116
O147	O	0.591311	-0.565550	0.422329
O148	O	1.091311	-0.065550	0.922329
O149	O	0.591283	-0.470966	0.456937
O150	O	1.091283	0.029034	0.956937
O151	O	0.510024	-0.538522	0.449509
O152	O	1.010024	-0.038522	0.949509
O153	O	0.510108	-0.538739	0.531297
O154	O	1.010108	-0.038739	1.031297
O155	O	0.509913	-0.443721	0.402330
O156	O	1.009913	0.056279	0.902330
Cu157	Cu	0.502588	-0.488762	0.469295
Cu158	Cu	1.002588	0.011238	0.969295
Cu159	Cu	0.598719	-0.520726	0.437151
Cu160	Cu	1.098719	-0.020726	0.937151
O161	O	0.509997	-0.443938	0.484117
O162	O	1.009997	0.056062	0.984117
N163	N	0.666332	-0.543209	0.414541
N164	N	1.166332	-0.043209	0.914541
N165	N	0.090323	-0.121809	0.492157
N166	N	0.590323	0.378191	0.992157
O167	O	-0.026342	0.034503	0.487582
O168	O	0.473658	0.534503	0.987582
O169	O	0.102626	0.034543	0.392540
O170	O	0.602626	0.534543	0.892540
O171	O	0.020797	0.034507	0.392812
O172	O	0.520797	0.534507	0.892812
O173	O	0.055487	0.034539	0.487310
O174	O	0.555487	0.534539	0.987310
O175	O	0.047933	-0.046785	0.419900
O176	O	0.547933	0.453215	0.919900
O177	O	0.129763	-0.046749	0.419628
O178	O	0.629763	0.453251	0.919628
O179	O	0.000794	-0.046789	0.514670
O180	O	0.500794	0.453211	1.014670
Cu181	Cu	0.067756	-0.054192	0.469623
Cu182	Cu	0.567756	0.445808	0.969623
Cu183	Cu	0.035664	0.041946	0.437588
Cu184	Cu	0.535664	0.541946	0.937588
O185	O	0.082623	-0.046753	0.514399
O186	O	0.582623	0.453247	1.014399
N187	N	0.013091	0.109564	0.415054
N188	N	0.513091	0.609564	0.915054
N189	N	0.090671	-0.466416	0.836606
N190	N	0.590671	0.033584	1.336606
O191	O	0.086120	-0.583065	0.992910
O192	O	0.586120	-0.083065	1.492910
O193	O	-0.008880	-0.454051	0.992954
O194	O	0.491120	0.045949	1.492954
O195	O	-0.008658	-0.535864	0.992931
O196	O	0.491342	-0.035864	1.492931
O197	O	0.085897	-0.501252	0.992933
O198	O	0.585897	-0.001252	1.492933
O199	O	0.018407	-0.508749	0.911642
O200	O	0.518407	-0.008749	1.411642
O201	O	0.018185	-0.426936	0.911665
O202	O	0.518185	0.073064	1.411665
O203	O	0.113185	-0.555949	0.911621
O204	O	0.613185	-0.055949	1.411621
Cu205	Cu	0.068156	-0.488967	0.904221
Cu206	Cu	0.568156	0.011033	1.404221
Cu207	Cu	0.036148	-0.521034	1.000355
Cu208	Cu	0.536148	-0.021034	1.500355
O209	O	0.112963	-0.474136	0.911644
O210	O	0.612963	0.025864	1.411644
N211	N	0.013633	-0.543590	1.067970
N212	N	0.513633	-0.043590	1.567970
C213	C	0.031262	-0.424144	0.393290
C214	C	0.531262	0.075856	0.893290
C215	C	0.132513	-0.525291	0.393180
C216	C	0.632513	-0.025291	0.893180
C217	C	0.072229	-0.585787	0.514090
C218	C	0.572229	-0.085787	1.014090
C219	C	-0.029022	-0.484640	0.514200
C220	C	0.470978	0.015360	1.014200
C221	C	0.550775	-0.565338	0.533954
C222	C	1.050775	-0.065338	1.033954
C223	C	0.550672	-0.565070	0.432670
C224	C	1.050672	-0.065070	0.932670
C225	C	0.550530	-0.444149	0.372492
C226	C	1.050530	0.055851	0.872492
C227	C	0.550635	-0.444418	0.473776
C228	C	1.050635	0.055582	0.973776
C229	C	0.132408	-0.005998	0.392963
C230	C	0.632408	0.494002	0.892963
C231	C	0.031106	-0.006142	0.393333
C232	C	0.531106	0.493858	0.893333
C233	C	-0.029021	-0.006147	0.514213
C234	C	0.470979	0.493853	1.014213
C235	C	0.072314	-0.006104	0.513878
C236	C	0.572314	0.493896	1.013878
C237	C	-0.008430	-0.424240	0.952316
C238	C	0.491570	0.075760	1.452316
C239	C	-0.008150	-0.525550	0.952271
C240	C	0.491850	-0.025550	1.452271
C241	C	0.112735	-0.585760	0.952260
C242	C	0.612735	-0.085760	1.452260
C243	C	0.112461	-0.484444	0.952286
C244	C	0.612461	0.015556	1.452286
H245	H	0.047048	-0.396226	0.739820
H246	H	0.547048	0.103774	1.239820
O247	O	0.550371	-0.408513	0.328345
O248	O	1.050371	0.091487	0.828345
C249	C	0.508166	-0.326996	0.284768
C250	C	1.008166	0.173004	0.784768
C251	C	0.508279	-0.367316	0.334794
C252	C	1.008279	0.132684	0.834794
H253	H	0.474144	-0.293675	0.289966
H254	H	0.974144	0.206325	0.789966
H255	H	0.508118	-0.341125	0.260115
H256	H	1.008118	0.158875	0.760115
H257	H	0.542179	-0.316327	0.267189
H258	H	1.042179	0.183673	0.767189
H259	H	0.474273	-0.378002	0.352415
H260	H	0.974273	0.121998	0.852415
H261	H	0.508353	-0.353165	0.359413
H262	H	1.008353	0.146835	0.859413
H263	H	0.550826	-0.595166	0.570996
H264	H	1.050826	-0.095166	1.070996
O265	O	0.081025	-0.629995	0.549621
O266	O	0.581025	-0.129995	1.049621
C267	C	0.085525	-0.673756	0.631047
C268	C	0.585525	-0.173756	1.131047
C269	C	0.075563	-0.623661	0.590846
C270	C	0.575563	-0.123661	1.090846
H271	H	0.081102	-0.668651	0.664391
H272	H	0.581102	-0.168651	1.164391
H273	H	0.124359	-0.698328	0.616799
H274	H	0.624359	-0.198328	1.116799
H275	H	0.058451	-0.691374	0.641724
H276	H	0.558451	-0.191374	1.141724
H277	H	0.102605	-0.606001	0.580152
H278	H	0.602605	-0.106001	1.080152
H279	H	0.036715	-0.599123	0.605117
H280	H	0.536715	-0.099123	1.105117
O281	O	-0.073244	-0.006066	0.549766
O282	O	0.426756	0.493934	1.049766
C283	C	-0.160198	0.036024	0.573393
C284	C	0.339802	0.536024	1.073393
C285	C	-0.110147	0.035995	0.533093
C286	C	0.389853	0.535995	1.033093
H287	H	-0.190049	0.070021	0.559925
H288	H	0.309951	0.570021	1.059925
H289	H	-0.160266	0.036065	0.607431
H290	H	0.339734	0.536065	1.107431
H291	H	-0.167335	0.001982	0.582649
H292	H	0.332665	0.501982	1.082649
H293	H	-0.102979	0.070031	0.523796
H294	H	0.397021	0.570031	1.023796
H295	H	-0.110104	0.035929	0.499081
H296	H	0.389896	0.535929	0.999081
H297	H	-0.038255	-0.387188	0.952329
H298	H	0.461745	0.112812	1.452329
O299	O	0.550664	-0.600458	0.423766
O300	O	1.050664	-0.100458	0.923766
C301	C	0.550647	-0.622828	0.365703
C302	C	1.050647	-0.122828	0.865703
C303	C	0.550645	-0.582705	0.375725
C304	C	1.050645	-0.082705	0.875725
H305	H	0.550642	-0.608493	0.326860
H306	H	1.050642	-0.108493	0.826860
H307	H	0.516650	-0.633542	0.392757
H308	H	1.016650	-0.133542	0.892757
H309	H	0.584687	-0.656172	0.370065
H310	H	1.084687	-0.156172	0.870065
H311	H	0.516628	-0.549335	0.371357
H312	H	1.016628	-0.049335	0.871357
H313	H	0.584664	-0.572033	0.348673
H314	H	1.084664	-0.072033	0.848673
H315	H	0.169570	-0.532590	0.363385
H316	H	0.669570	-0.032590	0.863385
O317	O	-0.073249	-0.475850	0.549700
O318	O	0.426751	0.024150	1.049700
C319	C	-0.153748	-0.417958	0.572310
C320	C	0.346252	0.082042	1.072310
C321	C	-0.103680	-0.427845	0.532067
C322	C	0.396320	0.072155	1.032067
H323	H	-0.178368	-0.379150	0.558065
H324	H	0.321632	0.120850	1.058065
H325	H	-0.148646	-0.422331	0.605635
H326	H	0.351354	0.077669	1.105635
H327	H	-0.171307	-0.445092	0.583016
H328	H	0.328693	0.054908	1.083016
H329	H	-0.086093	-0.400720	0.521320
H330	H	0.413907	0.099280	1.021320
H331	H	-0.108814	-0.423489	0.498768
H332	H	0.391186	0.076511	0.998768
O333	O	0.007999	-0.425189	0.533461
O334	O	0.507999	0.074811	1.033461
C335	C	-0.073066	-0.381970	0.576739
C336	C	0.426934	0.118030	1.076739
C337	C	-0.017719	-0.395546	0.563071
C338	C	0.482281	0.104454	1.063071
H339	H	-0.093875	-0.357994	0.600672
H340	H	0.406125	0.142006	1.100672
H341	H	-0.083138	-0.416688	0.597599
H342	H	0.416862	0.083312	1.097599
H343	H	-0.083160	-0.361151	0.542030
H344	H	0.416840	0.138849	1.042030
H345	H	-0.007585	-0.416354	0.597754
H346	H	0.492415	0.083646	1.097754
H347	H	-0.007676	-0.360811	0.542191
H348	H	0.492324	0.139189	1.042191
H349	H	-0.134369	-0.571905	0.272603
H350	H	0.365631	-0.071905	0.772603
O351	O	-0.043514	-0.534441	0.952208
O352	O	0.456486	-0.034441	1.452208
C353	C	-0.065855	-0.592500	0.952162
C354	C	0.434145	-0.092500	1.452162
C355	C	-0.025758	-0.582493	0.952222
C356	C	0.474242	-0.082493	1.452222
H357	H	-0.051518	-0.631352	0.952184
H358	H	0.448482	-0.131352	1.452184
H359	H	-0.076524	-0.565458	0.918128
H360	H	0.423476	-0.065458	1.418128
H361	H	-0.099225	-0.588106	0.986167
H362	H	0.400775	-0.088106	1.486167
H363	H	0.007638	-0.586894	0.918240
H364	H	0.507638	-0.086894	1.418240
H365	H	-0.015131	-0.609533	0.986278
H366	H	0.484869	-0.109533	1.486278
O367	O	0.550602	-0.409016	0.482694
O368	O	1.050602	0.090984	0.982694
C369	C	0.550682	-0.386667	0.540736
C370	C	1.050682	0.113333	1.040736
C371	C	0.550708	-0.426799	0.530705
C372	C	1.050708	0.073201	1.030705
H373	H	0.550778	-0.401032	0.579548
H374	H	1.050778	0.098968	1.079548
H375	H	0.516626	-0.353323	0.536438
H376	H	1.016626	0.146677	1.036438
H377	H	0.584662	-0.375942	0.513629
H378	H	1.084662	0.124058	1.013629
H379	H	0.516751	-0.437565	0.557803
H380	H	1.016751	0.062435	1.057803
H381	H	0.584787	-0.460116	0.534987
H382	H	1.084787	0.039884	1.034987
H383	H	0.079744	-0.006095	0.543566
H384	H	0.579744	0.493905	1.043566
H385	H	0.142562	-0.622811	0.952240
H386	H	0.642562	-0.122811	1.452240
O387	O	0.176520	-0.005692	0.357323
O388	O	0.676520	0.494308	0.857323
C389	C	0.256914	-0.005289	0.334432
C390	C	0.756914	0.494711	0.834432
C391	C	0.206976	-0.005625	0.374834
C392	C	0.706976	0.494375	0.874834
H393	H	0.281555	-0.005246	0.348578
H394	H	0.781555	0.494754	0.848578
H395	H	0.251589	0.028814	0.301208
H396	H	0.751589	0.528814	0.801208
H397	H	0.274581	-0.039226	0.323608
H398	H	0.774581	0.460774	0.823608
H399	H	0.189282	0.028289	0.385699
H400	H	0.689282	0.528289	0.885699
H401	H	0.212333	-0.039751	0.408031
H402	H	0.712333	0.460249	0.908031
H403	H	0.142166	-0.477036	0.952281
H404	H	0.642166	0.022964	1.452281
O405	O	0.008275	-0.425194	0.836592
O406	O	0.508275	0.074806	1.336592
C407	C	-0.072830	-0.381987	0.831254
C408	C	0.427170	0.118013	1.331254
C409	C	-0.017494	-0.395598	0.803101
C410	C	0.482506	0.104402	1.303101
H411	H	-0.093681	-0.358065	0.804188
H412	H	0.406319	0.141935	1.304188
H413	H	-0.082911	-0.361132	0.855197
H414	H	0.417089	0.138868	1.355197
H415	H	-0.082864	-0.416722	0.855224
H416	H	0.417136	0.083278	1.355224
H417	H	-0.007420	-0.360888	0.779104
H418	H	0.492580	0.139112	1.279104
H419	H	-0.007443	-0.416472	0.779188
H420	H	0.492557	0.083528	1.279188
O421	O	0.173134	-0.507600	0.836459
O422	O	0.673134	-0.007600	1.336459
C423	C	0.257832	-0.547199	0.830990
C424	C	0.757832	-0.047199	1.330990
C425	C	0.221191	-0.514824	0.802909
C426	C	0.721191	-0.014824	1.302909
H427	H	0.296695	-0.553041	0.803878
H428	H	0.796695	-0.053041	1.303878
H429	H	0.251996	-0.584031	0.854927
H430	H	0.751996	-0.084031	1.354927
H431	H	0.251927	-0.528460	0.854961
H432	H	0.751927	-0.028460	1.354961
H433	H	0.227074	-0.533520	0.778912
H434	H	0.727074	-0.033520	1.278912
H435	H	0.227037	-0.477993	0.779004
H436	H	0.727037	0.022007	1.279004
O437	O	0.022178	-0.006188	0.357978
O438	O	0.522178	0.493812	0.857978
C439	C	-0.035919	-0.006219	0.335671
C440	C	0.464081	0.493781	0.835671
C441	C	-0.025873	-0.006170	0.375754
C442	C	0.474127	0.493830	0.875754
H443	H	-0.074771	-0.006194	0.350024
H444	H	0.425229	0.493806	0.850024
H445	H	-0.008886	-0.040251	0.324998
H446	H	0.491114	0.459749	0.824998
H447	H	-0.031546	0.027790	0.302298
H448	H	0.468454	0.527790	0.802298
H449	H	-0.030252	-0.040156	0.409153
H450	H	0.469748	0.459844	0.909153
H451	H	-0.052904	0.027885	0.386385
H452	H	0.447096	0.527885	0.886385
H453	H	0.198696	-0.471996	0.739692
H454	H	0.698696	0.028004	1.239692
H455	H	0.046887	-0.396202	0.562361
H456	H	0.546887	0.103798	1.062361
H457	H	0.198463	-0.471942	0.486461
H458	H	0.698463	0.028058	0.986461
O459	O	0.172783	-0.507496	0.450919
O460	O	0.672783	-0.007496	0.950919
C461	C	0.257450	-0.547134	0.411255
C462	C	0.757450	-0.047134	0.911255
C463	C	0.220864	-0.514797	0.443644
C464	C	0.720864	-0.014797	0.943644
H465	H	0.296331	-0.553055	0.405371
H466	H	0.796331	-0.053055	0.905371
H467	H	0.251556	-0.528386	0.374444
H468	H	0.751556	-0.028386	0.874444
H469	H	0.251543	-0.583932	0.430003
H470	H	0.751543	-0.083932	0.930003
H471	H	0.226749	-0.477993	0.424939
H472	H	0.726749	0.022007	0.924939
H473	H	0.226767	-0.533583	0.480454
H474	H	0.726767	-0.033583	0.980454
H475	H	0.430973	-0.540048	0.521891
H476	H	0.930973	-0.040048	1.021891
O477	O	0.334163	-0.514305	0.556636
O478	O	0.834163	-0.014305	1.056636
C479	C	0.318542	-0.574488	0.552096
C480	C	0.818542	-0.074488	1.052096
C481	C	0.346654	-0.538315	0.525365
C482	C	0.846654	-0.038315	1.025365
H483	H	0.328638	-0.593918	0.526829
H484	H	0.828638	-0.093918	1.026829
H485	H	0.277567	-0.553761	0.563054
H486	H	0.777567	-0.053761	1.063054
H487	H	0.328634	-0.602591	0.586215
H488	H	0.828634	-0.102591	1.086215
H489	H	0.336603	-0.510204	0.491229
H490	H	0.836603	-0.010204	0.991229
H491	H	0.387621	-0.559076	0.514444
H492	H	0.887621	-0.059076	1.014444
O493	O	0.334147	-0.351061	0.494452
O494	O	0.834147	0.148939	0.994452
C495	C	0.339521	-0.270737	0.461305
C496	C	0.839521	0.229263	0.961305
C497	C	0.367653	-0.325656	0.469278
C498	C	0.867653	0.174344	0.969278
H499	H	0.366598	-0.250180	0.440942
H500	H	0.866598	0.249820	0.940942
H501	H	0.315603	-0.265014	0.498193
H502	H	0.815603	0.234986	0.998193
H503	H	0.315527	-0.256354	0.438847
H504	H	0.815527	0.243646	0.938847
H505	H	0.391673	-0.340076	0.491719
H506	H	0.891673	0.159924	0.991719
H507	H	0.391540	-0.331347	0.432373
H508	H	0.891540	0.168653	0.932373
O509	O	0.165035	-0.222637	0.443359
O510	O	0.665035	0.277363	0.943359
C511	C	0.171525	-0.238258	0.377157
C512	C	0.671525	0.261742	0.877157
C513	C	0.139214	-0.210132	0.413755
C514	C	0.639214	0.289868	0.913755
H515	H	0.150665	-0.228151	0.353206
H516	H	0.650665	0.271849	0.853206
H517	H	0.181612	-0.279234	0.397949
H518	H	0.681612	0.220766	0.897949
H519	H	0.206238	-0.228187	0.353199
H520	H	0.706238	0.271813	0.853199
H521	H	0.104481	-0.220163	0.437723
H522	H	0.604481	0.279837	0.937723
H523	H	0.129167	-0.169164	0.392934
H524	H	0.629167	0.330836	0.892934
O525	O	0.049261	-0.121895	0.574585
O526	O	0.549261	0.378105	1.074585
C527	C	0.042800	-0.106232	0.640746
C528	C	0.542800	0.393768	1.140746
C529	C	0.075117	-0.134336	0.604129
C530	C	0.575117	0.365664	1.104129
H531	H	0.063696	-0.116273	0.664635
H532	H	0.563696	0.383727	1.164635
H533	H	0.008099	-0.116320	0.664763
H534	H	0.508099	0.383680	1.164763
H535	H	0.032689	-0.065264	0.619921
H536	H	0.532689	0.434736	1.119921
H537	H	0.085265	-0.175310	0.624914
H538	H	0.585265	0.324690	1.124914
H539	H	0.109795	-0.124207	0.580113
H540	H	0.609795	0.375793	1.080113
O541	O	0.082976	-0.222753	0.608113
O542	O	0.582976	0.277247	1.108113
C543	C	0.112479	-0.280464	0.675813
C544	C	0.612479	0.219536	1.175813
C545	C	0.125977	-0.252307	0.620475
C546	C	0.625977	0.247693	1.120475
H547	H	0.147237	-0.304357	0.685826
H548	H	0.647237	0.195643	1.185826
H549	H	0.091675	-0.304476	0.685955
H550	H	0.591675	0.195524	1.185955
H551	H	0.088525	-0.253372	0.696632
H552	H	0.588525	0.246628	1.196632
H553	H	0.149947	-0.279364	0.599618
H554	H	0.649947	0.220636	1.099618
H555	H	0.146756	-0.228288	0.610370
H556	H	0.646756	0.271712	1.110370
H557	H	0.129496	-0.125810	0.417697
H558	H	0.629496	0.374190	0.917697
O559	O	-0.061845	-0.495270	0.170286
O560	O	0.438155	0.004730	0.670286
C561	C	-0.126666	-0.418594	0.154554
C562	C	0.373334	0.081406	0.654554
C563	C	-0.113087	-0.473933	0.182716
C564	C	0.386913	0.026067	0.682716
H565	H	-0.168096	-0.401324	0.164601
H566	H	0.331904	0.098676	0.664601
H567	H	-0.109410	-0.412106	0.113586
H568	H	0.390590	0.087894	0.613586
H569	H	-0.112543	-0.401377	0.164651
H570	H	0.387457	0.098623	0.664651
H571	H	-0.127207	-0.491186	0.172660
H572	H	0.372793	0.008814	0.672660
H573	H	-0.130337	-0.480386	0.223677
H574	H	0.369663	0.019614	0.723677
O575	O	-0.095442	-0.528826	0.271113
O576	O	0.404558	-0.028826	0.771113
C577	C	-0.101990	-0.462628	0.286779
C578	C	0.398010	0.037372	0.786779
C579	C	-0.069643	-0.499230	0.258657
C580	C	0.430357	0.000770	0.758657
H581	H	-0.081149	-0.438684	0.276711
H582	H	0.418851	0.061316	0.776711
H583	H	-0.112099	-0.483418	0.327753
H584	H	0.387901	0.016582	0.827753
H585	H	-0.136689	-0.438662	0.276666
H586	H	0.363311	0.061338	0.776666
H587	H	-0.034924	-0.523206	0.268728
H588	H	0.465076	-0.023206	0.768728
H589	H	-0.059573	-0.478410	0.217690
H590	H	0.440427	0.021590	0.717690
H591	H	0.015913	-0.654818	0.174378
H592	H	0.515913	-0.154818	0.674378
O593	O	-0.013190	-0.693626	0.271151
O594	O	0.486810	-0.193626	0.771151
C595	C	0.030043	-0.774726	0.265796
C596	C	0.530043	-0.274726	0.765796
C597	C	0.016499	-0.719384	0.237652
C598	C	0.516499	-0.219384	0.737652
H599	H	0.054058	-0.795567	0.238725
H600	H	0.554058	-0.295567	0.738725
H601	H	-0.004682	-0.784784	0.289684
H602	H	0.495318	-0.284784	0.789684
H603	H	0.050809	-0.784798	0.289821
H604	H	0.550809	-0.284798	0.789821
H605	H	-0.004254	-0.709272	0.213601
H606	H	0.495746	-0.209272	0.713601
H607	H	0.051242	-0.709356	0.213795
H608	H	0.551242	-0.209356	0.713795
H609	H	-0.090949	-0.534065	0.310634
H610	H	0.409051	-0.034065	0.810634
O611	O	-0.061930	-0.495263	0.339652
O612	O	0.438070	0.004737	0.839652
C613	C	-0.057916	-0.418667	0.274759
C614	C	0.442084	0.081333	0.774759
C615	C	-0.044402	-0.474003	0.288405
C616	C	0.455598	0.025997	0.788405
H617	H	-0.043760	-0.401460	0.233325
H618	H	0.456240	0.098540	0.733325
H619	H	-0.040684	-0.412190	0.292019
H620	H	0.459316	0.087810	0.792019
H621	H	-0.099345	-0.401378	0.288834
H622	H	0.400655	0.098622	0.788834
H623	H	-0.002979	-0.491329	0.274332
H624	H	0.497021	0.008671	0.774332
H625	H	-0.061668	-0.480445	0.271152
H626	H	0.438332	0.019555	0.771152
H627	H	0.015562	-0.654800	0.417614
H628	H	0.515562	-0.154800	0.917614
O629	O	-0.013414	-0.693609	0.388587
O630	O	0.486586	-0.193609	0.888587
C631	C	-0.017437	-0.770229	0.453432
C632	C	0.482563	-0.270229	0.953432
C633	C	-0.030998	-0.714891	0.439826
C634	C	0.469002	-0.214891	0.939826
H635	H	-0.031657	-0.787450	0.494858
H636	H	0.468343	-0.287450	0.994858
H637	H	0.023993	-0.787544	0.439403
H638	H	0.523993	-0.287544	0.939403
H639	H	-0.034638	-0.776652	0.436099
H640	H	0.465362	-0.276652	0.936099
H641	H	-0.013830	-0.708424	0.457155
H642	H	0.486170	-0.208424	0.957155
H643	H	-0.072432	-0.697603	0.453846
H644	H	0.427568	-0.197603	0.953846
O645	O	0.027181	-0.687377	0.316259
O646	O	0.527181	-0.187377	0.816259
C647	C	0.111098	-0.692861	0.286849
C648	C	0.611098	-0.192861	0.786849
C649	C	0.074900	-0.720935	0.313523
C650	C	0.574900	-0.220935	0.813523
H651	H	0.149688	-0.719980	0.284620
H652	H	0.649688	-0.219980	0.784620
H653	H	0.100843	-0.668914	0.307777
H654	H	0.600843	-0.168914	0.807777
H655	H	0.109561	-0.668900	0.248369
H656	H	0.609561	-0.168900	0.748369
H657	H	0.076418	-0.744922	0.352004
H658	H	0.576418	-0.244922	0.852004
H659	H	0.085166	-0.744851	0.292558
H660	H	0.585166	-0.244851	0.792558
H661	H	0.430920	-0.389838	0.464614
H662	H	0.930920	0.110162	0.964614
H663	H	-0.227429	-0.616637	0.455084
H664	H	0.272571	-0.116637	0.955084
O665	O	-0.102619	-0.787935	0.411946
O666	O	0.397381	-0.287935	0.911946
C667	C	-0.186547	-0.782455	0.441441
C668	C	0.313453	-0.282455	0.941441
C669	C	-0.150333	-0.754379	0.414643
C670	C	0.349667	-0.254379	0.914643
H671	H	-0.225130	-0.755337	0.443621
H672	H	0.274870	-0.255337	0.943621
H673	H	-0.185033	-0.806356	0.479938
H674	H	0.314967	-0.306356	0.979938
H675	H	-0.176278	-0.806462	0.420570
H676	H	0.323722	-0.306462	0.920570
H677	H	-0.160577	-0.730345	0.435473
H678	H	0.339423	-0.230345	0.935473
H679	H	-0.151853	-0.730508	0.376144
H680	H	0.348147	-0.230508	0.876144
O681	O	-0.136071	-0.687079	0.378124
O682	O	0.363929	-0.187079	0.878124
C683	C	-0.197887	-0.629281	0.340295
C684	C	0.302113	-0.129281	0.840295
C685	C	-0.142998	-0.657503	0.332433
C686	C	0.357002	-0.157503	0.832433
H687	H	-0.203506	-0.605370	0.303359
H688	H	0.296494	-0.105370	0.803359
H689	H	-0.212331	-0.605281	0.362765
H690	H	0.287669	-0.105281	0.862765
H691	H	-0.218466	-0.656330	0.360587
H692	H	0.281534	-0.156330	0.860587
H693	H	-0.122379	-0.630489	0.312128
H694	H	0.377621	-0.130489	0.812128
H695	H	-0.128592	-0.681510	0.309983
H696	H	0.371408	-0.181510	0.809983
O697	O	-0.130669	-0.652279	0.429585
O698	O	0.369331	-0.152279	0.929585
C699	C	-0.136199	-0.691915	0.514302
C700	C	0.363801	-0.191915	1.014302
C701	C	-0.164245	-0.659548	0.477631
C702	C	0.335755	-0.159548	0.977631
H703	H	-0.163333	-0.697810	0.553155
H704	H	0.336667	-0.197810	1.053155
H705	H	-0.112254	-0.673206	0.508491
H706	H	0.387746	-0.173206	1.008491
H707	H	-0.112241	-0.728723	0.508404
H708	H	0.387759	-0.228723	1.008404
H709	H	-0.188230	-0.622734	0.483506
H710	H	0.311770	-0.122734	0.983506
H711	H	-0.188159	-0.678295	0.483450
H712	H	0.311841	-0.178295	0.983450
O713	O	0.060650	-0.788253	0.349956
O714	O	0.560650	-0.288253	0.849956
C715	C	0.123562	-0.867121	0.362305
C716	C	0.623562	-0.367121	0.862305
C717	C	0.068670	-0.838903	0.370181
C718	C	0.568670	-0.338903	0.870181
H719	H	0.130065	-0.908077	0.378643
H720	H	0.630065	-0.408077	0.878643
H721	H	0.136256	-0.857113	0.380923
H722	H	0.636256	-0.357113	0.880923
H723	H	0.145010	-0.857057	0.321481
H724	H	0.645010	-0.357057	0.821481
H725	H	0.047183	-0.848951	0.410993
H726	H	0.547183	-0.348951	0.910993
H727	H	0.056015	-0.848914	0.351531
H728	H	0.556015	-0.348914	0.851531
H729	H	-0.227194	-0.540877	0.303400
H730	H	0.272806	-0.040877	0.803400
H731	H	0.023891	-0.387055	0.363546
H732	H	0.523891	0.112945	0.863546
