data_functionalizedCrystal
_audit_creation_method	'MofGen! by Chris Wilmer'
_symmetry_space_group_name_H-M	'P1'
_symmetry_Int_Tables_number	1
_symmetry_cell_setting	triclinic
loop_
_symmetry_equiv_pos_as_xyz
  x,y,z
_cell_length_a	10.685976
_cell_length_b	21.295417
_cell_length_c	10.686551
_cell_angle_alpha	85.587790
_cell_angle_beta	89.651515
_cell_angle_gamma	85.667744
loop_
_atom_site_label
_atom_site_type_symbol
_atom_site_fract_x
_atom_site_fract_y
_atom_site_fract_z
Zn1	Zn	1.972035	-0.304390	-0.561813
Zn2	Zn	1.955743	-0.417083	-0.352033
Zn3	Zn	1.746163	-0.303208	-0.368188
Zn4	Zn	1.762190	-0.400995	-0.577863
O5	O	1.859033	-0.356419	-0.464974
O6	O	2.145404	-0.326567	-0.520507
O7	O	1.914416	-0.408216	-0.178632
O8	O	1.776236	-0.215278	-0.393917
O9	O	2.133434	-0.409362	-0.366382
O10	O	1.942183	-0.216146	-0.536172
O11	O	1.760439	-0.324552	-0.190502
O12	O	1.572759	-0.308952	-0.409481
O13	O	1.803552	-0.381942	-0.751278
O14	O	1.584533	-0.380796	-0.563528
O15	O	1.957724	-0.310967	-0.739485
O16	O	1.929957	-0.503036	-0.381946
O17	O	1.787754	-0.491216	-0.547863
C18	C	1.533133	-0.343000	-0.490000
C19	C	1.393714	-0.337274	-0.500736
C20	C	1.858863	-0.519966	-0.464917
C21	C	1.858908	-0.589936	-0.464926
C22	C	1.933030	-0.628936	-0.378610
C23	C	1.933091	-0.694680	-0.378634
C24	C	1.859007	-0.721421	-0.464962
C25	C	1.784880	-0.682412	-0.551294
C26	C	1.784831	-0.616669	-0.551276
N27	N	1.750012	-0.819834	-0.482952
N28	N	1.750061	-0.882287	-0.482961
C29	C	1.859153	-0.919499	-0.465023
N30	N	1.968193	-0.891899	-0.447051
N31	N	1.968141	-0.829441	-0.447035
C32	C	1.859052	-0.792707	-0.464992
C33	C	1.933348	-1.029786	-0.378728
C34	C	1.933411	-1.095531	-0.378760
C35	C	1.785188	-1.083261	-0.551415
C36	C	1.785136	-1.017518	-0.551389
C37	C	1.859213	-0.990785	-0.465038
C38	C	2.186205	-0.369891	-0.439852
C39	C	2.325626	-0.375631	-0.429146
C40	C	1.884243	-0.344792	-0.792171
C41	C	1.894986	-0.339837	-0.931602
C42	C	1.859239	-0.192233	-0.465056
C43	C	1.859327	-0.122267	-0.465091
C44	C	1.833993	-0.367959	-0.139045
C45	C	1.823493	-0.372746	0.000404
H46	H	1.373999	-0.412859	-0.359641
Cl47	Cl	1.716303	-0.422104	-0.924785
H48	H	1.993455	-0.726440	-0.308345
Cl49	Cl	1.319044	-0.279807	-0.608061
Cl50	Cl	2.026176	-0.595332	-0.270073
Cl51	Cl	2.002194	-0.290484	-1.006416
Cl52	Cl	1.691751	-0.716027	-0.659827
H53	H	1.724470	-0.584914	-0.621567
Cl54	Cl	2.026471	-0.996176	-0.270175
H55	H	1.724873	-1.105033	-0.621711
Cl56	Cl	2.026613	-1.144562	-0.270246
Cl57	Cl	1.691942	-0.968486	-0.659902
