data_functionalizedCrystal
_audit_creation_method	'MofGen! by Chris Wilmer'
_symmetry_space_group_name_H-M	'P1'
_symmetry_Int_Tables_number	1
_symmetry_cell_setting	triclinic
loop_
_symmetry_equiv_pos_as_xyz
  x,y,z
_cell_length_a	17.019282
_cell_length_b	16.098538
_cell_length_c	10.654550
_cell_angle_alpha	92.750495
_cell_angle_beta	96.064404
_cell_angle_gamma	88.859428
loop_
_atom_site_label
_atom_site_type_symbol
_atom_site_fract_x
_atom_site_fract_y
_atom_site_fract_z
O1	O	1.047258	-0.005880	-0.160380
O2	O	1.547258	0.494120	0.339620
O3	O	0.818534	0.010531	-0.179469
O4	O	1.318534	0.510531	0.320531
O5	O	0.938155	0.001945	0.012867
O6	O	1.438155	0.501945	0.512867
O7	O	0.927638	0.002706	-0.352716
O8	O	1.427638	0.502706	0.147284
O9	O	0.931167	-0.136066	0.001676
O10	O	1.431167	0.363934	0.501676
O11	O	0.811546	-0.127481	-0.190660
O12	O	1.311546	0.372519	0.309340
O13	O	1.040270	-0.143892	-0.171571
O14	O	1.540270	0.356108	0.328429
Zn15	Zn	0.924799	-0.157598	-0.182893
Zn16	Zn	1.424799	0.342402	0.317107
Zn17	Zn	0.934006	0.024238	-0.168148
Zn18	Zn	1.434006	0.524238	0.331852
O19	O	0.920650	-0.135306	-0.363907
O20	O	1.420650	0.364694	0.136093
C21	C	0.785753	-0.056374	-0.184123
C22	C	1.285753	0.443626	0.315877
C23	C	0.698487	-0.050112	-0.181303
C24	C	1.198487	0.449888	0.318697
C25	C	0.653684	-0.122402	-0.186075
C26	C	1.153684	0.377598	0.313925
C27	C	0.571690	-0.116522	-0.183404
C28	C	1.071690	0.383478	0.316596
C29	C	0.534498	-0.038350	-0.175971
C30	C	1.034498	0.461650	0.324029
C31	C	0.579307	0.033946	-0.171195
C32	C	1.079307	0.533946	0.328805
C33	C	0.661301	0.028064	-0.173856
C34	C	1.161301	0.528064	0.326144
C35	C	0.287121	-0.016827	-0.167622
C36	C	0.787121	0.483173	0.332378
C37	C	0.205121	-0.010951	-0.164965
C38	C	0.705121	0.489049	0.335035
C39	C	0.197509	-0.161419	-0.177173
C40	C	0.697509	0.338581	0.322827
C41	C	0.279504	-0.167294	-0.179841
C42	C	0.779504	0.332706	0.320159
C43	C	0.324306	-0.094999	-0.175058
C44	C	0.824306	0.405001	0.324942
C45	C	0.450686	-0.032337	-0.173245
C46	C	0.950686	0.467663	0.326755
C47	C	0.408118	-0.101012	-0.177774
C48	C	0.908118	0.398988	0.322226
N49	N	0.918521	-0.281697	-0.192955
N50	N	1.418521	0.218303	0.307045
C51	C	0.969312	-0.328928	-0.111349
C52	C	1.469312	0.171072	0.388651
C53	C	0.964928	-0.415802	-0.118400
C54	C	1.464928	0.084198	0.381600
C55	C	0.909756	-0.455444	-0.207064
C56	C	1.409756	0.044556	0.292936
C57	C	0.858960	-0.408207	-0.288673
C58	C	1.358960	0.091793	0.211327
C59	C	0.863341	-0.321334	-0.281615
C60	C	1.363341	0.178666	0.218385
C61	C	0.893875	-0.717554	-0.232627
C62	C	1.393875	-0.217554	0.267373
C63	C	0.889499	-0.804434	-0.239682
C64	C	1.389499	-0.304434	0.260318
C65	C	0.995466	-0.812022	-0.069406
C66	C	1.495466	-0.312022	0.430594
C67	C	0.999846	-0.725148	-0.062361
C68	C	1.499846	-0.225148	0.437639
C69	C	0.949047	-0.677918	-0.143966
C70	C	1.449047	-0.177918	0.356034
C71	C	0.905275	-0.544244	-0.214276
C72	C	1.405275	-0.044244	0.285724
C73	C	0.953524	-0.589120	-0.136747
C74	C	1.453524	-0.089120	0.363253
C75	C	1.073052	-0.076985	-0.166917
C76	C	1.573052	0.423015	0.333083
C77	C	1.160318	-0.083241	-0.169737
C78	C	1.660318	0.416759	0.330263
C79	C	0.933889	-0.067004	0.054062
C80	C	1.433889	0.432996	0.554062
C81	C	0.931579	-0.066836	0.193482
C82	C	1.431579	0.433164	0.693482
N83	N	0.940290	0.148336	-0.158076
N84	N	1.440290	0.648336	0.341924
C85	C	0.924916	-0.066355	-0.405102
C86	C	1.424916	0.433645	0.094898
C87	C	0.927227	-0.066518	-0.544522
C88	C	1.427227	0.433482	-0.044522
C89	C	1.002009	-0.071892	0.273671
C90	C	1.502009	0.428108	0.773671
C91	C	0.999834	-0.071730	0.404670
C92	C	1.499834	0.428270	0.904670
C93	C	0.856791	-0.061459	0.375279
C94	C	1.356791	0.438541	0.875279
C95	C	0.858967	-0.061615	0.244283
C96	C	1.358967	0.438385	0.744283
C97	C	1.074620	-0.077112	0.222870
C98	C	1.574620	0.422888	0.722870
C99	C	1.145057	-0.082170	0.303060
C100	C	1.645057	0.417830	0.803060
C101	C	1.142882	-0.082008	0.434059
C102	C	1.642882	0.417992	0.934059
C103	C	1.070270	-0.076789	0.484869
C104	C	1.570270	0.423211	0.984869
H105	H	0.535216	-0.175388	-0.187270
H106	H	1.035216	0.324612	0.312730
F107	F	0.784007	-0.056234	0.158936
F108	F	1.284007	0.443766	0.658936
F109	F	0.539726	0.117143	-0.163245
F110	F	1.039726	0.617143	0.336755
F111	F	0.779518	-0.055906	0.429360
F112	F	1.279518	0.444094	0.929360
F113	F	0.809280	-0.271069	-0.368469
F114	F	1.309280	0.228931	0.131531
F115	F	1.217845	-0.087381	0.519401
F116	F	1.717845	0.412619	1.019401
H117	H	0.683959	-0.186059	-0.192138
H118	H	1.183959	0.313941	0.307862
H119	H	1.044771	-0.692873	0.009837
H120	H	1.544771	-0.192873	0.509837
H121	H	0.161023	-0.220278	-0.181064
H122	H	0.661023	0.279722	0.318936
H123	H	0.309780	-0.230950	-0.185888
H124	H	0.809780	0.269050	0.314112
F125	F	1.012237	-0.546928	-0.042382
F126	F	1.512237	-0.046928	0.457618
H127	H	1.068505	-0.076648	0.591540
H128	H	1.568505	0.423352	1.091540
H129	H	1.036823	-0.850485	-0.002965
H130	H	1.536823	-0.350485	0.497035
F131	F	0.165541	0.072254	-0.157056
F132	F	0.665541	0.572254	0.342944
H133	H	0.323589	0.042041	-0.163723
H134	H	0.823589	0.542041	0.336277
H135	H	1.076400	-0.077247	0.116205
H136	H	1.576400	0.422753	0.616205
H137	H	1.006285	-0.454257	-0.051949
H138	H	1.506285	0.045743	0.448051
H139	H	0.697778	0.086931	-0.169972
H140	H	1.197778	0.586931	0.330028
F141	F	0.839813	-0.667296	-0.319480
F142	F	1.339813	-0.167296	0.180520
F143	F	0.447701	-0.184206	-0.185680
F144	F	0.947701	0.315794	0.314320
F145	F	0.411101	0.050857	-0.165290
F146	F	0.911101	0.550857	0.334710
F147	F	1.028038	-0.286746	-0.016985
F148	F	1.528038	0.213254	0.483015
F149	F	0.830775	-0.846618	-0.334058
F150	F	1.330775	-0.346618	0.165942
F151	F	0.846559	-0.586439	-0.308640
F152	F	1.346559	-0.086439	0.191360
F153	F	0.800238	-0.450398	-0.383032
F154	F	1.300238	0.049602	0.116968
H155	H	1.204176	-0.086398	0.261683
H156	H	1.704176	0.413602	0.761683
