data_functionalizedCrystal
_audit_creation_method	'MofGen! by Chris Wilmer'
_symmetry_space_group_name_H-M	'P1'
_symmetry_Int_Tables_number	1
_symmetry_cell_setting	triclinic
loop_
_symmetry_equiv_pos_as_xyz
  x,y,z
_cell_length_a	12.759401
_cell_length_b	12.759399
_cell_length_c	12.759393
_cell_angle_alpha	90.030906
_cell_angle_beta	90.021157
_cell_angle_gamma	90.010719
loop_
_atom_site_label
_atom_site_type_symbol
_atom_site_fract_x
_atom_site_fract_y
_atom_site_fract_z
Zn1	Zn	-1.606263	0.418339	-0.594023
Zn2	Zn	-1.106263	0.918339	-0.094023
Zn3	Zn	-1.606153	0.594054	-0.418342
Zn4	Zn	-1.106153	1.094054	0.081658
Zn5	Zn	-1.430562	0.418376	-0.418358
Zn6	Zn	-0.930562	0.918376	0.081642
Zn7	Zn	-1.430553	0.593963	-0.593979
Zn8	Zn	-0.930553	1.093963	-0.093979
O9	O	-1.518383	0.506183	-0.506175
O10	O	-1.018383	1.006183	-0.006175
O11	O	-1.753270	0.441670	-0.570731
O12	O	-1.253270	0.941670	-0.070731
O13	O	-1.582818	0.570804	-0.271323
O14	O	-1.082818	1.070804	0.228677
O15	O	-1.453919	0.271350	-0.441685
O16	O	-0.953919	0.771350	0.058315
O17	O	-1.753189	0.570768	-0.441659
O18	O	-1.253189	1.070768	0.058341
O19	O	-1.583006	0.271323	-0.570746
O20	O	-1.083006	0.771323	-0.070746
O21	O	-1.453812	0.441735	-0.271334
O22	O	-0.953812	0.941735	0.228666
O23	O	-1.283540	0.441646	-0.441642
O24	O	-0.783540	0.941646	0.058358
O25	O	-1.453903	0.570612	-0.741006
O26	O	-0.953903	1.070612	-0.241006
O27	O	-1.283533	0.570648	-0.570670
O28	O	-0.783533	1.070648	-0.070670
O29	O	-1.582997	0.441582	-0.741038
O30	O	-1.082997	0.941582	-0.241038
O31	O	-1.582809	0.741063	-0.441615
O32	O	-1.082809	1.241063	0.058385
O33	O	-1.453796	0.740996	-0.570655
O34	O	-0.953796	1.240996	-0.070655
C35	C	-1.245415	0.506142	-0.506154
C36	C	-0.745415	1.006142	-0.006154
C37	C	-1.128639	0.506150	-0.506169
C38	C	-0.628639	1.006150	-0.006169
C39	C	-0.964082	0.439064	-0.573484
C40	C	-0.464082	0.939064	-0.073484
C41	C	-1.073807	0.439051	-0.573480
C42	C	-0.573807	0.939051	-0.073480
C43	C	-1.073741	0.573275	-0.438866
C44	C	-0.573741	1.073275	0.061134
C45	C	-0.964019	0.573293	-0.438876
C46	C	-0.464019	1.073293	0.061124
C47	C	-1.518318	0.779150	-0.506151
C48	C	-1.018318	1.279150	-0.006151
C49	C	-1.518387	0.895927	-0.506176
C50	C	-1.018387	1.395927	-0.006176
C51	C	-0.792416	0.506210	-0.506192
C52	C	-0.292416	1.006210	-0.006192
C53	C	-0.909193	0.506182	-0.506184
C54	C	-0.409193	1.006182	-0.006184
C55	C	-1.518461	0.506082	-0.780209
C56	C	-1.018461	1.006082	-0.280209
C57	C	-1.518495	0.506039	-0.896986
C58	C	-1.018495	1.006039	-0.396986
C59	C	-1.518476	0.232150	-0.506222
C60	C	-1.018476	0.732150	-0.006222
C61	C	-1.518516	0.115373	-0.506242
C62	C	-1.018516	0.615373	-0.006242
C63	C	-1.585641	0.950789	-0.439062
C64	C	-1.085641	1.450789	0.060938
C65	C	-1.585708	1.060513	-0.439097
C66	C	-1.085708	1.560513	0.060903
C67	C	-1.451259	1.060503	-0.573364
C68	C	-0.951259	1.560503	-0.073364
C69	C	-1.451198	0.950781	-0.573334
C70	C	-0.951198	1.450781	-0.073334
C71	C	-1.585719	0.438842	-0.951866
C72	C	-1.085719	0.938842	-0.451866
C73	C	-1.585737	0.438797	-1.061590
C74	C	-1.085737	0.938797	-0.561590
C75	C	-1.451303	0.573154	-1.061543
C76	C	-0.951303	1.073154	-0.561543
C77	C	-1.451281	0.573194	-0.951821
C78	C	-0.951281	1.073194	-0.451821
C79	C	-1.518365	0.506208	-0.233208
C80	C	-1.018365	1.006208	0.266792
C81	C	-1.518535	0.505955	-0.116432
C82	C	-1.018535	1.005955	0.383568
H83	H	-0.919327	0.627954	-0.384072
H84	H	-0.419327	1.127954	0.115928
N85	N	-1.658120	0.891631	-0.366640
N86	N	-1.158120	1.391631	0.133360
H87	H	-1.706758	0.846037	-0.409370
H88	H	-1.206758	1.346037	0.090630
H89	H	-1.615355	0.846240	-0.317911
H90	H	-1.115355	1.346240	0.182089
H91	H	-1.640474	1.105177	-0.384447
H92	H	-1.140474	1.605177	0.115553
N93	N	-1.133010	0.366664	-0.646071
N94	N	-0.633010	0.866664	-0.146071
H95	H	-1.081625	0.324156	-0.688709
H96	H	-0.581625	0.824156	-0.188709
H97	H	-1.178520	0.317987	-0.603387
H98	H	-0.678520	0.817987	-0.103387
N99	N	-1.378646	0.891603	-0.645718
N100	N	-0.878646	1.391603	-0.145718
H101	H	-1.388807	0.813771	-0.635508
H102	H	-0.888807	1.313771	-0.135508
H103	H	-1.394969	0.910706	-0.720773
H104	H	-0.894969	1.410706	-0.220773
H105	H	-0.919446	0.384418	-0.628290
H106	H	-0.419446	0.884418	-0.128290
H107	H	-1.118394	0.627912	-0.384065
H108	H	-0.618394	1.127912	0.115935
H109	H	-1.396555	1.105179	-0.628040
H110	H	-0.896555	1.605179	-0.128040
N111	N	-1.658209	0.366414	-0.892720
N112	N	-1.158209	0.866414	-0.392720
H113	H	-1.700796	0.323838	-0.944140
H114	H	-1.200796	0.823838	-0.444140
H115	H	-1.615452	0.317803	-0.847195
H116	H	-1.115452	0.817803	-0.347195
H117	H	-1.396532	0.627913	-0.907136
H118	H	-0.896532	1.127913	-0.407136
H119	H	-1.640476	0.384077	-1.106269
H120	H	-1.140476	0.884077	-0.606269
N121	N	-1.378796	0.645567	-1.120688
N122	N	-0.878796	1.145567	-0.620688
H123	H	-1.389005	0.635343	-1.198525
H124	H	-0.889005	1.135343	-0.698525
H125	H	-1.395098	0.720617	-1.101506
H126	H	-0.895098	1.220617	-0.601506
