data_functionalizedCrystal
_audit_creation_method	'MofGen! by Chris Wilmer'
_symmetry_space_group_name_H-M	'P1'
_symmetry_Int_Tables_number	1
_symmetry_cell_setting	triclinic
loop_
_symmetry_equiv_pos_as_xyz
  x,y,z
_cell_length_a	17.038272
_cell_length_b	17.038272
_cell_length_c	15.500227
_cell_angle_alpha	86.966746
_cell_angle_beta	86.956295
_cell_angle_gamma	88.888444
loop_
_atom_site_label
_atom_site_type_symbol
_atom_site_fract_x
_atom_site_fract_y
_atom_site_fract_z
O1	O	1.052160	-0.167139	-0.071836
O2	O	0.824350	-0.164430	-0.071862
O3	O	0.936901	-0.051879	-0.071842
O4	O	0.939609	-0.279690	-0.071856
O5	O	0.930069	-0.058680	0.072045
O6	O	0.817518	-0.171231	0.072026
O7	O	1.045328	-0.173940	0.072051
Cu8	Cu	0.930799	-0.173207	0.085177
Cu9	Cu	0.938879	-0.165164	-0.084987
O10	O	0.932777	-0.286491	0.072032
C11	C	0.791641	-0.165368	0.000079
C12	C	0.704358	-0.158019	0.000069
C13	C	0.658749	-0.225482	0.000066
C14	C	0.576737	-0.218574	0.000078
C15	C	0.540335	-0.144201	0.000088
C16	C	0.585950	-0.076733	0.000094
C17	C	0.667961	-0.083642	0.000088
C18	C	0.292946	-0.119792	0.000112
C19	C	0.210929	-0.112887	0.000116
C20	C	0.201721	-0.254729	0.000102
C21	C	0.283734	-0.261632	0.000091
C22	C	0.329342	-0.194164	0.000101
C23	C	0.456505	-0.137138	0.000098
C24	C	0.413170	-0.201228	0.000098
C25	C	0.931022	-0.025987	0.000101
C26	C	0.923674	0.061297	0.000100
C27	C	1.078037	-0.173003	0.000109
C28	C	1.165320	-0.180351	0.000113
C29	C	0.938656	-0.312383	0.000087
C30	C	0.946004	-0.399667	0.000082
N31	N	0.925122	-0.178864	0.204861
C32	C	0.991137	0.106906	0.000108
C33	C	0.984229	0.188918	0.000100
C34	C	0.909856	0.225320	0.000088
C35	C	0.842388	0.179705	0.000077
C36	C	0.849297	0.097694	0.000080
C37	C	0.885446	0.472708	0.000074
C38	C	0.878541	0.554725	0.000074
C39	C	1.020383	0.563932	0.000094
C40	C	1.027286	0.481919	0.000102
C41	C	0.959818	0.436312	0.000087
C42	C	0.902792	0.309149	0.000082
C43	C	0.966882	0.352484	0.000087
N44	N	0.944561	-0.159501	-0.204671
C45	C	0.972833	-0.131192	0.250145
C46	C	0.968547	-0.135478	0.340718
C47	C	0.916555	-0.187440	0.386003
C48	C	0.868839	-0.235114	0.340712
C49	C	0.873121	-0.230823	0.250142
C50	C	0.901128	-0.202884	0.659467
C51	C	0.896851	-0.207172	0.750044
C52	C	0.996559	-0.107535	0.750044
C53	C	1.000840	-0.103252	0.659471
C54	C	0.953121	-0.150923	0.614188
C55	C	0.912174	-0.191824	0.478582
C56	C	0.957498	-0.146534	0.521610
H57	H	0.688381	-0.286045	0.000058
H58	H	0.854510	-0.249490	0.786912
Br59	Br	1.033296	-0.070777	0.402179
Br60	Br	0.836370	-0.267579	0.598016
Br61	Br	1.071405	-0.032735	0.598011
Br62	Br	0.514841	-0.310136	0.000071
H63	H	0.817974	0.584359	0.000078
Br64	Br	0.798269	-0.305630	0.402167
Br65	Br	0.333131	-0.362570	0.000068
H66	H	0.834269	-0.269642	0.213271
Br67	Br	0.801860	0.358558	0.000058
H68	H	0.794361	0.060560	0.000073
Br69	Br	0.729860	0.007919	0.000100
H70	H	0.164579	-0.309658	0.000096
H71	H	0.999827	-0.104223	0.484736
H72	H	0.181294	-0.052321	0.000123
H73	H	0.330070	-0.064854	0.000122
H74	H	0.830508	0.435584	0.000061
Br75	Br	0.741452	0.229107	0.000048
H76	H	0.556305	-0.016177	0.000114
Br77	Br	0.407096	-0.036206	0.000110
H78	H	0.442811	-0.261782	0.000095
Br79	Br	1.092076	0.057511	0.000136
Br80	Br	1.067814	0.303081	0.000094
H81	H	1.039164	0.226049	0.000108
H82	H	1.087848	0.452287	0.000111
H83	H	1.075311	0.601074	0.000105
H84	H	1.035409	-0.068723	0.786921
Br85	Br	1.043405	-0.060674	0.188696
H86	H	0.869842	-0.234135	0.515461
