data_functionalizedCrystal
_audit_creation_method	'MofGen! by Chris Wilmer'
_symmetry_space_group_name_H-M	'P1'
_symmetry_Int_Tables_number	1
_symmetry_cell_setting	triclinic
loop_
_symmetry_equiv_pos_as_xyz
  x,y,z
_cell_length_a	42.784839
_cell_length_b	42.784841
_cell_length_c	42.784893
_cell_angle_alpha	90.002418
_cell_angle_beta	59.997780
_cell_angle_gamma	119.999863
loop_
_atom_site_label
_atom_site_type_symbol
_atom_site_fract_x
_atom_site_fract_y
_atom_site_fract_z
O1	O	0.275695	-0.214412	-0.009300
O2	O	0.211692	-0.168961	0.009253
O3	O	0.275692	-0.168961	-0.054750
O4	O	0.211694	-0.214412	0.054702
O5	O	0.223708	-0.220945	-0.054749
O6	O	0.159708	-0.220945	0.009253
O7	O	0.223710	-0.266397	-0.009300
Cu8	Cu	0.186962	-0.248417	-0.000023
Cu9	Cu	0.248440	-0.186940	-0.000024
O10	O	0.159710	-0.266396	0.054703
C11	C	0.051021	-0.022778	0.028112
C12	C	0.013142	-0.041761	0.028375
C13	C	0.051018	-0.079378	0.028116
C14	C	0.013139	-0.098275	0.028379
C15	C	-0.005578	-0.079377	0.028112
C16	C	0.069652	-0.041762	0.028379
C17	C	0.152948	0.113708	0.017863
C18	C	0.173786	0.152360	0.014965
C19	C	0.155902	0.171750	0.013509
C20	C	0.178499	0.213661	0.010359
C21	C	0.117177	0.152485	0.014953
C22	C	0.096339	0.113835	0.017857
C23	C	0.114226	0.094447	0.019312
C24	C	-0.131813	-0.113936	0.017859
C25	C	-0.167567	-0.131750	0.014961
C26	C	-0.185502	-0.169024	0.013506
C27	C	-0.224264	-0.188340	0.010358
C28	C	-0.167685	-0.188485	0.014954
C29	C	-0.131938	-0.170675	0.017859
C30	C	-0.114002	-0.133396	0.019309
C31	C	0.152939	-0.113943	0.017877
C32	C	0.173778	-0.131757	0.014977
C33	C	0.155892	-0.169032	0.013523
C34	C	0.178486	-0.188349	0.010377
C35	C	0.117170	-0.188491	0.014967
C36	C	0.096334	-0.170675	0.017865
C37	C	0.114220	-0.133401	0.019323
C38	C	0.091629	0.052537	0.022456
C39	C	0.073617	0.019131	0.024964
C40	C	0.073613	-0.098693	0.024971
C41	C	0.091623	-0.114089	0.022466
C42	C	-0.044339	-0.098690	0.024964
C43	C	-0.075237	-0.114084	0.022456
O44	O	-0.327856	-0.266388	-0.009322
O45	O	-0.236954	-0.220935	0.009228
O46	O	-0.236950	-0.220939	-0.054773
O47	O	-0.327860	-0.266385	0.054680
O48	O	-0.236948	-0.168954	-0.054776
O49	O	-0.236952	-0.168950	0.009225
O50	O	-0.327854	-0.214403	-0.009325
Cu51	Cu	-0.282403	-0.186930	-0.000050
Cu52	Cu	-0.282405	-0.248408	-0.000046
O53	O	-0.327858	-0.214400	0.054676
C54	C	0.384390	-0.079141	-0.361606
C55	C	0.422270	-0.041526	-0.380503
C56	C	0.384390	-0.079141	-0.305008
C57	C	0.422270	-0.041526	-0.323990
C58	C	0.440988	-0.022543	-0.361606
C59	C	0.365758	-0.098038	-0.323991
C60	C	0.282465	-0.170819	-0.396168
C61	C	0.261627	-0.188759	-0.413983
C62	C	0.279513	-0.169420	-0.451257
C63	C	0.256917	-0.188867	-0.470572
C64	C	0.318239	-0.132140	-0.470717
C65	C	0.339076	-0.114205	-0.452905
C66	C	0.321187	-0.133546	-0.415628
C67	C	0.567227	0.113942	-0.453282
C68	C	0.602981	0.152594	-0.471222
C69	C	0.620916	0.171985	-0.451883
C70	C	0.659678	0.213894	-0.471328
C71	C	0.603097	0.152719	-0.414603
C72	C	0.567349	0.114068	-0.396667
C73	C	0.549414	0.094682	-0.416011
C74	C	0.282465	-0.170819	-0.168522
C75	C	0.261624	-0.188757	-0.129868
C76	C	0.279510	-0.169418	-0.110479
C77	C	0.256914	-0.188865	-0.068568
C78	C	0.318233	-0.132140	-0.129742
C79	C	0.339070	-0.114203	-0.168394
C80	C	0.321184	-0.133548	-0.187782
C81	C	0.343783	-0.114094	-0.396315
C82	C	0.361794	-0.098590	-0.380920
C83	C	0.361794	-0.098590	-0.263099
C84	C	0.343783	-0.114094	-0.229693
C85	C	0.479750	0.019366	-0.381054
C86	C	0.510649	0.052771	-0.396557
C87	C	0.440758	-0.356212	-0.028193
C88	C	0.422041	-0.393827	-0.028459
C89	C	0.384158	-0.356213	-0.028190
C90	C	0.365526	-0.393828	-0.028456
C91	C	0.384160	-0.412810	-0.028193
C92	C	0.422038	-0.337315	-0.028456
C93	C	0.567000	-0.264532	-0.017949
C94	C	0.602755	-0.246591	-0.015053
C95	C	0.620692	-0.265931	-0.013601
C96	C	0.659455	-0.246483	-0.010453
C97	C	0.602873	-0.303210	-0.015048
C98	C	0.567125	-0.321146	-0.017949
C99	C	0.549188	-0.301805	-0.019399
C100	C	0.339356	-0.549295	-0.017951
C101	C	0.318645	-0.587947	-0.015055
C102	C	0.279915	-0.607338	-0.013597
C103	C	0.257452	-0.649247	-0.010452
C104	C	0.261899	-0.588073	-0.015042
C105	C	0.282613	-0.549422	-0.017945
C106	C	0.321343	-0.530035	-0.019397
C107	C	0.339344	-0.264537	-0.017936
C108	C	0.318628	-0.246599	-0.015032
C109	C	0.279898	-0.265939	-0.013577
C110	C	0.257433	-0.246493	-0.010426
C111	C	0.261884	-0.303217	-0.015022
C112	C	0.282601	-0.321153	-0.017924
C113	C	0.321334	-0.301808	-0.019385
C114	C	0.510421	-0.321258	-0.022542
C115	C	0.479522	-0.336762	-0.025048
C116	C	0.361696	-0.336765	-0.025041
C117	C	0.343793	-0.321261	-0.022532
C118	C	0.361701	-0.454719	-0.025047
C119	C	0.343799	-0.488125	-0.022541
O120	O	0.223728	0.336934	-0.009323
O121	O	0.159726	0.227482	0.009227
O122	O	0.223729	0.291478	-0.054775
O123	O	0.159725	0.272938	0.054678
O124	O	0.275711	0.291477	-0.054771
O125	O	0.211707	0.227481	0.009230
O126	O	0.275710	0.336932	-0.009320
Cu127	Cu	0.248455	0.282206	-0.000045
Cu128	Cu	0.186981	0.282208	-0.000049
O129	O	0.211707	0.272936	0.054681
O130	O	0.763271	0.337164	-0.496871
O131	O	0.672367	0.227713	-0.451422
O132	O	0.672365	0.291711	-0.451418
O133	O	0.763273	0.273165	-0.496876
O134	O	0.672366	0.291712	-0.503402
O135	O	0.672368	0.227714	-0.503407
O136	O	0.763272	0.337165	-0.548856
Cu137	Cu	0.717820	0.282440	-0.530878
Cu138	Cu	0.717819	0.282438	-0.469400
O139	O	0.763275	0.273167	-0.548860
O140	O	0.211690	-0.214417	-0.548617
O141	O	0.275691	-0.168962	-0.503167
O142	O	0.211689	-0.168964	-0.503163
O143	O	0.275692	-0.214415	-0.548621
O144	O	0.159706	-0.220947	-0.451179
O145	O	0.223708	-0.220945	-0.451183
O146	O	0.159707	-0.266400	-0.496633
Cu147	Cu	0.186961	-0.248419	-0.469161
Cu148	Cu	0.248437	-0.186943	-0.530639
O149	O	0.223709	-0.266398	-0.496637
C150	C	-0.005343	-0.412572	0.361558
C151	C	0.013375	-0.393590	0.380456
C152	C	0.051255	-0.355974	0.304961
C153	C	0.069887	-0.337077	0.323944
C154	C	0.051254	-0.355974	0.361560
C155	C	0.013375	-0.393589	0.323943
C156	C	-0.131582	-0.549057	0.396116
C157	C	-0.167336	-0.587709	0.413930
C158	C	-0.185271	-0.607098	0.451205
C159	C	-0.224034	-0.649009	0.470519
C160	C	-0.167452	-0.587833	0.470666
C161	C	-0.131705	-0.549184	0.452854
C162	C	-0.113770	-0.529796	0.415578
C163	C	0.096061	-0.321414	0.453239
C164	C	0.116773	-0.303600	0.471179
C165	C	0.155502	-0.266327	0.451842
C166	C	0.177965	-0.247011	0.471288
C167	C	0.173517	-0.246866	0.414562
C168	C	0.152802	-0.264677	0.396625
C169	C	0.114073	-0.301955	0.415968
C170	C	0.096064	-0.321412	0.168474
C171	C	0.116779	-0.303599	0.129820
C172	C	0.155508	-0.266324	0.110432
C173	C	0.177972	-0.247009	0.068521
C174	C	0.173522	-0.246865	0.129696
C175	C	0.152807	-0.264680	0.168348
C176	C	0.114075	-0.301953	0.187735
C177	C	-0.075004	-0.487887	0.396265
C178	C	-0.044106	-0.454481	0.380871
C179	C	0.073715	-0.336660	0.263052
C180	C	0.091618	-0.321265	0.229646
C181	C	0.073714	-0.336661	0.381009
C182	C	0.091616	-0.321267	0.396513
C183	C	0.051046	-0.022794	-0.361634
C184	C	0.069679	-0.041778	-0.380530
C185	C	-0.005555	-0.079390	-0.305034
C186	C	0.013163	-0.098288	-0.324016
C187	C	0.051045	-0.079393	-0.361631
C188	C	0.013164	-0.041775	-0.324018
C189	C	0.095858	0.113693	-0.396200
C190	C	0.116571	0.152344	-0.414015
C191	C	0.155302	0.171732	-0.451290
C192	C	0.177767	0.213642	-0.470607
C193	C	0.173317	0.152465	-0.470750
C194	C	0.152600	0.113815	-0.452936
C195	C	0.113869	0.094429	-0.415659
C196	C	0.152973	-0.113959	-0.453306
C197	C	0.173810	-0.131775	-0.471245
C198	C	0.155926	-0.169048	-0.451906
C199	C	0.178519	-0.188366	-0.471350
C200	C	0.117198	-0.188507	-0.414626
C201	C	0.096358	-0.170694	-0.396690
C202	C	0.114251	-0.133416	-0.416035
C203	C	-0.131801	-0.113944	-0.168548
C204	C	-0.167554	-0.131755	-0.129895
C205	C	-0.185491	-0.169029	-0.110504
C206	C	-0.224255	-0.188343	-0.068593
C207	C	-0.167671	-0.188490	-0.129767
C208	C	-0.131918	-0.170677	-0.168418
C209	C	-0.113988	-0.133404	-0.187808
C210	C	0.091411	0.052521	-0.396344
C211	C	0.073508	0.019115	-0.380949
C212	C	-0.044320	-0.098701	-0.263125
C213	C	-0.075220	-0.114094	-0.229719
C214	C	0.073641	-0.098707	-0.381079
C215	C	0.091652	-0.114103	-0.396582
C216	C	-0.615853	-0.356193	0.361535
C217	C	-0.634487	-0.393808	0.380433
C218	C	-0.559253	-0.356195	0.304938
C219	C	-0.577972	-0.393810	0.323921
C220	C	-0.615854	-0.412792	0.361537
C221	C	-0.577972	-0.337297	0.323920
C222	C	-0.660661	-0.264512	0.396093
C223	C	-0.681373	-0.246571	0.413906
C224	C	-0.720104	-0.265909	0.451181
C225	C	-0.742568	-0.246461	0.470495
C226	C	-0.738120	-0.303189	0.470643
C227	C	-0.717405	-0.321125	0.452831
C228	C	-0.678674	-0.301785	0.415554
C229	C	-0.717784	-0.549275	0.453218
C230	C	-0.738622	-0.587926	0.471159
C231	C	-0.720740	-0.607319	0.451822
C232	C	-0.743333	-0.649227	0.471268
C233	C	-0.682012	-0.588055	0.414542
C234	C	-0.661170	-0.549403	0.396604
C235	C	-0.679063	-0.530016	0.415946
C236	C	-0.433006	-0.264522	0.168449
C237	C	-0.397253	-0.246585	0.129796
C238	C	-0.379317	-0.265926	0.110407
C239	C	-0.340553	-0.246480	0.068496
C240	C	-0.397138	-0.303204	0.129672
C241	C	-0.432891	-0.321139	0.168324
C242	C	-0.450820	-0.301793	0.187711
C243	C	-0.656216	-0.321238	0.396242
C244	C	-0.638314	-0.336743	0.380848
C245	C	-0.520488	-0.336748	0.263028
C246	C	-0.489588	-0.321245	0.229622
C247	C	-0.638451	-0.454700	0.380987
C248	C	-0.656463	-0.488106	0.396492
C249	C	0.440756	0.310302	-0.361620
C250	C	0.422038	0.310564	-0.380518
C251	C	0.384160	0.310312	-0.305026
C252	C	0.365528	0.310574	-0.324010
C253	C	0.384159	0.310303	-0.361624
C254	C	0.422038	0.310573	-0.324006
C255	C	0.566989	0.300046	-0.396172
C256	C	0.602741	0.297145	-0.413984
C257	C	0.620675	0.295684	-0.451257
C258	C	0.659436	0.292531	-0.470569
C259	C	0.602857	0.297127	-0.470719
C260	C	0.567111	0.300033	-0.452909
C261	C	0.549177	0.301493	-0.415634
C262	C	0.339351	0.300042	-0.453303
C263	C	0.318640	0.297142	-0.471244
C264	C	0.279912	0.295690	-0.451908
C265	C	0.257449	0.292541	-0.471354
C266	C	0.261899	0.297143	-0.414629
C267	C	0.282613	0.300049	-0.396692
C268	C	0.321341	0.301496	-0.416033
C269	C	0.339354	0.300088	-0.168540
C270	C	0.318640	0.297192	-0.129888
C271	C	0.279912	0.295742	-0.110501
C272	C	0.257450	0.292601	-0.068591
C273	C	0.261898	0.297184	-0.129766
C274	C	0.282612	0.300078	-0.168417
C275	C	0.321344	0.301533	-0.187802
C276	C	0.510413	0.304640	-0.396323
C277	C	0.479516	0.307151	-0.380931
C278	C	0.361701	0.307173	-0.263117
C279	C	0.343799	0.304671	-0.229712
C280	C	0.361700	0.307154	-0.381073
C281	C	0.343798	0.304644	-0.396578
O282	O	0.275503	0.336913	-0.548651
O283	O	0.211494	0.227461	-0.503201
O284	O	0.275490	0.291455	-0.503192
O285	O	0.211507	0.272919	-0.548659
O286	O	0.223502	0.291457	-0.451211
O287	O	0.159506	0.227463	-0.451219
O288	O	0.223515	0.336915	-0.496669
Cu289	Cu	0.186764	0.282189	-0.469197
Cu290	Cu	0.248246	0.282187	-0.530672
O291	O	0.159519	0.272921	-0.496677
C292	C	0.051032	0.254111	0.361530
C293	C	0.013154	0.253851	0.380425
C294	C	0.051031	0.254102	0.304932
C295	C	0.013153	0.253842	0.323913
C296	C	-0.005564	0.254113	0.361527
C297	C	0.069663	0.253840	0.323916
C298	C	0.152954	0.264360	0.396096
C299	C	0.173791	0.267260	0.413911
C300	C	0.155906	0.268721	0.451185
C301	C	0.178502	0.271871	0.470501
C302	C	0.117182	0.267279	0.470643
C303	C	0.096345	0.264374	0.452830
C304	C	0.114233	0.262915	0.415555
C305	C	-0.131796	0.264379	0.453195
C306	C	-0.167548	0.267281	0.471133
C307	C	-0.185483	0.268734	0.451793
C308	C	-0.224243	0.271886	0.471236
C309	C	-0.167664	0.267282	0.414515
C310	C	-0.131919	0.264374	0.396581
C311	C	-0.113984	0.262925	0.415925
C312	C	0.152952	0.264325	0.168451
C313	C	0.173792	0.267221	0.129798
C314	C	0.155907	0.268673	0.110407
C315	C	0.178502	0.271814	0.068498
C316	C	0.117186	0.267232	0.129669
C317	C	0.096350	0.264339	0.168320
C318	C	0.114234	0.262881	0.187709
C319	C	0.091638	0.259769	0.396240
C320	C	0.073627	0.257260	0.380845
C321	C	0.073626	0.257242	0.263024
C322	C	0.091636	0.259743	0.229619
C323	C	-0.044324	0.257264	0.380973
C324	C	-0.075221	0.259775	0.396474
H325	H	0.100131	-0.026521	0.028807
C326	C	-0.780118	-0.324172	0.511139
C327	C	-0.771535	-0.333597	0.535932
C328	C	-0.810213	-0.352924	0.573242
H329	H	-0.802415	-0.346903	0.511791
H330	H	-0.789877	-0.308154	0.518982
H331	H	-0.761782	-0.349614	0.528091
H332	H	-0.749245	-0.310873	0.535293
H333	H	-0.819972	-0.336906	0.581085
H334	H	-0.832507	-0.375653	0.573889
H335	H	-0.804394	-0.359318	0.590069
C336	C	-0.112544	-0.191744	0.019452
C337	C	-0.077403	-0.168168	0.022312
C338	C	-0.059528	-0.187566	0.023783
H339	H	-0.102112	-0.198185	-0.003160
H340	H	-0.134690	-0.214453	0.041130
H341	H	-0.055261	-0.145466	0.000637
H342	H	-0.087823	-0.161726	0.044923
H343	H	-0.081674	-0.210275	0.045460
H344	H	-0.049099	-0.194006	0.001170
H345	H	-0.035686	-0.171573	0.025726
C346	C	0.097851	0.268872	0.108556
C347	C	0.128827	0.303198	0.077699
C348	C	0.111033	0.304720	0.058240
H349	H	0.071816	0.267622	0.125517
H350	H	0.090810	0.247870	0.099321
H351	H	0.135862	0.324195	0.086934
H352	H	0.154863	0.304455	0.060729
H353	H	0.103992	0.283718	0.049005
H354	H	0.084998	0.303469	0.075203
H355	H	0.132049	0.328008	0.037298
C356	C	0.622095	-0.206145	-0.013413
C357	C	0.618609	-0.206205	0.020918
C358	C	0.636424	-0.168952	0.022441
H359	H	0.606316	-0.197158	-0.014669
H360	H	0.652329	-0.189821	-0.034412
H361	H	0.588381	-0.222523	0.041911
H362	H	0.634389	-0.215184	0.022181
H363	H	0.666657	-0.152628	0.001442
H364	H	0.620643	-0.159968	0.021184
H365	H	0.634064	-0.168987	0.045733
C366	C	-0.007698	-0.139490	0.028964
C367	C	0.016812	-0.152053	0.029143
C368	C	-0.002372	-0.190018	0.029686
H369	H	-0.007859	-0.140995	0.006889
H370	H	-0.037178	-0.155219	0.051293
H371	H	0.046284	-0.136329	0.006817
H372	H	0.016975	-0.150557	0.051216
H373	H	-0.031852	-0.205747	0.052015
H374	H	-0.002532	-0.191520	0.007611
H375	H	0.014253	-0.198548	0.029811
C376	C	-0.557129	-0.296080	0.303669
C377	C	-0.581640	-0.283516	0.328358
C378	C	-0.562448	-0.245549	0.309718
H379	H	-0.556961	-0.294571	0.281430
H380	H	-0.527652	-0.280355	0.296523
H381	H	-0.611110	-0.299237	0.335498
H382	H	-0.581810	-0.285016	0.350597
H383	H	-0.532971	-0.229823	0.302572
H384	H	-0.562281	-0.244044	0.287480
H385	H	-0.579073	-0.237018	0.326468
C386	C	0.547959	0.093080	-0.356205
C387	C	0.512819	0.055079	-0.344642
C388	C	0.494950	0.035733	-0.307373
H389	H	0.537526	0.105259	-0.339330
H390	H	0.570107	0.093550	-0.355646
H391	H	0.490675	0.054612	-0.345198
H392	H	0.523240	0.042890	-0.361507
H393	H	0.517098	0.036202	-0.306813
H394	H	0.484520	0.047914	-0.290500
H395	H	0.471109	0.009946	-0.299523
H396	H	0.102606	-0.218843	0.013783
H397	H	0.617463	0.295940	-0.501068
C398	C	0.097699	0.268786	0.511138
C399	C	0.054895	0.235413	0.535933
C400	C	0.036936	0.236787	0.573242
H401	H	0.096617	0.290433	0.511786
H402	H	0.115632	0.270702	0.518982
H403	H	0.036967	0.233501	0.528092
H404	H	0.055965	0.213760	0.535297
H405	H	0.054869	0.238703	0.581085
H406	H	0.035857	0.258435	0.573885
H407	H	0.007893	0.214142	0.590070
C408	C	0.097765	-0.228955	-0.393560
C409	C	0.096268	-0.229730	-0.360104
C410	C	0.078365	-0.266985	-0.340686
H411	H	0.115693	-0.236818	-0.409531
H412	H	0.068702	-0.245838	-0.387105
H413	H	0.125327	-0.212853	-0.366560
H414	H	0.078339	-0.221875	-0.344124
H415	H	0.049302	-0.283868	-0.334231
H416	H	0.096295	-0.274845	-0.356660
H417	H	0.077344	-0.267517	-0.317982
H418	H	-0.182052	0.268464	0.501484
C419	C	0.443094	-0.021268	-0.303605
C420	C	0.418577	-0.045953	-0.266529
C421	C	0.437744	-0.027303	-0.247739
H422	H	0.443246	0.000964	-0.302267
H423	H	0.472577	-0.014109	-0.317346
H424	H	0.389102	-0.053106	-0.252791
H425	H	0.418424	-0.068185	-0.267856
H426	H	0.467227	-0.020144	-0.261480
H427	H	0.437895	-0.005072	-0.246404
H428	H	0.421115	-0.044050	-0.222582
C429	C	0.263114	-0.191832	-0.189610
C430	C	0.294082	-0.195207	-0.220452
C431	C	0.276271	-0.214565	-0.239885
H432	H	0.256064	-0.177900	-0.198863
H433	H	0.237078	-0.216612	-0.172618
H434	H	0.320110	-0.170431	-0.237441
H435	H	0.301135	-0.209142	-0.211210
H436	H	0.250234	-0.239345	-0.222893
H437	H	0.269221	-0.200630	-0.249135
H438	H	0.297277	-0.216860	-0.260811
H439	H	0.064523	-0.351759	0.184259
C440	C	-0.737176	-0.528225	0.474267
C441	C	-0.738647	-0.528924	0.507711
C442	C	-0.756501	-0.509530	0.527106
H443	H	-0.766238	-0.540377	0.480739
H444	H	-0.719219	-0.502438	0.458265
H445	H	-0.756604	-0.554705	0.523710
H446	H	-0.709590	-0.516769	0.501249
H447	H	-0.738544	-0.483744	0.511104
H448	H	-0.785562	-0.521685	0.533576
H449	H	-0.757498	-0.509999	0.549798
H450	H	0.370607	-0.083853	-0.468752
C451	C	-0.675165	-0.414081	0.421627
C452	C	-0.687572	-0.389402	0.434178
C453	C	-0.725054	-0.408071	0.472116
H454	H	-0.668637	-0.421259	0.437403
H455	H	-0.698708	-0.436306	0.423070
H456	H	-0.664034	-0.367184	0.432738
H457	H	-0.694109	-0.382223	0.418412
H458	H	-0.748596	-0.430296	0.473559
H459	H	-0.718521	-0.415249	0.487888
H460	H	-0.733479	-0.391331	0.480635
H461	H	0.100149	0.253421	0.308676
C462	C	-0.187204	-0.228946	0.013354
C463	C	-0.222317	-0.240378	0.010492
C464	C	-0.240304	-0.277646	0.009009
H465	H	-0.197686	-0.245862	0.035963
H466	H	-0.165104	-0.229554	-0.008326
H467	H	-0.244414	-0.239773	0.032170
H468	H	-0.211847	-0.223473	-0.012117
H469	H	-0.218204	-0.278253	-0.012671
H470	H	-0.250784	-0.294558	0.031619
H471	H	-0.264128	-0.285406	0.007064
H472	H	0.205343	-0.115928	-0.501596
C473	C	0.219595	-0.229236	-0.109025
C474	C	0.208398	-0.242338	-0.134279
C475	C	0.169686	-0.279626	-0.115093
H476	H	0.196245	-0.229314	-0.088084
H477	H	0.224284	-0.245567	-0.099824
H478	H	0.203706	-0.226011	-0.143474
H479	H	0.231737	-0.242269	-0.155220
H480	H	0.174375	-0.295957	-0.105893
H481	H	0.146339	-0.279701	-0.094153
H482	H	0.162086	-0.288522	-0.132226
C483	C	0.337566	-0.111144	-0.108635
C484	C	0.306583	-0.107788	-0.077789
C485	C	0.324373	-0.088446	-0.058337
H486	H	0.363596	-0.086361	-0.125603
H487	H	0.344613	-0.125090	-0.099389
H488	H	0.299541	-0.093842	-0.087035
H489	H	0.280551	-0.132565	-0.060812
H490	H	0.331421	-0.102391	-0.049091
H491	H	0.350404	-0.063664	-0.075308
H492	H	0.303353	-0.086169	-0.037404
C493	C	0.338105	-0.206135	-0.013439
C494	C	0.311667	-0.194571	-0.010574
C495	C	0.329594	-0.157300	-0.009103
H496	H	0.367157	-0.189264	-0.036052
H497	H	0.339140	-0.205571	0.008237
H498	H	0.310637	-0.195133	-0.032248
H499	H	0.282615	-0.211432	0.012038
H500	H	0.330629	-0.156735	0.012573
H501	H	0.358646	-0.140432	-0.031717
H502	H	0.311656	-0.149450	-0.007155
C503	C	0.324902	-0.414077	-0.029050
C504	C	0.312519	-0.389387	-0.029230
C505	C	0.275106	-0.408024	-0.029787
H506	H	0.301318	-0.436316	-0.006980
H507	H	0.331511	-0.421222	-0.051383
H508	H	0.305907	-0.382248	-0.006900
H509	H	0.336092	-0.367148	-0.051299
H510	H	0.281716	-0.415169	-0.052120
H511	H	0.251526	-0.430263	-0.007716
H512	H	0.266702	-0.391274	-0.029913
C513	C	-0.007706	-0.021388	0.028977
C514	C	0.016800	0.015683	0.029161
C515	C	-0.002405	0.034454	0.029736
H516	H	-0.037177	-0.035135	0.051308
H517	H	-0.007880	-0.020049	0.006905
H518	H	0.016969	0.014343	0.051232
H519	H	0.046271	0.029440	0.006832
H520	H	-0.002578	0.035792	0.007663
H521	H	-0.031875	0.020704	0.052067
H522	H	0.014223	0.059609	0.029857
C523	C	0.054332	-0.191826	0.019373
C524	C	0.062982	-0.201278	-0.013999
C525	C	0.024299	-0.220767	-0.012622
H526	H	0.044449	-0.175912	0.021288
H527	H	0.032106	-0.214554	0.041029
H528	H	0.085201	-0.178553	-0.035650
H529	H	0.072859	-0.217196	-0.015921
H530	H	0.002073	-0.243495	0.009034
H531	H	0.014420	-0.204851	-0.010706
H532	H	0.030162	-0.227186	-0.035262
H533	H	0.167269	0.098131	-0.468782
H534	H	-0.770155	-0.603608	0.501511
C535	C	0.442955	0.311203	-0.421752
C536	C	0.455527	0.344133	-0.444829
C537	C	0.474799	0.344737	-0.482815
H538	H	0.422206	0.289148	-0.423261
H539	H	0.468256	0.311337	-0.430359
H540	H	0.430228	0.343995	-0.436224
H541	H	0.476280	0.366194	-0.443332
H542	H	0.500101	0.344872	-0.491422
H543	H	0.454048	0.322681	-0.484320
H544	H	0.483335	0.367082	-0.498477
H545	H	0.437709	-0.409066	-0.028885
C546	C	-0.377952	-0.206104	0.108953
C547	C	-0.401300	-0.192999	0.134208
C548	C	-0.383527	-0.155707	0.115024
H549	H	-0.380277	-0.206019	0.088011
H550	H	-0.347731	-0.189778	0.099756
H551	H	-0.431513	-0.209321	0.143399
H552	H	-0.398976	-0.193075	0.155151
H553	H	-0.353306	-0.139381	0.105827
H554	H	-0.385853	-0.155626	0.094082
H555	H	-0.399363	-0.146809	0.132157
H556	H	0.064825	-0.186540	-0.366338
H557	H	0.370892	0.301275	-0.184323
C558	C	0.443082	-0.021262	-0.421706
C559	C	0.418559	-0.045944	-0.434263
C560	C	0.437715	-0.027288	-0.472214
H561	H	0.472561	-0.014097	-0.437463
H562	H	0.443224	0.000971	-0.423173
H563	H	0.418422	-0.068170	-0.432799
H564	H	0.389080	-0.053110	-0.418516
H565	H	0.437857	-0.005056	-0.473681
H566	H	0.467194	-0.020124	-0.487968
H567	H	0.421076	-0.044031	-0.480737
H568	H	0.335046	0.310999	-0.308768
C569	C	-0.452563	-0.243587	0.189528
C570	C	-0.497109	-0.264244	0.203076
C571	C	-0.515142	-0.244975	0.222500
H572	H	-0.436885	-0.218820	0.172556
H573	H	-0.450262	-0.241277	0.210493
H574	H	-0.499406	-0.266549	0.182113
H575	H	-0.512797	-0.289010	0.220053
H576	H	-0.512842	-0.242666	0.243465
H577	H	-0.499462	-0.220209	0.205526
H578	H	-0.545369	-0.258990	0.231698
C579	C	0.337732	-0.111085	-0.511191
C580	C	0.376108	-0.074604	-0.524423
C581	C	0.394081	-0.055196	-0.561707
H582	H	0.316819	-0.108726	-0.511222
H583	H	0.344813	-0.125024	-0.527480
H584	H	0.369026	-0.060668	-0.508138
H585	H	0.397032	-0.076951	-0.524401
H586	H	0.401162	-0.069134	-0.577996
H587	H	0.373164	-0.052840	-0.561734
H588	H	0.420123	-0.030443	-0.570690
C589	C	0.172439	-0.073465	0.019434
C590	C	0.210817	-0.060232	0.017537
C591	C	0.228793	-0.022945	0.018966
H592	H	0.151528	-0.073429	0.042705
H593	H	0.179519	-0.057182	-0.001587
H594	H	0.203735	-0.076511	0.038557
H595	H	0.231737	-0.060259	-0.005732
H596	H	0.235873	-0.006661	-0.002056
H597	H	0.207879	-0.022912	0.042237
H598	H	0.254836	-0.013960	0.017675
C599	C	0.547692	-0.361638	-0.019464
C600	C	0.503154	-0.385594	0.011537
C601	C	0.485236	-0.422897	0.010152
H602	H	0.563440	-0.370641	-0.018167
H603	H	0.549997	-0.361690	-0.042729
H604	H	0.500853	-0.385543	0.034796
H605	H	0.487395	-0.376603	0.010247
H606	H	0.487540	-0.422949	-0.013113
H607	H	0.500987	-0.431896	0.011448
H608	H	0.455014	-0.439155	0.031184
H609	H	-0.116983	-0.533275	0.365765
H610	H	0.335269	-0.128941	-0.308748
C611	C	0.215512	-0.206368	0.393575
C612	C	0.206922	-0.181579	0.384153
C613	C	0.245597	-0.144269	0.364823
H614	H	0.237810	-0.205715	0.370843
H615	H	0.225272	-0.198522	0.409591
H616	H	0.197168	-0.189422	0.368137
H617	H	0.184631	-0.182220	0.406877
H618	H	0.255357	-0.136424	0.380839
H619	H	0.267892	-0.143621	0.342093
H620	H	0.239773	-0.127445	0.358430
H621	H	-0.182059	-0.115906	-0.114213
C622	C	-0.112498	-0.191735	-0.189394
C623	C	-0.077341	-0.168155	-0.227390
C624	C	-0.059437	-0.187539	-0.246723
H625	H	-0.134613	-0.214449	-0.188944
H626	H	-0.102079	-0.198161	-0.177186
H627	H	-0.087762	-0.161734	-0.239596
H628	H	-0.055218	-0.145442	-0.227852
H629	H	-0.049018	-0.193965	-0.234514
H630	H	-0.081555	-0.210252	-0.246270
H631	H	-0.035579	-0.171542	-0.272504
C632	C	0.338107	0.295498	-0.511689
C633	C	0.307200	0.261166	-0.511626
C634	C	0.325115	0.259639	-0.548879
H635	H	0.364128	0.296753	-0.520675
H636	H	0.345198	0.316495	-0.528016
H637	H	0.300115	0.240174	-0.495306
H638	H	0.281178	0.259903	-0.502648
H639	H	0.332206	0.280636	-0.565205
H640	H	0.351136	0.260895	-0.557862
H641	H	0.304146	0.236347	-0.548842
C642	C	-0.007423	-0.413855	0.303542
C643	C	0.017104	-0.389167	0.266465
C644	C	-0.002032	-0.407824	0.247656
H645	H	-0.036907	-0.421031	0.317259
H646	H	-0.007550	-0.436080	0.302212
H647	H	0.017226	-0.366949	0.267797
H648	H	0.046587	-0.381989	0.252738
H649	H	-0.002159	-0.430049	0.246326
H650	H	-0.031515	-0.415000	0.261377
H651	H	0.014609	-0.391078	0.222496
H652	H	0.167470	-0.248829	0.366274
C653	C	0.262988	-0.191891	-0.355704
C654	C	0.224624	-0.228379	-0.342480
C655	C	0.206674	-0.247800	-0.305208
H656	H	0.255893	-0.177978	-0.339393
H657	H	0.283930	-0.194232	-0.355705
H658	H	0.203686	-0.226036	-0.342476
H659	H	0.231707	-0.242302	-0.358780
H660	H	0.227617	-0.250141	-0.305209
H661	H	0.199582	-0.233884	-0.288901
H662	H	0.180645	-0.272561	-0.296232
H663	H	0.552629	0.098160	-0.469035
C664	C	-0.112448	-0.528298	0.474047
C665	C	-0.145197	-0.529090	0.507507
C666	C	-0.127475	-0.509858	0.527042
H667	H	-0.088598	-0.502492	0.458147
H668	H	-0.102067	-0.540528	0.480508
H669	H	-0.155571	-0.516859	0.501045
H670	H	-0.169049	-0.554891	0.523416
H671	H	-0.117094	-0.522087	0.533503
H672	H	-0.103625	-0.484053	0.511139
H673	H	-0.149693	-0.510395	0.549748
C674	C	0.442999	-0.296102	-0.029036
C675	C	0.480249	-0.283539	-0.029213
C676	C	0.499569	-0.245576	-0.029750
H677	H	0.422264	-0.294600	-0.006960
H678	H	0.451579	-0.280370	-0.051363
H679	H	0.471668	-0.299267	-0.006888
H680	H	0.500994	-0.285031	-0.051288
H681	H	0.508149	-0.229845	-0.052077
H682	H	0.478830	-0.244079	-0.007673
H683	H	0.524847	-0.237047	-0.029873
H684	H	0.230097	-0.219111	-0.398135
H685	H	-0.182279	-0.218843	-0.113977
H686	H	0.064808	0.098152	0.019035
H687	H	0.617485	0.168277	-0.501573
H688	H	0.205322	0.268398	0.114116
H689	H	0.205307	-0.115910	0.013801
C690	C	0.547813	0.301576	-0.474093
C691	C	0.571161	0.299665	-0.510543
C692	C	0.553393	0.301079	-0.530067
H693	H	0.550143	0.324846	-0.476506
H694	H	0.517592	0.280555	-0.460199
H695	H	0.601375	0.320685	-0.524434
H696	H	0.568834	0.276397	-0.508142
H697	H	0.523171	0.280058	-0.516173
H698	H	0.555723	0.324349	-0.532477
H699	H	0.569229	0.299779	-0.554799
H700	H	-0.181841	-0.603391	0.398082
C701	C	0.263079	0.301579	-0.356204
C702	C	0.252661	0.270586	-0.332239
C703	C	0.234674	0.271989	-0.294942
H704	H	0.237033	0.300286	-0.347199
H705	H	0.283997	0.324848	-0.356164
H706	H	0.231744	0.247323	-0.332277
H707	H	0.278699	0.271873	-0.341232
H708	H	0.255592	0.295257	-0.294902
H709	H	0.208630	0.270697	-0.285940
H710	H	0.227607	0.250962	-0.278678
H711	H	-0.562304	-0.409050	0.308680
H712	H	-0.667447	-0.603843	0.398798
H713	H	0.370598	-0.083850	-0.184076
H714	H	-0.182060	-0.603623	0.501016
C715	C	0.054002	-0.361878	0.474310
C716	C	0.042652	-0.375102	0.510799
C717	C	0.003908	-0.412373	0.530220
H718	H	0.058699	-0.378188	0.460397
H719	H	0.030719	-0.361877	0.476652
H720	H	0.065930	-0.375106	0.508455
H721	H	0.037947	-0.358802	0.524723
H722	H	-0.019375	-0.412372	0.532562
H723	H	0.008608	-0.428680	0.516304
H724	H	-0.003800	-0.421349	0.554981
H725	H	-0.732075	-0.351477	0.468678
C726	C	0.381416	-0.528307	-0.019548
C727	C	0.392767	-0.553446	-0.017675
C728	C	0.431513	-0.534123	-0.019150
H729	H	0.376721	-0.519090	0.001459
H730	H	0.404698	-0.507366	-0.042832
H731	H	0.369490	-0.574380	0.005606
H732	H	0.397472	-0.562664	-0.038681
H733	H	0.454795	-0.513182	-0.042434
H734	H	0.426813	-0.524907	0.001857
H735	H	0.439222	-0.551175	-0.017884
C736	C	0.622616	0.173840	-0.393662
C737	C	0.657730	0.211814	-0.417343
C738	C	0.675717	0.231284	-0.398062
H739	H	0.633097	0.161712	-0.387227
H740	H	0.600516	0.173420	-0.370955
H741	H	0.679826	0.212231	-0.440043
H742	H	0.647261	0.223953	-0.423779
H743	H	0.653616	0.230865	-0.375355
H744	H	0.686195	0.219153	-0.391628
H745	H	0.699541	0.257052	-0.414126
H746	H	-0.629125	-0.248761	0.365741
H747	H	0.370881	-0.248784	-0.019122
H748	H	0.167516	0.097925	0.019049
C749	C	0.443003	0.311163	-0.303754
C750	C	0.480253	0.311336	-0.328441
C751	C	0.499578	0.311886	-0.309800
H752	H	0.422271	0.289093	-0.281514
H753	H	0.451585	0.333495	-0.296609
H754	H	0.471670	0.289007	-0.335581
H755	H	0.500995	0.333405	-0.350681
H756	H	0.508160	0.334218	-0.302654
H757	H	0.478843	0.289815	-0.287560
H758	H	0.524856	0.312007	-0.326548
C759	C	0.219891	0.295674	-0.108783
C760	C	0.228479	0.329041	-0.126816
C761	C	0.189793	0.327661	-0.107502
H762	H	0.210098	0.293764	-0.083005
H763	H	0.197617	0.274015	-0.109235
H764	H	0.250746	0.350694	-0.126360
H765	H	0.238267	0.330958	-0.152593
H766	H	0.167519	0.306002	-0.107954
H767	H	0.180003	0.325750	-0.081725
H768	H	0.195614	0.350298	-0.119737
H769	H	0.617241	0.295963	-0.398133
C770	C	0.622395	-0.324149	-0.013448
C771	C	0.657510	-0.300466	-0.010589
C772	C	0.675499	-0.319745	-0.009109
H773	H	0.632875	-0.330585	-0.036057
H774	H	0.600296	-0.346855	0.008232
H775	H	0.679605	-0.277767	-0.032267
H776	H	0.647041	-0.294029	0.012020
H777	H	0.653401	-0.342452	0.012571
H778	H	0.685977	-0.326181	-0.031719
H779	H	0.699324	-0.303681	-0.007166
H780	H	0.205316	0.168042	0.013788
C781	C	-0.007682	0.253256	0.303533
C782	C	0.016828	0.253073	0.266461
C783	C	-0.002354	0.252529	0.247678
H784	H	-0.007842	0.275331	0.302187
H785	H	-0.037162	0.230929	0.317283
H786	H	0.046301	0.275397	0.252713
H787	H	0.016990	0.230999	0.267795
H788	H	-0.031835	0.230202	0.261429
H789	H	-0.002513	0.274605	0.246336
H790	H	0.014271	0.252401	0.222524
C791	C	0.097840	0.173607	0.013351
C792	C	0.124382	0.211582	0.010492
C793	C	0.106583	0.231051	0.009010
H794	H	0.068795	0.161479	0.035960
H795	H	0.096814	0.173188	-0.008329
H796	H	0.125403	0.211999	0.032170
H797	H	0.153427	0.223721	-0.012117
H798	H	0.105558	0.230632	-0.012670
H799	H	0.077539	0.218920	0.031620
H800	H	0.124592	0.256820	0.007066
H801	H	0.102103	-0.319447	0.501532
C802	C	0.547618	-0.243455	-0.019557
C803	C	0.570887	-0.206964	-0.017689
C804	C	0.553051	-0.187535	-0.019181
H805	H	0.517392	-0.257360	0.001445
H806	H	0.549968	-0.241118	-0.042845
H807	H	0.568532	-0.209302	0.005596
H808	H	0.601111	-0.193049	-0.038689
H809	H	0.555402	-0.185198	-0.042469
H810	H	0.522826	-0.201443	0.001822
H811	H	0.568839	-0.162773	-0.017917
C812	C	0.338230	-0.608862	-0.013560
C813	C	0.348668	-0.622386	-0.044570
C814	C	0.366715	-0.641651	-0.043208
H815	H	0.317351	-0.629826	0.009692
H816	H	0.364277	-0.591787	-0.014860
H817	H	0.322624	-0.639460	-0.043266
H818	H	0.369551	-0.601430	-0.067827
H819	H	0.392763	-0.624576	-0.044508
H820	H	0.345834	-0.662613	-0.019955
H821	H	0.373804	-0.650826	-0.064249
C822	C	0.097141	-0.324781	0.108978
C823	C	0.058782	-0.361232	0.134232
C824	C	0.040674	-0.380753	0.115048
H825	H	0.117999	-0.327193	0.088035
H826	H	0.090011	-0.310888	0.099780
H827	H	0.065913	-0.375122	0.143424
H828	H	0.037914	-0.358831	0.155175
H829	H	0.033545	-0.366860	0.105851
H830	H	0.061535	-0.383162	0.094106
H831	H	0.014644	-0.405486	0.132181
C832	C	0.381409	0.301633	-0.474372
C833	C	0.392757	0.299752	-0.510860
C834	C	0.431500	0.301221	-0.530280
H835	H	0.376711	0.280628	-0.460457
H836	H	0.404693	0.324917	-0.476716
H837	H	0.369478	0.276471	-0.508515
H838	H	0.397464	0.320756	-0.524786
H839	H	0.454784	0.324505	-0.532624
H840	H	0.426798	0.280215	-0.516361
H841	H	0.439207	0.299949	-0.555040
H842	H	0.333309	0.296016	-0.114204
H843	H	0.230365	-0.603862	-0.013858
C844	C	0.262974	-0.528580	-0.019487
C845	C	0.224617	-0.553834	-0.017582
C846	C	0.206509	-0.534649	-0.018996
H847	H	0.283832	-0.507638	-0.042756
H848	H	0.255843	-0.519382	0.001537
H849	H	0.231749	-0.563025	-0.038604
H850	H	0.203748	-0.574776	0.005685
H851	H	0.199378	-0.525452	0.002028
H852	H	0.227371	-0.513708	-0.042264
H853	H	0.180480	-0.551782	-0.017700
H854	H	0.101900	0.168027	-0.398169
H855	H	0.230368	0.295965	-0.398887
C856	C	0.263114	0.301634	-0.189395
C857	C	0.289537	0.304469	-0.227390
C858	C	0.271585	0.305898	-0.246725
H859	H	0.262068	0.323300	-0.188948
H860	H	0.234058	0.279007	-0.177187
H861	H	0.318585	0.327092	-0.239595
H862	H	0.290585	0.282805	-0.227848
H863	H	0.242529	0.283272	-0.234517
H864	H	0.270540	0.327564	-0.246275
H865	H	0.289508	0.307818	-0.272506
C866	C	-0.661761	-0.206107	0.392706
C867	C	-0.623417	-0.193014	0.356246
C868	C	-0.605342	-0.155743	0.336703
H869	H	-0.654618	-0.189749	0.406567
H870	H	-0.682654	-0.206065	0.390314
H871	H	-0.602529	-0.193053	0.358639
H872	H	-0.630549	-0.209362	0.342375
H873	H	-0.626235	-0.155701	0.334311
H874	H	-0.598201	-0.139388	0.350567
H875	H	-0.579326	-0.146856	0.311962
C876	C	-0.007645	0.253329	0.421621
C877	C	0.016883	0.253179	0.434176
C878	C	-0.002255	0.252712	0.472118
H879	H	-0.037128	0.231023	0.437391
H880	H	-0.007774	0.275426	0.423070
H881	H	0.017007	0.231084	0.432730
H882	H	0.046365	0.275484	0.418417
H883	H	-0.002384	0.274810	0.473567
H884	H	-0.031737	0.230406	0.487884
H885	H	0.014387	0.252614	0.480640
C886	C	0.172419	-0.243482	0.189202
C887	C	0.210761	-0.207022	0.163954
C888	C	0.228836	-0.187482	0.183152
H889	H	0.179563	-0.257344	0.198413
H890	H	0.151525	-0.241091	0.210139
H891	H	0.231651	-0.209415	0.143024
H892	H	0.203628	-0.193151	0.154741
H893	H	0.207943	-0.185090	0.204089
H894	H	0.235979	-0.201346	0.192363
H895	H	0.254851	-0.162741	0.166026
C896	C	-0.112420	-0.073472	0.019454
C897	C	-0.135683	-0.060247	0.017577
C898	C	-0.117833	-0.022975	0.019049
H899	H	-0.082197	-0.057162	-0.001553
H900	H	-0.114764	-0.073472	0.042738
H901	H	-0.133336	-0.060244	-0.005705
H902	H	-0.165907	-0.076546	0.038581
H903	H	-0.120177	-0.022975	0.042333
H904	H	-0.087610	-0.006669	-0.001958
H905	H	-0.133617	-0.013999	0.017779
H906	H	0.267931	-0.351506	-0.019101
H907	H	0.230346	-0.318966	-0.013835
H908	H	-0.182272	0.268459	0.398770
H909	H	-0.629638	-0.533721	0.366252
H910	H	-0.447397	-0.351491	0.184007
H911	H	0.205059	-0.216514	0.113907
C912	C	0.110516	-0.295861	0.303567
C913	C	0.122900	-0.283299	0.266494
C914	C	0.160320	-0.245333	0.247715
H915	H	0.134096	-0.294355	0.302224
H916	H	0.103914	-0.280133	0.317319
H917	H	0.129504	-0.299022	0.252746
H918	H	0.099331	-0.284796	0.267826
H919	H	0.153718	-0.229605	0.261467
H920	H	0.183897	-0.243830	0.246375
H921	H	0.168725	-0.236803	0.222560
H922	H	-0.002298	-0.408829	0.411365
C923	C	0.172403	0.262850	0.355600
C924	C	0.182772	0.293858	0.331701
C925	C	0.200694	0.292483	0.294393
H926	H	0.151474	0.239598	0.355559
H927	H	0.198463	0.264142	0.346543
H928	H	0.156716	0.292562	0.340756
H929	H	0.203705	0.317115	0.331731
H930	H	0.226754	0.293775	0.285336
H931	H	0.179763	0.269229	0.294356
H932	H	0.207736	0.313523	0.278172
C933	C	-0.007642	-0.139488	-0.303751
C934	C	0.016883	-0.152042	-0.328439
C935	C	-0.002261	-0.189989	-0.309783
H936	H	-0.037124	-0.155250	-0.296579
H937	H	-0.007775	-0.140950	-0.281523
H938	H	0.017012	-0.150583	-0.350660
H939	H	0.046365	-0.136291	-0.335613
H940	H	-0.002395	-0.191451	-0.287555
H941	H	-0.031743	-0.205747	-0.302612
H942	H	0.014378	-0.198510	-0.326530
C943	C	0.110341	-0.021386	-0.421731
C944	C	0.122741	0.015694	-0.434288
C945	C	0.160200	0.034490	-0.472237
H946	H	0.103790	-0.035107	-0.437492
H947	H	0.133895	-0.020063	-0.423194
H948	H	0.099192	0.014369	-0.432829
H949	H	0.129301	0.029424	-0.418538
H950	H	0.183754	0.035814	-0.473699
H951	H	0.153645	0.020767	-0.487994
H952	H	0.168621	0.059652	-0.480760
C953	C	-0.007672	-0.021394	-0.303767
C954	C	0.016842	0.015679	-0.328457
C955	C	-0.002341	0.034461	-0.309816
H956	H	-0.007835	-0.020052	-0.281530
H957	H	-0.037151	-0.035142	-0.296617
H958	H	0.046313	0.029423	-0.335601
H959	H	0.017007	0.014348	-0.350694
H960	H	-0.031820	0.020714	-0.302666
H961	H	-0.002504	0.035801	-0.287579
H962	H	0.014286	0.059616	-0.326566
C963	C	-0.112376	-0.073465	-0.189526
C964	C	-0.135621	-0.060229	-0.164381
C965	C	-0.117731	-0.022939	-0.183692
H966	H	-0.114696	-0.073426	-0.210474
H967	H	-0.082150	-0.057185	-0.198729
H968	H	-0.165839	-0.076504	-0.155184
H969	H	-0.133302	-0.060258	-0.143433
H970	H	-0.087505	-0.006659	-0.192895
H971	H	-0.120053	-0.022904	-0.204639
H972	H	-0.133497	-0.013952	-0.166634
H973	H	0.064321	0.097912	-0.365848
C974	C	-0.377585	-0.324132	0.108565
C975	C	-0.342450	-0.300444	0.070596
C976	C	-0.324423	-0.319706	0.051144
H977	H	-0.399647	-0.346844	0.108962
H978	H	-0.367119	-0.330549	0.120726
H979	H	-0.352917	-0.294032	0.058437
H980	H	-0.320379	-0.277732	0.070187
H981	H	-0.313957	-0.326124	0.063305
H982	H	-0.346488	-0.342418	0.051543
H983	H	-0.300579	-0.303635	0.025381
C984	C	0.547596	0.301645	-0.355709
C985	C	0.570859	0.299771	-0.342482
C986	C	0.553008	0.301246	-0.305211
H987	H	0.517372	0.280640	-0.339398
H988	H	0.549939	0.324930	-0.355711
H989	H	0.568511	0.276489	-0.342477
H990	H	0.601082	0.320774	-0.358782
H991	H	0.555351	0.324531	-0.305214
H992	H	0.522784	0.280241	-0.288904
H993	H	0.568791	0.299978	-0.296234
C994	C	0.172441	0.262828	0.189462
C995	C	0.215244	0.296204	0.171448
C996	C	0.233206	0.294843	0.190797
H997	H	0.173525	0.241182	0.189032
H998	H	0.154508	0.260917	0.215237
H999	H	0.233172	0.298112	0.145679
H1000	H	0.214172	0.317855	0.171877
H1001	H	0.215274	0.292931	0.216572
H1002	H	0.234287	0.273195	0.190366
H1003	H	0.262248	0.317489	0.178579
C1004	C	-0.186998	-0.110681	0.013467
C1005	C	-0.231532	-0.131262	0.044479
C1006	C	-0.249450	-0.111868	0.043121
H1007	H	-0.184713	-0.108313	-0.009784
H1008	H	-0.171231	-0.085932	0.014768
H1009	H	-0.247294	-0.156004	0.043175
H1010	H	-0.233829	-0.133631	0.067735
H1011	H	-0.233684	-0.087119	0.044421
H1012	H	-0.247162	-0.109500	0.019868
H1013	H	-0.279667	-0.125827	0.064163
C1014	C	0.215350	0.173442	-0.511226
C1015	C	0.226685	0.148295	-0.524458
C1016	C	0.265401	0.167603	-0.561746
H1017	H	0.238656	0.194388	-0.511263
H1018	H	0.210613	0.182645	-0.527511
H1019	H	0.231424	0.139097	-0.508177
H1020	H	0.203389	0.127349	-0.524431
H1021	H	0.260665	0.176807	-0.578031
H1022	H	0.288705	0.188549	-0.561779
H1023	H	0.273095	0.150544	-0.570729
H1024	H	0.167543	-0.083608	-0.469060
H1025	H	0.205320	0.268435	0.398066
H1026	H	0.064816	0.263199	0.468675
H1027	H	-0.117197	0.263199	0.468949
H1028	H	-0.117415	0.263190	0.366230
C1029	C	0.054300	0.262757	0.189171
C1030	C	0.043090	0.264637	0.163921
C1031	C	0.004353	0.263177	0.183116
H1032	H	0.058953	0.283766	0.198379
H1033	H	0.030971	0.239476	0.210109
H1034	H	0.066413	0.287916	0.142990
H1035	H	0.038428	0.243630	0.154711
H1036	H	-0.018976	0.239896	0.204055
H1037	H	0.009010	0.284186	0.192324
H1038	H	-0.003260	0.264449	0.165988
