data_functionalizedCrystal
_audit_creation_method	'MofGen! by Chris Wilmer'
_symmetry_space_group_name_H-M	'P1'
_symmetry_Int_Tables_number	1
_symmetry_cell_setting	triclinic
loop_
_symmetry_equiv_pos_as_xyz
  x,y,z
_cell_length_a	23.532407
_cell_length_b	10.489741
_cell_length_c	8.965430
_cell_angle_alpha	89.999293
_cell_angle_beta	89.998440
_cell_angle_gamma	83.693926
loop_
_atom_site_label
_atom_site_type_symbol
_atom_site_fract_x
_atom_site_fract_y
_atom_site_fract_z
O1	O	-0.756285	-0.154816	-0.123853
O2	O	-0.590571	-0.177218	-0.123896
O3	O	-0.677199	0.019706	-0.123864
O4	O	-0.669657	-0.351740	-0.123884
O5	O	-0.677191	0.019693	0.124214
O6	O	-0.590563	-0.177231	0.124183
O7	O	-0.756278	-0.154829	0.124226
Cu8	Cu	-0.673420	-0.166031	0.146856
Cu9	Cu	-0.673429	-0.166016	-0.146526
O10	O	-0.669650	-0.351753	0.124195
C11	C	-0.569347	-0.176654	0.000138
C12	C	-0.506119	-0.174939	0.000121
C13	C	-0.676625	0.067213	0.000174
C14	C	-0.674921	0.208785	0.000171
C15	C	-0.777502	-0.155393	0.000189
C16	C	-0.840730	-0.157108	0.000196
C17	C	-0.107717	-0.280717	0.000183
C18	C	-0.048306	-0.279124	0.000192
O19	O	-0.012211	-0.377181	0.000241
N20	N	-0.024904	-0.162052	0.000196
C21	C	-0.060916	-0.046567	0.000206
O22	O	-0.035555	0.053158	0.000211
C23	C	-0.120326	-0.048161	0.000207
C24	C	-0.143724	-0.165240	0.000188
C25	C	-0.131116	-0.397786	0.000166
C26	C	-0.190522	-0.399379	0.000154
C27	C	-0.226530	-0.283902	0.000159
C28	C	-0.203131	-0.166833	0.000176
C29	C	-0.156337	0.067323	0.000228
C30	C	-0.215750	0.065718	0.000230
C31	C	-0.239148	-0.051361	0.000211
C32	C	-0.298545	-0.052949	0.000170
N33	N	-0.321947	-0.170020	0.000166
C34	C	-0.285940	-0.285497	0.000161
C35	C	0.063849	-0.043227	0.000205
C36	C	0.123257	-0.041631	0.000193
C37	C	0.135863	-0.274188	0.000183
C38	C	0.076454	-0.275783	0.000184
C39	C	0.040447	-0.160298	0.000202
C40	C	-0.410699	-0.288833	0.000134
C41	C	-0.470111	-0.290416	0.000116
C42	C	-0.482712	-0.057859	0.000135
C43	C	-0.423305	-0.056275	0.000145
C44	C	-0.387299	-0.171773	0.000150
O45	O	-0.334675	0.045057	0.000127
O46	O	-0.311308	-0.385205	0.000175
C47	C	-0.670223	-0.399259	0.000153
C48	C	-0.671927	-0.540832	0.000146
N49	N	-0.673418	-0.166041	0.353205
C50	C	-0.619802	0.275093	0.000145
C51	C	-0.645836	0.368075	0.122468
C52	C	-0.645857	0.368063	-0.122118
C53	C	-0.700978	0.299902	0.122594
C54	C	-0.700991	0.299881	-0.122102
C55	C	-0.727065	0.392836	0.000251
N56	N	-0.673435	-0.165995	-0.352875
C57	C	-0.633343	-0.257083	0.450496
C58	C	-0.684905	-0.281179	0.549922
C59	C	-0.621878	-0.141955	0.549907
C60	C	-0.725006	-0.190195	0.450442
C61	C	-0.661945	-0.050921	0.450418
C62	C	-0.713544	-0.074968	0.549799
H63	H	-0.489158	-0.385759	0.000100
O64	O	-0.782764	-0.217311	0.392817
H65	H	-0.816016	-0.142120	0.433516
H66	H	-0.747479	0.002047	0.593126
O67	O	-0.614941	0.408122	0.259437
H68	H	-0.644350	0.475324	0.326666
H69	H	-0.724277	0.269839	0.226125
O70	O	-0.787144	0.460323	0.000347
H71	H	-0.809876	0.433042	0.101985
H72	H	-0.381389	-0.382882	0.000143
O73	O	-0.559779	0.207301	0.000283
H74	H	-0.528628	0.279441	0.001401
H75	H	-0.652214	0.046382	0.406677
H76	H	-0.101804	-0.491827	0.000167
H77	H	-0.512040	0.036159	0.000133
H78	H	-0.694620	-0.378514	0.593629
O79	O	-0.731862	0.259770	-0.259068
H80	H	-0.708899	0.286732	-0.360466
O81	O	-0.614963	0.408081	-0.259109
H82	H	-0.570451	0.360434	-0.258852
H83	H	-0.599484	-0.334143	0.406895
O84	O	-0.564136	-0.114978	0.607784
H85	H	-0.530944	-0.190699	0.567997
O86	O	0.025012	0.081339	0.000202
H87	H	0.051271	0.163004	0.000192
H88	H	-0.209568	-0.494717	0.000138
H89	H	0.057407	-0.371119	0.000177
H90	H	0.142303	0.053707	0.000185
O91	O	0.174705	-0.398746	0.000202
H92	H	0.219946	-0.377957	0.000225
O93	O	-0.131113	0.193608	0.000279
H94	H	-0.145544	0.249083	-0.100812
O95	O	-0.254588	0.190278	0.000253
H96	H	-0.246209	0.246347	-0.100857
O97	O	-0.398061	0.069997	0.000160
H98	H	-0.433083	0.150026	0.000168
