data_functionalizedCrystal
_audit_creation_method	'MofGen! by Chris Wilmer'
_symmetry_space_group_name_H-M	'P1'
_symmetry_Int_Tables_number	1
_symmetry_cell_setting	triclinic
loop_
_symmetry_equiv_pos_as_xyz
  x,y,z
_cell_length_a	12.759401
_cell_length_b	19.121063
_cell_length_c	12.759393
_cell_angle_alpha	87.597083
_cell_angle_beta	90.018496
_cell_angle_gamma	92.469017
loop_
_atom_site_label
_atom_site_type_symbol
_atom_site_fract_x
_atom_site_fract_y
_atom_site_fract_z
Zn1	Zn	1.588321	-0.279568	0.611771
Zn2	Zn	1.580680	-0.397037	0.443567
Zn3	Zn	1.412621	-0.279605	0.436113
Zn4	Zn	1.405080	-0.396983	0.619205
O5	O	1.496676	-0.338298	0.527664
O6	O	1.734328	-0.295158	0.589467
O7	O	1.558345	-0.381497	0.295559
O8	O	1.442282	-0.181316	0.453184
O9	O	1.728714	-0.381462	0.465888
O10	O	1.571368	-0.181289	0.582240
O11	O	1.434872	-0.295221	0.290083
O12	O	1.264600	-0.295168	0.460392
O13	O	1.429429	-0.381370	0.765237
O14	O	1.259060	-0.381405	0.594909
O15	O	1.564056	-0.295106	0.759776
O16	O	1.551032	-0.495314	0.473095
O17	O	1.422020	-0.495274	0.602136
C18	C	1.223709	-0.338285	0.527649
C19	C	1.106932	-0.338297	0.527668
C20	C	1.049208	-0.383272	0.597605
C21	C	0.939483	-0.383281	0.597616
C22	C	0.945216	-0.293337	0.457747
C23	C	1.054939	-0.293325	0.457741
C24	C	1.045897	-0.435203	0.678354
C25	C	0.936172	-0.435212	0.678366
C26	C	1.484907	-0.520778	0.539254
C27	C	1.479969	-0.598844	0.544247
C28	C	1.544871	-0.635516	0.479464
C29	C	1.540233	-0.708867	0.484167
C30	C	1.470686	-0.745544	0.553648
C31	C	1.405781	-0.708866	0.618438
C32	C	1.410426	-0.635517	0.613740
C33	C	1.453305	-0.967013	0.571195
C34	C	1.448663	-1.040368	0.575886
C35	C	1.583116	-1.040364	0.441616
C36	C	1.587750	-0.967013	0.436920
C37	C	1.522849	-0.930341	0.501714
C38	C	1.465941	-0.820521	0.558454
C39	C	1.527600	-0.855366	0.496912
C40	C	1.770708	-0.338312	0.527680
C41	C	1.887484	-0.338318	0.527686
C42	C	1.496754	-0.338227	0.801693
C43	C	1.496787	-0.338197	0.918468
C44	C	1.508518	-0.155106	0.516052
C45	C	1.513565	-0.077040	0.511103
C46	C	1.496661	-0.338318	0.254698
C47	C	1.496844	-0.338151	0.137911
C48	C	1.566897	-0.293275	0.970488
C49	C	1.566923	-0.293250	1.080210
C50	C	1.426727	-0.383075	1.085884
C51	C	1.426696	-0.383096	0.976163
C52	C	1.647841	-0.241418	0.967213
C53	C	1.647867	-0.241392	1.076936
H54	H	0.902870	-0.256722	0.400815
H55	H	1.622069	-0.189711	1.107695
F56	F	1.331770	-0.747903	0.692391
F57	F	1.661783	-0.927984	0.362981
F58	F	1.753004	-0.260426	1.117074
F59	F	1.341350	-0.596487	0.682694
H60	H	1.076598	-0.486846	0.652356
F61	F	1.086080	-0.416244	0.783550
H62	H	0.903420	-0.415796	0.754482
H63	H	0.902888	-0.489594	0.659894
F64	F	1.352136	-0.430856	1.147296
F65	F	1.618886	-0.596489	0.405506
F66	F	1.609314	-0.747894	0.415218
F67	F	1.391925	-0.859561	0.632397
F68	F	1.116370	-0.245445	0.383321
F69	F	1.384230	-0.927994	0.640154
H70	H	1.635956	-1.070229	0.388866
H71	H	1.392042	-1.070228	0.632484
F72	F	1.601619	-0.816330	0.422973
H73	H	1.369603	-0.419673	0.933812
F74	F	1.623948	-0.170325	0.923791
H75	H	1.723862	-0.260917	0.934418
