data_functionalizedCrystal
_audit_creation_method	'MofGen! by Chris Wilmer'
_symmetry_space_group_name_H-M	'P1'
_symmetry_Int_Tables_number	1
_symmetry_cell_setting	triclinic
loop_
_symmetry_equiv_pos_as_xyz
  x,y,z
_cell_length_a	14.971486
_cell_length_b	10.654550
_cell_length_c	14.048226
_cell_angle_alpha	89.994756
_cell_angle_beta	89.998499
_cell_angle_gamma	84.049516
loop_
_atom_site_label
_atom_site_type_symbol
_atom_site_fract_x
_atom_site_fract_y
_atom_site_fract_z
O1	O	1.187838	0.163659	-0.079049
O2	O	0.927544	0.183257	-0.079074
O3	O	1.063675	-0.009345	-0.079057
O4	O	1.051706	0.356262	-0.079066
O5	O	1.063659	-0.009357	0.079264
O6	O	0.927527	0.183246	0.079247
O7	O	1.187821	0.163648	0.079273
Zn8	Zn	1.057672	0.173445	0.104397
Zn9	Zn	1.057693	0.173460	-0.104198
O10	O	1.051690	0.356250	0.079256
C11	C	0.894206	0.182375	0.000083
C12	C	0.794895	0.179749	0.000073
C13	C	0.738285	0.292898	0.000072
C14	C	0.644972	0.290422	0.000086
C15	C	0.608271	0.174797	0.000095
C16	C	0.664888	0.061639	0.000099
C17	C	0.758199	0.064116	0.000092
C18	C	0.470397	0.056485	0.000112
C19	C	0.377080	0.054007	0.000118
C20	C	0.357171	0.282791	0.000107
C21	C	0.450482	0.285268	0.000100
C22	C	0.507092	0.172110	0.000102
C23	C	1.062788	-0.056139	0.000102
C24	C	1.060159	-0.195555	0.000099
C25	C	1.140311	-0.275900	0.000109
C26	C	1.137835	-0.406894	0.000102
C27	C	0.975048	-0.377185	0.000078
C28	C	0.977525	-0.246193	0.000078
C29	C	1.222945	-0.225262	0.000130
C30	C	1.303104	-0.305609	0.000142
C31	C	1.300628	-0.436603	0.000135
C32	C	1.217993	-0.487250	0.000116
C33	C	1.221159	0.164530	0.000113
C34	C	1.320470	0.167156	0.000117
C35	C	1.052577	0.403044	0.000094
C36	C	1.055206	0.542460	0.000092
N37	N	1.057663	0.173434	0.246758
N38	N	1.057709	0.173461	-0.246559
C39	C	1.117962	0.088185	0.296583
C40	C	1.117968	0.088184	0.396241
C41	C	1.057679	0.173440	0.446071
C42	C	0.997374	0.258693	0.396238
C43	C	0.997365	0.258687	0.296583
C44	C	0.997400	0.258702	0.603953
C45	C	0.997411	0.258710	0.703615
C46	C	1.118003	0.088200	0.703611
C47	C	1.117993	0.088193	0.603955
C48	C	1.057690	0.173448	0.554129
H49	H	0.347201	-0.040145	0.000126
O50	O	0.938683	0.341381	0.444600
C51	C	0.783617	0.414647	0.475069
C52	C	0.849984	0.320911	0.420258
H53	H	0.711890	0.398148	0.455393
H54	H	0.793905	0.400009	0.554865
H55	H	0.795932	0.515252	0.455474
H56	H	0.837710	0.220269	0.439773
H57	H	0.839680	0.335659	0.340475
H58	H	1.167089	0.018778	0.563383
H59	H	1.365897	-0.502018	0.000135
H60	H	0.516488	-0.035661	0.000116
O61	O	0.894761	-0.426321	-0.000102
C62	C	0.754858	-0.440949	-0.082109
C63	C	0.845761	-0.385244	-0.082039
H64	H	0.715208	-0.407738	-0.148338
H65	H	0.766804	-0.548379	-0.082167
H66	H	0.715237	-0.407897	-0.015827
H67	H	0.885429	-0.418199	-0.148310
H68	H	0.833751	-0.277820	-0.081932
O69	O	1.176582	0.005553	0.444751
C70	C	1.298610	-0.020865	0.557215
C71	C	1.232265	0.072854	0.502351
H72	H	1.343660	0.033511	0.603783
H73	H	1.259662	-0.083678	0.603947
H74	H	1.341665	-0.081823	0.504469
H75	H	1.189194	0.133895	0.555028
H76	H	1.271267	0.135579	0.455605
O77	O	1.176560	0.005245	0.248330
C78	C	1.296204	-0.163832	0.258855
C79	C	1.229876	-0.069985	0.313616
H80	H	1.339340	-0.224662	0.311615
H81	H	1.257243	-0.226750	0.212237
H82	H	1.341177	-0.109488	0.212160
H83	H	1.184887	-0.124227	0.360362
H84	H	1.268892	-0.007068	0.360174
O85	O	1.176546	0.005207	0.751898
C86	C	1.227598	-0.213036	0.782439
C87	C	1.161259	-0.119198	0.727675
H88	H	1.215250	-0.313638	0.762890
H89	H	1.299351	-0.196596	0.762811
H90	H	1.217266	-0.198334	0.862221
H91	H	1.171510	-0.133845	0.647881
H92	H	1.089531	-0.135662	0.747382
O93	O	0.938715	0.341383	0.751985
C94	C	0.783644	0.414602	0.782471
C95	C	0.850019	0.320892	0.727647
H96	H	0.711919	0.398085	0.762799
H97	H	0.793940	0.399951	0.862266
H98	H	0.795943	0.515215	0.762886
H99	H	0.837761	0.220242	0.747152
H100	H	0.839708	0.335653	0.647866
H101	H	0.948291	0.328122	0.563388
O102	O	0.938883	0.341674	0.248221
C103	C	0.887775	0.559917	0.217753
C104	C	0.954076	0.466076	0.272562
H105	H	0.900023	0.660515	0.237427
H106	H	0.898122	0.545376	0.137956
H107	H	0.816046	0.543319	0.237349
H108	H	1.025830	0.482617	0.253046
H109	H	0.943651	0.480639	0.352346
O110	O	1.383392	-0.256474	-0.000015
C111	C	1.523313	-0.241832	-0.081992
C112	C	1.432408	-0.297533	-0.081942
H113	H	1.562977	-0.275027	-0.148213
H114	H	1.511369	-0.134402	-0.082050
H115	H	1.562919	-0.274901	-0.015702
H116	H	1.392755	-0.264560	-0.148221
H117	H	1.444416	-0.404957	-0.081835
H118	H	0.912258	-0.180773	0.000071
O119	O	0.629283	-0.050713	0.000274
C120	C	0.617802	-0.247053	0.082268
C121	C	0.658163	-0.119843	0.082205
H122	H	0.641151	-0.302991	0.148492
H123	H	0.541382	-0.229467	0.082330
H124	H	0.641045	-0.302914	0.015981
H125	H	0.634989	-0.063916	0.148481
H126	H	0.734579	-0.137518	0.082094
H127	H	0.804290	-0.028022	0.000092
H128	H	0.768160	0.387053	0.000064
H129	H	0.598884	0.382560	0.000084
H130	H	0.480361	0.379420	0.000084
H131	H	0.311074	0.374929	0.000109
H132	H	1.224970	-0.118601	0.000138
H133	H	1.215983	-0.593916	0.000100
