data_functionalizedCrystal
_audit_creation_method	'MofGen! by Chris Wilmer'
_symmetry_space_group_name_H-M	'P1'
_symmetry_Int_Tables_number	1
_symmetry_cell_setting	triclinic
loop_
_symmetry_equiv_pos_as_xyz
  x,y,z
_cell_length_a	21.395364
_cell_length_b	19.077114
_cell_length_c	19.077579
_cell_angle_alpha	89.934476
_cell_angle_beta	87.686417
_cell_angle_gamma	87.673269
loop_
_atom_site_label
_atom_site_type_symbol
_atom_site_fract_x
_atom_site_fract_y
_atom_site_fract_z
Zn1	Zn	0.962988	0.263832	-0.408556
Zn2	Zn	1.462988	0.763832	0.091444
Zn3	Zn	0.954505	0.386063	-0.295766
Zn4	Zn	1.454505	0.886063	0.204234
Zn5	Zn	0.853848	0.268569	-0.291062
Zn6	Zn	1.353848	0.768569	0.208938
Zn7	Zn	0.854142	0.381302	-0.413233
Zn8	Zn	1.354142	0.881302	0.086767
O9	O	0.906371	0.324942	-0.352154
O10	O	1.406371	0.824942	0.147846
O11	O	1.049541	0.280056	-0.393606
O12	O	1.549541	0.780056	0.106394
O13	O	0.937479	0.374453	-0.196810
O14	O	1.437479	0.874453	0.303190
O15	O	0.871753	0.169608	-0.302722
O16	O	1.371753	0.669608	0.197278
O17	O	1.043308	0.369859	-0.310740
O18	O	1.543308	0.869859	0.189260
O19	O	0.951938	0.166127	-0.389044
O20	O	1.451938	0.666127	0.110956
O21	O	0.863527	0.288130	-0.193354
O22	O	1.363527	0.788130	0.306646
O23	O	0.766209	0.283514	-0.307257
O24	O	1.266209	0.783514	0.192743
O25	O	0.872254	0.361745	-0.510945
O26	O	1.372254	0.861745	-0.010945
O27	O	0.766425	0.366338	-0.397015
O28	O	1.266425	0.866338	0.102985
O29	O	0.952223	0.275440	-0.507509
O30	O	1.452223	0.775440	-0.007509
O31	O	0.937764	0.483765	-0.315275
O32	O	1.437764	0.983765	0.184725
O33	O	0.864027	0.480267	-0.401577
O34	O	1.364027	0.980267	0.098423
C35	C	0.743583	0.324924	-0.352133
C36	C	1.243583	0.824924	0.147867
C37	C	0.673942	0.324933	-0.352142
C38	C	1.173942	0.824933	0.147858
C39	C	0.900024	0.507512	-0.359459
C40	C	1.400024	1.007512	0.140541
C41	C	0.897368	0.585616	-0.362608
C42	C	1.397368	1.085616	0.137392
C43	C	0.172270	0.368153	-0.398852
C44	C	0.672270	0.868153	0.101148
C45	C	0.237705	0.368153	-0.398844
C46	C	0.737705	0.868153	0.101156
C47	C	0.270304	0.324956	-0.352177
C48	C	0.770304	0.824956	0.147823
C49	C	0.237461	0.281769	-0.305502
C50	C	0.737461	0.781769	0.194498
C51	C	0.172027	0.281775	-0.305506
C52	C	0.672027	0.781775	0.194494
C53	C	0.375963	0.261849	-0.344192
C54	C	0.875963	0.761849	0.155808
C55	C	0.441396	0.261842	-0.344193
C56	C	0.941396	0.761842	0.155807
C57	C	0.472125	0.324938	-0.352161
C58	C	0.972125	0.824938	0.147839
C59	C	0.437412	0.388044	-0.360143
C60	C	0.937412	0.888044	0.139857
C61	C	0.371978	0.388050	-0.360147
C62	C	0.871978	0.888050	0.139853
C63	C	0.341256	0.324945	-0.352168
C64	C	0.841256	0.824945	0.147832
C65	C	0.575911	0.368127	-0.398822
C66	C	1.075911	0.868127	0.101178
C67	C	0.641348	0.368129	-0.398810
C68	C	1.141348	0.868129	0.101190
C69	C	0.641102	0.281739	-0.305471
C70	C	1.141102	0.781739	0.194529
C71	C	0.575667	0.281743	-0.305480
C72	C	1.075667	0.781743	0.194520
C73	C	0.543076	0.324936	-0.352159
C74	C	1.043076	0.824936	0.147841
C75	C	0.934543	0.624105	-0.319191
C76	C	1.434543	1.124105	0.180809
C77	C	0.932048	0.697492	-0.322156
C78	C	1.432048	1.197492	0.177844
C79	C	0.892374	0.732387	-0.368535
C80	C	1.392374	1.232387	0.131465
C81	C	0.855198	0.693892	-0.411957
C82	C	1.355198	1.193892	0.088043
C83	C	0.857697	0.620507	-0.408994
C84	C	1.357697	1.120507	0.091006
C85	C	0.880784	0.951672	-0.382213
C86	C	1.380784	1.451672	0.117787
C87	C	0.878287	1.025062	-0.385170
C88	C	1.378287	1.525062	0.114830
C89	C	0.955138	1.028656	-0.295371
C90	C	1.455138	1.528656	0.204629
C91	C	0.957630	0.955270	-0.292410
C92	C	1.457630	1.455270	0.207590
C93	C	0.920457	0.916781	-0.335833
C94	C	1.420457	1.416781	0.164167
N95	N	0.889822	0.807400	-0.371566
N96	N	1.389822	1.307400	0.128434
N97	N	0.923013	0.841770	-0.332806
N98	N	1.423013	1.341770	0.167194
C99	C	1.069794	0.324960	-0.352176
C100	C	1.569794	0.824960	0.147824
C101	C	1.139435	0.324968	-0.352185
C102	C	1.639435	0.824968	0.147815
C103	C	0.913218	0.317533	-0.535436
C104	C	1.413218	0.817533	-0.035436
C105	C	0.916135	0.314376	-0.613540
C106	C	1.416135	0.814376	-0.113540
C107	C	0.912754	1.141658	-0.344846
C108	C	1.412754	1.641658	0.155154
C109	C	0.915462	1.063552	-0.341754
C110	C	1.415462	1.563552	0.158246
C111	C	0.937061	0.291782	-1.052988
C112	C	1.437061	0.791782	-0.552988
C113	C	0.934315	0.294752	-0.979602
C114	C	1.434315	0.794752	-0.479602
C115	C	0.891304	0.341167	-0.944701
C116	C	1.391304	0.841167	-0.444701
C117	C	0.851040	0.384621	-0.983191
C118	C	1.351040	0.884621	-0.483191
C119	C	0.853789	0.381654	-1.056576
C120	C	1.353789	0.881654	-0.556576
C121	C	0.878620	0.354862	-0.725414
C122	C	1.378620	0.854862	-0.225414
C123	C	0.875873	0.357824	-0.652024
C124	C	1.375873	0.857824	-0.152024
C125	C	0.959150	0.267956	-0.648440
C126	C	1.459150	0.767956	-0.148440
C127	C	0.961892	0.264990	-0.721827
C128	C	1.461892	0.764990	-0.221827
C129	C	0.921630	0.308446	-0.760310
C130	C	1.421630	0.808446	-0.260310
N131	N	0.888495	0.344203	-0.869688
N132	N	1.388495	0.844203	-0.369688
N133	N	0.924443	0.305414	-0.835322
N134	N	1.424443	0.805414	-0.335322
C135	C	0.899588	0.332271	-0.169584
C136	C	1.399588	0.832271	0.330416
C137	C	0.896798	0.335231	-0.091473
C138	C	1.396798	0.835231	0.408527
H139	H	0.145738	0.403326	-0.436859
H140	H	0.645738	0.903326	0.063141
C141	C	0.834646	1.063445	-0.436198
C142	C	1.334646	1.563445	0.063802
N143	N	0.801777	1.092356	-0.474630
N144	N	1.301777	1.592356	0.025370
C145	C	0.839925	0.909343	-0.430017
C146	C	1.339925	1.409343	0.069983
N147	N	0.809160	0.877457	-0.466038
N148	N	1.309160	1.377457	0.033962
C149	C	1.001257	0.916891	-0.241371
C150	C	1.501257	1.416891	0.258629
N151	N	1.034110	0.887985	-0.202920
N152	N	1.534110	1.387985	0.297080
H153	H	0.822898	0.722310	-0.449722
H154	H	1.322898	1.222310	0.050278
H155	H	0.549374	0.403298	-0.436830
H156	H	1.049374	0.903298	0.063170
C157	C	0.273831	0.415656	-0.450188
C158	C	0.773831	0.915656	0.049812
N159	N	0.301039	0.451433	-0.488862
N160	N	0.801039	0.951433	0.011138
H161	H	0.966846	0.595699	-0.281421
H162	H	1.466846	1.095699	0.218579
C163	C	0.677465	0.415641	-0.450146
C164	C	1.177465	0.915641	0.049854
N165	N	0.704670	0.451429	-0.488814
N166	N	1.204670	0.951429	0.011186
C167	C	0.996028	1.070999	-0.247610
C168	C	1.496028	1.570999	0.252390
N169	N	1.026830	1.102892	-0.211636
N170	N	1.526830	1.602892	0.288364
H171	H	0.462429	0.439423	-0.366636
H172	H	0.962429	0.939423	0.133364
C173	C	0.333796	0.457466	-0.368913
C174	C	0.833796	0.957466	0.131087
N175	N	0.305037	0.509752	-0.375510
N176	N	0.805037	1.009752	0.124490
H177	H	0.350949	0.210466	-0.337692
H178	H	0.850949	0.710466	0.162308
C179	C	0.816802	0.578169	-0.456756
C180	C	1.316802	1.078169	0.043244
N181	N	0.786000	0.546281	-0.492734
N182	N	1.286000	1.046281	0.007266
C183	C	0.828561	0.408893	-0.613635
C184	C	1.328561	0.908893	-0.113635
N185	N	0.792928	0.447358	-0.584720
N186	N	1.292928	0.947358	-0.084720
C187	C	0.984377	0.240721	-1.091373
C188	C	1.484377	0.740721	-0.591373
N189	N	1.020019	0.202263	-1.120282
N190	N	1.520019	0.702263	-0.620282
C191	C	0.834325	0.402658	-0.767736
C192	C	1.334325	0.902658	-0.267736
N193	N	0.800957	0.438658	-0.799616
N194	N	1.300957	0.938658	-0.299616
C195	C	0.676957	0.234223	-0.254135
C196	C	1.176957	0.734223	0.245865
N197	N	0.703966	0.198435	-0.215466
N198	N	1.203966	0.698435	0.284534
H199	H	0.264007	0.246599	-0.267504
H200	H	0.764007	0.746599	0.232496
C201	C	0.135908	0.234261	-0.254172
C202	C	0.635908	0.734261	0.245828
N203	N	0.108702	0.198471	-0.215509
N204	N	0.608702	0.698471	0.284491
H205	H	0.996919	0.227197	-0.750238
H206	H	1.496919	0.727197	-0.250238
H207	H	0.967103	0.259374	-0.948271
H208	H	1.467103	0.759374	-0.448271
H209	H	0.962319	0.728827	-0.286802
H210	H	1.462319	1.228827	0.213198
C211	C	0.803726	0.435677	-0.944797
C212	C	1.303726	0.935677	-0.444797
N213	N	0.768085	0.474131	-0.915879
N214	N	1.268085	0.974131	-0.415879
C215	C	1.003438	0.220162	-0.606103
C216	C	1.503438	0.720162	-0.106103
N217	N	1.036800	0.184164	-0.574214
N218	N	1.536800	0.684164	-0.074214
C219	C	0.809495	0.429449	-1.098908
C220	C	1.309495	0.929449	-0.598908
N221	N	0.776133	0.465451	-1.130792
N222	N	1.276133	0.965451	-0.630792
H223	H	0.548933	0.246575	-0.267481
H224	H	1.048933	0.746575	0.232519
H225	H	0.469655	0.210457	-0.337703
H226	H	0.969655	0.710457	0.162297
