data_functionalizedCrystal
_audit_creation_method	'MofGen! by Chris Wilmer'
_symmetry_space_group_name_H-M	'P1'
_symmetry_Int_Tables_number	1
_symmetry_cell_setting	triclinic
loop_
_symmetry_equiv_pos_as_xyz
  x,y,z
_cell_length_a	16.120530
_cell_length_b	16.120444
_cell_length_c	13.033109
_cell_angle_alpha	100.386577
_cell_angle_beta	80.300523
_cell_angle_gamma	90.168401
loop_
_atom_site_label
_atom_site_type_symbol
_atom_site_fract_x
_atom_site_fract_y
_atom_site_fract_z
Zn1	Zn	1.322064	-0.470408	-0.704670
Zn2	Zn	1.298737	-0.591578	-0.536138
Zn3	Zn	1.165123	-0.443589	-0.518275
Zn4	Zn	1.175821	-0.602259	-0.703704
O5	O	1.240436	-0.526958	-0.615697
O6	O	1.436091	-0.493235	-0.690194
O7	O	1.266774	-0.556254	-0.385634
O8	O	1.191227	-0.330033	-0.535930
O9	O	1.418953	-0.582259	-0.566374
O10	O	1.306530	-0.349736	-0.672874
O11	O	1.168608	-0.447527	-0.372510
O12	O	1.049421	-0.457883	-0.534992
O13	O	1.209459	-0.600462	-0.851966
O14	O	1.057280	-0.574457	-0.671226
O15	O	1.316903	-0.503591	-0.852677
O16	O	1.277147	-0.710109	-0.565437
O17	O	1.186841	-0.717956	-0.688547
C18	C	1.022982	-0.514419	-0.601067
C19	C	0.929956	-0.509078	-0.594834
C20	C	0.759638	-0.499307	-0.583463
C21	C	0.722079	-0.554679	-0.648011
C22	C	0.627309	-0.549243	-0.641684
C23	C	0.854417	-0.504743	-0.589789
C24	C	1.230649	-0.744403	-0.628850
C25	C	1.226541	-0.837435	-0.634517
C26	C	1.261969	-1.045315	-0.586538
C27	C	1.219059	-1.007761	-0.644877
C28	C	1.223224	-0.912982	-0.639111
C29	C	1.257806	-1.140102	-0.592302
C30	C	1.458739	-0.539547	-0.630384
C31	C	1.551767	-0.544912	-0.636643
C32	C	1.266977	-0.556209	-0.891805
C33	C	1.278287	-0.568674	-1.009466
C34	C	1.250287	-0.308669	-0.602517
C35	C	1.254485	-0.215647	-0.596900
C36	C	1.234758	-0.520436	-1.055430
C37	C	1.246447	-0.533318	-1.177038
C38	C	1.214050	-0.497764	-0.340662
C39	C	1.202913	-0.485072	-0.222998
H40	H	1.179195	-1.046791	-0.699153
H41	H	1.188836	-0.469603	-1.004750
C42	C	1.307691	-0.601181	-1.244416
C43	C	1.345569	-0.643201	-1.178443
C44	C	1.401982	-0.705727	-1.240474
H45	H	1.349788	-0.575904	-1.288080
H46	H	1.278159	-0.640381	-1.287571
H47	H	1.375100	-0.604008	-1.135306
H48	H	1.303493	-0.668496	-1.134779
H49	H	1.372450	-0.744927	-1.283629
H50	H	1.444073	-0.680443	-1.284136
H51	H	1.427683	-0.734251	-1.195721
H52	H	1.301830	-1.006289	-0.532264
C53	C	0.707553	-0.430783	-0.503316
C54	C	0.648712	-0.468077	-0.434939
C55	C	0.600713	-0.404982	-0.361085
H56	H	0.678919	-0.396714	-0.539321
H57	H	0.743544	-0.396760	-0.463580
H58	H	0.612726	-0.502086	-0.474670
H59	H	0.677323	-0.502140	-0.398909
H60	H	0.636704	-0.370959	-0.321348
H61	H	0.572085	-0.370918	-0.397099
H62	H	0.560790	-0.430277	-0.314676
C63	C	1.141748	-0.417300	-1.155257
C64	C	1.142332	-0.417976	-1.048107
C65	C	1.086007	-0.355551	-0.985674
H66	H	1.086642	-0.428137	-1.170149
H67	H	1.158262	-0.363651	-1.170689
H68	H	1.125813	-0.471613	-1.032682
H69	H	1.197424	-0.407128	-1.033183
H70	H	1.102521	-0.301901	-1.001106
H71	H	1.030905	-0.366394	-1.000574
H72	H	1.086402	-0.355996	-0.912966
H73	H	0.761099	-0.606167	-0.708025
H74	H	1.324205	-0.619511	-1.060145
