data_functionalizedCrystal
_audit_creation_method	'MofGen! by Chris Wilmer'
_symmetry_space_group_name_H-M	'P1'
_symmetry_Int_Tables_number	1
_symmetry_cell_setting	triclinic
loop_
_symmetry_equiv_pos_as_xyz
  x,y,z
_cell_length_a	16.120484
_cell_length_b	12.759401
_cell_length_c	12.759393
_cell_angle_alpha	89.979062
_cell_angle_beta	92.864008
_cell_angle_gamma	92.926992
loop_
_atom_site_label
_atom_site_type_symbol
_atom_site_fract_x
_atom_site_fract_y
_atom_site_fract_z
Zn1	Zn	-0.331832	1.584985	-0.615183
Zn2	Zn	0.168168	2.084985	-0.115183
Zn3	Zn	-0.471268	1.575933	-0.448395
Zn4	Zn	0.028732	2.075933	0.051605
Zn5	Zn	-0.331877	1.409280	-0.439521
Zn6	Zn	0.168123	1.909280	0.060479
Zn7	Zn	-0.471209	1.400336	-0.624029
Zn8	Zn	0.028791	1.900336	-0.124029
O9	O	-0.401546	1.492634	-0.531782
O10	O	0.098454	1.992634	-0.031782
O11	O	-0.350334	1.730804	-0.593070
O12	O	0.149666	2.230804	-0.093070
O13	O	-0.452820	1.553781	-0.300200
O14	O	0.047180	2.053781	0.199800
O15	O	-0.215205	1.440119	-0.455406
O16	O	0.284795	1.940119	0.044594
O17	O	-0.452777	1.724154	-0.470532
O18	O	0.047223	2.224154	0.029468
O19	O	-0.215173	1.569208	-0.584465
O20	O	0.284827	2.069208	-0.084465
O21	O	-0.350410	1.431342	-0.293680
O22	O	0.149590	1.931342	0.206320
O23	O	-0.350354	1.261073	-0.463984
O24	O	0.149646	1.761073	0.036016
O25	O	-0.452678	1.424875	-0.769874
O26	O	0.047322	1.924875	-0.269874
O27	O	-0.452721	1.254502	-0.599541
O28	O	0.047279	1.754502	-0.099541
O29	O	-0.350278	1.560535	-0.763375
O30	O	0.149722	2.060535	-0.263375
O31	O	-0.587925	1.545108	-0.479110
O32	O	-0.087925	2.045108	0.020890
O33	O	-0.587883	1.416098	-0.608147
O34	O	-0.087883	1.916098	-0.108147
C35	C	-0.401536	1.219667	-0.531760
C36	C	0.098464	1.719667	-0.031760
C37	C	-0.401552	1.102889	-0.531777
C38	C	0.098448	1.602889	-0.031777
C39	C	-0.454936	1.044628	-0.602261
C40	C	0.045064	1.544628	-0.102261
C41	C	-0.454939	0.934904	-0.602282
C42	C	0.045061	1.434904	-0.102282
C43	C	-0.348172	0.941712	-0.461326
C44	C	0.151828	1.441712	0.038674
C45	C	-0.348166	1.051434	-0.461311
C46	C	0.151834	1.551434	0.038689
C47	C	-0.618154	1.478679	-0.545574
C48	C	-0.118154	1.978679	-0.045574
C49	C	-0.710820	1.472805	-0.551509
C50	C	-0.210820	1.972805	-0.051509
C51	C	-0.880481	1.462088	-0.562368
C52	C	-0.380481	1.962088	-0.062368
C53	C	-0.921772	1.523367	-0.501213
C54	C	-0.421772	2.023367	-0.001213
C55	C	-1.016177	1.517404	-0.507255
C56	C	-0.516177	2.017404	-0.007255
C57	C	-0.786067	1.468050	-0.556327
C58	C	-0.286067	1.968050	-0.056327
C59	C	-0.184093	1.506671	-0.517959
C60	C	0.315907	2.006671	-0.017959
C61	C	-0.091427	1.512653	-0.512068
C62	C	0.408573	2.012653	-0.012068
C63	C	-0.401557	1.766666	-0.531804
C64	C	0.098443	2.266666	-0.031804
C65	C	-0.401562	1.883442	-0.531814
C66	C	0.098438	2.383442	-0.031814
C67	C	-0.401466	1.492717	-0.805810
C68	C	0.098534	1.992717	-0.305810
C69	C	-0.401432	1.492753	-0.922585
C70	C	0.098568	1.992753	-0.422585
C71	C	-0.348104	1.563397	-0.974064
C72	C	0.151896	2.063397	-0.474064
C73	C	-0.348068	1.563417	-1.083786
C74	C	0.151932	2.063417	-0.583786
C75	C	-0.454696	1.422146	-1.090540
C76	C	0.045304	1.922146	-0.590540
C77	C	-0.454727	1.422122	-0.980820
C78	C	0.045273	1.922122	-0.480820
C79	C	-0.401566	1.492614	-0.258816
C80	C	0.098434	1.992614	0.241184
C81	C	-0.401365	1.492797	-0.142027
C82	C	0.098635	1.992797	0.357973
H83	H	-0.498408	0.887472	-0.659679
H84	H	0.001592	1.387472	-0.159679
H85	H	-0.916029	1.405150	-0.619256
H86	H	-0.416029	1.905150	-0.119256
N87	N	-0.512187	1.345971	-1.153338
N88	N	-0.012187	1.845971	-0.653338
H89	H	-0.499235	1.271739	-1.133403
H90	H	0.000765	1.771739	-0.633403
H91	H	-0.504059	1.356787	-1.230640
H92	H	-0.004059	1.856787	-0.730640
H93	H	-0.304706	1.620907	-0.926651
H94	H	0.195294	2.120907	-0.426651
N95	N	-0.512231	1.345903	-0.925286
N96	N	-0.012231	1.845903	-0.425286
H97	H	-0.545988	1.301162	-0.978825
H98	H	-0.045988	1.801162	-0.478825
H99	H	-0.550831	1.386150	-0.882210
H100	H	-0.050831	1.886150	-0.382210
N101	N	-0.290615	0.886212	-0.385300
N102	N	0.209385	1.386212	0.114700
H103	H	-0.298728	0.807862	-0.395993
H104	H	0.201272	1.307862	0.104007
H105	H	-0.303540	0.904538	-0.311069
H106	H	0.196460	1.404538	0.188931
H107	H	-0.304689	1.098873	-0.403914
H108	H	0.195311	1.598873	0.096086
H109	H	-0.886221	1.580308	-0.444319
H110	H	-0.386221	2.080308	0.055681
N111	N	-0.290541	1.639600	-1.139310
N112	N	0.209459	2.139600	-0.639310
H113	H	-0.256784	1.684334	-1.085766
H114	H	0.243216	2.184334	-0.585766
H115	H	-0.324459	1.686040	-1.187007
H116	H	0.175541	2.186040	-0.687007
H117	H	-0.498404	1.086519	-0.659642
H118	H	0.001596	1.586519	-0.159642
