data_functionalizedCrystal
_audit_creation_method	'MofGen! by Chris Wilmer'
_symmetry_space_group_name_H-M	'P1'
_symmetry_Int_Tables_number	1
_symmetry_cell_setting	triclinic
loop_
_symmetry_equiv_pos_as_xyz
  x,y,z
_cell_length_a	10.654554
_cell_length_b	23.532407
_cell_length_c	9.130313
_cell_angle_alpha	89.990293
_cell_angle_beta	89.999583
_cell_angle_gamma	83.667794
loop_
_atom_site_label
_atom_site_type_symbol
_atom_site_fract_x
_atom_site_fract_y
_atom_site_fract_z
O1	O	1.665296	0.079995	-0.121836
O2	O	1.299577	0.087613	-0.121841
O3	O	1.493465	0.000944	-0.121797
O4	O	1.471409	0.166664	-0.121880
O5	O	1.493462	0.000946	0.121802
O6	O	1.299575	0.087615	0.121758
O7	O	1.665294	0.079997	0.121763
Cu8	Cu	1.482434	0.083806	0.144003
Cu9	Cu	1.482437	0.083804	-0.144081
O10	O	1.471406	0.166666	0.121719
C11	C	1.252796	0.087054	-0.000041
C12	C	1.113406	0.085379	-0.000041
C13	C	0.932561	0.031200	-0.000026
C14	C	1.063532	0.032773	-0.000016
C15	C	1.032300	0.136414	-0.000060
C16	C	0.901331	0.134840	-0.000059
C17	C	0.882695	-0.021409	-0.000017
C18	C	0.963792	-0.072444	0.000005
C19	C	1.094763	-0.070871	0.000015
C20	C	1.144638	-0.018262	0.000003
C21	C	1.492902	-0.020274	0.000010
C22	C	1.491213	-0.083502	0.000032
C23	C	1.369510	-0.350464	-0.000061
C24	C	1.371079	-0.291053	-0.000050
O25	O	1.274534	-0.254939	-0.000097
N26	N	1.486345	-0.267675	-0.000031
C27	C	1.600050	-0.303711	-0.000039
O28	O	1.698237	-0.278371	-0.000024
C29	C	1.598480	-0.363120	-0.000061
C30	C	1.483207	-0.386495	-0.000064
C31	C	1.254246	-0.373839	-0.000066
C32	C	1.252678	-0.433245	-0.000075
C33	C	1.366374	-0.469277	-0.000078
C34	C	1.481639	-0.445901	-0.000073
C35	C	1.712184	-0.399155	-0.000080
C36	C	1.710604	-0.458568	-0.000102
C37	C	1.595330	-0.481942	-0.000106
C38	C	1.593767	-0.541339	-0.000085
N39	N	1.478500	-0.564717	-0.000103
C40	C	1.364804	-0.528686	-0.000100
C41	C	1.603339	-0.178947	0.000004
C42	C	1.604910	-0.119539	0.000036
C43	C	1.375938	-0.106885	0.000023
C44	C	1.374368	-0.166294	0.000001
C45	C	1.488073	-0.202325	-0.000014
C46	C	1.361520	-0.653444	-0.000117
C47	C	1.359962	-0.712856	-0.000119
C48	C	1.588933	-0.725505	-0.000114
C49	C	1.590491	-0.666098	-0.000103
C50	C	1.476775	-0.630068	-0.000110
O51	O	1.690261	-0.577489	-0.000044
O52	O	1.266633	-0.554034	-0.000134
C53	C	1.712075	0.080556	-0.000040
C54	C	1.851465	0.082231	-0.000050
C55	C	1.471969	0.187885	-0.000091
C56	C	1.473658	0.251113	-0.000123
N57	N	1.482441	0.083808	0.346626
N58	N	1.482440	0.083798	-0.346703
C59	C	1.568316	0.045444	0.423297
C60	C	1.568313	0.045438	0.576634
C61	C	1.396556	0.122163	0.576615
C62	C	1.396554	0.122167	0.423281
C63	C	1.654203	0.007086	0.346642
C64	C	1.740086	-0.031281	0.423313
C65	C	1.740083	-0.031287	0.576650
C66	C	1.654197	0.007072	0.653316
H67	H	1.160790	-0.112426	0.000047
H68	H	0.776053	-0.022696	-0.000029
O69	O	1.654193	0.006959	0.802268
C70	C	1.629317	-0.047204	0.853499
H71	H	1.655481	-0.080644	0.765142
H72	H	1.687705	-0.058620	0.956089
H73	H	1.524653	-0.046147	0.880692
O74	O	1.080955	0.187466	-0.000153
C75	C	1.213942	0.177912	-0.000117
H76	H	1.245246	0.133591	-0.046208
H77	H	1.253745	0.211602	-0.070865
H78	H	1.250371	0.180819	0.116745
H79	H	1.251286	-0.016985	0.000024
H80	H	1.326632	0.153394	0.639046
O81	O	1.716855	-0.096809	0.000312
C82	C	1.724609	-0.062823	0.126460
H83	H	1.659165	-0.077139	0.214637
H84	H	1.825881	-0.067755	0.168810
H85	H	1.695053	-0.016094	0.097942
H86	H	0.923174	-0.115277	0.000003
H87	H	1.695936	-0.208281	0.000001
O88	O	1.143875	-0.338785	0.000136
C89	C	1.137906	-0.304068	0.126332
H90	H	1.237538	-0.300659	0.168393
H91	H	1.090536	-0.259613	0.097979
H92	H	1.080820	-0.323859	0.214668
O93	O	1.823551	-0.068478	0.651292
C94	C	1.900650	-0.037653	0.739955
H95	H	1.850070	0.006696	0.762920
H96	H	1.920817	-0.061344	0.847783
H97	H	1.993404	-0.033387	0.680861
O98	O	0.822725	0.184464	-0.000157
C99	C	0.894819	0.231236	-0.000145
H100	H	0.992759	0.217168	-0.046254
H101	H	0.846053	0.267021	-0.070887
H102	H	0.903942	0.247338	0.116714
O103	O	1.824273	-0.376553	-0.000146
C104	C	1.924270	-0.421105	-0.000126
H105	H	1.889566	-0.461590	-0.046250
H106	H	2.004796	-0.408367	-0.070852
H107	H	1.959309	-0.429384	0.116737
O108	O	1.313265	0.159513	0.348856
C109	C	1.332940	0.215974	0.386327
H110	H	1.433468	0.216678	0.428483
H111	H	1.318139	0.244492	0.285474
H112	H	1.263125	0.232406	0.475320
H113	H	1.654216	0.007089	0.221787
O114	O	1.247868	-0.735467	-0.000193
C115	C	1.147858	-0.690921	-0.000157
H116	H	1.182547	-0.650424	-0.046266
H117	H	1.067336	-0.703651	-0.070888
H118	H	1.112820	-0.682666	0.116709
O119	O	1.251139	-0.618393	0.000079
C120	C	1.245171	-0.583672	0.126268
H121	H	1.344803	-0.580262	0.168328
H122	H	1.197802	-0.539217	0.097905
H123	H	1.188083	-0.603460	0.214608
H124	H	1.810005	-0.062515	0.360884
H125	H	1.280502	-0.185322	0.000004
H126	H	1.803198	-0.487902	-0.000123
H127	H	1.283361	-0.077537	0.000027
O128	O	1.140777	-0.456013	-0.000295
C129	C	1.133005	-0.489970	-0.126492
H130	H	1.232169	-0.504369	-0.168538
H131	H	1.083423	-0.529066	-0.098145
H132	H	1.077137	-0.463934	-0.214836
H133	H	1.684356	-0.647065	-0.000080
H134	H	1.681501	-0.754852	-0.000110
