data_functionalizedCrystal
_audit_creation_method	'MofGen! by Chris Wilmer'
_symmetry_space_group_name_H-M	'P1'
_symmetry_Int_Tables_number	1
_symmetry_cell_setting	triclinic
loop_
_symmetry_equiv_pos_as_xyz
  x,y,z
_cell_length_a	18.101398
_cell_length_b	18.101395
_cell_length_c	16.625539
_cell_angle_alpha	90.027648
_cell_angle_beta	90.015931
_cell_angle_gamma	90.029256
loop_
_atom_site_label
_atom_site_type_symbol
_atom_site_fract_x
_atom_site_fract_y
_atom_site_fract_z
Zn1	Zn	1.132133	-0.294865	0.455813
Zn2	Zn	1.632133	0.205135	0.955813
Zn3	Zn	1.132025	-0.418714	0.320982
Zn4	Zn	1.632025	0.081286	0.820982
Zn5	Zn	1.008288	-0.294887	0.321005
Zn6	Zn	1.508288	0.205113	0.821005
Zn7	Zn	1.008242	-0.418665	0.455783
Zn8	Zn	1.508242	0.081335	0.955783
O9	O	1.070172	-0.356783	0.388396
O10	O	1.570172	0.143217	0.888396
O11	O	1.235751	-0.311305	0.437931
O12	O	1.735751	0.188695	0.937931
O13	O	1.115585	-0.402318	0.208153
O14	O	1.615585	0.097682	0.708153
O15	O	1.024780	-0.191251	0.338910
O16	O	1.524780	0.308749	0.838910
O17	O	1.235672	-0.402296	0.338871
O18	O	1.735672	0.097704	0.838871
O19	O	1.115769	-0.191235	0.437953
O20	O	1.615769	0.308765	0.937953
O21	O	1.024676	-0.311342	0.208169
O22	O	1.524676	0.188658	0.708169
O23	O	0.904649	-0.311295	0.338880
O24	O	1.404649	0.188705	0.838880
O25	O	1.024702	-0.402213	0.568619
O26	O	1.524702	0.097787	1.068619
O27	O	0.904615	-0.402234	0.437901
O28	O	1.404615	0.097766	0.937901
O29	O	1.115724	-0.311258	0.568642
O30	O	1.615724	0.188742	1.068642
O31	O	1.115541	-0.522340	0.338841
O32	O	1.615541	-0.022340	0.838841
O33	O	1.024598	-0.522304	0.437879
O34	O	1.524598	-0.022304	0.937879
C35	C	0.877761	-0.356762	0.388390
C36	C	1.377761	0.143238	0.888390
C37	C	0.795447	-0.356771	0.388407
C38	C	1.295447	0.143229	0.888407
C39	C	0.644739	-0.356785	0.388406
C40	C	1.144739	0.143215	0.888406
C41	C	0.613389	-0.414090	0.450610
C42	C	1.113389	0.085910	0.950610
C43	C	0.527770	-0.414322	0.450426
C44	C	1.027770	0.085678	0.950426
C45	C	0.496356	-0.356799	0.388406
C46	C	0.996356	0.143201	0.888406
C47	C	0.527407	-0.377627	0.303328
C48	C	1.027407	0.122373	0.803328
C49	C	0.613052	-0.378035	0.303687
C50	C	1.113052	0.121965	0.803687
C51	C	0.613218	-0.278510	0.410536
C52	C	1.113218	0.221490	0.910536
C53	C	0.527568	-0.278939	0.412410
C54	C	1.027568	0.221061	0.912410
C55	C	0.412497	-0.356805	0.388400
C56	C	0.912497	0.143195	0.888400
C57	C	0.728598	-0.356781	0.388405
C58	C	1.228598	0.143219	0.888405
C59	C	1.070073	-0.549193	0.388372
C60	C	1.570073	-0.049193	0.888372
C61	C	1.070098	-0.631507	0.388389
C62	C	1.570098	-0.131507	0.888389
C63	C	1.070261	-0.930598	0.388432
C64	C	1.570261	-0.430598	0.888432
C65	C	1.013175	-0.899281	0.450899
C66	C	1.513175	-0.399281	0.950899
C67	C	1.012903	-0.813663	0.450703
C68	C	1.512903	-0.313663	0.950703
C69	C	1.070180	-0.782216	0.388411
C70	C	1.570180	-0.282216	0.888411
C71	C	1.049049	-0.813367	0.303435
C72	C	1.549049	-0.313367	0.803435
C73	C	1.048681	-0.899012	0.303809
C74	C	1.548681	-0.399012	0.803809
C75	C	1.148603	-0.898944	0.410194
C76	C	1.648603	-0.398944	0.910194
C77	C	1.148142	-0.813293	0.412058
C78	C	1.648142	-0.313293	0.912058
C79	C	1.070136	-0.698356	0.388394
C80	C	1.570136	-0.198356	0.888394
C81	C	1.070303	-1.014458	0.388444
C82	C	1.570303	-0.514458	0.888444
C83	C	1.263334	-0.356804	0.388402
C84	C	1.763334	0.143196	0.888402
C85	C	1.345648	-0.356813	0.388404
C86	C	1.845648	0.143187	0.888404
C87	C	1.070220	-0.356727	0.598705
C88	C	1.570220	0.143273	1.098705
C89	C	1.070241	-0.356704	0.688326
C90	C	1.570241	0.143296	1.188326
C91	C	1.070292	-0.163621	0.388437
C92	C	1.570292	0.336379	0.888437
C93	C	1.070343	-0.081307	0.388455
C94	C	1.570343	0.418693	0.888455
C95	C	1.070167	-0.356784	0.178905
C96	C	1.570167	0.143216	0.678905
C97	C	1.070290	-0.356599	0.089284
C98	C	1.570290	0.143401	0.589284
C99	C	1.070275	-0.356621	1.016502
C100	C	1.570275	0.143379	1.516502
C101	C	1.070263	-0.356646	0.925193
C102	C	1.570263	0.143354	1.425193
C103	C	1.070258	-0.356663	0.852417
C104	C	1.570258	0.143337	1.352417
C105	C	1.070246	-0.356687	0.761102
C106	C	1.570246	0.143313	1.261102
H107	H	0.634011	-0.401248	0.513880
H108	H	1.134011	0.098752	1.013880
H109	H	0.507277	-0.263227	0.475022
H110	H	1.007277	0.236773	0.975022
H111	H	0.506777	-0.401329	0.513500
H112	H	1.006777	0.098671	1.013500
O113	O	1.101366	-0.926470	0.240064
O114	O	1.601366	-0.426470	0.740064
H115	H	1.070643	-0.960501	0.195691
H116	H	1.570643	-0.460501	0.695691
O117	O	0.641836	-0.490489	0.431399
O118	O	1.141836	0.009511	0.931399
H119	H	0.678206	-0.487825	0.377738
H120	H	1.178206	0.012175	0.877738
H121	H	0.632994	-0.435242	0.284983
H122	H	1.132994	0.064758	0.784983
O123	O	0.499261	-0.219400	0.356806
O124	O	0.999261	0.280600	0.856806
H125	H	0.438044	-0.217462	0.359962
H126	H	0.938044	0.282538	0.859962
O127	O	0.972827	-0.925568	0.279387
O128	O	1.472827	-0.425568	0.779387
H129	H	0.948782	-0.959203	0.328673
H130	H	1.448782	-0.459203	0.828673
O131	O	0.640532	-0.325135	0.240172
O132	O	1.140532	0.174865	0.740172
H133	H	0.592647	-0.299379	0.209330
H134	H	1.092647	0.200621	0.709330
O135	O	0.500463	-0.324034	0.240245
O136	O	1.000463	0.175966	0.740245
H137	H	0.439195	-0.325398	0.237940
H138	H	0.939195	0.174602	0.737940
O139	O	0.500575	-0.491150	0.430960
O140	O	1.000575	0.008850	0.930960
H141	H	0.548597	-0.528282	0.421635
H142	H	1.048597	-0.028282	0.921635
H143	H	0.505927	-0.434211	0.284305
H144	H	1.005927	0.065789	0.784305
O145	O	0.641865	-0.253295	0.491325
O146	O	1.141865	0.246705	0.991325
H147	H	0.678892	-0.296279	0.516609
H148	H	1.178892	0.203721	1.016609
O149	O	0.640080	-0.221953	0.350540
O150	O	1.140080	0.278047	0.850540
H151	H	0.675707	-0.249411	0.305177
H152	H	1.175707	0.250589	0.805177
O153	O	1.030358	-0.785752	0.534177
O154	O	1.530358	-0.285752	1.034177
H155	H	1.039073	-0.833426	0.575048
H156	H	1.539073	-0.333426	1.075048
H157	H	1.026265	-0.919829	0.514112
H158	H	1.526265	-0.419829	1.014112
O159	O	1.169255	-0.786318	0.494894
O160	O	1.669255	-0.286318	0.994894
H161	H	1.224413	-0.808525	0.511163
H162	H	1.724413	-0.308525	1.011163
O163	O	0.973992	-0.785049	0.278571
O164	O	1.473992	-0.285049	0.778571
H165	H	0.951619	-0.748798	0.326593
H166	H	1.451619	-0.248798	0.826593
O167	O	0.936720	-0.927860	0.432040
O168	O	1.436720	-0.427860	0.932040
H169	H	0.936682	-0.989110	0.435149
H170	H	1.436682	-0.489110	0.935149
O171	O	1.207452	-0.784936	0.356168
O172	O	1.707452	-0.284936	0.856168
H173	H	1.249151	-0.753621	0.391340
H174	H	1.749151	-0.253621	0.891340
O175	O	1.204984	-0.925934	0.350065
O176	O	1.704984	-0.425934	0.850065
H177	H	1.177386	-0.961698	0.304881
H178	H	1.677386	-0.461698	0.804881
O179	O	0.935991	-0.786597	0.431589
O180	O	1.435991	-0.286597	0.931589
H181	H	0.898847	-0.834681	0.422443
H182	H	1.398847	-0.334681	0.922443
H183	H	1.089319	-0.792998	0.255624
H184	H	1.589319	-0.292998	0.755624
O185	O	1.174125	-0.927475	0.490878
O186	O	1.674125	-0.427475	0.990878
H187	H	1.131251	-0.964539	0.516370
H188	H	1.631251	-0.464539	1.016370
