data_functionalizedCrystal
_audit_creation_method	'MofGen! by Chris Wilmer'
_symmetry_space_group_name_H-M	'P1'
_symmetry_Int_Tables_number	1
_symmetry_cell_setting	triclinic
loop_
_symmetry_equiv_pos_as_xyz
  x,y,z
_cell_length_a	10.723024
_cell_length_b	9.616153
_cell_length_c	10.723023
_cell_angle_alpha	90.005515
_cell_angle_beta	84.467709
_cell_angle_gamma	90.001894
loop_
_atom_site_label
_atom_site_type_symbol
_atom_site_fract_x
_atom_site_fract_y
_atom_site_fract_z
O1	O	1.657183	0.115633	0.175031
O2	O	1.294031	0.115638	0.191784
O3	O	1.483984	0.115630	0.001831
O4	O	1.467230	0.115641	0.364984
O5	O	1.483977	-0.115662	0.001818
O6	O	1.294024	-0.115654	0.191771
O7	O	1.657176	-0.115658	0.175018
Zn8	Zn	1.475599	-0.152378	0.183392
Zn9	Zn	1.475608	0.152358	0.183410
O10	O	1.467223	-0.115650	0.364970
C11	C	1.247528	-0.000007	0.190558
C12	C	1.108973	-0.000006	0.186911
C13	C	1.033991	-0.000001	0.293198
C14	C	0.890787	0.000000	0.289431
N15	N	1.475601	-0.360353	0.183379
C16	C	1.577593	-0.580684	0.082118
C17	C	1.577318	-0.419516	0.081731
C18	C	1.345163	-0.418883	0.153826
C19	C	1.345770	-0.580101	0.153116
C20	C	1.502905	-0.580223	0.314550
C21	C	1.505849	-0.418995	0.313691
C22	C	1.703679	-0.000010	0.176243
C23	C	1.842234	-0.000002	0.179891
C24	C	1.482762	-0.000014	-0.044675
C25	C	1.479114	-0.000010	-0.183229
N26	N	1.475616	0.360333	0.183413
C27	C	1.477492	0.119808	-0.244988
C28	C	1.473723	0.119815	-0.388191
C29	C	1.468445	-0.000003	0.411477
C30	C	1.472093	0.000002	0.550031
H31	H	1.674242	-0.379942	0.099495
Cl32	Cl	1.479686	0.278184	-0.162953
Cl33	Cl	0.791314	0.000017	0.429921
Cl34	Cl	0.941699	0.000003	0.039396
H35	H	1.075812	-0.000006	0.386984
H36	H	1.067152	0.000027	0.093125
H37	H	1.674841	-0.619445	0.099614
H38	H	1.560292	-0.621217	-0.014624
Cl39	Cl	1.471579	0.278200	-0.470185
H40	H	1.559765	-0.380966	-0.015567
H41	H	1.473494	-0.102584	-0.396867
Cl42	Cl	1.388114	-0.639123	0.430953
Cl43	Cl	1.225001	-0.640351	0.262594
Cl44	Cl	1.646721	-0.642963	0.357976
Cl45	Cl	1.308901	-0.638190	0.005407
H46	H	1.601809	-0.380741	0.336091
H47	H	1.267402	-0.380562	0.225589
Cl48	Cl	1.307424	-0.356578	0.007780
H49	H	1.436470	-0.378718	0.392682
H50	H	1.477704	-0.102585	-0.236372
