data_functionalizedCrystal
_audit_creation_method	'MofGen! by Chris Wilmer'
_symmetry_space_group_name_H-M	'P1'
_symmetry_Int_Tables_number	1
_symmetry_cell_setting	triclinic
loop_
_symmetry_equiv_pos_as_xyz
  x,y,z
_cell_length_a	14.519709
_cell_length_b	16.109301
_cell_length_c	14.586319
_cell_angle_alpha	89.998390
_cell_angle_beta	89.999755
_cell_angle_gamma	83.570813
loop_
_atom_site_label
_atom_site_type_symbol
_atom_site_fract_x
_atom_site_fract_y
_atom_site_fract_z
O1	O	-1.223638	-0.108980	0.076124
O2	O	-0.955134	-0.121814	0.076152
O3	O	-1.096762	0.005621	0.076128
O4	O	-1.082010	-0.236415	0.076148
O5	O	-1.096745	0.005614	-0.076353
O6	O	-0.955116	-0.121822	-0.076328
O7	O	-1.223621	-0.108987	-0.076357
Cu8	Cu	-1.089367	-0.115405	-0.090265
Cu9	Cu	-1.089387	-0.115396	0.090061
O10	O	-1.081992	-0.236423	-0.076333
C11	C	-0.920766	-0.121220	-0.000085
C12	C	-0.818389	-0.119427	-0.000074
C13	C	-1.096156	0.036593	-0.000113
C14	C	-1.094364	0.128892	-0.000114
C15	C	-1.257988	-0.109582	-0.000118
C16	C	-1.360365	-0.111374	-0.000122
C17	C	-0.443507	-0.112829	-0.000116
C18	C	-0.547811	-0.114661	-0.000104
C19	C	-0.630945	-0.116128	-0.000094
C20	C	-0.735256	-0.117961	-0.000084
C21	C	-1.082599	-0.267395	-0.000090
C22	C	-1.084390	-0.359693	-0.000083
N23	N	-1.089359	-0.115411	-0.217097
C24	C	-1.174238	0.351026	-0.000108
C25	C	-1.172547	0.437749	-0.000100
C26	C	-1.004510	0.418166	-0.000086
C27	C	-1.006202	0.331444	-0.000087
C28	C	-1.091068	0.297877	-0.000103
C29	C	-1.087686	0.471322	-0.000094
C30	C	-1.085852	0.565351	-0.000085
C31	C	-1.092902	0.203842	-0.000109
C32	C	-1.145290	-0.165936	-0.452105
C33	C	-1.145300	-0.165931	-0.548087
C34	C	-1.033469	-0.064853	-0.548093
C35	C	-1.033465	-0.064855	-0.452113
C36	C	-1.089374	-0.115401	-0.404122
C37	C	-1.089388	-0.115394	-0.596083
C38	C	-1.089398	-0.115387	-0.700150
C39	C	-1.089365	-0.115407	-0.300048
N40	N	-1.089402	-0.115384	0.216893
H41	H	-1.240272	0.481020	-0.000102
H42	H	-0.938471	0.288168	-0.000080
O43	O	-1.205595	-0.220445	-0.400339
H44	H	-1.244485	-0.255578	-0.449834
H45	H	-1.190833	-0.207080	-0.587150
O46	O	-0.973158	-0.010345	-0.599853
H47	H	-0.982545	-0.018840	-0.674655
H48	H	-0.987931	-0.023699	-0.413044
O49	O	-0.912977	0.454369	-0.000089
H50	H	-0.925772	0.523602	-0.000102
H51	H	-1.243341	0.323699	-0.000119
