data_functionalizedCrystal
_audit_creation_method	'MofGen! by Chris Wilmer'
_symmetry_space_group_name_H-M	'P1'
_symmetry_Int_Tables_number	1
_symmetry_cell_setting	triclinic
loop_
_symmetry_equiv_pos_as_xyz
  x,y,z
_cell_length_a	15.944551
_cell_length_b	14.519709
_cell_length_c	12.996460
_cell_angle_alpha	90.007090
_cell_angle_beta	90.001093
_cell_angle_gamma	83.589442
loop_
_atom_site_label
_atom_site_type_symbol
_atom_site_fract_x
_atom_site_fract_y
_atom_site_fract_z
O1	O	-1.114698	-0.118943	-0.085462
O2	O	-0.614698	0.381057	0.414538
O3	O	-0.870170	-0.133608	-0.085488
O4	O	-0.370170	0.366392	0.414512
O5	O	-0.998917	0.007974	-0.085465
O6	O	-0.498917	0.507974	0.414535
O7	O	-0.985950	-0.260525	-0.085485
O8	O	-0.485950	0.239475	0.414515
O9	O	-0.998904	0.007982	0.085669
O10	O	-0.498904	0.507982	0.585669
O11	O	-0.870156	-0.133600	0.085646
O12	O	-0.370156	0.366400	0.585646
O13	O	-1.114684	-0.118935	0.085672
O14	O	-0.614684	0.381065	0.585672
Cu15	Cu	-0.992419	-0.126267	0.101285
Cu16	Cu	-0.492419	0.373733	0.601285
Cu17	Cu	-0.992435	-0.126276	-0.101101
Cu18	Cu	-0.492435	0.373724	0.398899
O19	O	-0.985937	-0.260517	0.085649
O20	O	-0.485937	0.239483	0.585649
C21	C	-0.998306	0.042337	0.000102
C22	C	-0.498306	0.542337	0.500102
C23	C	-0.996495	0.144715	0.000103
C24	C	-0.496495	0.644715	0.500103
C25	C	-0.838868	-0.132995	0.000076
C26	C	-0.338868	0.367005	0.500076
C27	C	-0.745619	-0.131170	0.000066
C28	C	-0.245619	0.368830	0.500066
C29	C	-1.145986	-0.119548	0.000106
C30	C	-0.645986	0.380452	0.500106
C31	C	-1.239235	-0.121373	0.000109
C32	C	-0.739235	0.378627	0.500109
C33	C	-0.530629	-0.039048	0.000093
C34	C	-0.030629	0.460952	0.500093
C35	C	-0.469678	-0.081830	-0.084288
C36	C	0.030322	0.418170	0.415712
C37	C	-0.574889	-0.127868	0.000079
C38	C	-0.074889	0.372132	0.500079
C39	C	-0.469687	-0.081844	0.084437
C40	C	0.030313	0.418156	0.584437
C41	C	-0.409971	-0.124672	0.000095
C42	C	0.090029	0.375328	0.500095
C43	C	-0.515165	-0.170674	-0.084372
C44	C	-0.015165	0.329326	0.415628
C45	C	-0.515181	-0.170675	0.084428
C46	C	-0.015181	0.329325	0.584428
C47	C	-0.454247	-0.213522	0.000027
C48	C	0.045753	0.286478	0.500027
C49	C	-0.669894	-0.129706	0.000069
C50	C	-0.169894	0.370294	0.500069
C51	C	-0.314967	-0.122840	0.000098
C52	C	0.185033	0.377160	0.500098
C53	C	-0.986548	-0.294880	0.000080
C54	C	-0.486548	0.205120	0.500080
C55	C	-0.988359	-0.397258	0.000073
C56	C	-0.488359	0.102742	0.500073
N57	N	-0.992414	-0.126260	0.243632
N58	N	-0.492414	0.373740	0.743632
C59	C	-0.989829	0.519599	0.000075
C60	C	-0.489829	1.019599	0.500075
C61	C	-0.991680	0.415295	0.000083
C62	C	-0.491680	0.915295	0.500083
C63	C	-0.993162	0.332161	0.000090
C64	C	-0.493162	0.832161	0.500090
C65	C	-0.995013	0.227849	0.000096
C66	C	-0.495013	0.727849	0.500096
N67	N	-0.992447	-0.126276	-0.243448
N68	N	-0.492447	0.373724	0.256552
C69	C	-0.992434	-0.126277	0.663446
C70	C	-0.492434	0.373723	1.163446
C71	C	-0.992426	-0.126275	0.546641
C72	C	-0.492426	0.373725	1.046641
C73	C	-0.992424	-0.126269	0.453543
C74	C	-0.492424	0.373731	0.953543
C75	C	-0.992415	-0.126266	0.336730
C76	C	-0.492415	0.373734	0.836730
H77	H	-0.449518	-0.044266	-0.155621
H78	H	0.050482	0.455734	0.344379
H79	H	-0.535213	-0.208217	-0.155788
H80	H	-0.035213	0.291783	0.344212
H81	H	-0.421196	-0.287311	-0.000026
H82	H	0.078804	0.212689	0.499974
H83	H	-0.535361	-0.208208	0.155765
H84	H	-0.035361	0.291792	0.655765
H85	H	-0.563855	0.034665	-0.000006
H86	H	-0.063855	0.534665	0.499994
H87	H	-0.449540	-0.044257	0.155772
H88	H	0.050460	0.455743	0.655772
