data_functionalizedCrystal
_audit_creation_method	'MofGen! by Chris Wilmer'
_symmetry_space_group_name_H-M	'P1'
_symmetry_Int_Tables_number	1
_symmetry_cell_setting	triclinic
loop_
_symmetry_equiv_pos_as_xyz
  x,y,z
_cell_length_a	6.817900
_cell_length_b	7.076028
_cell_length_c	14.858565
_cell_angle_alpha	90.595128
_cell_angle_beta	104.523916
_cell_angle_gamma	117.700652
loop_
_atom_site_label
_atom_site_type_symbol
_atom_site_fract_x
_atom_site_fract_y
_atom_site_fract_z
V1	V	-4.204926	-0.665590	-0.127187
V2	V	-3.871593	-0.332257	0.206146
V3	V	-3.538260	0.001076	0.539479
O4	O	-4.183530	-0.652308	0.007636
O5	O	-3.850196	-0.318975	0.340970
O6	O	-3.516863	0.014358	0.674303
O7	O	-4.160532	-0.661627	-0.253657
O8	O	-3.827199	-0.328293	0.079676
O9	O	-3.493866	0.005040	0.413010
O10	O	-4.231808	-0.955609	-0.124562
O11	O	-3.898475	-0.622275	0.208771
O12	O	-3.565141	-0.288942	0.542105
O13	O	-4.111760	-0.356291	-0.122352
O14	O	-3.778427	-0.022958	0.210981
O15	O	-3.445094	0.310376	0.544314
V16	V	-4.678280	-0.628524	-0.111140
V17	V	-4.344947	-0.295191	0.222194
V18	V	-4.011614	0.038143	0.555527
O19	O	-4.488491	-0.746898	-0.162388
O20	O	-4.155158	-0.413565	0.170945
O21	O	-3.821824	-0.080231	0.504278
O22	O	-4.844913	-0.547216	-0.075938
O23	O	-4.511580	-0.213883	0.257395
O24	O	-4.178246	0.119450	0.590728
O25	O	-4.499468	-0.632488	0.015330
O26	O	-4.166135	-0.299154	0.348663
O27	O	-3.832801	0.034179	0.681997
O28	O	-4.817074	-0.641806	-0.245963
O29	O	-4.483741	-0.308473	0.087370
O30	O	-4.150407	0.024860	0.420703
O31	O	-4.888843	-0.937823	-0.115974
O32	O	-4.555510	-0.604490	0.217359
O33	O	-4.222176	-0.271157	0.550692
O34	O	-4.428192	-0.338506	-0.113765
O35	O	-4.094859	-0.005172	0.219568
O36	O	-3.761525	0.328161	0.552902
C37	C	-4.004072	-0.651279	-0.284508
C38	C	-3.670738	-0.317945	0.048825
C39	C	-3.337405	0.015388	0.382158
C40	C	-4.049563	-0.649971	-0.387895
C41	C	-3.716230	-0.316638	-0.054562
C42	C	-3.382896	0.016696	0.278772
C43	C	-4.216074	-0.645213	-0.766476
C44	C	-3.882740	-0.311880	-0.433143
C45	C	-3.549407	0.021454	-0.099810
C46	C	-4.169736	-0.646536	-0.661143
C47	C	-3.836403	-0.313202	-0.327810
C48	C	-3.503070	0.020131	0.005523
C49	C	-4.132818	-0.647590	-0.577189
C50	C	-3.799485	-0.314257	-0.243856
C51	C	-3.466152	0.019077	0.089478
C52	C	-4.086481	-0.648917	-0.471849
C53	C	-3.753148	-0.315583	-0.138516
C54	C	-3.419814	0.017750	0.194817
C55	C	-4.228335	-0.267824	-0.118495
C56	C	-3.895002	0.065509	0.214839
C57	C	-3.561668	0.398843	0.548172
C58	C	-4.101956	-0.026271	-0.119828
C59	C	-3.768623	0.307062	0.213506
C60	C	-3.435289	0.640395	0.546839
C61	C	-4.319269	-0.642830	0.046177
C62	C	-3.985936	-0.309497	0.379510
C63	C	-3.652602	0.023837	0.712843
C64	C	-4.253020	-0.644151	0.149562
C65	C	-3.919686	-0.310818	0.482895
C66	C	-3.586353	0.022515	0.816229
