data_functionalizedCrystal
_audit_creation_method	'MofGen! by Chris Wilmer'
_symmetry_space_group_name_H-M	'P1'
_symmetry_Int_Tables_number	1
_symmetry_cell_setting	triclinic
loop_
_symmetry_equiv_pos_as_xyz
  x,y,z
_cell_length_a	17.052832
_cell_length_b	23.196402
_cell_length_c	23.196401
_cell_angle_alpha	59.997774
_cell_angle_beta	102.320997
_cell_angle_gamma	67.555531
loop_
_atom_site_label
_atom_site_type_symbol
_atom_site_fract_x
_atom_site_fract_y
_atom_site_fract_z
Zr1	Zr	0.773343	0.630964	0.045637
O2	O	0.645167	0.751245	-0.066518
O3	O	0.812624	0.510697	0.080013
O4	O	0.812610	0.630979	-0.040264
O5	O	0.645206	0.630947	0.148643
O6	O	0.944704	0.630975	-0.019549
O7	O	0.645181	0.630964	0.053760
O8	O	0.944730	0.415812	0.195605
O9	O	0.645181	0.846110	-0.066512
O10	O	0.927972	0.560156	0.110140
O11	O	0.829409	0.560147	0.165490
O12	O	0.829392	0.701764	0.023879
O13	O	0.730830	0.701755	0.079230
Zr14	Zr	0.984058	0.630932	0.230001
Zr15	Zr	0.984019	0.630958	0.078675
Zr16	Zr	0.773382	0.630938	0.196964
Zr17	Zr	0.773364	0.782262	0.045646
Zr18	Zr	0.984036	0.479634	0.229992
O19	O	0.944777	0.751199	0.195625
O20	O	0.944721	0.751236	-0.019542
O21	O	0.645223	0.751208	0.148650
O22	O	1.112233	0.510650	0.342156
O23	O	1.112178	0.510687	0.126989
O24	O	0.812679	0.510660	0.295181
O25	O	1.112195	0.630949	0.126996
O26	O	0.944791	0.630917	0.315903
O27	O	0.812696	0.630921	0.295188
O28	O	1.112219	0.630932	0.221878
O29	O	0.812640	0.846104	-0.040251
O30	O	0.944761	0.415792	0.315890
O31	O	1.112220	0.415786	0.342150
O32	O	1.112189	0.415807	0.221866
O33	O	0.645212	0.846089	0.053773
O34	O	0.812671	0.846083	0.080033
O35	O	0.928008	0.560132	0.251759
O36	O	1.026571	0.560141	0.196409
O37	O	0.927992	0.701748	0.110148
O38	O	0.829429	0.701739	0.165499
C39	C	0.878674	0.441698	0.137808
C40	C	0.878665	0.377468	0.137804
C41	C	0.615177	0.630956	0.096494
C42	C	0.525739	0.630959	0.082469
C43	C	0.951451	0.295029	0.201483
C44	C	0.951458	0.234668	0.201491
C45	C	0.878685	0.256753	0.137809
C46	C	0.805886	0.339207	0.074124
C47	C	0.805876	0.399565	0.074121
C48	C	0.856010	0.201177	0.070457
C49	C	0.856027	0.140818	0.070460
C50	C	0.878712	0.070591	0.137817
C51	C	0.901400	0.060720	0.205177
C52	C	0.901390	0.121078	0.205175
C53	C	0.878688	0.191310	0.137806
C54	C	0.951510	-0.077302	0.201509
C55	C	0.951510	-0.137662	0.201516
C56	C	0.805942	-0.033121	0.074144
C57	C	0.805938	0.027236	0.074142
C58	C	0.878727	0.005140	0.137825
C59	C	0.273692	0.630924	0.252035
C60	C	0.357727	0.630916	0.265217
C61	C	0.399734	0.630927	0.219531
C62	C	0.357699	0.630946	0.160661
C63	C	0.273660	0.630947	0.147482
C64	C	0.399702	0.630950	0.114978
C65	C	0.357667	0.630969	0.056108
C66	C	0.273636	0.630971	0.042931
C67	C	0.231629	0.630960	0.088617
C68	C	0.483740	0.630949	0.128157
C69	C	0.483708	0.630972	0.023604
C70	C	0.399674	0.630980	0.010422
C71	C	1.142224	0.630939	0.179144
C72	C	1.231661	0.630937	0.193170
C73	C	0.878652	0.630980	-0.051468
C74	C	0.878635	0.630992	-0.115710
C75	C	0.878727	0.820198	0.137830
C76	C	0.878736	0.884427	0.137834
C77	C	0.951409	0.630991	-0.134461
C78	C	0.951431	0.630974	-0.194804
C79	C	0.878663	0.630975	-0.236404
C80	C	0.805883	0.630971	-0.217645
C81	C	0.805868	0.630980	-0.157298
C82	C	0.789861	0.678471	-0.369710
C83	C	0.789875	0.678468	-0.430059
C84	C	0.878707	0.630946	-0.422534
C85	C	0.967531	0.583438	-0.354657
C86	C	0.967517	0.583446	-0.294310
C87	C	0.878671	0.630966	-0.301842
C88	C	0.951511	0.630926	-0.506714
C89	C	0.951533	0.630905	-0.567056
C90	C	0.805977	0.630910	-0.589901
C91	C	0.805962	0.630923	-0.529555
C92	C	0.878729	0.630935	-0.487968
C93	C	0.878749	0.630915	0.327106
C94	C	0.878766	0.630904	0.391348
C95	C	1.142197	0.441690	0.179133
C96	C	1.231626	0.377457	0.193155
C97	C	0.878722	0.441666	0.327095
C98	C	0.878730	0.377425	0.391333
C99	C	1.142246	0.441657	0.368420
C100	C	1.231691	0.377413	0.446684
C101	C	0.615155	0.820239	-0.092781
C102	C	0.525710	0.884482	-0.171045
C103	C	0.615203	0.820206	0.096505
C104	C	0.525775	0.884439	0.082484
C105	C	0.878678	0.820230	-0.051456
C106	C	0.878671	0.884471	-0.115695
C107	C	1.222154	0.347301	0.154701
C108	C	1.306174	0.286956	0.167861
C109	C	1.399663	0.256764	0.219478
C110	C	1.409133	0.286926	0.257932
C111	C	1.325114	0.347274	0.244768
C112	C	0.930201	0.347249	0.466538
C113	C	0.930204	0.286896	0.526902
C114	C	0.878742	0.256717	0.512060
C115	C	0.827264	0.286899	0.436847
C116	C	0.827256	0.347254	0.376484
C117	C	1.325153	0.347249	0.454546
C118	C	1.409204	0.286893	0.528079
C119	C	1.399791	0.256700	0.593748
C120	C	1.306319	0.286871	0.585883
C121	C	1.222270	0.347229	0.512351
C122	C	0.432248	0.914655	-0.178908
C123	C	0.348197	0.975029	-0.252440
C124	C	0.357610	1.005225	-0.318109
C125	C	0.451081	0.975051	-0.310244
C126	C	0.535130	0.914682	-0.236712
C127	C	0.535246	0.914601	0.120931
C128	C	0.451227	0.974963	0.107755
C129	C	0.357737	1.005157	0.056136
C130	C	0.348268	0.974992	0.017684
C131	C	0.432286	0.914635	0.030857
C132	C	0.930143	0.914631	-0.100829
C133	C	0.930156	0.974984	-0.161179
C134	C	0.878689	1.005180	-0.236395
C135	C	0.827214	0.975014	-0.251260
C136	C	0.827208	0.914658	-0.190910
H137	H	1.010720	0.277030	0.253339
H138	H	0.517911	0.630979	-0.013596
H139	H	0.272096	0.999586	-0.258830
H140	H	0.239417	0.630976	-0.004999
N141	N	1.029965	0.145737	0.270170
H142	H	1.026806	0.133373	0.317666
H143	H	1.096728	0.133459	0.278288
N144	N	0.771749	0.379817	0.295361
H145	H	0.719974	0.440404	0.260558
H146	H	0.739201	0.351496	0.295167
H147	H	0.837528	0.258362	0.015601
H148	H	0.611229	0.890116	-0.230319
N149	N	1.030021	0.630907	-0.461846
H150	H	1.068248	0.580638	-0.405672
H151	H	0.998222	0.681208	-0.466979
N152	N	1.510015	0.254348	0.536560
H153	H	1.517882	0.300398	0.511121
H154	H	1.517806	0.229298	0.511142
H155	H	0.611363	0.890022	0.162968
N156	N	0.878757	0.191618	0.577171
H157	H	0.919179	0.177083	0.627064
H158	H	0.908017	0.141578	0.581727
N159	N	0.727399	0.630973	-0.262514
H160	H	0.660585	0.681241	-0.287633
H161	H	0.730666	0.580671	-0.226334
H162	H	1.039867	0.544741	-0.348525
H163	H	0.272137	0.999585	-0.024345
N164	N	1.490448	0.191599	0.673055
H165	H	1.551081	0.177074	0.668064
H166	H	1.490408	0.141555	0.702073
N167	N	1.335319	0.379800	0.383724
H168	H	1.407287	0.351526	0.399875
H169	H	1.302692	0.440389	0.351952
H170	H	0.424561	0.890079	-0.000452
H171	H	1.298670	0.262278	0.639361
H172	H	1.146173	0.371781	0.505959
H173	H	0.878701	1.054326	-0.285529
H174	H	0.517958	0.630934	0.176089
N175	N	0.771767	0.254340	0.420846
H176	H	0.779595	0.211523	0.470504
H177	H	0.798786	0.229341	0.398400
N178	N	1.490282	0.191667	0.233681
H179	H	1.530731	0.212668	0.218988
H180	H	1.470010	0.177170	0.201487
H181	H	0.785289	0.890108	-0.203025
N182	N	0.354323	0.631013	-0.053080
H183	H	0.294712	0.631018	-0.054496
H184	H	0.403989	0.580753	-0.042995
N185	N	0.461452	1.007489	0.149232
H186	H	0.533428	0.979193	0.183935
H187	H	0.428833	0.996987	0.181273
H188	H	1.332840	0.371820	0.276087
H189	H	0.972070	0.999539	-0.149061
N190	N	1.509970	0.254360	0.313602
H191	H	1.561751	0.211552	0.316103
H192	H	1.517773	0.229347	0.366515
H193	H	0.289163	1.054381	-0.377979
N194	N	0.422081	0.882090	-0.108086
H195	H	0.350114	0.910374	-0.124236
H196	H	0.454720	0.892581	-0.076311
N197	N	0.461226	1.007623	-0.381076
H198	H	0.393794	1.050441	-0.428846
H199	H	0.498367	0.961536	-0.380851
H200	H	1.010662	0.630997	-0.100599
N201	N	0.403070	0.630902	0.328700
H202	H	0.472930	0.580630	0.367114
H203	H	0.363646	0.630928	0.355588
H204	H	0.972108	0.371814	0.478637
H205	H	1.010800	0.630899	-0.582319
H206	H	0.972054	0.890055	-0.039589
N207	N	0.771702	1.007587	-0.332387
H208	H	0.818893	0.997089	-0.351676
H209	H	0.719931	1.068165	-0.367129
N210	N	0.925858	0.110438	0.277821
H211	H	0.940233	0.056793	0.320495
H212	H	0.868223	0.156580	0.267966
N213	N	0.694075	0.729703	-0.503262
H214	H	0.685131	0.693303	-0.511505
H215	H	0.695177	0.770325	-0.548408
N216	N	0.228400	0.630894	0.301316
H217	H	0.168791	0.630892	0.284036
H218	H	0.208093	0.681155	0.295834
N219	N	0.490430	0.630833	0.233797
H220	H	0.510705	0.630793	0.278039
H221	H	0.475693	0.681081	0.185818
N222	N	0.925874	-0.015020	0.277834
H223	H	0.922434	-0.051759	0.267617
H224	H	0.877161	0.000886	0.294463
H225	H	0.289332	1.054303	0.045417
H226	H	1.010774	-0.095295	0.253365
N227	N	0.140992	0.630963	0.074399
H228	H	0.085762	0.681229	0.061128
H229	H	0.155839	0.580658	0.122390
N230	N	0.985732	0.254348	0.608019
H231	H	1.018339	0.282621	0.608257
H232	H	1.037462	0.193759	0.642786
H233	H	1.010780	-0.204791	0.253375
N234	N	0.727495	0.630902	-0.634756
H235	H	0.738548	0.630894	-0.675831
H236	H	0.660716	0.681174	-0.659828
H237	H	0.746688	-0.015138	0.022294
H238	H	0.746672	0.094365	0.022285
N239	N	0.831567	0.151460	-0.002187
H240	H	0.817183	0.205110	-0.044860
H241	H	0.771968	0.150998	-0.017900
H242	H	0.746634	0.357184	0.022275
H243	H	0.746600	0.466694	0.022266
H244	H	1.010695	0.630973	-0.210074
N245	N	1.063311	0.532209	-0.221102
H246	H	1.119592	0.502101	-0.225485
H247	H	1.062165	0.491636	-0.175952
H248	H	0.746699	0.630929	-0.514291
H249	H	0.717517	0.717161	-0.375844
H250	H	0.746606	0.630980	-0.142032
H251	H	1.146038	0.371882	0.112662
N252	N	1.295948	0.254432	0.126381
H253	H	1.223972	0.282714	0.091692
H254	H	1.328575	0.193843	0.165427
