data_functionalizedCrystal
_audit_creation_method	'MofGen! by Chris Wilmer'
_symmetry_space_group_name_H-M	'P1'
_symmetry_Int_Tables_number	1
_symmetry_cell_setting	triclinic
loop_
_symmetry_equiv_pos_as_xyz
  x,y,z
_cell_length_a	15.995343
_cell_length_b	15.995350
_cell_length_c	14.185569
_cell_angle_alpha	76.847063
_cell_angle_beta	103.158392
_cell_angle_gamma	83.490779
loop_
_atom_site_label
_atom_site_type_symbol
_atom_site_fract_x
_atom_site_fract_y
_atom_site_fract_z
O1	O	1.092020	0.126856	-0.083313
O2	O	1.592020	0.626856	0.416687
O3	O	0.848239	0.140196	-0.083337
O4	O	1.348239	0.640196	0.416663
O5	O	0.976793	0.011638	-0.083324
O6	O	1.476793	0.511638	0.416676
O7	O	0.963465	0.255414	-0.083327
O8	O	1.463465	0.755414	0.416673
O9	O	1.014770	-0.026335	0.083515
O10	O	1.514770	0.473665	0.583515
O11	O	0.886215	0.102223	0.083502
O12	O	1.386215	0.602223	0.583502
O13	O	1.129996	0.088883	0.083525
O14	O	1.629996	0.588883	0.583525
Cu15	Cu	1.011573	0.092085	0.098747
Cu16	Cu	1.511573	0.592085	0.598747
Cu17	Cu	0.966662	0.136993	-0.098559
Cu18	Cu	1.466662	0.636993	0.401441
O19	O	1.001441	0.217441	0.083512
O20	O	1.501441	0.717441	0.583512
C21	C	0.836031	0.120660	0.000079
C22	C	1.336031	0.620660	0.500079
C23	C	0.743078	0.119013	0.000070
C24	C	1.243078	0.619013	0.500070
C25	C	0.572895	0.116016	0.000084
C26	C	1.072895	0.616016	0.500084
C27	C	0.549550	0.023219	0.000084
C28	C	1.049550	0.523219	0.500084
C29	C	0.452959	0.021385	0.000469
C30	C	0.952959	0.521385	0.500469
C31	C	0.405338	0.113065	0.000096
C32	C	0.905338	0.613065	0.500096
C33	C	0.456072	0.138083	0.095179
C34	C	0.956072	0.638083	0.595179
C35	C	0.552882	0.139167	0.095252
C36	C	1.052882	0.639167	0.595252
C37	C	0.509605	0.183710	-0.094481
C38	C	1.009605	0.683710	0.405519
C39	C	0.412827	0.180567	-0.095725
C40	C	0.912827	0.680567	0.404275
C41	C	0.310642	0.111401	0.000106
C42	C	0.810642	0.611401	0.500106
C43	C	0.667592	0.117681	0.000080
C44	C	1.167592	0.617681	0.500080
C45	C	0.995230	-0.038543	0.000094
C46	C	1.495230	0.461457	0.500094
C47	C	0.993577	-0.131492	0.000088
C48	C	1.493577	0.368508	0.500088
C49	C	0.987645	-0.469240	0.000091
C50	C	1.487645	0.030760	0.500091
C51	C	0.896006	-0.421716	-0.000292
C52	C	1.396006	0.078284	0.499708
C53	C	0.897744	-0.325112	0.000084
C54	C	1.397744	0.174888	0.500084
C55	C	0.990587	-0.301679	0.000089
C56	C	1.490587	0.198321	0.500089
C57	C	1.057431	-0.364443	0.095364
C58	C	1.557431	0.135557	0.595364
C59	C	1.055149	-0.461097	0.095444
C60	C	1.555149	0.038903	0.595444
C61	C	1.013855	-0.418273	-0.094283
C62	C	1.513855	0.081727	0.405717
C63	C	1.013546	-0.321041	-0.095542
C64	C	1.513546	0.178959	0.404458
C65	C	0.992256	-0.206982	0.000091
C66	C	1.492256	0.293018	0.500091
C67	C	0.985981	-0.563939	0.000095
C68	C	1.485981	-0.063939	0.500095
C69	C	1.142203	0.108419	0.000107
C70	C	1.642203	0.608419	0.500107
C71	C	1.235155	0.110068	0.000109
C72	C	1.735155	0.610068	0.500109
C73	C	0.983004	0.267622	0.000092
C74	C	1.483004	0.767622	0.500092
C75	C	0.984656	0.360573	0.000091
C76	C	1.484656	0.860573	0.500091
N77	N	1.043167	0.060499	0.237521
N78	N	1.543167	0.560499	0.737521
N79	N	0.935074	0.168572	-0.237333
N80	N	1.435074	0.668572	0.262667
C81	C	0.842250	0.261336	0.605150
C82	C	1.342250	0.761336	1.105150
C83	C	0.866188	0.237416	0.710174
C84	C	1.366188	0.737416	1.210174
C85	C	0.980046	0.123620	0.710147
C86	C	1.480046	0.623620	1.210147
C87	C	0.956115	0.147528	0.605121
C88	C	1.456115	0.647528	1.105121
C89	C	0.887217	0.216387	0.552631
C90	C	1.387217	0.716387	1.052631
C91	C	1.001082	0.102579	0.552602
C92	C	1.501082	0.602579	1.052602
C93	C	0.977155	0.126489	0.447585
C94	C	1.477155	0.626489	0.947585
C95	C	0.908262	0.195347	0.395087
C96	C	1.408262	0.695347	0.895087
C97	C	0.863290	0.240297	0.447614
C98	C	1.363290	0.740297	0.947614
C99	C	1.069984	0.033724	0.605094
C100	C	1.569984	0.533724	1.105094
C101	C	1.114951	-0.011225	0.552574
C102	C	1.614951	0.488775	1.052574
C103	C	1.091021	0.012680	0.447555
C104	C	1.591021	0.512680	0.947555
C105	C	1.022127	0.081539	0.395058
C106	C	1.522127	0.581539	0.895058
C107	C	1.135992	-0.032269	0.395028
C108	C	1.635992	0.467731	0.895028
C109	C	1.112065	-0.008360	0.290011
C110	C	1.612065	0.491640	0.790011
C111	C	0.998200	0.105448	0.290041
C112	C	1.498200	0.605448	0.790041
H113	H	0.521465	0.170841	-0.166573
H114	H	1.021465	0.670841	0.333427
N115	N	0.450893	0.074259	0.189272
N116	N	0.950893	0.574259	0.689272
H117	H	0.415738	0.029101	0.170525
H118	H	0.915738	0.529101	0.670525
H119	H	0.511653	0.044556	0.230170
H120	H	1.011653	0.544556	0.730170
N121	N	0.868234	-0.468140	0.089702
N122	N	1.368234	0.031860	0.589702
H123	H	0.809310	-0.437194	0.088885
H124	H	1.309310	0.062806	0.588885
H125	H	0.864459	-0.530255	0.087304
H126	H	1.364459	-0.030255	0.587304
N127	N	1.032994	-0.506806	0.189771
N128	N	1.532994	-0.006806	0.689771
H129	H	0.977366	-0.530533	0.171304
H130	H	1.477366	-0.030533	0.671304
H131	H	1.082021	-0.556365	0.230261
H132	H	1.582021	-0.056365	0.730261
N133	N	1.037266	-0.348213	0.189272
N134	N	1.537266	0.151787	0.689272
H135	H	0.976422	-0.359006	0.190214
H136	H	1.476422	0.140994	0.690214
H137	H	1.080679	-0.388912	0.250125
H138	H	1.580679	0.111088	0.750125
H139	H	0.877580	-0.312816	0.068491
H140	H	1.377580	0.187184	0.568491
H141	H	0.562039	0.002767	-0.068090
H142	H	1.062039	0.502767	0.431910
N143	N	1.210307	-0.106527	0.451654
N144	N	1.710307	0.393473	0.951654
H145	H	1.188247	-0.153539	0.495237
H146	H	1.688247	0.346461	0.995237
H147	H	1.235137	-0.131305	0.402386
H148	H	1.735137	0.368695	0.902386
N149	N	1.160565	-0.056833	0.233356
N150	N	1.660565	0.443167	0.733356
H151	H	1.207840	-0.104084	0.282543
H152	H	1.707840	0.395916	0.782543
H153	H	1.118585	-0.083945	0.189786
H154	H	1.618585	0.416055	0.689786
H155	H	0.378496	0.248774	-0.101761
H156	H	0.878496	0.748774	0.398239
N157	N	0.407213	-0.006457	-0.089790
N158	N	0.907213	0.493543	0.410210
H159	H	0.449756	-0.017647	-0.130186
H160	H	0.949756	0.482353	0.369814
H161	H	0.383982	-0.061553	-0.066746
H162	H	0.883982	0.438447	0.433254
H163	H	0.523409	0.252223	-0.095398
H164	H	1.023409	0.752223	0.404602
H165	H	0.843861	-0.424696	-0.068617
H166	H	1.343861	0.075304	0.431383
H167	H	0.967484	-0.422376	-0.166496
H168	H	1.467484	0.077624	0.333504
H169	H	1.123350	-0.494332	0.099770
H170	H	1.623350	0.005668	0.599770
H171	H	0.807181	0.296363	0.404874
H172	H	1.307181	0.796363	0.904874
H173	H	0.786140	0.317402	0.562411
H174	H	1.286140	0.817402	1.062411
N175	N	0.817691	0.285906	0.766823
N176	N	1.317691	0.785906	1.266823
H177	H	0.770418	0.333156	0.717632
H178	H	1.270418	0.833156	1.217632
H179	H	0.790604	0.243914	0.810404
H180	H	1.290604	0.743914	1.310404
H181	H	1.089465	0.014262	0.690605
H182	H	1.589465	0.514262	1.190605
N183	N	0.830133	-0.266864	-0.090379
N184	N	1.330133	0.233136	0.409621
H185	H	0.798929	-0.303856	-0.130860
H186	H	1.298929	0.196144	0.369140
H187	H	0.786641	-0.230702	-0.067548
H188	H	1.286641	0.269298	0.432452
H189	H	0.450128	-0.030573	0.069028
H190	H	0.950128	0.469427	0.569028
N191	N	1.054359	0.049356	0.766764
N192	N	1.554359	0.549356	1.266764
H193	H	1.062695	0.041030	0.841261
H194	H	1.562695	0.541030	1.341261
H195	H	1.040504	-0.005869	0.748408
H196	H	1.540504	0.494131	1.248408
N197	N	0.609879	0.075346	0.189750
N198	N	1.109879	0.575346	0.689750
H199	H	0.673209	0.075407	0.190742
H200	H	1.173209	0.575407	0.690742
H201	H	0.598204	0.092981	0.250170
H202	H	1.098204	0.592981	0.750170
N203	N	0.367038	0.156773	-0.188909
N204	N	0.867038	0.656773	0.311091
H205	H	0.341545	0.102498	-0.169149
H206	H	0.841545	0.602498	0.330851
H207	H	0.318769	0.206370	-0.231345
H208	H	0.818769	0.706370	0.268655
H209	H	0.594031	-0.027661	0.068169
H210	H	1.094031	0.472339	0.568169
H211	H	0.568381	0.206292	0.099317
H212	H	1.068381	0.706292	0.599317
N213	N	1.189264	-0.085488	0.609191
N214	N	1.689264	0.414512	1.109191
H215	H	1.197600	-0.093814	0.683688
H216	H	1.697600	0.406186	1.183688
H217	H	1.175409	-0.140714	0.590835
H218	H	1.675409	0.359286	1.090835
H219	H	1.126447	-0.351127	0.098911
H220	H	1.626447	0.148873	0.598911
N221	N	0.948617	-0.263641	-0.188912
N222	N	1.448617	0.236359	0.311088
H223	H	0.904513	-0.225250	-0.169358
H224	H	1.404513	0.274750	0.330642
H225	H	0.980218	-0.226020	-0.231189
H226	H	1.480218	0.273980	0.268811
H227	H	0.424970	0.204750	0.098447
H228	H	0.924970	0.704750	0.598447
H229	H	0.888784	0.214816	0.309575
H230	H	1.388784	0.714816	0.809575
H231	H	1.081211	-0.449890	-0.094919
H232	H	1.581211	0.050110	0.405081
N233	N	1.101496	-0.298967	-0.103165
N234	N	1.601496	0.201033	0.396835
H235	H	1.127823	-0.276004	-0.044471
H236	H	1.627823	0.223996	0.455529
H237	H	1.141177	-0.353093	-0.102344
H238	H	1.641177	0.146907	0.397656
N239	N	0.923880	0.179712	0.233420
N240	N	1.423880	0.679712	0.733420
H241	H	0.937677	0.234987	0.251693
H242	H	1.437677	0.734987	0.751693
H243	H	0.915584	0.187957	0.158941
H244	H	1.415584	0.687957	0.658941
