data_functionalizedCrystal
_audit_creation_method	'MofGen! by Chris Wilmer'
_symmetry_space_group_name_H-M	'P1'
_symmetry_Int_Tables_number	1
_symmetry_cell_setting	triclinic
loop_
_symmetry_equiv_pos_as_xyz
  x,y,z
_cell_length_a	12.759394
_cell_length_b	12.759395
_cell_length_c	12.759387
_cell_angle_alpha	90.022274
_cell_angle_beta	89.970303
_cell_angle_gamma	89.984795
loop_
_atom_site_label
_atom_site_type_symbol
_atom_site_fract_x
_atom_site_fract_y
_atom_site_fract_z
Zn1	Zn	-0.418195	-1.606269	-0.594063
Zn2	Zn	-0.593912	-1.606160	-0.418386
Zn3	Zn	-0.418250	-1.430567	-0.418394
Zn4	Zn	-0.593835	-1.430560	-0.594020
O5	O	-0.506048	-1.518389	-0.506216
O6	O	-0.441514	-1.753276	-0.570773
O7	O	-0.570665	-1.582825	-0.271366
O8	O	-0.271221	-1.453923	-0.441718
O9	O	-0.570613	-1.753196	-0.441705
O10	O	-0.271181	-1.583011	-0.570781
O11	O	-0.441607	-1.453817	-0.271372
O12	O	-0.441531	-1.283545	-0.441677
O13	O	-0.570480	-1.453911	-0.741047
O14	O	-0.570533	-1.283540	-0.570708
O15	O	-0.441439	-1.583003	-0.741078
O16	O	-0.740923	-1.582817	-0.441664
O17	O	-0.740866	-1.453805	-0.570701
C18	C	-0.506030	-1.245422	-0.506189
C19	C	-0.506048	-1.128645	-0.506203
C20	C	-0.640595	-1.128678	-0.640346
C21	C	-0.707876	-1.073833	-0.707419
C22	C	-0.707886	-0.964112	-0.707429
C23	C	-0.640607	-0.909232	-0.640360
C24	C	-0.573327	-0.964076	-0.573287
C25	C	-0.573325	-1.073800	-0.573283
C26	C	-0.438776	-0.964043	-0.439151
C27	C	-0.438769	-1.073765	-0.439134
C28	C	-0.371497	-0.909164	-0.372082
C29	C	-0.304220	-0.964008	-0.305002
C30	C	-0.304213	-1.073736	-0.304995
C31	C	-0.371489	-1.128609	-0.372061
C32	C	-0.779015	-1.518327	-0.506200
C33	C	-0.895792	-1.518396	-0.506228
C34	C	-1.115222	-1.652960	-0.372006
C35	C	-1.060353	-1.720156	-0.304866
C36	C	-0.950631	-1.720101	-0.304845
C37	C	-0.895776	-1.652842	-0.371969
C38	C	-0.950645	-1.585646	-0.439109
C39	C	-1.060369	-1.585710	-0.439125
C40	C	-0.950661	-1.451201	-0.573368
C41	C	-1.060383	-1.451259	-0.573396
C42	C	-0.895806	-1.383942	-0.640492
C43	C	-0.950675	-1.316750	-0.707639
C44	C	-1.060403	-1.316808	-0.707658
C45	C	-1.115251	-1.384064	-0.640536
C46	C	-0.232014	-1.518480	-0.506255
C47	C	-0.115238	-1.518519	-0.506272
C48	C	-0.505945	-1.518468	-0.780249
C49	C	-0.505901	-1.518502	-0.897026
C50	C	-0.506062	-0.792422	-0.506235
C51	C	-0.506057	-0.909199	-0.506224
C52	C	-0.371539	-1.652936	-0.897078
C53	C	-0.304342	-1.720167	-0.951965
C54	C	-0.304304	-1.720193	-1.061687
C55	C	-0.371467	-1.652977	-1.116524
C56	C	-0.438664	-1.585746	-1.061637
C57	C	-0.438697	-1.585730	-0.951913
C58	C	-0.573019	-1.451309	-1.061585
C59	C	-0.573065	-1.451287	-0.951863
C60	C	-0.640183	-1.384093	-1.116422
C61	C	-0.707386	-1.316866	-1.061535
C62	C	-0.707423	-1.316844	-0.951807
C63	C	-0.640261	-1.384056	-0.896976
C64	C	-0.506075	-1.518370	-0.233248
C65	C	-0.505823	-1.518540	-0.116472
H66	H	-0.371492	-1.217951	-0.372059
H67	H	-0.249417	-1.118384	-0.250383
H68	H	-0.640613	-0.819891	-0.640383
H69	H	-0.371506	-0.819823	-0.372099
H70	H	-0.640289	-1.384049	-0.807635
H71	H	-1.204592	-1.384122	-0.640549
H72	H	-0.249442	-0.919316	-0.250406
H73	H	-1.204563	-1.653021	-0.372026
H74	H	-0.762060	-1.262139	-1.106193
H75	H	-0.806435	-1.652794	-0.371937
H76	H	-0.762651	-1.118529	-0.762027
H77	H	-0.906005	-1.261987	-0.762282
H78	H	-0.806465	-1.383898	-0.640466
H79	H	-1.105028	-1.774915	-0.250212
H80	H	-1.105070	-1.262090	-0.762333
H81	H	-0.249657	-1.774891	-0.907305
H82	H	-0.905957	-1.774813	-0.250170
H83	H	-0.762131	-1.262084	-0.907125
H84	H	-0.371573	-1.652932	-0.807737
H85	H	-0.640143	-1.384115	-1.205764
H86	H	-0.640601	-1.218019	-0.640338
H87	H	-0.249580	-1.774932	-1.106376
H88	H	-0.371421	-1.652995	-1.205866
H89	H	-0.762667	-0.919458	-0.762051
