data_functionalizedCrystal
_audit_creation_method	'MofGen! by Chris Wilmer'
_symmetry_space_group_name_H-M	'P1'
_symmetry_Int_Tables_number	1
_symmetry_cell_setting	triclinic
loop_
_symmetry_equiv_pos_as_xyz
  x,y,z
_cell_length_a	21.295420
_cell_length_b	21.295417
_cell_length_c	13.897441
_cell_angle_alpha	90.036423
_cell_angle_beta	90.021942
_cell_angle_gamma	90.026289
loop_
_atom_site_label
_atom_site_type_symbol
_atom_site_fract_x
_atom_site_fract_y
_atom_site_fract_z
Zn1	Zn	0.962339	-0.250660	0.545373
Zn2	Zn	1.462339	0.249340	1.045373
Zn3	Zn	0.962246	-0.355939	0.384058
Zn4	Zn	1.462246	0.144061	0.884058
Zn5	Zn	0.857067	-0.250680	0.384088
Zn6	Zn	1.357067	0.249320	0.884088
Zn7	Zn	0.857031	-0.355888	0.545307
Zn8	Zn	1.357031	0.144112	1.045307
O9	O	0.909671	-0.303292	0.464707
O10	O	1.409671	0.196708	0.964707
O11	O	1.050416	-0.264639	0.523989
O12	O	1.550416	0.235361	1.023989
O13	O	0.948270	-0.342006	0.249080
O14	O	1.448270	0.157994	0.749080
O15	O	0.871085	-0.162588	0.405523
O16	O	1.371085	0.337412	0.905523
O17	O	1.050348	-0.341987	0.405472
O18	O	1.550348	0.158013	0.905472
O19	O	0.948428	-0.162573	0.524018
O20	O	1.448428	0.337427	1.024018
O21	O	0.870995	-0.264673	0.249102
O22	O	1.370995	0.235327	0.749102
O23	O	0.768973	-0.264623	0.405459
O24	O	1.268973	0.235377	0.905459
O25	O	0.871025	-0.341899	0.680298
O26	O	1.371025	0.158101	1.180298
O27	O	0.768947	-0.341918	0.523906
O28	O	1.268947	0.158082	1.023906
O29	O	0.948394	-0.264589	0.680346
O30	O	1.448394	0.235411	1.180346
O31	O	0.948236	-0.444022	0.405408
O32	O	1.448236	0.055978	0.905408
O33	O	0.870935	-0.443984	0.523877
O34	O	1.370935	0.056016	1.023877
C35	C	0.746119	-0.303267	0.464679
C36	C	1.246119	0.196733	0.964679
C37	C	0.676151	-0.303272	0.464691
C38	C	1.176151	0.196728	0.964691
C39	C	0.909588	-0.466843	0.464653
C40	C	1.409588	0.033157	0.964653
C41	C	0.909611	-0.536811	0.464663
C42	C	1.409611	-0.036811	0.964663
C43	C	0.176728	-0.263111	0.526533
C44	C	0.676728	0.236889	1.026533
C45	C	0.242471	-0.263107	0.526533
C46	C	0.742471	0.236893	1.026533
C47	C	0.275312	-0.303311	0.464729
C48	C	0.775312	0.196689	0.964729
C49	C	0.242405	-0.343534	0.402938
C50	C	0.742405	0.156466	0.902938
C51	C	0.176664	-0.343542	0.402947
C52	C	0.676664	0.156458	0.902947
N53	N	0.378504	-0.308061	0.380268
N54	N	0.878504	0.191939	0.880268
N55	N	0.440956	-0.308049	0.380262
N56	N	0.940956	0.191951	0.880262
C57	C	0.473386	-0.303290	0.464701
C58	C	0.973386	0.196710	0.964701
N59	N	0.441007	-0.298530	0.549147
N60	N	0.941007	0.201470	1.049147
N61	N	0.378549	-0.298538	0.549151
N62	N	0.878549	0.201462	1.049151
C63	C	0.346597	-0.303307	0.464713
C64	C	0.846597	0.196693	0.964713
C65	C	0.577571	-0.263067	0.526493
C66	C	1.077571	0.236933	1.026493
C67	C	0.643315	-0.263067	0.526494
C68	C	1.143315	0.236933	1.026494
C69	C	0.643248	-0.343491	0.402890
C70	C	1.143248	0.156509	0.902890
C71	C	0.577505	-0.343495	0.402897
C72	C	1.077505	0.156505	0.902897
C73	C	0.544671	-0.303279	0.464697
C74	C	1.044671	0.196721	0.964697
C75	C	0.949897	-0.569677	0.403039
C76	C	1.449897	-0.069677	0.903039
C77	C	0.949926	-0.635419	0.403061
C78	C	1.449926	-0.135419	0.903061
C79	C	0.909658	-0.668294	0.464696
C80	C	1.409658	-0.168294	0.964696
C81	C	0.869369	-0.635420	0.526332
C82	C	1.369369	-0.135420	1.026332
C83	C	0.869345	-0.569679	0.526315
C84	C	1.369345	-0.069679	1.026315
N85	N	0.854591	-0.771555	0.472040
N86	N	1.354591	-0.271555	0.972040
N87	N	0.854616	-0.834007	0.472050
N88	N	1.354616	-0.334007	0.972050
C89	C	0.909729	-0.866368	0.464751
C90	C	1.409729	-0.366368	0.964751
N91	N	0.964818	-0.833920	0.457423
N92	N	1.464818	-0.333920	0.957423
N93	N	0.964793	-0.771463	0.457407
N94	N	1.464793	-0.271463	0.957407
C95	C	0.909680	-0.739579	0.464721
C96	C	1.409680	-0.239579	0.964721
C97	C	0.950051	-0.970519	0.403148
C98	C	1.450051	-0.470519	0.903148
C99	C	0.950081	-1.036263	0.403176
C100	C	1.450081	-0.536263	0.903176
C101	C	0.869518	-1.036263	0.526442
C102	C	1.369518	-0.536263	1.026442
C103	C	0.869493	-0.970521	0.526419
C104	C	1.369493	-0.470521	1.026419
C105	C	0.909759	-0.937653	0.464766
C106	C	1.409759	-0.437653	0.964766
C107	C	1.073861	-0.303316	0.464735
C108	C	1.573861	0.196684	0.964735
C109	C	1.143829	-0.303327	0.464747
C110	C	1.643829	0.196673	0.964747
C111	C	0.909716	-0.303236	0.716300
C112	C	1.409716	0.196764	1.216300
C113	C	0.909735	-0.303212	0.823514
C114	C	1.409735	0.196788	1.323514
C115	C	0.909771	-0.139101	0.464781
C116	C	1.409771	0.360899	0.964781
C117	C	0.909813	-0.069133	0.464813
C118	C	1.409813	0.430867	0.964813
C119	C	0.909663	-0.303302	0.214092
C120	C	1.409663	0.196698	0.714092
C121	C	0.909766	-0.303148	0.106879
C122	C	1.409766	0.196852	0.606879
C123	C	0.909752	-0.303170	1.019809
C124	C	1.409752	0.196830	1.519809
C125	C	0.909740	-0.303195	0.910577
C126	C	1.409740	0.196805	1.410577
H127	H	0.149998	-0.230368	0.576860
H128	H	0.649998	0.269632	1.076860
Br129	Br	0.687965	-0.208491	0.610367
Br130	Br	1.187965	0.291509	1.110367
Br131	Br	0.687811	-0.398062	0.319022
Br132	Br	1.187811	0.101938	0.819022
Br133	Br	0.532853	-0.398067	0.319025
Br134	Br	1.032853	0.101933	0.819025
H135	H	0.982685	-0.542918	0.352841
H136	H	1.482685	-0.042918	0.852841
H137	H	0.269262	-0.230356	0.576847
H138	H	0.769262	0.269644	1.076847
Br139	Br	0.814668	-0.525073	0.609955
Br140	Br	1.314668	-0.025073	1.109955
Br141	Br	0.286973	-0.398102	0.319067
Br142	Br	0.786973	0.101898	0.819067
Br143	Br	1.004767	-1.080868	0.319546
Br144	Br	1.504767	-0.580868	0.819546
Br145	Br	0.814724	-0.680034	0.609988
Br146	Br	1.314724	-0.180034	1.109988
H147	H	0.982839	-0.943757	0.352950
H148	H	1.482839	-0.443757	0.852950
Br149	Br	0.132012	-0.398122	0.319083
Br150	Br	0.632012	0.101878	0.819083
H151	H	0.982735	-0.662183	0.352880
H152	H	1.482735	-0.162183	0.852880
Br153	Br	0.814874	-1.080871	0.610102
Br154	Br	1.314874	-0.580871	1.110102
H155	H	0.550836	-0.230322	0.576814
H156	H	1.050836	0.269678	1.076814
Br157	Br	0.814815	-0.925914	0.610053
Br158	Br	1.314815	-0.425914	1.110053
