data_functionalizedCrystal
_audit_creation_method	'MofGen! by Chris Wilmer'
_symmetry_space_group_name_H-M	'P1'
_symmetry_Int_Tables_number	1
_symmetry_cell_setting	triclinic
loop_
_symmetry_equiv_pos_as_xyz
  x,y,z
_cell_length_a	14.908782
_cell_length_b	21.295417
_cell_length_c	21.295411
_cell_angle_alpha	89.978356
_cell_angle_beta	93.278219
_cell_angle_gamma	86.737741
loop_
_atom_site_label
_atom_site_type_symbol
_atom_site_fract_x
_atom_site_fract_y
_atom_site_fract_z
Zn1	Zn	1.379107	-0.306158	-0.300266
Zn2	Zn	1.378967	-0.411404	-0.194997
Zn3	Zn	1.228239	-0.300089	-0.201098
Zn4	Zn	1.228195	-0.405322	-0.306312
O5	O	1.303627	-0.355743	-0.250668
O6	O	1.505325	-0.325204	-0.281218
O7	O	1.358932	-0.396643	-0.107719
O8	O	1.248329	-0.212808	-0.214276
O9	O	1.505222	-0.402528	-0.203877
O10	O	1.359171	-0.217266	-0.287134
O11	O	1.248194	-0.314861	-0.112201
O12	O	1.101997	-0.308964	-0.220139
O13	O	1.248254	-0.392162	-0.393598
O14	O	1.101965	-0.386278	-0.297439
O15	O	1.359128	-0.319307	-0.389156
O16	O	1.358890	-0.498683	-0.209740
O17	O	1.248119	-0.494215	-0.291523
C18	C	1.069249	-0.346303	-0.260108
C19	C	0.968981	-0.342280	-0.264161
C20	C	1.303509	-0.519290	-0.250638
C21	C	1.303541	-0.589260	-0.250643
C22	C	0.780458	-0.415126	-0.191119
C23	C	0.686247	-0.411348	-0.194925
C24	C	0.686347	-0.330948	-0.275582
C25	C	0.780558	-0.334727	-0.271776
C26	C	0.827610	-0.376816	-0.229542
C27	C	0.921822	-0.380591	-0.225733
C28	C	0.921920	-0.300195	-0.306393
C29	C	0.827709	-0.296417	-0.310199
C30	C	1.361270	-0.624434	-0.208098
C31	C	1.361313	-0.690178	-0.208111
C32	C	1.303609	-0.720745	-0.250662
C33	C	1.245875	-0.685562	-0.293215
C34	C	1.245841	-0.619820	-0.293206
N35	N	1.224695	-0.820837	-0.258639
N36	N	1.224730	-0.883290	-0.258644
C37	C	1.303710	-0.918824	-0.250694
N38	N	1.382656	-0.889545	-0.242726
N39	N	1.382619	-0.827087	-0.242718
C40	C	1.303640	-0.792031	-0.250677
C41	C	1.361491	-1.025285	-0.208160
C42	C	1.361534	-1.091031	-0.208177
C43	C	1.246089	-1.086414	-0.293279
C44	C	1.246053	-1.020670	-0.293265
C45	C	1.303753	-0.990110	-0.250702
C46	C	1.538920	-0.365221	-0.241193
C47	C	1.639188	-0.369260	-0.237155
C48	C	1.303702	-0.355733	-0.414856
C49	C	1.303734	-0.355729	-0.484823
C50	C	1.303770	-0.191559	-0.250711
C51	C	1.303831	-0.121593	-0.250730
C52	C	1.361463	-0.317791	-0.515377
C53	C	1.361462	-0.317763	-0.581120
C54	C	1.303741	-0.355686	-0.616305
C55	C	1.246000	-0.393626	-0.585743
C56	C	1.245997	-0.393647	-0.520002
N57	N	1.296781	-0.410473	-0.719801
N58	N	1.296790	-0.410451	-0.782252
C59	C	1.303747	-0.355622	-0.814379
N60	N	1.310712	-0.300815	-0.781696
N61	N	1.310708	-0.300838	-0.719239
C62	C	1.303738	-0.355666	-0.687590
C63	C	1.361478	-0.317651	-0.916220
C64	C	1.361470	-0.317622	-0.981964
C65	C	1.246013	-0.393491	-0.986585
C66	C	1.246016	-0.393514	-0.920842
C67	C	1.303753	-0.355595	-0.885664
C68	C	1.303604	-0.355710	-0.087118
C69	C	1.303747	-0.355544	-0.017144
H70	H	0.960131	-0.414861	-0.191343
H71	H	1.199006	-0.424361	-1.015232
H72	H	1.199110	-1.111300	-0.327928
H73	H	0.789387	-0.262150	-0.344586
H74	H	0.647860	-0.442545	-0.163638
H75	H	1.198830	-0.591180	-0.327852
H76	H	1.408476	-0.286913	-0.486739
H77	H	1.199041	-0.992029	-0.327907
H78	H	1.408551	-1.119669	-0.173533
H79	H	1.408476	-1.000403	-0.173505
H80	H	1.408470	-0.286866	-0.606003
H81	H	1.199012	-0.424411	-0.895965
H82	H	1.199000	-0.424500	-0.614395
H83	H	1.198982	-0.424540	-0.495125
H84	H	0.960321	-0.268997	-0.337677
H85	H	1.408486	-0.286772	-0.887576
H86	H	1.408255	-0.599554	-0.173443
H87	H	1.408479	-0.286725	-1.006840
H88	H	1.408326	-0.718823	-0.173465
H89	H	0.818769	-0.449393	-0.156727
H90	H	0.648021	-0.296686	-0.309972
H91	H	1.198894	-0.710454	-0.327862
