data_functionalizedCrystal
_audit_creation_method	'MofGen! by Chris Wilmer'
_symmetry_space_group_name_H-M	'P1'
_symmetry_Int_Tables_number	1
_symmetry_cell_setting	triclinic
loop_
_symmetry_equiv_pos_as_xyz
  x,y,z
_cell_length_a	12.759395
_cell_length_b	25.639239
_cell_length_c	12.759387
_cell_angle_alpha	89.963582
_cell_angle_beta	89.979491
_cell_angle_gamma	90.040223
loop_
_atom_site_label
_atom_site_type_symbol
_atom_site_fract_x
_atom_site_fract_y
_atom_site_fract_z
Zn1	Zn	1.606094	-0.208102	-0.593964
Zn2	Zn	1.605911	-0.295548	-0.418267
Zn3	Zn	1.430392	-0.208130	-0.418301
Zn4	Zn	1.430311	-0.295510	-0.593906
O5	O	1.518177	-0.251823	-0.506110
O6	O	1.753090	-0.219705	-0.570668
O7	O	1.582585	-0.283979	-0.271250
O8	O	1.453810	-0.134961	-0.441641
O9	O	1.752956	-0.283951	-0.441584
O10	O	1.582897	-0.134940	-0.570700
O11	O	1.453632	-0.219754	-0.271275
O12	O	1.283360	-0.219718	-0.441585
O13	O	1.453671	-0.283888	-0.740935
O14	O	1.283300	-0.283916	-0.570602
O15	O	1.582818	-0.219669	-0.740978
O16	O	1.582506	-0.368708	-0.441528
O17	O	1.453494	-0.368681	-0.570569
C18	C	1.245209	-0.251816	-0.506092
C19	C	1.128432	-0.251826	-0.506109
C20	C	1.518000	-0.387665	-0.506062
C21	C	1.518020	-0.445779	-0.506076
C22	C	1.128409	-0.318783	-0.640236
C23	C	1.073536	-0.352266	-0.707303
C24	C	0.963815	-0.352272	-0.707316
C25	C	0.908963	-0.318791	-0.640257
C26	C	0.963836	-0.285309	-0.573190
C27	C	1.073560	-0.285307	-0.573182
C28	C	0.963859	-0.218349	-0.439070
C29	C	1.073581	-0.218345	-0.439050
C30	C	0.909008	-0.184868	-0.372011
C31	C	0.963880	-0.151387	-0.304937
C32	C	1.073609	-0.151383	-0.304926
C33	C	1.128454	-0.184862	-0.371983
C34	C	1.585529	-0.806144	-0.439032
C35	C	1.585570	-0.860748	-0.439046
O36	O	1.642784	-0.888986	-0.381991
N37	N	1.518361	-0.888062	-0.506179
C38	C	1.451115	-0.860768	-0.573310
O39	O	1.393954	-0.889014	-0.630414
C40	C	1.451081	-0.806165	-0.573300
C41	C	1.518286	-0.778854	-0.506156
C42	C	1.652729	-0.778833	-0.371894
C43	C	1.652687	-0.724233	-0.371879
C44	C	1.585444	-0.696943	-0.439002
C45	C	1.518244	-0.724253	-0.506140
C46	C	1.383841	-0.778872	-0.640436
C47	C	1.383813	-0.724265	-0.640421
C48	C	1.451018	-0.696954	-0.573276
C49	C	1.450958	-0.642363	-0.573249
N50	N	1.518167	-0.615050	-0.506116
C51	C	1.585409	-0.642339	-0.438992
C52	C	1.451195	-0.975438	-0.573326
C53	C	1.451223	-1.030041	-0.573331
C54	C	1.585679	-1.030017	-0.439069
C55	C	1.585644	-0.975414	-0.439059
C56	C	1.518403	-0.948125	-0.506193
C57	C	1.585315	-0.527674	-0.438965
C58	C	1.585263	-0.473069	-0.438953
C59	C	1.450812	-0.473097	-0.573219
C60	C	1.450859	-0.527698	-0.573227
C61	C	1.518119	-0.554985	-0.506097
O62	O	1.393776	-0.614090	-0.630278
O63	O	1.642571	-0.614087	-0.381908
C64	C	1.792210	-0.251829	-0.506128
C65	C	1.908987	-0.251832	-0.506136
C66	C	1.518256	-0.251771	-0.780143
C67	C	1.518290	-0.251749	-0.896920
C68	C	1.518383	-0.115449	-0.506181
C69	C	1.518470	-0.057335	-0.506211
C70	C	1.652780	-0.184883	-0.896984
C71	C	1.720039	-0.151442	-0.951877
C72	C	1.720065	-0.151423	-1.061598
C73	C	1.652821	-0.184847	-1.116430
C74	C	1.585562	-0.218288	-1.061537
C75	C	1.585546	-0.218305	-0.951813
C76	C	1.451068	-0.285151	-1.061473
C77	C	1.451046	-0.285174	-0.951751
C78	C	1.383825	-0.318576	-1.116305
C79	C	1.316569	-0.352021	-1.061412
C80	C	1.316547	-0.352039	-0.951683
C81	C	1.383787	-0.318615	-0.896859
C82	C	1.518158	-0.251836	-0.233142
C83	C	1.518328	-0.251710	-0.116366
H84	H	1.217750	-0.318785	-0.640225
F85	F	1.244953	-0.387629	-0.893271
F86	F	0.792187	-0.318793	-0.640287
F87	F	0.905414	-0.387905	-0.778701
F88	F	1.312320	-0.807926	-0.711911
F89	F	1.652844	-0.184821	-1.233206
H90	H	1.118208	-0.379525	-0.761903
H91	H	1.396138	-0.549935	-0.627905
H92	H	0.919212	-0.124127	-0.250348
F93	F	1.791636	-0.115824	-1.120021
F94	F	1.132000	-0.115743	-0.233548
H95	H	1.217795	-0.184863	-0.371978
F96	F	0.792232	-0.184873	-0.372032
H97	H	1.639990	-0.450834	-0.384272
H98	H	1.640086	-0.549885	-0.384303
F99	F	1.724229	-0.695173	-0.300425
H100	H	1.707492	-0.801047	-0.317234
H101	H	1.640369	-0.953181	-0.384385
F102	F	1.312245	-0.695225	-0.711879
F103	F	1.657244	-1.059071	-0.367628
H104	H	1.396488	-1.052272	-0.627997
F105	F	1.652771	-0.184907	-0.780208
F106	F	1.379615	-0.946400	-0.644777
H107	H	1.383846	-0.318556	-1.205646
F108	F	1.245006	-0.387586	-1.119772
F109	F	1.383774	-0.318634	-0.780083
F110	F	1.379254	-0.444044	-0.644655
F111	F	1.791581	-0.115861	-0.893514
