data_functionalizedCrystal
_audit_creation_method	'MofGen! by Chris Wilmer'
_symmetry_space_group_name_H-M	'P1'
_symmetry_Int_Tables_number	1
_symmetry_cell_setting	triclinic
loop_
_symmetry_equiv_pos_as_xyz
  x,y,z
_cell_length_a	10.654550
_cell_length_b	15.944551
_cell_length_c	9.730223
_cell_angle_alpha	89.994648
_cell_angle_beta	89.999957
_cell_angle_gamma	83.991834
loop_
_atom_site_label
_atom_site_type_symbol
_atom_site_fract_x
_atom_site_fract_y
_atom_site_fract_z
O1	O	1.666313	0.117976	-0.114191
O2	O	1.300689	0.129216	-0.114216
O3	O	1.493485	0.001379	-0.114190
O4	O	1.473516	0.245813	-0.114216
O5	O	1.493473	0.001376	0.114390
O6	O	1.300676	0.129213	0.114364
O7	O	1.666300	0.117973	0.114389
Zn8	Zn	1.483486	0.123592	0.150669
Zn9	Zn	1.483503	0.123597	-0.150495
O10	O	1.473504	0.245810	0.114363
C11	C	1.253895	0.128389	0.000071
C12	C	1.114484	0.125920	0.000061
C13	C	1.034024	0.201189	0.000057
C14	C	0.903034	0.198863	0.000081
C15	C	0.932975	0.045995	0.000108
C16	C	1.063963	0.048321	0.000094
C17	C	1.492650	-0.029921	0.000100
C18	C	1.490165	-0.123182	0.000100
C19	C	1.364720	-0.338764	0.000073
C20	C	1.422966	-0.399446	0.112781
C21	C	1.485668	-0.293933	0.000090
C22	C	1.423007	-0.399426	-0.112581
C23	C	1.481317	-0.458871	0.000073
C24	C	1.543948	-0.353387	0.112890
C25	C	1.543972	-0.353360	-0.112573
C26	C	1.602306	-0.414024	0.000163
C27	C	1.488172	-0.198917	0.000100
C28	C	1.478822	-0.553887	0.000072
C29	C	1.713094	0.118800	0.000099
C30	C	1.852505	0.121269	0.000100
C31	C	1.474339	0.277110	0.000070
C32	C	1.476824	0.370371	0.000061
N33	N	1.483484	0.123589	0.356205
N34	N	1.483514	0.123594	-0.356032
C35	C	1.568883	0.067007	0.428142
C36	C	1.568896	0.067007	0.572025
C37	C	1.398106	0.180179	0.572021
C38	C	1.398089	0.180174	0.428140
H39	H	0.891824	-0.017184	0.000143
N40	N	1.146160	-0.028569	0.000069
N41	N	1.222584	-0.044323	-0.096290
H42	H	1.280637	-0.098624	-0.096305
N43	N	1.238776	-0.297716	0.000208
N44	N	1.165572	-0.309998	0.096827
H45	H	1.076625	-0.281008	0.096928
H46	H	1.638416	0.020930	0.369576
H47	H	1.371805	-0.419852	0.208059
H48	H	1.638434	0.020932	0.630593
H49	H	1.328581	0.226250	0.630605
N50	N	1.608066	-0.327934	0.232549
N51	N	1.620278	-0.251714	0.251890
H52	H	1.665557	-0.233735	0.336399
H53	H	1.328541	0.226250	0.369565
H54	H	1.702787	-0.446601	0.000233
H55	H	1.595089	-0.332933	-0.207856
N56	N	1.358815	-0.425012	-0.232100
N57	N	1.262634	-0.463029	-0.219583
H58	H	1.217290	-0.481098	-0.303987
N59	N	1.085611	0.280458	0.000026
N60	N	1.013751	0.347656	0.000025
H61	H	1.050179	0.403643	0.000006
H62	H	0.837528	0.260155	0.000081
