data_functionalizedCrystal
_audit_creation_method	'MofGen! by Chris Wilmer'
_symmetry_space_group_name_H-M	'P1'
_symmetry_Int_Tables_number	1
_symmetry_cell_setting	triclinic
loop_
_symmetry_equiv_pos_as_xyz
  x,y,z
_cell_length_a	13.339071
_cell_length_b	15.944564
_cell_length_c	12.376457
_cell_angle_alpha	78.732715
_cell_angle_beta	75.578179
_cell_angle_gamma	80.433394
loop_
_atom_site_label
_atom_site_type_symbol
_atom_site_fract_x
_atom_site_fract_y
_atom_site_fract_z
O1	O	1.322892	-0.432659	0.094041
O2	O	1.028359	-0.377386	0.094037
O3	O	1.183664	-0.284620	0.094028
O4	O	1.167587	-0.525425	0.094050
O5	O	1.222521	-0.261517	-0.093986
O6	O	1.067216	-0.354283	-0.093977
O7	O	1.361749	-0.409556	-0.093973
Zn8	Zn	1.220652	-0.378251	-0.123827
Zn9	Zn	1.169456	-0.408690	0.123890
O10	O	1.206444	-0.502322	-0.093965
C11	C	1.010097	-0.356498	0.000029
C12	C	0.897792	-0.328667	0.000027
C13	C	0.857086	-0.241878	0.000015
C14	C	0.751570	-0.215728	0.000019
C15	C	0.686751	-0.276363	0.000025
C16	C	0.727458	-0.363152	0.000029
C17	C	0.832983	-0.389306	0.000035
C18	C	0.662648	-0.423791	0.000045
C19	C	0.703355	-0.510580	0.000048
C20	C	0.808870	-0.536730	0.000053
C21	C	0.873689	-0.476095	0.000046
C22	C	0.557123	-0.397637	0.000039
C23	C	0.533020	-0.545065	0.000058
C24	C	0.638536	-0.571215	0.000055
C25	C	1.202423	-0.241618	0.000021
C26	C	1.200416	-0.147905	0.000020
C27	C	1.099348	0.090498	0.000033
C28	C	1.165429	0.151973	-0.092670
C29	C	1.196783	0.023665	0.000027
C30	C	1.127142	0.129173	0.092698
C31	C	1.193266	0.189394	0.000040
C32	C	1.262908	0.083915	-0.092751
C33	C	1.224589	0.061102	0.092699
C34	C	1.290747	0.122545	-0.000025
C35	C	1.198807	-0.071807	0.000019
C36	C	1.191251	0.284864	0.000040
C37	C	1.380010	-0.430445	0.000037
C38	C	1.492313	-0.458276	0.000046
C39	C	1.187671	0.454678	0.000044
C40	C	1.189636	0.360969	0.000049
N41	N	1.134516	-0.429458	0.292951
N42	N	1.255600	-0.357479	-0.292887
C43	C	1.336734	-0.309283	0.647924
C44	C	1.361193	-0.294758	0.529583
C45	C	1.304526	-0.328432	0.470419
C46	C	1.223395	-0.376634	0.529608
C47	C	1.198928	-0.391155	0.647961
C48	C	1.166721	-0.410304	0.470456
C49	C	1.085590	-0.458505	0.529644
C50	C	1.061128	-0.473025	0.647986
C51	C	1.117794	-0.439350	0.707150
C52	C	1.191188	-0.395782	0.352103
C53	C	1.053382	-0.477654	0.352139
C54	C	1.028923	-0.492179	0.470480
H55	H	0.600835	-0.255066	0.000028
N56	N	0.513216	-0.304036	0.000027
H57	H	0.522444	-0.284922	0.069720
H58	H	0.551277	-0.267865	-0.069720
N59	N	0.973625	-0.525010	0.711836
H60	H	0.918769	-0.488414	0.760919
H61	H	0.941518	-0.544137	0.656338
N62	N	0.926990	-0.176484	0.000011
H63	H	0.956900	-0.192614	0.069711
H64	H	0.985657	-0.175516	-0.069729
H65	H	1.382859	-0.281864	0.696103
N66	N	1.257668	0.008965	0.196520
H67	H	1.259431	-0.054428	0.195349
H68	H	1.329385	0.021201	0.197207
H69	H	1.097883	-0.451180	0.803513
H70	H	0.962864	-0.531426	0.518687
N71	N	0.852763	-0.630342	0.000081
H72	H	0.843536	-0.649458	-0.069611
H73	H	0.929426	-0.637649	0.000131
N74	N	1.051084	0.155758	0.196503
H75	H	0.978820	0.144446	0.196414
H76	H	1.072771	0.121426	0.266466
H77	H	1.257244	-0.356536	0.303922
H78	H	1.324444	-0.316603	0.374060
N79	N	0.992250	-0.513973	0.288343
H80	H	1.020062	-0.497463	0.204390
H81	H	0.999518	-0.578832	0.309053
N82	N	0.707665	-0.122127	0.000013
H83	H	0.764736	-0.087683	0.000006
H84	H	0.678815	-0.099504	-0.069689
N85	N	0.987502	-0.504301	0.000030
H86	H	1.022385	-0.452717	0.000016
H87	H	0.993706	-0.548121	0.069732
N88	N	0.682446	-0.664822	0.000060
H89	H	0.759127	-0.672184	0.000062
H90	H	0.644336	-0.701004	0.069763
N91	N	1.338935	0.057506	-0.196677
H92	H	1.339796	-0.006045	-0.196059
H93	H	1.316820	0.091554	-0.266553
N94	N	0.463119	-0.610473	0.000073
H95	H	0.390098	-0.580736	0.000066
H96	H	0.490704	-0.638674	-0.069619
H97	H	1.018496	0.076046	-0.000061
N98	N	1.132297	0.204076	-0.196486
H99	H	1.066945	0.244457	-0.172844
H100	H	1.189854	0.238625	-0.242884
N101	N	1.397968	0.141504	-0.000079
H102	H	1.447931	0.086464	-0.000773
H103	H	1.422997	0.184397	-0.069451
N104	N	1.448721	-0.242806	0.465746
H105	H	1.480919	-0.223690	0.521181
H106	H	1.503490	-0.279470	0.416681
