data_functionalizedCrystal
_audit_creation_method	'MofGen! by Chris Wilmer'
_symmetry_space_group_name_H-M	'P1'
_symmetry_Int_Tables_number	1
_symmetry_cell_setting	triclinic
loop_
_symmetry_equiv_pos_as_xyz
  x,y,z
_cell_length_a	10.489741
_cell_length_b	15.944551
_cell_length_c	9.565339
_cell_angle_alpha	89.999279
_cell_angle_beta	89.999100
_cell_angle_gamma	84.018956
loop_
_atom_site_label
_atom_site_type_symbol
_atom_site_fract_x
_atom_site_fract_y
_atom_site_fract_z
O1	O	1.692410	0.118501	-0.116177
O2	O	1.321060	0.129624	-0.116199
O3	O	1.516876	0.001849	-0.116175
O4	O	1.496594	0.246276	-0.116201
O5	O	1.516860	0.001857	0.116345
O6	O	1.321045	0.129632	0.116321
O7	O	1.692395	0.118509	0.116343
Zn8	Zn	1.506717	0.124072	0.153250
Zn9	Zn	1.506738	0.124061	-0.153106
O10	O	1.496579	0.246284	0.116319
C11	C	1.273532	0.128788	0.000058
C12	C	1.131938	0.126275	0.000050
C13	C	1.064925	0.044975	0.000072
C14	C	0.972273	0.083376	-0.114573
C15	C	0.972292	0.083403	0.114673
C16	C	1.041151	0.164709	-0.114690
C17	C	1.041179	0.164725	0.114659
C18	C	0.948554	0.203186	-0.000014
C19	C	1.516026	-0.029446	0.000085
C20	C	1.513502	-0.122708	0.000086
C21	C	1.386093	-0.338330	0.000059
C22	C	1.445250	-0.398988	0.114709
C23	C	1.508935	-0.293461	0.000075
C24	C	1.445294	-0.398979	-0.114537
C25	C	1.504515	-0.458400	0.000058
C26	C	1.568126	-0.352890	0.114820
C27	C	1.568153	-0.352875	-0.114530
C28	C	1.627399	-0.413515	0.000148
C29	C	1.511478	-0.198443	0.000086
C30	C	1.501982	-0.553417	0.000058
C31	C	1.739922	0.119345	0.000083
C32	C	1.881517	0.121858	0.000082
C33	C	1.497429	0.277579	0.000056
C34	C	1.499953	0.370841	0.000046
N35	N	1.506713	0.124078	0.362329
N36	N	1.506752	0.124048	-0.362185
C37	C	1.416127	0.183150	0.453521
C38	C	1.531388	0.200146	0.546705
C39	C	1.391501	0.107089	0.546701
C40	C	1.622032	0.141112	0.453461
C41	C	1.482069	0.048022	0.453449
C42	C	1.597414	0.064986	0.546591
H43	H	0.941742	0.048973	-0.211493
C44	C	1.082152	0.211130	-0.245791
C45	C	1.224605	0.222051	-0.270067
C46	C	1.265609	0.268465	-0.401170
C47	C	1.164161	0.303958	-0.507997
C48	C	1.021698	0.293037	-0.483724
C49	C	0.980694	0.246623	-0.352621
H50	H	1.299712	0.195776	-0.190984
H51	H	1.371070	0.276549	-0.419137
H52	H	1.194515	0.338316	-0.605047
H53	H	0.946591	0.319312	-0.562807
H54	H	0.875233	0.238539	-0.334654
H55	H	1.620072	-0.332436	-0.211456
H56	H	1.294052	0.092733	0.587660
H57	H	1.461162	-0.016264	0.412455
C58	C	1.312735	0.250694	0.398296
C59	C	1.202988	0.224750	0.306221
C60	C	1.099605	0.292295	0.250993
C61	C	1.105968	0.385783	0.287840
C62	C	1.215719	0.411731	0.379921
C63	C	1.319103	0.344186	0.435148
H64	H	1.198274	0.155541	0.278939
H65	H	1.018360	0.273086	0.182829
H66	H	1.029437	0.435783	0.246957
H67	H	1.220434	0.480940	0.407202
H68	H	1.400348	0.363395	0.503313
C69	C	1.559570	0.287019	0.602056
C70	C	1.461313	0.338488	0.696255
C71	C	1.489477	0.425364	0.751600
C72	C	1.615897	0.460770	0.712747
C73	C	1.714162	0.409300	0.618543
C74	C	1.685998	0.322424	0.563198
H75	H	1.367722	0.312279	0.725021
H76	H	1.416734	0.463465	0.821336
H77	H	1.636745	0.525080	0.753717
H78	H	1.807753	0.435509	0.589777
H79	H	1.758741	0.284323	0.493462
H80	H	1.284128	-0.305636	0.000168
H81	H	1.719502	0.155546	0.412677
H82	H	1.674119	0.015015	0.587199
H83	H	1.393286	-0.419405	0.211631
C84	C	0.931080	0.036924	0.245619
C85	C	0.983030	-0.055770	0.270779
C86	C	0.941824	-0.102256	0.401717
C87	C	0.848668	-0.056048	0.507495
C88	C	0.796712	0.036650	0.482338
C89	C	0.837918	0.083136	0.351400
H90	H	1.051995	-0.089980	0.192474
H91	H	0.980286	-0.170878	0.420340
H92	H	0.818165	-0.090460	0.604423
H93	H	0.727747	0.070860	0.560643
H94	H	0.799456	0.151758	0.332777
H95	H	1.115541	-0.021859	-0.000064
C96	C	1.638245	-0.325467	0.245914
C97	C	1.653533	-0.231563	0.270178
C98	C	1.723645	-0.204137	0.401272
C99	C	1.778469	-0.270615	0.508101
C100	C	1.763183	-0.364524	0.483840
C101	C	1.693071	-0.391950	0.352746
H102	H	1.612947	-0.182347	0.191094
H103	H	1.734960	-0.134619	0.419231
H104	H	1.830371	-0.250312	0.605145
H105	H	1.803769	-0.413740	0.562924
H106	H	1.681756	-0.461468	0.334787
C107	C	1.765264	-0.457486	0.000233
C108	C	1.856644	-0.442514	0.121605
C109	C	1.994507	-0.486486	0.121696
C110	C	2.040990	-0.545430	0.000414
C111	C	1.949608	-0.560405	-0.120968
C112	C	1.811746	-0.516433	-0.121058
H113	H	1.822236	-0.398878	0.211394
H114	H	2.062154	-0.475400	0.211551
H115	H	2.143045	-0.577981	0.000481
H116	H	1.984016	-0.604041	-0.210756
H117	H	1.744099	-0.527519	-0.210914
H118	H	0.898203	0.270090	-0.000084
H119	H	1.071742	0.199100	0.211583
H120	H	1.393327	-0.419372	-0.211472
