data_functionalizedCrystal
_audit_creation_method	'MofGen! by Chris Wilmer'
_symmetry_space_group_name_H-M	'P1'
_symmetry_Int_Tables_number	1
_symmetry_cell_setting	triclinic
loop_
_symmetry_equiv_pos_as_xyz
  x,y,z
_cell_length_a	12.811415
_cell_length_b	11.792254
_cell_length_c	11.892095
_cell_angle_alpha	93.927132
_cell_angle_beta	88.492960
_cell_angle_gamma	95.879489
loop_
_atom_site_label
_atom_site_type_symbol
_atom_site_fract_x
_atom_site_fract_y
_atom_site_fract_z
O1	O	0.136267	-1.514924	-0.108002
O2	O	0.150973	-1.184672	-0.109505
O3	O	-0.008022	-1.356914	-0.093203
O4	O	0.295262	-1.342682	-0.124303
O5	O	0.005214	-1.342552	0.093447
O6	O	0.164209	-1.170310	0.077146
O7	O	0.149503	-1.500563	0.078648
Zn8	Zn	0.158957	-1.333156	0.107532
Zn9	Zn	0.141518	-1.352078	-0.138388
O10	O	0.308498	-1.328321	0.062347
C11	C	0.156665	-1.135195	-0.016084
C12	C	0.153892	-1.009165	-0.015798
C13	C	0.151639	-0.906815	-0.015569
C14	C	0.148822	-0.778412	-0.015278
C15	C	-0.040231	-1.348495	0.004101
C16	C	-0.155925	-1.344794	0.015958
C17	C	-0.387745	-1.353478	-0.165272
C18	C	-0.496449	-1.350000	-0.154137
C19	C	-0.482039	-1.334355	0.049361
C20	C	-0.373335	-1.337832	0.038226
C21	C	-0.326192	-1.347395	-0.069094
C22	C	-0.217486	-1.350880	-0.080228
C23	C	-0.203077	-1.335227	0.123270
C24	C	-0.311782	-1.331749	0.134405
C25	C	0.340707	-1.336739	-0.034960
C26	C	0.456400	-1.340441	-0.046824
N27	N	0.170859	-1.320251	0.275366
C28	C	0.143811	-0.550039	-0.014770
C29	C	0.146584	-0.676068	-0.015047
N30	N	0.129609	-1.364992	-0.306221
C31	C	0.046735	-1.454793	0.524740
C32	C	0.055061	-1.445781	0.642228
C33	C	0.195832	-1.293209	0.627833
C34	C	0.187506	-1.302221	0.510345
C35	C	0.112956	-1.383017	0.458802
C36	C	0.104635	-1.392034	0.341311
C37	C	0.245400	-1.239458	0.326919
C38	C	0.253727	-1.230445	0.444408
H39	H	-0.179105	-1.358671	-0.167613
O40	O	-0.556093	-1.355960	-0.247681
C41	C	-0.491163	-1.365107	-0.344786
H42	H	-0.415678	-1.401164	-0.322482
H43	H	-0.533916	-1.424545	-0.412099
H44	H	-0.471393	-1.277011	-0.378300
O45	O	0.268103	-1.214669	0.678057
C46	C	0.216662	-1.138719	0.751772
H47	H	0.136642	-1.181551	0.777674
H48	H	0.265886	-1.114979	0.829958
H49	H	0.205861	-1.058214	0.707294
O50	O	-0.527960	-1.324934	0.153536
C51	C	-0.579153	-1.224355	0.164937
H52	H	-0.597922	-1.197901	0.077884
H53	H	-0.655088	-1.240681	0.216059
H54	H	-0.525849	-1.153153	0.210088
O55	O	0.326007	-1.151909	0.494622
C56	C	0.274583	-1.075947	0.568341
H57	H	0.194564	-1.118767	0.594258
H58	H	0.323820	-1.052207	0.646518
H59	H	0.263784	-0.995443	0.523860
O60	O	-0.025805	-1.533161	0.474715
C61	C	-0.127051	-1.511249	0.514017
H62	H	-0.125854	-1.417897	0.546458
H63	H	-0.184728	-1.529572	0.442087
H64	H	-0.152441	-1.568557	0.585283
O65	O	-0.009363	-1.515343	0.706342
C66	C	-0.069189	-1.448529	0.780966
H67	H	-0.074009	-1.361712	0.745818
H68	H	-0.151637	-1.493687	0.790752
H69	H	-0.030301	-1.436163	0.866669
H70	H	-0.350180	-1.323959	0.221782
O71	O	0.309626	-1.169790	0.262703
C72	C	0.286319	-1.195093	0.147948
H73	H	0.202591	-1.237687	0.140353
H74	H	0.294234	-1.112714	0.102175
H75	H	0.343284	-1.255336	0.108523
O76	O	0.032060	-1.470393	0.291332
C77	C	-0.069153	-1.448414	0.330690
H78	H	-0.067901	-1.355047	0.363098
H79	H	-0.126874	-1.466738	0.258802
H80	H	-0.094526	-1.505681	0.401994
H81	H	-0.349362	-1.361274	-0.252656
O82	O	-0.143219	-1.329121	0.216672
C83	C	-0.068643	-1.232593	0.215171
H84	H	-0.097623	-1.167417	0.159988
H85	H	-0.057267	-1.192794	0.304653
H86	H	0.009265	-1.259513	0.179660
