data_functionalizedCrystal
_audit_creation_method	'MofGen! by Chris Wilmer'
_symmetry_space_group_name_H-M	'P1'
_symmetry_Int_Tables_number	1
_symmetry_cell_setting	triclinic
loop_
_symmetry_equiv_pos_as_xyz
  x,y,z
_cell_length_a	17.019282
_cell_length_b	19.188924
_cell_length_c	16.098538
_cell_angle_alpha	92.711427
_cell_angle_beta	91.140572
_cell_angle_gamma	83.265903
loop_
_atom_site_label
_atom_site_type_symbol
_atom_site_fract_x
_atom_site_fract_y
_atom_site_fract_z
O1	O	1.046075	0.089163	0.005789
O2	O	0.817211	0.099776	-0.010632
O3	O	0.938250	-0.007153	-0.001938
O4	O	0.925036	0.196093	-0.002905
O5	O	0.931179	-0.000932	0.136067
O6	O	0.810140	0.105998	0.127373
O7	O	1.039005	0.095385	0.143794
Zn8	Zn	0.923450	0.101679	0.157495
Zn9	Zn	0.932766	0.093482	-0.024333
O10	O	0.917966	0.202315	0.135100
C11	C	0.784395	0.102364	0.056269
C12	C	0.697150	0.100795	0.050010
C13	C	0.652312	0.103448	0.122297
C14	C	0.570337	0.101964	0.116418
C15	C	0.533200	0.097831	0.038250
C16	C	0.578044	0.095176	-0.034043
C17	C	0.660019	0.096655	-0.028163
C18	C	0.285885	0.093190	0.016732
C19	C	0.203904	0.091712	0.010858
C20	C	0.196202	0.098499	0.161319
C21	C	0.278178	0.099983	0.167192
C22	C	0.323015	0.097324	0.094899
C23	C	0.449409	0.096316	0.032239
C24	C	0.406806	0.098834	0.100912
C25	C	0.934288	-0.030056	0.067035
C26	C	0.933006	-0.107567	0.066945
C27	C	0.936261	-0.147360	-0.008324
C28	C	0.935046	-0.220189	-0.008418
C29	C	0.930591	-0.253223	0.066764
C30	C	0.927330	-0.213420	0.142043
C31	C	0.928537	-0.140592	0.142134
N32	N	0.970552	-0.370153	0.125825
N33	N	0.969407	-0.439337	0.125733
C34	C	0.926950	-0.472651	0.066494
N35	N	0.885693	-0.434168	0.007338
N36	N	0.886842	-0.364978	0.007427
C37	C	0.929280	-0.332193	0.066673
C38	C	0.928888	-0.591414	-0.008882
C39	C	0.927667	-0.664243	-0.008973
C40	C	0.919959	-0.657474	0.141491
C41	C	0.921171	-0.584645	0.141579
C42	C	0.925640	-0.551620	0.066390
C43	C	1.071820	0.092798	0.076891
C44	C	1.159066	0.094366	0.083145
C45	C	0.921928	0.225217	0.066125
C46	C	0.923210	0.302728	0.066210
N47	N	0.917098	0.107273	0.281588
N48	N	0.939124	0.087882	-0.148425
C49	C	0.968491	0.061904	0.328865
C50	C	0.964054	0.065824	0.415735
C51	C	0.908229	0.115117	0.455327
C52	C	0.856831	0.160488	0.408044
C53	C	0.861264	0.156564	0.321175
C54	C	0.892159	0.129329	0.717423
C55	C	0.887731	0.133251	0.804298
C56	C	0.994954	0.038586	0.811983
C57	C	0.999386	0.034669	0.725112
C58	C	0.947985	0.080038	0.677836
C59	C	0.903695	0.119127	0.544122
C60	C	0.952516	0.076025	0.589042
H61	H	0.322382	0.091022	-0.042134
H62	H	0.925883	-0.108192	0.203429
H63	H	0.918527	-0.552245	0.202872
F64	F	0.922583	-0.248578	0.222056
H65	H	0.932521	-0.564522	-0.070105
F66	F	1.058802	-0.017792	0.682977
H67	H	0.437047	0.102195	0.164556
H68	H	0.819414	0.193508	0.282682
H69	H	0.533835	0.104113	0.175282
F70	F	1.049653	-0.009697	0.862302
F71	F	0.931127	-0.706594	-0.089090
F72	F	0.148478	0.101327	0.238253
H73	H	0.937693	-0.252594	-0.069714
H74	H	0.850307	0.166272	0.678937
F75	F	0.409881	0.091893	-0.050951
H76	H	0.939897	-0.120475	-0.069549
F77	F	0.915213	-0.692626	0.221505
H78	H	1.013953	0.021768	0.296635
F79	F	1.018751	0.017537	0.466051
H80	H	0.842269	0.173394	0.836529
H81	H	0.811372	0.200621	0.440284
H82	H	0.997966	0.035888	0.556804
H83	H	0.858242	0.159263	0.576365
H84	H	0.308409	0.103345	0.230845
F85	F	0.691827	0.107852	0.205495
H86	H	0.547802	0.091806	-0.097689
F87	F	0.164382	0.087316	-0.072343
F88	F	0.707738	0.093829	-0.105101
