data_functionalizedCrystal
_audit_creation_method	'MofGen! by Chris Wilmer'
_symmetry_space_group_name_H-M	'P1'
_symmetry_Int_Tables_number	1
_symmetry_cell_setting	triclinic
loop_
_symmetry_equiv_pos_as_xyz
  x,y,z
_cell_length_a	12.827893
_cell_length_b	12.827892
_cell_length_c	12.827885
_cell_angle_alpha	90.032871
_cell_angle_beta	89.983682
_cell_angle_gamma	89.974292
loop_
_atom_site_label
_atom_site_type_symbol
_atom_site_fract_x
_atom_site_fract_y
_atom_site_fract_z
Zn1	Zn	1.597615	0.415905	-0.590744
Zn2	Zn	1.597486	0.590682	-0.415995
Zn3	Zn	1.422856	0.415964	-0.416027
Zn4	Zn	1.422819	0.590613	-0.590704
O5	O	1.510194	0.503291	-0.503367
O6	O	1.743834	0.439094	-0.567567
O7	O	1.574283	0.567559	-0.269763
O8	O	1.446108	0.269720	-0.439233
O9	O	1.743739	0.567502	-0.439179
O10	O	1.574503	0.269677	-0.567597
O11	O	1.445983	0.439195	-0.269786
O12	O	1.276615	0.439128	-0.439194
O13	O	1.446044	0.567384	-0.736945
O14	O	1.276588	0.567441	-0.567529
O15	O	1.574466	0.439026	-0.736975
O16	O	1.574246	0.736909	-0.439140
O17	O	1.445919	0.736858	-0.567498
C18	C	1.238684	0.503284	-0.503361
C19	C	1.122531	0.503307	-0.503384
C20	C	1.510093	0.774801	-0.503334
C21	C	1.510145	0.890954	-0.503355
C22	C	1.510265	0.503191	-0.775938
C23	C	1.510295	0.503148	-0.892091
C24	C	1.782764	0.503299	-0.503374
C25	C	1.898917	0.503302	-0.503377
C26	C	1.950749	0.439770	-0.566901
C27	C	2.070799	0.439772	-0.566906
C28	C	1.446623	0.942748	-0.566821
C29	C	1.446676	1.062799	-0.566844
C30	C	1.510290	1.230721	-0.503411
C31	C	1.510244	1.114568	-0.503397
C32	C	1.573850	0.439620	-0.943890
C33	C	1.573882	0.439575	-1.063941
C34	C	1.510183	0.503316	-0.231857
C35	C	1.510355	0.503064	-0.115705
H36	H	1.906247	0.385380	-0.621288
Br37	Br	1.600905	1.040343	-0.412833
Br38	Br	1.664472	0.348988	-0.869683
H39	H	1.455945	0.557459	-1.071165
Br40	Br	2.145084	0.349099	-0.657550
Br41	Br	2.048253	0.593964	-0.412719
H42	H	1.392195	0.898217	-0.621137
H43	H	1.628297	0.385190	-1.108487
Br44	Br	1.356035	1.137030	-0.657423
Br45	Br	1.419632	0.593740	-0.966298
H46	H	1.943419	0.557701	-0.449000
H47	H	1.564565	0.935488	-0.449033
