data_functionalizedCrystal
_audit_creation_method	'MofGen! by Chris Wilmer'
_symmetry_space_group_name_H-M	'P1'
_symmetry_Int_Tables_number	1
_symmetry_cell_setting	triclinic
loop_
_symmetry_equiv_pos_as_xyz
  x,y,z
_cell_length_a	19.077312
_cell_length_b	16.625545
_cell_length_c	19.076919
_cell_angle_alpha	87.727920
_cell_angle_beta	85.331053
_cell_angle_gamma	87.731596
loop_
_atom_site_label
_atom_site_type_symbol
_atom_site_fract_x
_atom_site_fract_y
_atom_site_fract_z
Zn1	Zn	1.061644	-0.386153	0.355274
Zn2	Zn	1.311644	-0.136153	0.605274
Zn3	Zn	1.561644	0.113847	0.855274
Zn4	Zn	1.811644	0.363847	1.105274
Zn5	Zn	1.066297	-0.515779	0.237395
Zn6	Zn	1.316297	-0.265779	0.487395
Zn7	Zn	1.566297	-0.015779	0.737395
Zn8	Zn	1.816297	0.234221	0.987395
Zn9	Zn	0.948502	-0.375770	0.242142
Zn10	Zn	1.198502	-0.125770	0.492142
Zn11	Zn	1.448502	0.124230	0.742142
Zn12	Zn	1.698502	0.374230	0.992142
Zn13	Zn	0.943728	-0.515745	0.359978
Zn14	Zn	1.193728	-0.265745	0.609978
Zn15	Zn	1.443728	-0.015745	0.859978
Zn16	Zn	1.693728	0.234255	1.109978
O17	O	1.005043	-0.448362	0.298697
O18	O	1.255043	-0.198362	0.548697
O19	O	1.505043	0.051638	0.798697
O20	O	1.755043	0.301638	1.048697
O21	O	1.160907	-0.407707	0.335682
O22	O	1.410907	-0.157707	0.585682
O23	O	1.660907	0.092293	0.835682
O24	O	1.910907	0.342293	1.085682
O25	O	1.054616	-0.492875	0.139377
O26	O	1.304616	-0.242875	0.389377
O27	O	1.554616	0.007125	0.639377
O28	O	1.804616	0.257125	0.889377
O29	O	0.963561	-0.264318	0.257167
O30	O	1.213561	-0.014318	0.507167
O31	O	1.463561	0.235682	0.757167
O32	O	1.713561	0.485682	1.007167
O33	O	1.164325	-0.502943	0.249077
O34	O	1.414325	-0.252943	0.499077
O35	O	1.664325	-0.002943	0.749077
O36	O	1.914325	0.247057	0.999077
O37	O	1.046686	-0.271946	0.340285
O38	O	1.296686	-0.021946	0.590285
O39	O	1.546686	0.228054	0.840285
O40	O	1.796686	0.478054	1.090285
O41	O	0.968072	-0.390011	0.142864
O42	O	1.218072	-0.140011	0.392864
O43	O	1.468072	0.109989	0.642864
O44	O	1.718072	0.359989	0.892864
O45	O	0.849223	-0.389978	0.261728
O46	O	1.099223	-0.139978	0.511728
O47	O	1.349223	0.110022	0.761728
O48	O	1.599223	0.360022	1.011728
O49	O	0.955425	-0.502886	0.458001
O50	O	1.205425	-0.252886	0.708001
O51	O	1.455425	-0.002886	0.958001
O52	O	1.705425	0.247114	1.208001
O53	O	0.845715	-0.492818	0.348301
O54	O	1.095715	-0.242818	0.598301
O55	O	1.345715	0.007182	0.848301
O56	O	1.595715	0.257182	1.098301
O57	O	1.042057	-0.407675	0.454546
O58	O	1.292057	-0.157675	0.704546
O59	O	1.542057	0.092325	0.954546
O60	O	1.792057	0.342325	1.204546
O61	O	1.049987	-0.628603	0.253637
O62	O	1.299987	-0.378603	0.503637
O63	O	1.549987	-0.128603	0.753637
O64	O	1.799987	0.121397	1.003637
O65	O	0.959936	-0.628579	0.343698
O66	O	1.209936	-0.378579	0.593698
O67	O	1.459936	-0.128579	0.843698
O68	O	1.709936	0.121421	1.093698
C69	C	0.821891	-0.440268	0.306040
C70	C	1.071891	-0.190268	0.556040
C71	C	1.321891	0.059732	0.806040
C72	C	1.571891	0.309732	1.056040
C73	C	0.743538	-0.436826	0.309199
C74	C	0.993538	-0.186826	0.559199
C75	C	1.243538	0.063174	0.809199
C76	C	1.493538	0.313174	1.059199
C77	C	0.302298	-0.412074	0.331858
C78	C	0.552298	-0.162074	0.581858
C79	C	0.802298	0.087926	0.831858
C80	C	1.052298	0.337926	1.081858
C81	C	0.375920	-0.415323	0.328886
C82	C	0.625920	-0.165323	0.578886
C83	C	0.875920	0.084677	0.828886
C84	C	1.125920	0.334677	1.078886
C85	C	0.414504	-0.466444	0.282237
C86	C	0.664504	-0.216444	0.532237
C87	C	0.914504	0.033556	0.782237
C88	C	1.164504	0.283556	1.032237
C89	C	0.379463	-0.514324	0.238561
C90	C	0.629463	-0.264324	0.488561
C91	C	0.879463	-0.014324	0.738561
C92	C	1.129463	0.235676	0.988561
C93	C	0.305842	-0.511079	0.241536
C94	C	0.555842	-0.261079	0.491536
C95	C	0.805842	-0.011079	0.741536
C96	C	1.055842	0.238921	0.991536
C97	C	0.634876	-0.481461	0.268498
C98	C	0.884876	-0.231461	0.518498
C99	C	1.134876	0.018539	0.768498
C100	C	1.384876	0.268539	1.018498
C101	C	0.708502	-0.484701	0.265525
C102	C	0.958502	-0.234701	0.515525
C103	C	1.208502	0.015299	0.765525
C104	C	1.458502	0.265299	1.015525
C105	C	0.704953	-0.385701	0.355851
C106	C	0.954953	-0.135701	0.605851
C107	C	1.204953	0.114299	0.855851
C108	C	1.454953	0.364299	1.105851
C109	C	0.631332	-0.382457	0.358820
C110	C	0.881332	-0.132457	0.608820
C111	C	1.131332	0.117543	0.858820
C112	C	1.381332	0.367543	1.108820
C113	C	0.596297	-0.430340	0.315147
C114	C	0.846297	-0.180340	0.565147
C115	C	1.096297	0.069660	0.815147
C116	C	1.346297	0.319660	1.065147
N117	N	0.489757	-0.469764	0.279197
N118	N	0.739757	-0.219764	0.529197
N119	N	0.989757	0.030236	0.779197
N120	N	1.239757	0.280236	1.029197
N121	N	0.521045	-0.427024	0.318191
N122	N	0.771045	-0.177024	0.568191
N123	N	1.021045	0.072976	0.818191
N124	N	1.271045	0.322976	1.068191
C125	C	1.004967	-0.657848	0.298678
C126	C	1.254967	-0.407848	0.548678
C127	C	1.504967	-0.157848	0.798678
C128	C	1.754967	0.092152	1.048678
C129	C	1.004998	-0.747471	0.298691
C130	C	1.254998	-0.497471	0.548691
C131	C	1.504998	-0.247471	0.798691
C132	C	1.754998	0.002529	1.048691
C133	C	1.005025	-0.820255	0.298704
C134	C	1.255025	-0.570255	0.548704
C135	C	1.505025	-0.320255	0.798704
C136	C	1.755025	-0.070255	1.048704
C137	C	1.005065	-0.911566	0.298717
C138	C	1.255065	-0.661566	0.548717
C139	C	1.505065	-0.411566	0.798717
C140	C	1.755065	-0.161566	1.048717
C141	C	1.005101	-0.984345	0.298725
C142	C	1.255101	-0.734345	0.548725
C143	C	1.505101	-0.484345	0.798725
C144	C	1.755101	-0.234345	1.048725
C145	C	1.005141	-1.075661	0.298738
C146	C	1.255141	-0.825661	0.548738
C147	C	1.505141	-0.575661	0.798738
C148	C	1.755141	-0.325661	1.048738
C149	C	1.188909	-0.456487	0.291325
C150	C	1.438909	-0.206487	0.541325
C151	C	1.688909	0.043513	0.791325
C152	C	1.938909	0.293513	1.041325
C153	C	1.267262	-0.459949	0.288184
C154	C	1.517262	-0.209949	0.538184
C155	C	1.767262	0.040051	0.788184
C156	C	2.017262	0.290051	1.038184
C157	C	0.997690	-0.456435	0.482567
C158	C	1.247690	-0.206435	0.732567
C159	C	1.497690	0.043565	0.982567
C160	C	1.747690	0.293565	1.232567
C161	C	0.994556	-0.459875	0.560921
C162	C	1.244556	-0.209875	0.810921
C163	C	1.494556	0.040125	1.060921
C164	C	1.744556	0.290125	1.310921
C165	C	1.005137	-0.238059	0.298731
C166	C	1.255137	0.011941	0.548731
C167	C	1.505137	0.261941	0.798731
C168	C	1.755137	0.511941	1.048731
C169	C	1.005177	-0.148440	0.298745
C170	C	1.255177	0.101560	0.548745
C171	C	1.505177	0.351560	0.798745
C172	C	1.755177	0.601560	1.048745
C173	C	1.012408	-0.440263	0.115541
C174	C	1.262408	-0.190263	0.365541
C175	C	1.512408	0.059737	0.615541
C176	C	1.762408	0.309737	0.865541
C177	C	1.015678	-0.436602	0.037181
C178	C	1.265678	-0.186602	0.287181
C179	C	1.515678	0.063398	0.537181
C180	C	1.765678	0.313398	0.787181
C181	C	1.038187	-0.411923	0.595934
C182	C	1.288187	-0.161923	0.845934
C183	C	1.538187	0.088077	1.095934
C184	C	1.788187	0.338077	1.345934
C185	C	1.035234	-0.415152	0.669557
C186	C	1.285234	-0.165152	0.919557
C187	C	1.535234	0.084848	1.169557
C188	C	1.785234	0.334848	1.419557
C189	C	0.988654	-0.466339	0.708165
C190	C	1.238654	-0.216339	0.958165
C191	C	1.488654	0.033661	1.208165
C192	C	1.738654	0.283661	1.458165
C193	C	0.945018	-0.514293	0.673147
C194	C	1.195018	-0.264293	0.923147
C195	C	1.445018	-0.014293	1.173147
C196	C	1.695018	0.235707	1.423147
C197	C	0.947968	-0.511059	0.599526
C198	C	1.197968	-0.261059	0.849526
C199	C	1.447968	-0.011059	1.099526
C200	C	1.697968	0.238941	1.349526
C201	C	0.974992	-0.481322	0.928542
C202	C	1.224992	-0.231322	1.178542
C203	C	1.474992	0.018678	1.428542
C204	C	1.724992	0.268678	1.678542
C205	C	0.972047	-0.484554	1.002168
C206	C	1.222047	-0.234554	1.252168
C207	C	1.472047	0.015446	1.502168
C208	C	1.722047	0.265446	1.752168
C209	C	1.062262	-0.385411	0.998573
C210	C	1.312262	-0.135411	1.248573
C211	C	1.562262	0.114589	1.498573
C212	C	1.812262	0.364589	1.748573
C213	C	1.065210	-0.382186	0.924951
C214	C	1.315210	-0.132186	1.174951
C215	C	1.565210	0.117814	1.424951
C216	C	1.815210	0.367814	1.674951
C217	C	1.021573	-0.430137	0.889939
C218	C	1.271573	-0.180137	1.139939
C219	C	1.521573	0.069863	1.389939
C220	C	1.771573	0.319863	1.639939
N221	N	0.985636	-0.469643	0.783419
N222	N	1.235636	-0.219643	1.033419
N223	N	1.485636	0.030357	1.283419
N224	N	1.735636	0.280357	1.533419
N225	N	1.024587	-0.426828	0.814686
N226	N	1.274587	-0.176828	1.064686
N227	N	1.524587	0.073172	1.314686
N228	N	1.774587	0.323172	1.564686
H229	H	0.277317	-0.550066	0.205974
H230	H	0.527317	-0.300066	0.455974
H231	H	0.777317	-0.050066	0.705974
H232	H	1.027317	0.199934	0.955974
H233	H	0.270888	-0.370441	0.369841
H234	H	0.520888	-0.120441	0.619841
H235	H	0.770888	0.129559	0.869841
H236	H	1.020888	0.379559	1.119841
H237	H	0.410884	-0.555951	0.200581
H238	H	0.660884	-0.305951	0.450581
H239	H	0.910884	-0.055951	0.700581
H240	H	1.160884	0.194049	0.950581
H241	H	1.103143	-0.340506	0.893521
H242	H	1.353143	-0.090506	1.143521
H243	H	1.603143	0.159494	1.393521
H244	H	1.853143	0.409494	1.643521
H245	H	0.934114	-0.526239	1.033601
H246	H	1.184114	-0.276239	1.283601
H247	H	1.434114	-0.026239	1.533601
H248	H	1.684114	0.223761	1.783601
H249	H	1.097788	-0.346371	1.027088
H250	H	1.347788	-0.096371	1.277088
H251	H	1.597788	0.153629	1.527088
H252	H	1.847788	0.403629	1.777088
H253	H	0.739915	-0.526333	0.227536
H254	H	0.989915	-0.276333	0.477536
H255	H	1.239915	-0.026333	0.727536
H256	H	1.489915	0.223667	0.977536
H257	H	0.939469	-0.520380	0.900044
H258	H	1.189469	-0.270380	1.150044
H259	H	1.439469	-0.020380	1.400044
H260	H	1.689469	0.229620	1.650044
H261	H	0.404442	-0.376341	0.364453
H262	H	0.654442	-0.126341	0.614453
H263	H	0.904442	0.123659	0.864453
H264	H	1.154442	0.373659	1.114453
H265	H	0.599921	-0.340832	0.396809
H266	H	0.849921	-0.090832	0.646809
H267	H	1.099921	0.159168	0.896809
H268	H	1.349921	0.409168	1.146809
H269	H	0.733487	-0.346718	0.391408
H270	H	0.983487	-0.096718	0.641408
H271	H	1.233487	0.153282	0.891408
H272	H	1.483487	0.403282	1.141408
H273	H	0.912432	-0.550099	0.571020
H274	H	1.162432	-0.300099	0.821020
H275	H	1.412432	-0.050099	1.071020
H276	H	1.662432	0.199901	1.321020
H277	H	0.907089	-0.555968	0.704588
H278	H	1.157089	-0.305968	0.954588
H279	H	1.407089	-0.055968	1.204588
H280	H	1.657089	0.194032	1.454588
H281	H	0.606360	-0.520449	0.232934
H282	H	0.856360	-0.270449	0.482934
H283	H	1.106360	-0.020449	0.732934
H284	H	1.356360	0.229551	0.982934
H285	H	1.076119	-0.370243	0.564505
H286	H	1.326119	-0.120243	0.814505
H287	H	1.576119	0.129757	1.064505
H288	H	1.826119	0.379757	1.314505
H289	H	1.070764	-0.376106	0.698061
H290	H	1.320764	-0.126106	0.948061
H291	H	1.570764	0.123894	1.198061
H292	H	1.820764	0.373894	1.448061
