data_functionalizedCrystal
_audit_creation_method	'MofGen! by Chris Wilmer'
_symmetry_space_group_name_H-M	'P1'
_symmetry_Int_Tables_number	1
_symmetry_cell_setting	triclinic
loop_
_symmetry_equiv_pos_as_xyz
  x,y,z
_cell_length_a	17.077404
_cell_length_b	19.076808
_cell_length_c	17.077396
_cell_angle_alpha	87.670636
_cell_angle_beta	89.981638
_cell_angle_gamma	92.321444
loop_
_atom_site_label
_atom_site_type_symbol
_atom_site_fract_x
_atom_site_fract_y
_atom_site_fract_z
Zn1	Zn	1.187483	-0.280255	-0.431246
Zn2	Zn	1.182110	-0.397965	-0.294699
Zn3	Zn	1.056214	-0.280275	-0.299996
Zn4	Zn	1.050905	-0.397918	-0.425927
O5	O	1.119178	-0.339103	-0.362967
O6	O	1.296617	-0.295880	-0.413142
O7	O	1.165383	-0.382381	-0.185554
O8	O	1.078098	-0.181776	-0.321849
O9	O	1.292670	-0.382361	-0.312822
O10	O	1.174541	-0.181761	-0.418278
O11	O	1.072888	-0.295914	-0.189445
O12	O	0.945664	-0.295869	-0.316691
O13	O	1.069049	-0.382282	-0.536481
O14	O	0.941763	-0.382302	-0.409213
O15	O	1.169393	-0.295835	-0.540389
O16	O	1.160235	-0.496455	-0.307664
O17	O	1.063839	-0.496421	-0.404077
C18	C	0.915231	-0.339083	-0.362950
C19	C	0.827981	-0.339092	-0.362961
C20	C	0.789044	-0.294141	-0.415271
C21	C	0.707063	-0.294145	-0.415274
C22	C	0.664021	-0.339105	-0.362971
C23	C	0.702964	-0.384057	-0.310656
C24	C	0.784944	-0.384049	-0.310649
C25	C	0.532094	-0.384073	-0.310674
C26	C	0.450109	-0.384083	-0.310682
C27	C	0.454213	-0.294170	-0.415300
C28	C	0.536192	-0.294161	-0.415293
C29	C	0.575130	-0.339115	-0.362978
C30	C	1.110899	-0.521977	-0.354736
C31	C	1.107429	-0.600211	-0.351241
C32	C	1.155974	-0.636898	-0.399845
C33	C	1.152711	-0.710407	-0.396563
C34	C	1.100906	-0.747229	-0.344672
C35	C	1.052356	-0.710537	-0.296066
C36	C	1.055616	-0.637029	-0.299353
C37	C	1.085772	-0.967081	-0.329457
C38	C	1.082517	-1.040595	-0.326172
C39	C	1.182871	-1.040459	-0.426670
C40	C	1.186130	-0.966950	-0.429949
C41	C	1.137577	-0.930265	-0.381346
N42	N	1.097570	-0.822367	-0.341313
N43	N	1.140909	-0.855128	-0.384709
C44	C	1.323922	-0.339124	-0.362984
C45	C	1.411171	-0.339132	-0.362992
C46	C	1.119228	-0.339051	-0.567714
C47	C	1.119249	-0.339029	-0.654965
C48	C	1.127511	-0.155515	-0.371247
C49	C	1.131062	-0.077281	-0.374776
C50	C	1.171500	-0.294012	-0.697991
C51	C	1.171511	-0.293989	-0.779972
C52	C	1.119274	-0.338986	-0.818926
C53	C	1.067017	-0.384005	-0.775894
C54	C	1.067003	-0.384024	-0.693914
C55	C	1.067051	-0.383963	-0.946766
C56	C	1.067065	-0.383945	-1.028751
C57	C	1.171558	-0.293927	-1.032824
C58	C	1.171544	-0.293947	-0.950844
C59	C	1.119288	-0.338967	-0.907818
C60	C	1.119176	-0.339104	-0.159019
C61	C	1.119316	-0.338928	-0.071778
H62	H	0.824083	-0.257532	-0.457864
H63	H	0.816645	-0.420652	-0.268052
C64	C	0.664240	-0.244709	-0.472834
C65	C	0.606534	-0.275298	-0.533034
C66	C	0.563715	-0.225861	-0.590602
C67	C	0.578602	-0.145836	-0.587970
C68	C	0.636310	-0.115243	-0.527768
C69	C	0.679129	-0.164679	-0.470199
H70	H	0.595512	-0.334541	-0.534984
H71	H	0.520996	-0.248509	-0.635168
H72	H	0.546905	-0.109240	-0.630586
H73	H	0.647332	-0.055999	-0.525817
H74	H	0.721848	-0.142031	-0.425633
H75	H	1.024527	-0.420584	-1.060465
H76	H	1.228314	-0.936971	-0.472203
C77	C	1.228963	-0.244514	-0.655145
C78	C	1.226188	-0.164495	-0.670026
C79	C	1.283650	-0.114992	-0.627183
C80	C	1.343887	-0.145509	-0.569459
C81	C	1.346664	-0.225533	-0.554576
C82	C	1.289202	-0.275035	-0.597419
H83	H	1.181594	-0.141900	-0.712759
H84	H	1.281593	-0.055754	-0.638201
H85	H	1.386424	-0.108865	-0.537744
H86	H	1.391257	-0.248127	-0.511843
H87	H	1.291258	-0.334273	-0.586401
C88	C	1.009534	-0.433548	-0.646579
C89	C	0.949281	-0.403057	-0.591584
C90	C	0.891809	-0.452581	-0.544248
C91	C	0.894590	-0.532595	-0.551906
C92	C	0.954845	-0.563089	-0.606903
C93	C	1.012317	-0.513566	-0.654239
H94	H	0.947220	-0.343823	-0.585913
H95	H	0.847204	-0.430006	-0.503536
H96	H	0.852046	-0.569255	-0.516865
H97	H	0.956906	-0.622324	-0.612574
H98	H	1.056922	-0.536141	-0.694952
H99	H	1.222400	-1.070336	-0.466241
C100	C	1.009561	-0.433514	-0.818733
C101	C	0.920581	-0.427776	-0.807710
C102	C	0.863128	-0.477293	-0.850543
C103	C	0.894655	-0.532548	-0.904401
C104	C	0.983639	-0.538289	-0.915427
C105	C	1.041092	-0.488772	-0.872593
H106	H	0.897239	-0.386870	-0.767839
H107	H	0.797256	-0.473043	-0.842381
H108	H	0.852125	-0.569204	-0.936109
H109	H	1.006980	-0.579194	-0.955298
H110	H	1.106964	-0.493022	-0.880756
H111	H	0.667913	-0.420661	-0.268066
C112	C	0.402757	-0.433529	-0.253143
C113	C	0.414246	-0.427668	-0.164179
C114	C	0.366892	-0.477112	-0.106639
C115	C	0.308049	-0.532418	-0.138062
C116	C	0.296557	-0.538281	-0.227030
C117	C	0.343911	-0.488837	-0.284570
H118	H	0.457808	-0.386725	-0.140914
H119	H	0.375400	-0.472771	-0.040779
H120	H	0.272995	-0.569019	-0.095467
H121	H	0.252995	-0.579224	-0.250295
H122	H	0.335403	-0.493178	-0.350430
C123	C	1.229004	-0.244449	-0.907995
C124	C	1.197485	-0.189201	-0.854123
C125	C	1.254943	-0.139700	-0.811275
C126	C	1.343922	-0.145446	-0.822298
C127	C	1.375446	-0.200696	-0.876173
C128	C	1.317987	-0.250197	-0.919021
H129	H	1.131613	-0.184945	-0.845961
H130	H	1.231607	-0.098800	-0.771393
H131	H	1.386456	-0.108802	-0.790579
H132	H	1.441317	-0.204952	-0.884335
H133	H	1.341324	-0.291097	-0.958903
C134	C	0.574928	-0.433522	-0.253129
C135	C	0.563885	-0.427682	-0.164167
C136	C	0.606721	-0.477132	-0.106627
C137	C	0.660599	-0.532422	-0.138050
C138	C	0.671645	-0.538265	-0.227017
C139	C	0.628809	-0.488815	-0.284557
H140	H	0.523999	-0.386751	-0.140901
H141	H	0.598544	-0.472807	-0.040767
H142	H	0.692309	-0.569028	-0.095455
H143	H	0.711531	-0.579196	-0.250282
H144	H	0.636986	-0.493140	-0.350417
H145	H	0.571235	-0.257556	-0.457887
H146	H	1.040327	-1.070573	-0.283915
H147	H	0.422506	-0.257566	-0.457895
H148	H	1.198163	-0.606922	-0.442097
C149	C	1.206117	-0.750758	-0.450027
C150	C	1.295808	-0.740585	-0.444145
C151	C	1.349218	-0.780934	-0.497613
C152	C	1.312938	-0.831454	-0.556962
C153	C	1.223243	-0.841629	-0.562845
C154	C	1.169833	-0.801280	-0.509378
H155	H	1.322669	-0.703185	-0.400209
H156	H	1.415616	-0.773401	-0.493257
H157	H	1.352475	-0.861322	-0.596541
H158	H	1.196382	-0.879029	-0.606781
H159	H	1.103434	-0.808813	-0.513734
C160	C	1.032370	-0.926739	-0.275985
C161	C	1.038384	-0.936899	-0.186301
C162	C	0.984980	-0.896555	-0.132823
C163	C	0.925561	-0.846051	-0.169029
C164	C	0.919544	-0.835888	-0.258718
C165	C	0.972948	-0.876232	-0.312195
H166	H	1.082372	-0.974287	-0.159495
H167	H	0.989435	-0.904078	-0.066430
H168	H	0.886028	-0.816186	-0.129442
H169	H	0.875556	-0.798500	-0.285524
H170	H	0.968494	-0.868709	-0.378589
C171	C	1.002218	-0.596671	-0.245885
C172	C	0.945234	-0.637170	-0.188804
C173	C	0.891831	-0.596813	-0.135338
C174	C	0.895412	-0.515957	-0.138954
C175	C	0.952397	-0.475453	-0.196038
C176	C	1.005800	-0.515811	-0.249503
H177	H	0.942581	-0.697028	-0.186125
H178	H	0.849647	-0.626796	-0.093080
H179	H	0.855880	-0.486082	-0.099375
H180	H	0.955050	-0.415595	-0.198716
H181	H	1.047985	-0.485827	-0.291761
C182	C	1.229039	-0.244401	-1.080147
C183	C	1.289290	-0.274892	-1.135143
C184	C	1.346772	-0.225370	-1.182468
C185	C	1.344004	-0.145357	-1.174797
C186	C	1.283750	-0.114861	-1.119799
C187	C	1.226268	-0.164383	-1.072474
H188	H	1.291341	-0.334127	-1.140823
H189	H	1.391376	-0.247945	-1.223181
H190	H	1.386555	-0.108698	-1.209830
H191	H	1.281699	-0.055627	-1.114118
H192	H	1.181664	-0.141808	-1.031760
H193	H	1.010172	-0.740523	-0.253818
H194	H	1.214060	-0.257334	-0.815001
H195	H	1.024487	-0.420612	-0.911737
