data_functionalizedCrystal
_audit_creation_method	'MofGen! by Chris Wilmer'
_symmetry_space_group_name_H-M	'P1'
_symmetry_Int_Tables_number	1
_symmetry_cell_setting	triclinic
loop_
_symmetry_equiv_pos_as_xyz
  x,y,z
_cell_length_a	15.297475
_cell_length_b	12.827892
_cell_length_c	15.298431
_cell_angle_alpha	99.708308
_cell_angle_beta	88.369029
_cell_angle_gamma	99.681360
loop_
_atom_site_label
_atom_site_type_symbol
_atom_site_fract_x
_atom_site_fract_y
_atom_site_fract_z
Zn1	Zn	1.253580	0.521972	-0.726690
Zn2	Zn	1.278836	0.731184	-0.580204
Zn3	Zn	1.132428	0.532135	-0.554916
Zn4	Zn	1.107078	0.672343	-0.701340
O5	O	1.192980	0.614408	-0.640788
O6	O	1.379514	0.570097	-0.728450
O7	O	1.280593	0.733657	-0.454266
O8	O	1.148538	0.384553	-0.577728
O9	O	1.398069	0.723803	-0.620828
O10	O	1.237548	0.377087	-0.703930
O11	O	1.173028	0.587417	-0.435687
O12	O	1.006481	0.530362	-0.553148
O13	O	1.105333	0.623518	-0.827286
O14	O	0.987857	0.633372	-0.660725
O15	O	1.212967	0.513042	-0.845911
O16	O	1.256013	0.869612	-0.596247
O17	O	1.129823	0.826382	-0.685245
C18	C	1.192928	0.885913	-0.640763
C19	C	1.192981	1.002070	-0.640795
C20	C	0.965385	0.576585	-0.601442
C21	C	0.868015	0.560425	-0.584630
C22	C	1.153505	0.560583	-0.869272
C23	C	1.136683	0.537646	-0.966638
C24	C	0.554916	0.729918	-0.760945
C25	C	0.646400	0.745110	-0.776738
C26	C	0.701808	0.698940	-0.728712
C27	C	0.665723	0.637575	-0.664891
C28	C	0.574230	0.622389	-0.649092
C29	C	0.721123	0.591411	-0.616859
C30	C	0.685038	0.530046	-0.553038
C31	C	0.593554	0.514862	-0.537242
C32	C	0.538146	0.561032	-0.585267
C33	C	0.812615	0.606597	-0.632659
C34	C	0.831930	0.499068	-0.520806
C35	C	0.740445	0.483876	-0.505013
C36	C	1.421465	0.652380	-0.680288
C37	C	1.518831	0.668561	-0.697120
C38	C	1.193053	0.341843	-0.640836
C39	C	1.193084	0.225692	-0.640857
C40	C	1.255477	1.075208	-0.596826
C41	C	1.255533	1.195263	-0.596859
C42	C	1.072775	0.450726	-1.002701
C43	C	1.056959	0.429175	-1.094180
C44	C	1.105054	0.494536	-1.149605
C45	C	1.168968	0.581453	-1.113543
C46	C	1.184781	0.603011	-1.022055
C47	C	1.217059	0.646821	-1.168959
C48	C	1.280973	0.733738	-1.132897
C49	C	1.296784	0.755292	-1.041418
C50	C	1.248689	0.689931	-0.985992
C51	C	1.201246	0.625263	-1.260448
C52	C	1.313252	0.777548	-1.279802
C53	C	1.329068	0.799099	-1.188323
C54	C	1.232352	0.667958	-0.413201
C55	C	1.249344	0.690628	-0.315864
H56	H	0.841987	0.656560	-0.684623
C57	C	1.365642	0.848508	-1.339878
C58	C	1.456167	0.845425	-1.332596
C59	C	1.504451	0.910788	-1.387920
H60	H	1.347193	0.823306	-1.399562
H61	H	1.355447	0.920153	-1.322648
H62	H	1.466356	0.773795	-1.349831
H63	H	1.474642	0.870636	-1.272925
H64	H	1.494257	0.982432	-1.370690
H65	H	1.485995	0.885579	-1.447600
H66	H	1.565878	0.908712	-1.382981
C67	C	0.801107	0.715505	-0.746021
C68	C	0.820847	0.779102	-0.812208
C69	C	0.912313	0.794371	-0.828190
H70	H	0.831664	0.750264	-0.693109
H71	H	0.819202	0.647954	-0.764896
H72	H	0.802762	0.846640	-0.793330
H73	H	0.790313	0.744361	-0.865134
H74	H	0.930408	0.726820	-0.847065
H75	H	0.942862	0.829127	-0.775273
H76	H	0.925718	0.837514	-0.873105
H77	H	1.139521	1.028334	-0.678467
H78	H	1.149208	0.554493	-1.289800
H79	H	0.675774	0.795075	-0.828699
C80	C	1.087792	0.470927	-1.248910
C81	C	1.021543	0.380803	-1.268632
C82	C	1.005627	0.359007	-1.360108
H83	H	1.069000	0.530874	-1.267084
H84	H	1.140729	0.457309	-1.279411
H85	H	0.968617	0.394427	-1.238143
H86	H	1.040317	0.320838	-1.250480
H87	H	1.058565	0.345389	-1.390608
H88	H	0.986839	0.418959	-1.378273
H89	H	0.960683	0.297851	-1.373502
H90	H	1.381108	0.869868	-1.158948
H91	H	1.139573	1.162884	-0.678498
H92	H	0.509796	0.767510	-0.800035
C93	C	0.701099	0.417343	-0.435722
C94	C	0.609123	0.413952	-0.432155
C95	C	0.572849	0.352685	-0.368327
H96	H	0.713772	0.346551	-0.451158
H97	H	0.726202	0.448891	-0.379401
H98	H	0.584029	0.382401	-0.488464
H99	H	0.596425	0.484727	-0.416709
H100	H	0.597952	0.384233	-0.312005
H101	H	0.585528	0.281898	-0.383768
H102	H	0.510441	0.350385	-0.365892
C103	C	0.987569	0.334728	-1.133168
C104	C	0.948852	0.282083	-1.065055
C105	C	0.884933	0.195059	-1.100939
H106	H	0.943143	0.359818	-1.162237
H107	H	1.014908	0.286304	-1.174636
H108	H	0.921513	0.330499	-1.023602
H109	H	0.993256	0.256968	-1.035979
H110	H	0.912272	0.146634	-1.142407
H111	H	0.840513	0.220159	-1.130008
H112	H	0.858661	0.159323	-1.054731
H113	H	1.309035	1.258079	-0.559212
C114	C	1.020685	0.379866	-0.942385
C115	C	1.048228	0.417338	-0.854553
C116	C	1.000265	0.352075	-0.798965
H117	H	0.959215	0.381796	-0.947083
H118	H	1.030951	0.308242	-0.959551
H119	H	1.037954	0.488944	-0.837391
H120	H	1.109691	0.415404	-0.849826
H121	H	1.010532	0.280451	-0.816132
H122	H	0.938798	0.354010	-0.803672
H123	H	1.018952	0.377485	-0.739367
C124	C	1.326640	1.040145	-0.546463
C125	C	1.286707	0.982564	-0.481719
C126	C	1.352237	0.950262	-0.435299
H127	H	1.358963	0.995872	-0.586514
H128	H	1.365851	1.101574	-0.518826
H129	H	1.247512	0.921144	-0.509356
H130	H	1.254390	1.026816	-0.441650
H131	H	1.391448	1.011691	-0.407662
H132	H	1.384556	0.905993	-0.475357
H133	H	1.325153	0.911199	-0.391360
H134	H	0.463650	0.548664	-0.572414
C135	C	1.265851	0.713554	-0.886667
C136	C	1.248723	0.816467	-0.852517
C137	C	1.264529	0.838267	-0.761023
H138	H	1.228077	0.662281	-0.858716
H139	H	1.325977	0.709823	-0.875718
H140	H	1.188606	0.820189	-0.863458
H141	H	1.286492	0.867761	-0.880442
H142	H	1.324655	0.834536	-0.750075
H143	H	1.226755	0.786988	-0.733081
H144	H	1.252918	0.908098	-0.737842
H145	H	1.348816	0.826077	-1.012058
H146	H	0.564178	0.464908	-0.485265
H147	H	0.877044	0.461474	-0.481698
