data_functionalizedCrystal
_audit_creation_method	'MofGen! by Chris Wilmer'
_symmetry_space_group_name_H-M	'P1'
_symmetry_Int_Tables_number	1
_symmetry_cell_setting	triclinic
loop_
_symmetry_equiv_pos_as_xyz
  x,y,z
_cell_length_a	16.109301
_cell_length_b	15.186229
_cell_length_c	16.109301
_cell_angle_alpha	90.005167
_cell_angle_beta	83.461532
_cell_angle_gamma	90.000994
loop_
_atom_site_label
_atom_site_type_symbol
_atom_site_fract_x
_atom_site_fract_y
_atom_site_fract_z
O1	O	1.103130	0.073183	0.106867
O2	O	0.861069	0.073196	0.120166
O3	O	0.988749	0.073180	-0.007514
O4	O	0.975450	0.073199	0.234548
O5	O	0.988741	-0.073277	-0.007516
O6	O	0.861060	-0.073262	0.120164
O7	O	1.103122	-0.073274	0.106865
Zn8	Zn	0.982090	-0.096521	0.113515
Zn9	Zn	0.982101	0.096443	0.113517
O10	O	0.975441	-0.073259	0.234546
C11	C	0.830089	-0.000031	0.119627
C12	C	0.737794	-0.000027	0.118011
N13	N	0.982088	-0.228214	0.113512
C14	C	0.428796	-0.000037	0.188494
C15	C	0.515516	-0.000032	0.190020
C16	C	0.535389	-0.000031	0.038531
C17	C	0.448671	-0.000030	0.037007
C18	C	0.395376	-0.000037	0.111991
C19	C	0.568815	-0.000033	0.115041
C20	C	0.662841	-0.000028	0.116694
C21	C	0.301344	-0.000041	0.110338
C22	C	1.038644	-0.453944	0.056994
C23	C	1.038647	-0.546133	0.056992
C24	C	0.925547	-0.546128	0.170033
C25	C	0.925541	-0.453940	0.170030
C26	C	0.982094	-0.407850	0.113512
C27	C	0.982103	-0.592228	0.113513
C28	C	0.982105	-0.692184	0.113511
C29	C	0.982091	-0.307888	0.113512
C30	C	1.134101	-0.000045	0.107405
C31	C	1.226396	-0.000044	0.109020
C32	C	0.988206	-0.000049	-0.038490
C33	C	0.986591	-0.000050	-0.130785
N34	N	0.982109	0.228135	0.113512
C35	C	1.058599	-0.000040	-0.353058
C36	C	1.057075	-0.000033	-0.439778
C37	C	0.905586	-0.000028	-0.419904
C38	C	0.907111	-0.000029	-0.333185
C39	C	0.983620	-0.000040	-0.299765
C40	C	0.980571	-0.000031	-0.473204
C41	C	0.978918	-0.000023	-0.567230
C42	C	0.985273	-0.000046	-0.205733
C43	C	0.975984	-0.000028	0.265522
C44	C	0.977599	-0.000021	0.357817
H45	H	0.385405	-0.000042	0.249551
F46	F	0.413101	-0.000022	-0.044423
H47	H	1.118130	-0.000031	-0.483167
F48	F	0.551080	-0.000027	0.271445
F49	F	0.865346	-0.404881	0.230184
H50	H	1.084692	-0.416419	0.010973
F51	F	0.824164	-0.000017	-0.455480
F52	F	0.592116	-0.000030	-0.041268
H53	H	0.846050	-0.000026	-0.289791
H54	H	1.084694	-0.583660	0.010970
H55	H	1.120897	-0.000047	-0.325850
H56	H	0.879503	-0.583664	0.216050
