data_functionalizedCrystal
_audit_creation_method	'MofGen! by Chris Wilmer'
_symmetry_space_group_name_H-M	'P1'
_symmetry_Int_Tables_number	1
_symmetry_cell_setting	triclinic
loop_
_symmetry_equiv_pos_as_xyz
  x,y,z
_cell_length_a	19.377625
_cell_length_b	19.377369
_cell_length_c	14.628931
_cell_angle_alpha	72.126037
_cell_angle_beta	75.509660
_cell_angle_gamma	44.223055
loop_
_atom_site_label
_atom_site_type_symbol
_atom_site_fract_x
_atom_site_fract_y
_atom_site_fract_z
Zr1	Zr	0.544490	0.779835	-0.117176
O2	O	0.403574	0.928482	-0.181511
O3	O	0.606482	0.631193	-0.127900
O4	O	0.579381	0.779834	-0.274700
O5	O	0.430674	0.779842	0.115721
O6	O	0.696684	0.779827	-0.313576
O7	O	0.430674	0.779842	-0.034711
O8	O	0.745162	0.513937	-0.050978
O9	O	0.382196	1.045732	-0.146877
O10	O	0.697757	0.692326	-0.124702
O11	O	0.610215	0.692330	0.016576
O12	O	0.578308	0.867335	-0.156262
O13	O	0.490766	0.867340	-0.014984
Zr14	Zr	0.731574	0.779825	0.060743
Zr15	Zr	0.731574	0.779825	-0.179178
Zr16	Zr	0.544490	0.779835	0.122746
Zr17	Zr	0.510396	0.966835	-0.061939
Zr18	Zr	0.765669	0.592825	0.005507
O19	O	0.669583	0.928467	0.071468
O20	O	0.669583	0.928467	-0.269670
O21	O	0.403573	0.928482	0.159627
O22	O	0.872491	0.631179	0.125078
O23	O	0.872491	0.631179	-0.216060
O24	O	0.606481	0.631193	0.213237
O25	O	0.845391	0.779819	-0.172154
O26	O	0.696683	0.779827	0.218267
O27	O	0.579381	0.779834	0.257143
O28	O	0.845390	0.779819	-0.021722
O29	O	0.530903	1.045724	-0.196161
O30	O	0.745162	0.513937	0.139728
O31	O	0.893869	0.513929	0.090444
O32	O	0.893869	0.513929	-0.100261
O33	O	0.382196	1.045732	0.043829
O34	O	0.530903	1.045724	-0.005455
O35	O	0.697757	0.692326	0.099829
O36	O	0.785298	0.692321	-0.041449
O37	O	0.665849	0.867330	-0.073009
O38	O	0.578307	0.867335	0.068269
C39	C	0.680680	0.545922	-0.097309
C40	C	0.695154	0.466535	-0.120758
C41	C	0.514649	0.205147	0.171043
C42	C	0.528370	0.130460	0.149049
C43	C	0.619757	0.130465	0.001565
C44	C	0.606048	0.205149	0.023549
C45	C	0.553493	0.242485	0.108289
C46	C	0.644891	0.242488	-0.039205
C47	C	0.631179	0.317169	-0.017225
C48	C	0.578624	0.354513	0.067509
C49	C	0.539781	0.317167	0.130269
C50	C	0.697441	0.205155	-0.123948
C51	C	0.736284	0.242494	-0.186702
C52	C	0.722578	0.317172	-0.164719
C53	C	0.670023	0.354515	-0.079984
C54	C	0.761421	0.354518	-0.227478
C55	C	0.747709	0.429199	-0.205498
C56	C	0.656311	0.429197	-0.058004
C57	C	0.404019	0.779843	0.049339
C58	C	0.324597	0.779847	0.075661
C59	C	0.063387	0.779822	-0.252091
C60	C	-0.011236	0.779818	-0.227326
C61	C	-0.011216	0.779818	-0.061589
C62	C	0.063406	0.779827	-0.086340
C63	C	0.100703	0.779827	-0.181593
C64	C	0.100721	0.779832	-0.015842
C65	C	0.175340	0.779836	-0.040591
C66	C	0.212644	0.779833	-0.135839
C67	C	0.175322	0.779831	-0.206342
C68	C	0.063428	0.779824	0.079411
C69	C	0.100743	0.779830	0.149909
C70	C	0.175358	0.779841	0.125159
C71	C	0.212662	0.779838	0.029912
C72	C	0.212681	0.779843	0.195663
C73	C	0.287300	0.779847	0.170913
C74	C	0.287281	0.779842	0.005163
C75	C	0.872046	0.779818	-0.105772
C76	C	0.951468	0.779813	-0.132094
C77	C	0.638033	0.779830	-0.328322
C78	C	0.638033	0.779830	-0.430175
C79	C	0.595385	1.013739	0.040876
C80	C	0.580911	1.093125	0.064326
C81	C	0.576619	0.779834	-0.455230
C82	C	0.576617	0.779834	-0.560500
C83	C	0.638032	0.779830	0.271889
C84	C	0.638032	0.779830	0.373742
C85	C	0.914693	0.545909	-0.174865
C86	C	1.008590	0.466518	-0.224636
C87	C	0.680679	0.545922	0.202796
C88	C	0.695153	0.466535	0.281200
C89	C	0.914693	0.545909	0.125241
C90	C	1.008589	0.466518	0.177323
C91	C	0.361372	1.013752	-0.181674
C92	C	0.267475	1.093142	-0.233755
C93	C	0.361371	1.013752	0.118432
C94	C	0.267475	1.093142	0.168203
C95	C	0.595385	1.013739	-0.259229
C96	C	0.580911	1.093125	-0.337633
C97	C	1.006989	0.429238	-0.291476
C98	C	1.095205	0.354652	-0.338258
C99	C	1.185023	0.317343	-0.318194
C100	C	1.186621	0.354631	-0.251349
C101	C	1.098404	0.429220	-0.204573
C102	C	0.747646	0.429252	0.361487
C103	C	0.761241	0.354671	0.435168
C104	C	0.722348	0.317369	0.428559
C105	C	0.669848	0.354659	0.348265
C106	C	0.656248	0.429244	0.274588
C107	C	1.098387	0.429233	0.128033
C108	C	1.186618	0.354647	0.176961
C109	C	1.185049	0.317343	0.275177
C110	C	1.095241	0.354636	0.324470
C111	C	1.007011	0.429225	0.275544
C112	C	0.177675	1.130437	-0.184463
C113	C	0.089441	1.205045	-0.233384
C114	C	0.091009	1.242354	-0.331599
C115	C	0.180818	1.205056	-0.380894
C116	C	0.269050	1.130454	-0.331971
C117	C	0.269074	1.130430	0.235036
C118	C	0.180854	1.205037	0.281797
C119	C	0.091036	1.242348	0.261730
C120	C	0.089439	1.205057	0.194889
C121	C	0.177657	1.130458	0.148123
C122	C	0.619817	1.130404	-0.330997
C123	C	0.606236	1.204986	-0.404665
C124	C	0.553743	1.242293	-0.484965
C125	C	0.514837	1.205007	-0.491600
C126	C	0.528424	1.130422	-0.417936
H127	H	0.496985	0.347568	0.199273
N128	N	-0.007437	1.245290	0.173269
H129	H	-0.054097	1.320170	0.147358
H130	H	-0.037960	1.232231	0.234170
H131	H	1.256847	0.256607	-0.356288
N132	N	0.506965	0.779837	-0.589132
H133	H	0.521101	0.717712	-0.551950
H134	H	0.516871	0.779873	-0.660284
H135	H	0.690608	0.779833	-0.486658
H136	H	0.471854	0.235547	0.240047
H137	H	0.690618	0.779822	-0.604639
H138	H	1.259735	0.324291	0.136809
H139	H	0.002672	0.779817	0.099558
H140	H	1.259762	0.324243	-0.235021
N141	N	1.280215	0.236893	0.327942
H142	H	1.337336	0.218937	0.281805
H143	H	1.291455	0.175046	0.355707
N144	N	1.093556	0.314395	0.430403
H145	H	1.163080	0.261483	0.453907
H146	H	1.066201	0.283494	0.441080
H147	H	0.779320	0.459615	0.366886
H148	H	0.273407	0.779831	-0.155987
H149	H	0.803993	0.324317	0.500538
N150	N	0.175970	1.090202	-0.078532
H151	H	0.105686	1.125161	-0.054740
H152	H	0.202582	1.103175	-0.042039
N153	N	0.175924	1.090230	0.076056
H154	H	0.245434	1.037306	0.049470
H155	H	0.132534	1.147199	0.021868
N156	N	-0.004113	1.322804	0.312175
H157	H	-0.015425	1.384696	0.297119
H158	H	0.000661	1.296749	0.383869
H159	H	0.496732	0.100064	0.200155
N160	N	0.737022	0.236921	0.508027
H161	H	0.776183	0.218965	0.559887
H162	H	0.774288	0.175073	0.481097
N163	N	-0.051490	0.779839	-0.303389
H164	H	-0.124853	0.841970	-0.308016
H165	H	-0.039984	0.717678	-0.285585
H166	H	1.099722	0.459564	-0.150145
N167	N	0.910160	0.469432	0.328712
H168	H	0.922564	0.434474	0.398353
H169	H	0.879579	0.456441	0.298653
N170	N	-0.051435	0.779803	0.041146
H171	H	-0.104366	0.779796	0.046130
H172	H	-0.080799	0.841932	0.061810
N173	N	0.599580	0.469463	0.188033
H174	H	0.633903	0.412555	0.154321
H175	H	0.596837	0.522405	0.142410
N176	N	0.910122	0.469468	-0.313124
H177	H	0.922508	0.434527	-0.362571
H178	H	0.863518	0.544348	-0.338996
N179	N	0.627917	0.314410	0.341134
H180	H	0.553613	0.371307	0.336855
H181	H	0.644581	0.261485	0.400001
N182	N	1.100096	0.469451	0.022097
H183	H	1.170377	0.434505	-0.001691
H184	H	1.057468	0.544331	0.011551
H185	H	1.093885	0.324302	-0.392682
N186	N	-0.004159	1.322817	-0.384360
H187	H	-0.061281	1.340773	-0.338223
H188	H	0.000619	1.296804	-0.438078
H189	H	0.496736	1.100078	-0.423349
H190	H	0.472096	1.235395	-0.556989
H191	H	0.016324	1.235400	-0.193231
H192	H	0.070370	0.779826	0.227465
H193	H	0.662561	1.100040	-0.265619
H194	H	0.637919	1.235336	-0.399244
N195	N	0.539103	1.322730	-0.564419
H196	H	0.571720	1.340678	-0.548023
H197	H	0.465918	1.384585	-0.571663
H198	H	0.182083	1.235442	-0.460866
H199	H	0.093749	0.779833	-0.329657
H200	H	0.342167	1.100089	-0.372119
N201	N	0.365942	1.090197	0.256688
H202	H	0.353553	1.125152	0.306120
H203	H	0.396526	1.103175	0.195789
H204	H	0.182174	1.235387	0.336222
H205	H	0.613515	0.459598	0.011000
H206	H	0.567456	0.415327	0.085401
N207	N	0.172456	0.779824	0.298395
H208	H	0.099089	0.841942	0.301160
H209	H	0.207487	0.779788	0.339246
N210	N	0.676428	0.090203	-0.089835
H211	H	0.679218	0.037229	-0.094240
H212	H	0.745937	0.059376	-0.089362
N213	N	0.789597	0.469482	-0.273183
H214	H	0.863909	0.412615	-0.280414
H215	H	0.772858	0.522474	-0.246352
N216	N	0.712239	0.124599	-0.147652
H217	H	0.751420	0.106617	-0.210857
H218	H	0.645619	0.150539	-0.152770
N219	N	0.792956	0.202232	-0.278102
H220	H	0.795746	0.149258	-0.282507
H221	H	0.862464	0.171405	-0.277629
H222	H	0.317643	0.779853	-0.072404
N223	N	0.818087	0.314250	-0.318877
H224	H	0.877758	0.239386	-0.302455
H225	H	0.840546	0.349307	-0.355261
N226	N	0.215544	0.779848	-0.309082
H227	H	0.244962	0.717725	-0.329815
H228	H	0.268437	0.779890	-0.313982
N229	N	0.327550	0.779851	0.246951
H230	H	0.272164	0.841978	0.276285
H231	H	0.380495	0.779812	0.216755
N232	N	0.506964	0.779842	-0.380423
H233	H	0.516838	0.779842	-0.315826
H234	H	0.521133	0.717715	-0.376542
