data_functionalizedCrystal
_audit_creation_method	'MofGen! by Chris Wilmer'
_symmetry_space_group_name_H-M	'P1'
_symmetry_Int_Tables_number	1
_symmetry_cell_setting	triclinic
loop_
_symmetry_equiv_pos_as_xyz
  x,y,z
_cell_length_a	12.827893
_cell_length_b	12.759399
_cell_length_c	12.759393
_cell_angle_alpha	89.969094
_cell_angle_beta	90.020760
_cell_angle_gamma	89.984913
loop_
_atom_site_label
_atom_site_type_symbol
_atom_site_fract_x
_atom_site_fract_y
_atom_site_fract_z
Zn1	Zn	1.597687	0.418216	0.594012
Zn2	Zn	1.597577	0.593932	0.418331
Zn3	Zn	1.422924	0.418267	0.418348
Zn4	Zn	1.422914	0.593854	0.593969
O5	O	1.510276	0.506067	0.506165
O6	O	1.743908	0.441537	0.570719
O7	O	1.574367	0.570684	0.271312
O8	O	1.446156	0.271240	0.441675
O9	O	1.743828	0.570634	0.441647
O10	O	1.574554	0.271202	0.570735
O11	O	1.446050	0.441624	0.271324
O12	O	1.276687	0.441548	0.441633
O13	O	1.446140	0.570501	0.740996
O14	O	1.276680	0.570550	0.570661
O15	O	1.574545	0.441461	0.741028
O16	O	1.574358	0.740943	0.441605
O17	O	1.446034	0.740885	0.570645
C18	C	1.238766	0.506047	0.506145
C19	C	1.122613	0.506064	0.506161
C20	C	1.510212	0.779035	0.506141
C21	C	1.510280	0.895811	0.506166
C22	C	1.510354	0.505966	0.780198
C23	C	1.510387	0.505923	0.896975
C24	C	1.070852	0.569998	0.569910
C25	C	0.950802	0.570017	0.569928
C26	C	1.782846	0.506088	0.506186
C27	C	1.898999	0.506097	0.506194
C28	C	1.510368	0.232034	0.506212
C29	C	1.510408	0.115257	0.506232
C30	C	1.577174	0.950668	0.439051
C31	C	1.577241	1.060392	0.439086
C32	C	1.443510	1.060393	0.573354
C33	C	1.443449	0.950671	0.573324
C34	C	1.510258	0.506092	0.233198
C35	C	1.510427	0.505839	0.116421
C36	C	1.577252	0.438722	0.951855
C37	C	1.577270	0.438676	1.061580
C38	C	1.443554	0.573044	1.061533
C39	C	1.443532	0.573083	0.951811
H40	H	1.115415	0.624717	0.624478
H41	H	1.631687	0.384033	0.907211
C42	C	0.890670	0.643966	0.643663
N43	N	0.845376	0.699666	0.699204
C44	C	1.650830	0.364751	1.121943
N45	N	1.706238	0.309068	1.167408
H46	H	0.943505	0.451362	0.451610
H47	H	1.078050	0.451337	0.451602
H48	H	1.631593	0.906004	0.384369
C49	C	1.369878	0.890325	0.647181
N50	N	1.314475	0.844872	0.702817
H51	H	1.389126	0.627725	1.106195
C52	C	1.650827	1.120730	0.365250
N53	N	1.706253	1.166176	0.309632
C54	C	1.369989	1.120748	0.647212
N55	N	1.314607	1.166207	0.702838
C56	C	1.369968	0.647011	0.891440
N57	N	1.314559	0.702688	0.845967
