data_functionalizedCrystal
_audit_creation_method	'MofGen! by Chris Wilmer'
_symmetry_space_group_name_H-M	'P1'
_symmetry_Int_Tables_number	1
_symmetry_cell_setting	triclinic
loop_
_symmetry_equiv_pos_as_xyz
  x,y,z
_cell_length_a	9.065218
_cell_length_b	16.109301
_cell_length_c	7.540329
_cell_angle_alpha	89.994987
_cell_angle_beta	89.996962
_cell_angle_gamma	84.238683
loop_
_atom_site_label
_atom_site_type_symbol
_atom_site_fract_x
_atom_site_fract_y
_atom_site_fract_z
O1	O	1.957449	0.121905	-0.147494
O2	O	1.527922	0.131904	-0.147497
O3	O	1.754485	0.005964	-0.147477
O4	O	1.730886	0.247845	-0.147513
O5	O	1.754472	0.005963	0.147488
O6	O	1.527909	0.131903	0.147468
O7	O	1.957435	0.121903	0.147471
Cu8	Cu	1.742671	0.126903	0.174402
Cu9	Cu	1.742687	0.126905	-0.174428
O10	O	1.730873	0.247843	0.147452
C11	C	1.472952	0.130943	-0.000014
C12	C	1.309179	0.128069	-0.000015
C13	C	1.753522	-0.025019	0.000006
C14	C	1.750656	-0.117336	0.000009
C15	C	1.878430	-0.338627	-0.000018
C16	C	1.875726	-0.425368	-0.000033
C17	C	1.606917	-0.407559	-0.000028
C18	C	1.609623	-0.320819	-0.000026
C19	C	1.745384	-0.286356	-0.000012
C20	C	1.739974	-0.459836	-0.000029
C21	C	1.737040	-0.553885	-0.000045
C22	C	1.748318	-0.192301	0.000000
C23	C	2.012405	0.122865	-0.000015
C24	C	2.176179	0.125739	-0.000026
C25	C	1.731835	0.278826	-0.000036
C26	C	1.734701	0.371144	-0.000050
N27	N	1.742670	0.126901	0.419751
N28	N	1.742699	0.126900	-0.419776
H29	H	1.988976	-0.310570	-0.000011
O30	O	2.005104	-0.476024	0.000045
C31	C	2.125502	-0.427001	0.000010
H32	H	2.088023	-0.362564	0.055860
H33	H	2.167121	-0.420504	-0.141499
C34	C	2.297454	-0.548415	0.047086
C35	C	2.251426	-0.469274	0.115696
H36	H	2.375134	-0.574492	0.118439
H37	H	2.216342	-0.581444	0.047103
H38	H	2.332127	-0.542990	-0.070837
H39	H	2.216737	-0.474701	0.233607
H40	H	2.332536	-0.436247	0.115701
O41	O	1.480275	-0.270123	-0.000255
C42	C	1.397870	-0.285879	-0.153041
H43	H	1.434117	-0.351389	-0.203970
H44	H	1.418032	-0.238293	-0.260014
C45	C	1.187133	-0.198421	-0.044083
C46	C	1.231644	-0.278883	-0.106626
H47	H	1.084597	-0.194101	-0.015457
H48	H	1.242652	-0.187802	0.058849
H49	H	1.203948	-0.158774	-0.133238
H50	H	1.214847	-0.318527	-0.017464
H51	H	1.176118	-0.289508	-0.209543
H52	H	1.496385	-0.435630	-0.000036
