data_functionalizedCrystal
_audit_creation_method	'MofGen! by Chris Wilmer'
_symmetry_space_group_name_H-M	'P1'
_symmetry_Int_Tables_number	1
_symmetry_cell_setting	triclinic
loop_
_symmetry_equiv_pos_as_xyz
  x,y,z
_cell_length_a	13.033293
_cell_length_b	16.120444
_cell_length_c	13.032328
_cell_angle_alpha	99.642246
_cell_angle_beta	89.079697
_cell_angle_gamma	100.431871
loop_
_atom_site_label
_atom_site_type_symbol
_atom_site_fract_x
_atom_site_fract_y
_atom_site_fract_z
Zn1	Zn	1.479889	-0.262695	-0.795790
Zn2	Zn	1.493056	-0.384044	-0.630430
Zn3	Zn	1.330066	-0.258239	-0.601724
Zn4	Zn	1.296818	-0.419242	-0.782386
O5	O	1.399957	-0.331055	-0.702582
O6	O	1.626464	-0.265927	-0.791477
O7	O	1.490860	-0.350760	-0.481810
O8	O	1.358344	-0.140665	-0.621063
O9	O	1.636137	-0.355081	-0.669988
O10	O	1.468419	-0.143939	-0.763643
O11	O	1.371111	-0.258332	-0.460720
O12	O	1.180827	-0.292462	-0.608066
O13	O	1.301678	-0.415072	-0.928976
O14	O	1.156400	-0.410751	-0.740798
O15	O	1.436180	-0.300057	-0.938823
O16	O	1.458621	-0.506878	-0.656991
O17	O	1.314445	-0.532738	-0.768633
C18	C	1.131061	-0.354943	-0.669864
C19	C	1.016022	-0.365185	-0.655892
C20	C	0.959928	-0.325731	-0.709875
C21	C	0.841029	-0.336316	-0.695436
C22	C	1.384379	-0.550447	-0.714498
C23	C	1.377804	-0.644300	-0.719642
C24	C	1.434286	-0.845121	-0.676152
C25	C	1.365819	-0.816122	-0.729047
C26	C	1.372490	-0.720511	-0.723813
C27	C	1.427616	-0.940740	-0.681385
C28	C	1.669903	-0.307075	-0.735430
C29	C	1.784938	-0.296856	-0.749427
C30	C	1.363751	-0.361988	-0.972498
C31	C	1.348323	-0.375169	-1.087519
C32	C	1.415621	-0.110806	-0.690646
C33	C	1.422297	-0.016949	-0.685559
C34	C	1.392061	-0.337766	-1.262555
C35	C	1.408002	-0.324136	-1.143673
C36	C	1.436086	-0.300177	-0.433721
C37	C	1.451732	-0.286739	-0.318711
H38	H	1.302193	-0.863102	-0.778263
O39	O	1.273430	-0.439419	-1.135209
C40	C	1.320156	-0.495827	-1.207867
H41	H	1.405646	-0.490074	-1.185427
H42	H	1.314667	-0.478731	-1.288772
C43	C	1.158127	-0.595375	-1.235818
C44	C	1.263125	-0.588314	-1.208252
H45	H	1.122946	-0.652425	-1.236060
H46	H	1.126645	-0.557371	-1.186870
H47	H	1.153568	-0.581124	-1.303237
H48	H	1.267684	-0.602555	-1.140829
H49	H	1.294607	-0.626323	-1.257189
O50	O	1.510090	-0.788965	-0.617448
C51	C	1.499958	-0.704625	-0.625240
H52	H	1.416336	-0.703726	-0.648717
H53	H	1.555624	-0.680399	-0.686508
C54	C	1.629361	-0.647542	-0.490436
C55	C	1.526652	-0.646437	-0.519263
H56	H	1.645832	-0.611647	-0.425067
H57	H	1.636190	-0.704363	-0.485189
H58	H	1.675737	-0.627356	-0.541502
H59	H	1.480278	-0.666633	-0.468204
H60	H	1.519816	-0.589618	-0.524499
H61	H	1.514616	-0.232960	-1.278776
H62	H	0.824934	-0.255233	-0.806333
O63	O	1.007505	-0.276154	-0.777902
C64	C	0.966060	-0.308897	-0.878844
H65	H	0.884959	-0.348536	-0.873220
H66	H	1.019145	-0.350965	-0.923301
C67	C	1.058240	-0.185604	-0.943556
C68	C	0.958627	-0.234284	-0.936649
H69	H	1.053659	-0.139581	-0.979216
H70	H	1.086166	-0.163546	-0.875551
H71	H	1.102467	-0.220671	-0.980602
H72	H	0.914406	-0.199220	-0.899593
H73	H	0.930693	-0.256335	-1.004650
O74	O	0.793421	-0.386081	-0.627612
C75	C	0.810766	-0.470517	-0.657827
H76	H	0.883832	-0.469936	-0.707170
H77	H	0.740806	-0.510489	-0.705191
C78	C	0.735779	-0.510256	-0.499592
C79	C	0.825525	-0.509541	-0.560189
H80	H	0.744878	-0.534330	-0.439365
H81	H	0.724090	-0.453371	-0.479236
H82	H	0.677488	-0.543565	-0.539073
H83	H	0.883811	-0.476224	-0.520712
H84	H	0.837224	-0.566422	-0.580536
O85	O	1.317108	-0.401904	-1.310357
C86	C	1.317864	-0.401224	-1.418411
H87	H	1.397750	-0.368143	-1.441289
H88	H	1.255590	-0.365199	-1.439184
C89	C	1.196781	-0.534461	-1.449376
C90	C	1.294901	-0.493837	-1.477478
H91	H	1.182611	-0.591588	-1.485813
H92	H	1.196268	-0.534918	-1.376578
H93	H	1.144897	-0.504431	-1.466688
H94	H	1.346784	-0.523860	-1.460154
H95	H	1.295422	-0.493387	-1.550275
O96	O	0.968410	-0.414947	-0.588072
C97	C	0.985755	-0.499384	-0.618287
H98	H	1.058820	-0.498802	-0.667630
H99	H	0.915795	-0.539356	-0.665651
C100	C	0.910768	-0.539123	-0.460051
C101	C	1.000513	-0.538407	-0.520649
H102	H	0.919867	-0.563196	-0.399825
H103	H	0.899078	-0.482237	-0.439696
H104	H	0.852477	-0.572431	-0.499533
H105	H	1.058800	-0.505090	-0.481172
H106	H	1.012213	-0.595288	-0.540995
O107	O	1.482905	-0.259928	-1.095916
C108	C	1.436174	-0.203496	-1.023297
H109	H	1.357769	-0.238418	-0.999278
H110	H	1.423708	-0.146670	-1.060129
C111	C	1.604179	-0.128552	-0.956160
C112	C	1.507884	-0.171445	-0.926654
H113	H	1.648414	-0.108777	-0.896548
H114	H	1.635664	-0.166569	-1.005088
H115	H	1.593777	-0.081202	-0.986855
H116	H	1.518286	-0.218800	-0.895972
H117	H	1.476403	-0.133435	-0.877719
