data_functionalizedCrystal
_audit_creation_method	'MofGen! by Chris Wilmer'
_symmetry_space_group_name_H-M	'P1'
_symmetry_Int_Tables_number	1
_symmetry_cell_setting	triclinic
loop_
_symmetry_equiv_pos_as_xyz
  x,y,z
_cell_length_a	19.805407
_cell_length_b	12.645330
_cell_length_c	12.645323
_cell_angle_alpha	90.028979
_cell_angle_beta	90.027175
_cell_angle_gamma	90.011893
loop_
_atom_site_label
_atom_site_type_symbol
_atom_site_fract_x
_atom_site_fract_y
_atom_site_fract_z
Zn1	Zn	1.034820	-0.422032	0.599583
Zn2	Zn	1.034756	-0.599326	0.422316
Zn3	Zn	0.921629	-0.422074	0.422311
Zn4	Zn	0.921626	-0.599251	0.599515
O5	O	0.978208	-0.510671	0.510931
O6	O	1.129528	-0.445563	0.576099
O7	O	1.019725	-0.575862	0.273968
O8	O	0.936672	-0.273721	0.445852
O9	O	1.129482	-0.575820	0.445862
O10	O	1.019833	-0.273690	0.576093
O11	O	0.936610	-0.445636	0.273964
O12	O	0.826912	-0.445564	0.445786
O13	O	0.936666	-0.575693	0.747871
O14	O	0.826910	-0.575735	0.575978
O15	O	1.019830	-0.445491	0.747921
O16	O	1.019721	-0.747663	0.445796
O17	O	0.936605	-0.747608	0.575983
C18	C	0.802352	-0.510647	0.510875
C19	C	0.727120	-0.510662	0.510876
C20	C	0.265345	-0.578578	0.578683
C21	C	0.336034	-0.578576	0.578661
C22	C	0.371358	-0.510696	0.510973
C23	C	0.335991	-0.442821	0.443295
C24	C	0.265303	-0.442829	0.443313
C25	C	0.621064	-0.442789	0.443220
C26	C	0.691756	-0.442784	0.443210
C27	C	0.691794	-0.578536	0.578568
C28	C	0.621107	-0.578544	0.578586
C29	C	0.585746	-0.510673	0.510905
C30	C	0.509097	-0.510677	0.510929
C31	C	0.448005	-0.510686	0.510953
C32	C	0.978174	-0.786100	0.510906
C33	C	0.978221	-0.903930	0.510931
C34	C	1.030426	-1.071485	0.428864
C35	C	1.030596	-0.948924	0.429065
C36	C	0.997566	-0.948309	0.622679
C37	C	0.997981	-1.070907	0.622243
C38	C	0.906651	-1.071257	0.482351
C39	C	0.906994	-0.948653	0.479845
C40	C	1.154751	-0.510695	0.510988
C41	C	1.229983	-0.510706	0.511013
C42	C	0.978255	-0.510579	0.787437
C43	C	0.978275	-0.510540	0.905267
C44	C	0.978260	-0.234165	0.510980
C45	C	0.978283	-0.116335	0.511000
C46	C	0.978200	-0.510685	0.235501
C47	C	0.978311	-0.510426	0.117672
C48	C	0.925960	-0.592434	0.950117
C49	C	0.925776	-0.592126	1.072677
C50	C	0.959198	-0.398641	1.073170
C51	C	0.958797	-0.399182	0.950572
C52	C	1.049843	-0.539429	0.950467
C53	C	1.049480	-0.541828	1.073073
H54	H	1.018493	-0.918924	0.346206
C55	C	0.887286	-0.909477	0.368752
C56	C	0.822985	-0.842745	0.353513
C57	C	0.803281	-0.803560	0.242419
C58	C	0.847877	-0.831107	0.146564
C59	C	0.912181	-0.897843	0.161800
C60	C	0.931886	-0.937028	0.272894
H61	H	0.789969	-0.822350	0.424473
H62	H	0.755678	-0.754158	0.231141
H63	H	0.833290	-0.802100	0.064326
H64	H	0.945197	-0.918239	0.090840
H65	H	0.979488	-0.986431	0.284172
C66	C	1.009104	-0.313904	1.112545
C67	C	1.084744	-0.323328	1.086030
C68	C	1.134650	-0.238592	1.125408
C69	C	1.108917	-0.144432	1.191300
C70	C	1.033273	-0.135005	1.217818
C71	C	0.983366	-0.219740	1.178440
H72	H	1.103797	-0.393033	1.037250
H73	H	1.190647	-0.245572	1.105777
H74	H	1.145860	-0.081706	1.220449
H75	H	1.014219	-0.065299	1.266598
H76	H	0.927369	-0.212761	1.198071
H77	H	0.866047	-0.918036	0.535282
C78	C	1.101719	-1.112984	0.454177
C79	C	1.112748	-1.187348	0.549021
C80	C	1.184041	-1.228848	0.574339
C81	C	1.244304	-1.195983	0.504812
C82	C	1.233277	-1.121614	0.409961
C83	C	1.161984	-1.080115	0.384643
H84	H	1.068136	-1.211681	0.600495
H85	H	1.192203	-1.283900	0.644554
H86	H	1.297079	-1.226703	0.523553
H87	H	1.277889	-1.097282	0.358487
H88	H	1.153822	-1.025062	0.314428
H89	H	1.067275	-0.619594	0.919551
H90	H	1.018474	-1.101040	0.345762
C91	C	1.102267	-0.909185	0.454680
C92	C	1.159524	-0.989006	0.475022
C93	C	1.231197	-0.949267	0.500644
C94	C	1.245612	-0.829709	0.505925
C95	C	1.188353	-0.749881	0.485582
C96	C	1.116681	-0.789619	0.459959
H97	H	1.148854	-1.077517	0.471113
H98	H	1.273583	-1.008362	0.515703
H99	H	1.298669	-0.800292	0.524892
H100	H	1.199023	-0.661370	0.489490
H101	H	1.074294	-0.730525	0.444900
H102	H	0.236589	-0.633848	0.633809
C103	C	1.102501	-0.458862	0.911281
C104	C	1.176941	-0.469847	0.944735
C105	C	1.229592	-0.389277	0.905542
C106	C	1.207804	-0.297723	0.832895
C107	C	1.133361	-0.286735	0.799436
C108	C	1.080709	-0.367304	0.838629
H109	H	1.193073	-0.537624	0.998517
H110	H	1.284700	-0.397412	0.930311
H111	H	1.246780	-0.238080	0.803882
H112	H	1.117229	-0.218957	0.745654
H113	H	1.025602	-0.359170	0.813860
H114	H	0.906491	-0.374737	0.921967
H115	H	0.364823	-0.633847	0.633762
H116	H	1.090536	-0.486531	1.103707
C117	C	0.948907	-1.110992	0.707740
C118	C	0.909469	-1.031444	0.776198
C119	C	0.860401	-1.071523	0.861699
C120	C	0.850771	-1.191150	0.878742
C121	C	0.890210	-1.270705	0.810283
C122	C	0.939278	-1.230626	0.724782
H123	H	0.916597	-0.942883	0.763582
H124	H	0.831206	-1.012631	0.912376
H125	H	0.814447	-1.220819	0.942035
H126	H	0.883082	-1.359266	0.822899
H127	H	0.968473	-1.289518	0.674105
C128	C	0.882884	-1.113138	0.374181
C129	C	0.867451	-1.035240	0.283783
C130	C	0.843692	-1.077121	0.175608
C131	C	0.835367	-1.196900	0.157832
C132	C	0.850800	-1.274805	0.248233
C133	C	0.874559	-1.232924	0.356407
H134	H	0.873614	-0.946565	0.296939
H135	H	0.832267	-1.019449	0.108688
H136	H	0.817779	-1.227903	0.077755
H137	H	0.844638	-1.363480	0.235076
H138	H	0.885984	-1.290596	0.423328
C139	C	0.854155	-0.566199	1.112306
C140	C	0.842153	-0.467998	1.181864
C141	C	0.770531	-0.442064	1.221497
C142	C	0.710910	-0.514331	1.191572
C143	C	0.722910	-0.612538	1.122011
C144	C	0.794532	-0.638472	1.082378
H145	H	0.886290	-0.414496	1.204019
H146	H	0.761648	-0.369364	1.272990
H147	H	0.657890	-0.495133	1.220911
H148	H	0.678773	-0.666040	1.099856
H149	H	0.803415	-0.711172	1.030884
H150	H	0.867800	-1.100262	0.542174
C151	C	0.582172	-0.368146	0.368759
C152	C	0.621030	-0.293492	0.294296
C153	C	0.582135	-0.218855	0.219822
C154	C	0.504382	-0.218872	0.219811
C155	C	0.465519	-0.293530	0.294277
C156	C	0.504415	-0.368167	0.368751
H157	H	0.678591	-0.293476	0.294302
H158	H	0.610904	-0.163588	0.164698
H159	H	0.475589	-0.163621	0.164681
H160	H	0.407958	-0.293545	0.294271
H161	H	0.475646	-0.423433	0.423875
H162	H	1.050340	-1.099420	0.646509
H163	H	0.960744	-0.919160	0.685517
H164	H	1.063895	-0.624097	1.102156
H165	H	1.049334	-0.917521	0.647349
H166	H	0.937709	-0.675005	1.102766
H167	H	0.592349	-0.633815	0.633709
H168	H	0.937742	-0.675605	0.920640
H169	H	0.873232	-0.573517	0.919298
H170	H	0.364757	-0.387557	0.388177
H171	H	0.236512	-0.387558	0.388211
H172	H	0.995257	-0.336061	0.920902
H173	H	0.907476	-0.373743	1.103865
H174	H	0.720594	-0.633803	0.633675
H175	H	0.720515	-0.387503	0.388088
