data_functionalizedCrystal
_audit_creation_method	'MofGen! by Chris Wilmer'
_symmetry_space_group_name_H-M	'P1'
_symmetry_Int_Tables_number	1
_symmetry_cell_setting	triclinic
loop_
_symmetry_equiv_pos_as_xyz
  x,y,z
_cell_length_a	10.654550
_cell_length_b	10.654551
_cell_length_c	9.130313
_cell_angle_alpha	90.001552
_cell_angle_beta	89.996220
_cell_angle_gamma	84.485132
loop_
_atom_site_label
_atom_site_type_symbol
_atom_site_fract_x
_atom_site_fract_y
_atom_site_fract_z
O1	O	1.667835	0.176393	-0.121910
O2	O	1.302356	0.193199	-0.121885
O3	O	1.493498	0.002057	-0.121899
O4	O	1.476693	0.367535	-0.121896
O5	O	1.493496	0.002062	0.121700
O6	O	1.302354	0.193204	0.121713
O7	O	1.667832	0.176398	0.121689
Cu8	Cu	1.485093	0.184802	0.143944
Cu9	Cu	1.485096	0.184796	-0.144140
O10	O	1.476691	0.367540	0.121703
C11	C	1.255557	0.191968	-0.000083
C12	C	1.116114	0.188276	-0.000074
C13	C	1.036629	0.300817	-0.000095
C14	C	0.905608	0.297341	-0.000120
C15	C	0.933570	0.068771	-0.000110
C16	C	1.064589	0.072249	-0.000074
C17	C	1.088154	0.416844	-0.000094
C18	C	1.008667	0.529395	-0.000116
C19	C	0.877647	0.525918	-0.000142
C20	C	0.826112	0.409891	-0.000145
C21	C	1.492263	-0.044739	-0.000103
C22	C	1.488570	-0.184182	-0.000112
C23	C	1.486839	-0.249696	-0.132895
C24	C	1.483359	-0.380717	-0.132888
C25	C	1.483346	-0.380697	0.132696
C26	C	1.486817	-0.249678	0.132688
C27	C	1.488592	-0.184201	-0.265696
C28	C	1.486863	-0.249716	-0.398490
C29	C	1.483382	-0.380736	-0.398483
C30	C	1.481632	-0.446241	-0.265682
C31	C	1.714632	0.177629	-0.000117
C32	C	1.854075	0.181321	-0.000135
C33	C	1.477926	0.414336	-0.000097
C34	C	1.481619	0.553779	-0.000097
N35	N	1.485100	0.184805	0.346566
N36	N	1.485098	0.184782	-0.346763
C37	C	1.569760	0.100196	0.423212
C38	C	1.569756	0.100181	0.576549
C39	C	1.400430	0.269395	0.576581
C40	C	1.400428	0.269403	0.423246
C41	C	1.654431	0.015599	0.346532
C42	C	1.739099	-0.069016	0.423178
C43	C	1.739095	-0.069031	0.576515
C44	C	1.654425	0.015569	0.653206
H45	H	0.719425	0.407069	-0.000143
C46	C	1.477770	-0.590357	-0.265676
H47	H	1.476984	-0.619996	-0.363778
H48	H	1.403867	-0.611028	-0.216625
H49	H	1.550092	-0.628956	-0.216639
C50	C	1.232271	0.420673	-0.000060
H51	H	1.251576	0.505889	-0.000051
H52	H	1.267095	0.379242	-0.084995
H53	H	1.267050	0.379263	0.084912
H54	H	0.891600	-0.025693	-0.000137
H55	H	0.812931	0.617562	-0.000145
C56	C	1.654412	0.015551	0.821873
H57	H	1.591860	0.078049	0.856565
H58	H	1.734825	0.033481	0.856565
H59	H	1.636519	-0.064890	0.856543
C60	C	1.481434	-0.452751	0.278762
H61	H	1.479131	-0.540166	0.259749
H62	H	1.408895	-0.422339	0.333331
H63	H	1.555122	-0.440216	0.333313
H64	H	1.129308	-0.019392	-0.000062
C65	C	1.488787	-0.177666	-0.544557
H66	H	1.491120	-0.090254	-0.525548
H67	H	1.415113	-0.190195	-0.599120
H68	H	1.561339	-0.208090	-0.599113
H69	H	1.491429	-0.077518	-0.265716
C70	C	1.307305	0.362465	0.338923
H71	H	1.319423	0.350341	0.236622
H72	H	1.321658	0.446416	0.364051
H73	H	1.223370	0.348028	0.364060
H74	H	1.488200	-0.196331	0.240812
H75	H	1.654444	0.015606	0.221678
H76	H	1.808026	-0.137936	0.638919
C77	C	1.832233	-0.162062	0.338826
H78	H	1.820122	-0.149928	0.236527
H79	H	1.817882	-0.246017	0.363936
H80	H	1.916166	-0.147625	0.363961
H81	H	1.050636	0.623860	-0.000101
C82	C	1.307313	0.362456	0.660937
H83	H	1.319448	0.350341	0.763234
H84	H	1.223377	0.348043	0.635819
H85	H	1.321688	0.446408	0.635813
H86	H	1.481961	-0.434073	-0.506609
