data_functionalizedCrystal
_audit_creation_method	'MofGen! by Chris Wilmer'
_symmetry_space_group_name_H-M	'P1'
_symmetry_Int_Tables_number	1
_symmetry_cell_setting	triclinic
loop_
_symmetry_equiv_pos_as_xyz
  x,y,z
_cell_length_a	19.121215
_cell_length_b	19.121063
_cell_length_c	19.121242
_cell_angle_alpha	94.950219
_cell_angle_beta	85.000193
_cell_angle_gamma	95.002544
loop_
_atom_site_label
_atom_site_type_symbol
_atom_site_fract_x
_atom_site_fract_y
_atom_site_fract_z
Zn1	Zn	1.082278	-0.252928	-0.454183
Zn2	Zn	1.415612	0.080406	-0.120850
Zn3	Zn	1.748945	0.413739	0.212483
Zn4	Zn	1.072553	-0.365976	-0.341135
Zn5	Zn	1.405887	-0.032642	-0.007802
Zn6	Zn	1.739220	0.300691	0.325532
Zn7	Zn	0.959604	-0.252939	-0.331502
Zn8	Zn	1.292938	0.080394	0.001831
Zn9	Zn	1.626271	0.413727	0.335165
Zn10	Zn	0.959551	-0.375563	-0.454119
Zn11	Zn	1.292884	-0.042230	-0.120785
Zn12	Zn	1.626217	0.291103	0.212548
O13	O	1.018497	-0.311851	-0.395235
O14	O	1.351830	0.021482	-0.061901
O15	O	1.685163	0.354815	0.271432
O16	O	1.179620	-0.263907	-0.443246
O17	O	1.512953	0.069427	-0.109913
O18	O	1.846286	0.402760	0.223421
O19	O	1.053523	-0.346974	-0.241230
O20	O	1.386856	-0.013640	0.092103
O21	O	1.720190	0.319693	0.425436
O22	O	0.979969	-0.154308	-0.343772
O23	O	1.313303	0.179025	-0.010438
O24	O	1.646636	0.512359	0.322895
O25	O	1.172475	-0.346962	-0.360190
O26	O	1.505808	-0.013629	-0.026856
O27	O	1.839142	0.319704	0.306477
O28	O	1.070097	-0.154300	-0.433905
O29	O	1.403431	0.179034	-0.100572
O30	O	1.736764	0.512367	0.232761
O31	O	0.970540	-0.263926	-0.234153
O32	O	1.303873	0.069407	0.099180
O33	O	1.637206	0.402741	0.432514
O34	O	0.860966	-0.273223	-0.343709
O35	O	1.194299	0.060111	-0.010375
O36	O	1.527632	0.393444	0.322958
O37	O	0.979878	-0.363303	-0.552754
O38	O	1.313212	-0.029970	-0.219421
O39	O	1.646545	0.303364	0.113913
O40	O	0.860926	-0.363314	-0.433795
O41	O	1.194260	-0.029981	-0.100461
O42	O	1.527593	0.303353	0.232872
O43	O	1.070046	-0.273203	-0.552802
O44	O	1.403379	0.060130	-0.219468
O45	O	1.736712	0.393463	0.113865
O46	O	1.053471	-0.465877	-0.360127
O47	O	1.386804	-0.132544	-0.026793
O48	O	1.720138	0.200790	0.306540
O49	O	0.970448	-0.472921	-0.443135
O50	O	1.303782	-0.139588	-0.109802
O51	O	1.637115	0.193746	0.223531
C52	C	0.835372	-0.319311	-0.387700
C53	C	1.168705	0.014023	-0.054366
C54	C	1.502039	0.347356	0.278967
C55	C	0.757030	-0.322519	-0.384494
C56	C	1.090364	0.010814	-0.051160
C57	C	1.423697	0.344147	0.282173
C58	C	0.313760	-0.342833	-0.364211
C59	C	0.647093	-0.009500	-0.030878
C60	C	0.980427	0.323834	0.302455
C61	C	0.387370	-0.339814	-0.367218
C62	C	0.720703	-0.006481	-0.033885
C63	C	1.054037	0.326853	0.299449
C64	C	0.427897	-0.295139	-0.412041
C65	C	0.761230	0.038195	-0.078708
C66	C	1.094564	0.371528	0.254626
C67	C	0.394810	-0.253474	-0.453855
C68	C	0.728144	0.079859	-0.120521
C69	C	1.061477	0.413193	0.212812
C70	C	0.321201	-0.256490	-0.450844
C71	C	0.654535	0.076844	-0.117510
C72	C	0.987868	0.410177	0.215823
C73	C	0.650335	-0.283870	-0.423296
C74	C	0.983668	0.049463	-0.089963
C75	C	1.317001	0.382796	0.243370
C76	C	0.723948	-0.280859	-0.426306
C77	C	1.057282	0.052474	-0.092972
C78	C	1.390615	0.385807	0.240361
C79	C	0.716503	-0.367199	-0.339668
C80	C	1.049836	-0.033865	-0.006335
C81	C	1.383170	0.299468	0.326999
C82	C	0.642893	-0.370214	-0.336664
C83	C	0.976226	-0.036880	-0.003331
C84	C	1.309560	0.296453	0.330003
C85	C	0.609813	-0.328546	-0.378475
C86	C	0.943146	0.004787	-0.045141
C87	C	1.276479	0.338120	0.288192
C88	C	0.503139	-0.292053	-0.415117
C89	C	0.836472	0.041280	-0.081784
C90	C	1.169805	0.374613	0.251549
C91	C	0.534572	-0.331628	-0.375394
C92	C	0.867906	0.001705	-0.042061
C93	C	1.201239	0.335038	0.291272
C94	C	1.010918	-0.494972	-0.402685
C95	C	1.344252	-0.161639	-0.069352
C96	C	1.677585	0.171694	0.263981
C97	C	1.007742	-0.573311	-0.405899
C98	C	1.341075	-0.239977	-0.072566
C99	C	1.674409	0.093356	0.260768
C100	C	1.049512	-0.606424	-0.364229
C101	C	1.382845	-0.273090	-0.030896
C102	C	1.716178	0.060243	0.302437
C103	C	1.046528	-0.680031	-0.367256
C104	C	1.379862	-0.346698	-0.033923
C105	C	1.713195	-0.013364	0.299411
C106	C	1.001771	-0.720524	-0.411949
C107	C	1.335105	-0.387191	-0.078616
C108	C	1.668438	-0.053857	0.254718
C109	C	0.960000	-0.687406	-0.453623
C110	C	1.293334	-0.354073	-0.120290
C111	C	1.626667	-0.020740	0.213043
C112	C	0.962988	-0.613800	-0.450600
C113	C	1.296321	-0.280467	-0.117267
C114	C	1.629654	0.052866	0.216067
C115	C	0.990591	-0.942951	-0.423242
C116	C	1.323924	-0.609618	-0.089908
C117	C	1.657257	-0.276285	0.243425
C118	C	0.987605	-1.016562	-0.426260
C119	C	1.320938	-0.683229	-0.092927
C120	C	1.654272	-0.349896	0.240406
C121	C	1.074135	-1.009182	-0.339894
C122	C	1.407468	-0.675849	-0.006560
C123	C	1.740801	-0.342515	0.326773
C124	C	1.077115	-0.935575	-0.336871
C125	C	1.410448	-0.602241	-0.003538
C126	C	1.743781	-0.268908	0.329796
C127	C	1.035346	-0.902463	-0.378548
C128	C	1.368680	-0.569130	-0.045215
C129	C	1.702013	-0.235797	0.288119
C130	C	0.998719	-0.795763	-0.415042
C131	C	1.332053	-0.462429	-0.081709
C132	C	1.665386	-0.129096	0.251624
C133	C	1.038402	-0.827226	-0.375458
C134	C	1.371736	-0.493893	-0.042125
C135	C	1.705069	-0.160559	0.291209
C136	C	1.202336	-0.304364	-0.402800
C137	C	1.535670	0.028970	-0.069466
C138	C	1.869003	0.362303	0.263867
C139	C	1.280678	-0.301173	-0.406023
C140	C	1.614011	0.032160	-0.072690
C141	C	1.947345	0.365494	0.260643
C142	C	1.026041	-0.319321	-0.579066
C143	C	1.359374	0.014012	-0.245732
C144	C	1.692707	0.347345	0.087601
C145	C	1.029255	-0.322505	-0.657403
C146	C	1.362589	0.010829	-0.324070
C147	C	1.695922	0.344162	0.009263
C148	C	1.026124	-0.128015	-0.387771
C149	C	1.359458	0.205318	-0.054438
C150	C	1.692791	0.538651	0.278895
C151	C	1.029375	-0.049675	-0.384591
C152	C	1.362708	0.283658	-0.051257
C153	C	1.696041	0.616991	0.282076
C154	C	1.049643	-0.342711	-1.100654
C155	C	1.382976	-0.009378	-0.767320
C156	C	1.716310	0.323956	-0.433987
C157	C	1.046612	-0.339716	-1.027046
C158	C	1.379945	-0.006383	-0.693713
C159	C	1.713279	0.326951	-0.360380
C160	C	1.001896	-0.294977	-0.986566
C161	C	1.335229	0.038356	-0.653232
C162	C	1.668563	0.371690	-0.319899
C163	C	0.960203	-0.253235	-1.019696
C164	C	1.293536	0.080098	-0.686363
C165	C	1.626870	0.413432	-0.353029
C166	C	0.963230	-0.256234	-1.093302
C167	C	1.296564	0.077099	-0.759969
C168	C	1.629897	0.410433	-0.426635
C169	C	0.990590	-0.283762	-0.764139
C170	C	1.323923	0.049572	-0.430806
C171	C	1.657257	0.382905	-0.097473
C172	C	0.987567	-0.280764	-0.690529
C173	C	1.320900	0.052569	-0.357195
C174	C	1.654234	0.385902	-0.023862
C175	C	1.073976	-0.367247	-0.697884
C176	C	1.407309	-0.033913	-0.364551
C177	C	1.740642	0.299420	-0.031217
C178	C	1.077002	-0.370239	-0.771491
C179	C	1.410336	-0.036905	-0.438158
C180	C	1.743669	0.296428	-0.104824
C181	C	1.035307	-0.328500	-0.804615
C182	C	1.368640	0.004834	-0.471282
C183	C	1.701973	0.338167	-0.137948
C184	C	0.998799	-0.291913	-0.911327
C185	C	1.332132	0.041420	-0.577994
C186	C	1.665465	0.374754	-0.244661
C187	C	1.038401	-0.331568	-0.879852
C188	C	1.371734	0.001765	-0.546519
C189	C	1.705067	0.335099	-0.213185
C190	C	1.011025	-0.304358	-0.212119
C191	C	1.344358	0.028975	0.121215
C192	C	1.677691	0.362309	0.454548
C193	C	1.007954	-0.300971	-0.133779
C194	C	1.341288	0.032362	0.199554
C195	C	1.674621	0.365696	0.532888
H196	H	0.623410	-0.249945	-0.457345
H197	H	0.956743	0.083388	-0.124012
H198	H	1.290076	0.416721	0.209322
H199	H	1.113414	-0.406671	-0.804446
H200	H	1.446748	-0.073337	-0.471112
H201	H	1.780081	0.259996	-0.137779
H202	H	0.929284	-0.222244	-1.120271
H203	H	1.262617	0.111089	-0.786938
H204	H	1.595951	0.444423	-0.453605
H205	H	0.928975	-0.586841	-0.484533
H206	H	1.262309	-0.253507	-0.151199
H207	H	1.595642	0.079826	0.182134
C208	C	1.092509	-0.385598	-0.990612
C209	C	1.425842	-0.052265	-0.657279
C210	C	1.759176	0.281068	-0.323945
N211	N	1.127093	-0.420146	-0.963170
N212	N	1.460426	-0.086813	-0.629837
N213	N	1.793760	0.246520	-0.296504
H214	H	0.609900	-0.406592	-0.300163
H215	H	0.943234	-0.073259	0.033170
H216	H	1.276567	0.260074	0.366503
H217	H	1.074807	-0.367996	-0.912814
H218	H	1.408140	-0.034663	-0.579481
H219	H	1.741473	0.298671	-0.246148
H220	H	1.080541	-0.706988	-0.333324
H221	H	1.413875	-0.373654	0.000010
H222	H	1.747208	-0.040321	0.333343
C223	C	0.269187	-0.391979	-0.314901
C224	C	0.602520	-0.058646	0.018432
C225	C	0.935853	0.274688	0.351766
N226	N	0.235616	-0.428995	-0.277757
N227	N	0.568949	-0.095661	0.055577
N228	N	0.902282	0.237672	0.388910
H229	H	0.956580	-0.915998	-0.457175
H230	H	1.289913	-0.582665	-0.123842
H231	H	1.623246	-0.249331	0.209491
C232	C	0.439393	-0.204328	-0.503158
C233	C	0.772726	0.129005	-0.169825
C234	C	1.106059	0.462339	0.163509
N235	N	0.472972	-0.167311	-0.540296
N236	N	0.806305	0.166022	-0.206963
N237	N	1.139638	0.499355	0.126371
C238	C	0.284812	-0.210662	-0.496842
C239	C	0.618145	0.122671	-0.163508
C240	C	0.951479	0.456005	0.169825
N241	N	0.257405	-0.176142	-0.531488
N242	N	0.590738	0.157191	-0.198155
N243	N	0.924071	0.490525	0.135179
H244	H	0.743445	-0.401121	-0.305628
H245	H	1.076778	-0.067788	0.027706
H246	H	1.410112	0.265545	0.361039
C247	C	0.423756	-0.385644	-0.321222
C248	C	0.757090	-0.052310	0.012112
C249	C	1.090423	0.281023	0.345445
N250	N	0.451162	-0.420164	-0.286574
N251	N	0.784495	-0.086831	0.046759
N252	N	1.117829	0.246502	0.380092
C253	C	0.944734	-0.237836	-0.800566
C254	C	1.278067	0.095497	-0.467233
C255	C	1.611400	0.428830	-0.133899
N256	N	0.910196	-0.203239	-0.828005
N257	N	1.243529	0.130094	-0.494671
N258	N	1.576863	0.463427	-0.161338
C259	C	0.547726	-0.242913	-0.464423
C260	C	0.881059	0.090420	-0.131090
C261	C	1.214392	0.423754	0.202244
N262	N	0.581311	-0.205899	-0.501559
N263	N	0.914644	0.127434	-0.168226
N264	N	1.247978	0.460767	0.165108
H265	H	1.086059	-0.379139	-1.133608
H266	H	1.419392	-0.045806	-0.800275
H267	H	1.752726	0.287527	-0.466941
C268	C	0.949480	-0.840312	-0.464195
C269	C	1.282813	-0.506979	-0.130862
C270	C	1.616146	-0.173646	0.202471
N271	N	0.912391	-0.873870	-0.501216
N272	N	1.245724	-0.540536	-0.167883
N273	N	1.579058	-0.207203	0.165450
H274	H	0.501572	-0.368001	-0.338898
H275	H	0.834906	-0.034667	-0.005564
H276	H	1.168239	0.298666	0.327769
H277	H	1.085954	-0.573458	-0.327832
H278	H	1.419288	-0.240125	0.005501
H279	H	1.752621	0.093208	0.338834
C280	C	1.120079	-1.045610	-0.294054
C281	C	1.453412	-0.712277	0.039279
C282	C	1.786746	-0.378944	0.372612
N283	N	1.154688	-1.073049	-0.259528
N284	N	1.488021	-0.739715	0.073805
N285	N	1.821354	-0.406382	0.407139
H286	H	1.113559	-0.902606	-0.300478
H287	H	1.446893	-0.569273	0.032855
H288	H	1.780226	-0.235940	0.366188
H289	H	0.951167	-1.049531	-0.462668
H290	H	1.284501	-0.716197	-0.129334
H291	H	1.617834	-0.382864	0.203999
C292	C	0.910764	-0.731952	-0.502784
C293	C	1.244098	-0.398618	-0.169451
C294	C	1.577431	-0.065285	0.163883
N295	N	0.873676	-0.765502	-0.539810
N296	N	1.207009	-0.432169	-0.206476
N297	N	1.540343	-0.098836	0.126857
C298	C	1.087632	-0.782681	-0.326296
C299	C	1.420966	-0.449348	0.007038
C300	C	1.754299	-0.116015	0.340371
N301	N	1.124709	-0.749124	-0.289263
N302	N	1.458043	-0.415791	0.044070
N303	N	1.791376	-0.082457	0.377403
H304	H	1.107921	-0.401229	-0.670906
H305	H	1.441254	-0.067896	-0.337573
H306	H	1.774588	0.265438	-0.004240
H307	H	0.951155	-0.244327	-0.657571
H308	H	1.284488	0.089006	-0.324237
H309	H	1.617822	0.422339	0.009096
C310	C	0.911021	-0.204015	-0.975165
C311	C	1.244354	0.129318	-0.641831
C312	C	1.577687	0.462652	-0.308498
N313	N	0.873980	-0.166937	-0.941624
N314	N	1.207314	0.166396	-0.608291
N315	N	1.540647	0.499730	-0.274958
H316	H	0.756944	-0.244474	-0.462805
H317	H	1.090277	0.088859	-0.129471
H318	H	1.423611	0.422192	0.203862
H319	H	0.962391	-0.255485	-0.878360
H320	H	1.295725	0.077848	-0.545026
H321	H	1.629058	0.411181	-0.211693
