data_functionalizedCrystal
_audit_creation_method	'MofGen! by Chris Wilmer'
_symmetry_space_group_name_H-M	'P1'
_symmetry_Int_Tables_number	1
_symmetry_cell_setting	triclinic
loop_
_symmetry_equiv_pos_as_xyz
  x,y,z
_cell_length_a	13.032831
_cell_length_b	16.625546
_cell_length_c	13.032268
_cell_angle_alpha	97.144614
_cell_angle_beta	90.886977
_cell_angle_gamma	82.826778
loop_
_atom_site_label
_atom_site_type_symbol
_atom_site_fract_x
_atom_site_fract_y
_atom_site_fract_z
Zn1	Zn	1.498429	-0.544521	-0.780776
Zn2	Zn	1.831763	-0.211187	-0.447443
Zn3	Zn	2.165096	0.122146	-0.114110
Zn4	Zn	1.520160	-0.664651	-0.608784
Zn5	Zn	1.853494	-0.331318	-0.275450
Zn6	Zn	2.186827	0.002015	0.057883
Zn7	Zn	1.348291	-0.510838	-0.587021
Zn8	Zn	1.681624	-0.177505	-0.253688
Zn9	Zn	2.014957	0.155828	0.079646
Zn10	Zn	1.326409	-0.660292	-0.758909
Zn11	Zn	1.659742	-0.326958	-0.425576
Zn12	Zn	1.993076	0.006375	-0.092243
O13	O	1.423322	-0.595075	-0.683873
O14	O	1.756656	-0.261742	-0.350539
O15	O	2.089989	0.071591	-0.017206
O16	O	1.645231	-0.576377	-0.776220
O17	O	1.978564	-0.243044	-0.442887
O18	O	2.311898	0.090290	-0.109554
O19	O	1.515614	-0.631976	-0.461981
O20	O	1.848947	-0.298642	-0.128648
O21	O	2.182280	0.034691	0.204685
O22	O	1.368270	-0.402484	-0.612767
O23	O	1.701603	-0.069151	-0.279434
O24	O	2.034937	0.264182	0.053900
O25	O	1.661197	-0.664636	-0.649858
O26	O	1.994530	-0.331303	-0.316525
O27	O	2.327864	0.002030	0.016809
O28	O	1.478576	-0.427231	-0.755118
O29	O	1.811909	-0.093897	-0.421785
O30	O	2.145243	0.239436	-0.088452
O31	O	1.389342	-0.518970	-0.445992
O32	O	1.722675	-0.185637	-0.112659
O33	O	2.056008	0.147697	0.220674
O34	O	1.201469	-0.514743	-0.591563
O35	O	1.534802	-0.181410	-0.258230
O36	O	1.868136	0.151924	0.075103
O37	O	1.330976	-0.657206	-0.905725
O38	O	1.664309	-0.323873	-0.572392
O39	O	1.997642	0.009460	-0.239059
O40	O	1.185392	-0.624546	-0.717849
O41	O	1.518726	-0.291212	-0.384515
O42	O	1.852059	0.042121	-0.051182
O43	O	1.457358	-0.572150	-0.921791
O44	O	1.790692	-0.238816	-0.588458
O45	O	2.124025	0.094517	-0.255125
O46	O	1.494396	-0.776895	-0.628654
O47	O	1.827729	-0.443562	-0.295321
O48	O	2.161063	-0.110228	0.038012
O49	O	1.352048	-0.773692	-0.738951
O50	O	1.685381	-0.440359	-0.405618
O51	O	2.018714	-0.107025	-0.072284
C52	C	1.156114	-0.565517	-0.649972
C53	C	1.489447	-0.232184	-0.316639
C54	C	1.822781	0.101150	0.016695
C55	C	1.041798	-0.552893	-0.635494
C56	C	1.375131	-0.219560	-0.302160
C57	C	1.708465	0.113774	0.031173
C58	C	1.423230	-0.804552	-0.683817
C59	C	1.756564	-0.471219	-0.350484
C60	C	2.089897	-0.137885	-0.017151
C61	C	1.423281	-0.894180	-0.683840
C62	C	1.756614	-0.560847	-0.350506
C63	C	2.089948	-0.227513	-0.017173
C64	C	0.982917	-0.601664	-0.691429
C65	C	1.316251	-0.268331	-0.358096
C66	C	1.649584	0.065003	-0.024762
C67	C	0.864766	-0.588618	-0.676466
C68	C	1.198099	-0.255285	-0.343133
C69	C	1.531432	0.078049	-0.009800
C70	C	1.423447	-1.222385	-0.683970
C71	C	1.756780	-0.889051	-0.350636
C72	C	2.090113	-0.555718	-0.017303
C73	C	1.423397	-1.131068	-0.683936
C74	C	1.756730	-0.797735	-0.350603
C75	C	2.090064	-0.464401	-0.017269
C76	C	1.423363	-1.058285	-0.683904
C77	C	1.756696	-0.724952	-0.350571
C78	C	2.090030	-0.391619	-0.017237
C79	C	1.423315	-0.966963	-0.683872
C80	C	1.756648	-0.633630	-0.350538
C81	C	2.089981	-0.300296	-0.017205
C82	C	1.691574	-0.624750	-0.717906
C83	C	2.024907	-0.291417	-0.384573
C84	C	2.358241	0.041917	-0.051239
C85	C	1.805887	-0.637396	-0.732409
C86	C	2.139220	-0.304062	-0.399076
C87	C	2.472554	0.029271	-0.065742
C88	C	1.389302	-0.617949	-0.952117
C89	C	1.722635	-0.284616	-0.618784
C90	C	2.055969	0.048718	-0.285451
C91	C	1.374805	-0.627696	-1.066427
C92	C	1.708138	-0.294363	-0.733094
C93	C	2.041471	0.038970	-0.399761
C94	C	1.423440	-0.384786	-0.683954
C95	C	1.756773	-0.051453	-0.350621
C96	C	2.090106	0.281881	-0.017288
C97	C	1.423490	-0.295173	-0.683989
C98	C	1.756823	0.038160	-0.350656
C99	C	2.090156	0.371493	-0.017322
C100	C	1.430873	-0.589958	-1.125339
C101	C	1.764206	-0.256624	-0.792006
C102	C	2.097539	0.076709	-0.458673
C103	C	1.415890	-0.600031	-1.243485
C104	C	1.749224	-0.266698	-0.910151
C105	C	2.082557	0.066636	-0.576818
C106	C	1.457270	-0.572239	-0.416679
C107	C	1.790603	-0.238906	-0.083346
C108	C	2.123936	0.094427	0.249988
C109	C	1.471966	-0.562287	-0.302395
C110	C	1.805300	-0.228954	0.030938
C111	C	2.138633	0.104380	0.364272
H112	H	1.019978	-0.653074	-0.750398
H113	H	1.353312	-0.319741	-0.417065
H114	H	1.686645	0.013592	-0.083731
H115	H	0.827708	-0.537199	-0.617501
H116	H	1.161042	-0.203865	-0.284168
H117	H	1.494375	0.129468	0.049166
C118	C	1.295636	-0.680979	-1.223772
C119	C	1.628970	-0.347646	-0.890439
C120	C	1.962303	-0.014312	-0.557105
C121	C	1.295033	-0.681388	-1.116406
C122	C	1.628366	-0.348055	-0.783072
C123	C	1.961700	-0.014722	-0.449739
H124	H	1.246393	-0.714133	-1.254623
H125	H	1.579726	-0.380800	-0.921289
H126	H	1.913059	-0.047466	-0.587956
H127	H	1.278397	-0.626636	-1.239432
H128	H	1.611730	-0.293303	-0.906099
H129	H	1.945063	0.040031	-0.572765
H130	H	1.362528	-0.701904	-1.250076
H131	H	1.695861	-0.368571	-0.916743
H132	H	2.029194	-0.035237	-0.583410
H133	H	1.228143	-0.660458	-1.090100
H134	H	1.561477	-0.327124	-0.756767
H135	H	1.894810	0.006209	-0.423433
H136	H	1.312266	-0.735742	-1.100738
H137	H	1.645600	-0.402409	-0.767404
H138	H	1.978933	-0.069076	-0.434071
H139	H	1.004736	-0.501477	-0.576533
H140	H	1.338069	-0.168144	-0.243199
H141	H	1.671403	0.165189	0.090134
C142	C	1.501518	-0.445164	-1.183334
C143	C	1.834851	-0.111831	-0.850000
C144	C	2.168184	0.221502	-0.516667
C145	C	1.551736	-0.508582	-1.252432
C146	C	1.885070	-0.175248	-0.919099
C147	C	2.218403	0.158085	-0.585766
H148	H	1.550762	-0.412009	-1.152488
H149	H	1.884096	-0.078676	-0.819155
H150	H	2.217429	0.254658	-0.485822
H151	H	1.451449	-0.412934	-1.219580
H152	H	1.784783	-0.079601	-0.886246
H153	H	2.118116	0.253733	-0.552913
H154	H	1.468297	-0.467544	-1.131060
H155	H	1.801631	-0.134211	-0.797727
H156	H	2.134964	0.199122	-0.464393
H157	H	1.584950	-0.486202	-1.304711
H158	H	1.918284	-0.152868	-0.971377
H159	H	2.251617	0.180465	-0.638044
H160	H	1.601823	-0.540817	-1.216185
H161	H	1.935156	-0.207483	-0.882852
H162	H	2.268490	0.125850	-0.549518
C163	C	1.460453	-0.472859	-1.006244
C164	C	1.793787	-0.139526	-0.672911
C165	C	2.127120	0.193808	-0.339578
C166	C	1.510653	-0.536275	-1.075357
C167	C	1.843987	-0.202942	-0.742024
C168	C	2.177320	0.130391	-0.408691
H169	H	1.509712	-0.439722	-0.975386
H170	H	1.843045	-0.106389	-0.642052
H171	H	2.176378	0.226944	-0.308719
H172	H	1.410400	-0.440610	-1.042483
H173	H	1.743733	-0.107276	-0.709150
H174	H	2.077067	0.226057	-0.375816
H175	H	1.427218	-0.495240	-0.953982
H176	H	1.760551	-0.161907	-0.620649
H177	H	2.093885	0.171427	-0.287315
H178	H	1.543883	-0.513894	-1.127625
H179	H	1.877216	-0.180561	-0.794291
H180	H	2.210549	0.152772	-0.460958
H181	H	1.560725	-0.568530	-1.039118
H182	H	1.894059	-0.235196	-0.705784
H183	H	2.227392	0.098137	-0.372451
H184	H	1.356786	-0.639795	-1.280509
H185	H	1.690119	-0.306461	-0.947176
H186	H	2.023452	0.026872	-0.613842
H187	H	0.842942	-0.688808	-0.791385
H188	H	1.176275	-0.355475	-0.458052
H189	H	1.509608	-0.022142	-0.124718
