data_functionalizedCrystal
_audit_creation_method	'MofGen! by Chris Wilmer'
_symmetry_space_group_name_H-M	'P1'
_symmetry_Int_Tables_number	1
_symmetry_cell_setting	triclinic
loop_
_symmetry_equiv_pos_as_xyz
  x,y,z
_cell_length_a	14.519709
_cell_length_b	10.723024
_cell_length_c	9.198806
_cell_angle_alpha	89.996352
_cell_angle_beta	89.995869
_cell_angle_gamma	84.074007
loop_
_atom_site_label
_atom_site_type_symbol
_atom_site_fract_x
_atom_site_fract_y
_atom_site_fract_z
O1	O	0.129347	1.655978	-0.120886
O2	O	0.629347	2.155978	0.379114
O3	O	0.141728	1.292710	-0.120892
O4	O	0.641728	1.792710	0.379108
O5	O	0.001349	1.483976	-0.120876
O6	O	0.501349	1.983976	0.379124
O7	O	0.269727	1.464713	-0.120902
O8	O	0.769727	1.964713	0.379098
O9	O	0.001348	1.483960	0.120909
O10	O	0.501348	1.983960	0.620909
O11	O	0.141728	1.292695	0.120893
O12	O	0.641728	1.792695	0.620893
O13	O	0.129347	1.655963	0.120899
O14	O	0.629347	2.155963	0.620899
Cu15	Cu	0.135538	1.474328	0.142973
Cu16	Cu	0.635538	1.974328	0.642973
Cu17	Cu	0.135538	1.474345	-0.142966
Cu18	Cu	0.635538	1.974345	0.357034
O19	O	0.269727	1.464697	0.120883
O20	O	0.769727	1.964697	0.620883
C21	C	0.140827	1.246211	0.000000
C22	C	0.640827	1.746211	0.500000
C23	C	0.138132	1.107682	-0.000001
C24	C	0.638132	1.607682	0.499999
C25	C	-0.033016	1.483070	0.000017
C26	C	0.466984	1.983070	0.500017
C27	C	-0.135411	1.480380	0.000018
C28	C	0.364589	1.980380	0.500018
C29	C	0.216681	1.031965	-0.000010
C30	C	0.716681	1.531965	0.499990
C31	C	0.213896	0.888788	-0.000012
C32	C	0.713896	1.388788	0.499988
C33	C	-0.510357	1.470476	-0.000020
C34	C	-0.010357	1.970476	0.499980
C35	C	-0.406035	1.473227	-0.000009
C36	C	0.093965	1.973227	0.499991
C37	C	-0.322887	1.475428	0.000000
C38	C	0.177113	1.975428	0.500000
C39	C	-0.218559	1.478179	0.000008
C40	C	0.281441	1.978179	0.500008
C41	C	0.304091	1.465603	-0.000013
C42	C	0.804091	1.965603	0.499987
C43	C	0.406486	1.468293	-0.000024
C44	C	0.906486	1.968293	0.499976
C45	C	0.130248	1.702462	0.000003
C46	C	0.630248	2.202462	0.500003
C47	C	0.132944	1.840991	-0.000005
C48	C	0.632944	2.340991	0.499995
N49	N	0.135537	1.474324	0.344087
N50	N	0.635537	1.974324	0.844087
N51	N	0.135532	1.474359	-0.344080
N52	N	0.635532	1.974359	0.155920
C53	C	0.076335	1.554633	0.416290
C54	C	0.576335	2.054633	0.916290
C55	C	0.076332	1.554653	0.583703
C56	C	0.576332	2.054653	1.083703
H57	H	0.285991	1.073139	-0.000009
H58	H	0.785991	1.573139	0.499991
H59	H	0.025651	1.623414	0.645795
H60	H	0.525651	2.123414	1.145795
H61	H	0.186222	1.405604	0.593837
H62	H	0.686222	1.905604	1.093837
H63	H	0.186216	1.405578	0.406209
H64	H	0.686216	1.905578	0.906209
N65	N	0.298250	0.807161	-0.000030
N66	N	0.798250	1.307161	0.499970
N67	N	0.295870	0.690969	-0.000033
N68	N	0.795870	1.190969	0.499967
H69	H	0.355447	0.633315	-0.000045
H70	H	0.855447	1.133315	0.499955
N71	N	0.051177	1.056045	0.000040
N72	N	0.551177	1.556045	0.500040
N73	N	0.031109	0.986647	0.101967
N74	N	0.531109	1.486647	0.601967
H75	H	-0.030306	0.950181	0.102000
H76	H	0.469694	1.450181	0.602000
N77	N	0.012737	1.640787	0.338281
N78	N	0.512737	2.140787	0.838281
N79	N	-0.044578	1.600646	0.253340
N80	N	0.455422	2.100646	0.753340
H81	H	-0.089499	1.661467	0.198214
H82	H	0.410501	2.161467	0.698214
H83	H	0.065696	0.906045	-0.000006
H84	H	0.565696	1.406045	0.499994
