data_functionalizedCrystal
_audit_creation_method	'MofGen! by Chris Wilmer'
_symmetry_space_group_name_H-M	'P1'
_symmetry_Int_Tables_number	1
_symmetry_cell_setting	triclinic
loop_
_symmetry_equiv_pos_as_xyz
  x,y,z
_cell_length_a	19.188929
_cell_length_b	14.519709
_cell_length_c	12.996460
_cell_angle_alpha	89.999966
_cell_angle_beta	89.972070
_cell_angle_gamma	96.587534
loop_
_atom_site_label
_atom_site_type_symbol
_atom_site_fract_x
_atom_site_fract_y
_atom_site_fract_z
O1	O	0.091525	-1.223300	-0.085484
O2	O	0.102303	-0.954756	-0.085522
O3	O	-0.004714	-1.096778	-0.085438
O4	O	0.198542	-1.081279	-0.085568
O5	O	-0.004720	-1.096763	0.085695
O6	O	0.102297	-0.954742	0.085612
O7	O	0.091519	-1.223285	0.085650
Cu8	Cu	0.096907	-1.089012	0.101257
Cu9	Cu	0.096914	-1.089030	-0.101129
O10	O	0.198536	-1.081264	0.085566
C11	C	-0.030730	-1.096269	0.000143
C12	C	-0.108240	-1.094762	0.000185
C13	C	0.101797	-0.920392	0.000041
C14	C	0.100292	-0.818020	0.000030
C15	C	0.224551	-1.081773	-0.000017
C16	C	0.302061	-1.083280	-0.000066
C17	C	0.346689	-0.999946	-0.000057
C18	C	0.419517	-1.001362	-0.000033
C19	C	0.447716	-1.086116	0.000002
C20	C	0.403079	-1.169460	-0.000013
C21	C	0.330252	-1.168042	-0.000047
N22	N	0.555913	-1.150894	0.058316
N23	N	0.625096	-1.152235	0.058350
C24	C	0.667140	-1.090393	0.000101
N25	N	0.637387	-1.027144	-0.058171
N26	N	0.568198	-1.025800	-0.058200
C27	C	0.526684	-1.087663	0.000038
C28	C	0.790737	-1.008588	0.000134
C29	C	0.863567	-1.010007	0.000151
C30	C	0.847126	-1.178108	0.000182
C31	C	0.774298	-1.176687	0.000154
C32	C	0.746108	-1.091924	0.000135
C33	C	0.092024	-1.257649	0.000084
C34	C	0.093529	-1.360021	0.000088
N35	N	0.096902	-1.089007	0.243604
C36	C	0.094751	-0.443159	0.000081
C37	C	0.096290	-0.547457	0.000066
C38	C	0.097521	-0.630586	0.000055
C39	C	0.099060	-0.734891	0.000042
N40	N	0.096914	-1.089042	-0.243476
C41	C	0.096915	-1.089028	0.663418
C42	C	0.096914	-1.089020	0.546613
C43	C	0.096909	-1.089018	0.453515
C44	C	0.096906	-1.089008	0.336702
H45	H	0.323741	-0.930926	-0.000081
Br46	Br	0.480095	-0.888258	-0.000019
H47	H	0.737961	-1.244546	0.000154
H48	H	0.899902	-0.942144	0.000152
Br49	Br	0.269681	-1.281147	-0.000060
H50	H	0.426042	-1.238467	-0.000004
H51	H	0.767783	-0.939570	0.000125
H52	H	0.870085	-1.247116	0.000135
