data_functionalizedCrystal
_audit_creation_method	'MofGen! by Chris Wilmer'
_symmetry_space_group_name_H-M	'P1'
_symmetry_Int_Tables_number	1
_symmetry_cell_setting	triclinic
loop_
_symmetry_equiv_pos_as_xyz
  x,y,z
_cell_length_a	10.654550
_cell_length_b	17.038272
_cell_length_c	9.730223
_cell_angle_alpha	89.995299
_cell_angle_beta	89.999957
_cell_angle_gamma	87.798243
loop_
_atom_site_label
_atom_site_type_symbol
_atom_site_fract_x
_atom_site_fract_y
_atom_site_fract_z
O1	O	1.678042	0.109878	-0.114188
O2	O	1.313535	0.120346	-0.114214
O3	O	1.493622	0.001285	-0.114190
O4	O	1.497955	0.228940	-0.114212
O5	O	1.493609	0.001281	0.114390
O6	O	1.313523	0.120343	0.114366
O7	O	1.678029	0.109875	0.114392
Zn8	Zn	1.495774	0.115108	0.150671
Zn9	Zn	1.495791	0.115113	-0.150493
O10	O	1.497942	0.228936	0.114368
C11	C	1.266660	0.119576	0.000073
C12	C	1.127003	0.117276	0.000064
C13	C	1.054026	0.187378	0.000061
C14	C	0.922805	0.185213	0.000085
C15	C	0.937548	0.042838	0.000109
C16	C	1.068767	0.045004	0.000095
C17	C	1.489675	-0.027867	0.000099
C18	C	1.477918	-0.114726	0.000098
C19	C	1.585862	-0.164237	0.000107
C20	C	1.574808	-0.245849	0.000093
C21	C	1.455808	-0.277949	0.000080
C22	C	1.347855	-0.228431	0.000067
C23	C	1.358911	-0.146820	0.000071
C24	C	1.416750	-0.523925	0.000059
C25	C	1.405702	-0.605542	0.000059
C26	C	1.632655	-0.622955	0.000082
C27	C	1.643701	-0.541341	0.000094
C28	C	1.535748	-0.491831	0.000074
C29	C	1.444505	-0.361369	0.000070
C30	C	1.547052	-0.408412	0.000074
C31	C	1.724905	0.110645	0.000102
C32	C	1.864561	0.112945	0.000102
C33	C	1.501889	0.258088	0.000076
C34	C	1.513646	0.344947	0.000068
N35	N	1.495771	0.115105	0.356207
N36	N	1.495802	0.115110	-0.356029
C37	C	1.575545	0.062407	0.428144
C38	C	1.575558	0.062407	0.572027
C39	C	1.416020	0.167810	0.572024
C40	C	1.416002	0.167806	0.428144
H41	H	1.128187	-0.012085	0.000101
H42	H	1.720544	-0.663274	0.000096
C43	C	1.809082	-0.189654	0.000106
C44	C	1.716672	-0.128958	0.000112
H45	H	1.889839	-0.167874	0.000095
H46	H	1.800051	-0.221124	0.079812
H47	H	1.800037	-0.221120	-0.079610
H48	H	1.725711	-0.097495	0.079833
H49	H	1.725708	-0.097474	-0.079603
C50	C	1.744765	0.046428	0.733818
C51	C	1.663249	0.004482	0.651103
H52	H	1.798897	0.010664	0.782641
H53	H	1.793429	0.079248	0.677676
H54	H	1.697251	0.077811	0.797249
H55	H	1.710763	-0.026897	0.587664
H56	H	1.614581	-0.028351	0.707250
H57	H	1.351074	0.210719	0.630609
H58	H	1.351034	0.210719	0.369569
C59	C	1.193017	0.272416	-0.117483
C60	C	1.118037	0.266820	0.000035
H61	H	1.232524	0.321464	-0.117499
H62	H	1.255260	0.230984	-0.117474
H63	H	1.142111	0.268609	-0.197176
H64	H	1.168945	0.270621	0.079729
H65	H	1.055787	0.308264	0.000039
C66	C	0.921421	0.326159	0.000039
C67	C	0.842589	0.262271	0.000072
H68	H	0.871897	0.373733	0.000024
H69	H	0.972914	0.324046	0.079738
H70	H	0.972902	0.324033	-0.079684
H71	H	0.791114	0.264394	0.079801
H72	H	0.791075	0.264385	-0.079635
H73	H	1.740603	-0.515213	0.000105
C74	C	1.239693	-0.044936	-0.117447
C75	C	1.240256	-0.092394	0.000061
H76	H	1.166433	-0.011340	-0.117460
H77	H	1.312138	-0.014144	-0.117428
H78	H	1.240105	-0.077142	-0.197147
H79	H	1.239853	-0.060189	0.079761
H80	H	1.167791	-0.123189	0.000055
H81	H	0.890116	-0.016004	0.000142
C82	C	1.694061	-0.347710	-0.117417
C83	C	1.693469	-0.300268	0.000098
H84	H	1.767327	-0.381300	-0.117419
H85	H	1.621622	-0.378508	-0.117418
H86	H	1.693657	-0.315493	-0.197112
H87	H	1.693864	-0.332485	0.079794
H88	H	1.765927	-0.269467	0.000112
H89	H	1.308794	-0.631674	0.000071
H90	H	1.328847	-0.483623	0.000043
H91	H	1.250963	-0.254573	0.000048
C92	C	1.300432	-0.443049	-0.117434
C93	C	1.313704	-0.396661	0.000071
H94	H	1.219684	-0.464841	-0.117429
H95	H	1.309446	-0.411565	-0.197128
H96	H	1.363156	-0.484208	-0.117423
H97	H	1.250986	-0.355498	0.000054
H98	H	1.304677	-0.428146	0.079784
H99	H	1.643941	-0.382273	0.000054
H100	H	1.640497	0.019494	0.369576
