data_functionalizedCrystal
_audit_creation_method	'MofGen! by Chris Wilmer'
_symmetry_space_group_name_H-M	'P1'
_symmetry_Int_Tables_number	1
_symmetry_cell_setting	triclinic
loop_
_symmetry_equiv_pos_as_xyz
  x,y,z
_cell_length_a	14.853567
_cell_length_b	15.625429
_cell_length_c	13.930277
_cell_angle_alpha	71.918299
_cell_angle_beta	89.995755
_cell_angle_gamma	83.949492
loop_
_atom_site_label
_atom_site_type_symbol
_atom_site_fract_x
_atom_site_fract_y
_atom_site_fract_z
O1	O	1.196369	0.117702	-0.120732
O2	O	1.696369	0.617702	0.379268
O3	O	0.933910	0.131723	-0.125628
O4	O	1.433910	0.631723	0.374372
O5	O	1.072149	-0.006515	-0.077498
O6	O	1.572149	0.493485	0.422502
O7	O	1.058130	0.255940	-0.168861
O8	O	1.558130	0.755940	0.331139
O9	O	1.072130	-0.006518	0.082164
O10	O	1.572130	0.493482	0.582164
O11	O	0.933890	0.131720	0.034035
O12	O	1.433890	0.631720	0.534035
O13	O	1.196350	0.117699	0.038931
O14	O	1.696350	0.617699	0.538931
Zn15	Zn	1.065117	0.124709	0.061833
Zn16	Zn	1.565117	0.624709	0.561833
Zn17	Zn	1.065142	0.124713	-0.148530
Zn18	Zn	1.565142	0.624713	0.351470
O19	O	1.058110	0.255937	-0.009199
O20	O	1.558110	0.755937	0.490801
C21	C	0.900311	0.131086	-0.045578
C22	C	1.400311	0.631086	0.454422
C23	C	0.800228	0.129182	-0.044921
C24	C	1.300228	0.629182	0.455079
C25	C	0.387693	0.039018	-0.013513
C26	C	0.887693	0.539018	0.486487
C27	C	0.366413	0.203249	-0.070684
C28	C	0.866413	0.703249	0.429316
C29	C	0.460447	0.205039	-0.071310
C30	C	0.960447	0.705039	0.428690
C31	C	0.518108	0.123817	-0.043039
C32	C	1.018108	0.623817	0.456961
C33	C	0.481736	0.040806	-0.014141
C34	C	0.981736	0.540806	0.485859
C35	C	0.496827	0.288049	-0.100217
C36	C	0.996827	0.788049	0.399783
C37	C	0.590866	0.289842	-0.100845
C38	C	1.090866	0.789842	0.399155
C39	C	0.648529	0.208620	-0.072567
C40	C	1.148529	0.708620	0.427433
C41	C	0.612151	0.125605	-0.043667
C42	C	1.112151	0.625605	0.456333
C43	C	0.669813	0.044383	-0.015395
C44	C	1.169813	0.544383	0.484605
C45	C	0.633437	-0.038633	0.013512
C46	C	1.133437	0.461367	0.513512
C47	C	0.539399	-0.040417	0.014138
C48	C	1.039399	0.459583	0.514138
C49	C	0.742566	0.210404	-0.073193
C50	C	1.242566	0.710404	0.426807
C51	C	0.763855	0.046171	-0.016024
C52	C	1.263855	0.546171	0.483976
C53	C	1.071504	-0.040105	0.014023
C54	C	1.571504	0.459895	0.514023
C55	C	1.069600	-0.140187	0.048856
C56	C	1.569600	0.359813	0.548856
C57	C	1.063363	-0.469339	-0.271708
C58	C	1.563363	0.030661	0.228292
C59	C	1.061569	-0.563381	-0.238948
C60	C	1.561569	-0.063381	0.261052
C61	C	1.061549	-0.563370	-0.064895
C62	C	1.561549	-0.063370	0.435105
C63	C	1.063347	-0.469327	-0.097640
C64	C	1.563347	0.030673	0.402360
C65	C	1.064253	-0.422318	-0.201048
C66	C	1.564253	0.077682	0.298952
C67	C	1.064236	-0.422306	-0.026980
C68	C	1.564236	0.077694	0.473020
C69	C	1.066030	-0.328271	-0.059724
C70	C	1.566030	0.171729	0.440276
C71	C	1.066933	-0.281255	-0.163128
C72	C	1.566933	0.218745	0.336872
C73	C	1.066046	-0.328283	-0.233792
C74	C	1.566046	0.171717	0.266208
C75	C	1.063324	-0.469316	0.076427
C76	C	1.563324	0.030684	0.576427
C77	C	1.064214	-0.422296	0.147087
C78	C	1.564214	0.077704	0.647087
C79	C	1.066013	-0.328259	0.114344
C80	C	1.566013	0.171741	0.614344
C81	C	1.066917	-0.281243	0.010940
C82	C	1.566917	0.218757	0.510940
C83	C	1.066901	-0.281232	0.185008
C84	C	1.566901	0.218768	0.685008
C85	C	1.068694	-0.187196	0.152264
C86	C	1.568694	0.312804	0.652264
C87	C	1.068710	-0.187208	-0.021804
C88	C	1.568710	0.312792	0.478196
C89	C	1.229948	0.118336	-0.041121
C90	C	1.729948	0.618336	0.458879
C91	C	1.330032	0.120239	-0.041784
C92	C	1.830032	0.620239	0.458216
C93	C	1.058755	0.289527	-0.100722
C94	C	1.558755	0.789527	0.399278
C95	C	1.060660	0.389609	-0.135562
C96	C	1.560660	0.889609	0.364438
N97	N	1.065106	0.124706	0.205400
N98	N	1.565106	0.624706	0.705400
N99	N	1.065160	0.124709	-0.292095
N100	N	1.565160	0.624709	0.207905
C101	C	1.003928	0.185901	0.636363
C102	C	1.503928	0.685901	1.136363
C103	C	1.126382	0.063518	0.678942
C104	C	1.626382	0.563518	1.178942
C105	C	1.126371	0.063515	0.578447
C106	C	1.626371	0.563515	1.078447
C107	C	1.065139	0.124707	0.506905
C108	C	1.565139	0.624707	1.006905
C109	C	1.003917	0.185902	0.535858
C110	C	1.503917	0.685902	1.035858
C111	C	1.187598	0.002328	0.549485
C112	C	1.687598	0.502328	1.049485
C113	C	1.187591	0.002323	0.448985
C114	C	1.687591	0.502323	0.948985
C115	C	1.126353	0.063511	0.377442
C116	C	1.626353	0.563511	0.877442
C117	C	1.065128	0.124708	0.406400
C118	C	1.565128	0.624708	0.906400
C119	C	1.003895	0.185900	0.334858
C120	C	1.503895	0.685900	0.834858
C121	C	0.942665	0.247093	0.363816
C122	C	1.442665	0.747093	0.863816
C123	C	0.942679	0.247090	0.464315
C124	C	1.442679	0.747090	0.964315
C125	C	1.126339	0.063514	0.276942
C126	C	1.626339	0.563514	0.776942
C127	C	1.003884	0.185901	0.234353
C128	C	1.503884	0.685901	0.734353
H129	H	1.069456	-0.148932	-0.106009
H130	H	1.569456	0.351068	0.393991
H131	H	0.680397	-0.104763	0.036523
H132	H	1.180397	0.395237	0.536523
Br133	Br	0.920827	0.268940	0.675659
Br134	Br	1.420827	0.768940	1.175659
Br135	Br	1.060308	-0.627174	0.075440
Br136	Br	1.560308	-0.127174	0.575440
Br137	Br	1.209490	-0.019517	0.776027
Br138	Br	1.709490	0.480483	1.276027
H139	H	0.449873	0.354175	-0.123244
H140	H	0.949873	0.854175	0.376756
Br141	Br	1.062973	-0.486099	0.287421
Br142	Br	1.562973	0.013901	0.787421
H143	H	1.068383	-0.204684	-0.189787
H144	H	1.568383	0.295316	0.310213
Br145	Br	0.640225	0.402503	-0.140075
Br146	Br	1.140225	0.902503	0.359925
Br147	Br	1.209439	-0.019519	0.237643
Br148	Br	1.709439	0.480481	0.737643
H149	H	1.060837	-0.601660	-0.296496
H150	H	1.560837	-0.101660	0.203504
Br151	Br	0.338330	-0.073641	0.025725
Br152	Br	0.838330	0.426359	0.525725
H153	H	0.319460	0.269375	-0.093709
H154	H	0.819460	0.769375	0.406291
Br155	Br	1.065648	-0.345037	0.325341
Br156	Br	1.565648	0.154963	0.825341
Br157	Br	1.270684	-0.080722	0.409690
Br158	Br	1.770684	0.419278	0.909690
Br159	Br	0.842104	-0.064065	0.022358
Br160	Br	1.342104	0.435935	0.522358
Br161	Br	0.920771	0.268944	0.137268
Br162	Br	1.420771	0.768944	0.637268
H163	H	1.066792	-0.290006	-0.317997
H164	H	1.566792	0.209994	0.182003
H165	H	1.064109	-0.431063	-0.355913
H166	H	1.564109	0.068937	0.144087
H167	H	1.061854	-0.545885	0.103083
H168	H	1.561854	-0.045885	0.603083
Br169	Br	0.791932	0.323058	-0.112431
Br170	Br	1.291932	0.823058	0.387569
H171	H	1.069399	-0.148909	0.209802
H172	H	1.569399	0.351091	0.709802
H173	H	0.892813	0.296919	0.305553
H174	H	1.392813	0.796919	0.805553
Br175	Br	0.859589	0.330133	0.503618
Br176	Br	1.359589	0.830133	1.003618
H177	H	0.509773	-0.108004	0.037695
H178	H	1.009773	0.391996	0.537695
Br179	Br	1.270706	-0.080708	0.646570
Br180	Br	1.770706	0.419292	1.146570
