data_functionalizedCrystal
_audit_creation_method	'MofGen! by Chris Wilmer'
_symmetry_space_group_name_H-M	'P1'
_symmetry_Int_Tables_number	1
_symmetry_cell_setting	triclinic
loop_
_symmetry_equiv_pos_as_xyz
  x,y,z
_cell_length_a	21.295418
_cell_length_b	14.908520
_cell_length_c	21.295411
_cell_angle_alpha	86.727396
_cell_angle_beta	89.964378
_cell_angle_gamma	86.662388
loop_
_atom_site_label
_atom_site_type_symbol
_atom_site_fract_x
_atom_site_fract_y
_atom_site_fract_z
Zn1	Zn	0.947892	0.358826	-0.370691
Zn2	Zn	0.941749	0.509689	-0.271494
Zn3	Zn	0.842627	0.358887	-0.265403
Zn4	Zn	0.836524	0.509688	-0.376691
O5	O	0.892198	0.434272	-0.321070
O6	O	1.035167	0.378813	-0.357570
O7	O	0.928584	0.489710	-0.182598
O8	O	0.861716	0.232631	-0.274309
O9	O	1.030654	0.489651	-0.284691
O10	O	0.939053	0.232586	-0.351664
O11	O	0.855759	0.378917	-0.178123
O12	O	0.753727	0.378916	-0.280127
O13	O	0.851314	0.489650	-0.463983
O14	O	0.749243	0.489709	-0.361890
O15	O	0.933135	0.378812	-0.459575
O16	O	0.922666	0.635936	-0.290509
O17	O	0.845358	0.635935	-0.367797
C18	C	0.728644	0.434320	-0.320999
C19	C	0.658675	0.434362	-0.320985
C20	C	0.882700	0.668670	-0.330479
C21	C	0.878694	0.768947	-0.334525
C22	C	0.892229	0.434224	-0.485258
C23	C	0.892242	0.434204	-0.555225
C24	C	0.623487	0.492128	-0.363502
C25	C	0.557745	0.492106	-0.363529
C26	C	0.527194	0.434327	-0.321029
C27	C	0.562390	0.376549	-0.278509
C28	C	0.628130	0.376567	-0.278487
N29	N	0.424209	0.427275	-0.265687
N30	N	0.361758	0.427264	-0.265710
C31	C	0.329121	0.434269	-0.321093
N32	N	0.361294	0.441304	-0.376455
N33	N	0.423751	0.441320	-0.376431
C34	C	0.455909	0.434301	-0.321048
C35	C	0.222649	0.492014	-0.363643
C36	C	0.156906	0.491986	-0.363671
C37	C	0.161552	0.376434	-0.278646
C38	C	0.227293	0.376458	-0.278623
C39	C	0.257838	0.434253	-0.321121
C40	C	1.056390	0.434225	-0.321141
C41	C	1.126359	0.434205	-0.321171
C42	C	0.901750	0.198959	-0.311638
C43	C	0.905821	0.098682	-0.307618
C44	C	0.951751	0.957316	-0.261714
C45	C	0.947989	1.051535	-0.265514
C46	C	0.867413	1.051604	-0.345927
C47	C	0.871175	0.957386	-0.342127
C48	C	0.913344	0.910245	-0.300019
C49	C	0.917102	0.816025	-0.296216
C50	C	0.836530	0.816096	-0.376632
C51	C	0.832768	0.910314	-0.380432
C52	C	0.930239	0.491707	-1.057007
C53	C	0.930227	0.491736	-0.991266
C54	C	0.892307	0.434063	-0.956059
C55	C	0.854385	0.376374	-0.986601
C56	C	0.854394	0.376353	-1.052341
N57	N	0.890670	0.355126	-0.849672
N58	N	0.890665	0.355149	-0.787222
C59	C	0.892277	0.434124	-0.757987
N60	N	0.893907	0.513077	-0.793562
N61	N	0.893915	0.513054	-0.856019
C62	C	0.892293	0.434080	-0.884775
C63	C	0.930180	0.491845	-0.656170
C64	C	0.930163	0.491876	-0.590427
C65	C	0.854325	0.376506	-0.585763
C66	C	0.854338	0.376483	-0.651505
C67	C	0.892269	0.434152	-0.686704
C68	C	0.892206	0.434255	-0.157517
C69	C	0.892325	0.434021	-0.087540
H70	H	0.648351	0.539188	-0.398108
Br71	Br	0.275052	0.298056	-0.220918
Br72	Br	0.810198	1.115596	-0.403080
Br73	Br	0.802929	0.298067	-1.093783
H74	H	0.798436	0.948709	-0.414717
H75	H	0.961111	0.538700	-0.966400
Br76	Br	0.974327	0.752048	-0.239066
H77	H	0.823467	0.329506	-0.676365
H78	H	0.656781	0.329524	-0.243864
H79	H	0.986083	0.918934	-0.227423
H80	H	0.823448	0.329550	-0.557099
Br81	Br	0.784392	0.752209	-0.428610
Br82	Br	0.981618	0.570177	-0.548988
Br83	Br	0.981710	0.569980	-1.104775
Br84	Br	0.981657	0.570107	-0.703944
H85	H	0.979265	1.089857	-0.234323
H86	H	0.529089	0.539146	-0.398153
H87	H	0.247519	0.539070	-0.398251
Br88	Br	0.520930	0.298127	-0.220834
Br89	Br	0.109149	0.570382	-0.421383
H90	H	0.823510	0.329417	-0.957932
Br91	Br	0.120097	0.298009	-0.220971
