data_functionalizedCrystal
_audit_creation_method	'MofGen! by Chris Wilmer'
_symmetry_space_group_name_H-M	'P1'
_symmetry_Int_Tables_number	1
_symmetry_cell_setting	triclinic
loop_
_symmetry_equiv_pos_as_xyz
  x,y,z
_cell_length_a	18.215405
_cell_length_b	16.959455
_cell_length_c	18.215399
_cell_angle_alpha	90.019469
_cell_angle_beta	89.970580
_cell_angle_gamma	89.981411
loop_
_atom_site_label
_atom_site_type_symbol
_atom_site_fract_x
_atom_site_fract_y
_atom_site_fract_z
Zn1	Zn	-0.293095	-1.208396	-0.416101
Zn2	Zn	0.206905	-0.708396	0.083899
Zn3	Zn	-0.416166	-1.208300	-0.293032
Zn4	Zn	0.083834	-0.708300	0.206968
Zn5	Zn	-0.293106	-1.076215	-0.293049
Zn6	Zn	0.206894	-0.576215	0.206951
Zn7	Zn	-0.416113	-1.076181	-0.416057
Zn8	Zn	0.083887	-0.576181	0.083943
O9	O	-0.354620	-1.142273	-0.354560
O10	O	0.145380	-0.642273	0.145440
O11	O	-0.309437	-1.318994	-0.399787
O12	O	0.190563	-0.818994	0.100213
O13	O	-0.399869	-1.190753	-0.190050
O14	O	0.100131	-0.690753	0.309950
O15	O	-0.190121	-1.093804	-0.309398
O16	O	0.309879	-0.593804	0.190602
O17	O	-0.399857	-1.318924	-0.309368
O18	O	0.100143	-0.818924	0.190632
O19	O	-0.190112	-1.190917	-0.399804
O20	O	0.309888	-0.690917	0.100196
O21	O	-0.309458	-1.093710	-0.190063
O22	O	0.190542	-0.593710	0.309937
O23	O	-0.309406	-0.965600	-0.309356
O24	O	0.190594	-0.465600	0.190644
O25	O	-0.399767	-1.093745	-0.519048
O26	O	0.100233	-0.593745	-0.019048
O27	O	-0.399778	-0.965574	-0.399729
O28	O	0.100222	-0.465574	0.100271
O29	O	-0.309386	-1.190883	-0.519080
O30	O	0.190614	-0.690883	-0.019080
O31	O	-0.519143	-1.190720	-0.309326
O32	O	-0.019143	-0.690720	0.190674
O33	O	-0.519104	-1.093652	-0.399712
O34	O	-0.019104	-0.593652	0.100288
C35	C	-0.545826	-1.142193	-0.354528
C36	C	-0.045826	-0.642193	0.145472
C37	C	-0.627625	-1.142232	-0.354539
C38	C	-0.127625	-0.642232	0.145461
C39	C	-0.354588	-0.936907	-0.354540
C40	C	0.145412	-0.436907	0.145460
C41	C	-0.354593	-0.849050	-0.354549
C42	C	0.145407	-0.349050	0.145451
C43	C	-0.892678	-1.192923	-0.307574
C44	C	-0.392678	-0.692923	0.192426
C45	C	-0.815820	-1.192890	-0.307558
C46	C	-0.315820	-0.692890	0.192442
C47	C	-0.815820	-1.091721	-0.401595
C48	C	-0.315820	-0.591721	0.098405
C49	C	-0.892677	-1.091750	-0.401608
C50	C	-0.392677	-0.591750	0.098392
C51	C	-0.931105	-1.142356	-0.354598
C52	C	-0.431105	-0.642356	0.145402
C53	C	-0.777388	-1.142294	-0.354569
C54	C	-0.277388	-0.642294	0.145431
C55	C	-0.694055	-1.142258	-0.354551
C56	C	-0.194055	-0.642258	0.145449
C57	C	-1.014443	-1.142390	-0.354615
C58	C	-0.514443	-0.642390	0.145385
C59	C	-0.307501	-0.477563	-0.307591
C60	C	0.192499	0.022437	0.192409
C61	C	-0.401752	-0.477586	-0.401551
C62	C	0.098248	0.022414	0.098449
C63	C	-0.401745	-0.560132	-0.401548
C64	C	0.098255	-0.060132	0.098452
C65	C	-0.354615	-0.601397	-0.354565
C66	C	0.145385	-0.101397	0.145435
C67	C	-0.307493	-0.560117	-0.307585
C68	C	0.192507	-0.060117	0.192415
C69	C	-0.448871	-0.601418	-0.448522
C70	C	0.051129	-0.101418	0.051478
C71	C	-0.448866	-0.683969	-0.448520
C72	C	0.051134	-0.183969	0.051480
C73	C	-0.401732	-0.725236	-0.401540
C74	C	0.098268	-0.225236	0.098460
C75	C	-0.354608	-0.683951	-0.354558
C76	C	0.145392	-0.183951	0.145442
C77	C	-0.307478	-0.725216	-0.307575
C78	C	0.192522	-0.225216	0.192425
C79	C	-0.260350	-0.683932	-0.260597
C80	C	0.239650	-0.183932	0.239403
C81	C	-0.260360	-0.601384	-0.260604
C82	C	0.239640	-0.101384	0.239396
C83	C	-0.401722	-0.807785	-0.401532
C84	C	0.098278	-0.307785	0.098468
C85	C	-0.307471	-0.807770	-0.307569
C86	C	0.192529	-0.307770	0.192431
C87	C	-0.162667	-1.142375	-0.354608
C88	C	0.337333	-0.642375	0.145392
C89	C	-0.080868	-1.142418	-0.354628
C90	C	0.419132	-0.642418	0.145372
C91	C	-0.354569	-1.142321	-0.546513
C92	C	0.145431	-0.642321	-0.046513
C93	C	-0.354547	-1.142342	-0.628312
C94	C	0.145453	-0.642342	-0.128312
C95	C	-0.354643	-0.348441	-0.354577
C96	C	0.145357	0.151559	0.145423
C97	C	-0.354630	-0.436298	-0.354574
C98	C	0.145370	0.063702	0.145426
C99	C	-0.307442	-1.192940	-0.816524
C100	C	0.192558	-0.692940	-0.316524
C101	C	-0.307421	-1.192949	-0.893383
C102	C	0.192579	-0.692949	-0.393383
C103	C	-0.401539	-1.091800	-0.893338
C104	C	0.098461	-0.591800	-0.393338
C105	C	-0.401556	-1.091787	-0.816480
C106	C	0.098444	-0.591787	-0.316480
C107	C	-0.354509	-1.142361	-0.778075
C108	C	0.145491	-0.642361	-0.278075
C109	C	-0.354470	-1.142384	-0.931792
C110	C	0.145530	-0.642384	-0.431792
C111	C	-0.354447	-1.142393	-1.015125
C112	C	0.145553	-0.642393	-0.515125
C113	C	-0.354531	-1.142351	-0.694736
C114	C	0.145469	-0.642351	-0.194736
C115	C	-0.354617	-1.142271	-0.163354
C116	C	0.145383	-0.642271	0.336646
C117	C	-0.354432	-1.142403	-0.081555
C118	C	0.145568	-0.642403	0.418445
H119	H	-0.784535	-1.234066	-0.269266
H120	H	-0.284535	-0.734066	0.230734
H121	H	-0.439883	-1.050594	-0.785175
H122	H	0.060117	-0.550594	-0.285175
H123	H	-0.784525	-1.050520	-0.439870
H124	H	-0.284525	-0.550520	0.060130
H125	H	-0.269131	-1.234119	-0.785257
H126	H	0.230869	-0.734119	-0.285257
C127	C	-0.573531	-0.575984	-0.484165
C128	C	-0.073531	-0.075984	0.015835
C129	C	-0.500667	-0.556067	-0.500175
C130	C	-0.000667	-0.056067	-0.000175
H131	H	-0.605505	-0.547981	-0.516057
H132	H	-0.105505	-0.047981	-0.016057
H133	H	-0.580267	-0.631049	-0.490879
H134	H	-0.080267	-0.131049	0.009121
H135	H	-0.584237	-0.562415	-0.434703
H136	H	-0.084237	-0.062415	0.065297
H137	H	-0.489959	-0.569642	-0.549636
H138	H	0.010041	-0.069642	-0.049636
H139	H	-0.493927	-0.500990	-0.493467
H140	H	0.006073	-0.000990	0.006533
C141	C	-0.884964	-0.991748	-0.494568
C142	C	-0.384964	-0.491748	0.005432
C143	C	-0.934921	-1.036165	-0.453303
C144	C	-0.434921	-0.536165	0.046697
H145	H	-0.911045	-0.957436	-0.526482
H146	H	-0.411045	-0.457436	-0.026482
H147	H	-0.855029	-0.961524	-0.462473
H148	H	-0.355029	-0.461524	0.037527
H149	H	-0.854944	-1.026163	-0.522745
H150	H	-0.354944	-0.526163	-0.022745
H151	H	-0.964937	-1.001749	-0.425122
H152	H	-0.464937	-0.501749	0.074878
H153	H	-0.964869	-1.066391	-0.485402
H154	H	-0.464869	-0.566391	0.014598
H155	H	-0.487240	-0.717576	-0.486773
H156	H	0.012760	-0.217576	0.013227
C157	C	-0.494888	-0.799511	-0.494406
C158	C	0.005112	-0.299511	0.005594
C159	C	-0.453518	-0.853164	-0.453168
C160	C	0.046482	-0.353164	0.046832
H161	H	-0.526861	-0.827528	-0.526289
H162	H	-0.026861	-0.327528	-0.026289
H163	H	-0.522999	-0.767298	-0.462291
H164	H	-0.022999	-0.267298	0.037709
H165	H	-0.462857	-0.767330	-0.522614
H166	H	0.037143	-0.267330	-0.022614
H167	H	-0.485548	-0.885342	-0.424955
H168	H	0.014452	-0.385342	0.075045
H169	H	-0.425404	-0.885391	-0.485286
H170	H	0.074596	-0.385391	0.014714
H171	H	-0.269093	-1.234134	-0.924684
H172	H	0.230907	-0.734134	-0.424684
C173	C	-0.884956	-1.292913	-0.214615
C174	C	-0.384956	-0.792913	0.285385
C175	C	-0.934918	-1.248539	-0.255896
C176	C	-0.434918	-0.748539	0.244104
H177	H	-0.911033	-1.327244	-0.182706
H178	H	-0.411033	-0.827244	0.317294
H179	H	-0.854940	-1.323115	-0.246701
H180	H	-0.354940	-0.823115	0.253299
H181	H	-0.855017	-1.258472	-0.186432
H182	H	-0.355017	-0.758472	0.313568
H183	H	-0.964853	-1.282981	-0.284082
H184	H	-0.464853	-0.782981	0.215918
H185	H	-0.964947	-1.218336	-0.223806
H186	H	-0.464947	-0.718336	0.276194
C187	C	-0.214309	-0.799455	-0.214688
C188	C	0.285691	-0.299455	0.285312
C189	C	-0.255667	-0.853126	-0.255918
C190	C	0.244333	-0.353126	0.244082
H191	H	-0.182332	-0.827458	-0.182798
H192	H	0.317668	-0.327458	0.317202
H193	H	-0.186201	-0.767286	-0.246806
H194	H	0.313799	-0.267286	0.253194
H195	H	-0.246347	-0.767231	-0.186487
H196	H	0.253653	-0.267231	0.313513
H197	H	-0.223629	-0.885346	-0.284123
H198	H	0.276371	-0.385346	0.215877
H199	H	-0.283776	-0.885309	-0.223796
H200	H	0.216224	-0.385309	0.276204
H201	H	-0.221980	-0.717541	-0.222340
H202	H	0.278020	-0.217541	0.277660
H203	H	-0.439845	-1.050625	-0.924617
H204	H	0.060155	-0.550625	-0.424617
H205	H	-0.269128	-0.443946	-0.269344
H206	H	0.230872	0.056054	0.230656
C207	C	-0.218518	-0.474834	-0.218901
C208	C	0.281482	0.025166	0.281099
C209	C	-0.208556	-0.556003	-0.208973
C210	C	0.291444	-0.056003	0.291027
H211	H	-0.186538	-0.446817	-0.187024
H212	H	0.313462	0.053183	0.312976
H213	H	-0.207819	-0.461339	-0.268365
H214	H	0.292181	0.038661	0.231635
H215	H	-0.267953	-0.461296	-0.208035
H216	H	0.232047	0.038704	0.291965
H217	H	-0.159123	-0.569541	-0.219845
H218	H	0.340877	-0.069541	0.280155
H219	H	-0.219251	-0.569504	-0.159498
H220	H	0.280749	-0.069504	0.340502
H221	H	-0.440127	-0.443983	-0.439799
H222	H	0.059873	0.056017	0.060201
