data_functionalizedCrystal
_audit_creation_method	'MofGen! by Chris Wilmer'
_symmetry_space_group_name_H-M	'P1'
_symmetry_Int_Tables_number	1
_symmetry_cell_setting	triclinic
loop_
_symmetry_equiv_pos_as_xyz
  x,y,z
_cell_length_a	11.026607
_cell_length_b	10.268362
_cell_length_c	11.026607
_cell_angle_alpha	90.003050
_cell_angle_beta	108.586017
_cell_angle_gamma	90.003722
loop_
_atom_site_label
_atom_site_type_symbol
_atom_site_fract_x
_atom_site_fract_y
_atom_site_fract_z
O1	O	1.726734	0.108297	0.533625
O2	O	2.060067	0.441630	0.866958
O3	O	2.393400	0.774964	1.200291
O4	O	1.360154	0.108299	0.472861
O5	O	1.693487	0.441632	0.806194
O6	O	2.026820	0.774966	1.139528
O7	O	1.513062	0.108294	0.319953
O8	O	1.846395	0.441627	0.653286
O9	O	2.179729	0.774960	0.986619
O10	O	1.573825	0.108303	0.686533
O11	O	1.907159	0.441636	1.019866
O12	O	2.240492	0.774969	1.353199
O13	O	1.513043	-0.108307	0.319941
O14	O	1.846376	0.225026	0.653274
O15	O	2.179710	0.558360	0.986608
O16	O	1.360135	-0.108302	0.472849
O17	O	1.693468	0.225032	0.806183
O18	O	2.026802	0.558365	1.139516
O19	O	1.726715	-0.108304	0.533613
O20	O	2.060048	0.225030	0.866946
O21	O	2.393382	0.558363	1.200280
Cu22	Cu	1.543423	-0.128080	0.503230
Cu23	Cu	1.876757	0.205253	0.836563
Cu24	Cu	2.210090	0.538587	1.169897
Cu25	Cu	1.543445	0.128075	0.503244
Cu26	Cu	1.876779	0.461409	0.836577
Cu27	Cu	2.210112	0.794742	1.169911
O28	O	1.573807	-0.108298	0.686521
O29	O	1.907140	0.225035	1.019854
O30	O	2.240473	0.558369	1.353188
C31	C	1.312485	-0.000001	0.461645
C32	C	1.645818	0.333332	0.794979
C33	C	1.979151	0.666666	1.128312
C34	C	1.170471	-0.000000	0.428228
C35	C	1.503804	0.333333	0.761562
C36	C	1.837137	0.666667	1.094895
N37	N	1.543417	-0.308246	0.503221
N38	N	1.876750	0.025088	0.836555
N39	N	2.210083	0.358421	1.169888
C40	C	1.116821	0.000003	0.520498
C41	C	1.450155	0.333336	0.853831
C42	C	1.783488	0.666670	1.187165
C43	C	0.970043	0.000004	0.485962
C44	C	1.303376	0.333337	0.819296
C45	C	1.636709	0.666671	1.152629
C46	C	1.543438	-0.573916	0.503240
C47	C	1.876772	-0.240583	0.836573
C48	C	2.210105	0.092750	1.169907
C49	C	1.543423	-0.426078	0.503233
C50	C	1.876756	-0.092745	0.836566
C51	C	2.210090	0.240588	1.169899
C52	C	1.774384	-0.000001	0.544828
C53	C	2.107717	0.333333	0.878162
C54	C	2.441051	0.666666	1.211495
C55	C	1.916398	0.000007	0.578245
C56	C	2.249731	0.333340	0.911579
C57	C	2.583064	0.666674	1.244912
C58	C	1.501843	-0.000005	0.272287
C59	C	1.835176	0.333328	0.605621
C60	C	2.168509	0.666661	0.938954
C61	C	1.468426	-0.000000	0.130273
C62	C	1.801759	0.333333	0.463607
C63	C	2.135092	0.666666	0.796940
N64	N	1.543460	0.308241	0.503244
N65	N	1.876793	0.641575	0.836578
N66	N	2.210126	0.974908	1.169911
C67	C	1.560695	0.000001	0.076624
C68	C	1.894029	0.333334	0.409957
C69	C	2.227362	0.666668	0.743291
C70	C	1.526160	0.000006	-0.070155
C71	C	1.859493	0.333339	0.263179
C72	C	2.192826	0.666673	0.596512
C73	C	1.585026	0.000004	0.734187
C74	C	1.918359	0.333337	1.067520
C75	C	2.251693	0.666670	1.400853
C76	C	1.618443	0.000007	0.876200
C77	C	1.951776	0.333341	1.209534
C78	C	2.285109	0.666674	1.542867
H79	H	1.179555	-0.000002	0.625061
H80	H	1.512888	0.333332	0.958394
H81	H	1.846221	0.666665	1.291728
O82	O	1.087392	-0.000004	0.289716
O83	O	1.420725	0.333330	0.623049
O84	O	1.754058	0.666663	0.956383
H85	H	0.985143	0.000005	0.284327
H86	H	1.318476	0.333339	0.617660
H87	H	1.651810	0.666672	0.950993
H88	H	1.421590	0.000015	-0.132884
H89	H	1.754923	0.333348	0.200450
H90	H	2.088257	0.666682	0.533783
H91	H	1.665258	-0.000008	0.139357
H92	H	1.998592	0.333326	0.472691
H93	H	2.331925	0.666659	0.806024
H94	H	1.723013	0.000105	-0.061072
H95	H	2.056346	0.333438	0.272261
H96	H	2.389680	0.666771	0.605595
H97	H	1.363863	0.000009	0.067540
H98	H	1.697196	0.333342	0.400874
H99	H	2.030530	0.666675	0.734207
H100	H	0.979125	0.000001	0.682816
H101	H	1.312459	0.333334	1.016149
H102	H	1.645792	0.666668	1.349482
O103	O	0.886968	0.000000	0.347443
O104	O	1.220301	0.333334	0.680776
O105	O	1.553634	0.666667	1.014110
H106	H	0.784719	0.000009	0.342054
H107	H	1.118053	0.333343	0.675387
H108	H	1.451386	0.666676	1.008720
