data_functionalizedCrystal
_audit_creation_method	'MofGen! by Chris Wilmer'
_symmetry_space_group_name_H-M	'P1'
_symmetry_Int_Tables_number	1
_symmetry_cell_setting	triclinic
loop_
_symmetry_equiv_pos_as_xyz
  x,y,z
_cell_length_a	12.837943
_cell_length_b	12.837942
_cell_length_c	11.892095
_cell_angle_alpha	85.697431
_cell_angle_beta	85.689438
_cell_angle_gamma	85.171060
loop_
_atom_site_label
_atom_site_type_symbol
_atom_site_fract_x
_atom_site_fract_y
_atom_site_fract_z
O1	O	1.408367	-0.266110	-0.093982
O2	O	1.105234	-0.252667	-0.093989
O3	O	1.250078	-0.107822	-0.093979
O4	O	1.263522	-0.410955	-0.093992
O5	O	1.237999	-0.119879	0.094028
O6	O	1.093155	-0.264723	0.094018
O7	O	1.396288	-0.278167	0.094025
Zn8	Zn	1.242803	-0.273359	0.123871
Zn9	Zn	1.258718	-0.257474	-0.123836
O10	O	1.251443	-0.423011	0.094014
C11	C	1.060125	-0.254153	0.000014
C12	C	0.943710	-0.240609	0.000011
C13	C	0.718835	-0.403439	0.000020
C14	C	0.609453	-0.390717	0.000019
C15	C	0.615561	-0.202446	0.000015
C16	C	0.724943	-0.215167	0.000017
C17	C	0.776577	-0.315667	0.000017
C18	C	0.885961	-0.328387	0.000011
C19	C	0.892066	-0.140117	0.000015
C20	C	0.782684	-0.127395	0.000014
C21	C	1.239497	-0.074781	0.000024
C22	C	1.225953	0.041634	0.000022
C23	C	1.441397	-0.276680	0.000020
C24	C	1.557812	-0.290224	0.000015
C25	C	1.262024	-0.456052	0.000009
C26	C	1.275569	-0.572467	0.000004
N27	N	1.231950	-0.284200	0.292925
C28	C	1.388784	0.266509	0.000002
C29	C	1.376062	0.375892	-0.000000
C30	C	1.187791	0.369784	0.000007
C31	C	1.200512	0.260402	0.000009
C32	C	1.301011	0.208768	0.000008
C33	C	1.313731	0.099383	0.000019
C34	C	1.125461	0.093278	0.000018
C35	C	1.112740	0.202660	0.000016
N36	N	1.269579	-0.246626	-0.292889
C37	C	1.345098	-0.171130	0.529580
C38	C	1.337519	-0.178716	0.647922
C39	C	1.209210	-0.306952	0.647951
C40	C	1.216788	-0.299366	0.529610
C41	C	1.284736	-0.231454	0.470428
C42	C	1.292319	-0.223874	0.352085
C43	C	1.164005	-0.352104	0.352116
C44	C	1.156426	-0.359690	0.470458
H45	H	0.928000	-0.410219	0.000013
H46	H	1.447536	0.422901	-0.000009
C47	C	1.441028	-0.206690	0.218908
C48	C	1.366952	-0.149193	0.287000
H49	H	1.487090	-0.160571	0.178728
H50	H	1.406163	-0.241548	0.166768
H51	H	1.480079	-0.256935	0.265057
H52	H	1.327895	-0.098953	0.240850
H53	H	1.401821	-0.114317	0.339147
H54	H	0.760876	-0.485269	0.000019
C55	C	0.937151	0.022633	-0.096640
C56	C	0.955537	-0.043628	0.000010
H57	H	0.976341	0.082196	-0.096648
H58	H	0.864625	0.044585	-0.096628
H59	H	0.958037	-0.013943	-0.162193
H60	H	0.934644	-0.007054	0.065563
H61	H	1.028079	-0.065580	0.000009
C62	C	1.498551	0.116412	-0.000011
C63	C	1.424198	0.042625	0.000006
H64	H	1.566750	0.081373	-0.000030
H65	H	1.485472	0.154743	0.065549
H66	H	1.493866	0.163153	-0.065576
H67	H	1.428878	-0.004111	0.065576
H68	H	1.437282	0.004277	-0.065560
H69	H	0.562444	-0.462191	0.000024
H70	H	1.101102	-0.414980	0.518656
C71	C	1.471171	-0.045142	0.541433
C72	C	1.419785	-0.096487	0.464521
H73	H	1.517275	0.000944	0.501267
H74	H	1.510173	-0.095417	0.587578
H75	H	1.420912	-0.006116	0.587604
H76	H	1.470044	-0.135519	0.418355
H77	H	1.380781	-0.046205	0.418357
C78	C	1.122771	-0.524897	0.315703
C79	C	1.097650	-0.418423	0.287097
H80	H	1.081814	-0.565839	0.275558
H81	H	1.108530	-0.539119	0.394644
H82	H	1.195006	-0.541943	0.296289
H83	H	1.025416	-0.401375	0.306519
H84	H	1.111884	-0.404194	0.208138
C85	C	0.593275	-0.031861	-0.096629
C86	C	0.558790	-0.091985	0.000018
H87	H	0.558229	0.036334	-0.096621
H88	H	0.578300	-0.064255	-0.162177
H89	H	0.666683	-0.026874	-0.096621
H90	H	0.485383	-0.096978	0.000006
H91	H	0.573757	-0.059583	0.065583
C92	C	1.084706	0.534754	0.000003
C93	C	1.077329	0.426553	0.000009
H94	H	1.016509	0.569798	0.000012
H95	H	1.125502	0.558123	-0.065559
H96	H	1.117095	0.549723	0.065566
H97	H	1.044946	0.411583	-0.065558
H98	H	1.036517	0.403176	0.065578
C99	C	0.748001	0.030807	0.096651
C100	C	0.725923	-0.016930	0.000009
H101	H	0.712955	0.099003	0.096646
H102	H	0.821401	0.035791	0.096641
H103	H	0.724603	-0.009991	0.162209
H104	H	0.749329	0.023865	-0.065550
H105	H	0.652508	-0.021908	0.000008
C106	C	0.954555	0.237331	-0.096628
C107	C	1.002276	0.259426	0.000015
H108	H	0.886361	0.272381	-0.096628
H109	H	0.949568	0.163932	-0.096614
H110	H	0.995367	0.260714	-0.162186
H111	H	0.961468	0.236035	0.065573
H112	H	1.007259	0.332841	0.000011
H113	H	1.153882	-0.362237	0.696151
H114	H	1.470613	0.224468	0.000012
C115	C	1.036735	-0.027076	-0.096625
C116	C	1.028970	0.029811	0.000020
H117	H	0.977162	-0.066251	-0.096622
H118	H	1.098394	-0.073484	-0.096615
H119	H	1.039896	0.019931	-0.162181
H120	H	1.025816	-0.017197	0.065577
H121	H	0.967293	0.076223	0.000020
C122	C	1.337640	-0.047032	0.780998
C123	C	1.403871	-0.112407	0.712944
H124	H	1.378605	-0.006089	0.821134
H125	H	1.296104	-0.088563	0.833178
H126	H	1.293304	-0.002094	0.734829
H127	H	1.448201	-0.157351	0.759113
H128	H	1.445425	-0.070872	0.660758
