data_functionalizedCrystal
_audit_creation_method	'MofGen! by Chris Wilmer'
_symmetry_space_group_name_H-M	'P1'
_symmetry_Int_Tables_number	1
_symmetry_cell_setting	triclinic
loop_
_symmetry_equiv_pos_as_xyz
  x,y,z
_cell_length_a	19.902436
_cell_length_b	17.052862
_cell_length_c	17.052832
_cell_angle_alpha	45.842616
_cell_angle_beta	77.681327
_cell_angle_gamma	70.265605
loop_
_atom_site_label
_atom_site_type_symbol
_atom_site_fract_x
_atom_site_fract_y
_atom_site_fract_z
Zr1	Zr	0.804838	0.878691	-0.241096
O2	O	0.747337	1.046137	-0.395101
O3	O	0.804185	0.711238	-0.175956
O4	O	0.861148	0.878700	-0.369269
O5	O	0.666234	0.878671	-0.069695
O6	O	0.971719	0.878716	-0.369287
O7	O	0.690373	0.878675	-0.201789
O8	O	0.869822	0.579157	-0.023486
O9	O	0.768132	1.178229	-0.415496
O10	O	0.908510	0.780129	-0.169850
O11	O	0.807977	0.780114	-0.071256
O12	O	0.875045	0.977279	-0.298857
O13	O	0.774512	0.977264	-0.200264
Zr14	Zr	0.942687	0.878709	-0.030451
Zr15	Zr	0.981186	0.878716	-0.241125
Zr16	Zr	0.766339	0.878684	-0.030422
Zr17	Zr	0.838003	1.089364	-0.273624
Zr18	Zr	0.909522	0.668037	0.002077
O19	O	0.943340	1.046162	-0.095591
O20	O	0.998081	1.046172	-0.395142
O21	O	0.692596	1.046127	-0.095550
O22	O	1.000188	0.711264	0.123554
O23	O	1.054929	0.711274	-0.175997
O24	O	0.749444	0.711228	0.123595
O25	O	1.081291	0.878730	-0.201852
O26	O	0.886377	0.878700	0.097722
O27	O	0.775806	0.878685	0.097740
O28	O	1.057152	0.878726	-0.069758
O29	O	0.908305	1.178249	-0.415519
O30	O	0.839220	0.579151	0.143972
O31	O	0.979393	0.579171	0.143949
O32	O	1.009995	0.579177	-0.023508
O33	O	0.737530	1.178224	-0.248039
O34	O	0.877703	1.178244	-0.248061
O35	O	0.872480	0.780122	0.027310
O36	O	0.973013	0.780137	-0.071283
O37	O	0.939548	0.977287	-0.200291
O38	O	0.839015	0.977272	-0.101697
C39	C	0.832278	0.615181	-0.095086
C40	C	0.818199	0.525745	-0.081278
C41	C	0.988420	0.273680	-0.248226
C42	C	1.001648	0.357714	-0.261208
C43	C	0.955787	0.399726	-0.216226
C44	C	0.896695	0.357695	-0.158261
C45	C	0.883463	0.273659	-0.145286
C46	C	0.850830	0.399705	-0.113286
C47	C	0.791738	0.357675	-0.055321
C48	C	0.778509	0.273646	-0.042348
C49	C	0.824370	0.231635	-0.087329
C50	C	0.864062	0.483741	-0.126261
C51	C	0.759105	0.483721	-0.023321
C52	C	0.745877	0.399687	-0.010339
C53	C	0.653178	0.878669	-0.135738
C54	C	0.578314	0.878659	-0.135726
C55	C	0.306284	0.878714	-0.135789
C56	C	0.355939	0.754348	-0.054705
C57	C	0.433766	0.754270	-0.054345
C58	C	0.441241	0.878686	-0.135758
C59	C	0.388557	0.940446	-0.099941
C60	C	0.310787	0.939651	-0.099365
C61	C	0.338026	0.942210	-0.252854
C62	C	0.416505	0.939873	-0.252324
C63	C	0.517512	0.878677	-0.135742
C64	C	0.230012	0.878728	-0.135803
C65	C	1.094347	0.878731	-0.135809
C66	C	1.169212	0.878742	-0.135821
C67	C	0.921919	0.878709	-0.399295
C68	C	0.938263	0.878712	-0.488731
C69	C	0.915247	1.142219	-0.176461
C70	C	0.929327	1.231655	-0.190270
C71	C	0.740666	0.878675	-0.740788
C72	C	0.725310	0.878666	-0.656753
C73	C	0.778547	0.878678	-0.614744
C74	C	0.847143	0.878699	-0.656777
C75	C	0.862502	0.878700	-0.740814
C76	C	0.900382	0.878702	-0.614770
C77	C	0.968978	0.878723	-0.656803
C78	C	0.984334	0.878725	-0.740833
C79	C	0.931098	0.878713	-0.782842
C80	C	0.885023	0.878701	-0.530733
C81	C	1.006859	0.878725	-0.530759
C82	C	1.022215	0.878735	-0.614794
C83	C	0.825606	0.878692	0.127747
C84	C	0.809262	0.878689	0.217184
C85	C	1.052863	0.615212	-0.095122
C86	C	1.113647	0.525787	-0.081326
C87	C	0.784121	0.615172	0.168434
C88	C	0.753698	0.525734	0.271680
C89	C	1.004706	0.615204	0.168399
C90	C	1.049147	0.525775	0.271632
C91	C	0.742819	1.142197	-0.439946
C92	C	0.698378	1.231625	-0.543179
C93	C	0.694663	1.142188	-0.176425
C94	C	0.633878	1.231614	-0.190222
C95	C	0.963404	1.142228	-0.439982
C96	C	0.993827	1.231667	-0.543227
C97	C	1.108524	0.483787	-0.126306
C98	C	1.165637	0.399774	-0.113364
C99	C	1.227870	0.357757	-0.055435
C100	C	1.232992	0.399764	-0.010454
C101	C	1.175883	0.483782	-0.023403
C102	C	0.773079	0.483737	0.371625
C103	C	0.744490	0.399711	0.468641
C104	C	0.696524	0.357678	0.465711
C105	C	0.677141	0.399684	0.365755
C106	C	0.705726	0.483713	0.268740
C107	C	1.122501	0.483786	0.268647
C108	C	1.164268	0.399771	0.365636
C109	C	1.132679	0.357739	0.465609
C110	C	1.059318	0.399736	0.468591
C111	C	1.017553	0.483756	0.371603
C112	C	0.625026	1.273624	-0.540196
C113	C	0.583263	1.357666	-0.637188
C114	C	0.614853	1.399702	-0.737163
C115	C	0.688213	1.357699	-0.740144
C116	C	0.729976	1.273665	-0.643153
C117	C	0.639004	1.273622	-0.145251
C118	C	0.581899	1.357658	-0.158220
C119	C	0.519667	1.399679	-0.216153
C120	C	0.514543	1.357667	-0.261129
C121	C	0.571649	1.273638	-0.248167
C122	C	1.041792	1.273673	-0.540262
C123	C	1.070391	1.357699	-0.637262
C124	C	1.051020	1.399724	-0.737227
C125	C	1.003053	1.357709	-0.740190
C126	C	0.974459	1.273679	-0.643190
H127	H	0.912175	0.517955	-0.173457
C128	C	1.082480	1.492162	-0.843922
N129	N	1.106176	1.561789	-0.924281
H130	H	1.057571	1.239470	-0.458874
C131	C	1.038858	0.227465	-0.297703
N132	N	1.076851	0.192656	-0.334973
C133	C	0.810665	1.227462	-0.646451
N134	N	0.871441	1.192664	-0.648943
H135	H	0.987287	1.391938	-0.821595
C136	C	0.970344	0.492158	-0.230499
N137	N	0.981314	0.561776	-0.241246
H138	H	1.166694	0.289325	0.544576
H139	H	0.713928	1.391936	-0.821555
H140	H	0.450702	0.705367	0.032337
H141	H	0.730388	0.239436	0.004841
H142	H	0.599290	1.239403	-0.458800
C143	C	1.157267	0.530011	0.158685
N144	N	1.183459	0.564829	0.075863
C145	C	0.446076	1.403887	-0.324835
N146	N	0.394501	1.438693	-0.372808
H147	H	0.473173	1.468101	-0.226700
C148	C	0.765829	0.353510	0.578582
N149	N	0.781905	0.318711	0.661387
C150	C	1.066649	0.403937	-0.324962
N151	N	1.115612	0.438750	-0.372983
C152	C	1.159984	0.353571	-0.162840
N153	N	1.155723	0.318771	-0.200102
H154	H	0.812133	0.517950	0.374031
H155	H	1.274367	0.289343	-0.044898
C156	C	1.301453	0.353524	0.053276
N157	N	1.353017	0.318687	0.101285
C158	C	1.244962	0.353579	0.362332
N159	N	1.305739	0.318787	0.359842
C160	C	0.809816	0.139203	-0.073067
N161	N	0.798854	0.069588	-0.062332
C162	C	0.947986	0.878720	-0.875284
N163	N	0.960705	0.878723	-0.944910
H164	H	1.033605	0.365502	0.550003
C165	C	0.684407	0.529889	0.158806
N166	N	0.668347	0.564662	0.076005
H167	H	0.689669	1.239415	-0.098071
H168	H	1.040191	0.878729	-0.775048
H169	H	0.697764	0.365455	0.036855
C170	C	0.502568	1.403851	-0.633884
N171	N	0.441789	1.438636	-0.631392
C172	C	0.391903	1.064028	-0.176974
N173	N	0.394426	1.157110	-0.234995
H174	H	1.078067	0.878752	-0.649027
C175	C	0.282230	0.880344	0.016424
N176	N	0.260725	0.835668	0.103640
H177	H	1.109444	1.391898	-0.634829
H178	H	0.829172	0.878683	-0.496517
H179	H	0.721760	0.517929	0.013304
H180	H	0.471090	0.705831	-0.077300
H181	H	0.957823	0.517933	0.374049
H182	H	0.355479	0.705532	-0.077428
C183	C	0.410727	0.882492	0.014630
N184	N	0.427425	0.838832	0.100928
H185	H	0.334669	0.705777	0.031442
H186	H	0.567465	1.239437	-0.284785
C187	C	1.065423	0.878739	-0.484552
N188	N	1.109531	0.878747	-0.449743
H189	H	1.057860	0.517997	-0.173490
C190	C	0.568901	1.492134	-0.843845
N191	N	0.534286	1.561749	-0.924194
C192	C	0.587547	1.403846	-0.108727
N193	N	0.591803	1.438631	-0.071446
C194	C	0.665094	0.265232	0.572442
N195	N	0.641426	0.195596	0.652837
H196	H	0.275819	1.030897	-0.155614
H197	H	0.335695	0.902412	-0.284594
H198	H	0.452933	0.894842	-0.279252
H199	H	0.421405	1.030642	-0.316325
H200	H	0.304143	1.033828	-0.313323
H201	H	0.766041	0.878669	-0.546319
H202	H	0.697328	0.878657	-0.774992
C203	C	0.649828	0.878816	-0.610637
N204	N	0.592959	0.878992	-0.575943
H205	H	1.180062	0.517967	0.013234
H206	H	0.638084	0.365448	0.363386
H207	H	0.935402	1.239487	-0.645620
