data_functionalizedCrystal
_audit_creation_method	'MofGen! by Chris Wilmer'
_symmetry_space_group_name_H-M	'P1'
_symmetry_Int_Tables_number	1
_symmetry_cell_setting	triclinic
loop_
_symmetry_equiv_pos_as_xyz
  x,y,z
_cell_length_a	14.044220
_cell_length_b	14.044191
_cell_length_c	13.101039
_cell_angle_alpha	86.337551
_cell_angle_beta	86.330374
_cell_angle_gamma	86.809673
loop_
_atom_site_label
_atom_site_type_symbol
_atom_site_fract_x
_atom_site_fract_y
_atom_site_fract_z
O1	O	-0.225378	1.281976	-0.085160
O2	O	0.274622	1.781976	0.414840
O3	O	-0.217064	1.005304	-0.085173
O4	O	0.282936	1.505304	0.414827
O5	O	-0.082886	1.139487	-0.085162
O6	O	0.417114	1.639487	0.414838
O7	O	-0.359557	1.147793	-0.085171
O8	O	0.140443	1.647793	0.414829
O9	O	-0.092530	1.129861	0.085267
O10	O	0.407470	1.629861	0.585267
O11	O	-0.226709	0.995678	0.085256
O12	O	0.273291	1.495678	0.585256
O13	O	-0.235022	1.272350	0.085269
O14	O	0.264978	1.772350	0.585269
Zn15	Zn	-0.232397	1.132486	0.112322
Zn16	Zn	0.267603	1.632486	0.612322
Zn17	Zn	-0.219690	1.145168	-0.112226
Zn18	Zn	0.280310	1.645168	0.387774
O19	O	-0.369201	1.138167	0.085258
O20	O	0.130799	1.638167	0.585258
C21	C	-0.218250	0.964869	0.000040
C22	C	0.281750	1.464869	0.500040
C23	C	-0.207402	0.858726	0.000035
C24	C	0.292598	1.358726	0.500035
C25	C	-0.264503	0.613268	0.000043
C26	C	0.235497	1.113268	0.500043
C27	C	-0.187587	0.664393	0.000044
C28	C	0.312413	1.164393	0.500044
C29	C	-0.198615	0.772530	0.000039
C30	C	0.301385	1.272530	0.500039
C31	C	-0.253477	0.505121	0.000048
C32	C	0.246523	1.005121	0.500048
C33	C	-0.400001	1.146616	0.000042
C34	C	0.099999	1.646616	0.500042
C35	C	-0.506144	1.157461	0.000039
C36	C	-0.006144	1.657461	0.500039
C37	C	-0.700482	1.177287	0.000045
C38	C	-0.200482	1.677287	0.500045
C39	C	-0.751610	1.100372	0.000042
C40	C	-0.251610	1.600372	0.500042
C41	C	-0.859747	1.111404	0.000045
C42	C	-0.359747	1.611404	0.500045
C43	C	-0.592336	1.166257	0.000042
C44	C	-0.092336	1.666257	0.500042
C45	C	-0.052086	1.131038	0.000051
C46	C	0.447914	1.631038	0.500051
C47	C	0.054057	1.120194	0.000047
C48	C	0.554057	1.620194	0.500047
C49	C	-0.233837	1.312785	0.000054
C50	C	0.266163	1.812785	0.500054
C51	C	-0.244684	1.418928	0.000052
C52	C	0.255316	1.918928	0.500052
N53	N	-0.241069	1.123837	0.265569
N54	N	0.258931	1.623837	0.765569
N55	N	-0.211011	1.153824	-0.265474
N56	N	0.288989	1.653824	0.234526
C57	C	-0.252877	1.112071	0.474611
C58	C	0.247123	1.612071	0.974611
C59	C	-0.199206	1.165587	0.525491
C60	C	0.300794	1.665587	1.025491
C61	C	-0.205776	1.159040	0.641809
C62	C	0.294224	1.659040	1.141809
C63	C	-0.246308	1.118617	0.358283
C64	C	0.253692	1.618617	0.858283
H65	H	-0.714169	1.026239	0.000039
H66	H	-0.214169	1.526239	0.500039
H67	H	-0.737922	1.251414	0.000052
H68	H	-0.237922	1.751414	0.500052
N69	N	-0.131803	1.232793	0.467487
N70	N	0.368197	1.732793	0.967487
H71	H	-0.136604	1.228006	0.391411
H72	H	0.363396	1.728006	0.891411
H73	H	-0.149529	1.300437	0.486172
H74	H	0.350471	1.800437	0.986172
H75	H	-0.113451	0.626953	-0.000026
H76	H	0.386549	1.126953	0.499974
H77	H	-0.338630	0.650709	0.000038
H78	H	0.161370	1.150709	0.500038
H79	H	-0.303758	1.061341	0.518404
H80	H	0.196242	1.561341	1.018404
