data_functionalizedCrystal
_audit_creation_method	'MofGen! by Chris Wilmer'
_symmetry_space_group_name_H-M	'P1'
_symmetry_Int_Tables_number	1
_symmetry_cell_setting	triclinic
loop_
_symmetry_equiv_pos_as_xyz
  x,y,z
_cell_length_a	18.215407
_cell_length_b	18.050589
_cell_length_c	18.215399
_cell_angle_alpha	89.976397
_cell_angle_beta	89.980167
_cell_angle_gamma	90.028669
loop_
_atom_site_label
_atom_site_type_symbol
_atom_site_fract_x
_atom_site_fract_y
_atom_site_fract_z
Zn1	Zn	1.125055	-0.295658	-0.416138
Zn2	Zn	1.458388	0.037675	-0.082805
Zn3	Zn	1.791722	0.371008	0.250529
Zn4	Zn	1.124956	-0.419853	-0.293081
Zn5	Zn	1.458289	-0.086520	0.040252
Zn6	Zn	1.791623	0.246813	0.373586
Zn7	Zn	1.001987	-0.295682	-0.293085
Zn8	Zn	1.335321	0.037651	0.040248
Zn9	Zn	1.668654	0.370984	0.373581
Zn10	Zn	1.001946	-0.419812	-0.416106
Zn11	Zn	1.335280	-0.086479	-0.082773
Zn12	Zn	1.668613	0.246855	0.250561
O13	O	1.063486	-0.357751	-0.354603
O14	O	1.396820	-0.024418	-0.021269
O15	O	1.730153	0.308915	0.312064
O16	O	1.228026	-0.312140	-0.399826
O17	O	1.561359	0.021193	-0.066493
O18	O	1.894693	0.354527	0.266841
O19	O	1.108620	-0.403409	-0.190097
O20	O	1.441953	-0.070076	0.143236
O21	O	1.775287	0.263258	0.476569
O22	O	1.018371	-0.191755	-0.309424
O23	O	1.351705	0.141579	0.023909
O24	O	1.685038	0.474912	0.357243
O25	O	1.227953	-0.403386	-0.309417
O26	O	1.561287	-0.070052	0.023917
O27	O	1.894620	0.263281	0.357250
O28	O	1.108788	-0.191737	-0.399830
O29	O	1.442122	0.141597	-0.066497
O30	O	1.775455	0.474930	0.266837
O31	O	1.018275	-0.312181	-0.190101
O32	O	1.351609	0.021152	0.143233
O33	O	1.684942	0.354485	0.476566
O34	O	0.898998	-0.312141	-0.309393
O35	O	1.232331	0.021192	0.023941
O36	O	1.565664	0.354525	0.357274
O37	O	1.018301	-0.403315	-0.519095
O38	O	1.351634	-0.069982	-0.185761
O39	O	1.684968	0.263352	0.147572
O40	O	0.898967	-0.403339	-0.399775
O41	O	1.232301	-0.070005	-0.066442
O42	O	1.565634	0.263328	0.266891
O43	O	1.108748	-0.312100	-0.519118
O44	O	1.442082	0.021233	-0.185785
O45	O	1.775415	0.354567	0.147549
O46	O	1.108580	-0.523772	-0.309385
O47	O	1.441913	-0.190439	0.023948
O48	O	1.775247	0.142894	0.357281
O49	O	1.018205	-0.523742	-0.399771
O50	O	1.351538	-0.190409	-0.066438
O51	O	1.684872	0.142925	0.266895
C52	C	0.872280	-0.357739	-0.354582
C53	C	1.205613	-0.024405	-0.021248
C54	C	1.538947	0.308928	0.312085
C55	C	0.790481	-0.357751	-0.354590
C56	C	1.123814	-0.024418	-0.021257
C57	C	1.457148	0.308915	0.312077
C58	C	1.063397	-0.550704	-0.354590
C59	C	1.396731	-0.217370	-0.021257
C60	C	1.730064	0.115963	0.312076
C61	C	1.063427	-0.633249	-0.354610
C62	C	1.396760	-0.299916	-0.021277
C63	C	1.730093	0.033417	0.312057
C64	C	0.602291	-0.405312	-0.401593
C65	C	0.935624	-0.071979	-0.068260
C66	C	1.268957	0.261354	0.265073
C67	C	0.525432	-0.405315	-0.401602
C68	C	0.858765	-0.071981	-0.068269
C69	C	1.192098	0.261352	0.265064
C70	C	0.525434	-0.310204	-0.307628
C71	C	0.858767	0.023129	0.025705
C72	C	1.192100	0.356463	0.359038
C73	C	0.602291	-0.310199	-0.307623
C74	C	0.935624	0.023135	0.025710
C75	C	1.268958	0.356468	0.359043
C76	C	0.640718	-0.357757	-0.354605
C77	C	0.974051	-0.024424	-0.021271
C78	C	1.307384	0.308910	0.312062
C79	C	0.487001	-0.357765	-0.354619
C80	C	0.820335	-0.024431	-0.021285
C81	C	1.153668	0.308902	0.312048
C82	C	0.403668	-0.357767	-0.354628
C83	C	0.737001	-0.024434	-0.021295
C84	C	1.070334	0.308900	0.312038
C85	C	0.724056	-0.357754	-0.354596
C86	C	1.057390	-0.024421	-0.021263
C87	C	1.390723	0.308913	0.312070
C88	C	1.014329	-0.832710	-0.403744
C89	C	1.347662	-0.499377	-0.070411
C90	C	1.680996	-0.166044	0.262922
C91	C	0.996389	-0.882151	-0.336590
C92	C	1.329723	-0.548818	-0.003257
C93	C	1.663056	-0.215484	0.330076
C94	C	1.063499	-0.784380	-0.354619
C95	C	1.396832	-0.451046	-0.021286
C96	C	1.730166	-0.117713	0.312047
C97	C	1.081475	-0.882021	-0.421781
C98	C	1.414808	-0.548688	-0.088448
C99	C	1.748141	-0.215354	0.244885
C100	C	1.063567	-0.930365	-0.354635
C101	C	1.396901	-0.597031	-0.021301
C102	C	1.730234	-0.263698	0.312032
C103	C	1.045524	-0.832733	-0.287430
C104	C	1.378857	-0.499400	0.045904
C105	C	1.712191	-0.166066	0.379237
C106	C	1.130641	-0.832599	-0.372666
C107	C	1.463974	-0.499265	-0.039333
C108	C	1.797307	-0.165932	0.294001
C109	C	1.112726	-0.882017	-0.305466
C110	C	1.446060	-0.548683	0.027868
C111	C	1.779393	-0.215350	0.361201
C112	C	1.063458	-0.700281	-0.354612
C113	C	1.396791	-0.366948	-0.021278
C114	C	1.730124	-0.033615	0.312055
C115	C	1.063609	-1.014461	-0.354635
C116	C	1.396942	-0.681128	-0.021301
C117	C	1.730276	-0.347795	0.312032
C118	C	1.255439	-0.357765	-0.354624
C119	C	1.588772	-0.024431	-0.021291
C120	C	1.922106	0.308902	0.312042
C121	C	1.337238	-0.357770	-0.354634
C122	C	1.670571	-0.024437	-0.021300
C123	C	2.003905	0.308896	0.312033
C124	C	1.063531	-0.357700	-0.546556
C125	C	1.396864	-0.024367	-0.213222
C126	C	1.730198	0.308966	0.120111
C127	C	1.063550	-0.357678	-0.628355
C128	C	1.396883	-0.024345	-0.295021
C129	C	1.730217	0.308988	0.038312
C130	C	1.063595	-0.164046	-0.354631
C131	C	1.396929	0.169288	-0.021298
C132	C	1.730262	0.502621	0.312036
C133	C	1.063642	-0.081500	-0.354643
C134	C	1.396975	0.251833	-0.021310
C135	C	1.730309	0.585167	0.312024
C136	C	1.110663	-0.310138	-0.816562
C137	C	1.443996	0.023195	-0.483229
C138	C	1.777330	0.356528	-0.149895
C139	C	1.110672	-0.310117	-0.893421
C140	C	1.444005	0.023217	-0.560088
C141	C	1.777338	0.356550	-0.226754
C142	C	1.016489	-0.405104	-0.893385
C143	C	1.349823	-0.071770	-0.560052
C144	C	1.683156	0.261563	-0.226718
C145	C	1.016477	-0.405121	-0.816528
C146	C	1.349811	-0.071788	-0.483194
C147	C	1.683144	0.261546	-0.149861
C148	C	1.063568	-0.357639	-0.778118
C149	C	1.396902	-0.024306	-0.444785
C150	C	1.730235	0.309027	-0.111452
C151	C	1.063589	-0.357600	-0.931834
C152	C	1.396922	-0.024267	-0.598501
C153	C	1.730256	0.309066	-0.265168
C154	C	1.063598	-0.357577	-1.015168
C155	C	1.396932	-0.024244	-0.681835
C156	C	1.730265	0.309089	-0.348501
C157	C	1.063558	-0.357661	-0.694779
C158	C	1.396892	-0.024328	-0.361446
C159	C	1.730225	0.309005	-0.028113
C160	C	1.063484	-0.357749	-0.163396
C161	C	1.396817	-0.024416	0.169937
C162	C	1.730151	0.308918	0.503270
C163	C	1.063607	-0.357561	-0.081598
C164	C	1.396941	-0.024228	0.251735
C165	C	1.730274	0.309105	0.585069
H166	H	0.494148	-0.444038	-0.439866
H167	H	0.827481	-0.110705	-0.106533
H168	H	1.160815	0.222629	0.226800
O169	O	1.156491	-0.263952	-0.930651
O170	O	1.489824	0.069381	-0.597318
O171	O	1.823157	0.402715	-0.263985
C172	C	1.198035	-0.222036	-0.880266
C173	C	1.531368	0.111297	-0.546932
C174	C	1.864701	0.444630	-0.213599
H175	H	1.200558	-0.252470	-0.825475
H176	H	1.533891	0.080863	-0.492142
H177	H	1.867225	0.414196	-0.158809
H178	H	1.256026	-0.214112	-0.902485
H179	H	1.589359	0.119221	-0.569152
H180	H	1.922692	0.452555	-0.235818
H181	H	1.171115	-0.165634	-0.872094
H182	H	1.504449	0.167700	-0.538761
H183	H	1.837782	0.501033	-0.205427
H184	H	0.978151	-0.443763	-0.924667
H185	H	1.311484	-0.110430	-0.591334
H186	H	1.644818	0.222904	-0.258001
O187	O	1.198380	-0.806700	-0.390810
O188	O	1.531714	-0.473367	-0.057476
O189	O	1.865047	-0.140033	0.275857
C190	C	1.250338	-0.832900	-0.339667
C191	C	1.583671	-0.499567	-0.006334
C192	C	1.917004	-0.166234	0.326999
H193	H	1.228559	-0.885320	-0.312340
H194	H	1.561893	-0.551987	0.020993
H195	H	1.895226	-0.218653	0.354327
H196	H	1.304015	-0.845865	-0.369174
H197	H	1.637348	-0.512531	-0.035841
H198	H	1.970681	-0.179198	0.297492
H199	H	1.260454	-0.788703	-0.296134
H200	H	1.593787	-0.455370	0.037199
H201	H	1.927121	-0.122037	0.370533
H202	H	1.149006	-0.271474	-0.785291
H203	H	1.482339	0.061860	-0.451958
H204	H	1.815672	0.395193	-0.118625
O205	O	0.970705	-0.451338	-0.779292
O206	O	1.304038	-0.118005	-0.445959
O207	O	1.637371	0.215329	-0.112625
C208	C	0.929135	-0.493235	-0.829672
C209	C	1.262469	-0.159901	-0.496339
C210	C	1.595802	0.173432	-0.163006
H211	H	0.959284	-0.495798	-0.884465
H212	H	1.292617	-0.162464	-0.551132
H213	H	1.625950	0.170869	-0.217799
H214	H	0.921251	-0.551751	-0.807450
H215	H	1.254585	-0.218418	-0.474117
H216	H	1.587918	0.114915	-0.140783
H217	H	0.873258	-0.466036	-0.837840
H218	H	1.206591	-0.132702	-0.504507
H219	H	1.539925	0.200631	-0.171173
H220	H	0.494138	-0.271485	-0.269377
H221	H	0.827471	0.061848	0.063957
H222	H	1.160804	0.395182	0.397290
O223	O	0.639510	-0.263977	-0.261906
O224	O	0.972844	0.069356	0.071428
O225	O	1.306177	0.402689	0.404761
C226	C	0.589115	-0.221994	-0.220448
C227	C	0.922449	0.111339	0.112885
C228	C	1.255782	0.444673	0.446219
H229	H	0.534314	-0.252411	-0.217850
H230	H	0.867647	0.080922	0.115484
H231	H	1.200980	0.414255	0.448817
H232	H	0.611305	-0.213997	-0.162478
H233	H	0.944638	0.119336	0.170856
H234	H	1.277972	0.452670	0.504189
H235	H	0.580977	-0.165626	-0.247491
H236	H	0.914310	0.167708	0.085842
H237	H	1.247643	0.501041	0.419175
O238	O	0.964600	-0.807000	-0.453244
O239	O	1.297933	-0.473666	-0.119911
O240	O	1.631266	-0.140333	0.213423
C241	C	0.929350	-0.867330	-0.487509
C242	C	1.262683	-0.533997	-0.154176
C243	C	1.596017	-0.200664	0.179157
H244	H	0.933167	-0.918214	-0.450620
H245	H	1.266501	-0.584881	-0.117286
H246	H	1.599834	-0.251548	0.216047
H247	H	0.869183	-0.853107	-0.497355
H248	H	1.202516	-0.519774	-0.164022
H249	H	1.535850	-0.186440	0.169311
H250	H	0.957194	-0.879455	-0.542260
H251	H	1.290528	-0.546122	-0.208926
H252	H	1.623861	-0.212788	0.124407
O253	O	0.639505	-0.451527	-0.447304
O254	O	0.972838	-0.118193	-0.113970
O255	O	1.306171	0.215140	0.219363
C256	C	0.589103	-0.493512	-0.488767
C257	C	0.922436	-0.160179	-0.155433
C258	C	1.255770	0.173155	0.177900
H259	H	0.534330	-0.463099	-0.491365
H260	H	0.867664	-0.129766	-0.158032
H261	H	1.200997	0.203567	0.175301
H262	H	0.611328	-0.501502	-0.546737
H263	H	0.944662	-0.168169	-0.213403
H264	H	1.277995	0.165164	0.119930
H265	H	0.580894	-0.549883	-0.461728
H266	H	0.914227	-0.216550	-0.128394
H267	H	1.247560	0.116784	0.204939
H268	H	0.939642	-0.903933	-0.321340
H269	H	1.272975	-0.570600	0.011993
H270	H	1.606309	-0.237266	0.345326
O271	O	1.027214	-0.806983	-0.219704
O272	O	1.360547	-0.473649	0.113629
O273	O	1.693881	-0.140316	0.446963
C274	C	0.963093	-0.763569	-0.224817
C275	C	1.296426	-0.430235	0.108516
C276	C	1.629759	-0.096902	0.441850
H277	H	0.931089	-0.779991	-0.276065
H278	H	1.264423	-0.446658	0.057269
H279	H	1.597756	-0.113325	0.390602
H280	H	0.927545	-0.773085	-0.174159
H281	H	1.260879	-0.439752	0.159174
H282	H	1.594212	-0.106419	0.492508
H283	H	0.978793	-0.702525	-0.228362
H284	H	1.312126	-0.369191	0.104972
H285	H	1.645459	-0.035858	0.438305
O286	O	1.162285	-0.907655	-0.255759
O287	O	1.495618	-0.574321	0.077574
O288	O	1.828951	-0.240988	0.410908
C289	C	1.143106	-0.882390	-0.185079
C290	C	1.476439	-0.549057	0.148255
C291	C	1.809773	-0.215723	0.481588
H292	H	1.082043	-0.868662	-0.183622
H293	H	1.415376	-0.535329	0.149712
H294	H	1.748709	-0.201995	0.483045
H295	H	1.155503	-0.927466	-0.143024
H296	H	1.488837	-0.594132	0.190309
H297	H	1.822170	-0.260799	0.523642
H298	H	1.176263	-0.830615	-0.171436
H299	H	1.509596	-0.497281	0.161897
H300	H	1.842930	-0.163948	0.495231
H301	H	1.096652	-0.903671	-0.478573
H302	H	1.429985	-0.570338	-0.145240
H303	H	1.763318	-0.237005	0.188093
