data_functionalizedCrystal
_audit_creation_method	'MofGen! by Chris Wilmer'
_symmetry_space_group_name_H-M	'P1'
_symmetry_Int_Tables_number	1
_symmetry_cell_setting	triclinic
loop_
_symmetry_equiv_pos_as_xyz
  x,y,z
_cell_length_a	12.811439
_cell_length_b	12.837942
_cell_length_c	11.892095
_cell_angle_alpha	94.302569
_cell_angle_beta	91.497754
_cell_angle_gamma	89.411061
loop_
_atom_site_label
_atom_site_type_symbol
_atom_site_fract_x
_atom_site_fract_y
_atom_site_fract_z
O1	O	-1.403420	-0.143153	-0.049853
O2	O	-0.903420	0.356847	0.450147
O3	O	-1.101351	-0.156174	-0.018888
O4	O	-0.601351	0.343826	0.481112
O5	O	-1.245687	0.001316	-0.033691
O6	O	-0.745687	0.501316	0.466309
O7	O	-1.259084	-0.300643	-0.035050
O8	O	-0.759084	0.199357	0.464950
O9	O	-1.233650	-0.011795	-0.220464
O10	O	-0.733650	0.488205	0.279536
O11	O	-1.089315	-0.169285	-0.205661
O12	O	-0.589315	0.330715	0.294339
O13	O	-1.391383	-0.156264	-0.236626
O14	O	-0.891383	0.343736	0.263374
Zn15	Zn	-1.238438	-0.164856	-0.250798
Zn16	Zn	-0.738438	0.335144	0.249202
Zn17	Zn	-1.254296	-0.147582	-0.004716
Zn18	Zn	-0.754296	0.352418	0.495284
O19	O	-1.247047	-0.313754	-0.221823
O20	O	-0.747047	0.186246	0.278177
C21	C	-1.056401	-0.161599	-0.108284
C22	C	-0.556401	0.338401	0.391716
C23	C	-0.940395	-0.158218	-0.096392
C24	C	-0.440395	0.341782	0.403608
C25	C	-0.709283	-0.166140	-0.277688
C26	C	-0.209283	0.333860	0.222312
C27	C	-0.600285	-0.162963	-0.266521
C28	C	-0.100285	0.337037	0.233479
C29	C	-0.613399	-0.148680	-0.062890
C30	C	-0.113399	0.351320	0.437110
C31	C	-0.722397	-0.151857	-0.074057
C32	C	-0.222397	0.348143	0.425943
C33	C	-0.770335	-0.160589	-0.181460
C34	C	-0.270335	0.339411	0.318540
C35	C	-0.879335	-0.163773	-0.192627
C36	C	-0.379335	0.336227	0.307373
C37	C	-0.892447	-0.149483	0.011003
C38	C	-0.392447	0.350517	0.511003
C39	C	-0.783449	-0.146306	0.022171
C40	C	-0.283449	0.353694	0.522171
C41	C	-1.235143	0.033433	-0.126613
C42	C	-0.735143	0.533433	0.373387
C43	C	-1.221647	0.148666	-0.125228
C44	C	-0.721647	0.648666	0.374772
C45	C	-0.436333	-0.150843	-0.147231
C46	C	0.063667	0.349157	0.352769
C47	C	-0.552338	-0.154235	-0.159125
C48	C	-0.052338	0.345765	0.340875
C49	C	-1.257591	-0.345871	-0.128899
C50	C	-0.757591	0.154129	0.371101
C51	C	-1.271088	-0.461103	-0.130277
C52	C	-0.771088	0.038897	0.369723
N53	N	-1.227622	-0.176644	-0.418743
N54	N	-0.727622	0.323356	0.081257
C55	C	-1.383905	0.387757	-0.141837
C56	C	-0.883905	0.887757	0.358163
C57	C	-1.371229	0.496029	-0.140536
C58	C	-0.871229	0.996029	0.359464
C59	C	-1.183618	0.473484	-0.121315
C60	C	-0.683618	0.973484	0.378685
C61	C	-1.196295	0.365212	-0.122617
C62	C	-0.696295	0.865212	0.377383
C63	C	-1.296441	0.322353	-0.132880
C64	C	-0.796441	0.822353	0.367120
C65	C	-1.309117	0.214078	-0.134189
C66	C	-0.809117	0.714078	0.365811
C67	C	-1.121508	0.191536	-0.114961
C68	C	-0.621508	0.691536	0.385039
C69	C	-1.108831	0.299808	-0.113659
C70	C	-0.608831	0.799808	0.386341
C71	C	-1.340373	-0.053696	-0.666954
C72	C	-0.840373	0.446304	-0.166954
C73	C	-1.332821	-0.061944	-0.784522
C74	C	-0.832821	0.438056	-0.284522
C75	C	-1.204963	-0.201382	-0.771447
C76	C	-0.704963	0.298618	-0.271447
C77	C	-1.212514	-0.193134	-0.653879
C78	C	-0.712514	0.306866	-0.153879
C79	C	-1.280223	-0.119290	-0.601638
C80	C	-0.780223	0.380710	-0.101638
C81	C	-1.287779	-0.111048	-0.484069
C82	C	-0.787779	0.388952	0.015931
C83	C	-1.159916	-0.250480	-0.470995
C84	C	-0.659916	0.249520	0.029005
C85	C	-1.152364	-0.258728	-0.588563
C86	C	-0.652364	0.241272	-0.088563
N87	N	-1.265119	-0.135785	0.163228
N88	N	-0.765119	0.364215	0.663228
H89	H	-0.550580	-0.167489	-0.344880
H90	H	-0.050580	0.332511	0.155120
H91	H	-1.442451	0.549279	-0.147827
H92	H	-0.942451	1.049279	0.352173
O93	O	-1.000823	0.346045	-0.102592
O94	O	-0.500823	0.846045	0.397408
H95	H	-0.942134	0.282372	-0.096576
H96	H	-0.442134	0.782372	0.403424
O97	O	-0.931038	-0.173199	-0.308466
O98	O	-0.431038	0.326801	0.191534
H99	H	-0.982672	-0.104413	-0.318662
H100	H	-0.482672	0.395587	0.181338
H101	H	-1.465448	0.352860	-0.150205
H102	H	-0.965448	0.852860	0.349795
O103	O	-1.360778	-0.031385	-0.427707
O104	O	-0.860778	0.468615	0.072293
H105	H	-1.419269	-0.071904	-0.379768
H106	H	-0.919269	0.428096	0.120232
O107	O	-0.731744	-0.136878	0.138009
O108	O	-0.231744	0.363122	0.638009
H109	H	-0.753535	-0.204641	0.184924
H110	H	-0.253535	0.295359	0.684924
O111	O	-0.760999	-0.175570	-0.393521
O112	O	-0.260999	0.324430	0.106479
H113	H	-0.700233	-0.178898	-0.458561
H114	H	-0.200233	0.321102	0.041439
O115	O	-0.958294	-0.143487	0.114804
O116	O	-0.458294	0.356513	0.614804
H117	H	-1.042142	-0.147156	0.088999
H118	H	-0.542142	0.352844	0.588999
O119	O	-1.027161	0.120995	-0.105294
O120	O	-0.527161	0.620995	0.394706
H121	H	-1.052797	0.038506	-0.107917
H122	H	-0.552797	0.538506	0.392083
O123	O	-0.561687	-0.139259	0.052946
O124	O	-0.061687	0.360741	0.552946
H125	H	-0.475637	-0.137986	0.044539
H126	H	0.024363	0.362014	0.544539
O127	O	-1.417126	0.167844	-0.145243
O128	O	-0.917126	0.667844	0.354757
H129	H	-1.475815	0.231520	-0.151237
H130	H	-0.975815	0.731520	0.348763
H131	H	-1.102084	0.508401	-0.112948
H132	H	-0.602084	1.008401	0.387052
H133	H	-1.395511	0.006424	-0.624419
H134	H	-0.895511	0.506424	-0.124419
H135	H	-1.381800	-0.008529	-0.837700
H136	H	-0.881800	0.491471	-0.337700
O137	O	-1.131939	-0.281024	-0.827801
O138	O	-0.631939	0.218976	-0.327801
H139	H	-1.136800	-0.275738	-0.920526
H140	H	-0.636800	0.224262	-0.420526
H141	H	-1.097234	-0.318848	-0.631111
H142	H	-0.597234	0.181152	-0.131111
O143	O	-1.095025	-0.321230	-0.400548
O144	O	-0.595025	0.178770	0.099452
H145	H	-1.111644	-0.303087	-0.310018
H146	H	-0.611644	0.196913	0.189982
