data_functionalizedCrystal
_audit_creation_method	'MofGen! by Chris Wilmer'
_symmetry_space_group_name_H-M	'P1'
_symmetry_Int_Tables_number	1
_symmetry_cell_setting	triclinic
loop_
_symmetry_equiv_pos_as_xyz
  x,y,z
_cell_length_a	12.759401
_cell_length_b	18.101395
_cell_length_c	12.759393
_cell_angle_alpha	89.966555
_cell_angle_beta	89.981504
_cell_angle_gamma	90.031265
loop_
_atom_site_label
_atom_site_type_symbol
_atom_site_fract_x
_atom_site_fract_y
_atom_site_fract_z
Zn1	Zn	1.606136	-0.294783	-0.593968
Zn2	Zn	1.605980	-0.418644	-0.418282
Zn3	Zn	1.430438	-0.294822	-0.418307
Zn4	Zn	1.430376	-0.418587	-0.593923
O5	O	1.518232	-0.356709	-0.506120
O6	O	1.753136	-0.311221	-0.570671
O7	O	1.582654	-0.402259	-0.271264
O8	O	1.453835	-0.191183	-0.441638
O9	O	1.753021	-0.402221	-0.441595
O10	O	1.582920	-0.191155	-0.570695
O11	O	1.453684	-0.311287	-0.271283
O12	O	1.283408	-0.311232	-0.441595
O13	O	1.453730	-0.402124	-0.740950
O14	O	1.283363	-0.402162	-0.570619
O15	O	1.582860	-0.311166	-0.740983
O16	O	1.582594	-0.522270	-0.441552
O17	O	1.453579	-0.522228	-0.570595
C18	C	1.245265	-0.356695	-0.506106
C19	C	1.128488	-0.356707	-0.506125
C20	C	1.518092	-0.549120	-0.506089
C21	C	1.518128	-0.631434	-0.506111
C22	C	1.073630	-0.404131	-0.573197
C23	C	0.963906	-0.404140	-0.573208
C24	C	0.963908	-0.309301	-0.439066
C25	C	1.073630	-0.309288	-0.439061
C26	C	1.073628	-0.458887	-0.650639
C27	C	0.963904	-0.458897	-0.650650
C28	C	1.518358	-0.930525	-0.506168
C29	C	1.437374	-0.899204	-0.587559
C30	C	1.436989	-0.813586	-0.587305
C31	C	1.518244	-0.782142	-0.506140
C32	C	1.488263	-0.813302	-0.395415
C33	C	1.487741	-0.898947	-0.395903
C34	C	1.629501	-0.898866	-0.534526
C35	C	1.628847	-0.813215	-0.536954
C36	C	1.518181	-0.698283	-0.506118
C37	C	1.518418	-1.014384	-0.506182
C38	C	1.792265	-0.356723	-0.506135
C39	C	1.909042	-0.356729	-0.506141
C40	C	1.518306	-0.356634	-0.780153
C41	C	1.518337	-0.356602	-0.896930
C42	C	1.518402	-0.163547	-0.506174
C43	C	1.518474	-0.081233	-0.506197
C44	C	1.585584	-0.309236	-0.951811
C45	C	1.585609	-0.309209	-1.061535
C46	C	1.451137	-0.403922	-1.061488
C47	C	1.451108	-0.403944	-0.951766
C48	C	1.663224	-0.254556	-0.951839
C49	C	1.663249	-0.254529	-1.061563
C50	C	1.518219	-0.356730	-0.233153
C51	C	1.518392	-0.356553	-0.116376
H52	H	1.118291	-0.270667	-0.384452
H53	H	0.919229	-0.270693	-0.384467
H54	H	1.545393	-0.792936	-0.333119
N55	N	1.765309	-0.273819	-1.098923
N56	N	1.777195	-0.329679	-1.155224
H57	H	1.849273	-0.343304	-1.181608
H58	H	1.406496	-0.918992	-0.371879
H59	H	1.634158	-0.200035	-1.095613
N60	N	1.387415	-0.786501	-0.364724
N61	N	1.349248	-0.805129	-0.278422
H62	H	1.278021	-0.786203	-0.256750
N63	N	1.760163	-0.280335	-0.909152
N64	N	1.843612	-0.247153	-0.929743
H65	H	1.912077	-0.265361	-0.899598
H66	H	1.107620	-0.513341	-0.621352
N67	N	1.111023	-0.439703	-0.752766
N68	N	1.047390	-0.426191	-0.824723
H69	H	1.073799	-0.412642	-0.896850
H70	H	1.396399	-0.442465	-1.106149
N71	N	0.921237	-0.433209	-0.747672
N72	N	0.824137	-0.429998	-0.759796
H73	H	0.794000	-0.411848	-0.828311
N74	N	1.663783	-0.925898	-0.634085
N75	N	1.606709	-0.968830	-0.685352
H76	H	1.630911	-0.987924	-0.755668
N77	N	1.635924	-0.182611	-0.914521
N78	N	1.616707	-0.131905	-0.978208
H79	H	1.597417	-0.081096	-0.951853
N80	N	0.926504	-0.530832	-0.623131
N81	N	0.990133	-0.581503	-0.603724
H82	H	0.963721	-0.632306	-0.584287
H83	H	1.355493	-0.920792	-0.569012
N84	N	1.460633	-0.924935	-0.690917
N85	N	1.480725	-0.879695	-0.762206
H86	H	1.497146	-0.897861	-0.835213
H87	H	1.651456	-0.792845	-0.618442
N88	N	1.460536	-0.787152	-0.690296
N89	N	1.545706	-0.803625	-0.732677
H90	H	1.562336	-0.784961	-0.805421
H91	H	1.354607	-0.793164	-0.568521
H92	H	1.396345	-0.442512	-0.907086
N93	N	1.558505	-0.924936	-0.317210
N94	N	1.608113	-0.879820	-0.262101
H95	H	1.658078	-0.898171	-0.206514
N96	N	1.708538	-0.786358	-0.467998
N97	N	1.685008	-0.743692	-0.394690
H98	H	1.741286	-0.724726	-0.345977
H99	H	1.689837	-0.919120	-0.475245
