data_functionalizedCrystal
_audit_creation_method	'MofGen! by Chris Wilmer'
_symmetry_space_group_name_H-M	'P1'
_symmetry_Int_Tables_number	1
_symmetry_cell_setting	triclinic
loop_
_symmetry_equiv_pos_as_xyz
  x,y,z
_cell_length_a	11.169417
_cell_length_b	14.908183
_cell_length_c	11.169409
_cell_angle_alpha	86.666262
_cell_angle_beta	89.980487
_cell_angle_gamma	93.316011
loop_
_atom_site_label
_atom_site_type_symbol
_atom_site_fract_x
_atom_site_fract_y
_atom_site_fract_z
Zn1	Zn	1.807326	-0.359087	-0.650922
Zn2	Zn	2.140660	-0.025754	-0.317588
Zn3	Zn	2.473993	0.307579	0.015745
Zn4	Zn	1.795602	-0.509993	-0.438635
Zn5	Zn	2.128935	-0.176660	-0.105302
Zn6	Zn	2.462268	0.156673	0.228032
Zn7	Zn	1.606608	-0.359143	-0.450253
Zn8	Zn	1.939941	-0.025810	-0.116919
Zn9	Zn	2.273274	0.307524	0.216414
Zn10	Zn	1.595011	-0.509921	-0.639286
Zn11	Zn	1.928344	-0.176588	-0.305953
Zn12	Zn	2.261678	0.156746	0.027380
O13	O	1.701137	-0.434536	-0.544774
O14	O	2.034470	-0.101203	-0.211441
O15	O	2.367803	0.232131	0.121893
O16	O	1.973720	-0.379112	-0.622769
O17	O	2.307053	-0.045779	-0.289435
O18	O	2.640387	0.287555	0.043898
O19	O	1.770478	-0.490036	-0.272222
O20	O	2.103811	-0.156703	0.061111
O21	O	2.437144	0.176630	0.394445
O22	O	1.642994	-0.232880	-0.486603
O23	O	1.976327	0.100453	-0.153270
O24	O	2.309660	0.433787	0.180063
O25	O	1.965106	-0.489982	-0.466802
O26	O	2.298439	-0.156649	-0.133469
O27	O	2.631773	0.176684	0.199864
O28	O	1.790461	-0.232839	-0.634034
O29	O	2.123794	0.100495	-0.300701
O30	O	2.457127	0.433828	0.032633
O31	O	1.631625	-0.379208	-0.280758
O32	O	1.964958	-0.045874	0.052576
O33	O	2.298291	0.287459	0.385909
O34	O	1.437120	-0.379137	-0.475321
O35	O	1.770454	-0.045804	-0.141988
O36	O	2.103787	0.287529	0.191345
O37	O	1.623229	-0.489859	-0.808784
O38	O	1.956562	-0.156525	-0.475451
O39	O	2.289895	0.176808	-0.142117
O40	O	1.428600	-0.489913	-0.614203
O41	O	1.761934	-0.156580	-0.280870
O42	O	2.095267	0.176754	0.052463
O43	O	1.779216	-0.379042	-0.817332
O44	O	2.112549	-0.045709	-0.483999
O45	O	2.445882	0.287625	-0.150665
O46	O	1.759233	-0.636240	-0.455520
O47	O	2.092566	-0.302906	-0.122187
O48	O	2.425899	0.030427	0.211146
O49	O	1.611860	-0.636186	-0.602938
O50	O	1.945193	-0.302853	-0.269605
O51	O	2.278526	0.030480	0.063729
C52	C	1.389313	-0.434524	-0.544761
C53	C	1.722646	-0.101191	-0.211428
C54	C	2.055980	0.232143	0.121906
C55	C	1.255912	-0.434541	-0.544782
C56	C	1.589245	-0.101207	-0.211449
C57	C	1.922578	0.232126	0.121884
C58	C	1.683048	-0.668950	-0.526732
C59	C	2.016382	-0.335616	-0.193399
C60	C	2.349715	-0.002283	0.139935
C61	C	1.675420	-0.769233	-0.519054
C62	C	2.008753	-0.435899	-0.185721
C63	C	2.342086	-0.102566	0.147613
C64	C	1.587953	-0.910674	-0.431410
C65	C	1.921286	-0.577340	-0.098077
C66	C	2.254620	-0.244007	0.235257
C67	C	1.595116	-0.816449	-0.438622
C68	C	1.928449	-0.483115	-0.105288
C69	C	2.261783	-0.149782	0.228045
C70	C	1.748563	-0.816248	-0.592282
C71	C	2.081896	-0.482915	-0.258949
C72	C	2.415230	-0.149581	0.074384
C73	C	1.741400	-0.910473	-0.585071
C74	C	2.074733	-0.577139	-0.251737
C75	C	2.408067	-0.243806	0.081596
C76	C	1.661094	-0.957682	-0.504630
C77	C	1.994427	-0.624349	-0.171297
C78	C	2.327760	-0.291016	0.162036
C79	C	1.653937	-1.051909	-0.497413
C80	C	1.987271	-0.718576	-0.164080
C81	C	2.320604	-0.385242	0.169253
C82	C	1.807378	-1.051706	-0.651080
C83	C	2.140711	-0.718373	-0.317746
C84	C	2.474044	-0.385040	0.015587
C85	C	1.814541	-0.957482	-0.658291
C86	C	2.147874	-0.624148	-0.324958
C87	C	2.481207	-0.290815	0.008375
C88	C	2.014178	-0.434549	-0.544787
C89	C	2.347511	-0.101216	-0.211454
C90	C	2.680845	0.232118	0.121879
C91	C	2.147578	-0.434554	-0.544793
C92	C	2.480911	-0.101221	-0.211460
C93	C	2.814244	0.232112	0.121873
C94	C	1.701237	-0.434436	-0.857824
C95	C	2.034570	-0.101103	-0.524491
C96	C	2.367903	0.232231	-0.191158
C97	C	1.701279	-0.434393	-0.991228
C98	C	2.034612	-0.101060	-0.657894
C99	C	2.367946	0.232273	-0.324561
C100	C	1.719329	-0.199207	-0.562912
C101	C	2.052662	0.134126	-0.229579
C102	C	2.385995	0.467459	0.103754
C103	C	1.727081	-0.098924	-0.570642
C104	C	2.060414	0.234409	-0.237309
C105	C	2.393747	0.567742	0.096025
C106	C	1.701111	-0.434571	-0.232947
C107	C	2.034445	-0.101238	0.100387
C108	C	2.367778	0.232096	0.433720
C109	C	1.701321	-0.434359	-0.099563
C110	C	2.034654	-0.101026	0.233770
C111	C	2.367987	0.232307	0.567103
H112	H	1.588550	-1.090346	-0.431913
H113	H	1.921883	-0.757012	-0.098579
H114	H	2.255216	-0.423679	0.234754
Cl115	Cl	1.899340	-1.110808	-0.743125
Cl116	Cl	2.232674	-0.777475	-0.409791
Cl117	Cl	2.566007	-0.444142	-0.076458
Cl118	Cl	1.487013	-0.970026	-0.330275
Cl119	Cl	1.820347	-0.636693	0.003059
Cl120	Cl	2.153680	-0.303359	0.336392
H121	H	1.535556	-0.778177	-0.379000
H122	H	1.868890	-0.444844	-0.045667
H123	H	2.202223	-0.111510	0.287667
H124	H	1.879922	-0.919033	-0.723787
H125	H	2.213255	-0.585699	-0.390454
H126	H	2.546588	-0.252366	-0.057121
Cl127	Cl	1.849482	-0.756884	-0.693427
Cl128	Cl	2.182815	-0.423550	-0.360094
Cl129	Cl	2.516148	-0.090217	-0.026761
