data_functionalizedCrystal
_audit_creation_method	'MofGen! by Chris Wilmer'
_symmetry_space_group_name_H-M	'P1'
_symmetry_Int_Tables_number	1
_symmetry_cell_setting	triclinic
loop_
_symmetry_equiv_pos_as_xyz
  x,y,z
_cell_length_a	14.908571
_cell_length_b	18.050589
_cell_length_c	14.908858
_cell_angle_alpha	86.674157
_cell_angle_beta	89.795097
_cell_angle_gamma	86.724558
loop_
_atom_site_label
_atom_site_type_symbol
_atom_site_fract_x
_atom_site_fract_y
_atom_site_fract_z
Zn1	Zn	1.345265	-0.331727	-0.587611
Zn2	Zn	1.845265	0.168273	-0.087611
Zn3	Zn	1.353817	-0.463479	-0.437254
Zn4	Zn	1.853817	0.036521	0.062746
Zn5	Zn	1.203573	-0.332570	-0.428605
Zn6	Zn	1.703573	0.167430	0.071395
Zn7	Zn	1.194853	-0.449137	-0.578908
Zn8	Zn	1.694853	0.050863	-0.078908
O9	O	1.274377	-0.394228	-0.508095
O10	O	1.774377	0.105772	-0.008095
O11	O	1.472225	-0.354853	-0.574928
O12	O	1.972225	0.145147	-0.074928
O13	O	1.341115	-0.452468	-0.310279
O14	O	1.841115	0.047532	0.189721
O15	O	1.222439	-0.228536	-0.449720
O16	O	1.722439	0.271464	0.050280
O17	O	1.478508	-0.451650	-0.464461
O18	O	1.978508	0.048350	0.035539
O19	O	1.326540	-0.227916	-0.566541
O20	O	1.826540	0.272084	-0.066541
O21	O	1.230732	-0.356290	-0.303925
O22	O	1.730732	0.143710	0.196075
O23	O	1.076591	-0.342384	-0.441282
O24	O	1.576591	0.157616	0.058718
O25	O	1.207577	-0.427207	-0.705890
O26	O	1.707577	0.072793	-0.205890
O27	O	1.070184	-0.428025	-0.551709
O28	O	1.570184	0.071975	-0.051709
O29	O	1.318084	-0.340946	-0.712284
O30	O	1.818084	0.159054	-0.212284
O31	O	1.332659	-0.565499	-0.456022
O32	O	1.832659	-0.065499	0.043978
O33	O	1.215869	-0.554962	-0.560095
O34	O	1.715869	-0.054962	-0.060095
C35	C	1.040763	-0.383740	-0.494613
C36	C	1.540763	0.116260	0.005387
C37	C	0.940820	-0.379271	-0.488866
C38	C	1.440820	0.120729	0.011134
C39	C	0.746403	-0.460205	-0.592902
C40	C	1.246403	0.039795	-0.092902
C41	C	0.652498	-0.456007	-0.587506
C42	C	1.152498	0.043993	-0.087506
C43	C	0.659103	-0.366674	-0.472684
C44	C	1.159103	0.133326	0.027316
C45	C	0.753008	-0.370872	-0.478080
C46	C	1.253008	0.129128	0.021920
C47	C	0.796655	-0.417639	-0.538190
C48	C	1.296655	0.082361	-0.038190
C49	C	0.890562	-0.421841	-0.543581
C50	C	1.390562	0.078159	-0.043581
C51	C	0.897164	-0.332504	-0.428764
C52	C	1.397164	0.167496	0.071236
C53	C	0.803259	-0.328307	-0.423368
C54	C	1.303259	0.171693	0.076632
C55	C	1.274269	-0.587176	-0.508074
C56	C	1.774269	-0.087176	-0.008074
C57	C	1.274304	-0.669722	-0.508099
C58	C	1.774304	-0.169722	-0.008099
C59	C	1.210853	-0.863474	-0.564676
C60	C	1.710853	-0.363474	-0.064676
C61	C	1.193667	-0.916058	-0.481365
C62	C	1.693667	-0.416058	0.018635
C63	C	1.274391	-0.820856	-0.508116
C64	C	1.774391	-0.320856	-0.008116
C65	C	1.291621	-0.915355	-0.591439
C66	C	1.791621	-0.415355	-0.091439
C67	C	1.274474	-0.966844	-0.508139
C68	C	1.774474	-0.466844	-0.008139
C69	C	1.257165	-0.872354	-0.424759
C70	C	1.757165	-0.372354	0.075241
C71	C	1.355153	-0.871645	-0.534890
C72	C	1.855153	-0.371645	-0.034890
C73	C	1.338002	-0.924211	-0.451524
C74	C	1.838002	-0.424211	0.048476
C75	C	1.274341	-0.736756	-0.508104
C76	C	1.774341	-0.236756	-0.008104
C77	C	1.274524	-1.050943	-0.508143
C78	C	1.774524	-0.550943	-0.008143
C79	C	1.508903	-0.404757	-0.521630
C80	C	2.008903	0.095243	-0.021630
C81	C	1.608845	-0.409244	-0.527398
C82	C	2.108845	0.090756	-0.027398
C83	C	1.260904	-0.382383	-0.742625
C84	C	1.760904	0.117617	-0.242625
C85	C	1.255162	-0.377335	-0.842568
C86	C	1.755162	0.122665	-0.342568
C87	C	1.274508	-0.200527	-0.508137
C88	C	1.774508	0.299473	-0.008137
C89	C	1.274564	-0.117983	-0.508155
C90	C	1.774564	0.382017	-0.008155
C91	C	1.189606	-0.320148	-0.980124
C92	C	1.689606	0.179852	-0.480124
C93	C	1.194997	-0.324890	-0.886219
C94	C	1.694997	0.175110	-0.386219
C95	C	1.309942	-0.425042	-0.892829
C96	C	1.809942	0.074958	-0.392829
C97	C	1.304551	-0.420301	-0.986735
C98	C	1.804551	0.079699	-0.486735
C99	C	1.244380	-0.367853	-1.030379
C100	C	1.744380	0.132147	-0.530379
C101	C	1.238985	-0.363116	-1.124286
C102	C	1.738985	0.136884	-0.624286
C103	C	1.353934	-0.463264	-1.130895
C104	C	1.853934	0.036736	-0.630895
C105	C	1.359325	-0.468005	-1.036989
C106	C	1.859325	0.031995	-0.536989
C107	C	1.287849	-0.405976	-0.274480
C108	C	1.787849	0.094024	0.225520
C109	C	1.293765	-0.410822	-0.174547
C110	C	1.793765	0.089178	0.325453
H111	H	0.623549	-0.328593	-0.423751
H112	H	1.123549	0.171407	0.076249
H113	H	1.125408	-0.935668	-0.458739
H114	H	1.625408	-0.435668	0.041261
H115	H	1.242545	-0.853449	-0.354279
H116	H	1.742545	-0.353449	0.145721
H117	H	1.391772	-0.950560	-0.403644
H118	H	1.891772	-0.450560	0.096356
H119	H	1.157051	-0.836992	-0.612432
H120	H	1.657051	-0.336992	-0.112432
O121	O	1.135917	-0.273437	-0.832016
O122	O	1.635917	0.226563	-0.332016
H123	H	1.178647	-0.239617	-0.791570
H124	H	1.678647	0.260383	-0.291570
O125	O	0.598342	-0.501952	-0.646515
O126	O	1.098342	-0.001952	-0.146515
H127	H	0.552946	-0.464577	-0.689905
H128	H	1.052946	0.035423	-0.189905
H129	H	1.423394	-0.852034	-0.557555
H130	H	1.923394	-0.352034	-0.057555
O131	O	1.310890	-0.940510	-0.684765
O132	O	1.810890	-0.440510	-0.184765
H133	H	1.258013	-0.916020	-0.731563
H134	H	1.758013	-0.416020	-0.231563
O135	O	1.174096	-0.306546	-1.171366
O136	O	1.674096	0.193454	-0.671366
H137	H	1.136922	-0.274165	-1.120641
H138	H	1.636922	0.225835	-0.620641
H139	H	1.140609	-0.277446	-1.015660
H140	H	1.640609	0.222554	-0.515660
O141	O	1.413007	-0.514735	-1.185091
O142	O	1.913007	-0.014735	-0.685091
H143	H	1.484624	-0.506090	-1.171140
H144	H	1.984624	-0.006090	-0.671140
H145	H	0.767709	-0.290228	-0.374430
H146	H	1.267709	0.209772	0.125570
H147	H	0.781942	-0.498289	-0.641841
H148	H	1.281942	0.001711	-0.141841
O149	O	0.937636	-0.472266	-0.608430
O150	O	1.437636	0.027734	-0.108430
H151	H	1.011377	-0.468036	-0.602993
H152	H	1.511377	0.031964	-0.102993
H153	H	1.358937	-0.467738	-0.857278
H154	H	1.858937	0.032262	-0.357278
O155	O	1.424220	-0.524575	-0.989916
O156	O	1.924220	-0.024575	-0.489916
H157	H	1.418764	-0.519861	-0.916174
H158	H	1.918764	-0.019861	-0.416174
O159	O	0.951362	-0.286587	-0.369749
O160	O	1.451362	0.213413	0.130251
H161	H	1.023993	-0.297358	-0.383601
H162	H	1.523993	0.202642	0.116399
