data_functionalizedCrystal
_audit_creation_method	'MofGen! by Chris Wilmer'
_symmetry_space_group_name_H-M	'P1'
_symmetry_Int_Tables_number	1
_symmetry_cell_setting	triclinic
loop_
_symmetry_equiv_pos_as_xyz
  x,y,z
_cell_length_a	9.065218
_cell_length_b	17.038272
_cell_length_c	7.540329
_cell_angle_alpha	89.996089
_cell_angle_beta	89.996962
_cell_angle_gamma	88.063721
loop_
_atom_site_label
_atom_site_type_symbol
_atom_site_fract_x
_atom_site_fract_y
_atom_site_fract_z
O1	O	1.971909	0.114742	-0.147490
O2	O	1.543568	0.124154	-0.147492
O3	O	1.755192	0.005614	-0.147477
O4	O	1.760284	0.233281	-0.147505
O5	O	1.755179	0.005612	0.147488
O6	O	1.543554	0.124152	0.147473
O7	O	1.971895	0.114740	0.147476
Cu8	Cu	1.757723	0.119446	0.174407
Cu9	Cu	1.757739	0.119448	-0.174424
O10	O	1.760270	0.233280	0.147460
C11	C	1.488484	0.123248	-0.000010
C12	C	1.324369	0.120544	-0.000011
C13	C	1.750555	-0.023549	0.000005
C14	C	1.736739	-0.110441	0.000005
C15	C	1.863587	-0.159639	0.000008
C16	C	1.850596	-0.241284	-0.000009
C17	C	1.710756	-0.273728	-0.000016
C18	C	1.583899	-0.224524	-0.000024
C19	C	1.596891	-0.142881	-0.000020
C20	C	1.664859	-0.519818	-0.000041
C21	C	1.651876	-0.601467	-0.000040
C22	C	1.918575	-0.618221	-0.000028
C23	C	1.931554	-0.536576	-0.000013
C24	C	1.804697	-0.487379	-0.000031
C25	C	1.697475	-0.357182	-0.000028
C26	C	1.817980	-0.403927	-0.000032
C27	C	2.026979	0.115646	-0.000011
C28	C	2.191093	0.118350	-0.000022
C29	C	1.764908	0.262442	-0.000026
C30	C	1.778724	0.349335	-0.000037
N31	N	1.757723	0.119444	0.419755
N32	N	1.757751	0.119443	-0.419772
H33	H	1.977459	-0.133230	0.000024
H34	H	1.583616	-0.383607	-0.000030
H35	H	1.953890	-0.281338	-0.000003
O36	O	2.067508	-0.505191	-0.000079
C37	C	2.176686	-0.566124	-0.000028
H38	H	2.128345	-0.621862	-0.055890
H39	H	2.216283	-0.577391	0.141486
C40	C	2.367129	-0.473709	-0.047066
C41	C	2.307759	-0.542166	-0.115691
H42	H	2.447985	-0.458931	-0.118405
H43	H	2.293575	-0.432657	-0.047094
H44	H	2.400115	-0.483108	0.070861
H45	H	2.274757	-0.532764	-0.233607
H46	H	2.381310	-0.583216	-0.115685
O47	O	1.953848	-0.372451	-0.000342
C48	C	2.031831	-0.397505	-0.153077
H49	H	1.950253	-0.415049	-0.259858
H50	H	2.107445	-0.450115	-0.118531
C51	C	2.225265	-0.308557	-0.091189
C52	C	2.125069	-0.330099	-0.222344
H53	H	2.282784	-0.266980	-0.133913
H54	H	2.172730	-0.291679	0.011716
H55	H	2.288262	-0.352405	-0.062412
H56	H	2.062062	-0.286254	-0.251102
H57	H	2.177596	-0.346968	-0.325256
O58	O	2.041645	-0.666124	-0.000106
C59	C	2.000201	-0.745142	-0.000067
H60	H	1.883828	-0.749091	-0.055907
H61	H	2.002834	-0.768714	0.141441
C62	C	2.251505	-0.789430	-0.047165
C63	C	2.108579	-0.794281	-0.115763
H64	H	2.318360	-0.819743	-0.118524
H65	H	2.279429	-0.736195	-0.047185
H66	H	2.253678	-0.809072	0.070757
H67	H	2.106404	-0.774630	-0.233674
H68	H	2.080657	-0.847514	-0.115766
O69	O	1.473520	-0.095200	0.000056
C70	C	1.347307	-0.141341	0.000004
H71	H	1.377131	-0.201996	0.055854
H72	H	1.304939	-0.147445	-0.141509
C73	C	1.189751	-0.027063	0.047068
C74	C	1.226379	-0.101559	0.115679
H75	H	1.115154	-0.002524	0.118414
H76	H	1.274782	0.004024	0.047097
H77	H	1.154454	-0.032160	-0.070858
H78	H	1.261693	-0.096461	0.233594
H79	H	1.141351	-0.132645	0.115672
H80	H	1.537996	-0.627879	-0.000017
H81	H	1.561561	-0.479770	-0.000054
H82	H	1.470038	-0.250946	-0.000041
