data_functionalizedCrystal
_audit_creation_method	'MofGen! by Chris Wilmer'
_symmetry_space_group_name_H-M	'P1'
_symmetry_Int_Tables_number	1
_symmetry_cell_setting	triclinic
loop_
_symmetry_equiv_pos_as_xyz
  x,y,z
_cell_length_a	19.288864
_cell_length_b	19.288865
_cell_length_c	14.048226
_cell_angle_alpha	89.988335
_cell_angle_beta	89.979690
_cell_angle_gamma	83.136245
loop_
_atom_site_label
_atom_site_type_symbol
_atom_site_fract_x
_atom_site_fract_y
_atom_site_fract_z
O1	O	0.921350	0.086649	-0.079477
O2	O	1.421350	0.586649	0.420523
O3	O	0.719089	0.098338	-0.079413
O4	O	1.219089	0.598338	0.420587
O5	O	0.826064	-0.008637	-0.079428
O6	O	1.326064	0.491363	0.420572
O7	O	0.814375	0.193624	-0.079462
O8	O	1.314375	0.693624	0.420538
O9	O	0.826051	-0.008643	0.078893
O10	O	1.326051	0.491357	0.578893
O11	O	0.719077	0.098332	0.078908
O12	O	1.219077	0.598332	0.578908
O13	O	0.921337	0.086643	0.078845
O14	O	1.421337	0.586643	0.578845
Zn15	Zn	0.820205	0.092486	0.104013
Zn16	Zn	1.320205	0.592486	0.604013
Zn17	Zn	0.820222	0.092495	-0.104582
Zn18	Zn	1.320222	0.592495	0.395418
O19	O	0.814363	0.193618	0.078859
O20	O	1.314363	0.693618	0.578859
C21	C	0.693207	0.097959	-0.000244
C22	C	1.193207	0.597959	0.499756
C23	C	0.616103	0.096830	-0.000219
C24	C	1.116103	0.596830	0.499781
C25	C	0.825682	-0.034516	-0.000264
C26	C	1.325682	0.465484	0.499736
C27	C	0.824553	-0.111620	-0.000256
C28	C	1.324553	0.388380	0.499744
C29	C	0.571407	0.159598	-0.000244
C30	C	1.071407	0.659598	0.499756
C31	C	0.498960	0.158537	-0.000255
C32	C	0.998960	0.658537	0.499745
C33	C	0.471212	0.094705	-0.000259
C34	C	0.971212	0.594705	0.499741
C35	C	0.515918	0.031929	-0.000228
C36	C	1.015918	0.531929	0.499772
C37	C	0.588364	0.032991	-0.000208
C38	C	1.088364	0.532991	0.499792
C39	C	0.362955	0.044528	-0.055749
C40	C	0.862955	0.544528	0.444251
C41	C	0.290510	0.043468	-0.055775
C42	C	0.790510	0.543468	0.444225
C43	C	0.247767	0.091425	-0.000316
C44	C	0.747767	0.591425	0.499684
C45	C	0.277475	0.140454	0.055157
C46	C	0.777475	0.640454	0.555157
C47	C	0.349920	0.141516	0.055177
C48	C	0.849920	0.641516	0.555177
C49	C	0.392658	0.093546	-0.000280
C50	C	0.892658	0.593546	0.499720
C51	C	0.124514	0.153047	-0.000351
C52	C	0.624514	0.653047	0.499649
C53	C	0.052066	0.151984	-0.000356
C54	C	0.552066	0.651984	0.499644
C55	C	0.069026	0.025374	-0.000338
C56	C	0.569026	0.525374	0.499662
C57	C	0.141473	0.026439	-0.000324
C58	C	0.641473	0.526439	0.499676
C59	C	0.169212	0.090278	-0.000335
C60	C	0.669212	0.590278	0.499665
C61	C	0.887321	-0.156316	-0.000271
C62	C	1.387321	0.343684	0.499729
C63	C	0.886260	-0.228763	-0.000285
C64	C	1.386260	0.271237	0.499715
C65	C	0.822428	-0.256511	-0.000266
C66	C	1.322428	0.243489	0.499734
C67	C	0.759652	-0.211805	-0.000256
C68	C	1.259652	0.288195	0.499744
C69	C	0.760714	-0.139359	-0.000251
C70	C	1.260714	0.360641	0.499749
C71	C	0.772244	-0.364800	0.055206
C72	C	1.272244	0.135200	0.555206
C73	C	0.771184	-0.437245	0.055207
C74	C	1.271184	0.062755	0.555207
C75	C	0.819148	-0.479956	-0.000286
C76	C	1.319148	0.020044	0.499714
C77	C	0.868184	-0.450216	-0.055768
C78	C	1.368184	0.049784	0.444232
C79	C	0.869246	-0.377771	-0.055763
C80	C	1.369246	0.122229	0.444237
C81	C	0.821269	-0.335065	-0.000272
C82	C	1.321269	0.164935	0.499728
C83	C	0.880770	-0.603209	-0.000319
C84	C	1.380770	-0.103209	0.499681
C85	C	0.879707	-0.675657	-0.000339
C86	C	1.379707	-0.175657	0.499661
C87	C	0.753097	-0.658697	-0.000300
C88	C	1.253097	-0.158697	0.499700
C89	C	0.754162	-0.586250	-0.000289
C90	C	1.254162	-0.086250	0.499711
C91	C	0.818001	-0.558511	-0.000294
C92	C	1.318001	-0.058511	0.499706
C93	C	0.947220	0.087022	-0.000327
C94	C	1.447220	0.587022	0.499673
C95	C	1.024324	0.088151	-0.000358
C96	C	1.524324	0.588151	0.499642
C97	C	0.814745	0.219497	-0.000306
C98	C	1.314745	0.719497	0.499694
C99	C	0.815874	0.296601	-0.000321
C100	C	1.315874	0.796601	0.499679
N101	N	0.820199	0.092480	0.246374
N102	N	1.320199	0.592480	0.746374
N103	N	0.820234	0.092495	-0.246942
N104	N	1.320234	0.592495	0.253058
C105	C	0.867582	0.045131	0.296186
C106	C	1.367582	0.545131	0.796186
C107	C	0.867586	0.045131	0.395843
C108	C	1.367586	0.545131	0.895843
C109	C	0.820211	0.092483	0.445688
C110	C	1.320211	0.592483	0.945688
C111	C	0.772822	0.139835	0.395869
C112	C	1.272822	0.639835	0.895869
C113	C	0.772815	0.139831	0.296213
C114	C	1.272815	0.639831	0.796213
C115	C	0.772842	0.139839	0.603583
C116	C	1.272842	0.639839	1.103583
C117	C	0.772851	0.139844	0.703246
C118	C	1.272851	0.639844	1.203246
C119	C	0.867614	0.045139	0.703213
C120	C	1.367614	0.545139	1.203213
C121	C	0.867606	0.045136	0.603557
C122	C	1.367606	0.545136	1.103557
C123	C	0.820219	0.092488	0.553746
C124	C	1.320219	0.592488	1.053746
H125	H	0.593987	0.211580	-0.000255
H126	H	1.093987	0.711580	0.499745
O127	O	0.949621	-0.573284	-0.000335
O128	O	1.449621	-0.073284	0.499665
H129	H	0.953133	-0.540665	-0.064857
H130	H	1.453133	-0.040665	0.435143
O131	O	0.690801	-0.241726	-0.000224
O132	O	1.190801	0.258274	0.499776
H133	H	0.700607	-0.299611	-0.000217
H134	H	1.200607	0.200389	0.499783
H135	H	0.906186	0.006581	0.562974
H136	H	1.406186	0.506581	1.062974
O137	O	0.918704	-0.005925	0.449572
O138	O	1.418704	0.494075	0.949572
H139	H	0.951656	-0.038842	0.398170
H140	H	1.451656	0.461158	0.898170
H141	H	0.906163	0.006574	0.255609
H142	H	1.406163	0.506574	0.755609
O143	O	0.918724	-0.005930	0.756944
O144	O	1.418724	0.494070	1.256944
H145	H	0.972836	0.002796	0.737787
H146	H	1.472836	0.502796	1.237787
O147	O	0.684248	-0.688615	-0.000281
O148	O	1.184248	-0.188615	0.499719
H149	H	0.654091	-0.670652	0.064255
H150	H	1.154091	-0.170652	0.564255
O151	O	0.450737	0.226238	-0.000292
O152	O	0.950737	0.726238	0.499708
H153	H	0.482198	0.270807	-0.000304
H154	H	0.982198	0.770807	0.499696
H155	H	0.493322	-0.020044	-0.000244
H156	H	0.993322	0.479956	0.499756
H157	H	0.709599	-0.102967	-0.000238
H158	H	1.209599	0.397033	0.499762
H159	H	0.937375	-0.265162	-0.000301
H160	H	1.437375	0.234838	0.499699
O161	O	0.721740	0.190901	0.757013
O162	O	1.221740	0.690901	1.257013
H163	H	0.688776	0.223816	0.705636
H164	H	1.188776	0.723816	1.205636
H165	H	0.907241	-0.484991	-0.100956
H166	H	1.407241	0.015009	0.399044
O167	O	0.922120	-0.345688	-0.115613
O168	O	1.422120	0.154312	0.384387
H169	H	0.955292	-0.387553	-0.154213
H170	H	1.455292	0.112447	0.345787
O171	O	0.956171	-0.126394	-0.000284
O172	O	1.456171	0.373606	0.499716
H173	H	0.959685	-0.093779	-0.064809
H174	H	1.459685	0.406221	0.435191
O175	O	0.721736	0.190914	0.549852
O176	O	1.221736	0.690914	1.049852
H177	H	0.688800	0.223848	0.601252
H178	H	1.188800	0.723848	1.101252
H179	H	0.930822	-0.712049	-0.000357
H180	H	1.430822	-0.212049	0.499643
O181	O	0.686462	-0.538034	-0.000249
O182	O	1.186462	-0.038034	0.499751
H183	H	0.641896	-0.569498	-0.000227
H184	H	1.141896	-0.069498	0.499773
O185	O	0.721727	0.190915	0.449623
O186	O	1.221727	0.690915	0.949623
H187	H	0.688069	0.161769	0.495069
H188	H	1.188069	0.661769	0.995069
H189	H	0.624756	-0.018124	-0.000188
H190	H	1.124756	0.481876	0.499812
O191	O	0.721713	0.190903	0.242480
O192	O	1.221713	0.690903	0.742480
H193	H	0.688775	0.223836	0.293880
H194	H	1.188775	0.723836	0.793880
O195	O	0.718302	-0.469321	0.115050
O196	O	1.218302	0.030679	0.615050
H197	H	0.664832	-0.448231	0.092224
H198	H	1.164832	0.051769	0.592224
O199	O	0.381955	0.194376	0.115044
O200	O	0.881955	0.694376	0.615044
H201	H	0.360871	0.247858	0.092231
H202	H	0.860871	0.747858	0.592231
O203	O	0.231386	0.192182	0.114987
O204	O	0.731386	0.692182	0.614987
H205	H	0.176020	0.183203	0.105667
H206	H	0.676020	0.683203	0.605667
O207	O	0.720512	-0.318736	0.115072
O208	O	1.220512	0.181264	0.615072
H209	H	0.666631	-0.325448	0.092267
H210	H	1.166631	0.174552	0.592267
O211	O	0.154439	0.221898	-0.000341
O212	O	0.654439	0.721898	0.499659
H213	H	0.136488	0.252059	-0.064870
H214	H	0.636488	0.752059	0.435130
O215	O	0.003852	0.219686	-0.000380
O216	O	0.503852	0.719686	0.499620
H217	H	0.035315	0.264252	-0.000392
H218	H	0.535315	0.764252	0.499608
H219	H	0.177866	-0.024674	-0.000309
H220	H	0.677866	0.475326	0.499691
O221	O	0.039113	-0.043478	-0.000336
O222	O	0.539113	0.456522	0.499664
H223	H	0.006542	-0.046995	-0.064875
H224	H	0.506542	0.453005	0.435125
O225	O	0.258469	-0.009417	-0.115590
O226	O	0.758469	0.490583	0.384410
H227	H	0.300362	-0.042598	-0.154131
H228	H	0.800362	0.457402	0.345869
H229	H	0.397751	0.005474	-0.100916
H230	H	0.897751	0.505474	0.399084
