data_functionalizedCrystal
_audit_creation_method	'MofGen! by Chris Wilmer'
_symmetry_space_group_name_H-M	'P1'
_symmetry_Int_Tables_number	1
_symmetry_cell_setting	triclinic
loop_
_symmetry_equiv_pos_as_xyz
  x,y,z
_cell_length_a	16.109302
_cell_length_b	14.853567
_cell_length_c	15.186229
_cell_angle_alpha	90.000050
_cell_angle_beta	89.994701
_cell_angle_gamma	83.548356
loop_
_atom_site_label
_atom_site_type_symbol
_atom_site_fract_x
_atom_site_fract_y
_atom_site_fract_z
O1	O	1.103293	0.115884	-0.073261
O2	O	0.861251	0.130304	-0.073253
O3	O	0.988738	-0.008146	-0.073260
O4	O	0.975807	0.254334	-0.073254
O5	O	0.988729	-0.008148	0.073198
O6	O	0.861243	0.130302	0.073204
O7	O	1.103285	0.115882	0.073197
Zn8	Zn	0.982262	0.123092	0.096454
Zn9	Zn	0.982274	0.123094	-0.096510
O10	O	0.975798	0.254332	0.073203
C11	C	0.830271	0.129719	-0.000023
C12	C	0.737974	0.127967	-0.000021
C13	C	0.525622	0.123916	0.079804
C14	C	0.438900	0.122261	0.079801
C15	C	0.438920	0.122267	-0.079874
C16	C	0.525641	0.123916	-0.079870
C17	C	0.568990	0.124745	-0.000028
C18	C	0.395546	0.121441	-0.000035
C19	C	0.301518	0.119646	-0.000039
C20	C	0.663024	0.126539	-0.000024
C21	C	0.988147	-0.041735	-0.000033
C22	C	0.986392	-0.141816	-0.000041
C23	C	0.903240	-0.554213	-0.000022
C24	C	1.054697	-0.575743	-0.000027
C25	C	1.056348	-0.481712	-0.000032
C26	C	0.981444	-0.423927	-0.000031
C27	C	0.904889	-0.460173	-0.000024
C28	C	1.132901	-0.445459	-0.000029
C29	C	1.134555	-0.351423	-0.000034
C30	C	1.059650	-0.293636	-0.000039
C31	C	0.983092	-0.329887	-0.000033
C32	C	0.908188	-0.272102	-0.000032
C33	C	0.831630	-0.308351	-0.000033
C34	C	0.829984	-0.402385	-0.000029
C35	C	1.061296	-0.199601	-0.000042
C36	C	0.909837	-0.178062	-0.000035
C37	C	1.134264	0.116467	-0.000035
C38	C	1.226562	0.118219	-0.000043
C39	C	0.976389	0.287921	-0.000025
C40	C	0.978144	0.388002	-0.000023
N41	N	0.982261	0.123089	0.228146
N42	N	0.982282	0.123090	-0.228203
C43	C	1.038731	0.061804	0.453866
C44	C	1.038733	0.061802	0.546056
C45	C	0.925806	0.184378	0.546071
C46	C	0.925800	0.184375	0.453883
C47	C	0.982267	0.123089	0.407783
C48	C	0.982276	0.123090	0.592161
C49	C	0.982278	0.123088	0.692117
C50	C	0.982264	0.123090	0.307821
H51	H	0.403615	0.121593	-0.144879
H52	H	0.403594	0.121586	0.144809
N53	N	0.572373	0.124801	0.165920
H54	H	0.615031	0.069633	0.169477
H55	H	0.601623	0.181375	0.169436
N56	N	0.572425	0.124800	-0.165980
H57	H	0.531806	0.124029	-0.216560
H58	H	0.601735	0.181336	-0.169455
H59	H	0.879832	0.234277	0.583615
N60	N	1.099622	-0.004316	0.404156
H61	H	1.067798	-0.044243	0.365920
H62	H	1.136466	0.030193	0.365947
H63	H	0.879816	0.234281	0.416360
H64	H	1.123628	-0.170091	-0.000036
H65	H	0.848840	-0.131018	-0.000037
H66	H	1.084710	0.011897	0.583574
H67	H	0.770643	-0.261290	-0.000026
N68	N	0.747416	-0.441482	-0.000027
H69	H	0.757740	-0.509820	-0.000020
H70	H	0.714634	-0.420339	0.054268
N71	N	0.820669	-0.593302	-0.000027
H72	H	0.830986	-0.661641	-0.000028
H73	H	0.787885	-0.572162	0.054268
N74	N	1.135482	-0.638063	-0.000014
H75	H	1.122822	-0.703134	-0.000007
H76	H	1.168846	-0.626337	-0.054308
N77	N	1.213686	-0.507781	-0.000015
H78	H	1.201023	-0.572851	-0.000015
H79	H	1.247055	-0.496051	-0.054304
N80	N	1.217123	-0.312328	-0.000033
H81	H	1.264323	-0.363205	-0.000032
H82	H	1.221110	-0.273787	-0.054329
