data_functionalizedCrystal
_audit_creation_method	'MofGen! by Chris Wilmer'
_symmetry_space_group_name_H-M	'P1'
_symmetry_Int_Tables_number	1
_symmetry_cell_setting	triclinic
loop_
_symmetry_equiv_pos_as_xyz
  x,y,z
_cell_length_a	19.288864
_cell_length_b	14.044190
_cell_length_c	18.366186
_cell_angle_alpha	89.989358
_cell_angle_beta	89.977106
_cell_angle_gamma	88.164010
loop_
_atom_site_label
_atom_site_type_symbol
_atom_site_fract_x
_atom_site_fract_y
_atom_site_fract_z
O1	O	0.928950	0.118215	-0.060793
O2	O	0.727715	0.134162	-0.060745
O3	O	0.825309	-0.011784	-0.060754
O4	O	0.831356	0.264160	-0.060784
O5	O	0.825291	-0.011791	0.060345
O6	O	0.727696	0.134154	0.060355
O7	O	0.928932	0.118207	0.060306
Zn8	Zn	0.828311	0.126180	0.079558
Zn9	Zn	0.828336	0.126189	-0.079996
O10	O	0.831337	0.264153	0.060315
C11	C	0.701796	0.133645	-0.000189
C12	C	0.624593	0.132105	-0.000169
C13	C	0.822655	-0.047091	-0.000201
C14	C	0.814765	-0.152283	-0.000193
C15	C	0.585401	0.217739	-0.000190
C16	C	0.512861	0.216292	-0.000198
C17	C	0.479516	0.129205	-0.000200
C18	C	0.518718	0.043560	-0.000175
C19	C	0.591256	0.045010	-0.000160
C20	C	0.366861	0.060749	-0.042643
C21	C	0.294323	0.059303	-0.042663
C22	C	0.255783	0.124731	-0.000243
C23	C	0.289788	0.191622	0.042187
C24	C	0.362327	0.193071	0.042202
C25	C	0.400861	0.127624	-0.000216
C26	C	0.137934	0.208802	-0.000272
C27	C	0.065393	0.207351	-0.000275
C28	C	0.071251	0.034617	-0.000259
C29	C	0.143791	0.036071	-0.000248
C30	C	0.177128	0.123165	-0.000258
C31	C	0.856297	-0.402747	-0.000232
C32	C	0.800353	-0.344879	-0.000213
C33	C	0.808374	-0.237709	-0.000202
C34	C	0.848277	-0.509927	-0.000243
C35	C	0.954851	0.118724	-0.000252
C36	C	1.032053	0.120264	-0.000276
C37	C	0.833991	0.299460	-0.000239
C38	C	0.841881	0.404652	-0.000252
N39	N	0.828299	0.126173	0.188449
N40	N	0.828352	0.126189	-0.188887
C41	C	0.871532	0.061580	0.226545
C42	C	0.871536	0.061576	0.302773
C43	C	0.828315	0.126181	0.340901
C44	C	0.785074	0.190778	0.302796
C45	C	0.785066	0.190775	0.226570
C46	C	0.824566	0.212524	0.461654
C47	C	0.824579	0.212529	0.537879
C48	C	0.828336	0.126192	0.576009
C49	C	0.832094	0.039847	0.537905
C50	C	0.832086	0.039843	0.461679
C51	C	0.828319	0.126192	0.423556
C52	C	0.871575	0.061590	0.696760
C53	C	0.871574	0.061584	0.772989
C54	C	0.785116	0.190795	0.773011
C55	C	0.785113	0.190792	0.696783
C56	C	0.828346	0.126191	0.658662
H57	H	0.612539	0.288658	-0.000199
O58	O	0.821015	0.296339	0.424534
C59	C	0.880438	0.303777	0.380424
H60	H	0.903578	0.229568	0.369010
H61	H	0.865432	0.339800	0.326820
H62	H	0.920353	0.347978	0.409770
O63	O	0.835702	-0.044112	0.424777
C64	C	0.839039	-0.120320	0.474769
H65	H	0.816144	-0.095841	0.529117
H66	H	0.808226	-0.181976	0.452770
H67	H	0.895442	-0.144766	0.482846
H68	H	0.491564	-0.027346	-0.000186
O69	O	0.743066	0.253590	0.809927
C70	C	0.704922	0.310623	0.759951
H71	H	0.701726	0.271771	0.705622
H72	H	0.650364	0.325274	0.782001
H73	H	0.731829	0.380942	0.751819
O74	O	0.629227	-0.038267	-0.000177
C75	C	0.584246	-0.115445	-0.000158
H76	H	0.531690	-0.091161	-0.023094
H77	H	0.607272	-0.175426	-0.035307
H78	H	0.577403	-0.142158	0.057941
O79	O	0.474704	0.299417	-0.000320
C80	C	0.432621	0.303745	-0.063059
H81	H	0.424314	0.228540	-0.083957
H82	H	0.380361	0.339272	-0.048974
H83	H	0.459156	0.346922	-0.106978
O84	O	0.913488	-0.001271	0.659733
C85	C	0.896426	-0.095062	0.678360
H86	H	0.840809	-0.095368	0.699358
H87	H	0.901460	-0.142610	0.628213
H88	H	0.933211	-0.123048	0.722570
H89	H	0.746433	-0.375824	-0.000204
H90	H	0.390011	0.247533	0.076752
H91	H	0.835152	-0.030457	0.568949
O92	O	0.913435	-0.001435	0.189659
C93	C	0.896234	-0.095104	0.208487
H94	H	0.840584	-0.095199	0.229401
H95	H	0.901286	-0.142872	0.158463
H96	H	0.932924	-0.122985	0.252820
H97	H	0.906742	0.008974	0.333797
H98	H	0.910213	-0.371803	-0.000237
O99	O	0.913471	-0.001260	0.810030
C100	C	0.872672	-0.059586	0.854165
H101	H	0.817809	-0.061005	0.831222
H102	H	0.896344	-0.135004	0.855027
H103	H	0.870873	-0.029917	0.911932
H104	H	0.749912	0.243394	0.665763
H105	H	0.821524	0.282837	0.568897
H106	H	0.165078	0.279720	-0.000269
O107	O	0.252448	0.255387	0.083303
C108	C	0.267136	0.348674	0.061005
H109	H	0.287131	0.347124	0.002586
H110	H	0.217864	0.395539	0.064120
H111	H	0.308288	0.378793	0.098279
O112	O	0.743054	0.253407	0.339912
C113	C	0.697067	0.202804	0.384026
H114	H	0.720134	0.128556	0.395445
H115	H	0.688539	0.242399	0.437627
H116	H	0.645343	0.196540	0.354680
H117	H	0.749860	0.243375	0.195551
H118	H	0.033483	0.277088	-0.000288
H119	H	0.044103	-0.036290	-0.000306
H120	H	0.175702	-0.033662	-0.000236
H121	H	0.266642	0.004840	-0.077215
O122	O	0.404189	-0.002848	-0.083925
C123	C	0.358623	-0.062201	-0.121370
H124	H	0.305605	-0.024561	-0.126501
H125	H	0.380178	-0.078472	-0.177977
H126	H	0.353241	-0.131562	-0.089914
