data_functionalizedCrystal
_audit_creation_method	'MofGen! by Chris Wilmer'
_symmetry_space_group_name_H-M	'P1'
_symmetry_Int_Tables_number	1
_symmetry_cell_setting	triclinic
loop_
_symmetry_equiv_pos_as_xyz
  x,y,z
_cell_length_a	14.971486
_cell_length_b	19.188930
_cell_length_c	13.448316
_cell_angle_alpha	89.988273
_cell_angle_beta	89.998199
_cell_angle_gamma	83.379455
loop_
_atom_site_label
_atom_site_type_symbol
_atom_site_fract_x
_atom_site_fract_y
_atom_site_fract_z
O1	O	1.186467	0.090988	-0.082589
O2	O	0.926009	0.101884	-0.082618
O3	O	1.063754	-0.005195	-0.082583
O4	O	1.048722	0.198067	-0.082624
O5	O	1.063737	-0.005202	0.082801
O6	O	0.925992	0.101877	0.082766
O7	O	1.186450	0.090981	0.082795
Cu8	Cu	1.056219	0.096429	0.097881
Cu9	Cu	1.056239	0.096437	-0.097704
O10	O	1.048704	0.198061	0.082760
C11	C	0.892678	0.101393	0.000071
C12	C	0.793389	0.099933	0.000061
C13	C	0.735831	0.162839	0.000050
C14	C	0.642539	0.161463	0.000065
C15	C	0.606806	0.097180	0.000084
C16	C	0.664371	0.034269	0.000098
C17	C	0.757662	0.035646	0.000090
C18	C	0.469924	0.031403	0.000112
C19	C	0.376627	0.030026	0.000119
C20	C	0.354801	0.157221	0.000087
C21	C	0.448092	0.158598	0.000079
C22	C	0.505650	0.095686	0.000091
C23	C	1.063259	-0.031211	0.000112
C24	C	1.061797	-0.108721	0.000120
C25	C	1.142622	-0.153384	0.000134
C26	C	1.141249	-0.226213	0.000118
C27	C	1.059047	-0.254374	0.000108
C28	C	0.978212	-0.209700	0.000089
C29	C	0.979587	-0.136874	0.000095
N30	N	0.996208	-0.362583	0.056384
N31	N	0.994907	-0.431766	0.056381
C32	C	1.054899	-0.473796	0.000087
N33	N	1.116254	-0.444030	-0.056190
N34	N	1.117558	-0.374842	-0.056182
C35	C	1.057547	-0.333341	0.000101
C36	C	1.134240	-0.597429	0.000082
C37	C	1.132864	-0.670258	0.000060
C38	C	0.969825	-0.653744	0.000041
C39	C	0.971203	-0.580916	0.000053
C40	C	1.053413	-0.552763	0.000078
C41	C	1.219780	0.091472	0.000104
C42	C	1.319070	0.092932	0.000107
C43	C	1.049200	0.224077	0.000063
C44	C	1.050661	0.301586	0.000048
N45	N	1.056211	0.096423	0.235446
N46	N	1.056254	0.096437	-0.235268
C47	C	1.117224	0.049028	0.287501
C48	C	1.117229	0.049027	0.391604
C49	C	1.056226	0.096426	0.443650
C50	C	0.995207	0.143823	0.391587
C51	C	0.995198	0.143820	0.287486
C52	C	0.995232	0.143828	0.608567
C53	C	0.995242	0.143832	0.712676
C54	C	1.117263	0.049035	0.712686
C55	C	1.117254	0.049032	0.608585
C56	C	1.056236	0.096430	0.556529
H57	H	0.307932	0.208445	0.000082
C58	C	1.137047	-0.045975	0.508690
C59	C	1.184302	-0.003071	0.448817
H60	H	1.178460	-0.078143	0.544002
H61	H	1.100727	-0.017752	0.554586
H62	H	1.099918	-0.071138	0.468082
H63	H	1.221427	0.022095	0.489426
H64	H	1.220638	-0.031298	0.402915
C65	C	0.704877	0.288426	0.000031
C66	C	0.775104	0.233503	0.000031
H67	H	0.729123	0.332051	0.000028
H68	H	0.668945	0.285247	-0.057636
H69	H	0.668947	0.285234	0.057711
H70	H	0.811031	0.236692	-0.057653
H71	H	0.811051	0.236684	0.057703
H72	H	0.347537	-0.022319	0.000135
H73	H	0.516786	-0.019826	0.000124
C74	C	0.524962	0.233702	-0.084970
C75	C	0.579273	0.230613	0.000042
H76	H	0.485902	0.276393	-0.084980
H77	H	0.561808	0.231593	-0.142634
H78	H	0.490331	0.195219	-0.084940
H79	H	0.613909	0.269093	0.000008
H80	H	0.542422	0.232729	0.057721
H81	H	0.945515	0.182413	0.245103
C82	C	0.695323	-0.091318	0.000130
C83	C	0.625098	-0.036394	0.000118
H84	H	0.671076	-0.134943	0.000146
H85	H	0.731252	-0.088133	-0.057541
H86	H	0.731256	-0.088133	0.057805
H87	H	0.589167	-0.039576	-0.057561
H88	H	0.589153	-0.039581	0.057795
C89	C	0.838842	-0.218042	-0.084951
C90	C	0.887855	-0.240653	0.000076
H91	H	0.783061	-0.237155	-0.084964
H92	H	0.828094	-0.168282	-0.084943
H93	H	0.872130	-0.233364	-0.142612
H94	H	0.854570	-0.225326	0.057737
H95	H	0.898601	-0.290423	0.000077
C96	C	1.234259	-0.317710	0.085156
C97	C	1.230096	-0.275320	0.000140
H98	H	1.289108	-0.348027	0.085166
H99	H	1.231400	-0.288964	0.142817
H100	H	1.185099	-0.344897	0.085131
H101	H	1.279253	-0.248129	0.000168
H102	H	1.232964	-0.304069	-0.057537
H103	H	0.945533	0.182414	0.433969
H104	H	1.166946	0.010442	0.755076
C105	C	0.874598	0.237513	0.702215
C106	C	0.928170	0.195920	0.769887
H107	H	0.833185	0.269663	0.737538
H108	H	0.911712	0.262688	0.661605
H109	H	0.842554	0.208393	0.661620
H110	H	0.960220	0.225039	0.810478
H111	H	0.891052	0.170743	0.810515
H112	H	1.209564	-0.130467	0.000151
H113	H	0.913768	-0.100507	0.000084
C114	C	0.975433	0.238818	0.491460
C115	C	0.928163	0.195928	0.551341
H116	H	0.934029	0.270979	0.456127
H117	H	1.012557	0.263981	0.532058
H118	H	1.011759	0.210578	0.445573
H119	H	0.891841	0.224168	0.597233
H120	H	0.891023	0.170763	0.510740
H121	H	1.201180	-0.574506	0.000098
H122	H	1.198683	-0.706623	0.000065
C123	C	0.875244	-0.036588	-0.084919
C124	C	0.820937	-0.033501	0.000099
H125	H	0.914310	-0.079276	-0.084905
H126	H	0.838395	-0.034485	-0.142579
H127	H	0.909868	0.001898	-0.084919
H128	H	0.786307	-0.071985	0.000096
H129	H	0.857789	-0.035611	0.057774
H130	H	0.902894	-0.676672	0.000028
H131	H	0.905387	-0.544550	0.000048
C132	C	1.237829	-0.044680	0.297978
C133	C	1.184280	-0.003077	0.230298
H134	H	1.279222	-0.076851	0.262663
H135	H	1.269889	-0.015574	0.338563
H136	H	1.200691	-0.069838	0.338599
H137	H	1.221418	0.022085	0.189681
H138	H	1.152218	-0.032186	0.189696
H139	H	0.477182	0.210943	0.000054
H140	H	1.166931	0.010440	0.566209
