data_functionalizedCrystal
_audit_creation_method	'MofGen! by Chris Wilmer'
_symmetry_space_group_name_H-M	'P1'
_symmetry_Int_Tables_number	1
_symmetry_cell_setting	triclinic
loop_
_symmetry_equiv_pos_as_xyz
  x,y,z
_cell_length_a	16.793024
_cell_length_b	16.793047
_cell_length_c	33.586455
_cell_angle_alpha	113.253857
_cell_angle_beta	66.219990
_cell_angle_gamma	112.758327
loop_
_atom_site_label
_atom_site_type_symbol
_atom_site_fract_x
_atom_site_fract_y
_atom_site_fract_z
O1	O	0.005016	-0.570216	-0.583573
O2	O	-0.034529	-0.474528	-0.453458
O3	O	0.114723	-0.474535	-0.528082
O4	O	-0.144235	-0.570209	-0.508949
O5	O	0.108729	-0.346329	-0.530229
O6	O	-0.040523	-0.346322	-0.455605
O7	O	-0.000977	-0.442010	-0.585721
Zn8	Zn	-0.021701	-0.373810	-0.521004
Zn9	Zn	-0.013805	-0.542728	-0.518175
O10	O	-0.150229	-0.442003	-0.511097
C11	C	0.005100	-0.790970	-0.238461
C12	C	0.009223	-0.693065	-0.217557
C13	C	0.003804	-0.645758	-0.241627
C14	C	-0.075059	-0.538459	-0.266316
C15	C	0.049838	-0.422849	-0.250165
C16	C	-0.040584	-0.395375	-0.435637
C17	C	-0.044693	-0.353446	-0.386631
C18	C	-0.039275	-0.401741	-0.363054
C19	C	-0.040566	-0.125547	-0.300731
C20	C	-0.044689	-0.223451	-0.321635
C21	C	-0.039266	-0.270752	-0.297563
C22	C	0.039597	-0.378051	-0.272874
C23	C	-0.085304	-0.493667	-0.289026
C24	C	0.005118	-0.521142	-0.103554
C25	C	0.009231	-0.563064	-0.152559
C26	C	0.003809	-0.514775	-0.176138
C27	C	0.010758	-0.652581	-0.172822
C28	C	0.001010	-0.556371	-0.220792
C29	C	-0.008251	-0.506059	-0.245823
C30	C	-0.046224	-0.263935	-0.366370
C31	C	-0.036476	-0.360146	-0.318399
C32	C	-0.027211	-0.410451	-0.293367
C33	C	0.815184	-0.521162	-0.508596
C34	C	0.415541	-0.125553	-0.528781
C35	C	0.375032	-0.223457	-0.531493
C36	C	0.423813	-0.270761	-0.529101
C37	C	0.149318	-0.395376	-0.530584
C38	C	0.246774	-0.353455	-0.532364
C39	C	0.294574	-0.401748	-0.529976
C40	C	0.548961	-0.790984	-0.510398
C41	C	0.286104	-0.263940	-0.532530
C42	C	0.383336	-0.360149	-0.528302
C43	C	0.432207	-0.407971	-0.525810
C44	C	0.392316	-0.497392	-0.524993
C45	C	0.303554	-0.538991	-0.526667
C46	C	0.254683	-0.491169	-0.529159
C47	C	0.263666	-0.628421	-0.525851
C48	C	0.312537	-0.676243	-0.523359
C49	C	0.401299	-0.634644	-0.521685
C50	C	0.441190	-0.545223	-0.522502
C51	C	0.529952	-0.503624	-0.520828
C52	C	0.578823	-0.551446	-0.518336
C53	C	0.538939	-0.640864	-0.517520
C54	C	0.450177	-0.682463	-0.519194
C55	C	0.587810	-0.688687	-0.515028
C56	C	0.676572	-0.647088	-0.513354
C57	C	0.716463	-0.557666	-0.514172
C58	C	0.667586	-0.509847	-0.516662
C59	C	0.569840	-0.414195	-0.521644
C60	C	0.658602	-0.372596	-0.519970
C61	C	0.707476	-0.420426	-0.517480
C62	C	0.698493	-0.283174	-0.520788
C63	C	0.649622	-0.235352	-0.523280
C64	C	0.560860	-0.276951	-0.524954
C65	C	0.520969	-0.366372	-0.524136
C66	C	0.511989	-0.229129	-0.527446
C67	C	-0.040530	-0.395407	-0.935652
C68	C	0.005063	-0.791004	-0.738448
C69	C	0.009186	-0.693099	-0.717543
C70	C	0.003779	-0.645796	-0.741620
C71	C	0.005077	-0.521171	-0.603544
C72	C	0.009198	-0.563096	-0.652550
C73	C	0.003786	-0.514804	-0.676131
C74	C	-0.040516	-0.125574	-0.800747
C75	C	0.010719	-0.652613	-0.672809
C76	C	0.000994	-0.556406	-0.720789
C77	C	-0.004621	-0.508585	-0.744908
C78	C	-0.007444	-0.419162	-0.724369
C79	C	-0.004651	-0.377560	-0.679711
C80	C	0.000964	-0.425381	-0.655592
C81	C	-0.007471	-0.288129	-0.659174
C82	C	-0.013086	-0.240308	-0.683293
C83	C	-0.015878	-0.281910	-0.727951
C84	C	-0.013056	-0.371333	-0.748490
C85	C	-0.015848	-0.412935	-0.793148
C86	C	-0.021463	-0.365114	-0.817267
C87	C	-0.024282	-0.275694	-0.796731
C88	C	-0.021490	-0.234092	-0.752073
C89	C	-0.029897	-0.227873	-0.820850
C90	C	-0.032690	-0.269476	-0.865508
C91	C	-0.029867	-0.358899	-0.886047
C92	C	-0.024255	-0.406717	-0.861925
C93	C	-0.013028	-0.502367	-0.813685
C94	C	-0.015821	-0.543969	-0.858343
C95	C	-0.021433	-0.496140	-0.882464
C96	C	-0.012998	-0.633392	-0.878882
C97	C	-0.007383	-0.681213	-0.854763
C98	C	-0.004591	-0.639611	-0.810105
C99	C	-0.007414	-0.550188	-0.789566
C100	C	0.001024	-0.687432	-0.785986
O101	O	-0.000965	0.173549	-0.277957
O102	O	-0.040516	-0.085616	-0.325254
O103	O	0.108737	0.059592	-0.327284
O104	O	-0.150219	0.028341	-0.275927
O105	O	0.114753	0.055151	-0.263265
O106	O	-0.034500	-0.090057	-0.261234
O107	O	0.005051	0.169108	-0.213937
Zn108	Zn	-0.013769	0.038820	-0.227421
Zn109	Zn	-0.021696	0.044672	-0.311770
O110	O	-0.144202	0.023900	-0.211907
O111	O	-0.034458	-0.474571	0.046517
O112	O	0.005076	-0.570190	-0.083599
O113	O	-0.144170	-0.570237	-0.008972
O114	O	0.114787	-0.474523	-0.028110
O115	O	-0.150200	-0.442024	-0.011093
O116	O	-0.000954	-0.441976	-0.085720
O117	O	-0.040488	-0.346357	0.044396
Zn118	Zn	-0.021679	-0.373810	-0.020999
Zn119	Zn	-0.013734	-0.542737	-0.018204
O120	O	0.108757	-0.346309	-0.030231
C121	C	-0.850734	0.086244	-0.289716
C122	C	-0.753280	0.087165	-0.312001
C123	C	-0.705462	0.081107	-0.288506
C124	C	-0.599592	0.000085	-0.264184
C125	C	-0.481080	0.121287	-0.283645
C126	C	-0.450996	0.035117	-0.097351
C127	C	-0.410501	0.028587	-0.146852
C128	C	-0.459292	0.034683	-0.169840
C129	C	-0.184802	0.024283	-0.235878
C130	C	-0.282257	0.023363	-0.213592
C131	C	-0.330068	0.029423	-0.237088
C132	C	-0.435938	0.110445	-0.261411
C133	C	-0.554456	-0.010759	-0.241948
C134	C	-0.584541	0.075410	-0.428242
C135	C	-0.625029	0.081943	-0.378743
C136	C	-0.576244	0.075844	-0.355753
C137	C	-0.713963	0.086424	-0.357292
C138	C	-0.616708	0.075351	-0.310510
C139	C	-0.565963	0.065400	-0.286043
C140	C	-0.321573	0.024104	-0.168302
C141	C	-0.418828	0.035176	-0.215083
C142	C	-0.469568	0.045131	-0.239552
O143	O	0.585213	0.169090	-0.504004
O144	O	0.494056	-0.090076	-0.525516
O145	O	0.488081	0.055124	-0.449918
O146	O	0.591189	0.023889	-0.579602
O147	O	0.359978	0.059584	-0.452885
O148	O	0.365953	-0.085616	-0.528483
O149	O	0.457110	0.173550	-0.506971
Zn150	Zn	0.391193	0.044675	-0.518198
Zn151	Zn	0.559974	0.038798	-0.514289
O152	O	0.463086	0.028349	-0.582569
C153	C	0.815354	-0.521094	-0.008709
C154	C	0.717898	-0.563028	-0.006927
C155	C	0.670072	-0.514739	-0.009298
C156	C	0.564182	-0.463204	-0.048354
C157	C	0.445681	-0.498945	0.013847
C158	C	0.415547	-0.125494	-0.028771
C159	C	0.375059	-0.223405	-0.031498
C160	C	0.423859	-0.270708	-0.029121
C161	C	0.149365	-0.395355	-0.030599
C162	C	0.246820	-0.353421	-0.032381
C163	C	0.294640	-0.401713	-0.030008
C164	C	0.400530	-0.453248	0.009048
C165	C	0.519038	-0.417504	-0.053155
C166	C	0.549171	-0.790955	-0.010537
C167	C	0.589653	-0.693047	-0.007809
C168	C	0.540859	-0.645741	-0.010187
C169	C	0.678588	-0.652551	-0.006775
C170	C	0.581317	-0.556344	-0.010973
C171	C	0.530562	-0.506029	-0.015250
C172	C	0.286131	-0.263897	-0.032533
C173	C	0.383402	-0.360104	-0.028335
C174	C	0.434150	-0.410423	-0.024057
O175	O	-0.620614	0.089309	0.052274
O176	O	-0.529507	0.043784	-0.078544
O177	O	-0.523494	0.194833	-0.006033
O178	O	-0.626628	-0.061740	-0.020236
O179	O	-0.395386	0.185419	-0.005549
O180	O	-0.401400	0.034370	-0.078059
O181	O	-0.492507	0.079895	0.052758
Zn182	Zn	-0.426614	0.055638	-0.012574
Zn183	Zn	-0.595401	0.068041	-0.013212
O184	O	-0.498521	-0.071154	-0.019752
C185	C	-0.437537	0.048335	0.402491
C186	C	-0.397043	0.041789	0.352989
C187	C	-0.445822	0.047883	0.329994
C188	C	-0.496646	0.126653	0.277022
C189	C	-0.465894	-0.000633	0.218811
C190	C	-0.837226	0.099430	0.210091
C191	C	-0.739773	0.100339	0.187806
C192	C	-0.691967	0.094287	0.211308
C193	C	-0.571027	0.088563	0.071568
C194	C	-0.611521	0.095108	0.121070
C195	C	-0.562739	0.089011	0.144061
C196	C	-0.511915	0.010241	0.197033
C197	C	-0.542670	0.137531	0.255247
C198	C	-0.171338	0.037467	0.263967
C199	C	-0.268788	0.036555	0.286249
C200	C	-0.316597	0.042611	0.262750
C201	C	-0.308112	0.037305	0.331542
C202	C	-0.405351	0.048369	0.284750
C203	C	-0.456092	0.058317	0.260279
C204	C	-0.700452	0.099593	0.142516
C205	C	-0.603213	0.088528	0.189308
C206	C	-0.552469	0.078578	0.213776
O207	O	-0.040608	-1.085661	-0.825229
O208	O	-0.001018	-0.826491	-0.777938
O209	O	-0.150287	-0.971682	-0.775894
O210	O	0.108661	-0.940470	-0.827272
O211	O	-0.144253	-0.976123	-0.711878
O212	O	0.005016	-0.830932	-0.713922
O213	O	-0.034575	-1.090102	-0.761213
Zn214	Zn	-0.013821	-0.961222	-0.727403
Zn215	Zn	-0.021771	-0.955371	-0.811747
O216	O	0.114695	-0.944911	-0.763256
C217	C	-0.030957	-0.286345	-0.231393
C218	C	-0.036364	-0.225065	-0.248236
H219	H	-0.029165	-0.258138	-0.200941
H220	H	-0.082357	-0.336985	-0.232362
H221	H	0.022327	-0.305461	-0.249449
H222	H	-0.089652	-0.205954	-0.230182
H223	H	0.015040	-0.174409	-0.247263
H224	H	-0.283673	0.042875	0.225734
H225	H	0.088092	-0.309407	-0.275738
H226	H	0.682238	-0.162236	-0.523943
H227	H	-0.267732	0.034117	0.350946
C228	C	0.404768	-0.789560	-0.478151
C229	C	0.406138	-0.781165	-0.518293
H230	H	0.377578	-0.850493	-0.477595
H231	H	0.464866	-0.771565	-0.476796
H232	H	0.370916	-0.752326	-0.452839
H233	H	0.439995	-0.818395	-0.543605
H234	H	0.346030	-0.799171	-0.519653
H235	H	-0.449229	0.177371	-0.300885
H236	H	-0.037138	-0.474881	-0.380005
C237	C	0.062456	-0.707504	-0.954803
C238	C	-0.016069	-0.679304	-0.928176
H239	H	0.060554	-0.735852	-0.985233
H240	H	0.113849	-0.656845	-0.953909
H241	H	0.066210	-0.748955	-0.943328
H242	H	-0.019820	-0.637848	-0.939648
H243	H	-0.067476	-0.729970	-0.929072
H244	H	0.003251	-0.391359	-0.619081
H245	H	-0.503619	0.071273	-0.373665
C246	C	-0.261092	0.096852	-0.105072
C247	C	-0.267062	0.019804	-0.142105
H248	H	-0.227442	0.094194	-0.088899
H249	H	-0.231669	0.148867	-0.115628
H250	H	-0.320117	0.099738	-0.085571
H251	H	-0.208036	0.016921	-0.161608
H252	H	-0.296482	-0.032226	-0.131549
H253	H	0.261721	-0.474856	-0.029430
C254	C	-0.260284	-0.050142	-0.312939
C255	C	-0.285643	0.029778	-0.287060
H256	H	-0.232867	-0.049929	-0.343790
H257	H	-0.218502	-0.054617	-0.302028
H258	H	-0.312290	-0.100081	-0.310555
H259	H	-0.233636	0.079717	-0.289441
H260	H	-0.327428	0.034262	-0.297975
H261	H	0.001660	-0.441639	-0.159184
C262	C	-0.573769	0.191617	0.354429
C263	C	-0.487649	0.193123	0.323231
H264	H	-0.568216	0.232649	0.382957
H265	H	-0.607710	0.208578	0.343826
H266	H	-0.603782	0.132604	0.357666
H267	H	-0.457638	0.252135	0.319992
H268	H	-0.453695	0.176167	0.333836
C269	C	0.075913	-0.242624	-0.606584
C270	C	-0.004452	-0.242263	-0.609873
H271	H	0.077760	-0.214315	-0.576144
H272	H	0.078416	-0.302966	-0.615415
H273	H	0.126065	-0.210822	-0.625958
H274	H	-0.054605	-0.274071	-0.590502
H275	H	-0.006964	-0.181910	-0.601037
C276	C	0.026348	-0.135723	-0.395666
C277	C	-0.049775	-0.210057	-0.393259
H278	H	0.024160	-0.102464	-0.412269
H279	H	0.027009	-0.098361	-0.365887
H280	H	0.079502	-0.155933	-0.410481
H281	H	-0.102929	-0.189846	-0.378441
H282	H	-0.050444	-0.247425	-0.423043
C283	C	0.739847	-0.364940	0.029556
C284	C	0.714486	-0.415988	-0.010062
H285	H	0.767265	-0.303974	0.029087
H286	H	0.687851	-0.368313	0.055226
H287	H	0.781638	-0.387906	0.031218
H288	H	0.672689	-0.393026	-0.011723
H289	H	0.766490	-0.412610	-0.035739
C290	C	-0.061805	-0.709209	-0.107733
C291	C	0.014312	-0.706460	-0.145933
H292	H	-0.059613	-0.742477	-0.091136
H293	H	-0.062460	-0.649632	-0.089043
H294	H	-0.114963	-0.737397	-0.117116
H295	H	0.067470	-0.678266	-0.136551
H296	H	0.014976	-0.766047	-0.164627
C297	C	0.155163	-0.207327	-0.495863
C298	C	0.231595	-0.210067	-0.533943
H299	H	0.121513	-0.174065	-0.496733
H300	H	0.118585	-0.266906	-0.495933
H301	H	0.173558	-0.179137	-0.469098
H302	H	0.213199	-0.238263	-0.560707
H303	H	0.268179	-0.150477	-0.533877
C304	C	0.000484	-0.812666	-0.853125
C305	C	0.004135	-0.786136	-0.808652
H306	H	0.002410	-0.873599	-0.867118
H307	H	-0.054047	-0.806960	-0.852621
H308	H	0.050626	-0.775437	-0.869800
H309	H	-0.046011	-0.823361	-0.791976
H310	H	0.058673	-0.791850	-0.809154
H311	H	0.279916	-0.749353	-0.522691
C312	C	-0.688310	0.074129	-0.222454
C313	C	-0.749901	0.080740	-0.238537
H314	H	-0.715745	0.073911	-0.191603
H315	H	-0.671103	0.019921	-0.240015
H316	H	-0.636316	0.124082	-0.224829
H317	H	-0.801892	0.030784	-0.236165
H318	H	-0.767120	0.134954	-0.220971
H319	H	0.182115	-0.525189	-0.530531
C320	C	-0.012541	-0.115079	-0.616151
C321	C	-0.016195	-0.141606	-0.660624
H322	H	-0.014457	-0.054143	-0.602159
H323	H	-0.062676	-0.152300	-0.599477
H324	H	0.041997	-0.120790	-0.616659
H325	H	-0.070737	-0.135901	-0.660117
H326	H	0.033945	-0.104374	-0.677303
C327	C	0.273366	-0.397042	0.030131
C328	C	0.306007	-0.447310	0.041824
H329	H	0.215008	-0.393382	0.050365
H330	H	0.313232	-0.338161	0.032108
H331	H	0.269710	-0.425504	-0.000010
H332	H	0.309669	-0.418845	0.071964
H333	H	0.266131	-0.506202	0.039851
C334	C	-0.517730	0.298024	0.282352
C335	C	-0.585383	0.216734	0.276565
H336	H	-0.544098	0.346920	0.295508
H337	H	-0.488184	0.300036	0.301751
H338	H	-0.475033	0.302250	0.253720
H339	H	-0.628076	0.212505	0.305199
H340	H	-0.614943	0.214721	0.257166
C341	C	-0.692681	-0.108506	-0.311111
C342	C	-0.694119	-0.062901	-0.265884
H343	H	-0.751037	-0.147394	-0.312157
H344	H	-0.675922	-0.066106	-0.327155
H345	H	-0.650115	-0.142959	-0.324691
H346	H	-0.736680	-0.028443	-0.252304
H347	H	-0.710888	-0.105307	-0.249834
H348	H	-0.586315	-0.066836	-0.224702
C349	C	-0.213141	-0.618717	-0.302395
C350	C	-0.162791	-0.535179	-0.310665
H351	H	-0.260979	-0.644340	-0.315753
H352	H	-0.175082	-0.657721	-0.315213
H353	H	-0.237522	-0.610740	-0.270607
H354	H	-0.138404	-0.543157	-0.342453
H355	H	-0.200856	-0.496167	-0.297848
C356	C	-0.545655	0.130936	0.391505
C357	C	-0.543853	0.054091	0.354166
H358	H	-0.606173	0.134777	0.406424
H359	H	-0.522251	0.127184	0.411970
H360	H	-0.509774	0.182966	0.381439
H361	H	-0.579729	0.002061	0.364232
H362	H	-0.567269	0.057836	0.333697
H363	H	0.191099	-0.662437	-0.527221
C364	C	-0.379609	-0.076852	0.226085
C365	C	-0.423175	-0.079833	0.197488
H366	H	-0.353241	-0.125750	0.212922
H367	H	-0.333729	-0.021703	0.230013
H368	H	-0.422317	-0.081098	0.254713
H369	H	-0.380465	-0.075580	0.168861
H370	H	-0.469059	-0.134996	0.193555
H371	H	-0.365918	0.157102	-0.260160
H372	H	-0.724884	0.094041	0.248327
C373	C	0.049304	-0.080530	-0.753991
C374	C	-0.024604	-0.135388	-0.729401
H375	H	0.047376	-0.019597	-0.739997
H376	H	0.103829	-0.086237	-0.754490
H377	H	0.046818	-0.098544	-0.784162
H378	H	-0.022114	-0.117378	-0.699231
H379	H	-0.079143	-0.129676	-0.728898
H380	H	0.544602	-0.156012	-0.528109
H381	H	-0.047834	-0.232081	-0.882358
C382	C	0.458219	-0.508083	0.080557
C383	C	0.402699	-0.544355	0.052274
H384	H	0.431681	-0.536116	0.104281
H385	H	0.515951	-0.518360	0.063400
H386	H	0.464665	-0.445173	0.093178
H387	H	0.396259	-0.607263	0.039650
H388	H	0.344951	-0.534085	0.069434
H389	H	0.107243	-0.392097	-0.234140
H390	H	-0.490116	0.084434	0.126151
H391	H	0.468233	-0.679598	-0.011487
H392	H	0.001650	-0.679613	-0.278166
H393	H	0.710767	-0.684484	-0.506030
H394	H	-0.740818	0.102779	0.123104
H395	H	-0.123560	-0.607102	-0.263443
C396	C	0.689822	-0.736168	0.033628
C397	C	0.733110	-0.706402	-0.005356
H398	H	0.723481	-0.769410	0.034506
H399	H	0.685861	-0.685736	0.059777
H400	H	0.630768	-0.773558	0.033033
H401	H	0.792162	-0.669006	-0.004760
H402	H	0.737081	-0.756841	-0.031511
C403	C	0.683399	-0.422485	-0.112702
C404	C	0.658710	-0.469151	-0.081130
H405	H	0.741759	-0.426150	-0.132933
H406	H	0.640839	-0.448500	-0.129350
H407	H	0.684357	-0.361153	-0.097232
H408	H	0.657745	-0.530485	-0.096599
H409	H	0.701281	-0.443139	-0.064480
H410	H	0.780052	-0.386407	-0.516111
C411	C	0.821261	-0.148309	-0.520189
C412	C	0.796466	-0.237261	-0.518940
H413	H	0.881740	-0.119963	-0.519044
H414	H	0.816829	-0.148079	-0.547455
H415	H	0.782035	-0.116554	-0.494909
H416	H	0.835688	-0.269018	-0.544222
H417	H	0.800905	-0.237496	-0.491671
H418	H	0.013347	-0.692513	-0.652885
C419	C	-0.725182	0.167546	-0.398947
C420	C	-0.768474	0.090746	-0.383482
H421	H	-0.758834	0.170215	-0.415116
H422	H	-0.721229	0.219735	-0.373783
H423	H	-0.666125	0.164763	-0.418437
H424	H	-0.827529	0.093533	-0.363989
H425	H	-0.772437	0.038544	-0.408649
H426	H	0.550886	-0.383867	-0.081621
H427	H	-0.023718	-0.530163	-0.918978
C428	C	-0.559111	0.117749	-0.108333
C429	C	-0.557320	0.040903	-0.145671
H430	H	-0.619625	0.121606	-0.093416
H431	H	-0.535722	0.113984	-0.087865
H432	H	-0.523212	0.169776	-0.118398
H433	H	-0.593214	-0.011124	-0.135606
H434	H	-0.580721	0.044661	-0.166143
C435	C	0.523759	-0.150386	0.011020
C436	C	0.521907	-0.225026	-0.027371
H437	H	0.584290	-0.122192	0.012101
H438	H	0.500343	-0.108818	0.009471
H439	H	0.487909	-0.169533	0.037526
H440	H	0.557752	-0.205878	-0.053877
H441	H	0.545335	-0.266602	-0.025825
C442	C	-0.476293	-0.121538	0.138428
C443	C	-0.520894	-0.056229	0.150824
H444	H	-0.481841	-0.162577	0.109900
H445	H	-0.414182	-0.093157	0.136283
H446	H	-0.502622	-0.153183	0.160692
H447	H	-0.494561	-0.024580	0.128562
H448	H	-0.583017	-0.084613	0.152966
C449	C	0.155170	-0.207315	0.004152
C450	C	0.231600	-0.210027	-0.033929
H451	H	0.121507	-0.174053	0.003293
H452	H	0.118604	-0.266900	0.004075
H453	H	0.173569	-0.179136	0.030916
H454	H	0.213201	-0.238211	-0.060693
H455	H	0.268173	-0.150430	-0.033856
H456	H	-0.005085	-0.754331	-0.871556
