data_functionalizedCrystal
_audit_creation_method	'MofGen! by Chris Wilmer'
_symmetry_space_group_name_H-M	'P1'
_symmetry_Int_Tables_number	1
_symmetry_cell_setting	triclinic
loop_
_symmetry_equiv_pos_as_xyz
  x,y,z
_cell_length_a	19.805407
_cell_length_b	10.686285
_cell_length_c	19.805399
_cell_angle_alpha	85.610534
_cell_angle_beta	89.980427
_cell_angle_gamma	85.631507
loop_
_atom_site_label
_atom_site_type_symbol
_atom_site_fract_x
_atom_site_fract_y
_atom_site_fract_z
Zn1	Zn	1.055500	-0.502374	-0.362110
Zn2	Zn	1.064136	-0.713385	-0.240266
Zn3	Zn	0.942316	-0.502409	-0.248934
Zn4	Zn	0.950997	-0.713318	-0.353415
O5	O	1.003237	-0.607872	-0.301181
O6	O	1.151363	-0.530379	-0.345959
O7	O	1.047958	-0.685441	-0.146697
O8	O	0.950083	-0.325830	-0.271213
O9	O	1.157708	-0.685408	-0.256440
O10	O	1.033239	-0.325804	-0.354364
O11	O	0.958457	-0.530438	-0.153065
O12	O	0.848750	-0.530373	-0.262782
O13	O	0.964878	-0.685293	-0.449287
O14	O	0.855128	-0.685327	-0.339544
O15	O	1.041656	-0.530314	-0.455675
O16	O	1.056375	-0.889951	-0.248009
O17	O	0.973252	-0.889902	-0.331139
C18	C	0.827380	-0.607847	-0.301160
C19	C	0.752149	-0.607868	-0.301166
C20	C	1.016711	-0.935710	-0.287705
C21	C	1.022538	-1.075961	-0.281962
C22	C	0.720149	-0.688673	-0.341061
C23	C	0.649460	-0.688676	-0.341071
C24	C	0.610774	-0.607877	-0.301181
C25	C	0.642779	-0.527063	-0.261284
C26	C	0.713466	-0.527055	-0.261279
C27	C	0.357707	-0.527090	-0.261306
C28	C	0.287015	-0.527107	-0.261312
C29	C	0.293701	-0.688711	-0.341097
C30	C	0.364388	-0.688704	-0.341092
C31	C	0.396387	-0.607885	-0.301198
C32	C	0.473035	-0.607882	-0.301190
C33	C	0.534127	-0.607886	-0.301186
C34	C	1.179781	-0.607897	-0.301203
C35	C	1.255013	-0.607907	-0.301212
C36	C	1.003272	-0.607792	-0.477727
C37	C	1.003287	-0.607758	-0.552961
C38	C	0.989729	-0.278753	-0.314725
C39	C	0.983973	-0.138502	-0.320497
C40	C	1.043266	-0.527056	-0.591633
C41	C	1.043271	-0.527020	-0.662323
C42	C	1.003301	-0.607692	-0.694339
C43	C	0.963317	-0.688398	-0.655662
C44	C	0.963308	-0.688427	-0.584974
C45	C	0.963350	-0.688280	-0.940740
C46	C	0.963364	-0.688247	-1.011434
C47	C	1.043313	-0.526873	-1.018089
C48	C	1.043305	-0.526902	-0.947401
C49	C	1.003318	-0.607602	-0.908730
C50	C	1.003312	-0.607639	-0.832080
C51	C	1.003310	-0.607663	-0.770988
C52	C	1.003238	-0.607860	-0.125326
C53	C	1.003340	-0.607538	-0.050107
H54	H	0.751642	-0.754473	-0.373542
C55	C	0.600226	-0.438190	-0.217404
H56	H	0.553545	-0.449777	-0.223115
H57	H	0.608328	-0.353431	-0.230865
H58	H	0.612550	-0.456557	-0.171154
H59	H	0.930812	-0.753943	-1.037499
H60	H	1.060009	-1.129719	-0.244569
H61	H	0.623409	-0.754477	-0.373557
H62	H	0.255518	-0.461303	-0.228830
C63	C	0.919349	-0.777138	-0.690875
H64	H	0.895533	-0.825198	-0.657718
H65	H	0.947501	-0.832110	-0.716192
H66	H	0.887878	-0.728847	-0.720432
C67	C	0.406939	-0.777577	-0.384973
H68	H	0.377756	-0.825695	-0.408740
H69	H	0.436764	-0.832490	-0.356776
H70	H	0.432542	-0.729363	-0.416487
C71	C	0.933351	-1.065902	-0.371009
H72	H	0.909935	-1.123942	-0.394411
H73	H	0.957113	-1.014418	-0.402608
H74	H	0.901765	-1.014563	-0.347165
H75	H	1.075817	-0.461367	-0.565570
H76	H	1.075828	-0.461307	-0.693806
C77	C	0.748666	-0.438167	-0.217396
H78	H	0.715504	-0.390053	-0.193636
H79	H	0.773993	-0.383251	-0.245594
H80	H	0.778212	-0.486361	-0.185875
C81	C	0.919374	-0.777053	-0.898208
H82	H	0.925085	-0.765513	-0.851523
H83	H	0.932761	-0.861829	-0.906306
H84	H	0.873138	-0.758567	-0.910548
H85	H	1.075855	-0.461215	-0.921337
C86	C	0.392900	-0.438201	-0.217423
H87	H	0.440539	-0.449752	-0.223136
H88	H	0.382052	-0.456556	-0.171176
H89	H	0.377831	-0.353444	-0.230894
C90	C	1.087293	-0.438094	-1.060629
H91	H	1.081571	-0.449617	-1.107314
H92	H	1.133526	-0.456577	-1.048292
H93	H	1.073904	-0.353312	-1.052530
H94	H	0.930746	-0.754130	-0.553488
H95	H	0.267639	-0.754513	-0.373583
