data_functionalizedCrystal
_audit_creation_method	'MofGen! by Chris Wilmer'
_symmetry_space_group_name_H-M	'P1'
_symmetry_Int_Tables_number	1
_symmetry_cell_setting	triclinic
loop_
_symmetry_equiv_pos_as_xyz
  x,y,z
_cell_length_a	15.944551
_cell_length_b	15.944493
_cell_length_c	12.503572
_cell_angle_alpha	93.528588
_cell_angle_beta	86.485927
_cell_angle_gamma	83.486891
loop_
_atom_site_label
_atom_site_type_symbol
_atom_site_fract_x
_atom_site_fract_y
_atom_site_fract_z
O1	O	1.119339	0.103483	-0.089195
O2	O	0.874788	0.116838	-0.089220
O3	O	1.003768	-0.012118	-0.089215
O4	O	0.990360	0.232439	-0.089199
O5	O	0.994068	-0.002404	0.089426
O6	O	0.865088	0.126552	0.089422
O7	O	1.109639	0.113197	0.089447
Cu8	Cu	0.986478	0.120762	0.105746
Cu9	Cu	0.997949	0.109273	-0.105518
O10	O	0.980660	0.242153	0.089443
C11	C	0.838644	0.121140	0.000098
C12	C	0.745399	0.119478	0.000088
C13	C	0.530559	0.035572	0.000103
C14	C	0.474314	0.069746	-0.087974
C15	C	0.574673	0.116471	0.000100
C16	C	0.464772	0.079342	0.088152
C17	C	0.409760	0.113561	0.000117
C18	C	0.519660	0.150663	-0.088050
C19	C	0.510121	0.160253	0.088156
C20	C	0.453894	0.194484	0.000057
C21	C	0.669676	0.118145	0.000090
C22	C	0.314759	0.111893	0.000120
C23	C	0.998370	-0.038556	0.000101
C24	C	0.996728	-0.131806	0.000087
C25	C	1.072647	-0.367564	0.000115
C26	C	1.036489	-0.422922	-0.087968
C27	C	0.993683	-0.302526	0.000100
C28	C	1.026907	-0.413320	0.088159
C29	C	0.990748	-0.467435	0.000117
C30	C	0.957550	-0.356659	-0.088056
C31	C	0.947975	-0.347050	0.088150
C32	C	0.911760	-0.402377	0.000045
C33	C	0.995376	-0.207527	0.000089
C34	C	0.989048	-0.562431	0.000120
C35	C	1.145783	0.108894	0.000127
C36	C	1.239028	0.110557	0.000131
C37	C	0.986058	0.268591	0.000124
C38	C	0.987700	0.361840	0.000131
N39	N	0.978416	0.128841	0.254338
N40	N	1.006018	0.101187	-0.254110
C41	C	0.966556	0.140734	0.473453
C42	C	1.017875	0.089297	0.526782
C43	C	1.011276	0.095914	0.648705
C44	C	0.973154	0.134118	0.351519
H45	H	0.458254	0.031479	-0.162442
F46	F	1.082033	0.025493	0.466777
H47	H	0.526201	0.198491	0.162627
H48	H	0.543688	0.180801	-0.162593
H49	H	0.928269	-0.331894	-0.162603
F50	F	0.902655	0.204787	0.533456
H51	H	0.563912	-0.031574	-0.000011
H52	H	0.910613	-0.314040	0.162614
F53	F	0.410535	0.282327	0.000002
H54	H	1.056228	-0.438202	0.162621
F55	F	0.822792	-0.422598	-0.000024
H56	H	1.140669	-0.351940	0.000034
F57	F	0.433244	0.039893	0.185478
F58	F	1.085360	-0.466051	-0.185294
