data_functionalizedCrystal
_audit_creation_method	'MofGen! by Chris Wilmer'
_symmetry_space_group_name_H-M	'P1'
_symmetry_Int_Tables_number	1
_symmetry_cell_setting	triclinic
loop_
_symmetry_equiv_pos_as_xyz
  x,y,z
_cell_length_a	10.723024
_cell_length_b	19.288865
_cell_length_c	17.766277
_cell_angle_alpha	90.011603
_cell_angle_beta	90.009043
_cell_angle_gamma	83.802058
loop_
_atom_site_label
_atom_site_type_symbol
_atom_site_fract_x
_atom_site_fract_y
_atom_site_fract_z
O1	O	-1.655151	-0.097418	-0.062599
O2	O	-1.291803	-0.106743	-0.062602
O3	O	-1.483976	-0.001018	-0.062586
O4	O	-1.462978	-0.203142	-0.062616
O5	O	-1.483943	-0.001013	0.062603
O6	O	-1.291769	-0.106737	0.062586
O7	O	-1.655118	-0.097412	0.062590
Cu8	Cu	-1.473440	-0.102074	0.074018
Cu9	Cu	-1.473480	-0.102081	-0.074031
O10	O	-1.462944	-0.203137	0.062573
C11	C	-1.245301	-0.106061	-0.000008
C12	C	-1.106789	-0.104031	-0.000009
C13	C	-1.483284	0.024865	0.000011
C14	C	-1.481256	0.101982	0.000017
C15	C	-1.701620	-0.098094	-0.000006
C16	C	-1.840131	-0.100124	-0.000010
C17	C	-1.030564	-0.163189	-0.000018
C18	C	-0.887405	-0.161092	-0.000019
C19	C	-1.463637	-0.229020	-0.000025
C20	C	-1.465665	-0.306137	-0.000037
N21	N	-1.473422	-0.102069	0.178149
C22	C	-1.594014	0.145945	0.000022
C23	C	-1.592109	0.218404	0.000010
C24	C	-1.477438	0.246898	0.000009
C25	C	-1.364665	0.202925	-0.000000
C26	C	-1.366574	0.130468	0.000004
C27	C	-1.387282	0.355774	0.043859
C28	C	-1.385378	0.428231	0.043859
C29	C	-1.471547	0.470382	-0.000008
C30	C	-1.559640	0.440069	-0.043866
C31	C	-1.561549	0.367611	-0.043862
C32	C	-1.475356	0.325465	0.000003
C33	C	-1.582247	0.592914	-0.000018
C34	C	-1.580336	0.665374	-0.000034
C35	C	-1.352890	0.649894	-0.000037
C36	C	-1.354803	0.577435	-0.000028
C37	C	-1.469485	0.548949	-0.000015
N38	N	-1.473509	-0.102081	-0.178162
C39	C	-1.558543	-0.055278	0.217543
C40	C	-1.558550	-0.055275	0.296345
C41	C	-1.473448	-0.102075	0.335749
C42	C	-1.388310	-0.148870	0.296346
C43	C	-1.388297	-0.148867	0.217545
C44	C	-1.456743	-0.165254	0.460578
C45	C	-1.456765	-0.165258	0.539377
C46	C	-1.473481	-0.102083	0.578796
C47	C	-1.490202	-0.038903	0.539406
C48	C	-1.490189	-0.038900	0.460606
C49	C	-1.473452	-0.102083	0.421195
C50	C	-1.558615	-0.055285	0.703636
C51	C	-1.558614	-0.055281	0.782439
C52	C	-1.388380	-0.148882	0.782438
C53	C	-1.388375	-0.148880	0.703637
C54	C	-1.473500	-0.102082	0.664240
H55	H	-1.071290	-0.215388	-0.000022
H56	H	-0.821909	-0.211735	-0.000030
H57	H	-0.905620	-0.049478	-0.000007
H58	H	-1.627925	-0.017177	0.671558
Br59	Br	-1.434087	-0.251001	0.592826
Br60	Br	-1.209039	0.241593	-0.000012
H61	H	-1.066063	-0.051832	-0.000021
H62	H	-1.672162	0.701169	-0.000034
H63	H	-1.627853	-0.017171	0.185469
Br64	Br	-1.434180	-0.251001	0.407089
Br65	Br	-1.272803	-0.212380	0.349820
Br66	Br	-1.272765	-0.212374	0.164077
H67	H	-1.503813	0.012540	0.571499
Br68	Br	-1.749653	0.107289	0.000019
Br69	Br	-1.270329	0.298575	0.103398
H70	H	-1.675628	0.569720	-0.000010
H71	H	-1.627926	-0.017174	0.814515
H72	H	-1.683933	0.254205	0.000011
H73	H	-1.274749	0.094672	0.000000
H74	H	-1.319083	-0.186985	0.814521
Br75	Br	-1.674081	0.008234	0.349818
Br76	Br	-1.681092	0.326472	-0.103383
Br77	Br	-1.197262	0.688556	-0.000047
Br78	Br	-1.676593	0.497265	-0.103404
Br79	Br	-1.201765	0.517767	-0.000034
H80	H	-1.313642	0.452905	0.079566
Br81	Br	-1.272852	-0.212388	0.650167
Br82	Br	-1.512868	0.046840	0.407150
