data_functionalizedCrystal
_audit_creation_method	'MofGen! by Chris Wilmer'
_symmetry_space_group_name_H-M	'P1'
_symmetry_Int_Tables_number	1
_symmetry_cell_setting	triclinic
loop_
_symmetry_equiv_pos_as_xyz
  x,y,z
_cell_length_a	23.196402
_cell_length_b	18.760487
_cell_length_c	18.760492
_cell_angle_alpha	90.032780
_cell_angle_beta	60.000012
_cell_angle_gamma	60.018929
loop_
_atom_site_label
_atom_site_type_symbol
_atom_site_fract_x
_atom_site_fract_y
_atom_site_fract_z
Zr1	Zr	0.631019	0.686671	-0.093103
O2	O	0.751289	0.572856	-0.206987
O3	O	0.510750	0.721563	-0.058194
O4	O	0.631019	0.721567	-0.206898
O5	O	0.631019	0.572848	0.059020
O6	O	0.631019	0.838870	-0.206826
O7	O	0.631019	0.572853	-0.058283
O8	O	0.415879	0.838864	0.059178
O9	O	0.846159	0.572854	-0.206984
O10	O	0.560218	0.823984	-0.043249
O11	O	0.560218	0.736438	0.044238
O12	O	0.701820	0.736442	-0.130841
O13	O	0.701820	0.648897	-0.043354
Zr14	Zr	0.631019	0.873748	0.094096
Zr15	Zr	0.631019	0.873756	-0.092988
Zr16	Zr	0.631019	0.686663	0.093981
Zr17	Zr	0.782327	0.686667	-0.093099
Zr18	Zr	0.479711	0.873751	0.094092
O19	O	0.751289	0.838855	0.059187
O20	O	0.751288	0.838867	-0.206823
O21	O	0.751289	0.572845	0.059023
O22	O	0.510750	0.987562	0.207979
O23	O	0.510749	0.987574	-0.058031
O24	O	0.510750	0.721552	0.207815
O25	O	0.631019	0.987571	-0.058027
O26	O	0.631019	0.838852	0.207891
O27	O	0.631019	0.721549	0.207819
O28	O	0.631019	0.987565	0.059275
O29	O	0.846159	0.721561	-0.206893
O30	O	0.415879	0.838857	0.207885
O31	O	0.415879	0.987565	0.207977
O32	O	0.415879	0.987571	0.059270
O33	O	0.846159	0.572848	-0.058277
O34	O	0.846159	0.721555	-0.058186
O35	O	0.560218	0.823976	0.131834
O36	O	0.560218	0.911522	0.044346
O37	O	0.701820	0.823980	-0.043246
O38	O	0.701820	0.736435	0.044242
C39	C	0.441756	0.780214	0.000491
C40	C	0.377522	0.780216	0.000490
C41	C	-0.085321	0.825909	-0.045156
C42	C	-0.024962	0.825907	-0.045164
C43	C	0.005220	0.780210	0.000504
C44	C	-0.024947	0.734494	0.046165
C45	C	-0.085299	0.734490	0.046164
C46	C	0.067247	0.786736	0.077050
C47	C	0.127594	0.786746	0.077053
C48	C	0.191368	0.780216	0.000505
C49	C	0.194779	0.773695	-0.076046
C50	C	0.134427	0.773691	-0.076047
C51	C	0.070662	0.780209	0.000509
C52	C	0.286980	0.825922	-0.045167
C53	C	0.347343	0.825914	-0.045177
C54	C	0.347351	0.734507	0.046160
C55	C	0.286995	0.734510	0.046162
C56	C	0.256810	0.780222	0.000500
C57	C	0.631019	0.546195	0.000352
C58	C	0.631019	0.466773	0.000303
C59	C	0.704937	0.085260	-0.045074
C60	C	0.557102	0.176659	0.046374
C61	C	0.557101	0.251281	0.046299
C62	C	0.631019	0.242895	0.000536
C63	C	0.704938	0.159887	-0.045152
C64	C	0.483183	0.334294	0.091978
C65	C	0.483179	0.408923	0.091904
C66	C	0.557097	0.400537	0.046146
C67	C	0.631020	0.317523	0.000457
C68	C	0.704938	0.309137	-0.045306
C69	C	0.778861	0.226123	-0.090990
C70	C	0.778857	0.151502	-0.090911
C71	C	0.557101	0.475159	0.046066
C72	C	0.704939	0.383765	-0.045385
C73	C	0.820282	0.780204	0.000501
C74	C	0.884516	0.780203	0.000503
C75	C	0.631019	0.780219	-0.233518
C76	C	0.631019	0.780223	-0.312940
C77	C	0.631019	1.014224	0.000640
C78	C	0.631019	1.093646	0.000689
C79	C	0.557101	0.825896	-0.603032
C80	C	0.704936	0.734501	-0.694475
C81	C	0.704938	0.734507	-0.619854
C82	C	0.631020	0.780207	-0.536818
C83	C	0.557100	0.825901	-0.528403
C84	C	0.778855	0.688806	-0.628263
C85	C	0.778859	0.688809	-0.553640
C86	C	0.704941	0.734515	-0.470602
C87	C	0.631019	0.780212	-0.462189
C88	C	0.557101	0.825912	-0.379153
C89	C	0.483178	0.871615	-0.370739
C90	C	0.483182	0.871607	-0.445365
C91	C	0.704937	0.734523	-0.395976
C92	C	0.557100	0.825917	-0.304524
C93	C	0.631019	0.780199	0.234510
C94	C	0.631019	0.780196	0.313932
C95	C	0.441756	1.014228	0.000635
C96	C	0.377522	1.093652	0.000683
C97	C	0.441756	0.780204	0.234505
C98	C	0.377522	0.780202	0.313926
C99	C	0.441756	1.014218	0.234649
C100	C	0.377522	1.093639	0.314119
C101	C	0.820282	0.546200	-0.233657
C102	C	0.884516	0.466780	-0.313126
C103	C	0.820282	0.546190	0.000357
C104	C	0.884516	0.466766	0.000310
C105	C	0.820282	0.780215	-0.233513
C106	C	0.884516	0.780216	-0.312933
C107	C	0.347357	1.085257	-0.045027
C108	C	0.287010	1.159877	-0.045000
C109	C	0.256826	1.242892	0.000742
C110	C	0.286997	1.251286	0.046453
C111	C	0.347346	1.176666	0.046421
C112	C	0.347357	0.825895	0.396954
C113	C	0.287011	0.825890	0.471586
C114	C	0.256827	0.780197	0.463186
C115	C	0.286998	0.734498	0.380149
C116	C	0.347347	0.734498	0.305520
C117	C	0.347357	1.176641	0.305771
C118	C	0.287011	1.251272	0.380433
C119	C	0.256826	1.242899	0.463443
C120	C	0.286997	1.159888	0.471790
C121	C	0.347347	1.085259	0.397128
C122	C	0.914688	0.383777	-0.304778
C123	C	0.975054	0.309146	-0.379441
C124	C	1.005241	0.317519	-0.462451
C125	C	0.975066	0.400531	-0.470797
C126	C	0.914706	0.475160	-0.396135
C127	C	0.914688	0.475162	0.046012
C128	C	0.975051	0.400542	0.045964
C129	C	1.005237	0.317527	0.000220
C130	C	0.975064	0.309133	-0.045488
C131	C	0.914706	0.383752	-0.045445
C132	C	0.914681	0.825919	-0.304506
C133	C	0.975028	0.825938	-0.379123
C134	C	1.005212	0.780248	-0.462166
C135	C	0.975041	0.734544	-0.470592
C136	C	0.914691	0.734531	-0.395976
H137	H	-0.000399	0.863127	-0.082346
H138	H	0.890114	0.542750	0.083268
H139	H	0.496906	0.863135	-0.236916
H140	H	0.262413	0.697295	0.373323
H141	H	1.054353	0.780266	-0.522916
H142	H	0.496915	0.863109	-0.596185
H143	H	0.371924	1.183476	0.238186
C144	C	-0.118504	0.684238	0.096426
N145	N	-0.143524	0.646400	0.134295
C146	C	0.380513	0.684240	0.214190
N147	N	0.405490	0.646384	0.145401
C148	C	0.860159	0.638537	-0.719603
N149	N	0.921400	0.600675	-0.788406
H150	H	0.371927	0.863105	0.403810
C151	C	1.008274	0.409727	-0.562117
N152	N	1.033282	0.416650	-0.630901
C153	C	1.008233	0.217842	-0.370240
N154	N	1.033223	0.149074	-0.363308
H155	H	1.054390	0.256744	-0.523238
C156	C	0.253779	1.342610	0.096773
N157	N	0.228753	1.411399	0.134680
C158	C	0.860176	0.638545	-0.562903
N159	N	0.921424	0.600689	-0.569880
H160	H	0.422997	0.908816	-0.438523
H161	H	0.890114	0.863124	-0.236895
H162	H	0.422986	0.476509	0.129102
C163	C	0.401870	0.921969	-0.279391
N164	N	0.340632	0.959928	-0.210586
H165	H	0.262451	1.318857	0.373622
H166	H	-0.109894	0.863128	-0.082339
H167	H	0.999627	0.697345	-0.538215
C168	C	1.008224	0.409795	0.096256
N169	N	1.033207	0.416767	0.134138
H170	H	0.262405	0.863141	-0.082351
C171	C	0.786256	0.374529	-0.095730
N172	N	0.847505	0.367572	-0.133653
C173	C	1.008208	0.876212	-0.369835
N174	N	1.033199	0.914079	-0.362837
H175	H	0.890137	0.697311	-0.402849
H176	H	0.839044	0.219305	-0.128255
H177	H	0.262453	0.863107	0.539191
C178	C	0.380523	0.876196	-0.095410
N179	N	0.405513	0.914071	-0.133244
C180	C	0.786247	0.684252	-0.405232
N181	N	0.847494	0.646388	-0.412207
C182	C	0.253826	1.150624	-0.095279
N183	N	0.228832	1.143652	-0.133146
H184	H	0.207686	1.303674	0.524231
C185	C	1.071630	0.235451	0.000186
N186	N	1.121634	0.173635	0.000166
C187	C	0.138192	0.766497	-0.160256
N188	N	0.141032	0.761070	-0.223686
C189	C	1.008266	0.217808	-0.095790
N190	N	1.033270	0.149020	-0.133668
H191	H	0.246707	0.768376	-0.138380
C192	C	0.190434	1.324967	0.000776
N193	N	0.140424	1.386783	0.000802
H194	H	0.371929	0.697295	0.083339
H195	H	0.890142	0.376904	-0.082658
H196	H	0.890113	0.376943	-0.237194
H197	H	0.262432	0.697295	0.083347
C198	C	0.380513	1.185916	0.096718
N199	N	0.405491	1.192890	0.134605
H200	H	0.839041	0.083908	-0.128104
C201	C	0.123832	0.793927	0.161262
N202	N	0.120995	0.799337	0.224691
H203	H	0.015324	0.792048	0.139388
H204	H	-0.000367	0.697286	0.083346
C205	C	0.253779	1.150692	0.563109
N206	N	0.228753	1.143768	0.631893
C207	C	0.380520	0.993957	0.406326
N208	N	0.405504	0.925190	0.413260
C209	C	0.786248	-0.006053	-0.095329
N210	N	0.847493	-0.074831	-0.133183
H211	H	0.890140	0.542742	-0.402943
H212	H	0.496921	0.183481	0.083628
C213	C	0.190433	0.780214	0.545290
N214	N	0.140421	0.780235	0.607134
H215	H	0.423003	0.341114	0.129236
H216	H	0.496915	0.542744	0.083270
H217	H	0.765117	0.697290	-0.762085
H218	H	0.371932	1.017668	-0.082286
