data_functionalizedCrystal
_audit_creation_method	'MofGen! by Chris Wilmer'
_symmetry_space_group_name_H-M	'P1'
_symmetry_Int_Tables_number	1
_symmetry_cell_setting	triclinic
loop_
_symmetry_equiv_pos_as_xyz
  x,y,z
_cell_length_a	17.000383
_cell_length_b	17.019294
_cell_length_c	12.503552
_cell_angle_alpha	89.645537
_cell_angle_beta	86.753934
_cell_angle_gamma	79.506204
loop_
_atom_site_label
_atom_site_type_symbol
_atom_site_fract_x
_atom_site_fract_y
_atom_site_fract_z
O1	O	1.060784	0.023435	-0.091562
O2	O	0.829154	0.051922	-0.094182
O3	O	0.950888	-0.077023	-0.082258
O4	O	0.939050	0.152380	-0.103486
O5	O	0.941722	-0.067316	0.095487
O6	O	0.819989	0.061628	0.083563
O7	O	1.051618	0.033142	0.086183
Cu8	Cu	0.934967	0.048271	0.101102
Cu9	Cu	0.945806	0.036793	-0.109102
O10	O	0.929885	0.162086	0.074259
C11	C	0.794923	0.058305	-0.005450
C12	C	0.706581	0.062855	-0.005865
C13	C	0.206473	0.092228	-0.008623
C14	C	0.289480	0.087947	-0.008226
C15	C	0.340205	0.013647	-0.001342
C16	C	0.307919	-0.056378	0.005134
C17	C	0.224914	-0.052097	0.004729
C18	C	0.591290	-0.002889	0.000207
C19	C	0.674300	-0.007164	0.000614
C20	C	0.655855	0.137161	-0.012748
C21	C	0.572849	0.141436	-0.013145
C22	C	0.540571	0.071411	-0.006675
C23	C	0.425052	0.009270	-0.000933
C24	C	0.455725	0.075788	-0.007092
C25	C	0.945675	-0.101377	0.009315
C26	C	0.943790	-0.188406	0.017361
C27	C	0.947902	-0.234579	-0.075746
C28	C	0.946125	-0.316351	-0.068182
C29	C	0.940242	-0.351949	0.032490
C30	C	0.936127	-0.305770	0.125605
C31	C	0.937898	-0.223998	0.118040
C32	C	0.934639	-0.598580	0.060179
C33	C	0.932871	-0.680358	0.067738
C34	C	0.942868	-0.690933	-0.126051
C35	C	0.944643	-0.609160	-0.133607
C36	C	0.940524	-0.562987	-0.040492
C37	C	0.938428	-0.435533	0.040225
C38	C	0.942332	-0.479404	-0.048228
C39	C	1.085849	0.026758	-0.002552
C40	C	1.174192	0.022209	-0.002144
C41	C	0.935097	0.186441	-0.017316
C42	C	0.936983	0.273469	-0.025370
N43	N	0.927348	0.056344	0.248949
N44	N	0.953430	0.028713	-0.256947
C45	C	0.964633	0.016836	0.525035
C46	C	0.916149	0.068218	0.466959
C47	C	0.922382	0.061610	0.345647
C48	C	0.958401	0.023444	0.646359
H49	H	0.715600	-0.067672	0.006214
H50	H	0.931332	-0.334759	0.207575
H51	H	1.010820	-0.032113	0.483651
H52	H	0.931301	-0.560999	0.136000
Br53	Br	0.932313	-0.161333	0.244405
H54	H	0.165177	0.152732	-0.014220
Br55	Br	0.699666	0.232189	-0.021535
Br56	Br	0.839164	0.149811	0.535940
Br57	Br	0.930436	-0.483851	0.176849
H58	H	0.531553	0.201939	-0.018753
Br59	Br	0.333287	0.182978	-0.017029
Br60	Br	0.547496	-0.097925	0.008956
Br61	Br	0.376760	-0.157216	0.014469
H62	H	0.198633	-0.109114	0.010003
H63	H	0.414422	0.136283	-0.012701
H64	H	0.952697	-0.205602	-0.157725
Br65	Br	0.952633	-0.560855	-0.270239
Br66	Br	0.951705	-0.379011	-0.194549
H67	H	0.466361	-0.051225	0.004675
H68	H	0.946220	-0.728535	-0.201859
Br69	Br	0.924894	-0.728671	0.204374
H70	H	0.947117	-0.450415	-0.130195
