data_functionalizedCrystal
_audit_creation_method	'MofGen! by Chris Wilmer'
_symmetry_space_group_name_H-M	'P1'
_symmetry_Int_Tables_number	1
_symmetry_cell_setting	triclinic
loop_
_symmetry_equiv_pos_as_xyz
  x,y,z
_cell_length_a	10.654545
_cell_length_b	9.730223
_cell_length_c	10.654550
_cell_angle_alpha	90.004253
_cell_angle_beta	95.515995
_cell_angle_gamma	89.997167
loop_
_atom_site_label
_atom_site_type_symbol
_atom_site_fract_x
_atom_site_fract_y
_atom_site_fract_z
O1	O	1.667842	-0.114276	-0.176372
O2	O	2.167842	0.385724	0.323628
O3	O	1.302363	-0.114282	-0.193184
O4	O	1.802363	0.385718	0.306816
O5	O	1.493506	-0.114270	-0.002038
O6	O	1.993506	0.385730	0.497962
O7	O	1.476700	-0.114287	-0.367517
O8	O	1.976700	0.385713	0.132483
O9	O	1.493493	0.114310	-0.002033
O10	O	1.993493	0.614310	0.497967
O11	O	1.302351	0.114298	-0.193178
O12	O	1.802351	0.614298	0.306822
O13	O	1.667830	0.114304	-0.176366
O14	O	2.167830	0.614304	0.323634
Zn15	Zn	1.485088	0.150593	-0.184771
Zn16	Zn	1.985088	0.650593	0.315229
Zn17	Zn	1.485105	-0.150571	-0.184778
Zn18	Zn	1.985105	0.349429	0.315222
O19	O	1.476687	0.114292	-0.367512
O20	O	1.976687	0.614292	0.132488
C21	C	1.255559	0.000008	-0.191948
C22	C	1.755559	0.500008	0.308052
C23	C	1.116115	0.000006	-0.188258
C24	C	1.616115	0.500006	0.311742
C25	C	1.050604	0.124606	-0.186518
C26	C	1.550604	0.624606	0.313482
C27	C	0.919585	0.124606	-0.183031
C28	C	1.419585	0.624606	0.316969
C29	C	0.919599	-0.124605	-0.183028
C30	C	1.419599	0.375395	0.316972
C31	C	1.050617	-0.124603	-0.186507
C32	C	1.550617	0.375397	0.313493
C33	C	1.492266	0.000019	0.044762
C34	C	1.992266	0.500019	0.544762
C35	C	1.488574	0.000017	0.184206
C36	C	1.988574	0.500017	0.684206
C37	C	1.714634	0.000012	-0.177602
C38	C	2.214634	0.500012	0.322398
C39	C	1.854078	0.000005	-0.181292
C40	C	2.354078	0.500005	0.318708
N41	N	1.485086	0.356130	-0.184766
N42	N	1.985086	0.856130	0.315234
N43	N	1.485117	-0.356107	-0.184774
N44	N	1.985117	0.143893	0.315226
C45	C	1.569753	0.428061	-0.100163
C46	C	2.069753	0.928061	0.399837
C47	C	1.569766	0.571944	-0.100163
C48	C	2.069766	1.071944	0.399837
C49	C	1.400440	0.571952	-0.269381
C50	C	1.900440	1.071952	0.230619
C51	C	1.400423	0.428071	-0.269374
C52	C	1.900423	0.928071	0.230626
C53	C	1.477927	0.000000	-0.414312
C54	C	1.977927	0.500000	0.085688
C55	C	1.481619	-0.000007	-0.553755
C56	C	1.981619	0.499993	-0.053755
C57	C	1.601115	0.000018	0.263693
C58	C	2.101115	0.500018	0.763693
C59	C	1.597639	0.000002	0.394714
C60	C	2.097639	0.500002	0.894714
C61	C	1.369069	-0.000012	0.366747
C62	C	1.869069	0.499988	0.866747
C63	C	1.372547	-0.000005	0.235729
C64	C	1.872547	0.499995	0.735729
H65	H	1.103958	-0.226074	-0.187920
H66	H	1.603958	0.273926	0.312080
H67	H	1.331471	0.369501	-0.338268
H68	H	1.831471	0.869501	0.161732
H69	H	1.638690	0.369489	-0.031268
H70	H	2.138690	0.869489	0.468732
H71	H	1.695592	0.000033	0.221748
H72	H	2.195592	0.500033	0.721748
H73	H	1.689282	-0.000000	0.459428
H74	H	2.189282	0.500000	0.959428
H75	H	1.280896	-0.000010	0.171006
H76	H	1.780896	0.499990	0.671006
H77	H	1.103929	0.226070	-0.187944
H78	H	1.603929	0.726070	0.312056
H79	H	0.866251	0.226067	-0.181614
H80	H	1.366251	0.726067	0.318386
H81	H	0.866254	-0.226057	-0.181603
H82	H	1.366254	0.273943	0.318397
H83	H	1.274604	-0.000027	0.408713
H84	H	1.774604	0.499973	0.908713
H85	H	1.331511	0.630541	-0.338269
H86	H	1.831511	1.130541	0.161731
H87	H	1.638708	0.630506	-0.031270
H88	H	2.138708	1.130506	0.468730
