data_functionalizedCrystal
_audit_creation_method	'MofGen! by Chris Wilmer'
_symmetry_space_group_name_H-M	'P1'
_symmetry_Int_Tables_number	1
_symmetry_cell_setting	triclinic
loop_
_symmetry_equiv_pos_as_xyz
  x,y,z
_cell_length_a	12.759395
_cell_length_b	25.639240
_cell_length_c	12.759387
_cell_angle_alpha	90.043601
_cell_angle_beta	90.020509
_cell_angle_gamma	90.034295
loop_
_atom_site_label
_atom_site_type_symbol
_atom_site_fract_x
_atom_site_fract_y
_atom_site_fract_z
Zn1	Zn	1.606137	-0.208102	0.593912
Zn2	Zn	1.605972	-0.295548	0.418193
Zn3	Zn	1.430435	-0.208130	0.418248
Zn4	Zn	1.430372	-0.295510	0.593832
O5	O	1.518229	-0.251823	0.506046
O6	O	1.753136	-0.219705	0.570612
O7	O	1.582644	-0.283979	0.271179
O8	O	1.453838	-0.134961	0.441607
O9	O	1.753015	-0.283951	0.441512
O10	O	1.582925	-0.134940	0.570666
O11	O	1.453678	-0.219754	0.271220
O12	O	1.283406	-0.219718	0.441530
O13	O	1.453730	-0.283888	0.740864
O14	O	1.283359	-0.283916	0.570530
O15	O	1.582864	-0.219669	0.740922
O16	O	1.582583	-0.368708	0.441435
O17	O	1.453570	-0.368681	0.570476
C18	C	1.245262	-0.251816	0.506028
C19	C	1.128485	-0.251826	0.506045
C20	C	1.128475	-0.318783	0.640156
C21	C	1.073609	-0.352266	0.707214
C22	C	0.963888	-0.352272	0.707227
C23	C	0.909029	-0.318791	0.640177
C24	C	0.963895	-0.285309	0.573118
C25	C	1.073619	-0.285307	0.573111
C26	C	0.963905	-0.218349	0.439015
C27	C	1.073626	-0.218345	0.438995
C28	C	0.909046	-0.184868	0.371964
C29	C	0.963912	-0.151387	0.304899
C30	C	1.073640	-0.151383	0.304888
C31	C	1.128492	-0.184862	0.371936
C32	C	1.518081	-0.387665	0.505964
C33	C	1.518113	-0.445779	0.505964
C34	C	1.585478	-0.806093	0.573368
C35	C	1.585509	-0.860697	0.573390
O36	O	1.642609	-0.888892	0.630615
N37	N	1.518375	-0.888062	0.506148
C38	C	1.451197	-0.860819	0.438887
O39	O	1.394097	-0.889108	0.381696
C40	C	1.451162	-0.806216	0.438872
C41	C	1.518308	-0.778854	0.506111
C42	C	1.652618	-0.778731	0.640603
C43	C	1.652588	-0.724131	0.640580
C44	C	1.585418	-0.696892	0.573322
C45	C	1.518278	-0.724253	0.506088
C46	C	1.383980	-0.778974	0.371618
C47	C	1.383950	-0.724367	0.371609
C48	C	1.451096	-0.697005	0.438848
C49	C	1.451079	-0.642414	0.438808
N50	N	1.518213	-0.615050	0.506050
C51	C	1.585383	-0.642288	0.573307
C52	C	1.451276	-0.975489	0.438926
C53	C	1.451316	-1.030092	0.438935
C54	C	1.585626	-1.029966	0.573439
C55	C	1.585591	-0.975363	0.573424
C56	C	1.518410	-0.948125	0.506168
C57	C	1.585316	-0.527623	0.573253
C58	C	1.585283	-0.473018	0.573221
C59	C	1.450969	-0.473148	0.438722
C60	C	1.451005	-0.527749	0.438749
C61	C	1.518182	-0.554985	0.506024
O62	O	1.394005	-0.614185	0.381615
O63	O	1.642464	-0.613992	0.630499
C64	C	1.792262	-0.251829	0.506065
C65	C	1.909039	-0.251832	0.506073
C66	C	1.518308	-0.251771	0.780080
C67	C	1.518342	-0.251749	0.896857
C68	C	1.518407	-0.115449	0.506152
C69	C	1.518482	-0.057335	0.506197
C70	C	1.518210	-0.251836	0.233079
C71	C	1.518380	-0.251710	0.116303
C72	C	1.652818	-0.184883	0.896937
C73	C	1.720071	-0.151442	0.951839
C74	C	1.720096	-0.151423	1.061560
C75	C	1.652860	-0.184847	1.116383
C76	C	1.585607	-0.218288	1.061482
C77	C	1.585591	-0.218305	0.951758
C78	C	1.451128	-0.285151	1.061401
C79	C	1.451106	-0.285174	0.951680
C80	C	1.383891	-0.318576	1.116224
C81	C	1.316642	-0.352021	1.061323
C82	C	1.316620	-0.352039	0.951595
C83	C	1.383853	-0.318615	0.896778
H84	H	1.118287	-0.379525	0.761807
O85	O	1.318593	-0.805518	0.306418
C86	C	1.213874	-0.792190	0.329289
H87	H	1.208540	-0.777149	0.413217
H88	H	1.161974	-0.828119	0.320204
H89	H	1.186428	-0.760525	0.272942
O90	O	1.650626	-0.554131	0.638456
C91	C	1.718559	-0.585704	0.578720
H92	H	1.681550	-0.593948	0.499075
H93	H	1.732654	-0.624069	0.621554
H94	H	1.796403	-0.564625	0.567226
O95	O	1.385681	-0.446764	0.373300
C96	C	1.326396	-0.482619	0.313978
H97	H	1.369451	-0.521525	0.310368
H98	H	1.315203	-0.466878	0.231193
H99	H	1.246595	-0.488445	0.352400
H100	H	1.652814	-0.184900	0.807596
H101	H	1.261843	-0.379265	0.906901
H102	H	1.383913	-0.318556	1.205566
O103	O	0.802463	-0.184791	0.371875
C104	C	0.765813	-0.148071	0.298298
H105	H	0.829068	-0.117511	0.283709
H106	H	0.692441	-0.128256	0.330087
H107	H	0.746293	-0.168754	0.221605
O108	O	0.910748	-0.384843	0.772406
C109	C	0.982688	-0.414380	0.831610
H110	H	1.060882	-0.416166	0.788565
H111	H	0.950941	-0.455581	0.842661
H112	H	0.994415	-0.395279	0.911475
H113	H	1.396572	-0.953315	0.384149
H114	H	1.383846	-0.318629	0.807437
O115	O	1.251434	-0.384468	1.114739
C116	C	1.265851	-0.377267	1.223353
H117	H	1.346958	-0.360145	1.238365
H118	H	1.258676	-0.416421	1.265027
H119	H	1.203579	-0.349414	1.254497
H120	H	1.217833	-0.184863	0.371931
O121	O	1.318578	-0.697885	0.306424
C122	C	1.250690	-0.666291	0.366167
H123	H	1.244172	-0.682709	0.448916
H124	H	1.169854	-0.665727	0.328101
H125	H	1.283147	-0.624892	0.369794
O126	O	0.910740	-0.118893	0.239627
C127	C	0.937461	-0.130262	0.134863
H128	H	1.017103	-0.150358	0.132588
H129	H	0.941230	-0.092499	0.087904
H130	H	0.875659	-0.157123	0.099381
O131	O	1.235058	-0.318687	0.640144
C132	C	1.271794	-0.268599	0.667355
H133	H	1.208593	-0.238470	0.649541
H134	H	1.345187	-0.259276	0.619995
H135	H	1.291306	-0.267549	0.754531
H136	H	1.640318	-1.052154	0.628206
H137	H	1.396338	-0.550028	0.383989
H138	H	1.118305	-0.124113	0.250288
H139	H	1.639965	-0.450742	0.627975
O140	O	0.802447	-0.318878	0.640291
C141	C	0.765784	-0.355597	0.713880
H142	H	0.828989	-0.386152	0.728464
H143	H	0.692343	-0.375420	0.682106
H144	H	0.746374	-0.334913	0.790573
H145	H	1.707261	-0.701856	0.695334
H146	H	1.707316	-0.800903	0.695378
H147	H	1.640267	-0.953088	0.628176
O148	O	1.785354	-0.119027	0.898421
C149	C	1.770901	-0.126204	0.789804
H150	H	1.736420	-0.166552	0.774779
H151	H	1.849596	-0.122675	0.748123
H152	H	1.715000	-0.095190	0.758681
O153	O	1.385999	-1.056587	0.373577
C154	C	1.326733	-1.020829	0.314195
H155	H	1.323058	-0.981889	0.357215
H156	H	1.243967	-1.036643	0.302917
H157	H	1.365247	-1.015042	0.234435
O158	O	1.785372	-0.118866	1.114781
C159	C	1.762467	-0.066757	1.088038
H160	H	1.722069	-0.065680	1.008366
H161	H	1.838325	-0.043319	1.084324
H162	H	1.708487	-0.049136	1.149799
O163	O	1.652883	-0.184922	1.222966
C164	C	1.679825	-0.235022	1.259592
H165	H	1.661822	-0.265150	1.196336
H166	H	1.632436	-0.244299	1.332982
H167	H	1.767001	-0.236131	1.279076
