data_functionalizedCrystal
_audit_creation_method	'MofGen! by Chris Wilmer'
_symmetry_space_group_name_H-M	'P1'
_symmetry_Int_Tables_number	1
_symmetry_cell_setting	triclinic
loop_
_symmetry_equiv_pos_as_xyz
  x,y,z
_cell_length_a	6.817900
_cell_length_b	12.908942
_cell_length_c	11.102193
_cell_angle_alpha	94.413094
_cell_angle_beta	108.604059
_cell_angle_gamma	100.860556
loop_
_atom_site_label
_atom_site_type_symbol
_atom_site_fract_x
_atom_site_fract_y
_atom_site_fract_z
V1	V	-4.071822	-0.145860	-0.395550
O2	O	-4.072453	0.007001	-0.388748
O3	O	-4.009589	-0.289208	-0.392145
O4	O	-4.049205	-0.143620	-0.568383
O5	O	-4.032562	-0.139595	-0.211291
V6	V	-4.553901	-0.127576	-0.373596
O7	O	-4.336247	-0.185968	-0.443708
O8	O	-4.739673	-0.087467	-0.325439
O9	O	-4.392927	0.015773	-0.377001
O10	O	-4.670666	-0.280437	-0.380399
O11	O	-4.710557	-0.133841	-0.557856
O12	O	-4.353310	-0.129816	-0.200764
C13	C	-3.850390	-0.324154	-0.385725
C14	C	-3.880967	-0.441343	-0.384093
C15	C	-3.900924	-0.138439	-0.610532
C16	C	-3.963625	-0.137556	-0.751818
C17	C	-4.303577	-0.672296	-0.393684
C18	C	-4.332316	-0.782406	-0.392151
C19	C	-3.967190	-0.771676	-0.379503
C20	C	-3.938451	-0.661566	-0.381036
C21	C	-4.106652	-0.611880	-0.388125
C22	C	-4.077906	-0.501767	-0.389648
C23	C	-3.712787	-0.491040	-0.377010
C24	C	-3.741526	-0.601150	-0.375477
C25	C	-4.031410	-0.330638	-0.787210
C26	C	-4.094752	-0.426759	-0.871280
C27	C	-4.153665	-0.425924	-1.004029
C28	C	-4.149241	-0.328956	-1.052711
C29	C	-4.085899	-0.232835	-0.968641
C30	C	-4.026982	-0.233681	-0.835889
C31	C	-4.018129	-0.039756	-0.933251
C32	C	-3.959200	-0.040589	-0.800500
C33	C	-4.013704	0.057212	-0.981932
C34	C	-3.950347	0.153336	-0.897861
C35	C	-3.891429	0.152496	-0.765103
C36	C	-3.895858	0.055533	-0.716430
C37	C	-4.215466	0.050712	-0.383419
C38	C	-4.164129	0.167900	-0.385059
C39	C	-4.164933	-0.135000	-0.158609
C40	C	-4.081471	-0.135877	-0.017321
H41	H	-4.440524	-0.631838	-0.399436
C42	C	-3.945968	0.258516	-0.950907
C43	C	-4.150135	0.259647	-1.032185
C44	C	-4.146178	0.356516	-1.081093
H45	H	-3.899934	0.315734	-0.881965
H46	H	-3.850840	0.266231	-0.997918
H47	H	-4.245231	0.251943	-0.985176
H48	H	-4.196208	0.202450	-1.101148
H49	H	-4.051050	0.364231	-1.128104
H50	H	-4.100137	0.413726	-1.012143
H51	H	-4.284697	0.357292	-1.136254
H52	H	-3.830264	-0.812151	-0.373744
C53	C	-3.498976	-0.425289	-0.370773
C54	C	-3.418936	-0.347543	-0.261515
C55	C	-3.221992	-0.286946	-0.255726
H56	H	-3.402698	-0.470523	-0.366259
H57	H	-3.515965	-0.391671	-0.445474
H58	H	-3.401936	-0.381160	-0.186832
H59	H	-3.515155	-0.302286	-0.266004
H60	H	-3.238981	-0.253328	-0.330427
H61	H	-3.125733	-0.332188	-0.251215
H62	H	-3.167669	-0.234183	-0.181602
C63	C	-3.822622	0.256976	-0.674036
C64	C	-3.831317	0.342066	-0.745088
C65	C	-3.767923	0.438331	-0.661246
H66	H	-3.914945	0.257442	-0.625602
H67	H	-3.681367	0.264098	-0.617409
H68	H	-3.972550	0.334946	-0.801693
H69	H	-3.738991	0.341635	-0.793519
H70	H	-3.626668	0.445453	-0.604618
H71	H	-3.860253	0.438786	-0.612815
H72	H	-3.773795	0.496076	-0.709441
H73	H	-3.604591	-0.641620	-0.369710
H74	H	-4.197241	-0.328285	-1.160805
C75	C	-4.099681	-0.532128	-0.818635
C76	C	-4.306649	-0.595293	-0.867645
C77	C	-4.311137	-0.692381	-0.819225
H78	H	-4.006501	-0.568243	-0.843645
H79	H	-4.055541	-0.519020	-0.727525
H80	H	-4.350762	-0.608403	-0.958735
H81	H	-4.399866	-0.559211	-0.842638
H82	H	-4.266998	-0.679274	-0.728115
H83	H	-4.217949	-0.728486	-0.844238
H84	H	-4.451565	-0.735247	-0.852461
H85	H	-4.205246	-0.504194	-1.072481
C86	C	-4.545909	-0.848102	-0.397967
C87	C	-4.520150	-0.897437	-0.287689
C88	C	-4.716867	-0.957974	-0.293010
H89	H	-4.642122	-0.802852	-0.402345
H90	H	-4.600597	-0.900970	-0.472001
H91	H	-4.465492	-0.844576	-0.213675
H92	H	-4.423973	-0.942704	-0.283290
H93	H	-4.771555	-1.010842	-0.367044
H94	H	-4.813065	-0.912716	-0.297390
H95	H	-4.699413	-0.991463	-0.218195
H96	H	-3.983412	-0.331327	-0.679118
H97	H	-4.214861	-0.461313	-0.395411
H98	H	-4.061693	0.057885	-1.090026
H99	H	-3.847875	0.054840	-0.608339
