data_functionalizedCrystal
_audit_creation_method	'MofGen! by Chris Wilmer'
_symmetry_space_group_name_H-M	'P1'
_symmetry_Int_Tables_number	1
_symmetry_cell_setting	triclinic
loop_
_symmetry_equiv_pos_as_xyz
  x,y,z
_cell_length_a	10.723023
_cell_length_b	10.723023
_cell_length_c	9.798715
_cell_angle_alpha	90.002054
_cell_angle_beta	90.002993
_cell_angle_gamma	84.467548
loop_
_atom_site_label
_atom_site_type_symbol
_atom_site_fract_x
_atom_site_fract_y
_atom_site_fract_z
O1	O	1.657187	0.175020	0.113473
O2	O	1.294034	0.191775	0.113478
O3	O	1.483988	0.001821	0.113471
O4	O	1.467233	0.364974	0.113480
O5	O	1.483975	0.001820	-0.113511
O6	O	1.294021	0.191773	-0.113504
O7	O	1.657174	0.175019	-0.113509
Zn8	Zn	1.475595	0.183396	-0.149545
Zn9	Zn	1.475613	0.183398	0.149514
O10	O	1.467220	0.364972	-0.113502
C11	C	1.247528	0.190555	-0.000012
C12	C	1.108974	0.186908	-0.000010
C13	C	0.904013	0.181513	0.117573
C14	C	1.047216	0.185282	0.117574
C15	C	1.482762	-0.044679	-0.000018
C16	C	1.479115	-0.183233	-0.000013
C17	C	1.477482	-0.245012	-0.117594
C18	C	1.473712	-0.388215	-0.117592
C19	C	1.703680	0.176239	-0.000016
C20	C	1.842234	0.179886	-0.000009
C21	C	1.468446	0.411473	-0.000010
C22	C	1.472093	0.550027	-0.000006
N23	N	1.475592	0.183394	-0.353645
C24	C	1.555546	0.103465	-0.578580
C25	C	1.555529	0.103466	-0.421417
N26	N	1.475625	0.183390	0.353613
H27	H	1.100344	0.186689	0.218241
H28	H	1.055853	0.185516	-0.100682
O29	O	1.479338	-0.174655	-0.250949
H30	H	1.393779	-0.189184	-0.310323
H31	H	1.407161	0.251820	-0.411947
O32	O	1.384956	0.274016	-0.569166
H33	H	1.438060	0.335070	-0.504036
H34	H	1.623988	0.035040	-0.636876
O35	O	0.912583	0.181753	-0.133367
H36	H	0.982305	0.098417	-0.139216
O37	O	1.471870	-0.458575	-0.250947
H38	H	1.469215	-0.560012	-0.230018
H39	H	1.623948	0.035034	-0.363106
O40	O	1.473945	-0.379624	0.133356
H41	H	1.560416	-0.330705	0.139200
O42	O	0.833660	0.179666	0.250930
H43	H	0.732221	0.177005	0.230002
H44	H	1.477728	-0.236361	0.100654
