data_functionalizedCrystal
_audit_creation_method	'MofGen! by Chris Wilmer'
_symmetry_space_group_name_H-M	'P1'
_symmetry_Int_Tables_number	1
_symmetry_cell_setting	triclinic
loop_
_symmetry_equiv_pos_as_xyz
  x,y,z
_cell_length_a	15.625110
_cell_length_b	14.971486
_cell_length_c	14.048226
_cell_angle_alpha	90.007287
_cell_angle_beta	108.082246
_cell_angle_gamma	96.057235
loop_
_atom_site_label
_atom_site_type_symbol
_atom_site_fract_x
_atom_site_fract_y
_atom_site_fract_z
O1	O	1.196351	-0.116780	0.333875
O2	O	0.933886	-0.130692	0.243258
O3	O	1.072154	0.006463	0.291002
O4	O	1.058084	-0.253935	0.286131
O5	O	1.072151	0.006474	0.449322
O6	O	0.933883	-0.130681	0.401578
O7	O	1.196348	-0.116769	0.492195
Zn8	Zn	1.065115	-0.123723	0.472023
Zn9	Zn	1.065119	-0.123738	0.263429
O10	O	1.058081	-0.253924	0.444451
C11	C	0.900296	-0.130056	0.310821
C12	C	0.800212	-0.128168	0.276267
C13	C	1.071523	0.039793	0.369944
C14	C	1.069637	0.139090	0.369293
C15	C	0.659147	-0.125513	0.141270
C16	C	0.753192	-0.127287	0.173749
C17	C	0.753197	-0.127279	0.346346
C18	C	0.659150	-0.125509	0.313881
C19	C	0.612133	-0.124625	0.211342
C20	C	0.612135	-0.124621	0.383953
C21	C	0.518097	-0.122847	0.351491
C22	C	0.471073	-0.121960	0.248956
C23	C	0.518094	-0.122851	0.178880
C24	C	0.659155	-0.125499	0.486493
C25	C	0.612140	-0.124611	0.556565
C26	C	0.518099	-0.122843	0.524102
C27	C	0.471076	-0.121956	0.421568
C28	C	0.471079	-0.121952	0.594179
C29	C	0.377040	-0.120177	0.561717
C30	C	0.377038	-0.120181	0.389105
C31	C	1.229939	-0.117405	0.424629
C32	C	1.330023	-0.119294	0.459177
N33	N	1.065122	-0.123742	0.121070
C34	C	1.058712	-0.287254	0.365506
C35	C	1.060597	-0.386552	0.366152
C36	C	1.150866	0.196301	0.397338
C37	C	1.149088	0.289601	0.396714
C38	C	1.066082	0.325688	0.368053
C39	C	0.984848	0.268470	0.340003
C40	C	0.986626	0.175172	0.340619
C41	C	0.981148	0.462933	0.338722
C42	C	0.979369	0.556238	0.338107
C43	C	1.143610	0.577362	0.394817
C44	C	1.145388	0.484064	0.395433
C45	C	1.064153	0.426852	0.367385
C46	C	1.126461	-0.063129	0.092432
C47	C	1.126465	-0.063126	-0.007224
C48	C	1.065125	-0.123732	-0.078243
C49	C	1.003783	-0.184351	-0.049599
C50	C	1.003784	-0.184358	0.050057
C51	C	1.003783	-0.184332	-0.257313
C52	C	1.003780	-0.184325	-0.356977
C53	C	1.126464	-0.063101	-0.314595
C54	C	1.126465	-0.063107	-0.214938
C55	C	1.065122	-0.123725	-0.186302
N56	N	1.065119	-0.123712	0.614385
H57	H	0.338752	-0.119473	0.305607
Cl58	Cl	1.203573	0.013088	-0.125657
H59	H	0.791467	-0.128016	0.116679
H60	H	0.394501	-0.120516	0.222527
Cl61	Cl	0.926666	-0.260542	-0.221318
Cl62	Cl	0.530198	-0.123054	0.723081
Cl63	Cl	0.600031	-0.124416	0.012360
H64	H	0.791492	-0.127995	0.429834
Cl65	Cl	0.458978	-0.121754	0.049970
Cl66	Cl	0.926672	-0.260548	-0.138877
Cl67	Cl	0.777377	-0.127720	0.527303
H68	H	0.650435	-0.125327	0.640053
Cl69	Cl	0.317933	-0.119048	0.649809
H70	H	1.215233	0.336179	0.419554
H71	H	0.917263	0.297859	0.316660
Cl72	Cl	1.249740	0.438699	0.431461
H73	H	1.209755	0.623949	0.417652
H74	H	1.218459	0.166927	0.420683
H75	H	1.176412	-0.013744	-0.337915
H76	H	0.953837	-0.233716	0.073371
Cl77	Cl	0.884506	0.103249	0.305358
H78	H	1.176408	-0.013773	0.150250
Cl79	Cl	0.875017	0.601603	0.302075
H80	H	0.914997	0.416353	0.315879
Cl81	Cl	0.926665	-0.260521	-0.446251
Cl82	Cl	1.203579	0.013072	-0.043227
