data_functionalizedCrystal
_audit_creation_method	'MofGen! by Chris Wilmer'
_symmetry_space_group_name_H-M	'P1'
_symmetry_Int_Tables_number	1
_symmetry_cell_setting	triclinic
loop_
_symmetry_equiv_pos_as_xyz
  x,y,z
_cell_length_a	17.699083
_cell_length_b	19.288864
_cell_length_c	17.766277
_cell_angle_alpha	90.023209
_cell_angle_beta	89.992740
_cell_angle_gamma	96.790370
loop_
_atom_site_label
_atom_site_type_symbol
_atom_site_fract_x
_atom_site_fract_y
_atom_site_fract_z
O1	O	0.094417	-0.921465	-0.062837
O2	O	0.594417	-0.421465	0.437163
O3	O	0.107154	-0.719219	-0.062786
O4	O	0.607154	-0.219219	0.437214
O5	O	-0.009412	-0.826056	-0.062806
O6	O	0.490588	-0.326056	0.437194
O7	O	0.210983	-0.814628	-0.062817
O8	O	0.710983	-0.314628	0.437183
O9	O	-0.009417	-0.826037	0.062382
O10	O	0.490583	-0.326037	0.562382
O11	O	0.107148	-0.719201	0.062403
O12	O	0.607148	-0.219201	0.562403
O13	O	0.094411	-0.921446	0.062351
O14	O	0.594411	-0.421446	0.562351
Cu15	Cu	0.100779	-0.820322	0.073808
Cu16	Cu	0.600779	-0.320322	0.573808
Cu17	Cu	0.100786	-0.820344	-0.074242
Cu18	Cu	0.600786	-0.320344	0.425758
O19	O	0.210977	-0.814609	0.062372
O20	O	0.710977	-0.314609	0.562372
C21	C	0.106741	-0.693333	-0.000185
C22	C	0.606741	-0.193333	0.499815
C23	C	0.105511	-0.616228	-0.000165
C24	C	0.605511	-0.116228	0.499835
C25	C	-0.037611	-0.825637	-0.000212
C26	C	0.462389	-0.325637	0.499788
C27	C	-0.121627	-0.824409	-0.000211
C28	C	0.378373	-0.324409	0.499789
C29	C	0.094824	-0.947332	-0.000251
C30	C	0.594824	-0.447332	0.499749
C31	C	0.096054	-1.024437	-0.000276
C32	C	0.596054	-0.524437	0.499724
C33	C	-0.170336	-0.887120	-0.000226
C34	C	0.329664	-0.387120	0.499774
C35	C	-0.249278	-0.885961	-0.000232
C36	C	0.250722	-0.385961	0.499768
C37	C	-0.279509	-0.822091	-0.000219
C38	C	0.220491	-0.322091	0.499781
C39	C	-0.230794	-0.759375	-0.000206
C40	C	0.269206	-0.259375	0.499794
C41	C	-0.151854	-0.760535	-0.000205
C42	C	0.348146	-0.260535	0.499795
C43	C	-0.549150	-0.754699	-0.000211
C44	C	-0.049150	-0.254699	0.499789
C45	C	-0.628097	-0.753545	-0.000210
C46	C	-0.128097	-0.253545	0.499790
C47	C	-0.646575	-0.880126	-0.000238
C48	C	-0.146575	-0.380126	0.499762
C49	C	-0.567635	-0.881285	-0.000237
C50	C	-0.067635	-0.381285	0.499763
C51	C	-0.518926	-0.818570	-0.000229
C52	C	-0.018926	-0.318570	0.499771
C53	C	-0.433329	-0.819827	-0.000223
C54	C	0.066671	-0.319827	0.499777
C55	C	-0.365105	-0.820834	-0.000219
C56	C	0.134895	-0.320834	0.499781
C57	C	0.239176	-0.815028	-0.000224
C58	C	0.739176	-0.315028	0.499776
C59	C	0.323193	-0.816257	-0.000230
C60	C	0.823193	-0.316257	0.499770
N61	N	0.100774	-0.820311	0.177938
N62	N	0.600774	-0.320311	0.677938
C63	C	0.173906	-0.571613	-0.000180
C64	C	0.673906	-0.071613	0.499820
C65	C	0.172751	-0.499164	-0.000188
C66	C	0.672751	0.000836	0.499812
C67	C	0.103196	-0.471334	-0.000197
C68	C	0.603196	0.028666	0.499803
C69	C	0.034791	-0.515959	-0.000177
C70	C	0.534791	-0.015959	0.499823
C71	C	0.035949	-0.588406	-0.000162
C72	C	0.535949	-0.088406	0.499838
C73	C	0.048520	-0.363014	-0.044079
C74	C	0.548520	0.136986	0.455921
C75	C	0.047365	-0.290568	-0.044099
C76	C	0.547365	0.209432	0.455901
C77	C	0.099622	-0.247884	-0.000242
C78	C	0.599622	0.252116	0.499758
C79	C	0.153047	-0.277654	0.043625
C80	C	0.653047	0.222346	0.543625
C81	C	0.154204	-0.350101	0.043641
C82	C	0.654204	0.149899	0.543641
C83	C	0.101932	-0.392779	-0.000213
C84	C	0.601932	0.107221	0.499787
C85	C	0.166769	-0.124712	-0.000265
C86	C	0.666769	0.375288	0.499735
C87	C	0.165610	-0.052262	-0.000269
C88	C	0.665610	0.447738	0.499731
C89	C	0.027649	-0.069059	-0.000265
C90	C	0.527649	0.430941	0.499735
C91	C	0.028809	-0.141507	-0.000254
C92	C	0.528809	0.358493	0.499746
C93	C	0.098371	-0.169329	-0.000258
C94	C	0.598371	0.330671	0.499742
N95	N	0.100786	-0.820360	-0.178372
N96	N	0.600786	-0.320360	0.321628
C97	C	0.049184	-0.867634	0.217316
C98	C	0.549184	-0.367634	0.717316
C99	C	0.049180	-0.867638	0.296118
C100	C	0.549180	-0.367638	0.796118
C101	C	0.100780	-0.820326	0.335539
C102	C	0.600780	-0.320326	0.835539
C103	C	0.152374	-0.772994	0.296151
C104	C	0.652374	-0.272994	0.796151
C105	C	0.152371	-0.772987	0.217351
C106	C	0.652371	-0.272987	0.717351
C107	C	0.169742	-0.811109	0.460375
C108	C	0.669742	-0.311109	0.960375
C109	C	0.169746	-0.811121	0.539174
C110	C	0.669746	-0.311121	1.039174
C111	C	0.100789	-0.820344	0.578585
C112	C	0.600789	-0.320344	1.078585
C113	C	0.031825	-0.829570	0.539188
C114	C	0.531825	-0.329570	1.039188
C115	C	0.031822	-0.829563	0.460388
C116	C	0.531822	-0.329563	0.960388
C117	C	0.100789	-0.820328	0.420984
C118	C	0.600789	-0.320328	0.920984
C119	C	0.049191	-0.867674	0.703409
C120	C	0.549191	-0.367674	1.203409
C121	C	0.049186	-0.867673	0.782212
C122	C	0.549186	-0.367673	1.282212
C123	C	0.152386	-0.773033	0.782244
C124	C	0.652386	-0.273033	1.282244
C125	C	0.152384	-0.773030	0.703442
C126	C	0.652384	-0.273030	1.203442
C127	C	0.100787	-0.820355	0.664029
C128	C	0.600787	-0.320355	1.164029
H129	H	-0.145729	-0.939130	-0.000233
H130	H	0.354271	-0.439130	0.499767
H131	H	-0.288934	-0.937027	-0.000243
H132	H	0.211066	-0.437027	0.499757
H133	H	-0.543025	-0.933295	-0.000245
H134	H	-0.043025	-0.433295	0.499755
N135	N	0.244123	-0.801161	0.417873
N136	N	0.744123	-0.301161	0.917873
H137	H	0.275566	-0.839720	0.431560
H138	H	0.775566	-0.339720	0.931560
H139	H	0.233593	-0.802537	0.361990
H140	H	0.733593	-0.302537	0.861990
N141	N	-0.006467	-0.918671	0.174806
N142	N	0.493533	-0.418671	0.674806
H143	H	-0.039151	-0.948650	0.211715
H144	H	0.460849	-0.448650	0.711715
H145	H	-0.039857	-0.892137	0.142134
H146	H	0.460143	-0.392137	0.642134
N147	N	0.208036	-0.722000	0.660960
N148	N	0.708036	-0.222000	1.160960
H149	H	0.179196	-0.691296	0.628287
H150	H	0.679196	-0.191296	1.128287
H151	H	0.240714	-0.692074	0.697931
H152	H	0.740714	-0.192074	1.197931
N153	N	-0.044965	-0.189627	-0.000241
N154	N	0.455035	0.310373	0.499759
H155	H	-0.075321	-0.180716	-0.046650
H156	H	0.424679	0.319284	0.453350
H157	H	-0.033619	-0.239725	-0.000200
H158	H	0.466381	0.260275	0.499800
H159	H	0.230549	-0.594260	-0.000184
H160	H	0.730549	-0.094260	0.499816
H161	H	-0.024330	-0.837073	0.428314
H162	H	0.475670	-0.337073	0.928314
H163	H	0.007175	-0.906206	0.671318
H164	H	0.507175	-0.406206	1.171318
H165	H	-0.652707	-0.701531	-0.000197
H166	H	-0.152707	-0.201531	0.499803
N167	N	-0.007845	-0.409049	-0.091387
N168	N	0.492155	0.090951	0.408613
H169	H	-0.039874	-0.443045	-0.057784
H170	H	0.460126	0.056955	0.442216
H171	H	-0.041807	-0.379149	-0.119176
H172	H	0.458193	0.120851	0.380824
H173	H	0.194386	-0.734471	0.328252
H174	H	0.694386	-0.234471	0.828252
H175	H	-0.028984	-0.046401	-0.000319
H176	H	0.471016	0.453599	0.499681
N177	N	-0.496621	-0.687060	-0.000198
N178	N	0.003379	-0.187060	0.499802
H179	H	-0.527753	-0.646425	-0.000186
H180	H	-0.027753	-0.146425	0.499814
H181	H	-0.463470	-0.684775	0.046211
H182	H	0.036530	-0.184775	0.546211
H183	H	-0.112195	-0.709469	-0.000193
H184	H	0.387805	-0.209469	0.499807
N185	N	-0.010252	-0.258462	-0.091412
N186	N	0.489748	0.241538	0.408588
H187	H	-0.043188	-0.296494	-0.119185
H188	H	0.456812	0.203506	0.380815
H189	H	-0.043183	-0.232334	-0.057772
H190	H	0.456817	0.267666	0.442228
H191	H	0.007168	-0.906175	0.328185
H192	H	0.507168	-0.406175	0.828185
N193	N	0.241793	-0.154724	-0.000254
N194	N	0.741793	0.345276	0.499746
H195	H	0.232149	-0.207389	-0.000247
H196	H	0.732149	0.292611	0.499753
H197	H	0.271716	-0.138416	-0.046665
H198	H	0.771716	0.361584	0.453335
H199	H	0.221308	-0.015936	-0.000277
H200	H	0.721308	0.484064	0.499723
N201	N	0.246522	-0.451031	-0.000206
N202	N	0.746522	0.048969	0.499794
H203	H	0.290764	-0.479649	-0.000206
H204	H	0.790764	0.020351	0.499794
H205	H	0.249039	-0.420636	-0.046624
H206	H	0.749039	0.079364	0.453376
N207	N	-0.040230	-0.485948	-0.000178
N208	N	0.459770	0.014052	0.499822
H209	H	-0.030586	-0.433283	-0.000191
H210	H	0.469414	0.066717	0.499809
H211	H	-0.070152	-0.502304	-0.046580
H212	H	0.429848	-0.002304	0.453420
N213	N	-0.042557	-0.839523	0.581683
N214	N	0.457443	-0.339523	1.081683
H215	H	-0.032094	-0.838125	0.637580
H216	H	0.467906	-0.338125	1.137580
H217	H	-0.073971	-0.800963	0.567931
H218	H	0.426029	-0.300963	1.067931
N219	N	-0.006447	-0.918728	0.824688
N220	N	0.493553	-0.418728	1.324688
H221	H	-0.039125	-0.948710	0.787760
H222	H	0.460875	-0.448710	1.287760
H223	H	0.022466	-0.949374	0.857354
H224	H	0.522466	-0.449374	1.357354
N225	N	-0.263396	-0.690485	-0.000196
N226	N	0.236604	-0.190485	0.499804
H227	H	-0.320795	-0.699266	-0.000196
H228	H	0.179205	-0.199266	0.499804
H229	H	-0.245565	-0.663042	0.046219
H230	H	0.254435	-0.163042	0.546219
N231	N	-0.699110	-0.947772	-0.000248
N232	N	-0.199110	-0.447772	0.499752
H233	H	-0.753707	-0.937350	-0.000248
H234	H	-0.253707	-0.437350	0.499752
H235	H	-0.689341	-0.975624	-0.046660
H236	H	-0.189341	-0.475624	0.453340
N237	N	0.211818	-0.382212	0.090954
N238	N	0.711818	0.117788	0.590954
H239	H	0.244750	-0.344184	0.118737
H240	H	0.744750	0.155816	0.618737
H241	H	0.184441	-0.415639	0.128422
H242	H	0.684441	0.084361	0.628422
N243	N	0.209419	-0.231627	0.090928
N244	N	0.709419	0.268373	0.590928
H245	H	0.200580	-0.181216	0.084267
H246	H	0.700580	0.318784	0.584267
H247	H	0.202545	-0.245125	0.145638
H248	H	0.702545	0.254875	0.645638
H249	H	-0.019749	-0.624733	-0.000150
H250	H	0.480251	-0.124733	0.499850
H251	H	0.194397	-0.734508	0.814340
H252	H	0.694397	-0.234508	1.314340
N253	N	0.244123	-0.801166	0.581663
N254	N	0.744123	-0.301166	1.081663
H255	H	0.287806	-0.795310	0.544741
H256	H	0.787806	-0.295310	1.044741
H257	H	0.245815	-0.758179	0.614379
H258	H	0.745815	-0.258179	1.114379
N259	N	0.208014	-0.721942	0.174873
N260	N	0.708014	-0.221942	0.674873
H261	H	0.240701	-0.691967	0.211801
H262	H	0.740701	-0.191967	0.711801
H263	H	0.241402	-0.748469	0.142159
H264	H	0.741402	-0.248469	0.642159
