data_functionalizedCrystal
_audit_creation_method	'MofGen! by Chris Wilmer'
_symmetry_space_group_name_H-M	'P1'
_symmetry_Int_Tables_number	1
_symmetry_cell_setting	triclinic
loop_
_symmetry_equiv_pos_as_xyz
  x,y,z
_cell_length_a	16.109301
_cell_length_b	13.596369
_cell_length_c	16.109301
_cell_angle_alpha	89.992589
_cell_angle_beta	96.538519
_cell_angle_gamma	90.002607
loop_
_atom_site_label
_atom_site_type_symbol
_atom_site_fract_x
_atom_site_fract_y
_atom_site_fract_z
O1	O	1.103133	0.081732	-0.106869
O2	O	1.436466	0.415066	0.226465
O3	O	1.769799	0.748399	0.559798
O4	O	0.861071	0.081748	-0.120168
O5	O	1.194404	0.415082	0.213165
O6	O	1.527737	0.748415	0.546499
O7	O	0.988751	0.081730	0.007513
O8	O	1.322085	0.415063	0.340846
O9	O	1.655418	0.748397	0.674179
O10	O	0.975452	0.081751	-0.234549
O11	O	1.308785	0.415084	0.098784
O12	O	1.642119	0.748417	0.432118
O13	O	0.988739	-0.081853	0.007520
O14	O	1.322072	0.251480	0.340853
O15	O	1.655405	0.584814	0.674186
O16	O	0.861058	-0.081835	-0.120161
O17	O	1.194391	0.251499	0.213172
O18	O	1.527725	0.584832	0.546506
O19	O	1.103120	-0.081851	-0.106862
O20	O	1.436453	0.251483	0.226472
O21	O	1.769787	0.584816	0.559805
Zn22	Zn	0.982087	-0.107815	-0.113510
Zn23	Zn	1.315420	0.225518	0.219823
Zn24	Zn	1.648754	0.558852	0.553156
Zn25	Zn	0.982104	0.107713	-0.113519
Zn26	Zn	1.315437	0.441046	0.219814
Zn27	Zn	1.648770	0.774379	0.553147
O28	O	0.975439	-0.081832	-0.234542
O29	O	1.308773	0.251501	0.098791
O30	O	1.642106	0.584835	0.432124
C31	C	0.830090	-0.000041	-0.119626
C32	C	1.163423	0.333292	0.213708
C33	C	1.496756	0.666626	0.547041
C34	C	0.737794	-0.000035	-0.118011
C35	C	1.071128	0.333298	0.215323
C36	C	1.404461	0.666631	0.548656
N37	N	0.982082	-0.254907	-0.113504
N38	N	1.315415	0.078427	0.219830
N39	N	1.648748	0.411760	0.553163
C40	C	0.515522	-0.000041	-0.190018
C41	C	0.848855	0.333293	0.143315
C42	C	1.182188	0.666626	0.476648
C43	C	0.428801	-0.000047	-0.188494
C44	C	0.762135	0.333286	0.144839
C45	C	1.095468	0.666620	0.478172
C46	C	0.448676	-0.000056	-0.037006
C47	C	0.782009	0.333277	0.296328
C48	C	1.115342	0.666611	0.629661
C49	C	0.535394	-0.000057	-0.038530
C50	C	0.868728	0.333277	0.294803
C51	C	1.202061	0.666610	0.628136
C52	C	0.568815	-0.000044	-0.115039
C53	C	0.902148	0.333289	0.218294
C54	C	1.235482	0.666623	0.551627
C55	C	0.395376	-0.000050	-0.111990
C56	C	0.728709	0.333284	0.221343
C57	C	1.062042	0.666617	0.554676
C58	C	0.301350	-0.000057	-0.110337
C59	C	0.634683	0.333277	0.222996
C60	C	0.968016	0.666610	0.556329
C61	C	0.662847	-0.000039	-0.116693
C62	C	0.996180	0.333295	0.216641
C63	C	1.329514	0.666628	0.549974
C64	C	0.982103	-0.656198	-0.113520
C65	C	1.315436	-0.322864	0.219813
C66	C	1.648769	0.010469	0.553147
C67	C	0.982094	-0.544546	-0.113518
C68	C	1.315428	-0.211213	0.219815
C69	C	1.648761	0.122120	0.553148
C70	C	0.982093	-0.455556	-0.113513
C71	C	1.315426	-0.122222	0.219821
C72	C	1.648759	0.211111	0.553154
C73	C	0.982083	-0.343897	-0.113510
C74	C	1.315417	-0.010564	0.219824
C75	C	1.648750	0.322769	0.553157
C76	C	1.134101	-0.000059	-0.107404
C77	C	1.467435	0.333274	0.225929
C78	C	1.800768	0.666608	0.559263
C79	C	1.226397	-0.000058	-0.109019
C80	C	1.559730	0.333275	0.224314
C81	C	1.893063	0.666608	0.557648
C82	C	0.988206	-0.000062	0.038491
C83	C	1.321540	0.333271	0.371824
C84	C	1.654873	0.666605	0.705158
C85	C	0.986591	-0.000063	0.130786
C86	C	1.319925	0.333270	0.464120
C87	C	1.653258	0.666603	0.797453
N88	N	0.982116	0.254805	-0.113519
N89	N	1.315449	0.588138	0.219814
N90	N	1.648782	0.921471	0.553147
C91	C	0.975984	-0.000038	-0.265521
C92	C	1.309318	0.333295	0.067813
C93	C	1.642651	0.666629	0.401146
C94	C	0.977600	-0.000030	-0.357816
C95	C	1.310933	0.333303	-0.024483
C96	C	1.644266	0.666636	0.308851
C97	C	1.058599	-0.000052	0.353059
C98	C	1.391932	0.333281	0.686392
C99	C	1.725266	0.666614	1.019725
C100	C	1.057075	-0.000044	0.439779
C101	C	1.390408	0.333289	0.773112
C102	C	1.723742	0.666622	1.106446
C103	C	0.905586	-0.000038	0.419905
C104	C	1.238919	0.333295	0.753238
C105	C	1.572253	0.666629	1.086571
C106	C	0.907111	-0.000039	0.333186
C107	C	1.240444	0.333294	0.666519
C108	C	1.573778	0.666627	0.999853
C109	C	0.983620	-0.000051	0.299766
C110	C	1.316953	0.333282	0.633099
C111	C	1.650287	0.666615	0.966432
C112	C	0.980571	-0.000042	0.473205
C113	C	1.313904	0.333291	0.806538
C114	C	1.647238	0.666625	1.139871
C115	C	0.978918	-0.000033	0.567231
C116	C	1.312251	0.333300	0.900564
C117	C	1.645585	0.666633	1.233897
C118	C	0.985273	-0.000058	0.205734
C119	C	1.318607	0.333275	0.539067
C120	C	1.651940	0.666608	0.872400
H121	H	0.542730	-0.000038	-0.252317
H122	H	0.876063	0.333296	0.081017
H123	H	1.209396	0.666629	0.414350
H124	H	0.385413	-0.000046	-0.249550
H125	H	0.718746	0.333287	0.083783
H126	H	1.052080	0.666620	0.417117
O127	O	0.834349	0.000005	0.281292
O128	O	1.167682	0.333339	0.614626
O129	O	1.501015	0.666672	0.947959
C130	C	0.852103	-0.000018	0.197587
C131	C	1.185437	0.333316	0.530920
C132	C	1.518770	0.666649	0.864254
H133	H	0.917410	0.030947	0.194285
H134	H	1.250743	0.364281	0.527618
H135	H	1.584076	0.697614	0.860951
H136	H	0.804316	0.047479	0.158276
H137	H	1.137649	0.380813	0.491610
H138	H	1.470982	0.714146	0.824943
H139	H	0.848941	-0.078496	0.172513
H140	H	1.182274	0.254837	0.505846
H141	H	1.515608	0.588171	0.839180
O142	O	0.416347	-0.000099	0.037384
O143	O	0.749680	0.333234	0.370717
O144	O	1.083014	0.666568	0.704050
C145	C	0.481984	-0.000077	0.103236
C146	C	0.815317	0.333257	0.436569
C147	C	1.148651	0.666590	0.769902
H148	H	0.540885	-0.031052	0.079947
H149	H	0.874218	0.302281	0.413281
H150	H	1.207551	0.635615	0.746614
H151	H	0.463875	-0.047565	0.156657
H152	H	0.797208	0.285768	0.489990
H153	H	1.130541	0.619101	0.823324
H154	H	0.494268	0.078402	0.126352
H155	H	0.827602	0.411736	0.459686
H156	H	1.160935	0.745069	0.793019
H157	H	0.578788	-0.000062	0.022530
H158	H	0.912122	0.333271	0.355864
H159	H	1.245455	0.666605	0.689197
H160	H	1.118130	-0.000043	0.483168
H161	H	1.451464	0.333290	0.816501
H162	H	1.784797	0.666624	1.149834
H163	H	1.120897	-0.000060	0.325851
H164	H	1.454231	0.333273	0.659184
H165	H	1.787564	0.666606	0.992518
H166	H	0.843295	-0.000030	0.447127
H167	H	1.176628	0.333303	0.780460
H168	H	1.509962	0.666637	1.113793
