data_functionalizedCrystal
_audit_creation_method	'MofGen! by Chris Wilmer'
_symmetry_space_group_name_H-M	'P1'
_symmetry_Int_Tables_number	1
_symmetry_cell_setting	triclinic
loop_
_symmetry_equiv_pos_as_xyz
  x,y,z
_cell_length_a	13.897449
_cell_length_b	16.625546
_cell_length_c	16.625548
_cell_angle_alpha	90.013404
_cell_angle_beta	90.007099
_cell_angle_gamma	90.023748
loop_
_atom_site_label
_atom_site_type_symbol
_atom_site_fract_x
_atom_site_fract_y
_atom_site_fract_z
Zn1	Zn	1.474541	-0.321108	0.455873
Zn2	Zn	1.474460	-0.455911	0.321035
Zn3	Zn	1.313268	-0.321099	0.321056
Zn4	Zn	1.313198	-0.455905	0.455828
O5	O	1.393867	-0.388506	0.388448
O6	O	1.609512	-0.338996	0.437997
O7	O	1.453073	-0.438027	0.208206
O8	O	1.334725	-0.208268	0.338968
O9	O	1.609452	-0.438035	0.338932
O10	O	1.453211	-0.208274	0.438017
O11	O	1.334646	-0.338981	0.208221
O12	O	1.178277	-0.338975	0.338924
O13	O	1.334605	-0.438025	0.568666
O14	O	1.178226	-0.438017	0.437940
O15	O	1.453143	-0.338990	0.568699
O16	O	1.453005	-0.568743	0.338888
O17	O	1.334527	-0.568738	0.437920
C18	C	1.143252	-0.388495	0.388430
C19	C	1.036038	-0.388510	0.388441
C20	C	0.839743	-0.388513	0.388462
C21	C	0.948976	-0.388509	0.388448
C22	C	1.393775	-0.597997	0.388414
C23	C	1.393825	-0.687618	0.388427
C24	C	1.393993	-1.015793	0.388511
C25	C	1.393943	-0.924485	0.388490
C26	C	1.393908	-0.851708	0.388468
C27	C	1.393860	-0.760394	0.388448
C28	C	1.645460	-0.388517	0.388467
C29	C	1.752674	-0.388522	0.388475
C30	C	1.393875	-0.388508	0.598757
C31	C	1.393879	-0.388509	0.688378
C32	C	1.393985	-0.178197	0.388500
C33	C	1.394035	-0.088576	0.388521
C34	C	1.393839	-0.388516	1.016554
C35	C	1.393847	-0.388517	0.925245
C36	C	1.393859	-0.388513	0.852469
C37	C	1.393867	-0.388513	0.761154
C38	C	1.393849	-0.388520	1.178957
C39	C	1.393839	-0.388514	1.089336
