data_functionalizedCrystal
_audit_creation_method	'MofGen! by Chris Wilmer'
_symmetry_space_group_name_H-M	'P1'
_symmetry_Int_Tables_number	1
_symmetry_cell_setting	triclinic
loop_
_symmetry_equiv_pos_as_xyz
  x,y,z
_cell_length_a	6.817900
_cell_length_b	17.253917
_cell_length_c	11.102228
_cell_angle_alpha	97.513815
_cell_angle_beta	108.604565
_cell_angle_gamma	102.659311
loop_
_atom_site_label
_atom_site_type_symbol
_atom_site_fract_x
_atom_site_fract_y
_atom_site_fract_z
V1	V	-4.088151	-0.111296	-0.408319
O2	O	-4.071672	0.005346	-0.388134
O3	O	-4.041963	-0.220679	-0.417464
O4	O	-4.065285	-0.109585	-0.580955
O5	O	-4.048189	-0.106517	-0.223512
V6	V	-4.568183	-0.097344	-0.384764
O7	O	-4.357066	-0.141900	-0.459988
O8	O	-4.749466	-0.066739	-0.333095
O9	O	-4.391164	0.012039	-0.375619
O10	O	-4.702059	-0.213986	-0.404950
O11	O	-4.725542	-0.102123	-0.569572
O12	O	-4.367842	-0.099055	-0.212129
C13	C	-3.886676	-0.247345	-0.414103
C14	C	-3.930370	-0.336767	-0.422731
C15	C	-3.893141	-0.367290	-0.309155
C16	C	-3.934216	-0.451312	-0.317266
C17	C	-4.012505	-0.504810	-0.438955
C18	C	-4.049741	-0.474283	-0.552540
C19	C	-4.008681	-0.390262	-0.544428
C20	C	-4.141514	-0.757330	-0.475831
C21	C	-4.182567	-0.841355	-0.483934
C22	C	-4.067043	-0.818379	-0.248659
C23	C	-4.025975	-0.734357	-0.240558
C24	C	-4.063225	-0.703837	-0.354143
N25	N	-4.054485	-0.590695	-0.447249
N26	N	-4.021259	-0.617954	-0.345848
C27	C	-3.916424	-0.105631	-0.622650
C28	C	-3.979027	-0.104956	-0.763859
C29	C	-4.053137	-0.178302	-0.856333
C30	C	-4.111972	-0.177666	-0.989013
C31	C	-4.022568	-0.030330	-0.936732
C32	C	-3.963750	-0.030968	-0.804054
C33	C	-4.363791	-0.267879	-1.206180
C34	C	-4.437871	-0.341228	-1.298658
C35	C	-4.340499	-0.403894	-1.274236
C36	C	-4.169001	-0.393212	-1.157337
C37	C	-4.094905	-0.319861	-1.064864
C38	C	-4.192325	-0.257199	-1.089287
C39	C	-3.711915	0.059240	-0.586887
C40	C	-3.637804	0.132592	-0.494410
C41	C	-3.735158	0.195265	-0.518827
C42	C	-3.906623	0.184592	-0.635727
C43	C	-3.980735	0.111240	-0.728203
C44	C	-3.883380	0.048566	-0.703777
C45	C	-4.209793	0.038701	-0.378977
C46	C	-4.145339	0.128122	-0.370357
C47	C	-4.180044	-0.103011	-0.170427
C48	C	-4.096680	-0.103682	-0.029217
H49	H	-4.113502	-0.517848	-0.651622
O50	O	-4.074098	-0.453990	-1.133437
C51	C	-3.906892	-0.428841	-1.010420
H52	H	-3.849605	-0.359535	-0.982674
H53	H	-3.767005	-0.453802	-1.014498
H54	H	-3.968853	-0.452850	-0.934615
O55	O	-4.604388	-0.351730	-1.412296
C56	C	-4.648921	-0.429914	-1.488666
H57	H	-4.499620	-0.452862	-1.458036
H58	H	-4.695674	-0.426778	-1.595713
H59	H	-4.787477	-0.473323	-1.474007
H60	H	-4.400821	-0.463617	-1.349543
H61	H	-4.120356	0.102553	-0.823389
H62	H	-4.443112	-0.216860	-1.226069
O63	O	-3.817000	-0.315210	-0.191045
C64	C	-3.788787	-0.234505	-0.208235
H65	H	-3.769197	-0.231476	-0.305865
H66	H	-3.638751	-0.193058	-0.126408
H67	H	-3.935594	-0.213722	-0.206332
H68	H	-3.903903	-0.476159	-0.224780
H69	H	-4.010134	0.029908	-0.969476
O70	O	-4.044868	-0.360743	-0.654880
C71	C	-4.122823	-0.425978	-0.764029
H72	H	-4.071542	-0.481081	-0.732971
H73	H	-4.053814	-0.407552	-0.840347
H74	H	-4.306143	-0.442051	-0.807029
H75	H	-4.065582	-0.238548	-0.823611
H76	H	-3.962240	-0.690804	-0.141466
H77	H	-4.036724	-0.843238	-0.156185
H78	H	-4.246312	-0.884913	-0.583032
H79	H	-4.171822	-0.732490	-0.568319
O80	O	-3.471440	0.143023	-0.380729
C81	C	-3.540583	0.158174	-0.275258
H82	H	-3.686204	0.183162	-0.306842
H83	H	-3.404593	0.204538	-0.191068
H84	H	-3.586861	0.099078	-0.242576
H85	H	-3.985895	0.235626	-0.655608
O86	O	-3.663364	0.266587	-0.429161
C87	C	-3.786117	0.319602	-0.475771
H88	H	-3.861074	0.301447	-0.586533
H89	H	-3.677428	0.384666	-0.444979
H90	H	-3.919104	0.315564	-0.433493
H91	H	-3.955267	-0.311162	-0.969690
H92	H	-3.632631	0.008209	-0.566994
