data_functionalizedCrystal
_audit_creation_method	'MofGen! by Chris Wilmer'
_symmetry_space_group_name_H-M	'P1'
_symmetry_Int_Tables_number	1
_symmetry_cell_setting	triclinic
loop_
_symmetry_equiv_pos_as_xyz
  x,y,z
_cell_length_a	18.215407
_cell_length_b	12.645330
_cell_length_c	18.215399
_cell_angle_alpha	89.976970
_cell_angle_beta	89.980167
_cell_angle_gamma	90.018140
loop_
_atom_site_label
_atom_site_type_symbol
_atom_site_fract_x
_atom_site_fract_y
_atom_site_fract_z
Zn1	Zn	1.125109	-0.422038	-0.416141
Zn2	Zn	1.125033	-0.599320	-0.293085
Zn3	Zn	1.002041	-0.422072	-0.293088
Zn4	Zn	1.002023	-0.599261	-0.416110
O5	O	1.063551	-0.510673	-0.354606
O6	O	1.228083	-0.445565	-0.399829
O7	O	1.108693	-0.575847	-0.190101
O8	O	1.018406	-0.273720	-0.309426
O9	O	1.228027	-0.575813	-0.309421
O10	O	1.108823	-0.273695	-0.399832
O11	O	1.018332	-0.445624	-0.190104
O12	O	0.899055	-0.445566	-0.309396
O13	O	1.018374	-0.575713	-0.519099
O14	O	0.899041	-0.575746	-0.399780
O15	O	1.108805	-0.445507	-0.519121
O16	O	1.108675	-0.747659	-0.309391
O17	O	1.018300	-0.747616	-0.399777
C18	C	0.872345	-0.510654	-0.354585
C19	C	0.790546	-0.510672	-0.354594
C20	C	0.602364	-0.578563	-0.401597
C21	C	0.525506	-0.578567	-0.401606
C22	C	0.525490	-0.442801	-0.307631
C23	C	0.602348	-0.442793	-0.307626
C24	C	0.640783	-0.510680	-0.354608
C25	C	0.487067	-0.510692	-0.354622
C26	C	0.403733	-0.510695	-0.354632
C27	C	0.724122	-0.510676	-0.354600
C28	C	1.063498	-0.786102	-0.354596
C29	C	1.063542	-0.903932	-0.354616
C30	C	1.006922	-1.071513	-0.411653
C31	C	1.006632	-0.948954	-0.411470
C32	C	1.042549	-0.948523	-0.277058
C33	C	1.042203	-1.071122	-0.277404
C34	C	1.141502	-1.071022	-0.374509
C35	C	1.141024	-0.948415	-0.376205
C36	C	1.255504	-0.510692	-0.354628
C37	C	1.337303	-0.510700	-0.354637
C38	C	1.063596	-0.510600	-0.546559
C39	C	1.063615	-0.510568	-0.628358
C40	C	1.063625	-0.234167	-0.354633
C41	C	1.063657	-0.116337	-0.354644
C42	C	1.110720	-0.442707	-0.816565
C43	C	1.110728	-0.442676	-0.893424
C44	C	1.016563	-0.578266	-0.893389
C45	C	1.016551	-0.578290	-0.816532
C46	C	1.063634	-0.510513	-0.778122
C47	C	1.063654	-0.510457	-0.931838
C48	C	1.063663	-0.510424	-1.015172
C49	C	1.063624	-0.510544	-0.694783
C50	C	1.063549	-0.510669	-0.163400
C51	C	1.063672	-0.510401	-0.081602
H52	H	0.494187	-0.387531	-0.269379
H53	H	0.978203	-0.633505	-0.785230
H54	H	1.160652	-1.101868	-0.430103
C55	C	1.024429	-1.111378	-0.489583
H56	H	1.066501	-1.155707	-0.488054
H57	H	1.033790	-1.052757	-0.520845
H58	H	0.983779	-1.150329	-0.507918
C59	C	1.162498	-0.368142	-0.774316
H60	H	1.190536	-0.327747	-0.808223
H61	H	1.194552	-0.408696	-0.744333
H62	H	1.134344	-0.321959	-0.744338
C63	C	1.162526	-0.368095	-0.935709
H64	H	1.190567	-0.327742	-0.901823
H65	H	1.134394	-0.321890	-0.965691
H66	H	1.194588	-0.408648	-0.965691
H67	H	1.019766	-0.918802	-0.468979
C68	C	0.644611	-0.368120	-0.255935
H69	H	0.610714	-0.327700	-0.227948
H70	H	0.674613	-0.321980	-0.284139
H71	H	0.674572	-0.408619	-0.223820
H72	H	0.978232	-0.633450	-0.924672
H73	H	0.948921	-0.919719	-0.398309
H74	H	0.985298	-1.099813	-0.260576
H75	H	0.633656	-0.633839	-0.439855
H76	H	0.949572	-1.102414	-0.398661
H77	H	1.081734	-1.100776	-0.233479
H78	H	0.494229	-0.633842	-0.439871
H79	H	1.082562	-0.919362	-0.233421
H80	H	0.986237	-0.917912	-0.259925
H81	H	1.156855	-0.919267	-0.433284
C82	C	1.201140	-0.907014	-0.324200
H83	H	1.247326	-0.935140	-0.338534
H84	H	1.190389	-0.928348	-0.275356
H85	H	1.202799	-0.832005	-0.326635
C86	C	1.198589	-1.110072	-0.318368
H87	H	1.175139	-1.153794	-0.282999
H88	H	1.220271	-1.051049	-0.294494
H89	H	1.235561	-1.149459	-0.342963
