data_functionalizedCrystal
_audit_creation_method	'MofGen! by Chris Wilmer'
_symmetry_space_group_name_H-M	'P1'
_symmetry_Int_Tables_number	1
_symmetry_cell_setting	triclinic
loop_
_symmetry_equiv_pos_as_xyz
  x,y,z
_cell_length_a	16.793024
_cell_length_b	16.793047
_cell_length_c	33.586455
_cell_angle_alpha	113.253857
_cell_angle_beta	66.219990
_cell_angle_gamma	112.758327
loop_
_atom_site_label
_atom_site_type_symbol
_atom_site_fract_x
_atom_site_fract_y
_atom_site_fract_z
O1	O	0.005016	-0.570216	-0.583573
O2	O	-0.034529	-0.474528	-0.453458
O3	O	0.114723	-0.474535	-0.528082
O4	O	-0.144235	-0.570209	-0.508949
O5	O	0.108729	-0.346329	-0.530229
O6	O	-0.040523	-0.346322	-0.455605
O7	O	-0.000977	-0.442010	-0.585721
Zn8	Zn	-0.021701	-0.373810	-0.521004
Zn9	Zn	-0.013805	-0.542728	-0.518175
O10	O	-0.150229	-0.442003	-0.511097
C11	C	0.005100	-0.790970	-0.238461
C12	C	0.009223	-0.693065	-0.217557
C13	C	0.003804	-0.645758	-0.241627
C14	C	-0.075059	-0.538459	-0.266316
C15	C	0.049838	-0.422849	-0.250165
C16	C	-0.040584	-0.395375	-0.435637
C17	C	-0.044693	-0.353446	-0.386631
C18	C	-0.039275	-0.401741	-0.363054
C19	C	-0.040566	-0.125547	-0.300731
C20	C	-0.044689	-0.223451	-0.321635
C21	C	-0.039266	-0.270752	-0.297563
C22	C	0.039597	-0.378051	-0.272874
C23	C	-0.085304	-0.493667	-0.289026
C24	C	0.005118	-0.521142	-0.103554
C25	C	0.009231	-0.563064	-0.152559
C26	C	0.003809	-0.514775	-0.176138
C27	C	0.010758	-0.652581	-0.172822
C28	C	0.001010	-0.556371	-0.220792
C29	C	-0.008251	-0.506059	-0.245823
C30	C	-0.046224	-0.263935	-0.366370
C31	C	-0.036476	-0.360146	-0.318399
C32	C	-0.027211	-0.410451	-0.293367
C33	C	0.815184	-0.521162	-0.508596
C34	C	0.415541	-0.125553	-0.528781
C35	C	0.375032	-0.223457	-0.531493
C36	C	0.423813	-0.270761	-0.529101
C37	C	0.149318	-0.395376	-0.530584
C38	C	0.246774	-0.353455	-0.532364
C39	C	0.294574	-0.401748	-0.529976
C40	C	0.548961	-0.790984	-0.510398
C41	C	0.286104	-0.263940	-0.532530
C42	C	0.383336	-0.360149	-0.528302
C43	C	0.432207	-0.407971	-0.525810
C44	C	0.392316	-0.497392	-0.524993
C45	C	0.303554	-0.538991	-0.526667
C46	C	0.254683	-0.491169	-0.529159
C47	C	0.263666	-0.628421	-0.525851
C48	C	0.312537	-0.676243	-0.523359
C49	C	0.401299	-0.634644	-0.521685
C50	C	0.441190	-0.545223	-0.522502
C51	C	0.529952	-0.503624	-0.520828
C52	C	0.578823	-0.551446	-0.518336
C53	C	0.538939	-0.640864	-0.517520
C54	C	0.450177	-0.682463	-0.519194
C55	C	0.587810	-0.688687	-0.515028
C56	C	0.676572	-0.647088	-0.513354
C57	C	0.716463	-0.557666	-0.514172
C58	C	0.667586	-0.509847	-0.516662
C59	C	0.569840	-0.414195	-0.521644
C60	C	0.658602	-0.372596	-0.519970
C61	C	0.707476	-0.420426	-0.517480
C62	C	0.698493	-0.283174	-0.520788
C63	C	0.649622	-0.235352	-0.523280
C64	C	0.560860	-0.276951	-0.524954
C65	C	0.520969	-0.366372	-0.524136
C66	C	0.511989	-0.229129	-0.527446
C67	C	-0.040530	-0.395407	-0.935652
C68	C	0.005063	-0.791004	-0.738448
C69	C	0.009186	-0.693099	-0.717543
C70	C	0.003779	-0.645796	-0.741620
C71	C	0.005077	-0.521171	-0.603544
C72	C	0.009198	-0.563096	-0.652550
C73	C	0.003786	-0.514804	-0.676131
C74	C	-0.040516	-0.125574	-0.800747
C75	C	0.010719	-0.652613	-0.672809
C76	C	0.000994	-0.556406	-0.720789
C77	C	-0.004621	-0.508585	-0.744908
C78	C	-0.007444	-0.419162	-0.724369
C79	C	-0.004651	-0.377560	-0.679711
C80	C	0.000964	-0.425381	-0.655592
C81	C	-0.007471	-0.288129	-0.659174
C82	C	-0.013086	-0.240308	-0.683293
C83	C	-0.015878	-0.281910	-0.727951
C84	C	-0.013056	-0.371333	-0.748490
C85	C	-0.015848	-0.412935	-0.793148
C86	C	-0.021463	-0.365114	-0.817267
C87	C	-0.024282	-0.275694	-0.796731
C88	C	-0.021490	-0.234092	-0.752073
C89	C	-0.029897	-0.227873	-0.820850
C90	C	-0.032690	-0.269476	-0.865508
C91	C	-0.029867	-0.358899	-0.886047
C92	C	-0.024255	-0.406717	-0.861925
C93	C	-0.013028	-0.502367	-0.813685
C94	C	-0.015821	-0.543969	-0.858343
C95	C	-0.021433	-0.496140	-0.882464
C96	C	-0.012998	-0.633392	-0.878882
C97	C	-0.007383	-0.681213	-0.854763
C98	C	-0.004591	-0.639611	-0.810105
C99	C	-0.007414	-0.550188	-0.789566
C100	C	0.001024	-0.687432	-0.785986
O101	O	-0.000965	0.173549	-0.277957
O102	O	-0.040516	-0.085616	-0.325254
O103	O	0.108737	0.059592	-0.327284
O104	O	-0.150219	0.028341	-0.275927
O105	O	0.114753	0.055151	-0.263265
O106	O	-0.034500	-0.090057	-0.261234
O107	O	0.005051	0.169108	-0.213937
Zn108	Zn	-0.013769	0.038820	-0.227421
Zn109	Zn	-0.021696	0.044672	-0.311770
O110	O	-0.144202	0.023900	-0.211907
O111	O	-0.034458	-0.474571	0.046517
O112	O	0.005076	-0.570190	-0.083599
O113	O	-0.144170	-0.570237	-0.008972
O114	O	0.114787	-0.474523	-0.028110
O115	O	-0.150200	-0.442024	-0.011093
O116	O	-0.000954	-0.441976	-0.085720
O117	O	-0.040488	-0.346357	0.044396
Zn118	Zn	-0.021679	-0.373810	-0.020999
Zn119	Zn	-0.013734	-0.542737	-0.018204
O120	O	0.108757	-0.346309	-0.030231
C121	C	-0.850734	0.086244	-0.289716
C122	C	-0.753280	0.087165	-0.312001
C123	C	-0.705462	0.081107	-0.288506
C124	C	-0.599592	0.000085	-0.264184
C125	C	-0.481080	0.121287	-0.283645
C126	C	-0.450996	0.035117	-0.097351
C127	C	-0.410501	0.028587	-0.146852
C128	C	-0.459292	0.034683	-0.169840
C129	C	-0.184802	0.024283	-0.235878
C130	C	-0.282257	0.023363	-0.213592
C131	C	-0.330068	0.029423	-0.237088
C132	C	-0.435938	0.110445	-0.261411
C133	C	-0.554456	-0.010759	-0.241948
C134	C	-0.584541	0.075410	-0.428242
C135	C	-0.625029	0.081943	-0.378743
C136	C	-0.576244	0.075844	-0.355753
C137	C	-0.713963	0.086424	-0.357292
C138	C	-0.616708	0.075351	-0.310510
C139	C	-0.565963	0.065400	-0.286043
C140	C	-0.321573	0.024104	-0.168302
C141	C	-0.418828	0.035176	-0.215083
C142	C	-0.469568	0.045131	-0.239552
O143	O	0.585213	0.169090	-0.504004
O144	O	0.494056	-0.090076	-0.525516
O145	O	0.488081	0.055124	-0.449918
O146	O	0.591189	0.023889	-0.579602
O147	O	0.359978	0.059584	-0.452885
O148	O	0.365953	-0.085616	-0.528483
O149	O	0.457110	0.173550	-0.506971
Zn150	Zn	0.391193	0.044675	-0.518198
Zn151	Zn	0.559974	0.038798	-0.514289
O152	O	0.463086	0.028349	-0.582569
C153	C	0.815354	-0.521094	-0.008709
C154	C	0.717898	-0.563028	-0.006927
C155	C	0.670072	-0.514739	-0.009298
C156	C	0.564182	-0.463204	-0.048354
C157	C	0.445681	-0.498945	0.013847
C158	C	0.415547	-0.125494	-0.028771
C159	C	0.375059	-0.223405	-0.031498
C160	C	0.423859	-0.270708	-0.029121
C161	C	0.149365	-0.395355	-0.030599
C162	C	0.246820	-0.353421	-0.032381
C163	C	0.294640	-0.401713	-0.030008
C164	C	0.400530	-0.453248	0.009048
C165	C	0.519038	-0.417504	-0.053155
C166	C	0.549171	-0.790955	-0.010537
C167	C	0.589653	-0.693047	-0.007809
C168	C	0.540859	-0.645741	-0.010187
C169	C	0.678588	-0.652551	-0.006775
C170	C	0.581317	-0.556344	-0.010973
C171	C	0.530562	-0.506029	-0.015250
C172	C	0.286131	-0.263897	-0.032533
C173	C	0.383402	-0.360104	-0.028335
C174	C	0.434150	-0.410423	-0.024057
O175	O	-0.620614	0.089309	0.052274
O176	O	-0.529507	0.043784	-0.078544
O177	O	-0.523494	0.194833	-0.006033
O178	O	-0.626628	-0.061740	-0.020236
O179	O	-0.395386	0.185419	-0.005549
O180	O	-0.401400	0.034370	-0.078059
O181	O	-0.492507	0.079895	0.052758
Zn182	Zn	-0.426614	0.055638	-0.012574
Zn183	Zn	-0.595401	0.068041	-0.013212
O184	O	-0.498521	-0.071154	-0.019752
C185	C	-0.437537	0.048335	0.402491
C186	C	-0.397043	0.041789	0.352989
C187	C	-0.445822	0.047883	0.329994
C188	C	-0.496646	0.126653	0.277022
C189	C	-0.465894	-0.000633	0.218811
C190	C	-0.837226	0.099430	0.210091
C191	C	-0.739773	0.100339	0.187806
C192	C	-0.691967	0.094287	0.211308
C193	C	-0.571027	0.088563	0.071568
C194	C	-0.611521	0.095108	0.121070
C195	C	-0.562739	0.089011	0.144061
C196	C	-0.511915	0.010241	0.197033
C197	C	-0.542670	0.137531	0.255247
C198	C	-0.171338	0.037467	0.263967
C199	C	-0.268788	0.036555	0.286249
C200	C	-0.316597	0.042611	0.262750
C201	C	-0.308112	0.037305	0.331542
C202	C	-0.405351	0.048369	0.284750
C203	C	-0.456092	0.058317	0.260279
C204	C	-0.700452	0.099593	0.142516
C205	C	-0.603213	0.088528	0.189308
C206	C	-0.552469	0.078578	0.213776
O207	O	-0.040608	-1.085661	-0.825229
O208	O	-0.001018	-0.826491	-0.777938
O209	O	-0.150287	-0.971682	-0.775894
O210	O	0.108661	-0.940470	-0.827272
O211	O	-0.144253	-0.976123	-0.711878
O212	O	0.005016	-0.830932	-0.713922
O213	O	-0.034575	-1.090102	-0.761213
Zn214	Zn	-0.013821	-0.961222	-0.727403
Zn215	Zn	-0.021771	-0.955371	-0.811747
O216	O	0.114695	-0.944911	-0.763256
O217	O	-0.036862	-0.230384	-0.253947
C218	C	-0.115987	-0.202041	-0.227222
H219	H	-0.171766	-0.243574	-0.244184
H220	H	-0.101653	-0.127812	-0.223676
C221	C	-0.077925	-0.164236	-0.159072
C222	C	-0.146436	-0.215253	-0.179904
H223	H	-0.096706	-0.172381	-0.129884
H224	H	-0.024615	-0.183328	-0.177078
H225	H	-0.065986	-0.102383	-0.156122
H226	H	-0.158365	-0.277105	-0.182860
H227	H	-0.199749	-0.196172	-0.161898
O228	O	-0.488853	0.185328	0.317894
C229	C	-0.575633	0.183729	0.349251
H230	H	-0.625485	0.116997	0.337721
H231	H	-0.598105	0.241541	0.351291
C232	C	-0.511500	0.275991	0.410483
C233	C	-0.572728	0.194027	0.396324
H234	H	-0.509709	0.282348	0.439521
H235	H	-0.453035	0.277072	0.389358
H236	H	-0.530234	0.324159	0.412180
H237	H	-0.553987	0.145861	0.394622
H238	H	-0.631190	0.192938	0.417451
O239	O	0.785018	-0.242512	-0.519077
C240	C	0.786491	-0.167335	-0.480414
H241	H	0.717155	-0.176259	-0.454082
H242	H	0.804121	-0.103740	-0.490421
C243	C	0.943108	-0.148106	-0.492573
C244	C	0.857950	-0.159071	-0.460230
H245	H	0.987190	-0.143005	-0.480124
H246	H	0.942117	-0.198752	-0.518623
H247	H	0.957787	-0.095111	-0.500910
H248	H	0.843268	-0.212070	-0.451899
H249	H	0.858940	-0.108433	-0.434179
O250	O	0.013689	-0.700230	-0.648998
C251	C	-0.062996	-0.702885	-0.610548
H252	H	-0.119244	-0.691395	-0.616645
H253	H	-0.044748	-0.647958	-0.579723
C254	C	-0.026342	-0.809614	-0.594466
C255	C	-0.095431	-0.795510	-0.601955
H256	H	-0.046348	-0.866748	-0.589163
H257	H	0.025324	-0.807823	-0.620369
H258	H	-0.011143	-0.763836	-0.568778
H259	H	-0.110621	-0.841282	-0.627644
H260	H	-0.147100	-0.797311	-0.576055
H261	H	-0.669612	-0.046576	-0.265443
H262	H	0.013390	-0.692483	-0.152899
H263	H	0.702991	-0.441593	-0.009870
H264	H	-0.267732	0.034117	0.350946
O265	O	-0.592553	-0.077748	-0.221430
C266	C	-0.678239	-0.126240	-0.227938
H267	H	-0.681213	-0.117277	-0.259187
H268	H	-0.732745	-0.099946	-0.196886
C269	C	-0.690537	-0.237846	-0.196398
C270	C	-0.694187	-0.226843	-0.234782
H271	H	-0.700377	-0.299902	-0.200618
H272	H	-0.632810	-0.205174	-0.192012
H273	H	-0.735959	-0.215928	-0.170526
H274	H	-0.648758	-0.248750	-0.260652
H275	H	-0.751907	-0.259520	-0.239172
H276	H	0.330510	-0.448858	0.033327
O277	O	-0.580266	0.207628	0.274069
C278	C	-0.512045	0.289405	0.279878
H279	H	-0.444168	0.278270	0.255316
H280	H	-0.508730	0.314342	0.316196
C281	C	-0.617058	0.373766	0.300515
C282	C	-0.533692	0.360091	0.270343
H283	H	-0.630412	0.417371	0.294635
H284	H	-0.663021	0.318672	0.296602
H285	H	-0.614285	0.394543	0.330776
H286	H	-0.536469	0.339305	0.240083
H287	H	-0.487730	0.415184	0.274250
O288	O	0.717475	-0.691681	-0.504673
C289	C	0.795020	-0.706370	-0.541323
H290	H	0.819345	-0.654783	-0.560730
H291	H	0.777752	-0.777085	-0.564971
C292	C	0.840319	-0.759937	-0.499361
C293	C	0.870199	-0.696572	-0.523195
H294	H	0.886692	-0.753897	-0.488180
H295	H	0.788074	-0.750044	-0.474670
H296	H	0.825929	-0.818860	-0.519072
H297	H	0.884578	-0.637651	-0.503483
H298	H	0.922449	-0.706455	-0.547883
O299	O	-0.532514	0.053191	0.351323
C300	C	-0.590436	-0.020436	0.328433
H301	H	-0.556928	-0.077803	0.308428
H302	H	-0.604393	0.001032	0.304179
C303	C	-0.721274	0.018091	0.387785
C304	C	-0.680122	-0.052371	0.363218
H305	H	-0.776598	-0.001606	0.409242
H306	H	-0.682251	0.067697	0.403206
H307	H	-0.732896	0.035975	0.367569
H308	H	-0.668490	-0.070246	0.383434
H309	H	-0.719145	-0.101981	0.347801
H310	H	0.245727	-0.224039	-0.533582
O311	O	0.510451	-0.230250	-0.027496
C312	C	0.512170	-0.155105	0.011173
H313	H	0.442897	-0.163917	0.037561
H314	H	0.529884	-0.091451	0.001199
C315	C	0.668777	-0.136281	-0.001171
C316	C	0.583697	-0.147108	0.031241
H317	H	0.712900	-0.131344	0.011207
H318	H	0.667620	-0.186905	-0.027224
H319	H	0.683526	-0.083237	-0.009480
H320	H	0.568944	-0.200157	0.039544
H321	H	0.584853	-0.096492	0.057295
H322	H	0.245737	-0.223998	-0.033572
H323	H	-0.123560	-0.607102	-0.263443
H324	H	-0.518563	-0.039000	0.162804
O325	O	-0.545867	0.040332	-0.148438
C326	C	-0.547526	0.117730	-0.110850
H327	H	-0.478221	0.168579	-0.116200
H328	H	-0.565275	0.098262	-0.078779
C329	C	-0.704101	0.097431	-0.099314
C330	C	-0.618982	0.159887	-0.105887
H331	H	-0.748181	0.123434	-0.096250
H332	H	-0.702985	0.045284	-0.124637
H333	H	-0.718879	0.081212	-0.072589
H334	H	-0.604200	0.176096	-0.132614
H335	H	-0.620097	0.212038	-0.080568
O336	O	0.647662	-0.468500	-0.077383
C337	C	0.642068	-0.510775	-0.122090
H338	H	0.579605	-0.503295	-0.124461
H339	H	0.636998	-0.585287	-0.131519
C340	C	0.803898	-0.475589	-0.152074
C341	C	0.727185	-0.466396	-0.154987
H342	H	0.856404	-0.448218	-0.172367
H343	H	0.807668	-0.447111	-0.121954
H344	H	0.799661	-0.537685	-0.159931
H345	H	0.731418	-0.404302	-0.147125
H346	H	0.723418	-0.494863	-0.185107
H347	H	-0.740818	0.102779	0.123104
H348	H	-0.283673	0.042875	0.225734
H349	H	0.550886	-0.383867	-0.081621
H350	H	0.279916	-0.749353	-0.522691
H351	H	0.001650	-0.679613	-0.278166
O352	O	-0.036588	-0.488963	-0.383247
C353	C	0.044324	-0.497660	-0.384082
H354	H	0.071155	-0.440230	-0.356230
H355	H	0.096591	-0.495039	-0.418483
C356	C	-0.007093	-0.658816	-0.410359
C357	C	0.025857	-0.588284	-0.376147
H358	H	-0.018482	-0.714718	-0.405466
H359	H	-0.061604	-0.652957	-0.409798
H360	H	0.036468	-0.656620	-0.439023
H361	H	-0.017708	-0.590474	-0.347485
H362	H	0.080361	-0.594146	-0.376703
O363	O	-0.015842	-0.673910	-0.922426
C364	C	-0.096841	-0.673502	-0.925635
H365	H	-0.123616	-0.617000	-0.896592
H366	H	-0.149086	-0.740862	-0.923522
C367	C	-0.045691	-0.727788	-1.006902
C368	C	-0.078573	-0.658385	-0.971232
H369	H	-0.034424	-0.718467	-1.035029
H370	H	0.008879	-0.728066	-1.004740
H371	H	-0.089234	-0.783915	-1.005134
H372	H	-0.035025	-0.602262	-0.972997
H373	H	-0.133135	-0.658097	-0.973396
H374	H	-0.023718	-0.530163	-0.918978
H375	H	-0.490116	0.084434	0.126151
H376	H	0.780052	-0.386407	-0.516111
H377	H	-0.005182	-0.254109	-0.622664
H378	H	0.413839	-0.532573	0.042316
H379	H	0.261721	-0.474856	-0.029430
H380	H	-0.434254	-0.059305	0.203012
O381	O	-0.744826	0.080623	-0.244372
C382	C	-0.821987	0.006453	-0.240933
H383	H	-0.815525	-0.047521	-0.275000
H384	H	-0.884827	0.029211	-0.231080
C385	C	-0.838053	0.033894	-0.162627
C386	C	-0.830112	-0.032401	-0.204468
H387	H	-0.843068	0.009929	-0.140132
H388	H	-0.786070	0.083866	-0.164943
H389	H	-0.890419	0.052853	-0.154422
H390	H	-0.777741	-0.051350	-0.212675
H391	H	-0.882086	-0.082377	-0.202153
O392	O	0.097545	-0.296181	-0.276264
C393	C	0.161696	-0.272536	-0.253620
H394	H	0.167349	-0.336059	-0.251394
H395	H	0.139381	-0.226738	-0.217968
C396	C	0.247339	-0.144746	-0.282788
C397	C	0.254287	-0.222767	-0.280057
H398	H	0.304452	-0.114043	-0.299093
H399	H	0.204117	-0.160674	-0.298041
H400	H	0.228739	-0.106592	-0.253076
H401	H	0.272875	-0.260925	-0.309768
H402	H	0.297514	-0.206845	-0.264809
O403	O	0.001421	-0.427474	-0.155928
C404	C	0.080557	-0.376168	-0.142837
H405	H	0.136327	-0.411615	-0.164359
H406	H	0.066236	-0.368673	-0.105528
C407	C	0.042514	-0.238830	-0.123428
C408	C	0.111014	-0.282363	-0.149865
H409	H	0.061300	-0.180965	-0.127761
H410	H	-0.010803	-0.273395	-0.132246
H411	H	0.030586	-0.232594	-0.092340
H412	H	0.122933	-0.288609	-0.180952
H413	H	0.164334	-0.247797	-0.141052
H414	H	-0.005085	-0.754331	-0.871556
O415	O	-0.050616	-0.224902	-0.885685
C416	C	0.022517	-0.210258	-0.924357
H417	H	0.062000	-0.261850	-0.936833
H418	H	0.068878	-0.139544	-0.915261
C419	C	-0.062053	-0.156728	-0.946710
C420	C	-0.013563	-0.220099	-0.962036
H421	H	-0.084307	-0.162793	-0.969952
H422	H	-0.111324	-0.166590	-0.920655
H423	H	-0.023411	-0.097805	-0.939130
H424	H	-0.052208	-0.279020	-0.969610
H425	H	0.035700	-0.210247	-0.988093
H426	H	0.417564	-0.755580	-0.518528
H427	H	-0.281187	0.020914	-0.148901
H428	H	0.468233	-0.679598	-0.011487
O429	O	0.688414	-0.148074	-0.523992
C430	C	0.638026	-0.092980	-0.486398
H431	H	0.598123	-0.128430	-0.458620
H432	H	0.589306	-0.079574	-0.497231
C433	C	0.751707	0.040517	-0.502339
C434	C	0.702704	-0.003020	-0.468220
H435	H	0.791602	0.096011	-0.491127
H436	H	0.785654	0.003400	-0.527668
H437	H	0.711098	0.051680	-0.511364
H438	H	0.743312	-0.014193	-0.459200
H439	H	0.668766	0.034098	-0.442889
O440	O	0.726642	-0.700197	-0.005461
C441	C	0.682961	-0.730081	0.033818
H442	H	0.608313	-0.732687	0.045859
H443	H	0.715367	-0.681567	0.061652
C444	C	0.783989	-0.821539	0.008072
C445	C	0.692304	-0.824747	0.022859
H446	H	0.789755	-0.879931	0.001313
H447	H	0.813421	-0.801403	-0.018390
H448	H	0.810983	-0.781107	0.031270
H449	H	0.665314	-0.865169	-0.000341
H450	H	0.662867	-0.844892	0.049317
H451	H	-0.142704	-0.524425	-0.305055
H452	H	-0.297145	0.029698	-0.274103
O453	O	-0.762008	0.090359	-0.380466
C454	C	-0.718322	0.167741	-0.395996
H455	H	-0.643678	0.189804	-0.398303
H456	H	-0.750734	0.224284	-0.371302
C457	C	-0.819330	0.118986	-0.440367
C458	C	-0.727649	0.146080	-0.443205
H459	H	-0.825086	0.105626	-0.469487
H460	H	-0.848765	0.066854	-0.429903
H461	H	-0.846330	0.166109	-0.419787
H462	H	-0.700654	0.098953	-0.463780
H463	H	-0.698210	0.198204	-0.453673
H464	H	0.003321	-0.760550	-0.802778
O465	O	-0.352330	0.165977	-0.259980
C466	C	-0.289292	0.114683	-0.280152
H467	H	-0.316345	0.048412	-0.304397
H468	H	-0.278068	0.100290	-0.252642
C469	C	-0.165823	0.249010	-0.276823
C470	C	-0.199047	0.167618	-0.306603
H471	H	-0.110154	0.281663	-0.293138
H472	H	-0.208293	0.283568	-0.263231
H473	H	-0.156478	0.237004	-0.253900
H474	H	-0.208402	0.179625	-0.329522
H475	H	-0.156576	0.133063	-0.320200
O476	O	-0.731326	0.093816	0.255445
C477	C	-0.808492	0.019653	0.258888
H478	H	-0.802039	-0.034327	0.224823
H479	H	-0.871329	0.042417	0.268743
C480	C	-0.824546	0.047106	0.337194
C481	C	-0.816616	-0.019196	0.295356
H482	H	-0.829561	0.023143	0.359690
H483	H	-0.772560	0.097073	0.334875
H484	H	-0.876910	0.066070	0.345400
H485	H	-0.764248	-0.038151	0.287148
H486	H	-0.868594	-0.069168	0.297674
O487	O	0.003839	-0.384804	-0.612057
C488	C	0.084807	-0.385262	-0.608836
H489	H	0.137458	-0.391746	-0.643622
H490	H	0.071502	-0.444629	-0.596396
C491	C	0.055436	-0.288841	-0.532408
C492	C	0.120106	-0.296798	-0.575132
H493	H	0.077209	-0.234276	-0.511617
H494	H	0.000884	-0.288535	-0.534577
H495	H	0.044354	-0.338320	-0.522048
H496	H	0.131178	-0.247327	-0.585494
H497	H	0.174660	-0.297094	-0.572964
O498	O	-0.442940	0.188208	-0.304210
C499	C	-0.357267	0.236722	-0.297689
H500	H	-0.330349	0.192598	-0.290511
H501	H	-0.363453	0.299572	-0.267716
C502	C	-0.324748	0.318613	-0.349569
C503	C	-0.291684	0.264417	-0.340756
H504	H	-0.284293	0.335701	-0.376133
H505	H	-0.382469	0.285931	-0.353960
H506	H	-0.329902	0.370981	-0.324588
H507	H	-0.286541	0.212045	-0.365734
H508	H	-0.233960	0.297091	-0.336370
H509	H	0.107243	-0.392097	-0.234140
O510	O	0.177087	-0.669117	-0.527460
C511	C	0.152269	-0.758672	-0.526212
H512	H	0.196744	-0.765061	-0.510039
H513	H	0.161556	-0.805688	-0.562224
C514	C	-0.002089	-0.776509	-0.517914
C515	C	0.052531	-0.784354	-0.498047
H516	H	-0.063613	-0.792353	-0.500542
H517	H	0.014631	-0.716175	-0.518757
H518	H	0.005661	-0.815689	-0.547923
H519	H	0.044789	-0.745165	-0.468041
H520	H	0.035807	-0.844682	-0.497198
O521	O	-0.015787	-0.153079	-0.663199
C522	C	-0.012128	-0.126511	-0.618423
H523	H	0.020308	-0.171467	-0.615416
H524	H	-0.083536	-0.133073	-0.593966
C525	C	0.004674	0.027319	-0.610304
C526	C	0.044519	-0.027892	-0.606612
H527	H	0.039613	0.088153	-0.603017
H528	H	0.002205	0.009420	-0.640469
H529	H	-0.054831	0.021840	-0.589923
H530	H	0.104018	-0.022421	-0.626997
H531	H	0.046999	-0.009990	-0.576449
O532	O	-0.024357	-0.146906	-0.731970
C533	C	-0.100731	-0.142029	-0.693389
H534	H	-0.122547	-0.203399	-0.680856
H535	H	-0.158329	-0.140516	-0.702625
C536	C	-0.050085	0.019533	-0.671089
C537	C	-0.076875	-0.055840	-0.655695
H538	H	-0.035373	0.072700	-0.647838
H539	H	0.001367	0.016248	-0.697083
H540	H	-0.098089	0.020781	-0.678786
H541	H	-0.028868	-0.057093	-0.648003
H542	H	-0.128320	-0.052553	-0.629699
H543	H	0.182115	-0.525189	-0.530531
H544	H	0.544602	-0.156012	-0.528109
H545	H	-0.048864	-0.224020	-0.386283
H546	H	-0.503619	0.071273	-0.373665
