data_functionalizedCrystal
_audit_creation_method	'MofGen! by Chris Wilmer'
_symmetry_space_group_name_H-M	'P1'
_symmetry_Int_Tables_number	1
_symmetry_cell_setting	triclinic
loop_
_symmetry_equiv_pos_as_xyz
  x,y,z
_cell_length_a	23.532361
_cell_length_b	23.532357
_cell_length_c	22.010155
_cell_angle_alpha	89.998697
_cell_angle_beta	89.995873
_cell_angle_gamma	82.828980
loop_
_atom_site_label
_atom_site_type_symbol
_atom_site_fract_x
_atom_site_fract_y
_atom_site_fract_z
O1	O	0.755269	0.069002	-0.050471
O2	O	0.589400	0.079033	-0.050487
O3	O	0.677351	-0.008917	-0.050466
O4	O	0.667317	0.156952	-0.050492
O5	O	0.677335	-0.008903	0.050584
O6	O	0.589384	0.079047	0.050563
O7	O	0.755253	0.069015	0.050579
Cu8	Cu	0.672317	0.074032	0.059798
Cu9	Cu	0.672336	0.074017	-0.059706
O10	O	0.667302	0.156966	0.050558
C11	C	0.568175	0.078789	0.000036
C12	C	0.504957	0.078034	0.000031
C13	C	0.677092	-0.030127	0.000061
C14	C	0.676337	-0.093345	0.000066
C15	C	0.231722	0.074723	-0.055047
C16	C	0.291122	0.075438	-0.055049
O17	O	0.321855	0.075782	-0.101894
N18	N	0.320819	0.075806	0.000034
C19	C	0.291114	0.075454	0.055122
O20	O	0.321828	0.075832	0.101974
C21	C	0.231716	0.074735	0.055123
C22	C	0.202021	0.074372	0.000036
C23	C	0.202028	0.074360	-0.110129
C24	C	0.142632	0.073646	-0.110127
C25	C	0.112931	0.073295	-0.055044
C26	C	0.142626	0.073658	0.000038
C27	C	0.202013	0.074378	0.110210
C28	C	0.142611	0.073659	0.110206
C29	C	0.112916	0.073296	0.055120
C30	C	0.053529	0.072594	0.055124
N31	N	0.023832	0.072225	0.000041
C32	C	0.053533	0.072576	-0.055043
C33	C	0.415854	0.076963	0.055115
C34	C	0.475250	0.077686	0.055115
C35	C	0.475254	0.077669	-0.055056
C36	C	0.415856	0.076950	-0.055055
C37	C	0.386157	0.076594	0.000033
C38	C	-0.071202	0.071078	-0.055035
C39	C	-0.130604	0.070366	-0.055028
C40	C	-0.130602	0.070380	0.055142
C41	C	-0.071206	0.071095	0.055136
C42	C	-0.041508	0.071441	0.000043
O43	O	0.022758	0.072247	0.101944
O44	O	0.022813	0.072190	-0.101887
C45	C	0.671609	-0.485363	-0.055049
C46	C	0.670892	-0.544762	-0.055053
O47	O	0.670509	-0.575484	-0.101899
N48	N	0.670527	-0.574466	0.000029
C49	C	0.670875	-0.544767	0.055118
O50	O	0.670498	-0.575486	0.101969
C51	C	0.671588	-0.485368	0.055121
C52	C	0.671958	-0.455668	0.000035
C53	C	0.671979	-0.455663	-0.110130
C54	C	0.672697	-0.396267	-0.110127
C55	C	0.673046	-0.366573	-0.055042
C56	C	0.672676	-0.396273	0.000039
C57	C	0.671931	-0.455669	0.110209
C58	C	0.672643	-0.396266	0.110207
C59	C	0.673014	-0.366566	0.055122
C60	C	0.673743	-0.307183	0.055127
N61	N	0.674108	-0.277479	0.000046
C62	C	0.673759	-0.307174	-0.055039
C63	C	0.669376	-0.669508	0.055107
C64	C	0.668667	-0.728906	0.055105
C65	C	0.668683	-0.728897	-0.055066
C66	C	0.669396	-0.669499	-0.055063
C67	C	0.669740	-0.639804	0.000026
C68	C	0.675268	-0.182440	-0.055027
C69	C	0.675988	-0.123040	-0.055018
C70	C	0.675969	-0.123054	0.055152
C71	C	0.675251	-0.182449	0.055144
C72	C	0.674899	-0.212140	0.000049
O73	O	0.674124	-0.276422	0.101949
O74	O	0.674128	-0.276446	-0.101882
C75	C	0.776477	0.069260	0.000054
C76	C	0.839695	0.070015	0.000056
C77	C	0.667560	0.178176	0.000030
C78	C	0.668315	0.241394	0.000020
N79	N	0.672308	0.074043	0.143850
N80	N	0.672349	0.074002	-0.143758
C81	C	0.711283	0.035078	0.563639
C82	C	0.711285	0.035074	0.627246
O83	O	0.744400	0.001952	0.660146
N84	N	0.672335	0.074005	0.659057
C85	C	0.633376	0.112938	0.627257
O86	O	0.600246	0.146051	0.660156
C87	C	0.633371	0.112939	0.563651
C88	C	0.672328	0.074009	0.531843
C89	C	0.750235	-0.003849	0.531831
C90	C	0.750233	-0.003844	0.468228
C91	C	0.711278	0.035087	0.436432
C92	C	0.672326	0.074014	0.468240
C93	C	0.594410	0.151869	0.531852
C94	C	0.594408	0.151866	0.468241
C95	C	0.633365	0.112937	0.436434
C96	C	0.633369	0.112951	0.372841
N97	N	0.672319	0.074020	0.341030
C98	C	0.711273	0.035088	0.372826
C99	C	0.633389	0.112933	0.760835
C100	C	0.633396	0.112935	0.824440
C101	C	0.711304	0.035070	0.824425
C102	C	0.711299	0.035071	0.760819
C103	C	0.672339	0.074002	0.729024
C104	C	0.711266	0.035101	0.239255
C105	C	0.711262	0.035111	0.175646
C106	C	0.633352	0.112974	0.175667
C107	C	0.633358	0.112967	0.239270
C108	C	0.672317	0.074026	0.271062
O109	O	0.600269	0.146054	0.339902
O110	O	0.744393	0.001976	0.339920
H111	H	-0.154778	0.070073	-0.099888
C112	C	0.754147	-0.007755	0.725836
H113	H	0.777343	-0.030942	0.753888
H114	H	0.777732	0.012605	0.701016
H115	H	0.733795	-0.031361	0.701030
H116	H	-0.047029	0.071361	-0.099897
C117	C	0.668295	-0.761566	-0.115660
H118	H	0.668619	-0.735374	-0.148468
H119	H	0.634800	-0.780198	-0.117950
H120	H	0.701237	-0.789277	-0.117945
C121	C	0.590504	0.155796	0.140686
H122	H	0.567305	0.178985	0.168736
H123	H	0.566921	0.135429	0.115876
H124	H	0.610853	0.179400	0.115872
C125	C	0.668265	-0.761571	0.115699
H126	H	0.668571	-0.735373	0.148503
H127	H	0.701200	-0.789284	0.117996
H128	H	0.634763	-0.780198	0.117985
H129	H	0.391683	0.076655	-0.099911
C130	C	0.109944	0.073271	0.170804
H131	H	0.136139	0.073595	0.203607
H132	H	0.091310	0.039777	0.173102
H133	H	0.082235	0.106215	0.173091
C134	C	0.671512	-0.488328	0.170802
H135	H	0.671038	-0.527958	0.162921
H136	H	0.638405	-0.474045	0.193421
H137	H	0.704843	-0.483133	0.193445
H138	H	0.742987	0.003410	0.149750
H139	H	0.391675	0.076681	0.099977
H140	H	0.226204	0.074643	-0.154988
C141	C	0.109977	0.073232	-0.170723
H142	H	0.136182	0.073536	-0.203524
H143	H	0.082262	0.106165	-0.173031
H144	H	0.091354	0.039728	-0.173002
C145	C	0.673024	-0.363606	0.170806
H146	H	0.672705	-0.389806	0.203608
H147	H	0.640088	-0.335893	0.173095
H148	H	0.706525	-0.344978	0.173104
C149	C	-0.163274	0.069946	0.115730
H150	H	-0.202899	0.069448	0.107836
H151	H	-0.158100	0.103266	0.138395
H152	H	-0.148983	0.036829	0.138332
H153	H	0.499448	0.077954	-0.099908
C154	C	0.590551	0.155762	0.859425
H155	H	0.596130	0.150191	0.901862
H156	H	0.552579	0.149777	0.849002
H157	H	0.596517	0.193742	0.848999
C158	C	0.669765	-0.636851	0.115709
H159	H	0.669451	-0.663053	0.148509
H160	H	0.636828	-0.609139	0.118004
H161	H	0.703265	-0.618222	0.118003
H162	H	0.743023	0.003369	0.850325
H163	H	0.499421	0.077990	0.099972
C164	C	0.676392	-0.090373	-0.115614
H165	H	0.676075	-0.116567	-0.148420
H166	H	0.709888	-0.071741	-0.117903
H167	H	0.643451	-0.062661	-0.117906
C168	C	0.674846	-0.215120	0.115736
H169	H	0.675154	-0.188925	0.148542
H170	H	0.707778	-0.242837	0.118032
H171	H	0.641341	-0.233744	0.118018
C172	C	0.234664	0.074778	0.170806
H173	H	0.208460	0.074461	0.203606
H174	H	0.253294	0.108275	0.173097
H175	H	0.262375	0.041837	0.173105
H176	H	-0.047029	0.071401	0.099992
H177	H	0.601664	0.144640	0.734951
C178	C	0.674896	-0.215094	-0.115629
H179	H	0.675227	-0.188893	-0.148428
H180	H	0.641404	-0.233731	-0.117940
H181	H	0.707842	-0.242801	-0.117910
H182	H	0.672996	-0.372091	-0.154983
H183	H	0.671693	-0.479834	-0.154989
H184	H	0.562688	0.183569	0.557741
H185	H	0.669697	-0.645321	-0.099918
C186	C	0.551553	0.194695	0.433271
H187	H	0.528359	0.217880	0.461328
H188	H	0.527966	0.174334	0.408459
H189	H	0.571902	0.218302	0.408459
H190	H	0.601642	0.144672	0.265168
C191	C	0.676350	-0.090381	0.115741
H192	H	0.676823	-0.050752	0.107848
H193	H	0.709442	-0.104652	0.138384
H194	H	0.643005	-0.095574	0.138365
H195	H	0.781953	-0.035545	0.442334
C196	C	0.754123	-0.007730	0.274217
H197	H	0.777321	-0.030907	0.246157
H198	H	0.733783	-0.031337	0.299033
H199	H	0.777714	0.012635	0.299026
H200	H	0.781957	-0.035554	0.557713
