data_functionalizedCrystal
_audit_creation_method	'MofGen! by Chris Wilmer'
_symmetry_space_group_name_H-M	'P1'
_symmetry_Int_Tables_number	1
_symmetry_cell_setting	triclinic
loop_
_symmetry_equiv_pos_as_xyz
  x,y,z
_cell_length_a	14.519709
_cell_length_b	14.519709
_cell_length_c	12.996460
_cell_angle_alpha	90.007090
_cell_angle_beta	90.000034
_cell_angle_gamma	96.319855
loop_
_atom_site_label
_atom_site_type_symbol
_atom_site_fract_x
_atom_site_fract_y
_atom_site_fract_z
O1	O	1.223869	-0.120893	-0.085435
O2	O	1.723869	0.379107	0.414565
O3	O	0.955392	-0.135129	-0.085467
O4	O	1.455392	0.364871	0.414533
O5	O	1.096749	0.006227	-0.085441
O6	O	1.596749	0.506227	0.414559
O7	O	1.082512	-0.262250	-0.085461
O8	O	1.582512	0.237750	0.414539
O9	O	1.096734	0.006235	0.085693
O10	O	1.596734	0.506235	0.585693
O11	O	0.955377	-0.135122	0.085667
O12	O	1.455377	0.364878	0.585667
O13	O	1.223854	-0.120885	0.085699
O14	O	1.723854	0.379115	0.585699
Cu15	Cu	1.089614	-0.128003	0.101309
Cu16	Cu	1.589614	0.371997	0.601309
Cu17	Cu	1.089632	-0.128012	-0.101077
Cu18	Cu	1.589632	0.371988	0.398923
O19	O	1.082497	-0.262242	0.085673
O20	O	1.582497	0.237758	0.585673
C21	C	0.921025	-0.134462	0.000096
C22	C	1.421025	0.365538	0.500096
C23	C	0.818643	-0.132474	0.000084
C24	C	1.318643	0.367526	0.500084
C25	C	0.443748	-0.125154	0.000132
C26	C	0.943748	0.374846	0.500132
C27	C	0.548056	-0.127187	0.000118
C28	C	1.048056	0.372813	0.500118
C29	C	0.631192	-0.128814	0.000107
C30	C	1.131192	0.371186	0.500107
C31	C	0.735507	-0.130847	0.000095
C32	C	1.235507	0.369153	0.500095
C33	C	1.096078	0.040591	0.000126
C34	C	1.596078	0.540591	0.500126
C35	C	1.094090	0.142972	0.000126
C36	C	1.594090	0.642972	0.500126
C37	C	1.258221	-0.121553	0.000134
C38	C	1.758221	0.378447	0.500134
C39	C	1.360602	-0.123541	0.000139
C40	C	1.860602	0.376459	0.500139
C41	C	1.083168	-0.296605	0.000103
C42	C	1.583168	0.203395	0.500103
C43	C	1.085156	-0.398987	0.000096
C44	C	1.585156	0.101013	0.500096
N45	N	1.089609	-0.127996	0.243656
N46	N	1.589609	0.372004	0.743656
C47	C	1.086770	0.517868	0.000099
C48	C	1.586770	1.017868	0.500099
C49	C	1.088803	0.413560	0.000107
C50	C	1.588803	0.913560	0.500107
C51	C	1.090430	0.330423	0.000114
C52	C	1.590430	0.830423	0.500114
C53	C	1.092463	0.226109	0.000120
C54	C	1.592463	0.726109	0.500120
N55	N	1.089644	-0.128012	-0.243424
N56	N	1.589644	0.371988	0.256576
C57	C	1.089630	-0.128013	0.663470
C58	C	1.589630	0.371987	1.163470
C59	C	1.089622	-0.128011	0.546665
C60	C	1.589622	0.371989	1.046665
C61	C	1.089620	-0.128005	0.453567
C62	C	1.589620	0.371995	0.953567
C63	C	1.089610	-0.128002	0.336754
C64	C	1.589610	0.371998	0.836754
