data_functionalizedCrystal
_audit_creation_method	'MofGen! by Chris Wilmer'
_symmetry_space_group_name_H-M	'P1'
_symmetry_Int_Tables_number	1
_symmetry_cell_setting	triclinic
loop_
_symmetry_equiv_pos_as_xyz
  x,y,z
_cell_length_a	27.732048
_cell_length_b	12.837943
_cell_length_c	11.892113
_cell_angle_alpha	93.957626
_cell_angle_beta	85.609071
_cell_angle_gamma	91.264203
loop_
_atom_site_label
_atom_site_type_symbol
_atom_site_fract_x
_atom_site_fract_y
_atom_site_fract_z
O1	O	-0.650056	0.129107	0.093849
O2	O	-0.510192	0.147850	0.093882
O3	O	-0.577023	-0.012374	0.093867
O4	O	-0.583225	0.289332	0.093864
O5	O	-0.570962	-0.024107	-0.094138
O6	O	-0.504131	0.136118	-0.094124
O7	O	-0.643995	0.117375	-0.094156
Zn8	Zn	-0.573101	0.124884	-0.123990
Zn9	Zn	-0.581086	0.140341	0.123716
O10	O	-0.577164	0.277599	-0.094142
C11	C	-0.489135	0.141591	-0.000116
C12	C	-0.435422	0.140407	-0.000103
C13	C	-0.571897	-0.056827	-0.000132
C14	C	-0.565648	-0.171804	-0.000123
C15	C	-0.665052	0.123634	-0.000155
C16	C	-0.718765	0.124819	-0.000161
C17	C	-0.100927	0.227628	-0.000153
C18	C	0.100951	0.223232	-0.000163
O19	O	0.128256	0.302989	-0.000213
N20	N	0.124781	0.128227	-0.000160
C21	C	0.098140	0.034313	-0.000162
O22	O	0.123042	-0.046597	-0.000171
C23	C	-0.103737	0.038709	-0.000160
C24	C	-0.127565	0.133721	-0.000152
C25	C	-0.124756	0.322633	-0.000146
C26	C	-0.175222	0.323731	-0.000137
C27	C	-0.201860	0.229825	-0.000136
C28	C	-0.178032	0.134820	-0.000143
C29	C	-0.130377	-0.055204	-0.000170
C30	C	-0.180849	-0.054097	-0.000172
C31	C	-0.204678	0.040916	-0.000164
C32	C	-0.255136	0.042012	-0.000133
N33	N	-0.278967	0.137017	-0.000136
C34	C	-0.252329	0.230924	-0.000137
C35	C	0.204128	0.032011	-0.000161
C36	C	0.254597	0.030912	-0.000159
C37	C	0.257404	0.219832	-0.000163
C38	C	0.206934	0.220931	-0.000156
C39	C	0.180297	0.127017	-0.000164
C40	C	-0.358313	0.233223	-0.000118
C41	C	-0.408784	0.234313	-0.000105
C42	C	-0.411587	0.045394	-0.000108
C43	C	-0.361120	0.044303	-0.000115
C44	C	-0.334484	0.138226	-0.000124
O45	O	-0.282472	-0.037704	-0.000096
O46	O	-0.277239	0.311820	-0.000153
C47	C	-0.050460	0.226530	-0.000162
C48	C	-0.026632	0.131525	-0.000169
C49	C	-0.053270	0.037618	-0.000168
C50	C	0.023837	0.130426	-0.000168
C51	C	0.050475	0.224332	-0.000169
C52	C	0.026644	0.319338	-0.000172
C53	C	-0.023822	0.320436	-0.000164
C54	C	-0.029439	-0.057387	-0.000164
C55	C	0.021028	-0.058478	-0.000172
C56	C	0.047666	0.035429	-0.000173
C57	C	-0.582290	0.322052	-0.000139
C58	C	-0.588540	0.437029	-0.000141
N59	N	-0.567655	0.114334	-0.293043
C60	C	-0.513412	0.679194	-0.000103
C61	C	-0.519281	0.787225	-0.000104
C62	C	-0.606148	0.761127	-0.000137
C63	C	-0.600278	0.653095	-0.000136
C64	C	-0.553909	0.612133	-0.000120
C65	C	-0.548039	0.504098	-0.000127
C66	C	-0.634906	0.478003	-0.000152
C67	C	-0.640776	0.586035	-0.000153
C68	C	-0.624430	0.224347	-0.529706
C69	C	-0.620627	0.216964	-0.648047
C70	C	-0.556247	0.092179	-0.648067
C71	C	-0.560051	0.099562	-0.529727
C72	C	-0.594143	0.165650	-0.470550
C73	C	-0.597943	0.173038	-0.352207
C74	C	-0.533566	0.048248	-0.352230
C75	C	-0.529763	0.040865	-0.470571
N76	N	-0.586536	0.150883	0.292768
H77	H	-0.336631	0.309704	-0.000129
H78	H	-0.508902	0.000458	-0.304053
O79	O	-0.519481	0.020899	-0.711905
H80	H	-0.494076	0.067583	-0.765825
O81	O	-0.661197	0.295631	-0.465878
H82	H	-0.642334	0.355013	-0.411978
O83	O	-0.656158	0.805319	-0.000137
H84	H	-0.658441	0.849135	-0.076765
O85	O	-0.475601	0.859554	-0.000102
H86	H	-0.456116	0.849853	0.076526
H87	H	-0.678528	0.619401	-0.000170
H88	H	-0.428183	0.311687	-0.000097
O89	O	-0.058168	-0.158677	-0.000161
H90	H	-0.033114	-0.224916	-0.000154
H91	H	-0.341719	-0.033063	-0.000105
H92	H	-0.625701	0.226854	-0.304027
O93	O	-0.678589	0.405673	-0.000183
H94	H	-0.703019	0.424931	0.076429
O95	O	-0.653291	0.280277	-0.711856
H96	H	-0.677633	0.327475	-0.650821
H97	H	-0.194619	0.401100	-0.000130
O98	O	0.181235	0.323407	-0.000154
H99	H	0.160775	0.323644	-0.076782
O100	O	-0.498029	0.459909	-0.000106
H101	H	-0.470856	0.524696	-0.000082
H102	H	-0.475655	0.645840	-0.000111
O103	O	-0.492991	-0.030408	-0.534397
H104	H	-0.495431	-0.025676	-0.626626
O105	O	0.055383	0.420622	-0.000176
H106	H	0.030339	0.486880	-0.000167
O107	O	-0.096028	0.423925	-0.000149
H108	H	-0.107510	0.474201	0.076486
O109	O	0.286139	0.321120	-0.000181
H110	H	0.325236	0.304383	-0.000194
H111	H	0.273993	-0.046455	-0.000149
H112	H	0.182444	-0.044469	-0.000167
H113	H	-0.202535	-0.130575	-0.000180
O114	O	-0.104682	-0.157684	-0.000203
H115	H	-0.131692	-0.222789	-0.000223
H116	H	-0.043219	0.397805	-0.000158
O117	O	-0.440321	-0.055891	-0.000122
H118	H	-0.479417	-0.039156	-0.000133
H119	H	0.040424	-0.135854	-0.000170
