data_functionalizedCrystal
_audit_creation_method	'MofGen! by Chris Wilmer'
_symmetry_space_group_name_H-M	'P1'
_symmetry_Int_Tables_number	1
_symmetry_cell_setting	triclinic
loop_
_symmetry_equiv_pos_as_xyz
  x,y,z
_cell_length_a	21.295418
_cell_length_b	21.295417
_cell_length_c	21.395356
_cell_angle_alpha	89.969378
_cell_angle_beta	89.957220
_cell_angle_gamma	90.046319
loop_
_atom_site_label
_atom_site_type_symbol
_atom_site_fract_x
_atom_site_fract_y
_atom_site_fract_z
Zn1	Zn	0.962350	-0.250359	-0.354570
Zn2	Zn	1.462350	0.249641	0.145430
Zn3	Zn	0.962254	-0.355628	-0.249787
Zn4	Zn	1.462254	0.144372	0.250213
Zn5	Zn	0.857075	-0.250405	-0.249771
Zn6	Zn	1.357075	0.249595	0.250229
Zn7	Zn	0.857042	-0.355624	-0.354492
Zn8	Zn	1.357042	0.144376	0.145508
O9	O	0.909680	-0.303004	-0.302155
O10	O	1.409680	0.196996	0.197845
O11	O	1.050427	-0.264306	-0.340709
O12	O	1.550427	0.235694	0.159291
O13	O	0.948275	-0.341691	-0.162107
O14	O	1.448275	0.158309	0.337893
O15	O	0.871093	-0.162310	-0.263699
O16	O	1.371093	0.337690	0.236301
O17	O	1.050356	-0.341646	-0.263725
O18	O	1.550356	0.158354	0.236275
O19	O	0.948439	-0.162276	-0.340694
O20	O	1.448439	0.337724	0.159306
O21	O	0.871000	-0.264384	-0.162095
O22	O	1.371000	0.235616	0.337905
O23	O	0.768981	-0.264380	-0.263624
O24	O	1.268981	0.235620	0.236376
O25	O	0.871038	-0.341639	-0.442180
O26	O	1.371038	0.158361	0.057820
O27	O	0.768957	-0.341684	-0.340561
O28	O	1.268957	0.158316	0.159439
O29	O	0.948407	-0.264302	-0.442237
O30	O	1.448407	0.235698	0.057763
O31	O	0.948244	-0.443717	-0.263650
O32	O	1.448244	0.056283	0.236350
O33	O	0.870945	-0.443714	-0.340576
O34	O	1.370945	0.056286	0.159424
C35	C	0.746129	-0.303037	-0.302083
C36	C	1.246129	0.196963	0.197917
C37	C	0.676160	-0.303067	-0.302067
C38	C	1.176160	0.196933	0.197933
C39	C	0.643298	-0.343372	-0.342068
C40	C	1.143298	0.156628	0.157932
C41	C	0.577555	-0.343356	-0.342096
C42	C	1.077555	0.156644	0.157904
C43	C	0.544678	-0.303042	-0.302112
C44	C	1.044678	0.196958	0.197888
C45	C	0.577549	-0.262729	-0.262107
C46	C	1.077549	0.237271	0.237893
C47	C	0.643290	-0.262741	-0.262085
C48	C	1.143290	0.237259	0.237915
N49	N	0.441403	-0.298124	-0.247311
N50	N	0.941403	0.201876	0.252689
N51	N	0.378952	-0.298116	-0.247335
N52	N	0.878952	0.201884	0.252665
C53	C	0.346603	-0.303002	-0.302178
C54	C	0.846603	0.196998	0.197822
N55	N	0.379066	-0.307909	-0.356999
N56	N	0.879066	0.192091	0.143001
N57	N	0.441523	-0.307920	-0.356975
N58	N	0.941523	0.192080	0.143025
C59	C	0.473393	-0.303024	-0.302132
C60	C	0.973393	0.196976	0.197868
C61	C	0.242455	-0.343293	-0.342214
C62	C	0.742455	0.156707	0.157786
C63	C	0.176712	-0.343273	-0.342243
C64	C	0.676712	0.156727	0.157757
C65	C	0.176706	-0.262649	-0.262248
C66	C	0.676706	0.237351	0.237752
C67	C	0.242448	-0.262665	-0.262225
C68	C	0.742448	0.237335	0.237775
C69	C	0.275319	-0.302991	-0.302207
C70	C	0.775319	0.197009	0.197793
C71	C	0.909598	-0.466556	-0.302120
C72	C	1.409598	0.033444	0.197880
C73	C	0.909620	-0.536524	-0.302126
C74	C	1.409620	-0.036524	0.197874
C75	C	0.949905	-0.569371	-0.262112
C76	C	1.449905	-0.069371	0.237888
C77	C	0.949935	-0.635114	-0.262126
C78	C	1.449935	-0.135114	0.237874
C79	C	0.909668	-0.668006	-0.302148
C80	C	1.409668	-0.168006	0.197852
C81	C	0.869380	-0.635151	-0.342170
C82	C	1.369380	-0.135151	0.157830
C83	C	0.869356	-0.569410	-0.342159
C84	C	1.369356	-0.069410	0.157841
N85	N	0.854601	-0.771287	-0.306900
N86	N	1.354601	-0.271287	0.193100
N87	N	0.854625	-0.833739	-0.306907
N88	N	1.354625	-0.333739	0.193093
C89	C	0.909738	-0.866081	-0.302184
C90	C	1.409738	-0.366081	0.197816
N91	N	0.964827	-0.833612	-0.297442
N92	N	1.464827	-0.333612	0.202558
N93	N	0.964802	-0.771155	-0.297432
N94	N	1.464802	-0.271155	0.202568
C95	C	0.909690	-0.739292	-0.302164
C96	C	1.409690	-0.239292	0.197836
C97	C	0.950059	-0.970214	-0.262182
C98	C	1.450059	-0.470214	0.237818
C99	C	0.950089	-1.035957	-0.262201
C100	C	1.450089	-0.535957	0.237799
C101	C	0.869529	-1.035994	-0.342242
C102	C	1.369529	-0.535994	0.157758
C103	C	0.869504	-0.970251	-0.342227
C104	C	1.369504	-0.470251	0.157773
C105	C	0.909768	-0.937365	-0.302194
C106	C	1.409768	-0.437365	0.197806
C107	C	1.073871	-0.302971	-0.302228
C108	C	1.573871	0.197029	0.197772
C109	C	1.143839	-0.302957	-0.302259
C110	C	1.643839	0.197043	0.197741
C111	C	0.909730	-0.302965	-0.465578
C112	C	1.409730	0.197035	0.034422
C113	C	0.909751	-0.302948	-0.535219
C114	C	1.409751	0.197052	-0.035219
C115	C	0.909780	-0.138814	-0.302203
C116	C	1.409780	0.361186	0.197797
C117	C	0.909823	-0.068846	-0.302224
C118	C	1.409823	0.431154	0.197776
C119	C	0.869525	-0.262690	-0.567917
C120	C	1.369525	0.237310	-0.067917
C121	C	0.869523	-0.262679	-0.633352
C122	C	1.369523	0.237321	-0.133352
C123	C	0.909758	-0.302918	-0.666088
C124	C	1.409758	0.197082	-0.166088
C125	C	0.949987	-0.343184	-0.633383
C126	C	1.449987	0.156816	-0.133383
C127	C	0.949983	-0.343199	-0.567948
C128	C	1.449983	0.156801	-0.067948
C129	C	0.966475	-0.307852	-0.769793
C130	C	1.466475	0.192148	-0.269793
C131	C	0.966479	-0.307832	-0.835226
C132	C	1.466479	0.192168	-0.335226
C133	C	0.909768	-0.302876	-0.867909
C134	C	1.409768	0.197124	-0.367909
C135	C	0.853051	-0.297926	-0.835151
C136	C	1.353051	0.202074	-0.335151
C137	C	0.853047	-0.297941	-0.769716
C138	C	1.353047	0.202059	-0.269716
C139	C	0.909766	-0.302907	-0.737040
C140	C	1.409766	0.197093	-0.237040
C141	C	0.869536	-0.262603	-0.971559
C142	C	1.369536	0.237397	-0.471559
C143	C	0.869533	-0.262596	-1.036995
C144	C	1.369533	0.237404	-0.536995
C145	C	0.950003	-0.343098	-1.037024
C146	C	1.450003	0.156902	-0.537024
C147	C	0.950001	-0.343109	-0.971589
C148	C	1.450001	0.156891	-0.471589
C149	C	0.909768	-0.302858	-0.938860
C150	C	1.409768	0.197142	-0.438860
C151	C	0.909667	-0.302998	-0.139367
C152	C	1.409667	0.197002	0.360633
C153	C	0.909768	-0.302837	-0.069726
C154	C	1.409768	0.197163	0.430274
H155	H	0.149956	-0.376093	-0.374821
H156	H	0.649956	0.123907	0.125179
N157	N	0.826049	-0.934818	-0.385381
N158	N	1.326049	-0.434818	0.114619
H159	H	0.800543	-0.965629	-0.410737
H160	H	1.300543	-0.465629	0.089263
H161	H	0.796922	-0.907595	-0.359833
H162	H	1.296922	-0.407595	0.140167
N163	N	0.993382	-0.670544	-0.218954
N164	N	1.493382	-0.170544	0.281046
H165	H	0.967816	-0.697867	-0.189896
H166	H	1.467816	-0.197867	0.310104
H167	H	1.022548	-0.697735	-0.244492
H168	H	1.522548	-0.197735	0.255508
N169	N	0.826136	-0.219201	-0.936255
N170	N	1.326136	0.280799	-0.436255
H171	H	0.832240	-0.225316	-0.889840
H172	H	1.332240	0.274684	-0.389840
H173	H	0.835959	-0.174239	-0.947715
H174	H	1.335959	0.325761	-0.447715
H175	H	0.670057	-0.376207	-0.374626
H176	H	1.170057	0.123793	0.125374
H177	H	0.982743	-0.375981	-0.541327
H178	H	1.482743	0.124019	-0.041327
H179	H	1.012660	-0.311883	-0.743188
H180	H	1.512660	0.188117	-0.243188
H181	H	0.550776	-0.229904	-0.229553
H182	H	1.050776	0.270096	0.270447
H183	H	0.836772	-0.229815	-1.063616
H184	H	1.336772	0.270185	-0.563616
N185	N	1.027649	-0.313171	-0.870555
N186	N	1.527649	0.186829	-0.370555
H187	H	1.063574	-0.316322	-0.839923
H188	H	1.563574	0.183678	-0.339923
H189	H	1.026715	-0.351952	-0.897692
H190	H	1.526715	0.148048	-0.397692
N191	N	0.678739	-0.219263	-0.218943
N192	N	1.178739	0.280737	0.281057
H193	H	0.647938	-0.193717	-0.193619
H194	H	1.147938	0.306283	0.306381
H195	H	0.705959	-0.244850	-0.189889
H196	H	1.205959	0.255150	0.310111
H197	H	0.982898	-1.062701	-0.229618
H198	H	1.482898	-0.562701	0.270382
H199	H	0.149938	-0.229821	-0.229695
H200	H	0.649938	0.270179	0.270305
H201	H	0.269205	-0.229848	-0.229648
H202	H	0.769205	0.270152	0.270352
H203	H	0.982765	-0.375861	-1.063677
H204	H	1.482765	0.124139	-0.563677
H205	H	0.982747	-0.375948	-0.660040
H206	H	1.482747	0.124052	-0.160040
H207	H	0.836746	-1.062774	-0.374831
H208	H	1.336746	-0.562774	0.125169
N209	N	0.542100	-0.386829	-0.385244
N210	N	1.042100	0.113171	0.114756
H211	H	0.572899	-0.412375	-0.410569
H212	H	1.072899	0.087625	0.089431
H213	H	0.514767	-0.415918	-0.359690
H214	H	1.014767	0.084082	0.140310
N215	N	0.826140	-0.219272	-0.532616
N216	N	1.326140	0.280728	-0.032616
H217	H	0.800659	-0.193764	-0.563263
H218	H	1.300659	0.306236	-0.063263
H219	H	0.796987	-0.244898	-0.505435
H220	H	1.296987	0.255102	-0.005435
N221	N	0.277914	-0.386778	-0.385339
N222	N	0.777914	0.113222	0.114661
H223	H	0.305129	-0.415923	-0.359811
H224	H	0.805129	0.084077	0.140189
H225	H	0.247077	-0.412264	-0.410679
H226	H	0.747077	0.087736	0.089321
N227	N	0.826134	-0.219257	-0.668630
N228	N	1.326134	0.280743	-0.168630
H229	H	0.800646	-0.193762	-0.637967
H230	H	1.300646	0.306238	-0.137967
H231	H	0.851782	-0.190118	-0.695804
H232	H	1.351782	0.309882	-0.195804
N233	N	0.993340	-0.533901	-0.218944
N234	N	1.493340	-0.033901	0.281056
H235	H	1.018868	-0.564690	-0.193600
H236	H	1.518868	-0.064690	0.306400
H237	H	1.022447	-0.506578	-0.244487
H238	H	1.522447	-0.006578	0.255513
N239	N	0.825950	-0.670624	-0.385339
N240	N	1.325950	-0.170624	0.114661
H241	H	0.832076	-0.717255	-0.379273
H242	H	1.332076	-0.217255	0.120727
H243	H	0.780994	-0.659190	-0.375530
H244	H	1.280994	-0.159190	0.124470
H245	H	0.836550	-0.542665	-0.374745
H246	H	1.336550	-0.042665	0.125255
N247	N	0.993485	-0.934738	-0.219008
N248	N	1.493485	-0.434738	0.280992
H249	H	1.019014	-0.965525	-0.193664
H250	H	1.519014	-0.465525	0.306336
H251	H	1.022591	-0.907406	-0.244543
H252	H	1.522591	-0.407406	0.255457
H253	H	0.806866	-0.293911	-0.743047
H254	H	1.306866	0.206089	-0.243047
N255	N	0.791875	-0.292613	-0.870390
N256	N	1.291875	0.207387	-0.370390
H257	H	0.800479	-0.293370	-0.916813
H258	H	1.300479	0.206630	-0.416813
H259	H	0.763734	-0.329038	-0.858904
H260	H	1.263734	0.170962	-0.358904
H261	H	0.982759	-0.375890	-0.944967
H262	H	1.482759	0.124110	-0.444967
