data_functionalizedCrystal
_audit_creation_method	'MofGen! by Chris Wilmer'
_symmetry_space_group_name_H-M	'P1'
_symmetry_Int_Tables_number	1
_symmetry_cell_setting	triclinic
loop_
_symmetry_equiv_pos_as_xyz
  x,y,z
_cell_length_a	35.277628
_cell_length_b	35.288095
_cell_length_c	35.277682
_cell_angle_alpha	59.997929
_cell_angle_beta	89.998958
_cell_angle_gamma	60.000166
loop_
_atom_site_label
_atom_site_type_symbol
_atom_site_fract_x
_atom_site_fract_y
_atom_site_fract_z
O1	O	-0.323087	-0.271234	0.011271
O2	O	-0.267964	-0.193634	-0.011228
O3	O	-0.267962	-0.271233	0.066395
O4	O	-0.323089	-0.193635	-0.066351
O5	O	-0.204915	-0.334261	0.066394
O6	O	-0.204918	-0.256661	-0.011228
O7	O	-0.260040	-0.334261	0.011271
Zn8	Zn	-0.222469	-0.305468	0.000022
Zn9	Zn	-0.305535	-0.222427	0.000022
O10	O	-0.260043	-0.256662	-0.066351
C11	C	-0.163481	-0.071298	-0.023519
C12	C	-0.186872	-0.024531	-0.020298
C13	C	-0.117860	-0.093995	-0.023838
C14	C	-0.163483	-0.139918	-0.023524
C15	C	-0.186875	-0.166518	-0.020308
C16	C	-0.117862	-0.162510	-0.023843
C17	C	-0.094838	-0.139921	-0.023519
C18	C	-0.044836	-0.166525	-0.020298
C19	C	-0.186401	-0.093991	-0.023843
C20	C	-0.004439	-0.188019	-0.017694
C21	C	-0.205769	0.013252	-0.017695
C22	C	-0.205774	-0.188010	-0.017709
C23	C	0.046241	-0.214983	-0.014429
C24	C	-0.229477	0.060653	-0.014430
C25	C	-0.229483	-0.214971	-0.014450
C26	C	-0.500364	-0.466062	0.034181
C27	C	-0.477341	-0.511990	0.034503
C28	C	-0.431722	-0.466060	0.034178
C29	C	-0.408804	-0.511988	0.034500
C30	C	-0.431721	-0.534685	0.034181
C31	C	-0.477342	-0.443470	0.034500
C32	C	-0.665895	-0.342485	0.021756
C33	C	-0.712772	-0.317221	0.018243
C34	C	-0.736287	-0.338907	0.016481
C35	C	-0.787116	-0.311512	0.012664
C36	C	-0.712921	-0.385861	0.018236
C37	C	-0.666047	-0.411125	0.021755
C38	C	-0.642533	-0.389434	0.023515
C39	C	-0.389805	-0.687746	0.021758
C40	C	-0.368199	-0.731097	0.018245
C41	C	-0.322995	-0.752841	0.016478
C42	C	-0.299567	-0.799839	0.012662
C43	C	-0.299393	-0.731235	0.018230
C44	C	-0.320995	-0.687892	0.021751
C45	C	-0.366205	-0.666148	0.023512
C46	C	-0.389808	-0.342477	0.021744
C47	C	-0.368205	-0.317208	0.018222
C48	C	-0.322998	-0.338892	0.016457
C49	C	-0.299573	-0.311495	0.012637
C50	C	-0.299398	-0.385842	0.018210
C51	C	-0.321003	-0.411107	0.021730
C52	C	-0.366208	-0.389423	0.023501
C53	C	-0.591706	-0.416830	0.027326
C54	C	-0.551191	-0.438667	0.030366
C55	C	-0.408299	-0.438663	0.030360
C56	C	-0.389629	-0.416824	0.027317
C57	C	-0.408298	-0.581682	0.030365
C58	C	-0.389627	-0.619146	0.027325
C59	C	-0.432024	-0.061845	-0.438511
C60	C	-0.477645	-0.015917	-0.461431
C61	C	-0.432025	-0.061844	-0.369869
C62	C	-0.477645	-0.015916	-0.392892
C63	C	-0.500668	0.006779	-0.438513
C64	C	-0.409106	-0.084435	-0.392891
C65	C	-0.320834	-0.185425	-0.480424
C66	C	-0.299076	-0.210690	-0.502029
C67	C	-0.322531	-0.189005	-0.547237
C68	C	-0.298945	-0.216401	-0.570661
C69	C	-0.367745	-0.142051	-0.570839
C70	C	-0.389497	-0.116787	-0.549237
C71	C	-0.366040	-0.138476	-0.504027
C72	C	-0.666200	0.159838	-0.549704
C73	C	-0.713077	0.203188	-0.571462
C74	C	-0.736595	0.224934	-0.548009
C75	C	-0.787423	0.271931	-0.571594
C76	C	-0.713230	0.203329	-0.502796
C77	C	-0.666353	0.159987	-0.481041
C78	C	-0.642841	0.138241	-0.504500
C79	C	-0.320836	-0.185423	-0.204335
C80	C	-0.299080	-0.210691	-0.157455
C81	C	-0.322536	-0.189006	-0.133940
C82	C	-0.298950	-0.216402	-0.083110
C83	C	-0.367748	-0.142056	-0.157305
C84	C	-0.389502	-0.116792	-0.204182
C85	C	-0.366040	-0.138478	-0.227695
C86	C	-0.389632	-0.111079	-0.480604
C87	C	-0.408436	-0.089241	-0.461934
C88	C	-0.408437	-0.089240	-0.319041
C89	C	-0.389634	-0.111078	-0.278525
C90	C	-0.551496	0.053776	-0.462102
C91	C	-0.592011	0.091239	-0.480906
O92	O	0.196122	-0.334274	0.011291
O93	O	0.063378	-0.256674	-0.011208
O94	O	0.140994	-0.334276	0.066414
O95	O	0.118506	-0.256671	-0.066331
O96	O	0.140996	-0.271251	0.066419
O97	O	0.063380	-0.193649	-0.011203
O98	O	0.196124	-0.271249	0.011296
Zn99	Zn	0.129752	-0.222442	0.000047
Zn100	Zn	0.129750	-0.305480	0.000041
O101	O	0.118508	-0.193647	-0.066327
O102	O	-0.260036	0.184774	0.011294
O103	O	-0.204910	0.074561	-0.011204
O104	O	-0.204913	0.074554	0.066418
O105	O	-0.260033	0.184781	-0.066328
O106	O	-0.267961	0.074557	0.066413
O107	O	-0.267958	0.074564	-0.011209
O108	O	-0.323083	0.184777	0.011289
Zn109	Zn	-0.305531	0.129671	0.000039
Zn110	Zn	-0.222463	0.129667	0.000046
O111	O	-0.323081	0.184784	-0.066333
O112	O	-0.936929	0.397535	-0.602582
O113	O	-0.804185	0.287317	-0.547454
O114	O	-0.881802	0.287315	-0.547452
O115	O	-0.859312	0.397537	-0.602584
O116	O	-0.881801	0.287314	-0.610498
O117	O	-0.804183	0.287316	-0.610500
O118	O	-0.936927	0.397533	-0.665628
Zn119	Zn	-0.870555	0.342425	-0.648073
Zn120	Zn	-0.870557	0.342426	-0.565008
O121	O	-0.859310	0.397536	-0.665629
O122	O	-0.267961	-0.271234	-0.665316
O123	O	-0.323086	-0.193638	-0.610192
O124	O	-0.323085	-0.271236	-0.610189
O125	O	-0.267962	-0.193636	-0.665319
O126	O	-0.260038	-0.334264	-0.547142
O127	O	-0.260039	-0.256666	-0.547145
O128	O	-0.204914	-0.334262	-0.602269
Zn129	Zn	-0.222466	-0.305471	-0.564697
Zn130	Zn	-0.305534	-0.222429	-0.647764
O131	O	-0.204915	-0.256664	-0.602272
C132	C	-0.094840	-0.456607	0.293255
C133	C	-0.044837	-0.503376	0.316647
C134	C	-0.117862	-0.433912	0.316174
C135	C	-0.163483	-0.387984	0.224612
C136	C	-0.186875	-0.361381	0.174609
C137	C	-0.186401	-0.365393	0.247634
C138	C	-0.163483	-0.387984	0.293255
C139	C	-0.186874	-0.361382	0.316646
C140	C	-0.117862	-0.433912	0.247635
C141	C	-0.205772	-0.339889	0.335543
C142	C	-0.004440	-0.541160	0.335545
C143	C	-0.205773	-0.339888	0.134212
C144	C	-0.229480	-0.312925	0.359250
C145	C	0.046239	-0.588562	0.359254
C146	C	-0.229481	-0.312924	0.083532
C147	C	0.153295	-0.388013	0.293279
C148	C	0.150076	-0.361413	0.316673
C149	C	0.153614	-0.433940	0.316196
C150	C	0.153297	-0.388008	0.224634
C151	C	0.150079	-0.361403	0.174632
C152	C	0.153616	-0.433935	0.247655
C153	C	0.153293	-0.456633	0.293275
C154	C	0.150072	-0.503401	0.316665
C155	C	0.153617	-0.365420	0.247659
C156	C	0.147469	-0.541185	0.335561
C157	C	0.147474	-0.339922	0.335572
C158	C	0.147479	-0.339908	0.134234
C159	C	0.144204	-0.588587	0.359267
C160	C	0.144211	-0.312962	0.359282
C161	C	0.144218	-0.312942	0.083555
C162	C	-0.163482	-0.139963	0.293267
C163	C	-0.186875	-0.166567	0.316654
C164	C	-0.117861	-0.162559	0.316187
C165	C	-0.163482	-0.071333	0.224628
C166	C	-0.186873	-0.024557	0.174627
C167	C	-0.117860	-0.094033	0.247653
C168	C	-0.094838	-0.139967	0.293272
C169	C	-0.044835	-0.166574	0.316665
C170	C	-0.186401	-0.094030	0.247648
C171	C	-0.004438	-0.188070	0.335563
C172	C	-0.205773	-0.188061	0.335549
C173	C	-0.205771	0.013233	0.134231
C174	C	0.046242	-0.215038	0.359273
C175	C	-0.229482	-0.215026	0.359253
C176	C	-0.229479	0.060643	0.083553
C177	C	0.095627	0.006487	-0.438489
C178	C	0.095306	-0.016206	-0.461409
C179	C	0.095623	-0.062137	-0.369847
C180	C	0.095303	-0.084726	-0.392871
C181	C	0.095625	-0.062133	-0.438492
C182	C	0.095305	-0.016210	-0.392868
C183	C	0.108059	0.159543	-0.480399
C184	C	0.111575	0.202893	-0.502003
C185	C	0.113340	0.224640	-0.547210
C186	C	0.117161	0.271637	-0.570634
C187	C	0.111587	0.203038	-0.570814
C188	C	0.108065	0.159695	-0.549212
C189	C	0.106302	0.137948	-0.504002
C190	C	0.108054	-0.116452	-0.549685
C191	C	0.111568	-0.141562	-0.571444
C192	C	0.113332	-0.188519	-0.547992
C193	C	0.117148	-0.215753	-0.571578
C194	C	0.111577	-0.210363	-0.502779
C195	C	0.108055	-0.185249	-0.481023
C196	C	0.106297	-0.138292	-0.504481
C197	C	0.108046	-0.116473	-0.204312
C198	C	0.111564	-0.141591	-0.157432
C199	C	0.113326	-0.188548	-0.133918
C200	C	0.117142	-0.215786	-0.083088
C201	C	0.111574	-0.210388	-0.157283
C202	C	0.108058	-0.185270	-0.204161
C203	C	0.106290	-0.138308	-0.227673
C204	C	0.102487	0.090947	-0.480580
C205	C	0.099445	0.053484	-0.461911
C206	C	0.099438	-0.089371	-0.319019
C207	C	0.102477	-0.111078	-0.278503
C208	C	0.099442	-0.089362	-0.462081
C209	C	0.102482	-0.111066	-0.480886
O210	O	0.118477	-0.256700	0.452885
O211	O	0.140984	-0.334299	0.397762
O212	O	0.063360	-0.256699	0.397752
O213	O	0.196101	-0.334300	0.452895
O214	O	0.063367	-0.193672	0.334708
O215	O	0.140992	-0.271271	0.334718
O216	O	0.118484	-0.193673	0.389842
Zn217	Zn	0.129739	-0.222465	0.352270
Zn218	Zn	0.129729	-0.305506	0.435333
O219	O	0.196108	-0.271272	0.389852
C220	C	-0.500364	0.533998	-0.438484
C221	C	-0.477341	0.556591	-0.461399
C222	C	-0.431721	0.465364	-0.369840
C223	C	-0.408802	0.488061	-0.392859
C224	C	-0.431720	0.533995	-0.438478
C225	C	-0.477342	0.488064	-0.392865
C226	C	-0.665898	0.588334	-0.480407
C227	C	-0.712776	0.613450	-0.502014
C228	C	-0.736291	0.660414	-0.547220
C229	C	-0.787122	0.687654	-0.570647
C230	C	-0.712926	0.682257	-0.570819
C231	C	-0.666050	0.657138	-0.549214
C232	C	-0.642536	0.610174	-0.504006
C233	C	-0.389802	0.657585	-0.549654
C234	C	-0.368196	0.682850	-0.571408
C235	C	-0.322990	0.661164	-0.547952
C236	C	-0.299561	0.688558	-0.571532
C237	C	-0.299388	0.614205	-0.502740
C238	C	-0.320990	0.588935	-0.480990
C239	C	-0.366202	0.610633	-0.504452
C240	C	-0.389804	0.312282	-0.204314
C241	C	-0.368201	0.268929	-0.157436
C242	C	-0.322993	0.247179	-0.133918
C243	C	-0.299567	0.200174	-0.083089
C244	C	-0.299392	0.268786	-0.157278
C245	C	-0.320998	0.312139	-0.204154
C246	C	-0.366204	0.333881	-0.227670
C247	C	-0.591708	0.582942	-0.480581
C248	C	-0.551193	0.561234	-0.461909
C249	C	-0.408297	0.418359	-0.319013
C250	C	-0.389626	0.380890	-0.278499
C251	C	-0.408296	0.561393	-0.462062
C252	C	-0.389624	0.583232	-0.480862
H253	H	-0.371321	-0.530978	0.035012
H254	H	-0.371318	0.469063	-0.374372
O255	O	-0.391061	-0.271638	0.016577
C256	C	-0.365966	-0.280196	0.054434
H257	H	-0.327972	-0.314613	0.067197
H258	H	-0.381001	-0.290661	0.083726
C259	C	-0.416232	-0.186645	0.023304
C260	C	-0.369566	-0.228913	0.038977
H261	H	-0.418454	-0.155011	0.013770
H262	H	-0.433140	-0.180879	-0.002200
H263	H	-0.428755	-0.195373	0.047716
H264	H	-0.357044	-0.220188	0.014563
H265	H	-0.352656	-0.234676	0.064477
H266	H	0.154138	-0.452930	0.229170
H267	H	-0.223885	-0.074993	-0.024363
O268	O	-0.231090	-0.071404	0.225547
C269	C	-0.233631	-0.071146	0.185524
H270	H	-0.198129	-0.103644	0.189720
H271	H	-0.244704	-0.030377	0.153907
C272	C	-0.313008	-0.042124	0.173696
C273	C	-0.269405	-0.082041	0.178850
H274	H	-0.335077	-0.048842	0.169577
H275	H	-0.311297	-0.042296	0.200659
H276	H	-0.322229	-0.008153	0.147348
H277	H	-0.260182	-0.116009	0.205201
H278	H	-0.271115	-0.081875	0.151892
O279	O	-0.231091	-0.321246	0.225583
C280	C	-0.233621	-0.278959	0.223301
H281	H	-0.198119	-0.286148	0.226285
H282	H	-0.244679	-0.277058	0.253016
C283	C	-0.313007	-0.216793	0.172976
C284	C	-0.269404	-0.225621	0.176636
H285	H	-0.335081	-0.183891	0.144191
H286	H	-0.311304	-0.245283	0.174514
H287	H	-0.322216	-0.215212	0.197741
H288	H	-0.260193	-0.227208	0.151874
H289	H	-0.271107	-0.197130	0.175092
H290	H	-0.099377	-0.452909	0.353658
O291	O	-0.499459	-0.534581	0.035114
C292	C	-0.544742	-0.504695	0.035342
H293	H	-0.556096	-0.462137	0.020342
H294	H	-0.545126	-0.524350	0.072499
C295	C	-0.564406	-0.555257	0.024080
C296	C	-0.578352	-0.502985	0.005654
H297	H	-0.585138	-0.554204	0.005769
H298	H	-0.533897	-0.575393	0.023928
H299	H	-0.564726	-0.571630	0.055044
H300	H	-0.578026	-0.486615	-0.025308
H301	H	-0.608861	-0.482846	0.005799
H302	H	-0.426614	0.675254	-0.568760
H303	H	-0.495826	0.593550	-0.498882
O304	O	-0.499453	-0.399391	0.035130
C305	C	-0.544748	-0.384212	0.035322
H306	H	-0.546171	-0.420285	0.049577
H307	H	-0.570283	-0.351020	-0.001611
C308	C	-0.556062	-0.319431	0.048655
C309	C	-0.557809	-0.363738	0.066168
H310	H	-0.564120	-0.306800	0.067680
H311	H	-0.525547	-0.329656	0.048524
H312	H	-0.577341	-0.291776	0.017878
H313	H	-0.536526	-0.391394	0.096942
H314	H	-0.588321	-0.353517	0.066305
O315	O	0.094651	-0.128791	-0.370768
C316	C	0.094449	-0.143967	-0.325475
H317	H	0.080213	-0.107898	-0.324049
H318	H	0.131375	-0.177179	-0.299930
C319	C	0.081061	-0.208702	-0.314186
C320	C	0.063573	-0.164401	-0.312435
H321	H	0.062017	-0.221310	-0.306141
H322	H	0.081199	-0.198480	-0.344699
H323	H	0.111832	-0.236373	-0.292898
H324	H	0.032805	-0.136729	-0.333727
H325	H	0.063429	-0.174620	-0.281925
O326	O	-0.643363	0.138808	-0.572549
C327	C	-0.644223	0.178682	-0.613416
H328	H	-0.649766	0.211119	-0.609545
H329	H	-0.673779	0.197179	-0.644135
C330	C	-0.590941	0.113596	-0.626543
C331	C	-0.597745	0.153434	-0.621787
H332	H	-0.562272	0.098022	-0.631708
H333	H	-0.590363	0.086732	-0.599011
H334	H	-0.615574	0.129017	-0.652142
H335	H	-0.573115	0.138012	-0.596185
H336	H	-0.598318	0.180295	-0.649315
H337	H	-0.387416	0.721084	-0.608218
O338	O	-0.095741	-0.456628	0.225646
C339	C	-0.050440	-0.502090	0.255751
H340	H	-0.049019	-0.517788	0.293261
H341	H	-0.024921	-0.490672	0.248096
C342	C	-0.039095	-0.526687	0.202235
C343	C	-0.037350	-0.545971	0.248306
H344	H	-0.031019	-0.553755	0.197642
H345	H	-0.069614	-0.496058	0.181952
H346	H	-0.017829	-0.517172	0.195862
H347	H	-0.058621	-0.555480	0.254677
H348	H	-0.006834	-0.576604	0.268590
O349	O	0.094626	0.006437	-0.370785
C350	C	0.054417	0.021803	-0.357942
H351	H	0.041447	-0.002891	-0.355490
H352	H	0.026309	0.066153	-0.385145
C353	C	0.081916	0.042367	-0.313487
C354	C	0.065988	0.012034	-0.310473
H355	H	0.089052	0.036344	-0.284208
H356	H	0.109005	0.032017	-0.322141
H357	H	0.058490	0.079323	-0.336159
H358	H	0.089416	-0.024921	-0.287806
H359	H	0.038903	0.022379	-0.301814
H360	H	-0.426314	-0.078564	-0.223203
O361	O	-0.298040	-0.206412	-0.227221
C362	C	-0.293923	-0.168623	-0.264914
H363	H	-0.296599	-0.139141	-0.258124
H364	H	-0.322952	-0.145951	-0.298031
C365	C	-0.243309	-0.234002	-0.278864
C366	C	-0.246592	-0.197796	-0.270523
H367	H	-0.214114	-0.251997	-0.282326
H368	H	-0.246084	-0.259462	-0.253471
H369	H	-0.267502	-0.215103	-0.306461
H370	H	-0.222402	-0.216696	-0.242924
H371	H	-0.243812	-0.172340	-0.295912
O372	O	-0.499453	0.465458	-0.370889
C373	C	-0.544749	0.495373	-0.401000
H374	H	-0.546173	0.518626	-0.438507
H375	H	-0.570282	0.524625	-0.393328
C376	C	-0.556063	0.428567	-0.347523
C377	C	-0.557811	0.457123	-0.393590
H378	H	-0.564121	0.404973	-0.342951
H379	H	-0.525547	0.408413	-0.327235
H380	H	-0.577341	0.452948	-0.341136
H381	H	-0.536529	0.432742	-0.399975
H382	H	-0.588323	0.477272	-0.413879
H383	H	-0.732097	0.220775	-0.608274
H384	H	-0.387422	0.251343	-0.138417
O385	O	0.154216	-0.321319	0.225534
C386	C	0.154449	-0.306170	0.180253
H387	H	0.139467	-0.322402	0.168909
H388	H	0.191605	-0.323265	0.179869
C389	C	0.143149	-0.224667	0.160567
C390	C	0.124744	-0.244599	0.146632
H391	H	0.124827	-0.186687	0.139828
H392	H	0.142994	-0.234873	0.191074
H393	H	0.174112	-0.238918	0.160247
H394	H	0.093784	-0.230353	0.146958
H395	H	0.124893	-0.234388	0.116124
O396	O	0.106327	0.138502	-0.436491
C397	C	0.108639	0.166854	-0.420288
H398	H	0.096568	0.208490	-0.451133
H399	H	0.145958	0.144291	-0.398426
C400	C	0.091883	0.120927	-0.352569
C401	C	0.077054	0.172065	-0.390454
H402	H	0.072402	0.124139	-0.334164
H403	H	0.090327	0.101823	-0.363484
H404	H	0.122982	0.102129	-0.334356
H405	H	0.045957	0.190859	-0.408669
H406	H	0.078604	0.191172	-0.379541
H407	H	0.094791	0.002793	-0.498893
H408	H	-0.099376	-0.075038	0.229168
O409	O	0.106419	-0.070887	-0.572423
C410	C	0.144263	-0.079516	-0.547228
H411	H	0.173206	-0.124232	-0.524057
H412	H	0.132581	-0.064025	-0.524830
C413	C	0.126737	0.005458	-0.609725
C414	C	0.162286	-0.049463	-0.581268
H415	H	0.137854	0.023998	-0.630722
H416	H	0.101239	0.011273	-0.626699
H417	H	0.117005	0.018359	-0.591055
H418	H	0.172013	-0.062364	-0.599939
H419	H	0.187786	-0.055279	-0.564298
O420	O	-0.433732	-0.321324	0.023430
C421	C	-0.449928	-0.274472	0.021133
H422	H	-0.429799	-0.257305	0.004045
H423	H	-0.444634	-0.284589	0.057707
C424	C	-0.526685	-0.253898	0.013292
C425	C	-0.501965	-0.232812	-0.007700
H426	H	-0.558784	-0.228201	-0.004492
H427	H	-0.515773	-0.285465	0.014841
H428	H	-0.522269	-0.262329	0.043769
H429	H	-0.506377	-0.224388	-0.038174
H430	H	-0.512879	-0.201243	-0.009255
O431	O	0.113238	-0.120292	-0.134812
C432	C	0.110936	-0.073466	-0.165615
H433	H	0.093853	-0.056428	-0.202872
H434	H	0.147506	-0.083576	-0.160833
C435	C	0.103077	-0.052600	-0.109635
C436	C	0.082092	-0.031671	-0.155394
H437	H	0.085287	-0.026819	-0.103329
H438	H	0.104630	-0.084148	-0.088881
H439	H	0.133551	-0.061024	-0.105655
H440	H	0.051620	-0.023254	-0.159371
H441	H	0.080533	-0.000120	-0.176148
O442	O	-0.643280	0.678271	-0.572076
C443	C	-0.596867	0.646038	-0.543307
H444	H	-0.586538	0.603825	-0.516153
H445	H	-0.593357	0.663896	-0.525220
C446	C	-0.577549	0.695577	-0.606343
C447	C	-0.564862	0.643728	-0.572995
H448	H	-0.557806	0.694154	-0.624656
H449	H	-0.608819	0.717295	-0.625726
H450	H	-0.574624	0.710452	-0.591265
H451	H	-0.567793	0.628857	-0.588073
H452	H	-0.533592	0.622008	-0.553616
H453	H	-0.301784	-0.449335	0.023157
O454	O	-0.735474	0.592268	-0.479041
C455	C	-0.734526	0.590406	-0.438165
H456	H	-0.729065	0.621252	-0.442107
H457	H	-0.704882	0.548675	-0.407487
C458	C	-0.787621	0.565194	-0.424788
C459	C	-0.780918	0.603082	-0.429631
H460	H	-0.816236	0.573010	-0.419522
H461	H	-0.788258	0.566445	-0.452326
H462	H	-0.762915	0.530421	-0.399223
H463	H	-0.805621	0.637853	-0.455198
H464	H	-0.780286	0.601836	-0.402097
O465	O	-0.095871	-0.206665	0.360897
C466	C	-0.125992	-0.221825	0.376280
H467	H	-0.153570	-0.205594	0.345059
H468	H	-0.143481	-0.204737	0.396339
C469	C	-0.064145	-0.303328	0.446505
C470	C	-0.098015	-0.283397	0.408160
H471	H	-0.046888	-0.341309	0.466172
H472	H	-0.043852	-0.293114	0.436143
H473	H	-0.078724	-0.289084	0.463216
H474	H	-0.083435	-0.297636	0.391447
H475	H	-0.118305	-0.293615	0.418520
H476	H	0.113006	-0.248593	-0.483685
H477	H	-0.262581	0.251075	-0.138127
O478	O	0.154165	-0.456614	0.360893
C479	C	0.114385	-0.456839	0.363426
H480	H	0.100691	-0.454649	0.332613
H481	H	0.086494	-0.420773	0.362607
C482	C	0.143922	-0.511451	0.446765
C483	C	0.127106	-0.508766	0.408922
H484	H	0.151768	-0.543481	0.474830
H485	H	0.170722	-0.511298	0.445059
H486	H	0.120677	-0.481393	0.446076
H487	H	0.150353	-0.538820	0.409608
H488	H	0.100309	-0.508925	0.410629
H489	H	-0.732378	0.221040	-0.483702
O490	O	0.106447	0.138671	-0.572127
C491	C	0.147192	0.120008	-0.583685
H492	H	0.176032	0.111397	-0.559246
H493	H	0.140220	0.151841	-0.620991
C494	C	0.126737	0.078831	-0.608941
C495	C	0.162160	0.068250	-0.578923
H496	H	0.135970	0.046906	-0.606006
H497	H	0.099285	0.091406	-0.601157
H498	H	0.120931	0.105360	-0.640027
H499	H	0.167961	0.041727	-0.547837
H500	H	0.189613	0.055669	-0.586702
H501	H	-0.387419	-0.748683	0.016816
H502	H	0.106608	-0.078237	-0.223453
O503	O	0.113203	0.223951	-0.479123
C504	C	0.075361	0.278336	-0.504225
H505	H	0.046422	0.285806	-0.527483
H506	H	0.087048	0.304578	-0.526527
C507	C	0.092871	0.283029	-0.441531
C508	C	0.057326	0.292203	-0.470095
H509	H	0.081747	0.291584	-0.420479
H510	H	0.118367	0.246389	-0.424620
H511	H	0.102607	0.304898	-0.460121
H512	H	0.047595	0.270329	-0.451505
H513	H	0.031828	0.328839	-0.487002
H514	H	-0.099379	-0.074998	-0.024355
H515	H	0.113022	0.220750	-0.607622
O516	O	-0.643732	0.139053	-0.437117
C517	C	-0.674533	0.167549	-0.421084
H518	H	-0.711789	0.187711	-0.441294
H519	H	-0.669754	0.199334	-0.426425
C520	C	-0.618549	0.103741	-0.344232
C521	C	-0.664307	0.128500	-0.369051
H522	H	-0.612240	0.079655	-0.312135
H523	H	-0.597796	0.084543	-0.355034
H524	H	-0.614572	0.130233	-0.348688
H525	H	-0.668282	0.102009	-0.364599
H526	H	-0.685060	0.147692	-0.358247
O527	O	0.113299	-0.120293	-0.615351
C528	C	0.110983	-0.073460	-0.631390
H529	H	0.123048	-0.074859	-0.600457
H530	H	0.073664	-0.036846	-0.653224
C531	C	0.127750	-0.068156	-0.699193
C532	C	0.142572	-0.069876	-0.661200
H533	H	0.147233	-0.065943	-0.717583
H534	H	0.129308	-0.099707	-0.688388
H535	H	0.096651	-0.037644	-0.717383
H536	H	0.173669	-0.100391	-0.643008
H537	H	0.141020	-0.038330	-0.672003
O538	O	0.106375	-0.206549	-0.437098
C539	C	0.108673	-0.253371	-0.421064
H540	H	0.125758	-0.270409	-0.441278
H541	H	0.072101	-0.243256	-0.426402
C542	C	0.116523	-0.274241	-0.344210
C543	C	0.137510	-0.295169	-0.369033
H544	H	0.134309	-0.300023	-0.312114
H545	H	0.114973	-0.242695	-0.355012
H546	H	0.086046	-0.265812	-0.348663
H547	H	0.167983	-0.303591	-0.364585
H548	H	0.139066	-0.326717	-0.358229
O549	O	-0.390489	-0.120954	-0.134468
C550	C	-0.365298	-0.108303	-0.117907
H551	H	-0.342123	-0.102539	-0.139460
H552	H	-0.342905	-0.142369	-0.080009
C553	C	-0.427803	-0.063333	-0.095423
C554	C	-0.399341	-0.056249	-0.121897
H555	H	-0.448802	-0.031225	-0.097882
H556	H	-0.444774	-0.071858	-0.106579
H557	H	-0.409137	-0.091723	-0.063844
H558	H	-0.418007	-0.027864	-0.153476
H559	H	-0.382375	-0.047718	-0.110747
O560	O	0.113198	-0.255947	-0.134450
C561	C	0.075349	-0.247311	-0.117894
H562	H	0.046414	-0.202592	-0.139448
H563	H	0.087028	-0.262814	-0.079995
C564	C	0.092850	-0.332266	-0.095416
C565	C	0.057311	-0.277343	-0.121891
H566	H	0.081725	-0.350793	-0.097880
H567	H	0.118351	-0.338086	-0.106569
H568	H	0.102580	-0.345178	-0.063837
H569	H	0.047586	-0.264431	-0.153471
H570	H	0.031808	-0.271521	-0.110744
O571	O	-0.433728	0.333358	-0.227081
C572	C	-0.449924	0.304988	-0.196415
H573	H	-0.429796	0.284776	-0.159113
H574	H	-0.444630	0.273253	-0.201246
C575	C	-0.526681	0.368993	-0.252595
C576	C	-0.501961	0.344173	-0.206780
H577	H	-0.558780	0.393163	-0.258989
H578	H	-0.515770	0.388106	-0.273256
H579	H	-0.522264	0.342543	-0.256615
H580	H	-0.506374	0.370622	-0.202762
H581	H	-0.512875	0.325065	-0.186118
O582	O	-0.735808	0.727929	-0.614696
C583	C	-0.773497	0.769726	-0.614586
H584	H	-0.766710	0.760250	-0.578301
H585	H	-0.806617	0.773825	-0.625037
C586	C	-0.787431	0.834282	-0.693928
C587	C	-0.779093	0.822646	-0.649363
H588	H	-0.790884	0.866927	-0.715381
H589	H	-0.762040	0.806123	-0.694003
H590	H	-0.815030	0.837695	-0.702631
H591	H	-0.751491	0.819227	-0.640658
H592	H	-0.804479	0.850806	-0.649287
H593	H	-0.646754	-0.324820	0.023190
O594	O	-0.095884	-0.206585	-0.024478
C595	C	-0.125995	-0.221762	-0.024673
H596	H	-0.163501	-0.185689	-0.038926
H597	H	-0.118328	-0.254958	0.012258
C598	C	-0.072513	-0.286533	-0.038018
C599	C	-0.118579	-0.242226	-0.055526
H600	H	-0.067938	-0.299159	-0.057047
H601	H	-0.052226	-0.276310	-0.037884
H602	H	-0.066130	-0.314191	-0.007242
H603	H	-0.124960	-0.214567	-0.086299
H604	H	-0.138868	-0.252446	-0.055666
H605	H	0.106630	-0.203055	-0.223182
O606	O	-0.433712	-0.666708	0.023490
C607	C	-0.449912	-0.695064	0.021181
H608	H	-0.419066	-0.736698	0.033253
H609	H	-0.471774	-0.672502	-0.016138
C610	C	-0.517630	-0.649141	0.037938
C611	C	-0.479744	-0.700279	0.052768
H612	H	-0.536033	-0.652356	0.057420
H613	H	-0.506716	-0.630035	0.039492
H614	H	-0.535842	-0.630345	0.006838
H615	H	-0.461529	-0.719072	0.083865
H616	H	-0.490655	-0.719388	0.051220
O617	O	-0.735403	-0.271602	0.016518
C618	C	-0.704596	-0.257883	0.018836
H619	H	-0.675064	-0.276737	0.006765
H620	H	-0.689801	-0.273373	0.056158
C621	C	-0.767094	-0.173347	0.002085
C622	C	-0.730824	-0.196501	-0.012745
H623	H	-0.783272	-0.135484	-0.017394
H624	H	-0.787849	-0.182590	0.000525
H625	H	-0.754759	-0.186261	0.033186
H626	H	-0.743159	-0.183592	-0.043844
H627	H	-0.710071	-0.187254	-0.011191
O628	O	-0.298096	-0.206505	-0.436488
C629	C	-0.323282	-0.219151	-0.407262
H630	H	-0.346445	-0.224944	-0.423027
H631	H	-0.345688	-0.185070	-0.403463
C632	C	-0.260788	-0.264063	-0.339810
C633	C	-0.289235	-0.271182	-0.359171
H634	H	-0.239787	-0.296156	-0.310144
H635	H	-0.243821	-0.255541	-0.359499
H636	H	-0.279465	-0.235660	-0.336648
H637	H	-0.270558	-0.299580	-0.362337
H638	H	-0.306199	-0.279710	-0.339480
H639	H	-0.732070	-0.403516	0.016804
H640	H	-0.646757	0.550094	-0.443598
O641	O	-0.255505	0.593206	-0.479943
C642	C	-0.255605	0.630984	-0.475814
H643	H	-0.291884	0.660468	-0.478491
H644	H	-0.245160	0.653654	-0.504837
C645	C	-0.176258	0.565586	-0.425192
C646	C	-0.220816	0.601796	-0.428476
H647	H	-0.154797	0.547582	-0.395993
H648	H	-0.176189	0.540134	-0.427975
H649	H	-0.167560	0.584483	-0.449381
H650	H	-0.229515	0.582898	-0.404291
H651	H	-0.220885	0.627244	-0.425688
H652	H	-0.647026	-0.449354	0.023185
H653	H	-0.301770	0.550701	-0.444180
H654	H	-0.262264	-0.248919	-0.482808
H655	H	-0.262584	-0.748943	0.016794
O656	O	-0.297998	0.333046	-0.226782
C657	C	-0.253469	0.304562	-0.195972
H658	H	-0.242795	0.262967	-0.166445
H659	H	-0.254170	0.327075	-0.181170
C660	C	-0.231409	0.350311	-0.258465
C661	C	-0.218297	0.299222	-0.222201
H662	H	-0.209713	0.347019	-0.274644
H663	H	-0.261409	0.369503	-0.279222
H664	H	-0.231992	0.369067	-0.246124
H665	H	-0.217720	0.280469	-0.234542
H666	H	-0.188296	0.280027	-0.201446
O667	O	-0.298012	-0.666955	0.023426
C668	C	-0.253476	-0.695448	0.021126
H669	H	-0.253517	-0.715614	0.004043
H670	H	-0.227020	-0.727229	0.057698
C671	C	-0.240457	-0.631631	0.013271
C672	C	-0.240509	-0.656396	-0.007715
H673	H	-0.232457	-0.607544	-0.004518
H674	H	-0.270462	-0.612436	0.014822
H675	H	-0.218411	-0.658121	0.043747
H676	H	-0.262559	-0.629907	-0.038188
H677	H	-0.210508	-0.675586	-0.009273
H678	H	-0.262587	-0.403497	0.016771
H679	H	-0.496128	0.003076	-0.374407
H680	H	-0.496124	0.003081	-0.498917
H681	H	-0.262268	-0.248920	-0.138435
O682	O	-0.390539	-0.121061	-0.614720
C683	C	-0.394660	-0.158846	-0.614615
H684	H	-0.391979	-0.188333	-0.578334
H685	H	-0.365636	-0.181511	-0.625061
C686	C	-0.445285	-0.093454	-0.693962
C687	C	-0.441995	-0.129668	-0.649401
H688	H	-0.474482	-0.075456	-0.715421
H689	H	-0.442507	-0.067997	-0.694034
H690	H	-0.421095	-0.112347	-0.702660
H691	H	-0.466181	-0.110773	-0.640702
H692	H	-0.444778	-0.155120	-0.649329
H693	H	-0.426308	-0.078556	-0.568458
H694	H	-0.371622	-0.121391	-0.374409
