data_functionalizedCrystal
_audit_creation_method	'MofGen! by Chris Wilmer'
_symmetry_space_group_name_H-M	'P1'
_symmetry_Int_Tables_number	1
_symmetry_cell_setting	triclinic
loop_
_symmetry_equiv_pos_as_xyz
  x,y,z
_cell_length_a	16.109317
_cell_length_b	11.792241
_cell_length_c	14.586319
_cell_angle_alpha	89.996059
_cell_angle_beta	89.998916
_cell_angle_gamma	96.169185
loop_
_atom_site_label
_atom_site_type_symbol
_atom_site_fract_x
_atom_site_fract_y
_atom_site_fract_z
O1	O	-1.103809	0.145974	-0.076143
O2	O	-0.861834	0.164110	-0.076166
O3	O	-0.988694	-0.010179	-0.076148
O4	O	-0.976950	0.320264	-0.076162
O5	O	-0.988685	-0.010182	0.076333
O6	O	-0.861826	0.164107	0.076315
O7	O	-1.103800	0.145972	0.076338
Cu8	Cu	-0.982812	0.155039	0.090249
Cu9	Cu	-0.982823	0.155042	-0.090077
O10	O	-0.976941	0.320261	0.076319
C11	C	-0.830852	0.163371	0.000071
C12	C	-0.738547	0.161159	0.000062
C13	C	-0.987952	-0.052465	0.000092
C14	C	-0.985744	-0.178460	0.000091
C15	C	-0.439444	0.154015	-0.083044
C16	C	-0.526175	0.156086	-0.083048
C17	C	-0.526184	0.156068	0.083195
C18	C	-0.439456	0.153988	0.083198
C19	C	-0.396087	0.152968	0.000076
C20	C	-0.569547	0.157118	0.000069
C21	C	-0.663585	0.159364	0.000065
C22	C	-0.302044	0.150720	0.000079
C23	C	-0.981684	-0.409137	0.000076
C24	C	-0.983939	-0.280771	0.000084
C25	C	-0.134783	0.146712	0.000094
C26	C	-0.227088	0.148927	0.000082
C27	C	-0.977683	0.362547	0.000077
C28	C	-0.979891	0.488542	0.000072
N29	N	-0.982811	0.155037	0.217081
N30	N	-0.982831	0.155036	-0.216909
C31	C	-1.039003	0.077887	0.452095
C32	C	-1.039005	0.077884	0.548077
C33	C	-0.926632	0.232189	0.548070
C34	C	-0.926627	0.232186	0.452090
C35	C	-0.982817	0.155036	0.404105
C36	C	-0.982825	0.155037	0.596066
C37	C	-0.982827	0.155034	0.700133
C38	C	-0.982814	0.155037	0.300032
H39	H	-0.404136	0.153182	-0.150728
H40	H	-0.561505	0.156901	0.150870
H41	H	-0.880869	0.295010	0.413014
C42	C	-0.392520	0.152914	0.173544
C43	C	-0.449057	0.154292	0.246338
C44	C	-0.405850	0.153313	0.329573
H45	H	-0.364725	0.085974	0.177128
H46	H	-0.352660	0.218274	0.177049
H47	H	-0.488902	0.088938	0.242835
H48	H	-0.476855	0.221227	0.242785
H49	H	-0.365990	0.218673	0.333078
H50	H	-0.378056	0.086372	0.333147
H51	H	-0.444202	0.154259	0.378974
C52	C	-1.099848	-0.005990	0.399904
C53	C	-1.055215	-0.075465	0.344822
C54	C	-1.111228	-0.152764	0.296735
H55	H	-1.133312	-0.052046	0.442149
H56	H	-1.134649	0.034764	0.362387
H57	H	-1.020429	-0.116216	0.382335
H58	H	-1.021754	-0.029441	0.302559
H59	H	-1.146029	-0.112010	0.259218
H60	H	-1.144689	-0.198812	0.338987
H61	H	-1.080953	-0.199905	0.259350
H62	H	-1.084756	0.015061	0.587147
C63	C	-0.865728	0.315907	0.600335
C64	C	-0.877774	0.299422	0.694662
C65	C	-0.821692	0.376537	0.742835
H66	H	-0.810149	0.303632	0.584723
H67	H	-0.875105	0.391682	0.584649
H68	H	-0.868390	0.223665	0.710342
H69	H	-0.933341	0.311707	0.710302
H70	H	-0.831070	0.452312	0.727149
H71	H	-0.766117	0.364255	0.727215
H72	H	-0.829863	0.365370	0.806841
C73	C	-0.573403	0.157175	-0.173198
C74	C	-0.658642	0.159182	-0.155416
C75	C	-0.702175	0.160170	-0.238443
H76	H	-0.553248	0.222971	-0.207415
H77	H	-0.565277	0.090670	-0.207361
H78	H	-0.666763	0.225681	-0.121268
H79	H	-0.678821	0.093392	-0.121213
H80	H	-0.694049	0.093665	-0.272606
H81	H	-0.682014	0.225967	-0.272653
H82	H	-0.760015	0.161521	-0.226389
