data_functionalizedCrystal
_audit_creation_method	'MofGen! by Chris Wilmer'
_symmetry_space_group_name_H-M	'P1'
_symmetry_Int_Tables_number	1
_symmetry_cell_setting	triclinic
loop_
_symmetry_equiv_pos_as_xyz
  x,y,z
_cell_length_a	14.971491
_cell_length_b	14.971494
_cell_length_c	14.048226
_cell_angle_alpha	89.995286
_cell_angle_beta	89.991693
_cell_angle_gamma	83.616896
loop_
_atom_site_label
_atom_site_type_symbol
_atom_site_fract_x
_atom_site_fract_y
_atom_site_fract_z
O1	O	1.186948	0.116586	-0.079198
O2	O	1.520281	0.449919	0.254136
O3	O	1.853614	0.783253	0.587469
O4	O	0.926549	0.130540	-0.079190
O5	O	1.259882	0.463873	0.254143
O6	O	1.593215	0.797207	0.587476
O7	O	1.063724	-0.006636	-0.079192
O8	O	1.397057	0.326697	0.254141
O9	O	1.730390	0.660030	0.587475
O10	O	1.049773	0.253763	-0.079196
O11	O	1.383106	0.587096	0.254137
O12	O	1.716439	0.920429	0.587471
O13	O	1.063707	-0.006644	0.079129
O14	O	1.397040	0.326689	0.412463
O15	O	1.730374	0.660022	0.745796
O16	O	0.926532	0.130532	0.079131
O17	O	1.259865	0.463865	0.412464
O18	O	1.593199	0.797199	0.745798
O19	O	1.186931	0.116578	0.079124
O20	O	1.520264	0.449911	0.412457
O21	O	1.853598	0.783245	0.745790
Zn22	Zn	1.056729	0.123554	0.104264
Zn23	Zn	1.390062	0.456887	0.437598
Zn24	Zn	1.723396	0.790220	0.770931
Zn25	Zn	1.056751	0.123564	-0.104331
Zn26	Zn	1.390084	0.456898	0.229002
Zn27	Zn	1.723417	0.790231	0.562336
O28	O	1.049756	0.253754	0.079125
O29	O	1.383089	0.587088	0.412459
O30	O	1.716423	0.920421	0.745792
C31	C	0.893216	0.129911	-0.000029
C32	C	1.226549	0.463244	0.333305
C33	C	1.559882	0.796578	0.666638
C34	C	0.793919	0.128039	-0.000026
C35	C	1.127252	0.461372	0.333307
C36	C	1.460585	0.794705	0.666641
C37	C	1.063090	-0.039965	-0.000033
C38	C	1.396423	0.293368	0.333301
C39	C	1.729757	0.626702	0.666634
C40	C	1.061216	-0.139262	-0.000037
C41	C	1.394550	0.194072	0.333296
C42	C	1.727883	0.527405	0.666630
C43	C	0.366222	0.119963	-0.086349
C44	C	0.699555	0.453296	0.246985
C45	C	1.032889	0.786629	0.580318
C46	C	0.459522	0.121720	-0.086345
C47	C	0.792856	0.455053	0.246988
C48	C	1.126189	0.788386	0.580322
C49	C	0.506159	0.122599	-0.000041
C50	C	0.839492	0.455933	0.333292
C51	C	1.172826	0.789266	0.666626
C52	C	0.459492	0.121713	0.086265
C53	C	0.792825	0.455047	0.419599
C54	C	1.126159	0.788380	0.752932
C55	C	0.366194	0.119950	0.086261
C56	C	0.699527	0.453283	0.419594
C57	C	1.032861	0.786617	0.752928
C58	C	0.653954	0.125390	0.086269
C59	C	0.987287	0.458724	0.419602
C60	C	1.320620	0.792057	0.752936
C61	C	0.747258	0.127155	0.086274
C62	C	1.080591	0.460489	0.419607
C63	C	1.413924	0.793822	0.752940
C64	C	0.747282	0.127160	-0.086337
C65	C	1.080615	0.460493	0.246996
C66	C	1.413949	0.793826	0.580330
C67	C	0.653984	0.125397	-0.086342
C68	C	0.987317	0.458730	0.246992
C69	C	1.320651	0.792063	0.580325
C70	C	0.607323	0.124512	-0.000035
C71	C	0.940656	0.457846	0.333298
C72	C	1.273990	0.791179	0.666632
C73	C	1.220264	0.117207	-0.000040
C74	C	1.553597	0.450540	0.333293
C75	C	1.886931	0.783874	0.666627
C76	C	1.319561	0.119079	-0.000049
C77	C	1.652894	0.452413	0.333284
C78	C	1.986228	0.785746	0.666618
C79	C	1.060347	-0.185902	-0.086339
C80	C	1.393681	0.147431	0.246994
C81	C	1.727014	0.480765	0.580327
C82	C	1.058581	-0.279201	-0.086340
C83	C	1.391914	0.054132	0.246993
C84	C	1.725248	0.387466	0.580326
C85	C	1.057690	-0.325859	-0.000038
C86	C	1.391024	0.007474	0.333295
C87	C	1.724357	0.340808	0.666628
C88	C	1.058557	-0.279212	0.086270
C89	C	1.391890	0.054122	0.419604
C90	C	1.725223	0.387455	0.752937
C91	C	1.060317	-0.185914	0.086270
C92	C	1.393650	0.147420	0.419604
C93	C	1.726983	0.480753	0.752937
C94	C	1.054891	-0.473675	0.086264
C95	C	1.388224	-0.140342	0.419597
C96	C	1.721558	0.192992	0.752931
C97	C	1.053133	-0.566980	0.086264
C98	C	1.386466	-0.233647	0.419598
C99	C	1.719799	0.099687	0.752931
C100	C	1.053155	-0.566963	-0.086347
C101	C	1.386488	-0.233629	0.246987
C102	C	1.719822	0.099704	0.580320
C103	C	1.054915	-0.473664	-0.086347
C104	C	1.388248	-0.140331	0.246987
C105	C	1.721582	0.193002	0.580320
C106	C	1.055783	-0.427024	-0.000038
C107	C	1.389116	-0.093690	0.333296
C108	C	1.722450	0.239643	0.666629
C109	C	1.050390	0.287083	-0.000036
C110	C	1.383723	0.620416	0.333297
C111	C	1.717056	0.953750	0.666631
C112	C	1.052263	0.386380	-0.000038
C113	C	1.385597	0.719713	0.333296
C114	C	1.718930	1.053046	0.666629
N115	N	1.056721	0.123546	0.246625
N116	N	1.390054	0.456879	0.579958
N117	N	1.723387	0.790213	0.913292
N118	N	1.056766	0.123565	-0.246692
N119	N	1.390099	0.456898	0.086642
N120	N	1.723433	0.790232	0.419975
C121	C	1.117481	0.062829	0.296442
C122	C	1.450814	0.396163	0.629776
C123	C	1.784148	0.729496	0.963109
C124	C	1.117487	0.062829	0.396100
C125	C	1.450820	0.396162	0.729433
C126	C	1.784154	0.729495	1.062767
C127	C	1.056736	0.123550	0.445938
C128	C	1.390070	0.456883	0.779272
C129	C	1.723403	0.790216	1.112605
C130	C	0.995970	0.184269	0.396114
C131	C	1.329303	0.517603	0.729448
C132	C	1.662636	0.850936	1.062781
C133	C	0.995960	0.184265	0.296458
C134	C	1.329293	0.517598	0.629792
C135	C	1.662627	0.850931	0.963125
C136	C	0.995995	0.184276	0.603828
C137	C	1.329329	0.517609	0.937162
C138	C	1.662662	0.850942	1.270495
C139	C	0.996006	0.184282	0.703491
C140	C	1.329339	0.517615	1.036825
C141	C	1.662673	0.850948	1.370158
C142	C	1.117522	0.062840	0.703470
C143	C	1.450856	0.396173	1.036803
C144	C	1.784189	0.729506	1.370137
C145	C	1.117513	0.062835	0.603814
C146	C	1.450846	0.396169	0.937147
C147	C	1.784179	0.729502	1.270481
C148	C	1.056747	0.123556	0.553997
C149	C	1.390080	0.456889	0.887330
C150	C	1.723414	0.790223	1.220663
H151	H	0.328256	0.119253	-0.156628
H152	H	0.661590	0.452586	0.176705
H153	H	0.994923	0.785919	0.510039
H154	H	1.166984	0.013396	0.563236
H155	H	1.500318	0.346729	0.896569
H156	H	1.833651	0.680063	1.229902
Cl157	Cl	1.052056	-0.625595	-0.194849
Cl158	Cl	1.385390	-0.292261	0.138484
Cl159	Cl	1.718723	0.041072	0.471817
Cl160	Cl	1.061408	-0.127280	0.194769
Cl161	Cl	1.394741	0.206054	0.528102
Cl162	Cl	1.728075	0.539387	0.861436
H163	H	0.946536	0.233726	0.744065
H164	H	1.279869	0.567060	1.077398
H165	H	1.613202	0.900393	1.410731
Cl166	Cl	0.805939	0.128283	-0.194837
Cl167	Cl	1.139273	0.461616	0.138496
Cl168	Cl	1.472606	0.794949	0.471830
Cl169	Cl	1.193862	-0.013507	0.233799
Cl170	Cl	1.527196	0.319827	0.567132
Cl171	Cl	1.860529	0.653160	0.900465
Cl172	Cl	0.919569	0.260595	0.233832
Cl173	Cl	1.252902	0.593928	0.567165
Cl174	Cl	1.586235	0.927262	0.900499
Cl175	Cl	1.056043	-0.415011	-0.194842
Cl176	Cl	1.389376	-0.081677	0.138491
Cl177	Cl	1.722710	0.251656	0.471825
Cl178	Cl	1.052014	-0.625635	0.194760
Cl179	Cl	1.385347	-0.292301	0.528093
Cl180	Cl	1.718681	0.041032	0.861426
H181	H	1.166962	0.013388	0.436661
H182	H	1.500295	0.346722	0.769994
H183	H	1.833628	0.680055	1.103327
Cl184	Cl	1.057490	-0.337831	-0.194839
Cl185	Cl	1.390823	-0.004498	0.138494
Cl186	Cl	1.724157	0.328836	0.471827
Cl187	Cl	1.055986	-0.415043	0.194769
Cl188	Cl	1.389319	-0.081710	0.528102
Cl189	Cl	1.722653	0.251624	0.861435
H190	H	0.946501	0.233707	0.436699
H191	H	1.279834	0.567040	0.770032
H192	H	1.613168	0.900373	1.103365
Cl193	Cl	1.057426	-0.337866	0.194765
Cl194	Cl	1.390760	-0.004533	0.528098
Cl195	Cl	1.724093	0.328800	0.861432
Cl196	Cl	0.805887	0.128254	0.194772
Cl197	Cl	1.139220	0.461587	0.528106
Cl198	Cl	1.472554	0.794921	0.861439
Cl199	Cl	1.193913	-0.013492	0.766101
Cl200	Cl	1.527247	0.319841	1.099434
Cl201	Cl	1.860580	0.653175	1.432767
Cl202	Cl	0.919600	0.260611	0.541205
Cl203	Cl	1.252933	0.593944	0.874538
Cl204	Cl	1.586266	0.927277	1.207872
H205	H	0.497510	0.122433	-0.156619
H206	H	0.830844	0.455767	0.176714
H207	H	1.164177	0.789100	0.510048
Cl208	Cl	0.595355	0.124298	-0.194840
Cl209	Cl	0.928688	0.457632	0.138493
Cl210	Cl	1.262022	0.790965	0.471827
H211	H	1.061077	-0.147921	-0.156616
H212	H	1.394411	0.185413	0.176717
H213	H	1.727744	0.518746	0.510050
Cl214	Cl	0.595297	0.124268	0.194771
Cl215	Cl	0.928630	0.457602	0.528104
Cl216	Cl	1.261964	0.790935	0.861437
Cl217	Cl	0.518121	0.122818	0.194763
Cl218	Cl	0.851455	0.456151	0.528096
Cl219	Cl	1.184788	0.789484	0.861430
H220	H	0.328203	0.119240	0.156535
H221	H	0.661536	0.452573	0.489868
H222	H	0.994869	0.785907	0.823202
