data_functionalizedCrystal
_audit_creation_method	'MofGen! by Chris Wilmer'
_symmetry_space_group_name_H-M	'P1'
_symmetry_Int_Tables_number	1
_symmetry_cell_setting	triclinic
loop_
_symmetry_equiv_pos_as_xyz
  x,y,z
_cell_length_a	13.033293
_cell_length_b	13.032721
_cell_length_c	18.215399
_cell_angle_alpha	97.154738
_cell_angle_beta	82.790882
_cell_angle_gamma	105.184121
loop_
_atom_site_label
_atom_site_type_symbol
_atom_site_fract_x
_atom_site_fract_y
_atom_site_fract_z
Zn1	Zn	1.570202	-0.216841	-0.576181
Zn2	Zn	1.547521	-0.394482	-0.466968
Zn3	Zn	1.392567	-0.239410	-0.439233
Zn4	Zn	1.369981	-0.416947	-0.576096
O5	O	1.470068	-0.316920	-0.514620
O6	O	1.715835	-0.221558	-0.573337
O7	O	1.526926	-0.373955	-0.360305
O8	O	1.435076	-0.087774	-0.445827
O9	O	1.699171	-0.352070	-0.493099
O10	O	1.565583	-0.071192	-0.546443
O11	O	1.413082	-0.260025	-0.339928
O12	O	1.240929	-0.281808	-0.445745
O13	O	1.396580	-0.390359	-0.679092
O14	O	1.224335	-0.412243	-0.546298
O15	O	1.543682	-0.243342	-0.679154
O16	O	1.505025	-0.546105	-0.493017
O17	O	1.374587	-0.562609	-0.573192
C18	C	1.194091	-0.351913	-0.493003
C19	C	1.076023	-0.366909	-0.483775
C20	C	1.031617	-0.309120	-0.519438
C21	C	0.909589	-0.324618	-0.509901
C22	C	1.434923	-0.592895	-0.536123
C23	C	1.419985	-0.710946	-0.545355
C24	C	1.477920	-0.755368	-0.509839
C25	C	1.462483	-0.877380	-0.519380
C26	C	1.747122	-0.281791	-0.536321
C27	C	1.865186	-0.266821	-0.545569
C28	C	1.470142	-0.316838	-0.706572
C29	C	1.470173	-0.316804	-0.788371
C30	C	1.505379	-0.039864	-0.493050
C31	C	1.520426	0.078201	-0.483859
C32	C	1.546802	-0.240185	-0.976595
C33	C	1.546818	-0.240153	-1.053453
C34	C	1.393641	-0.393248	-1.053377
C35	C	1.393621	-0.393275	-0.976520
C36	C	1.470207	-0.316745	-0.938132
C37	C	1.470244	-0.316685	-1.091846
C38	C	1.470261	-0.316650	-1.175178
C39	C	1.470188	-0.316778	-0.854794
C40	C	1.470065	-0.316917	-0.323413
C41	C	1.470277	-0.316626	-0.241607
H42	H	1.023700	-0.427855	-0.446180
Cl43	Cl	1.325762	-0.791679	-0.603211
Cl44	Cl	1.368256	-0.958109	-0.577239
Cl45	Cl	1.297372	-0.489458	-1.101643
H46	H	1.331240	-0.455619	-0.945202
H47	H	1.083941	-0.248168	-0.557028
H48	H	1.538955	-0.703073	-0.472372
Cl49	Cl	1.614665	-0.841071	-0.426007
H50	H	0.857269	-0.385568	-0.472304
Cl51	Cl	1.643122	-0.143911	-1.101805
H52	H	1.609161	-0.177867	-0.945341
Cl53	Cl	0.945956	-0.172704	-0.603608
