data_functionalizedCrystal
_audit_creation_method	'MofGen! by Chris Wilmer'
_symmetry_space_group_name_H-M	'P1'
_symmetry_Int_Tables_number	1
_symmetry_cell_setting	triclinic
loop_
_symmetry_equiv_pos_as_xyz
  x,y,z
_cell_length_a	19.188930
_cell_length_b	18.266242
_cell_length_c	19.188930
_cell_angle_alpha	89.988525
_cell_angle_beta	96.855221
_cell_angle_gamma	90.022918
loop_
_atom_site_label
_atom_site_type_symbol
_atom_site_fract_x
_atom_site_fract_y
_atom_site_fract_z
O1	O	0.926149	0.061124	-0.087169
O2	O	0.722838	0.061075	-0.098903
O3	O	0.830361	0.061087	0.008620
O4	O	0.818627	0.061113	-0.194691
O5	O	0.830343	-0.060675	0.008625
O6	O	0.722820	-0.060687	-0.098897
O7	O	0.926131	-0.060638	-0.087163
Zn8	Zn	0.824473	-0.079994	-0.093029
Zn9	Zn	0.824497	0.080432	-0.093037
O10	O	0.818608	-0.060649	-0.194686
C11	C	0.696818	0.000188	-0.098520
C12	C	0.619313	0.000169	-0.097380
N13	N	0.824461	-0.189481	-0.093024
C14	C	0.574389	0.000188	-0.160470
C15	C	0.501566	0.000196	-0.159399
C16	C	0.473669	0.000199	-0.095233
C17	C	0.518603	0.000175	-0.032133
C18	C	0.591425	0.000160	-0.033207
N19	N	0.365695	0.041663	-0.046188
N20	N	0.296516	0.041679	-0.045172
C21	C	0.254260	0.000243	-0.091994
N22	N	0.283795	-0.041200	-0.139881
N23	N	0.352980	-0.041213	-0.140899
C24	C	0.394707	0.000215	-0.094062
C25	C	0.130372	0.000270	-0.153928
C26	C	0.057547	0.000274	-0.152853
C27	C	0.074586	0.000261	-0.025586
C28	C	0.147409	0.000250	-0.026662
C29	C	0.175298	0.000258	-0.090835
C30	C	0.872088	-0.227785	-0.045436
C31	C	0.872092	-0.304430	-0.045433
C32	C	0.824477	-0.342768	-0.093030
C33	C	0.776841	-0.304455	-0.140621
C34	C	0.776834	-0.227812	-0.140618
N35	N	0.815401	-0.463094	-0.154837
N36	N	0.815413	-0.535902	-0.154838
C37	C	0.824496	-0.573691	-0.093040
N38	N	0.833582	-0.535920	-0.031239
N39	N	0.833574	-0.463106	-0.031240
C40	C	0.824480	-0.425875	-0.093038
C41	C	0.872131	-0.695101	-0.045444
C42	C	0.872130	-0.771748	-0.045440
C43	C	0.776882	-0.771772	-0.140634
C44	C	0.776879	-0.695127	-0.140632
C45	C	0.824507	-0.656796	-0.093038
C46	C	0.952151	0.000252	-0.087546
C47	C	1.029656	0.000276	-0.088687
C48	C	0.829972	0.000204	0.034634
C49	C	0.828831	0.000197	0.112138
N50	N	0.824513	0.189919	-0.093037
C51	C	0.818997	0.000236	-0.220700
C52	C	0.820138	0.000247	-0.298204
C53	C	0.891922	0.000209	0.157062
C54	C	0.890850	0.000220	0.229886
C55	C	0.826684	0.000206	0.257782
C56	C	0.763585	0.000198	0.212849
C57	C	0.764658	0.000194	0.140026
N58	N	0.777631	-0.041244	0.365789
N59	N	0.776615	-0.041242	0.434968
C60	C	0.823446	0.000220	0.477191
N61	N	0.871341	0.041669	0.447624
N62	N	0.872359	0.041664	0.378439
C63	C	0.825513	0.000210	0.336745
C64	C	0.885379	0.000245	0.601079
C65	C	0.884305	0.000261	0.673904
C66	C	0.757038	0.000231	0.656865
C67	C	0.758114	0.000222	0.584042
C68	C	0.822287	0.000226	0.556154
H69	H	0.597091	0.000196	-0.212725
Br70	Br	0.676502	0.000187	0.250706
Br71	Br	0.936733	-0.356423	0.019157
Br72	Br	0.712214	-0.356483	-0.205212
Br73	Br	0.936765	-0.643080	0.019149
Br74	Br	0.440585	0.000218	-0.245028
Br75	Br	0.672486	0.000205	0.523070
H76	H	0.183988	0.000238	0.024713
H77	H	0.935683	0.000274	0.710481
Br78	Br	0.652398	0.000132	0.052423
Br79	Br	-0.003424	0.000294	-0.238485
H80	H	0.738049	-0.196624	-0.179371
Br81	Br	0.936765	-0.823736	0.019154
Br82	Br	0.936721	-0.175764	0.019156
H83	H	0.713281	0.000184	0.103448
Br84	Br	0.036735	0.000253	0.061498
H85	H	0.738110	-0.802986	-0.179386
H86	H	0.944176	0.000214	0.134360
Br87	Br	0.480745	0.000172	0.054950
H88	H	0.942228	0.000233	0.266470
Br89	Br	0.712243	-0.643137	-0.205221
H90	H	0.937632	0.000251	0.578372
Br91	Br	0.669953	0.000218	0.694717
H92	H	0.153080	0.000267	-0.206181
