data_functionalizedCrystal
_audit_creation_method	'MofGen! by Chris Wilmer'
_symmetry_space_group_name_H-M	'P1'
_symmetry_Int_Tables_number	1
_symmetry_cell_setting	triclinic
loop_
_symmetry_equiv_pos_as_xyz
  x,y,z
_cell_length_a	17.640112
_cell_length_b	17.638032
_cell_length_c	19.076919
_cell_angle_alpha	80.565462
_cell_angle_beta	77.038285
_cell_angle_gamma	65.665633
loop_
_atom_site_label
_atom_site_type_symbol
_atom_site_fract_x
_atom_site_fract_y
_atom_site_fract_z
Zn1	Zn	1.183910	0.082790	0.170252
Zn2	Zn	1.163737	0.212884	0.032740
Zn3	Zn	1.051638	0.105169	0.072311
Zn4	Zn	1.018222	0.248500	0.170130
O5	O	1.104377	0.162336	0.111358
O6	O	1.297490	0.075776	0.135501
O7	O	1.154410	0.193055	-0.060497
O8	O	1.091612	-0.012229	0.101915
O9	O	1.282669	0.171355	0.034472
O10	O	1.188792	-0.028671	0.173872
O11	O	1.072051	0.113918	-0.031425
O12	O	0.930950	0.148454	0.101796
O13	O	1.034658	0.232058	0.268633
O14	O	0.906399	0.253758	0.173664
O15	O	1.156389	0.110311	0.268723
O16	O	1.122007	0.332037	0.034354
O17	O	1.015097	0.358205	0.135293
C18	C	0.888531	0.207400	0.142011
C19	C	0.796186	0.226699	0.155138
C20	C	0.556326	0.015707	0.011641
C21	C	0.469551	0.033859	0.023983
C22	C	0.444021	0.143648	0.098642
C23	C	0.530797	0.125502	0.086309
C24	C	0.586943	0.061532	0.042807
C25	C	0.561413	0.171327	0.117475
C26	C	0.648181	0.153186	0.105140
C27	C	0.704332	0.089220	0.061639
C28	C	0.673711	0.043391	0.030472
C29	C	0.505265	0.235301	0.160973
C30	C	0.535881	0.281126	0.192139
C31	C	0.622651	0.262981	0.179809
C32	C	0.678802	0.199015	0.136307
C33	C	0.653272	0.308811	0.210975
C34	C	0.740040	0.290670	0.198640
C35	C	0.765570	0.180874	0.123972
C36	C	1.062759	0.374787	0.080529
C37	C	1.045029	0.465660	0.067352
C38	C	1.239470	0.721493	0.211600
C39	C	1.222784	0.806887	0.199210
C40	C	1.121666	0.824095	0.124184
C41	C	1.138347	0.738700	0.136565
C42	C	1.197248	0.687405	0.180274
C43	C	1.096125	0.704613	0.105239
C44	C	1.112801	0.619226	0.117621
C45	C	1.171698	0.567927	0.161330
C46	C	1.213924	0.602019	0.192656
C47	C	1.037219	0.755910	0.061534
C48	C	0.994998	0.721823	0.030208
C49	C	1.011678	0.636434	0.042587
C50	C	1.070575	0.585134	0.086295
C51	C	0.969452	0.602342	0.011260
C52	C	0.986127	0.516955	0.023643
C53	C	1.087251	0.499748	0.098678
C54	C	1.321066	0.117096	0.080586
C55	C	1.413406	0.097818	0.067473
C56	C	1.094046	0.172661	0.294928
C57	C	1.089644	0.177061	0.373155
C58	C	1.146154	0.949056	0.142320
C59	C	1.163893	0.858181	0.155512
C60	C	1.114727	0.151981	-0.071496
C61	C	1.119335	0.147317	-0.149712
C62	C	1.150952	0.115745	0.409954
C63	C	1.146806	0.119878	0.483458
C64	C	1.081355	0.185332	0.520161
C65	C	1.020042	0.246652	0.483357
C66	C	1.024185	0.242515	0.409856
C67	C	1.062165	0.204500	0.739983
C68	C	1.058027	0.208634	0.813490
C69	C	1.184791	0.081859	0.813586
C70	C	1.188931	0.077730	0.740082
C71	C	1.127615	0.139047	0.703285
N72	N	1.077117	0.189560	0.595293
N73	N	1.131851	0.134815	0.628155
H74	H	0.398295	0.195735	0.134059
Cl75	Cl	0.813413	0.066416	0.046126
Cl76	Cl	0.431065	-0.023752	-0.015209
Cl77	Cl	1.016386	0.863223	0.045844
Cl78	Cl	0.744302	-0.037036	-0.024212
Cl79	Cl	0.778533	0.348280	0.237819
H80	H	0.947038	0.763599	-0.005378
Cl81	Cl	0.396182	0.258117	0.176470
H82	H	1.261894	0.560250	0.228243
Cl83	Cl	0.895394	0.666839	-0.043673
Cl84	Cl	0.465289	0.361552	0.246816
H85	H	1.234710	0.031937	0.843553
Cl86	Cl	0.933051	0.474098	-0.015741
Cl87	Cl	0.937758	0.328936	0.529499
H88	H	1.287440	0.679724	0.247186
H89	H	0.811290	0.128772	0.088560
Cl90	Cl	0.626918	-0.064720	-0.043043
Cl91	Cl	1.161311	0.435253	0.153618
H92	H	0.607545	0.360901	0.246389
Cl93	Cl	1.047615	0.888589	0.069244
Cl94	Cl	1.192389	0.460650	0.177157
H95	H	1.257158	0.834639	0.224734
H96	H	1.204251	0.062447	0.380075
Cl97	Cl	1.223911	0.042819	0.529706
H98	H	0.974255	0.292439	0.379897
Cl99	Cl	0.985082	0.281586	0.693735
H100	H	1.242230	0.024432	0.710203
H101	H	1.004727	0.261937	0.843371
