data_functionalizedCrystal
_audit_creation_method	'MofGen! by Chris Wilmer'
_symmetry_space_group_name_H-M	'P1'
_symmetry_Int_Tables_number	1
_symmetry_cell_setting	triclinic
loop_
_symmetry_equiv_pos_as_xyz
  x,y,z
_cell_length_a	8.597187
_cell_length_b	7.088929
_cell_length_c	9.065218
_cell_angle_alpha	83.685725
_cell_angle_beta	94.826766
_cell_angle_gamma	91.336285
loop_
_atom_site_label
_atom_site_type_symbol
_atom_site_fract_x
_atom_site_fract_y
_atom_site_fract_z
O1	O	2.036169	0.494382	-0.266704
O2	O	2.536169	0.994382	0.233296
O3	O	1.586868	0.420375	-0.276644
O4	O	2.086868	0.920375	0.223356
O5	O	1.820806	0.458904	-0.057193
O6	O	2.320806	0.958904	0.442807
O7	O	1.802231	0.455852	-0.486155
O8	O	2.302231	0.955852	0.013845
O9	O	1.852068	0.146078	-0.027797
O10	O	2.352068	0.646078	0.472203
O11	O	1.618130	0.107549	-0.247248
O12	O	2.118130	0.607549	0.252752
O13	O	2.067432	0.181555	-0.237308
O14	O	2.567432	0.681555	0.262692
Cu15	Cu	1.845635	0.115988	-0.239594
Cu16	Cu	2.345635	0.615988	0.260406
Cu17	Cu	1.808664	0.485942	-0.274358
Cu18	Cu	2.308664	0.985942	0.225642
O19	O	1.833493	0.143026	-0.456759
O20	O	2.333493	0.643026	0.043241
C21	C	1.544948	0.254482	-0.259240
C22	C	2.044948	0.754482	0.240760
C23	C	1.373466	0.226237	-0.251161
C24	C	1.873466	0.726237	0.248839
N25	N	1.871650	-0.144215	-0.215142
N26	N	2.371650	0.355785	0.284858
C27	C	2.109350	0.347452	-0.254712
C28	C	2.609350	0.847452	0.245288
C29	C	2.280832	0.375710	-0.262793
C30	C	2.780832	0.875710	0.237207
C31	C	1.834652	0.302200	0.012523
C32	C	2.334652	0.802200	0.512523
C33	C	1.829313	0.301330	0.176458
C34	C	2.329313	0.801330	0.676458
N35	N	1.782661	0.746147	-0.298798
N36	N	2.282661	1.246147	0.201202
C37	C	1.819647	0.299734	-0.526475
C38	C	2.319647	0.799734	-0.026475
C39	C	1.824984	0.300617	-0.690411
C40	C	2.324984	0.800617	-0.190411
H41	H	1.321581	0.076668	-0.235038
H42	H	1.821581	0.576668	0.264962
H43	H	1.963895	-0.210678	-0.128456
H44	H	2.463895	0.289322	0.371544
H45	H	1.690433	-0.187396	-0.385490
H46	H	2.190433	0.312604	0.114510
F47	F	1.348648	0.571222	-0.283889
F48	F	1.848648	1.071222	0.216111
