data_functionalizedCrystal
_audit_creation_method	'MofGen! by Chris Wilmer'
_symmetry_space_group_name_H-M	'P1'
_symmetry_Int_Tables_number	1
_symmetry_cell_setting	triclinic
loop_
_symmetry_equiv_pos_as_xyz
  x,y,z
_cell_length_a	23.096457
_cell_length_b	23.096457
_cell_length_c	17.917603
_cell_angle_alpha	116.961831
_cell_angle_beta	90.000770
_cell_angle_gamma	119.999981
loop_
_atom_site_label
_atom_site_type_symbol
_atom_site_fract_x
_atom_site_fract_y
_atom_site_fract_z
Zr1	Zr	0.561091	-0.627108	-0.093849
O2	O	0.472674	-0.739829	-0.208048
O3	O	0.588194	-0.508795	-0.058847
O4	O	0.593460	-0.619045	-0.208061
O5	O	0.463256	-0.637890	0.058875
O6	O	0.688740	-0.619046	-0.208065
O7	O	0.467408	-0.629579	-0.058834
O8	O	0.679321	-0.421830	0.058851
O9	O	0.472676	-0.835107	-0.208041
O10	O	0.670862	-0.559531	-0.043915
O11	O	0.596657	-0.565733	0.043933
O12	O	0.602857	-0.695538	-0.131748
O13	O	0.528652	-0.701739	-0.043900
Zr14	Zr	0.706431	-0.640366	0.093876
Zr15	Zr	0.713053	-0.627110	-0.093856
Zr16	Zr	0.554470	-0.640364	0.093883
Zr17	Zr	0.561095	-0.779066	-0.093839
Zr18	Zr	0.706428	-0.488409	0.093866
O19	O	0.679328	-0.758679	0.058874
O20	O	0.688743	-0.739832	-0.208057
O21	O	0.463259	-0.758676	0.058883
O22	O	0.794849	-0.527645	0.208074
O23	O	0.804263	-0.508798	-0.058857
O24	O	0.578779	-0.527642	0.208084
O25	O	0.804266	-0.629584	-0.058849
O26	O	0.674062	-0.648429	0.208088
O27	O	0.578782	-0.648428	0.208092
O28	O	0.800115	-0.637895	0.058860
O29	O	0.593465	-0.835108	-0.208047
O30	O	0.674057	-0.432366	0.208073
O31	O	0.794846	-0.432367	0.208068
O32	O	0.800110	-0.421831	0.058846
O33	O	0.467413	-0.845643	-0.058819
O34	O	0.588202	-0.845644	-0.058825
O35	O	0.664665	-0.571936	0.131774
O36	O	0.738870	-0.565735	0.043926
O37	O	0.670865	-0.701741	-0.043906
O38	O	0.596660	-0.707943	0.043942
C39	C	0.633757	-0.443662	0.000001
C40	C	0.633755	-0.379152	-0.000004
C41	C	0.672485	-0.345614	-0.045863
C42	C	0.672491	-0.284992	-0.045857
C43	C	0.633755	-0.257922	-0.000003
C44	C	0.595024	-0.291465	0.045867
C45	C	0.595024	-0.352080	0.045866
N46	N	0.573575	-0.195077	-0.006359
N47	N	0.573577	-0.137496	-0.006364
C48	C	0.633754	-0.075292	0.000003
N49	N	0.693930	-0.072849	0.006357
N50	N	0.693927	-0.130437	0.006356
C51	C	0.633751	-0.192195	0.000003
C52	C	0.672494	0.023980	-0.045852
C53	C	0.672503	0.084606	-0.045839
C54	C	0.595028	0.078127	0.045878
C55	C	0.595027	0.017508	0.045871
C56	C	0.633758	-0.009564	0.000001
C57	C	0.443681	-0.633734	0.000022
C58	C	0.379169	-0.633734	0.000025
C59	C	0.384361	-0.562741	0.045864
C60	C	0.323746	-0.562740	0.045868
C61	C	0.257939	-0.633735	0.000015
C62	C	0.252749	-0.704737	-0.045826
C63	C	0.313364	-0.704736	-0.045821
N64	N	0.137776	-0.683720	-0.074612
N65	N	0.080197	-0.683716	-0.074614
C66	C	0.075306	-0.633741	-0.000000
N67	N	0.130177	-0.583758	0.074616
N68	N	0.187763	-0.583760	0.074617
C69	C	0.192208	-0.633743	0.000006
C70	C	0.014775	-0.562743	0.045847
C71	C	-0.045843	-0.562745	0.045853
C72	C	-0.116840	-0.704743	-0.045849
C73	C	-0.056222	-0.704739	-0.045846
C74	C	0.009583	-0.633737	-0.000000
C75	C	0.823842	-0.633740	0.000005
C76	C	0.888353	-0.633740	0.000002
C77	C	0.633766	0.176186	0.000022
C78	C	0.633767	0.111673	0.000016
C79	C	0.642043	-0.617157	-0.234811
C80	C	0.644854	-0.611530	-0.314508
C81	C	0.650004	-0.601251	-0.460441
C82	C	0.617520	-0.666220	-0.539535
C83	C	0.620385	-0.660501	-0.620737
C84	C	0.647139	-0.606968	-0.379230
C85	C	0.625479	-0.650317	0.234838
C86	C	0.622668	-0.655945	0.314535
C87	C	0.823837	-0.443664	-0.000008
C88	C	0.888347	-0.379155	-0.000015
C89	C	0.625474	-0.460242	0.234825
C90	C	0.622662	-0.401359	0.314518
C91	C	0.815555	-0.460245	0.234816
C92	C	0.877254	-0.401363	0.314506
C93	C	0.451967	-0.807229	-0.234790
C94	C	0.390268	-0.866111	-0.314480
C95	C	0.443685	-0.823810	0.000034
C96	C	0.379175	-0.888319	0.000042
C97	C	0.642048	-0.807232	-0.234798
C98	C	0.644860	-0.866115	-0.314491
C99	C	0.883143	-0.345623	-0.045879
C100	C	0.943751	-0.285017	-0.045903
C101	C	1.009564	-0.257941	-0.000058
C102	C	1.014768	-0.291480	0.045807
C103	C	0.954160	-0.352088	0.045826
C104	C	0.656841	-0.376946	0.397803
C105	C	0.654195	-0.321629	0.472690
C106	C	0.617375	-0.290721	0.464290
C107	C	0.583192	-0.315140	0.380997
C108	C	0.585833	-0.370461	0.306111
C109	C	0.944969	-0.370474	0.306074
C110	C	1.002948	-0.315157	0.380944
C111	C	0.993211	-0.290724	0.464246
C112	C	0.925488	-0.321619	0.472676
C113	C	0.867511	-0.376940	0.397807
C114	C	0.322553	-0.897007	-0.306047
C115	C	0.264574	-0.952344	-0.380917
C116	C	0.274312	-0.976779	-0.464219
C117	C	0.342034	-0.945881	-0.472650
C118	C	0.400012	-0.890549	-0.397781
C119	C	0.384380	-0.921857	0.045898
C120	C	0.323772	-0.982478	0.045901
C121	C	0.257959	-1.009556	0.000054
C122	C	0.252756	-0.976014	-0.045808
C123	C	0.313363	-0.915398	-0.045816
C124	C	0.681687	-0.897005	-0.306063
C125	C	0.684343	-0.952324	-0.380936
C126	C	0.650168	-0.976756	-0.464236
C127	C	0.613340	-0.945859	-0.472662
C128	C	0.610689	-0.890537	-0.397790
H129	H	0.704031	-0.257680	-0.083202
O130	O	1.078713	-0.265047	0.090458
C131	C	1.113716	-0.184652	0.154776
H132	H	1.073773	-0.169281	0.171812
H133	H	1.150592	-0.148142	0.128507
C134	C	1.205153	-0.185794	0.216579
C135	C	1.156094	-0.166917	0.237509
H136	H	1.231297	-0.174853	0.267612
H137	H	1.181573	-0.239957	0.173246
H138	H	1.235876	-0.155367	0.194688
H139	H	1.125366	-0.197350	0.259390
H140	H	1.179670	-0.112758	0.280849
H141	H	-0.170420	-0.762548	-0.083183
H142	H	0.199163	-0.998070	-0.083136
O143	O	0.188839	-0.773730	-0.090260
C144	C	0.179881	-0.821282	-0.056556
H145	H	0.215787	-0.782784	0.013339
H146	H	0.193427	-0.864564	-0.099068
C147	C	0.059192	-0.914048	-0.142574
C148	C	0.103288	-0.866763	-0.056726
H149	H	0.011946	-0.942106	-0.142682
H150	H	0.065227	-0.882013	-0.165285
H151	H	0.070489	-0.950109	-0.177992
H152	H	0.091997	-0.830697	-0.021313
H153	H	0.097249	-0.898793	-0.034010
H154	H	0.587557	-0.726137	-0.546265
H155	H	0.917570	-0.301718	0.540511
O156	O	0.465837	-0.860494	-0.405823
C157	C	0.514930	-0.806406	-0.321886
H158	H	0.489569	-0.819842	-0.272231
H159	H	0.533228	-0.744355	-0.302827
C160	C	0.609248	-0.796493	-0.384007
C161	C	0.578101	-0.812999	-0.323021
H162	H	0.648217	-0.800556	-0.384706
H163	H	0.576174	-0.832930	-0.440557
H164	H	0.624490	-0.744784	-0.368117
H165	H	0.562852	-0.864709	-0.338917
H166	H	0.611174	-0.776570	-0.266473
H167	H	0.208614	-1.058914	0.000067
H168	H	0.952911	-0.390358	0.238252
O169	O	0.557510	-0.265014	0.090475
C170	C	0.602916	-0.184629	0.154822
H171	H	0.652446	-0.157591	0.135528
H172	H	0.617203	-0.177702	0.220599
C173	C	0.505474	-0.175912	0.186020
C174	C	0.566305	-0.142702	0.162318
H175	H	0.482890	-0.150049	0.190647
H176	H	0.474882	-0.230069	0.142670
H177	H	0.517388	-0.170137	0.240831
H178	H	0.554389	-0.148486	0.107503
H179	H	0.596894	-0.088544	0.205659
H180	H	0.437962	-0.899816	0.083238
H181	H	0.563483	-0.379388	0.083211
H182	H	0.209437	-0.977492	-0.374036
O183	O	0.217912	-1.030505	-0.536853
C184	C	0.156060	-1.052542	-0.511536
H185	H	0.167547	-1.004255	-0.442418
H186	H	0.135702	-1.109395	-0.512886
C187	C	0.086370	-1.124349	-0.660317
C188	C	0.100477	-1.065039	-0.575428
H189	H	0.052082	-1.132062	-0.699730
H190	H	0.128040	-1.109505	-0.677375
H191	H	0.069409	-1.171720	-0.661430
H192	H	0.117446	-1.017668	-0.574314
H193	H	0.058807	-1.079876	-0.558372
H194	H	0.958407	-0.379384	0.083178
H195	H	0.309130	-0.762548	-0.083147
H196	H	0.812376	-0.402082	0.404685
H197	H	0.709517	-0.877122	-0.238243
O198	O	0.710232	-0.002195	-0.090284
C199	C	0.781494	0.060108	-0.056584
H200	H	0.792167	0.106690	0.013308
H201	H	0.794867	0.087024	-0.099103
C202	C	0.813747	-0.028329	-0.142590
C203	C	0.826857	0.028881	-0.056745
H204	H	0.841730	-0.047591	-0.142692
H205	H	0.765737	-0.070304	-0.165297
H206	H	0.824892	-0.005891	-0.178013
H207	H	0.815704	0.006440	-0.021326
H208	H	0.874867	0.070851	-0.034031
O209	O	0.710116	0.117300	-0.090310
C210	C	0.701803	0.176597	-0.080488
H211	H	0.685953	0.198733	-0.018554
H212	H	0.659454	0.151792	-0.139726
C213	C	0.790807	0.217787	-0.149469
C214	C	0.771345	0.244980	-0.073396
H215	H	0.833702	0.259968	-0.145098
H216	H	0.796406	0.177836	-0.156089
H217	H	0.755510	0.197116	-0.198826
H218	H	0.806637	0.265641	-0.024042
H219	H	0.765753	0.284936	-0.066767
H220	H	0.328022	-1.009778	0.083250
O221	O	0.720118	-0.982283	-0.372584
C222	C	0.749715	-0.948846	-0.283004
H223	H	0.719184	-0.926693	-0.243088
H224	H	0.806548	-0.897758	-0.260933
C225	C	0.784015	-1.038467	-0.317916
C226	C	0.746512	-1.011264	-0.268890
H227	H	0.782042	-1.076967	-0.309209
H228	H	0.764077	-1.060993	-0.378267
H229	H	0.831372	-0.995887	-0.299517
H230	H	0.699154	-1.053841	-0.287296
H231	H	0.766442	-0.988747	-0.208541
H232	H	0.615229	-0.245676	0.525274
H233	H	0.704024	-0.367652	-0.083210
H234	H	0.309115	-0.888093	-0.083155
O235	O	0.685685	-0.529834	-0.452560
C236	C	0.680562	-0.539955	-0.536574
H237	H	0.632142	-0.600260	-0.586092
H238	H	0.729140	-0.535159	-0.555771
C239	C	0.734223	-0.401960	-0.474709
C240	C	0.674749	-0.476025	-0.535525
H241	H	0.730640	-0.362523	-0.474062
H242	H	0.737677	-0.395140	-0.418106
H243	H	0.774699	-0.397974	-0.490713
H244	H	0.634275	-0.480013	-0.519515
H245	H	0.671288	-0.482843	-0.592125
O246	O	0.819273	-0.371848	-0.090494
C247	C	0.827689	-0.329233	-0.130958
H248	H	0.882100	-0.303620	-0.140040
H249	H	0.821207	-0.279622	-0.087993
C250	C	0.705313	-0.415760	-0.209776
C251	C	0.772139	-0.384307	-0.220937
H252	H	0.671046	-0.449730	-0.265277
H253	H	0.699642	-0.444468	-0.182512
H254	H	0.699921	-0.374410	-0.173968
H255	H	0.777533	-0.425655	-0.256734
H256	H	0.777810	-0.355606	-0.248209
H257	H	0.652333	-1.021803	-0.525194
O258	O	0.938772	-0.252307	-0.090322
C259	C	0.969520	-0.171534	-0.031459
H260	H	1.008714	-0.150084	0.028881
H261	H	0.927122	-0.161420	-0.010924
C262	C	0.959300	-0.152288	-0.150522
C263	C	1.007442	-0.125940	-0.076414
H264	H	0.982689	-0.124163	-0.178252
H265	H	0.938581	-0.206706	-0.190179
H266	H	0.923971	-0.143858	-0.133398
H267	H	1.042764	-0.134380	-0.093539
H268	H	1.028167	-0.071522	-0.036760
O269	O	1.068692	-0.285287	0.372624
C270	C	1.078079	-0.346719	0.326430
H271	H	1.024965	-0.404429	0.285124
H272	H	1.105348	-0.350957	0.374914
C273	C	1.188478	-0.259261	0.317005
C274	C	1.123243	-0.330141	0.266267
H275	H	1.216340	-0.249034	0.279896
H276	H	1.182156	-0.217872	0.348129
H277	H	1.211193	-0.262802	0.357406
H278	H	1.100526	-0.326595	0.225875
H279	H	1.129563	-0.371529	0.235134
H280	H	1.058910	-0.208589	-0.000080
H281	H	0.563489	0.100167	0.083213
H282	H	-0.060453	-0.762548	-0.083180
O283	O	0.692601	-0.407020	0.405819
C284	C	0.687596	-0.461101	0.321871
H285	H	0.675687	-0.447639	0.272235
H286	H	0.643827	-0.523152	0.302794
C287	C	0.771969	-0.471074	0.383956
C288	C	0.757347	-0.454536	0.322993
H289	H	0.814993	-0.467028	0.384647
H290	H	0.775339	-0.434641	0.440513
H291	H	0.735490	-0.522783	0.368051
H292	H	0.793821	-0.402825	0.338904
H293	H	0.753985	-0.490960	0.266438
O294	O	0.351363	-0.969676	-0.553637
C295	C	0.285665	-1.025148	-0.617900
H296	H	0.244466	-1.017251	-0.588696
H297	H	0.271052	-1.086892	-0.641320
C298	C	0.339895	-1.022705	-0.731779
C299	C	0.289294	-1.013001	-0.695913
H300	H	0.342133	-1.015215	-0.779903
H301	H	0.384157	-0.985334	-0.688485
H302	H	0.327711	-1.074158	-0.751289
H303	H	0.301482	-0.961546	-0.676394
H304	H	0.245033	-1.050362	-0.739206
H305	H	0.563486	-0.009802	0.083212
O306	O	0.078680	-0.493766	0.090529
C307	C	0.083281	-0.454921	0.180031
H308	H	0.044324	-0.499505	0.196262
H309	H	0.070725	-0.409667	0.194693
C310	C	0.205738	-0.358635	0.216128
C311	C	0.157895	-0.413395	0.236066
H312	H	0.251764	-0.333017	0.250694
H313	H	0.202639	-0.384804	0.155829
H314	H	0.195266	-0.320931	0.228347
H315	H	0.168362	-0.451104	0.223837
H316	H	0.160998	-0.387232	0.296364
O317	O	0.687293	-0.297990	0.553613
C318	C	0.638028	-0.316044	0.599690
H319	H	0.583818	-0.365734	0.551113
H320	H	0.637764	-0.261971	0.644134
C321	C	0.724380	-0.280655	0.715267
C322	C	0.657799	-0.341690	0.655604
H323	H	0.736577	-0.296472	0.749761
H324	H	0.757572	-0.268489	0.684226
H325	H	0.724151	-0.235600	0.752296
H326	H	0.658031	-0.386741	0.618570
H327	H	0.624608	-0.353865	0.686640
H328	H	0.553213	-0.289967	0.374170
H329	H	0.585516	-0.965760	-0.540495
O330	O	0.552624	-0.394054	0.225275
C331	C	0.519550	-0.354920	0.233932
H332	H	0.546306	-0.298211	0.300759
H333	H	0.462154	-0.394237	0.227795
C334	C	0.491949	-0.405313	0.079326
C335	C	0.524815	-0.335659	0.161401
H336	H	0.495193	-0.393435	0.034584
H337	H	0.514229	-0.431682	0.073493
H338	H	0.444122	-0.438071	0.074225
H339	H	0.572642	-0.302907	0.166505
H340	H	0.502543	-0.309285	0.167234
O341	O	1.049590	-0.237055	0.536903
C342	C	1.090192	-0.266684	0.536763
H343	H	1.079384	-0.313314	0.466836
H344	H	1.076006	-0.293825	0.579050
C345	C	1.181583	-0.142125	0.659831
C346	C	1.168313	-0.199392	0.573945
H347	H	1.229771	-0.100617	0.682770
H348	H	1.154227	-0.122164	0.659928
H349	H	1.169756	-0.164752	0.695059
H350	H	1.180132	-0.176767	0.538716
H351	H	1.195672	-0.219349	0.573842
O352	O	0.448338	-0.493841	0.090332
C353	C	0.500727	-0.509061	0.080531
H354	H	0.479298	-0.568484	0.018604
H355	H	0.517589	-0.509728	0.139779
C356	C	0.590443	-0.371530	0.149502
C357	C	0.564125	-0.444511	0.073439
H358	H	0.629552	-0.331711	0.145132
H359	H	0.555148	-0.361275	0.156109
H360	H	0.604489	-0.372097	0.198868
H361	H	0.550072	-0.443946	0.024077
H362	H	0.599420	-0.454765	0.066824
O363	O	0.328867	-0.493733	0.090522
C364	C	0.363082	-0.454891	0.180034
H365	H	0.396278	-0.476520	0.187552
H366	H	0.322521	-0.467778	0.216819
C367	C	0.369633	-0.339271	0.208733
C368	C	0.410409	-0.365831	0.217966
H369	H	0.398824	-0.284335	0.232133
H370	H	0.346579	-0.365440	0.148428
H371	H	0.335834	-0.350018	0.239387
H372	H	0.444201	-0.355094	0.187303
H373	H	0.433470	-0.339658	0.278267
O374	O	-0.040925	-0.493852	0.090374
C375	C	-0.108535	-0.509074	0.080528
H376	H	-0.148115	-0.571678	0.063652
H377	H	-0.122043	-0.501683	0.025626
C378	C	-0.062063	-0.374225	0.187464
C379	C	-0.110675	-0.451115	0.166743
H380	H	-0.063383	-0.338472	0.240643
H381	H	-0.016512	-0.363969	0.194095
H382	H	-0.073325	-0.368077	0.141705
H383	H	-0.099407	-0.457265	0.212495
H384	H	-0.156224	-0.461372	0.160121
H385	H	0.314611	-0.877115	-0.238226
H386	H	0.580697	-0.865392	-0.404664
