data_functionalizedCrystal
_audit_creation_method	'MofGen! by Chris Wilmer'
_symmetry_space_group_name_H-M	'P1'
_symmetry_Int_Tables_number	1
_symmetry_cell_setting	triclinic
loop_
_symmetry_equiv_pos_as_xyz
  x,y,z
_cell_length_a	11.169417
_cell_length_b	11.169416
_cell_length_c	11.169409
_cell_angle_alpha	90.031365
_cell_angle_beta	90.019824
_cell_angle_gamma	90.011027
loop_
_atom_site_label
_atom_site_type_symbol
_atom_site_fract_x
_atom_site_fract_y
_atom_site_fract_z
Zn1	Zn	1.834964	-0.477682	0.678551
Zn2	Zn	2.084964	-0.227682	0.928551
Zn3	Zn	2.334964	0.022318	1.178551
Zn4	Zn	2.584964	0.272318	1.428551
Zn5	Zn	1.834854	-0.678422	0.477871
Zn6	Zn	2.084854	-0.428422	0.727871
Zn7	Zn	2.334854	-0.178422	0.977871
Zn8	Zn	2.584854	0.071578	1.227871
Zn9	Zn	1.634250	-0.477755	0.477885
Zn10	Zn	1.884250	-0.227755	0.727885
Zn11	Zn	2.134250	0.022245	0.977885
Zn12	Zn	2.384250	0.272245	1.227885
Zn13	Zn	1.634258	-0.678325	0.678516
Zn14	Zn	1.884258	-0.428325	0.928516
Zn15	Zn	2.134258	-0.178325	1.178516
Zn16	Zn	2.384258	0.071675	1.428516
O17	O	1.734581	-0.578046	0.578206
O18	O	1.984581	-0.328046	0.828206
O19	O	2.234581	-0.078046	1.078206
O20	O	2.484581	0.171954	1.328206
O21	O	2.002899	-0.504321	0.651939
O22	O	2.252899	-0.254321	0.901939
O23	O	2.502899	-0.004321	1.151939
O24	O	2.752899	0.245679	1.401939
O25	O	1.808194	-0.651875	0.309923
O26	O	2.058194	-0.401875	0.559923
O27	O	2.308194	-0.151875	0.809923
O28	O	2.558194	0.098125	1.059923
O29	O	1.660918	-0.309796	0.504524
O30	O	1.910918	-0.059796	0.754524
O31	O	2.160918	0.190204	1.004524
O32	O	2.410918	0.440204	1.254524
O33	O	2.002818	-0.651804	0.504500
O34	O	2.252818	-0.401804	0.754500
O35	O	2.502818	-0.151804	1.004500
O36	O	2.752818	0.098196	1.254500
O37	O	1.808381	-0.309742	0.651953
O38	O	2.058381	-0.059742	0.901953
O39	O	2.308381	0.190258	1.151953
O40	O	2.558381	0.440258	1.401953
O41	O	1.660811	-0.504445	0.309934
O42	O	1.910811	-0.254445	0.559934
O43	O	2.160811	-0.004445	0.809934
O44	O	2.410811	0.245555	1.059934
O45	O	1.466301	-0.504351	0.504491
O46	O	1.716301	-0.254351	0.754491
O47	O	1.966301	-0.004351	1.004491
O48	O	2.216301	0.245649	1.254491
O49	O	1.660931	-0.651637	0.846470
O50	O	1.910931	-0.401637	1.096470
O51	O	2.160931	-0.151637	1.346470
O52	O	2.410931	0.098363	1.596470
O53	O	1.466307	-0.651708	0.651893
O54	O	1.716307	-0.401708	0.901893
O55	O	1.966307	-0.151708	1.151893
O56	O	2.216307	0.098292	1.401893
O57	O	1.808389	-0.504226	0.846496
O58	O	2.058389	-0.254226	1.096496
O59	O	2.308389	-0.004226	1.346496
O60	O	2.558389	0.245774	1.596496
O61	O	1.808202	-0.846359	0.504467
O62	O	2.058202	-0.596359	0.754467
O63	O	2.308202	-0.346359	1.004467
O64	O	2.558202	-0.096359	1.254467
O65	O	1.660825	-0.846287	0.651880
O66	O	1.910825	-0.596287	0.901880
O67	O	2.160825	-0.346287	1.151880
O68	O	2.410825	-0.096287	1.401880
C69	C	1.422757	-0.578028	0.578190
C70	C	1.672757	-0.328028	0.828190
C71	C	1.922757	-0.078028	1.078190
C72	C	2.172757	0.171972	1.328190
C73	C	1.289357	-0.578049	0.578212
C74	C	1.539357	-0.328049	0.828212
C75	C	1.789357	-0.078049	1.078212
C76	C	2.039357	0.171951	1.328212
C77	C	1.734535	-0.889871	0.578194
C78	C	1.984535	-0.639871	0.828194
C79	C	2.234535	-0.389871	1.078194
C80	C	2.484535	-0.139871	1.328194
C81	C	1.734625	-1.023271	0.578229
C82	C	1.984625	-0.773271	0.828229
C83	C	2.234625	-0.523271	1.078229
C84	C	2.484625	-0.273271	1.328229
C85	C	2.047624	-0.578065	0.578222
C86	C	2.297624	-0.328065	0.828222
C87	C	2.547624	-0.078065	1.078222
C88	C	2.797624	0.171935	1.328222
C89	C	2.181024	-0.578073	0.578229
C90	C	2.431024	-0.328073	0.828229
C91	C	2.681024	-0.078073	1.078229
C92	C	2.931024	0.171927	1.328229
C93	C	1.734674	-0.577913	0.891248
C94	C	1.984674	-0.327913	1.141248
C95	C	2.234674	-0.077913	1.391248
C96	C	2.484674	0.172087	1.641248
C97	C	1.734713	-0.577856	1.024649
C98	C	1.984713	-0.327856	1.274649
C99	C	2.234713	-0.077856	1.524649
C100	C	2.484713	0.172144	1.774649
C101	C	1.734661	-0.265004	0.578244
C102	C	1.984661	-0.015004	0.828244
C103	C	2.234661	0.234996	1.078244
C104	C	2.484661	0.484996	1.328244
C105	C	1.734695	-0.131604	0.578260
C106	C	1.984695	0.118396	0.828260
C107	C	2.234695	0.368396	1.078260
C108	C	2.484695	0.618396	1.328260
C109	C	1.734559	-0.578092	0.266381
C110	C	1.984559	-0.328092	0.516381
C111	C	2.234559	-0.078092	0.766381
C112	C	2.484559	0.171908	1.016381
C113	C	1.734752	-0.577811	0.132982
C114	C	1.984752	-0.327811	0.382982
C115	C	2.234752	-0.077811	0.632982
C116	C	2.484752	0.172189	0.882982
