data_functionalizedCrystal
_audit_creation_method	'MofGen! by Chris Wilmer'
_symmetry_space_group_name_H-M	'P1'
_symmetry_Int_Tables_number	1
_symmetry_cell_setting	triclinic
loop_
_symmetry_equiv_pos_as_xyz
  x,y,z
_cell_length_a	10.654550
_cell_length_b	10.489746
_cell_length_c	9.130313
_cell_angle_alpha	89.998414
_cell_angle_beta	89.996220
_cell_angle_gamma	84.513102
loop_
_atom_site_label
_atom_site_type_symbol
_atom_site_fract_x
_atom_site_fract_y
_atom_site_fract_z
O1	O	1.667921	0.179156	-0.121921
O2	O	1.302451	0.196225	-0.121898
O3	O	1.493499	0.002089	-0.121899
O4	O	1.476873	0.373292	-0.121920
O5	O	1.493497	0.002094	0.121700
O6	O	1.302449	0.196230	0.121701
O7	O	1.667919	0.179161	0.121678
Cu8	Cu	1.485184	0.187696	0.143932
Cu9	Cu	1.485186	0.187690	-0.144152
O10	O	1.476871	0.373297	0.121679
C11	C	1.255651	0.194975	-0.000095
C12	C	1.116206	0.191225	-0.000086
C13	C	1.492241	-0.045439	-0.000100
C14	C	1.488480	-0.187067	-0.000101
C15	C	1.036776	0.305529	-0.000114
C16	C	0.905754	0.301998	-0.000139
C17	C	0.933604	0.069849	-0.000115
C18	C	1.064624	0.073381	-0.000079
C19	C	1.020696	0.439559	-0.000134
C20	C	0.889673	0.436028	-0.000159
C21	C	1.364695	-0.339865	-0.000111
C22	C	1.426584	-0.262505	-0.120219
C23	C	1.426610	-0.262541	0.119951
C24	C	1.543730	-0.362053	-0.120340
C25	C	1.543740	-0.362094	0.119938
C26	C	1.605714	-0.284784	-0.000200
C27	C	1.714719	0.180412	-0.000128
C28	C	1.854164	0.184161	-0.000147
C29	C	1.478129	0.420826	-0.000123
C30	C	1.481890	0.562453	-0.000132
N31	N	1.485191	0.187700	0.346555
N32	N	1.485189	0.187676	-0.346775
C33	C	1.569809	0.101766	0.423206
C34	C	1.569805	0.101751	0.576543
C35	C	1.400562	0.273614	0.576563
C36	C	1.400560	0.273623	0.423229
C37	C	1.667524	0.002545	0.423195
C38	C	1.667520	0.002530	0.576532
H39	H	0.891589	-0.026096	-0.000131
H40	H	1.331647	0.343586	0.360821
H41	H	1.331657	0.343570	0.639008
O42	O	1.641810	-0.114469	0.373784
C43	C	1.595126	-0.327737	0.437810
C44	C	1.624206	-0.195275	0.493966
H45	H	1.580911	-0.393113	0.534948
H46	H	1.505737	-0.317009	0.368507
H47	H	1.677299	-0.371178	0.368383
H48	H	1.542111	-0.151760	0.563453
H49	H	1.713637	-0.206086	0.563190
H50	H	0.844021	0.476536	0.105007
H51	H	1.758723	0.033613	0.375629
H52	H	1.707696	-0.260358	-0.000272
H53	H	0.847966	0.486526	-0.102116
O54	O	1.631261	-0.108007	0.633470
C55	C	1.688201	-0.292831	0.784625
C56	C	1.729410	-0.167675	0.720253
H57	H	1.767542	-0.341122	0.854778
H58	H	1.600485	-0.270394	0.855012
H59	H	1.666091	-0.359680	0.691640
H60	H	1.751588	-0.100766	0.813145
H61	H	1.817085	-0.190208	0.649827
O62	O	1.782722	0.028665	0.625938
C63	C	1.992676	0.076127	0.561903
C64	C	1.862267	0.046576	0.505752
H65	H	2.057034	0.090589	0.464762
H66	H	1.982104	0.166909	0.631228
H67	H	2.035462	-0.007342	0.631306
H68	H	1.819409	0.129966	0.436289
H69	H	1.872921	-0.044250	0.436507
H70	H	1.262790	-0.364535	-0.000224
H71	H	1.129292	-0.019697	-0.000035
H72	H	1.377111	-0.219008	-0.221757
O73	O	1.055520	0.502075	0.121593
C74	C	0.987317	0.612584	0.343253
C75	C	0.947708	0.541791	0.205480
H76	H	0.900171	0.644738	0.411099
H77	H	1.054749	0.545621	0.411351
H78	H	1.036360	0.699889	0.309243
H79	H	0.898613	0.454488	0.239360
H80	H	0.880334	0.608841	0.137416
H81	H	1.377114	-0.219070	0.221493
O82	O	1.063053	0.490555	-0.125661
C83	C	1.008449	0.582589	-0.361673
C84	C	0.960305	0.524895	-0.219572
H85	H	0.925406	0.610344	-0.437651
H86	H	1.058006	0.671245	-0.334377
H87	H	1.077604	0.508797	-0.418233
H88	H	0.891105	0.598591	-0.162942
H89	H	0.910823	0.436213	-0.246962
O90	O	1.602615	-0.413908	-0.241579
C91	C	1.665212	-0.606413	-0.377565
C92	C	1.598473	-0.547851	-0.240219
H93	H	1.661909	-0.714716	-0.376496
H94	H	1.615613	-0.564559	-0.479841
H95	H	1.767614	-0.583314	-0.377989
H96	H	1.496070	-0.570929	-0.239653
H97	H	1.648171	-0.589706	-0.138006
H98	H	1.593168	-0.405615	0.221480
