data_functionalizedCrystal
_audit_creation_method	'MofGen! by Chris Wilmer'
_symmetry_space_group_name_H-M	'P1'
_symmetry_Int_Tables_number	1
_symmetry_cell_setting	triclinic
loop_
_symmetry_equiv_pos_as_xyz
  x,y,z
_cell_length_a	10.723024
_cell_length_b	14.519709
_cell_length_c	9.798715
_cell_angle_alpha	89.995905
_cell_angle_beta	89.996609
_cell_angle_gamma	84.074007
loop_
_atom_site_label
_atom_site_type_symbol
_atom_site_fract_x
_atom_site_fract_y
_atom_site_fract_z
O1	O	1.655978	0.129347	-0.113485
O2	O	1.292710	0.141728	-0.113490
O3	O	1.483975	0.001349	-0.113475
O4	O	1.464712	0.269727	-0.113500
O5	O	1.483961	0.001348	0.113507
O6	O	1.292695	0.141728	0.113492
O7	O	1.655963	0.129347	0.113497
Zn8	Zn	1.474327	0.135537	0.149533
Zn9	Zn	1.474346	0.135538	-0.149526
O10	O	1.464698	0.269727	0.113482
C11	C	1.246211	0.140827	0.000000
C12	C	1.107682	0.138132	-0.000001
C13	C	1.031965	0.216681	-0.000009
C14	C	0.888788	0.213896	-0.000011
C15	C	1.483070	-0.033016	0.000016
C16	C	1.480380	-0.135411	0.000017
C17	C	1.470476	-0.510357	-0.000019
C18	C	1.473227	-0.406035	-0.000009
C19	C	1.475428	-0.322887	0.000000
C20	C	1.478179	-0.218559	0.000008
C21	C	1.702462	0.130248	0.000003
C22	C	1.840991	0.132944	-0.000004
C23	C	1.465603	0.304091	-0.000012
C24	C	1.468293	0.406486	-0.000022
N25	N	1.474323	0.135537	0.353632
N26	N	1.474359	0.135532	-0.353626
C27	C	1.554633	0.076335	0.421415
C28	C	1.554653	0.076332	0.578578
H29	H	1.623371	0.025649	0.363098
C30	C	1.381452	0.204009	0.432404
C31	C	1.384150	0.309023	0.412882
C32	C	1.291276	0.377498	0.491650
C33	C	1.195703	0.340960	0.589940
C34	C	1.193001	0.235942	0.609467
C35	C	1.285876	0.167466	0.530699
H36	H	1.454902	0.336075	0.340118
H37	H	1.293276	0.455240	0.477195
H38	H	1.126952	0.391650	0.648249
H39	H	1.122250	0.208889	0.682231
H40	H	1.283875	0.089725	0.545154
C41	C	0.800904	0.304746	-0.000020
C42	C	0.806556	0.374343	0.117839
C43	C	0.718669	0.465195	0.117829
C44	C	0.625131	0.486451	-0.000039
C45	C	0.619476	0.416852	-0.117907
C46	C	0.707362	0.325999	-0.117898
H47	H	0.875802	0.358610	0.205100
H48	H	0.722857	0.516717	0.205084
H49	H	0.560072	0.553705	-0.000046
H50	H	0.550230	0.432585	-0.205169
H51	H	0.703175	0.274478	-0.205152
C52	C	1.052074	0.044492	0.000007
C53	C	1.081976	-0.024414	-0.117852
C54	C	1.026371	-0.118057	-0.117845
C55	C	0.940865	-0.142794	0.000022
C56	C	0.910959	-0.073886	0.117890
C57	C	0.966564	0.019757	0.117882
H58	H	1.145276	-0.006103	-0.205112
H59	H	1.048510	-0.169066	-0.205099
H60	H	0.899704	-0.212114	0.000028
H61	H	0.847659	-0.092197	0.205150
H62	H	0.944425	0.070766	0.205136
H63	H	0.906045	0.065696	-0.000006
C64	C	1.647545	0.007856	0.657314
C65	C	1.647472	0.007980	0.814470
C66	C	1.740367	-0.060499	0.893209
C67	C	1.833334	-0.129101	0.814792
C68	C	1.833410	-0.129228	0.657627
C69	C	1.740516	-0.060749	0.578888
H70	H	1.578649	0.058766	0.872528
H71	H	1.740310	-0.060405	1.009554
H72	H	1.902101	-0.179793	0.873079
H73	H	1.902234	-0.180014	0.599569
H74	H	1.740573	-0.060843	0.462543
H75	H	1.405604	0.186222	0.588092
H76	H	1.073139	0.285991	-0.000008
