data_functionalizedCrystal
_audit_creation_method	'MofGen! by Chris Wilmer'
_symmetry_space_group_name_H-M	'P1'
_symmetry_Int_Tables_number	1
_symmetry_cell_setting	triclinic
loop_
_symmetry_equiv_pos_as_xyz
  x,y,z
_cell_length_a	11.792241
_cell_length_b	11.792241
_cell_length_c	10.868271
_cell_angle_alpha	89.999850
_cell_angle_beta	90.000107
_cell_angle_gamma	95.806585
loop_
_atom_site_label
_atom_site_type_symbol
_atom_site_fract_x
_atom_site_fract_y
_atom_site_fract_z
O1	O	-1.506908	0.155568	-0.102188
O2	O	-1.006908	0.655568	0.397812
O3	O	-1.176567	0.171601	-0.102215
O4	O	-0.676567	0.671601	0.397785
O5	O	-1.349754	-0.001586	-0.102208
O6	O	-0.849754	0.498414	0.397792
O7	O	-1.333721	0.328755	-0.102195
O8	O	-0.833721	0.828755	0.397805
O9	O	-1.349740	-0.001592	0.102436
O10	O	-0.849740	0.498408	0.602436
O11	O	-1.176553	0.171595	0.102429
O12	O	-0.676553	0.671595	0.602429
O13	O	-1.506894	0.155562	0.102457
O14	O	-1.006894	0.655562	0.602457
Zn15	Zn	-1.341721	0.163577	0.134935
Zn16	Zn	-0.841721	0.663577	0.634935
Zn17	Zn	-1.341740	0.163586	-0.134693
Zn18	Zn	-0.841740	0.663586	0.365307
O19	O	-1.333707	0.328749	0.102450
O20	O	-0.833707	0.828749	0.602450
C21	C	-1.348740	-0.043880	0.000109
C22	C	-0.848740	0.456120	0.500109
C23	C	-1.345726	-0.169894	0.000096
C24	C	-0.845726	0.330106	0.500096
C25	C	-1.134269	0.170591	0.000103
C26	C	-0.634269	0.670591	0.500103
C27	C	-1.008255	0.167576	0.000092
C28	C	-0.508255	0.667576	0.500092
C29	C	-1.549192	0.156572	0.000135
C30	C	-1.049192	0.656572	0.500135
C31	C	-1.675206	0.159587	0.000138
C32	C	-1.175206	0.659587	0.500138
N33	N	-1.341717	0.163570	0.318949
N34	N	-0.841717	0.663570	0.818949
C35	C	-0.777543	0.162034	0.000127
C36	C	-0.277543	0.662034	0.500127
C37	C	-0.905928	0.165113	0.000108
C38	C	-0.405928	0.665113	0.500108
C39	C	-1.334721	0.371043	0.000129
C40	C	-0.834721	0.871043	0.500129
C41	C	-1.337736	0.497057	0.000135
C42	C	-0.837736	0.997057	0.500135
C43	C	-1.343279	0.727769	0.000104
C44	C	-0.843279	1.227769	0.500104
C45	C	-1.340199	0.599384	0.000121
C46	C	-0.840199	1.099384	0.500121
N47	N	-1.341754	0.163584	-0.318708
N48	N	-0.841754	0.663584	0.181292
C49	C	-1.341734	0.163584	0.569955
C50	C	-0.841734	0.663584	1.069955
C51	C	-1.341721	0.163580	0.430277
C52	C	-0.841721	0.663580	0.930277
