data_functionalizedCrystal
_audit_creation_method	'MofGen! by Chris Wilmer'
_symmetry_space_group_name_H-M	'P1'
_symmetry_Int_Tables_number	1
_symmetry_cell_setting	triclinic
loop_
_symmetry_equiv_pos_as_xyz
  x,y,z
_cell_length_a	17.000383
_cell_length_b	17.038272
_cell_length_c	12.376457
_cell_angle_alpha	102.103643
_cell_angle_beta	79.610811
_cell_angle_gamma	83.355929
loop_
_atom_site_label
_atom_site_type_symbol
_atom_site_fract_x
_atom_site_fract_y
_atom_site_fract_z
O1	O	1.072195	0.012078	-0.094084
O2	O	0.842373	0.040323	-0.094070
O3	O	0.955917	-0.087520	-0.094068
O4	O	0.958651	0.139921	-0.094086
O5	O	0.927539	-0.055601	0.093944
O6	O	0.813995	0.072242	0.093942
O7	O	1.043817	0.043997	0.093928
Zn8	Zn	0.924400	0.063188	0.123786
Zn9	Zn	0.961790	0.021133	-0.123928
O10	O	0.930273	0.171840	0.093926
C11	C	0.798633	0.057800	-0.000062
C12	C	0.710579	0.062311	-0.000056
C13	C	0.212341	0.091428	-0.000101
C14	C	0.295076	0.087184	-0.000099
C15	C	0.341081	0.013520	-0.000085
C16	C	0.304347	-0.055906	-0.000083
C17	C	0.221615	-0.051663	-0.000093
C18	C	0.591113	-0.002872	-0.000064
C19	C	0.673851	-0.007109	-0.000051
C20	C	0.664574	0.135981	-0.000069
C21	C	0.581839	0.140219	-0.000072
C22	C	0.545114	0.070792	-0.000076
C23	C	0.425649	0.009181	-0.000080
C24	C	0.460548	0.075130	-0.000089
C25	C	0.939243	-0.100518	-0.000062
C26	C	0.931830	-0.186803	-0.000062
C27	C	0.999889	-0.241579	-0.000065
C28	C	0.992921	-0.322654	-0.000075
C29	C	0.917892	-0.348950	-0.000074
C30	C	0.849828	-0.294169	-0.000074
C31	C	0.856799	-0.213097	-0.000072
C32	C	0.893268	-0.593024	-0.000088
C33	C	0.886302	-0.674103	-0.000087
C34	C	1.029396	-0.702582	-0.000089
C35	C	1.036359	-0.621506	-0.000080
C36	C	0.968296	-0.566733	-0.000087
C37	C	0.910767	-0.431821	-0.000081
C38	C	0.975423	-0.483865	-0.000088
C39	C	1.087558	0.026520	-0.000082
C40	C	1.175613	0.022007	-0.000095
C41	C	0.946947	0.184838	-0.000082
C42	C	0.954361	0.271122	-0.000090
N43	N	0.898889	0.091888	0.292844
N44	N	0.987307	-0.007575	-0.292985
C45	C	1.046526	-0.074213	0.647831
C46	C	1.064376	-0.094300	0.529492
C47	C	1.023006	-0.047755	0.470324
C48	C	0.963782	0.018881	0.529507
C49	C	0.945934	0.038975	0.647858
C50	C	0.922414	0.065432	0.470351
C51	C	0.863190	0.132069	0.529534
C52	C	0.845344	0.152158	0.647874
C53	C	0.886715	0.105613	0.707042
C54	C	0.940262	0.045339	0.352000
C55	C	0.839670	0.158527	0.352027
C56	C	0.821819	0.178614	0.470367
H57	H	0.423089	0.135106	-0.000106
N58	N	0.723473	-0.086564	-0.000034
H59	H	0.687655	-0.129903	-0.000041
H60	H	0.768530	-0.103270	-0.069725
N61	N	0.551507	-0.077749	-0.000059
H62	H	0.593205	-0.125055	-0.000041
H63	H	0.506856	-0.067268	0.069636
H64	H	1.112597	-0.148554	0.481309
N65	N	1.091134	-0.124413	0.711649
H66	H	1.131357	-0.169679	0.656203
H67	H	1.120769	-0.088670	0.760736
H68	H	1.084809	-0.747187	-0.000086
H69	H	0.191712	-0.108193	-0.000091
N70	N	0.781466	0.224027	0.711711
H71	H	0.757961	0.250461	0.656275
H72	H	0.737026	0.204944	0.760821
N73	N	0.532262	0.219699	-0.000061
H74	H	0.508242	0.212858	-0.069748
H75	H	0.487256	0.236454	0.069690
N76	N	0.704184	0.210858	-0.000086
H77	H	0.677234	0.254712	0.069601
H78	H	0.763572	0.196925	-0.000124
N79	N	0.795047	0.208739	0.288226
H80	H	0.815338	0.185897	0.204276
H81	H	0.735114	0.207095	0.308932
H82	H	0.801378	-0.168498	-0.000070
H83	H	1.060985	-0.220175	-0.000058
H84	H	1.048341	-0.367249	-0.000075
N85	N	1.117293	-0.593165	-0.000106
H86	H	1.133891	-0.571996	-0.069806
H87	H	1.112812	-0.548361	0.069632
N88	N	0.757945	0.250483	0.534212
H89	H	0.783146	0.291211	0.583301
H90	H	0.734461	0.276859	0.478712
H91	H	0.872179	0.121966	0.803404
H92	H	0.341812	-0.115886	-0.000078
H93	H	0.463114	-0.050795	-0.000064
N94	N	1.056344	-0.455507	-0.000079
H95	H	1.072949	-0.434330	-0.069770
H96	H	1.051834	-0.410703	0.069668
H97	H	0.825199	-0.695505	-0.000068
N98	N	0.819861	-0.533953	-0.000090
H99	H	0.771274	-0.562916	-0.000084
H100	H	0.809114	-0.487865	0.069608
N101	N	0.768904	-0.322528	-0.000081
H102	H	0.774813	-0.382198	-0.000079
H103	H	0.728359	-0.290306	0.069618
N104	N	0.829845	-0.460189	-0.000067
H105	H	0.789259	-0.428028	0.069634
H106	H	0.810364	-0.451687	-0.069804
N107	N	1.004128	-0.026530	0.288160
H108	H	1.057861	-0.017908	0.308732
H109	H	0.988089	-0.077611	0.308790
N110	N	0.162719	0.170886	-0.000080
H111	H	0.198543	0.214220	-0.000077
H112	H	0.138706	0.163943	-0.069773
N113	N	1.042247	-0.069417	0.342687
H114	H	1.101140	-0.066604	0.314154
H115	H	1.031397	-0.126339	0.314285
H116	H	0.324978	0.143712	-0.000114
