data_functionalizedCrystal
_audit_creation_method	'MofGen! by Chris Wilmer'
_symmetry_space_group_name_H-M	'P1'
_symmetry_Int_Tables_number	1
_symmetry_cell_setting	triclinic
loop_
_symmetry_equiv_pos_as_xyz
  x,y,z
_cell_length_a	18.215407
_cell_length_b	12.594516
_cell_length_c	18.215399
_cell_angle_alpha	89.975485
_cell_angle_beta	89.983176
_cell_angle_gamma	90.016501
loop_
_atom_site_label
_atom_site_type_symbol
_atom_site_fract_x
_atom_site_fract_y
_atom_site_fract_z
Zn1	Zn	1.125095	-0.423715	-0.416146
Zn2	Zn	1.458429	-0.090382	-0.082812
Zn3	Zn	1.791762	0.242952	0.250521
Zn4	Zn	1.125029	-0.601720	-0.293092
Zn5	Zn	1.458362	-0.268387	0.040241
Zn6	Zn	1.791696	0.064947	0.373575
Zn7	Zn	1.002034	-0.423757	-0.293093
Zn8	Zn	1.335368	-0.090424	0.040240
Zn9	Zn	1.668701	0.242909	0.373574
Zn10	Zn	1.002013	-0.601653	-0.416117
Zn11	Zn	1.335346	-0.268320	-0.082784
Zn12	Zn	1.668679	0.065013	0.250550
O13	O	1.063543	-0.512711	-0.354612
O14	O	1.396876	-0.179378	-0.021279
O15	O	1.730210	0.153955	0.312055
O16	O	1.228071	-0.447338	-0.399834
O17	O	1.561404	-0.114005	-0.066501
O18	O	1.894737	0.219329	0.266833
O19	O	1.108695	-0.578158	-0.190108
O20	O	1.442028	-0.244825	0.143225
O21	O	1.775362	0.088508	0.476559
O22	O	1.018395	-0.274806	-0.309429
O23	O	1.351729	0.058527	0.023904
O24	O	1.685062	0.391861	0.357238
O25	O	1.228022	-0.578117	-0.309427
O26	O	1.561355	-0.244784	0.023906
O27	O	1.894689	0.088549	0.357240
O28	O	1.108808	-0.274775	-0.399835
O29	O	1.442141	0.058559	-0.066502
O30	O	1.775474	0.391892	0.266832
O31	O	1.018331	-0.447410	-0.190109
O32	O	1.351665	-0.114077	0.143225
O33	O	1.684998	0.219257	0.476558
O34	O	0.899047	-0.447345	-0.309401
O35	O	1.232381	-0.114012	0.023932
O36	O	1.565714	0.219321	0.357266
O37	O	1.018359	-0.578004	-0.519105
O38	O	1.351692	-0.244670	-0.185772
O39	O	1.685025	0.088663	0.147562
O40	O	0.899031	-0.578045	-0.399786
O41	O	1.232365	-0.244711	-0.066453
O42	O	1.565698	0.088622	0.266881
O43	O	1.108787	-0.447273	-0.519126
O44	O	1.442120	-0.113940	-0.185793
O45	O	1.775453	0.219393	0.147540
O46	O	1.108674	-0.750657	-0.309399
O47	O	1.442007	-0.417324	0.023934
O48	O	1.775341	-0.083990	0.357268
O49	O	1.018294	-0.750608	-0.399785
O50	O	1.351628	-0.417275	-0.066452
O51	O	1.684961	-0.083941	0.266882
C52	C	0.872337	-0.512693	-0.354591
C53	C	1.205670	-0.179360	-0.021258
C54	C	1.539003	0.153973	0.312076
C55	C	0.790538	-0.512711	-0.354599
C56	C	1.123871	-0.179378	-0.021266
C57	C	1.457204	0.153956	0.312067
C58	C	0.602355	-0.580873	-0.401604
C59	C	0.935688	-0.247540	-0.068270
C60	C	1.269021	0.085793	0.265063
C61	C	0.525496	-0.580877	-0.401613
C62	C	0.858829	-0.247543	-0.068280
C63	C	1.192163	0.085790	0.265054
C64	C	0.525483	-0.444569	-0.307636
C65	C	0.858816	-0.111236	0.025697
C66	C	1.192150	0.222098	0.359030
C67	C	0.602340	-0.444561	-0.307631
C68	C	0.935674	-0.111228	0.025702
C69	C	1.269007	0.222106	0.359035
C70	C	0.640774	-0.512719	-0.354614
C71	C	0.974108	-0.179386	-0.021281
C72	C	1.307441	0.153947	0.312053
C73	C	0.487058	-0.512730	-0.354628
C74	C	0.820391	-0.179397	-0.021295
C75	C	1.153725	0.153936	0.312039
C76	C	0.403724	-0.512734	-0.354638
C77	C	0.737058	-0.179400	-0.021304
C78	C	1.070391	0.153933	0.312029
C79	C	0.724113	-0.512715	-0.354606
C80	C	1.057447	-0.179382	-0.021272
C81	C	1.390780	0.153952	0.312061
C82	C	1.063495	-0.789252	-0.354605
C83	C	1.396828	-0.455919	-0.021271
C84	C	1.730161	-0.122586	0.312062
C85	C	1.063541	-0.907558	-0.354626
C86	C	1.396875	-0.574224	-0.021293
C87	C	1.730208	-0.240891	0.312040
C88	C	1.014379	-0.976823	-0.403753
C89	C	1.347712	-0.643490	-0.070419
C90	C	1.681046	-0.310156	0.262914
C91	C	0.996453	-1.047686	-0.336600
C92	C	1.329787	-0.714352	-0.003266
C93	C	1.663120	-0.381019	0.330067
C94	C	1.081534	-1.047494	-0.421791
C95	C	1.414868	-0.714161	-0.088457
C96	C	1.748201	-0.380827	0.244876
C97	C	1.045580	-0.976862	-0.287438
C98	C	1.378913	-0.643529	0.045896
C99	C	1.712247	-0.310196	0.379229
C100	C	1.130692	-0.976664	-0.372674
C101	C	1.464025	-0.643331	-0.039341
C102	C	1.797359	-0.309998	0.293993
C103	C	1.112792	-1.047495	-0.305475
C104	C	1.446125	-0.714162	0.027858
C105	C	1.779459	-0.380829	0.361192
C106	C	1.255496	-0.512730	-0.354634
C107	C	1.588829	-0.179397	-0.021300
C108	C	1.922162	0.153936	0.312033
C109	C	1.337295	-0.512739	-0.354643
C110	C	1.670628	-0.179405	-0.021309
C111	C	2.003961	0.153928	0.312024
C112	C	1.063578	-0.512626	-0.546565
C113	C	1.396911	-0.179293	-0.213232
C114	C	1.730244	0.154040	0.120102
C115	C	1.063592	-0.512590	-0.628364
C116	C	1.396926	-0.179257	-0.295031
C117	C	1.730259	0.154077	0.038303
C118	C	1.063611	-0.235091	-0.354635
C119	C	1.396945	0.098243	-0.021302
C120	C	1.730278	0.431576	0.312031
C121	C	1.063640	-0.116785	-0.354645
C122	C	1.396974	0.216548	-0.021312
C123	C	1.730307	0.549882	0.312021
C124	C	1.016580	-0.444463	-0.816559
C125	C	1.349913	-0.111130	-0.483226
C126	C	1.683246	0.222203	-0.149893
C127	C	1.016593	-0.444442	-0.893418
C128	C	1.349926	-0.111109	-0.560085
C129	C	1.683259	0.222225	-0.226751
C130	C	1.110693	-0.580590	-0.893406
C131	C	1.444026	-0.247257	-0.560073
C132	C	1.777360	0.086077	-0.226740
C133	C	1.110676	-0.580616	-0.816549
C134	C	1.444009	-0.247283	-0.483216
C135	C	1.777343	0.086051	-0.149882
C136	C	1.063620	-0.512547	-0.778127
C137	C	1.396954	-0.179213	-0.444794
C138	C	1.730287	0.154120	-0.111461
C139	C	1.063650	-0.512499	-0.931844
C140	C	1.396984	-0.179166	-0.598510
C141	C	1.730317	0.154167	-0.265177
C142	C	1.063664	-0.512476	-1.015177
C143	C	1.396998	-0.179143	-0.681844
C144	C	1.730331	0.154190	-0.348511
C145	C	1.063605	-0.512571	-0.694788
C146	C	1.396938	-0.179237	-0.361455
C147	C	1.730272	0.154096	-0.028122
C148	C	1.063551	-0.512719	-0.163406
C149	C	1.396884	-0.179386	0.169928
C150	C	1.730217	0.153947	0.503261
C151	C	1.063678	-0.512456	-0.081607
C152	C	1.397012	-0.179122	0.251726
C153	C	1.730345	0.154211	0.585059
H154	H	0.633645	-0.636369	-0.439862
H155	H	0.966979	-0.303036	-0.106529
H156	H	1.300312	0.030297	0.226805
Br157	Br	0.473358	-0.673371	-0.465391
Br158	Br	0.806691	-0.340037	-0.132058
Br159	Br	1.140025	-0.006704	0.201276
H160	H	1.149005	-0.636009	-0.924699
H161	H	1.482338	-0.302675	-0.591365
H162	H	1.815671	0.030658	-0.258032
Br163	Br	0.952736	-0.352058	-0.945573
Br164	Br	1.286069	-0.018724	-0.612240
Br165	Br	1.619403	0.314609	-0.278906
H166	H	0.494181	-0.389079	-0.269384
H167	H	0.827514	-0.055745	0.063950
H168	H	1.160847	0.277588	0.397283
Br169	Br	0.654486	-0.352049	-0.243862
Br170	Br	0.987819	-0.018716	0.089471
Br171	Br	1.321153	0.314618	0.422805
H172	H	1.148984	-0.636061	-0.785257
H173	H	1.482317	-0.302728	-0.451924
H174	H	1.815651	0.030605	-0.118590
H175	H	0.972730	-0.945791	-0.445237
H176	H	1.306063	-0.612457	-0.111903
H177	H	1.639397	-0.279124	0.221430
H178	H	0.939711	-1.078905	-0.321350
H179	H	1.273045	-0.745571	0.011983
H180	H	1.606378	-0.412238	0.345317
Br181	Br	0.952718	-0.352087	-0.764418
Br182	Br	1.286051	-0.018754	-0.431084
Br183	Br	1.619384	0.314580	-0.097751
H184	H	1.030336	-0.945965	-0.230630
H185	H	1.363669	-0.612631	0.102704
H186	H	1.697003	-0.279298	0.436037
H187	H	1.154409	-1.078331	-0.263891
H188	H	1.487743	-0.744997	0.069443
H189	H	1.821076	-0.411664	0.402776
Br190	Br	1.106831	-1.099215	-0.516446
Br191	Br	1.440164	-0.765882	-0.183113
Br192	Br	1.773498	-0.432548	0.150221
Br193	Br	1.225246	-0.924631	-0.398144
Br194	Br	1.558580	-0.591298	-0.064810
Br195	Br	1.891913	-0.257964	0.268523
