data_functionalizedCrystal
_audit_creation_method	'MofGen! by Chris Wilmer'
_symmetry_space_group_name_H-M	'P1'
_symmetry_Int_Tables_number	1
_symmetry_cell_setting	triclinic
loop_
_symmetry_equiv_pos_as_xyz
  x,y,z
_cell_length_a	10.654550
_cell_length_b	11.026607
_cell_length_c	9.730223
_cell_angle_alpha	89.999947
_cell_angle_beta	89.996251
_cell_angle_gamma	96.535460
loop_
_atom_site_label
_atom_site_type_symbol
_atom_site_fract_x
_atom_site_fract_y
_atom_site_fract_z
O1	O	1.704901	0.170762	-0.114401
O2	O	1.342954	0.187032	-0.114379
O3	O	1.493930	0.001991	-0.114383
O4	O	1.553926	0.355802	-0.114397
O5	O	1.493929	0.001996	0.114196
O6	O	1.342953	0.187036	0.114201
O7	O	1.704900	0.170767	0.114179
Zn8	Zn	1.523926	0.178902	0.150482
Zn9	Zn	1.523928	0.178896	-0.150682
O10	O	1.553924	0.355807	0.114183
C11	C	1.295897	0.185839	-0.000086
C12	C	1.155677	0.182265	-0.000078
C13	C	1.099841	0.291214	-0.000102
C14	C	0.968090	0.287849	-0.000126
C15	C	0.948022	0.066576	-0.000107
C16	C	1.079771	0.069943	-0.000073
C17	C	1.111426	0.418964	-0.000119
C18	C	0.979675	0.415599	-0.000143
C19	C	1.482861	-0.043310	-0.000094
C20	C	1.449867	-0.178302	-0.000097
C21	C	1.540970	-0.251341	-0.000105
C22	C	1.506871	-0.390862	-0.000108
C23	C	1.751958	0.171959	-0.000117
C24	C	1.892177	0.175533	-0.000135
C25	C	1.564993	0.401109	-0.000109
C26	C	1.597988	0.536100	-0.000115
N27	N	1.523934	0.178906	0.356018
N28	N	1.523928	0.178883	-0.356219
C29	C	1.590814	0.096998	0.427942
C30	C	1.590808	0.096983	0.571825
C31	C	1.457040	0.260795	0.571847
C32	C	1.457040	0.260803	0.427967
C33	C	1.668049	0.002426	0.427931
C34	C	1.668043	0.002411	0.571814
H35	H	1.151603	0.468929	0.095545
C36	C	1.797362	-0.447662	-0.117633
C37	C	1.737373	-0.408897	-0.000123
H38	H	1.883408	-0.413699	-0.117638
H39	H	1.792728	-0.534196	-0.117623
H40	H	1.756642	-0.421361	-0.197331
H41	H	1.778087	-0.435206	0.079576
H42	H	1.742015	-0.322345	-0.000121
H43	H	1.346625	-0.219062	-0.000100
C44	C	1.687149	-0.068762	-0.000099
C45	C	1.680347	-0.196330	-0.000106
H46	H	1.773198	-0.034806	-0.000091
H47	H	1.646449	-0.042480	-0.079804
H48	H	1.646430	-0.042487	0.079618
H49	H	1.721059	-0.222605	-0.079829
H50	H	1.721065	-0.222623	0.079607
C51	C	1.291753	0.285645	0.266176
C52	C	1.383520	0.350832	0.348902
H53	H	1.246362	0.341231	0.217371
H54	H	1.331592	0.236883	0.202742
H55	H	1.235058	0.234627	0.322319
H56	H	1.440221	0.401845	0.292757
H57	H	1.343679	0.399615	0.412343
C58	C	1.291751	0.285617	0.733671
C59	C	1.383518	0.350816	0.650943
H60	H	1.246369	0.341196	0.782505
H61	H	1.235059	0.234617	0.677537
H62	H	1.331597	0.236836	0.797093
H63	H	1.343672	0.399590	0.587514
H64	H	1.440219	0.401837	0.707082
H65	H	1.626321	-0.091025	0.388882
H66	H	1.618360	-0.085899	0.616435
C67	C	1.841717	0.160892	0.412184
C68	C	1.799826	0.042412	0.367696
H69	H	1.923076	0.185580	0.375011
H70	H	1.784335	0.215221	0.382029
H71	H	1.846169	0.162220	0.509687
H72	H	1.795365	0.041086	0.270192
H73	H	1.857223	-0.011932	0.397843
C74	C	1.046695	-0.149111	-0.000040
C75	C	1.141147	-0.049817	-0.000032
H76	H	1.084589	-0.223047	-0.000020
H77	H	0.995707	-0.145810	0.079651
H78	H	0.995746	-0.145824	-0.079771
H79	H	1.192091	-0.053098	0.079706
H80	H	1.192157	-0.053120	-0.079731
C81	C	1.141747	0.593585	-0.148870
C82	C	1.171495	0.473884	-0.133335
H83	H	1.178839	0.627487	-0.231110
H84	H	1.052644	0.593115	-0.153431
H85	H	1.173606	0.641337	-0.072612
H86	H	1.139628	0.426129	-0.209589
H87	H	1.260616	0.474346	-0.128786
C88	C	1.030625	0.505387	0.220579
C89	C	0.929320	0.467722	0.133066
H90	H	0.999533	0.537569	0.302810
H91	H	1.074659	0.437599	0.242009
H92	H	1.086376	0.566555	0.176270
H93	H	0.873573	0.406547	0.177371
H94	H	0.885266	0.535519	0.111638
C95	C	1.835863	-0.067208	0.704465
C96	C	1.804426	0.030530	0.624540
H97	H	1.920059	-0.049849	0.737009
H98	H	1.779732	-0.078785	0.780380
H99	H	1.829138	-0.139271	0.650199
H100	H	1.811142	0.102592	0.678809
H101	H	1.860573	0.042121	0.548614
C102	C	1.360685	-0.573435	-0.000103
C103	C	1.367487	-0.445868	-0.000100
H104	H	1.274637	-0.607391	-0.000090
H105	H	1.401390	-0.599712	-0.079813
H106	H	1.401400	-0.599716	0.079609
H107	H	1.326780	-0.419587	-0.079818
H108	H	1.326765	-0.419580	0.079618
H109	H	0.886203	-0.024874	-0.000124
H110	H	0.948391	0.463731	-0.095812
