data_functionalizedCrystal
_audit_creation_method	'MofGen! by Chris Wilmer'
_symmetry_space_group_name_H-M	'P1'
_symmetry_Int_Tables_number	1
_symmetry_cell_setting	triclinic
loop_
_symmetry_equiv_pos_as_xyz
  x,y,z
_cell_length_a	12.645330
_cell_length_b	12.645331
_cell_length_c	12.645323
_cell_angle_alpha	89.977324
_cell_angle_beta	90.024870
_cell_angle_gamma	89.983329
loop_
_atom_site_label
_atom_site_type_symbol
_atom_site_fract_x
_atom_site_fract_y
_atom_site_fract_z
Zn1	Zn	-0.422060	-1.620731	0.599446
Zn2	Zn	-0.599348	-1.620613	0.422186
Zn3	Zn	-0.422096	-1.443446	0.422191
Zn4	Zn	-0.599279	-1.443428	0.599402
O5	O	-0.510695	-1.532054	0.510806
O6	O	-0.445591	-1.769063	0.575949
O7	O	-0.575879	-1.597069	0.273840
O8	O	-0.273744	-1.467020	0.445724
O9	O	-0.575844	-1.768976	0.445717
O10	O	-0.273717	-1.597271	0.575953
O11	O	-0.445653	-1.466906	0.273843
O12	O	-0.445585	-1.295096	0.445681
O13	O	-0.575726	-1.466989	0.747755
O14	O	-0.575761	-1.295083	0.575877
O15	O	-0.445524	-1.597253	0.747788
O16	O	-0.747686	-1.597052	0.445674
O17	O	-0.747635	-1.466874	0.575873
C18	C	-0.786125	-1.531977	0.510791
C19	C	-0.903955	-1.532041	0.510821
C20	C	-0.510670	-1.256625	0.510776
C21	C	-0.510685	-1.138795	0.510788
C22	C	-0.510614	-1.532132	0.787312
C23	C	-0.510579	-1.532166	0.905142
C24	C	-1.071531	-1.450484	0.592982
C25	C	-0.948972	-1.450067	0.592717
C26	C	-0.948549	-1.501796	0.399099
C27	C	-1.071147	-1.501298	0.399597
C28	C	-1.071047	-1.644342	0.539475
C29	C	-0.948440	-1.643654	0.541918
C30	C	-0.234190	-1.532161	0.510844
C31	C	-0.116360	-1.532206	0.510861
C32	C	-0.510722	-1.808560	0.510838
C33	C	-0.510733	-1.926390	0.510851
C34	C	-0.428415	-0.971204	0.429333
C35	C	-0.428628	-1.093763	0.428974
C36	C	-0.622359	-1.094274	0.480273
C37	C	-0.621910	-0.971676	0.479717
C38	C	-0.482344	-0.971645	0.623072
C39	C	-0.479849	-1.094251	0.622448
C40	C	-0.510701	-1.532038	0.235377
C41	C	-0.510437	-1.532210	0.117547
C42	C	-0.592103	-1.449964	1.072685
C43	C	-0.592506	-1.450179	0.950125
C44	C	-0.540899	-1.643865	0.949662
C45	C	-0.541410	-1.643414	1.072260
C46	C	-0.398278	-1.503724	1.072340
C47	C	-0.398951	-1.501232	0.949733
H48	H	-0.918818	-1.468990	0.675558
Br49	Br	-0.572494	-1.145341	0.729100
H50	H	-0.573311	-1.366889	1.102159
Br51	Br	-0.459892	-1.142572	0.290366
Br52	Br	-0.582274	-0.923348	0.724307
Br53	Br	-0.296867	-1.603568	1.120693
H54	H	-1.100944	-1.469234	0.676094
Br55	Br	-0.729807	-1.480926	1.124139
Br56	Br	-0.459314	-0.919765	0.291545
H57	H	-0.645984	-0.943030	0.397678
Br58	Br	-0.342887	-1.142777	0.660816
H59	H	-0.622030	-1.668424	0.918973
H60	H	-1.102431	-1.367871	0.574266
Br61	Br	-1.120586	-1.596188	0.294132
H62	H	-1.100036	-1.705227	0.479663
H63	H	-1.099837	-1.419326	0.375357
H64	H	-0.685319	-0.942031	0.536502
Br65	Br	-0.560874	-1.312127	0.899947
Br66	Br	-0.900233	-1.311505	0.561129
H67	H	-1.101891	-1.671932	0.619558
H68	H	-0.919391	-1.559431	0.336240
Br69	Br	-0.731078	-1.481583	0.901257
Br70	Br	-0.290604	-1.143939	0.460852
Br71	Br	-0.678065	-1.683657	1.119953
H72	H	-0.685331	-1.123444	0.537783
H73	H	-0.917936	-1.420678	0.374420
H74	H	-0.646847	-1.124930	0.399115
Br75	Br	-0.899859	-1.681675	0.678962
H76	H	-0.334889	-1.556760	0.919112
Br77	Br	-0.360842	-1.364216	0.901252
Br78	Br	-0.348985	-0.920154	0.669326
H79	H	-0.484511	-1.706772	1.101938
H80	H	-0.917790	-1.707747	0.486462
Br81	Br	-0.289969	-0.922099	0.460865
Br82	Br	-0.352213	-1.370328	1.123844
Br83	Br	-0.444896	-1.748746	0.901109
