data_functionalizedCrystal
_audit_creation_method	'MofGen! by Chris Wilmer'
_symmetry_space_group_name_H-M	'P1'
_symmetry_Int_Tables_number	1
_symmetry_cell_setting	triclinic
loop_
_symmetry_equiv_pos_as_xyz
  x,y,z
_cell_length_a	19.188933
_cell_length_b	19.188924
_cell_length_c	16.053802
_cell_angle_alpha	92.554672
_cell_angle_beta	87.428887
_cell_angle_gamma	83.143767
loop_
_atom_site_label
_atom_site_type_symbol
_atom_site_fract_x
_atom_site_fract_y
_atom_site_fract_z
O1	O	0.929095	0.084227	-0.069405
O2	O	1.429095	0.584227	0.430595
O3	O	0.725784	0.095959	-0.069413
O4	O	1.225784	0.595959	0.430587
O5	O	0.833309	-0.011563	-0.069399
O6	O	1.333309	0.488437	0.430601
O7	O	0.821571	0.191748	-0.069419
O8	O	1.321571	0.691748	0.430581
O9	O	0.827391	-0.005669	0.069459
O10	O	1.327391	0.494331	0.569459
O11	O	0.719866	0.101853	0.069445
O12	O	1.219866	0.601853	0.569445
O13	O	0.923177	0.090121	0.069453
O14	O	1.423177	0.590121	0.569453
Zn15	Zn	0.820582	0.096923	0.091496
Zn16	Zn	1.320582	0.596923	0.591496
Zn17	Zn	0.828379	0.089157	-0.091456
Zn18	Zn	1.328379	0.589157	0.408544
O19	O	0.815652	0.197642	0.069439
O20	O	1.315652	0.697642	0.569439
C21	C	0.696814	0.098526	0.000015
C22	C	1.196814	0.598526	0.500015
C23	C	0.619310	0.097385	0.000012
C24	C	1.119310	0.597385	0.500012
C25	C	0.829970	-0.034627	0.000031
C26	C	1.329970	0.465373	0.500031
C27	C	0.828832	-0.112131	0.000033
C28	C	1.328832	0.387869	0.500033
C29	C	0.069280	0.086027	-0.075670
C30	C	0.569280	0.586027	0.424330
C31	C	0.142105	0.087095	-0.075673
C32	C	0.642105	0.587095	0.424327
C33	C	0.175296	0.090845	0.000018
C34	C	0.675296	0.590845	0.500018
C35	C	0.135658	0.093509	0.075718
C36	C	0.635658	0.593509	0.575718
C37	C	0.062836	0.092434	0.075720
C38	C	0.562836	0.592434	0.575720
N39	N	0.281913	0.134655	0.056355
N40	N	0.781913	0.634655	0.556355
N41	N	0.351091	0.135678	0.056348
N42	N	0.851091	0.635678	0.556348
C43	C	0.394704	0.094083	0.000019
C44	C	0.894704	0.594083	0.500019
N45	N	0.366525	0.051436	-0.056316
N46	N	0.866525	0.551436	0.443684
N47	N	0.297341	0.050416	-0.056312
N48	N	0.797341	0.550416	0.443688
C49	C	0.254259	0.092011	0.000025
C50	C	0.754259	0.592011	0.500025
C51	C	0.513298	0.092572	-0.075680
C52	C	1.013298	0.592572	0.424320
C53	C	0.586124	0.093636	-0.075680
C54	C	1.086124	0.593636	0.424320
C55	C	0.579675	0.100057	0.075714
C56	C	1.079675	0.600057	0.575714
C57	C	0.506851	0.098986	0.075712
C58	C	1.006851	0.598986	0.575712
C59	C	0.473667	0.095247	0.000013
C60	C	0.973667	0.595247	0.500013
C61	C	0.831526	-0.151743	-0.075659
C62	C	1.331526	0.348257	0.424341
C63	C	0.830447	-0.224566	-0.075665
C64	C	1.330447	0.275434	0.424335
C65	C	0.826686	-0.257776	0.000025
C66	C	1.326686	0.242224	0.500025
C67	C	0.823987	-0.218155	0.075726
C68	C	1.323987	0.281845	0.575726
C69	C	0.825060	-0.145332	0.075731
C70	C	1.325060	0.354668	0.575731
N71	N	0.862333	-0.375048	0.056360
N72	N	1.362333	0.124952	0.556360
N73	N	0.861315	-0.444227	0.056351
N74	N	1.361315	0.055773	0.556351
C75	C	0.823452	-0.477186	0.000016
C76	C	1.323452	0.022814	0.500016
N77	N	0.786654	-0.438354	-0.056322
N78	N	1.286654	0.061646	0.443678
N79	N	0.787675	-0.369170	-0.056315
N80	N	1.287675	0.130830	0.443685
C81	C	0.825522	-0.336739	0.000028
C82	C	1.325522	0.163261	0.500028
C83	C	0.824976	-0.595761	-0.075688
C84	C	1.324976	-0.095761	0.424312
C85	C	0.823891	-0.668584	-0.075691
C86	C	1.323891	-0.168584	0.424309
C87	C	0.817439	-0.662172	0.075703
C88	C	1.317439	-0.162172	0.575703
C89	C	0.818516	-0.589349	0.075704
C90	C	1.318516	-0.089349	0.575704
C91	C	0.822288	-0.556148	0.000006
C92	C	1.322288	-0.056148	0.500006
C93	C	0.952147	0.087554	0.000023
C94	C	1.452147	0.587554	0.500023
C95	C	1.029652	0.088695	0.000021
C96	C	1.529652	0.588695	0.500021
C97	C	0.818991	0.220706	0.000007
C98	C	1.318991	0.720706	0.500007
C99	C	0.820130	0.298211	-0.000000
C100	C	1.320130	0.798211	0.500000
N101	N	0.815265	0.102222	0.216355
N102	N	1.315265	0.602222	0.716355
N103	N	0.833702	0.083852	-0.216315
N104	N	1.333702	0.583852	0.283685
C105	C	0.861034	0.056488	0.260055
C106	C	1.361034	0.556488	0.760055
C107	C	0.857321	0.060201	0.347462
C108	C	1.357321	0.560201	0.847462
C109	C	0.807843	0.109653	0.391166
C110	C	1.307843	0.609653	0.891166
C111	C	0.762069	0.155390	0.347460
C112	C	1.262069	0.655390	0.847460
C113	C	0.765779	0.151672	0.260056
C114	C	1.265779	0.651672	0.760056
C115	C	0.791638	0.125871	0.652574
C116	C	1.291638	0.625871	1.152574
C117	C	0.787933	0.129587	0.739985
C118	C	1.287933	0.629587	1.239985
C119	C	0.883184	0.034397	0.739980
C120	C	1.383184	0.534397	1.239980
C121	C	0.886892	0.030687	0.652574
C122	C	1.386892	0.530687	1.152574
C123	C	0.841117	0.076421	0.608875
C124	C	1.341117	0.576421	1.108875
N125	N	0.804048	0.113452	0.480510
N126	N	1.304048	0.613452	0.980510
N127	N	0.844908	0.072618	0.519533
N128	N	1.344908	0.572618	1.019533
H129	H	0.042267	0.082979	-0.137310
H130	H	0.542267	0.582979	0.362690
H131	H	0.822863	-0.113080	0.137370
H132	H	1.322863	0.386920	0.637370
H133	H	0.728509	0.188913	0.224476
H134	H	1.228509	0.688913	0.724476
H135	H	0.174376	0.084926	-0.137311
H136	H	0.674376	0.584926	0.362689
Cl137	Cl	0.725727	0.191762	0.794922
Cl138	Cl	1.225727	0.691762	1.294922
H139	H	0.834595	-0.124715	-0.137298
H140	H	1.334595	0.375285	0.362702
H141	H	0.826082	-0.700835	-0.137331
H142	H	1.326082	-0.200835	0.362669
Cl143	Cl	0.177383	0.098221	0.170873
Cl144	Cl	0.677383	0.598221	0.670873
H145	H	0.894589	0.022960	0.383042
H146	H	1.394589	0.522960	0.883042
Cl147	Cl	0.013014	0.095792	0.170881
Cl148	Cl	0.513014	0.595792	0.670881
H149	H	0.486278	0.089525	-0.137318
H150	H	0.986278	0.589525	0.362682
H151	H	0.618390	0.091458	-0.137319
H152	H	1.118390	0.591458	0.362681
H153	H	0.606698	0.103108	0.137343
H154	H	1.106698	0.603108	0.637343
Cl155	Cl	0.923242	-0.005681	0.205122
Cl156	Cl	1.423242	0.494319	0.705122
Cl157	Cl	0.734096	0.183367	0.597644
Cl158	Cl	1.234096	0.683367	1.097644
H159	H	0.474584	0.101161	0.137347
H160	H	0.974584	0.601161	0.637347
H161	H	0.832637	-0.256824	-0.137304
H162	H	1.332637	0.243176	0.362696
Cl163	Cl	0.699864	0.217556	0.402401
Cl164	Cl	1.199864	0.717556	0.902401
H165	H	0.820923	-0.245199	0.137353
H166	H	1.320923	0.254801	0.637353
H167	H	0.828043	-0.568726	-0.137325
H168	H	1.328043	-0.068726	0.362675
Cl169	Cl	0.812708	-0.703915	0.170857
Cl170	Cl	1.312708	-0.203915	0.670857
H171	H	0.927182	-0.009581	0.616991
H172	H	1.427182	0.490419	1.116991
Cl173	Cl	0.815128	-0.539549	0.170865
Cl174	Cl	1.315128	-0.039549	0.670865
H175	H	0.920452	-0.002838	0.775567
H176	H	1.420452	0.497162	1.275567
