data_functionalizedCrystal
_audit_creation_method	'MofGen! by Chris Wilmer'
_symmetry_space_group_name_H-M	'P1'
_symmetry_Int_Tables_number	1
_symmetry_cell_setting	triclinic
loop_
_symmetry_equiv_pos_as_xyz
  x,y,z
_cell_length_a	12.594516
_cell_length_b	12.594517
_cell_length_c	16.625539
_cell_angle_alpha	90.025391
_cell_angle_beta	89.975805
_cell_angle_gamma	89.986890
loop_
_atom_site_label
_atom_site_type_symbol
_atom_site_fract_x
_atom_site_fract_y
_atom_site_fract_z
Zn1	Zn	-0.423884	-1.627247	-0.456036
Zn2	Zn	0.076116	-1.127247	0.043964
Zn3	Zn	-0.601885	-1.627132	-0.321213
Zn4	Zn	-0.101885	-1.127132	0.178787
Zn5	Zn	-0.423905	-1.449252	-0.321205
Zn6	Zn	0.076095	-0.949252	0.178795
Zn7	Zn	-0.601805	-1.449226	-0.455991
Zn8	Zn	-0.101805	-0.949226	0.044009
O9	O	-0.512870	-1.538214	-0.388611
O10	O	-0.012870	-1.038214	0.111389
O11	O	-0.447521	-1.776177	-0.438173
O12	O	0.052479	-1.276177	0.061827
O13	O	-0.578318	-1.603499	-0.208380
O14	O	-0.078318	-1.103499	0.291620
O15	O	-0.274957	-1.472922	-0.339106
O16	O	0.225043	-0.972922	0.160894
O17	O	-0.578298	-1.776093	-0.339119
O18	O	-0.078298	-1.276093	0.160881
O19	O	-0.274941	-1.603694	-0.438166
O20	O	0.225059	-1.103694	0.061834
O21	O	-0.447557	-1.472811	-0.208374
O22	O	0.052443	-0.972811	0.291626
O23	O	-0.447480	-1.300303	-0.339063
O24	O	0.052520	-0.800303	0.160937
O25	O	-0.578161	-1.472878	-0.568830
O26	O	-0.078161	-0.972878	-0.068830
O27	O	-0.578182	-1.300284	-0.438090
O28	O	-0.078182	-0.800284	0.061910
O29	O	-0.447443	-1.603669	-0.568863
O30	O	0.052557	-1.103669	-0.068863
O31	O	-0.750820	-1.603474	-0.339076
O32	O	-0.250820	-1.103474	0.160924
O33	O	-0.750762	-1.472767	-0.438097
O34	O	-0.250762	-0.972767	0.061903
C35	C	-0.789411	-1.538134	-0.388600
C36	C	-0.289411	-1.038134	0.111400
C37	C	-0.907716	-1.538198	-0.388623
C38	C	-0.407716	-1.038198	0.111377
C39	C	-0.512825	-1.261673	-0.388571
C40	C	-0.012825	-0.761673	0.111429
C41	C	-0.512832	-1.143368	-0.388573
C42	C	-0.012832	-0.643368	0.111427
C43	C	-1.047740	-1.467164	-0.442453
C44	C	-0.547740	-0.967164	0.057547
C45	C	-0.976838	-1.564199	-0.462241
C46	C	-0.476838	-1.064199	0.037759
C47	C	-0.977046	-1.441173	-0.368870
C48	C	-0.477046	-0.941173	0.131130
C49	C	-1.047600	-1.635457	-0.408479
C50	C	-0.547600	-1.135457	0.091521
C51	C	-1.047814	-1.512366	-0.315074
C52	C	-0.547814	-1.012366	0.184926
C53	C	-0.976945	-1.609468	-0.334834
C54	C	-0.476945	-1.109468	0.165166
C55	C	-0.441640	-1.074094	-0.334811
C56	C	0.058360	-0.574094	0.165189
C57	C	-0.538721	-1.003280	-0.314976
C58	C	-0.038721	-0.503280	0.185024
C59	C	-0.415780	-1.003383	-0.408410
C60	C	0.084220	-0.503383	0.091590
C61	C	-0.609964	-1.074112	-0.368700
C62	C	-0.109964	-0.574112	0.131300
C63	C	-0.486957	-1.074222	-0.462168
C64	C	0.013043	-0.574222	0.037832
C65	C	-0.584106	-1.003439	-0.442360
C66	C	-0.084106	-0.503439	0.057640
C67	C	-0.235249	-1.538324	-0.388640
C68	C	0.264751	-1.038324	0.111360
C69	C	-0.116944	-1.538370	-0.388652
C70	C	0.383056	-1.038370	0.111348
C71	C	-0.512791	-1.538284	-0.598920
C72	C	-0.012791	-1.038284	-0.098920
C73	C	-0.512757	-1.538313	-0.688542
C74	C	-0.012757	-1.038313	-0.188542
C75	C	-0.512894	-0.815835	-0.388637
C76	C	-0.012894	-0.315835	0.111363
C77	C	-0.512850	-0.934141	-0.388610
C78	C	-0.012850	-0.434141	0.111390
C79	C	-0.512638	-1.538362	-1.016717
C80	C	-0.012638	-1.038362	-0.516717
C81	C	-0.512674	-1.538346	-0.925409
C82	C	-0.012674	-1.038346	-0.425409
C83	C	-0.512698	-1.538338	-0.852632
C84	C	-0.012698	-1.038338	-0.352632
C85	C	-0.512733	-1.538320	-0.761318
C86	C	-0.012733	-1.038320	-0.261318
C87	C	-0.512872	-1.538207	-0.179121
C88	C	-0.012872	-1.038207	0.320879
C89	C	-0.512606	-1.538383	-0.089500
C90	C	-0.012606	-1.038383	0.410500
H91	H	-1.078821	-1.407095	-0.487998
H92	H	-0.578821	-0.907095	0.012002
H93	H	-1.079012	-1.490409	-0.252880
H94	H	-0.579012	-0.990409	0.247120
H95	H	-0.644388	-0.972611	-0.487841
H96	H	-0.144388	-0.472611	0.012159
C97	C	-0.568303	-0.961176	-0.230920
C98	C	-0.068303	-0.461176	0.269080
N99	N	-0.590575	-0.929464	-0.167607
N100	N	-0.090575	-0.429464	0.332393
H101	H	-0.381502	-1.105118	-0.289296
H102	H	0.118498	-0.605118	0.210704
H103	H	-0.692072	-1.105050	-0.351869
H104	H	-0.192072	-0.605050	0.148131
H105	H	-0.333707	-0.972259	-0.425144
H106	H	0.166293	-0.472259	0.074856
C107	C	-0.934728	-1.593827	-0.546286
C108	C	-0.434728	-1.093827	-0.046286
N109	N	-0.903018	-1.616139	-0.609591
N110	N	-0.403018	-1.116139	-0.109591
C111	C	-1.089294	-1.746438	-0.431170
C112	C	-0.589294	-1.246438	0.068830
N113	N	-1.120700	-1.830025	-0.448265
N114	N	-0.620700	-1.330025	0.051735
H115	H	-0.946058	-1.669680	-0.289324
H116	H	-0.446058	-1.169680	0.210676
C117	C	-0.935176	-1.330223	-0.346279
C118	C	-0.435176	-0.830223	0.153721
N119	N	-0.903645	-1.246653	-0.329269
N120	N	-0.403645	-0.746653	0.170731
H121	H	-0.465028	-1.105406	-0.524370
H122	H	0.034972	-0.605406	-0.024370
