data_functionalizedCrystal
_audit_creation_method	'MofGen! by Chris Wilmer'
_symmetry_space_group_name_H-M	'P1'
_symmetry_Int_Tables_number	1
_symmetry_cell_setting	triclinic
loop_
_symmetry_equiv_pos_as_xyz
  x,y,z
_cell_length_a	14.908571
_cell_length_b	19.077068
_cell_length_c	19.076919
_cell_angle_alpha	94.470751
_cell_angle_beta	90.880329
_cell_angle_gamma	90.846261
loop_
_atom_site_label
_atom_site_type_symbol
_atom_site_fract_x
_atom_site_fract_y
_atom_site_fract_z
Zn1	Zn	1.336296	0.359450	0.472414
Zn2	Zn	1.336185	0.472598	0.359254
Zn3	Zn	1.192448	0.347978	0.347809
Zn4	Zn	1.179830	0.469951	0.469777
O5	O	1.261190	0.412494	0.412314
O6	O	1.461918	0.380369	0.463297
O7	O	1.322353	0.452374	0.259334
O8	O	1.216857	0.251100	0.360653
O9	O	1.461836	0.463498	0.380158
O10	O	1.322542	0.259529	0.452200
O11	O	1.216750	0.360816	0.250926
O12	O	1.065138	0.358248	0.358095
O13	O	1.195351	0.458986	0.568529
O14	O	1.055867	0.447861	0.447704
O15	O	1.310306	0.377801	0.570466
O16	O	1.310117	0.570646	0.377601
O17	O	1.195243	0.568701	0.458801
C18	C	1.027927	0.401523	0.401372
C19	C	0.928134	0.396847	0.396709
C20	C	1.251322	0.595189	0.419173
C21	C	1.247182	0.673351	0.422135
C22	C	1.251433	0.419378	0.595726
C23	C	1.247276	0.422312	0.673885
C24	C	0.731006	0.481510	0.481140
C25	C	0.637242	0.477119	0.476761
C26	C	0.646839	0.383671	0.383575
C27	C	0.740603	0.388062	0.387954
C28	C	0.782683	0.436984	0.436738
C29	C	0.876450	0.441378	0.441113
C30	C	0.886045	0.347927	0.347931
C31	C	0.792280	0.343536	0.343552
C32	C	1.495364	0.423508	0.423298
C33	C	1.595155	0.428202	0.427979
C34	C	1.271120	0.229088	0.405444
C35	C	1.275351	0.150931	0.402516
C36	C	1.305087	0.711065	0.381289
C37	C	1.301198	0.784507	0.384079
C38	C	1.239398	0.820234	0.427712
C39	C	1.181489	0.782515	0.468563
C40	C	1.185384	0.709075	0.465776
C41	C	1.221337	1.039771	0.440580
C42	C	1.217445	1.113217	0.443362
C43	C	1.337155	1.115204	0.358879
C44	C	1.341041	1.041762	0.356093
C45	C	1.283135	1.004050	0.396946
N46	N	1.235419	0.895304	0.430564
N47	N	1.287119	0.928982	0.394098
C48	C	1.270963	0.405589	0.229616
C49	C	1.275305	0.402465	0.151458
C50	C	1.305170	0.381423	0.711614
C51	C	1.301253	0.384176	0.785052
C52	C	1.239444	0.427822	0.820760
C53	C	1.181544	0.468712	0.783026
C54	C	1.185457	0.465954	0.709588
C55	C	1.221318	0.440598	1.040286
C56	C	1.217410	0.443354	1.113728
C57	C	1.337119	0.358817	1.115750
C58	C	1.341031	0.356066	1.042311
C59	C	1.283127	0.396953	1.004583
N60	N	1.235441	0.430639	0.895826
N61	N	1.287127	0.394132	0.929518
H62	H	0.910710	0.481214	0.480834
C63	C	1.373070	0.671768	0.333292
C64	C	1.369546	0.678567	0.253393
C65	C	1.437532	0.639273	0.205397
C66	C	1.509043	0.593180	0.237299
C67	C	1.512570	0.586379	0.317202
C68	C	1.444583	0.625673	0.365198
H69	H	1.316607	0.712690	0.229774
H70	H	1.434921	0.644308	0.146247
H71	H	1.559370	0.564092	0.201769
H72	H	1.565508	0.552257	0.340821
H73	H	1.447195	0.620639	0.424348
C74	C	1.157614	0.485578	0.998805
C75	C	1.055328	0.475409	1.003923
C76	C	0.991614	0.520392	0.962446
C77	C	1.030187	0.575543	0.915852
C78	C	1.132478	0.585714	0.910733
C79	C	1.196192	0.540731	0.952209
H80	H	1.026770	0.434581	1.038416
H81	H	0.915891	0.512863	0.966236
H82	H	0.983022	0.608843	0.885148
H83	H	1.161036	0.626543	0.876239
H84	H	1.271915	0.548261	0.948419
H85	H	1.348351	0.815211	0.350818
C86	C	1.409015	1.002458	0.308094
C87	C	1.480522	0.956357	0.339989
C88	C	1.548490	0.917050	0.291985
C89	C	1.544951	0.923845	0.212086
C90	C	1.473442	0.969948	0.180187
C91	C	1.405474	1.009255	0.228191
H92	H	1.483144	0.951325	0.399139
H93	H	1.601426	0.882921	0.315600
H94	H	1.595265	0.894748	0.176551
H95	H	1.470819	0.974980	0.121037
H96	H	1.352538	1.043384	0.204576
H97	H	1.167130	1.142305	0.478906
C98	C	1.364940	0.339203	0.826558
C99	C	1.326339	0.284060	0.873149
C100	C	1.390028	0.239085	0.914656
C101	C	1.492318	0.249253	0.909573
C102	C	1.530924	0.304398	0.862981
C103	C	1.467235	0.349374	0.821474
H104	H	1.250613	0.276531	0.876913
H105	H	1.361448	0.198262	0.949147
H106	H	1.539464	0.215960	0.940299
H107	H	1.606650	0.311928	0.859217
H108	H	1.495815	0.390196	0.786983
C109	C	0.580396	0.526100	0.525602
C110	C	0.477258	0.521273	0.520788
C111	C	0.420412	0.570256	0.569632
C112	C	0.466703	0.624066	0.623289
C113	C	0.569846	0.628895	0.628105
C114	C	0.626692	0.579912	0.579261
H115	H	0.442986	0.481438	0.481066
H116	H	0.344058	0.566681	0.566067
H117	H	0.424622	0.660326	0.659447
H118	H	0.604118	0.668730	0.667827
H119	H	0.703046	0.583488	0.582826
H120	H	1.384300	1.145917	0.325620
H121	H	1.355504	0.345885	0.682546
H122	H	0.765269	0.521348	0.520857
C123	C	0.745984	0.289724	0.289896
C124	C	0.762868	0.210618	0.293362
C125	C	0.716571	0.156805	0.239706
C126	C	0.653391	0.182097	0.182583
C127	C	0.636504	0.261206	0.179115
C128	C	0.682800	0.315020	0.232771
H129	H	0.809640	0.191892	0.335650
H130	H	0.729072	0.098242	0.242274
H131	H	0.619120	0.142261	0.142863
H132	H	0.589732	0.279932	0.136827
H133	H	0.670299	0.373582	0.230203
C134	C	1.157634	0.998298	0.485515
C135	C	1.091471	0.943413	0.449788
C136	C	1.027763	0.901939	0.494725
C137	C	1.030217	0.915350	0.575389
C138	C	1.096383	0.970237	0.611120
C139	C	1.160091	1.011712	0.566183
H140	H	1.089652	0.933484	0.390071
H141	H	0.978782	0.861307	0.468274
H142	H	0.983056	0.884648	0.608654
H143	H	1.098202	0.980167	0.670837
H144	H	1.209071	1.052343	0.592634
H145	H	0.612560	0.343837	0.343862
H146	H	1.138232	0.678369	0.499038
H147	H	1.391364	0.320528	1.013243
H148	H	0.928131	0.311672	0.311774
C149	C	1.400805	0.313839	1.157252
C150	C	1.468791	0.265829	1.117975
C151	C	1.532478	0.220847	1.159476
C152	C	1.528178	0.223874	1.240254
C153	C	1.460189	0.271885	1.279535
C154	C	1.396502	0.316868	1.238034
H155	H	1.471977	0.263586	1.058174
H156	H	1.582808	0.185305	1.130396
H157	H	1.575323	0.190575	1.270975
H158	H	1.457004	0.274128	1.339336
H159	H	1.346172	0.352409	1.267114
H160	H	1.167075	0.478897	1.142799
C161	C	1.121777	0.510934	0.668081
C162	C	1.019486	0.500776	0.673168
C163	C	0.955802	0.545754	0.631659
C164	C	0.994409	0.600890	0.585064
C165	C	1.096705	0.611050	0.579975
C166	C	1.160389	0.566072	0.621483
H167	H	0.990902	0.459959	0.707662
H168	H	0.880075	0.538232	0.635427
H169	H	0.947266	0.634185	0.554337
H170	H	1.125289	0.651868	0.545480
H171	H	1.236116	0.573594	0.617716
H172	H	1.131174	0.811610	0.504093
H173	H	1.131215	0.504246	0.812105
