data_functionalizedCrystal
_audit_creation_method	'MofGen! by Chris Wilmer'
_symmetry_space_group_name_H-M	'P1'
_symmetry_Int_Tables_number	1
_symmetry_cell_setting	triclinic
loop_
_symmetry_equiv_pos_as_xyz
  x,y,z
_cell_length_a	16.625546
_cell_length_b	12.759386
_cell_length_c	16.625548
_cell_angle_alpha	89.965257
_cell_angle_beta	90.027358
_cell_angle_gamma	89.932977
loop_
_atom_site_label
_atom_site_type_symbol
_atom_site_fract_x
_atom_site_fract_y
_atom_site_fract_z
Zn1	Zn	-0.320604	-0.593770	1.232869
Zn2	Zn	-0.070604	-0.343770	1.482869
Zn3	Zn	0.179396	-0.093770	1.732869
Zn4	Zn	0.429396	0.156230	1.982869
Zn5	Zn	-0.455533	-0.418076	1.232716
Zn6	Zn	-0.205533	-0.168076	1.482716
Zn7	Zn	0.044467	0.081924	1.732716
Zn8	Zn	0.294467	0.331924	1.982716
Zn9	Zn	-0.320730	-0.418129	1.097975
Zn10	Zn	-0.070730	-0.168129	1.347975
Zn11	Zn	0.179270	0.081871	1.597975
Zn12	Zn	0.429270	0.331871	1.847975
Zn13	Zn	-0.455410	-0.593737	1.098001
Zn14	Zn	-0.205410	-0.343737	1.348001
Zn15	Zn	0.044590	-0.093737	1.598001
Zn16	Zn	0.294590	0.156263	1.848001
O17	O	-0.388069	-0.505928	1.165390
O18	O	-0.138069	-0.255928	1.415390
O19	O	0.111931	-0.005928	1.665390
O20	O	0.361931	0.244072	1.915390
O21	O	-0.338501	-0.570456	1.345681
O22	O	-0.088501	-0.320456	1.595681
O23	O	0.161499	-0.070456	1.845681
O24	O	0.411499	0.179544	2.095681
O25	O	-0.437755	-0.271062	1.214768
O26	O	-0.187755	-0.021062	1.464768
O27	O	0.062245	0.228938	1.714768
O28	O	0.312245	0.478938	1.964768
O29	O	-0.207880	-0.441464	1.115922
O30	O	0.042120	-0.191464	1.365922
O31	O	0.292120	0.058536	1.615922
O32	O	0.542120	0.308536	1.865922
O33	O	-0.437633	-0.441374	1.345569
O34	O	-0.187633	-0.191374	1.595569
O35	O	0.062367	0.058626	1.845569
O36	O	0.312367	0.308626	2.095569
O37	O	-0.207788	-0.570507	1.215028
O38	O	0.042212	-0.320507	1.465028
O39	O	0.292212	-0.070507	1.715028
O40	O	0.542212	0.179493	1.965028
O41	O	-0.338716	-0.271101	1.115774
O42	O	-0.088716	-0.021101	1.365774
O43	O	0.161284	0.228899	1.615774
O44	O	0.411284	0.478899	1.865774
O45	O	-0.338596	-0.441432	0.985146
O46	O	-0.088596	-0.191432	1.235146
O47	O	0.161404	0.058568	1.485146
O48	O	0.411404	0.308568	1.735146
O49	O	-0.437423	-0.740763	1.115967
O50	O	-0.187423	-0.490763	1.365967
O51	O	0.062577	-0.240763	1.615967
O52	O	0.312577	0.009237	1.865967
O53	O	-0.437545	-0.570451	0.985165
O54	O	-0.187545	-0.320451	1.235165
O55	O	0.062455	-0.070451	1.485165
O56	O	0.312455	0.179549	1.735165
O57	O	-0.338382	-0.740787	1.215053
O58	O	-0.088382	-0.490787	1.465053
O59	O	0.161618	-0.240787	1.715053
O60	O	0.411618	0.009213	1.965053
O61	O	-0.568349	-0.441342	1.214793
O62	O	-0.318349	-0.191342	1.464793
O63	O	-0.068349	0.058658	1.714793
O64	O	0.181651	0.308658	1.964793
O65	O	-0.568258	-0.570399	1.115819
O66	O	-0.318258	-0.320399	1.365819
O67	O	-0.068258	-0.070399	1.615819
O68	O	0.181742	0.179601	1.865819
C69	C	-0.388071	-0.505944	0.955900
C70	C	-0.138071	-0.255944	1.205900
C71	C	0.111929	-0.005944	1.455900
C72	C	0.361929	0.244056	1.705900
C73	C	-0.388092	-0.505976	0.866278
C74	C	-0.138092	-0.255976	1.116278
C75	C	0.111908	-0.005976	1.366278
C76	C	0.361908	0.244024	1.616278
C77	C	-0.597560	-0.505884	1.165314
C78	C	-0.347560	-0.255884	1.415314
C79	C	-0.097560	-0.005884	1.665314
C80	C	0.152440	0.244116	1.915314
C81	C	-0.687181	-0.505901	1.165355
C82	C	-0.437181	-0.255901	1.415355
C83	C	-0.187181	-0.005901	1.665355
C84	C	0.062819	0.244099	1.915355
C85	C	-0.388205	-0.232961	1.165298
C86	C	-0.138205	0.017039	1.415298
C87	C	0.111795	0.267039	1.665298
C88	C	0.361795	0.517039	1.915298
C89	C	-0.388060	-0.116184	1.165395
C90	C	-0.138060	0.133816	1.415395
C91	C	0.111940	0.383816	1.665395
C92	C	0.361940	0.633816	1.915395
C93	C	-1.015356	-0.506010	1.165496
C94	C	-0.765356	-0.256010	1.415496
C95	C	-0.515356	-0.006010	1.665496
C96	C	-0.265356	0.243990	1.915496
C97	C	-0.924048	-0.505982	1.165454
C98	C	-0.674048	-0.255982	1.415454
C99	C	-0.424048	-0.005982	1.665454
C100	C	-0.174048	0.244018	1.915454
C101	C	-0.851272	-0.505955	1.165425
C102	C	-0.601272	-0.255955	1.415425
C103	C	-0.351272	-0.005955	1.665425
C104	C	-0.101272	0.244045	1.915425
C105	C	-0.759957	-0.505928	1.165384
C106	C	-0.509957	-0.255928	1.415384
C107	C	-0.259957	-0.005928	1.665384
C108	C	-0.009957	0.244072	1.915384
C109	C	-0.177760	-0.505995	1.165489
C110	C	0.072240	-0.255995	1.415489
C111	C	0.322240	-0.005995	1.665489
C112	C	0.572240	0.244005	1.915489
C113	C	-0.088139	-0.506024	1.165531
C114	C	0.161861	-0.256024	1.415531
C115	C	0.411861	-0.006024	1.665531
C116	C	0.661861	0.243976	1.915531
C117	C	-0.387874	-0.779962	1.165530
C118	C	-0.137874	-0.529962	1.415530
C119	C	0.112126	-0.279962	1.665530
C120	C	0.362126	-0.029962	1.915530
C121	C	-0.387791	-0.896739	1.165589
C122	C	-0.137791	-0.646739	1.415589
C123	C	0.112209	-0.396739	1.665589
C124	C	0.362209	-0.146739	1.915589
C125	C	-0.336808	-0.061392	1.113527
C126	C	-0.086808	0.188608	1.363527
C127	C	0.163192	0.438608	1.613527
C128	C	0.413192	0.688608	1.863527
C129	C	-0.336671	0.048332	1.113626
C130	C	-0.086671	0.298332	1.363626
C131	C	0.163329	0.548332	1.613626
C132	C	0.413329	0.798332	1.863626
C133	C	-0.439047	0.048461	1.217462
C134	C	-0.189047	0.298461	1.467462
C135	C	0.060953	0.548461	1.717462
C136	C	0.310953	0.798461	1.967462
C137	C	-0.439179	-0.061261	1.217367
C138	C	-0.189179	0.188739	1.467367
C139	C	0.060821	0.438739	1.717367
C140	C	0.310821	0.688739	1.967367
C141	C	-0.277704	-0.061466	1.053576
C142	C	-0.027704	0.188534	1.303576
C143	C	0.222296	0.438534	1.553576
C144	C	0.472296	0.688534	1.803576
C145	C	-0.277567	0.048258	1.053675
C146	C	-0.027567	0.298258	1.303675
C147	C	0.222433	0.548258	1.553675
C148	C	0.472433	0.798258	1.803675
C149	C	-0.388067	-0.505913	1.375699
C150	C	-0.138067	-0.255913	1.625699
C151	C	0.111933	-0.005913	1.875699
C152	C	0.361933	0.244087	2.125699
C153	C	-0.388066	-0.505906	1.465320
C154	C	-0.138066	-0.255906	1.715320
C155	C	0.111934	-0.005906	1.965320
C156	C	0.361934	0.244094	2.215320
C157	C	-0.388074	-0.505911	1.538103
C158	C	-0.138074	-0.255911	1.788103
C159	C	0.111926	-0.005911	2.038103
C160	C	0.361926	0.244089	2.288103
C161	C	-0.388082	-0.505926	1.629411
C162	C	-0.138082	-0.255926	1.879411
C163	C	0.111918	-0.005926	2.129411
C164	C	0.361918	0.244074	2.379411
C165	C	-0.388084	-0.505944	1.702188
C166	C	-0.138084	-0.255944	1.952188
C167	C	0.111916	-0.005944	2.202188
C168	C	0.361916	0.244056	2.452188
C169	C	-0.388090	-0.505958	1.793502
C170	C	-0.138090	-0.255958	2.043502
C171	C	0.111910	-0.005958	2.293502
C172	C	0.361910	0.244042	2.543502
H173	H	-0.480906	-0.105868	1.259609
H174	H	-0.230906	0.144132	1.509609
H175	H	0.019094	0.394132	1.759609
H176	H	0.269094	0.644132	2.009609
H177	H	-0.480665	0.093193	1.259777
H178	H	-0.230665	0.343193	1.509777
H179	H	0.019335	0.593193	1.759777
H180	H	0.269335	0.843193	2.009777
C181	C	-0.141963	-0.016878	1.088975
C182	C	0.108037	0.233122	1.338975
C183	C	0.358037	0.483122	1.588975
C184	C	0.608037	0.733122	1.838975
C185	C	-0.193293	-0.102024	1.075548
C186	C	0.056707	0.147976	1.325548
C187	C	0.306707	0.397976	1.575548
C188	C	0.556707	0.647976	1.825548
H189	H	-0.089855	-0.041920	1.102545
H190	H	0.160145	0.208080	1.352545
H191	H	0.410145	0.458080	1.602545
H192	H	0.660145	0.708080	1.852545
H193	H	-0.138863	0.024571	1.041606
H194	H	0.111137	0.274571	1.291606
H195	H	0.361137	0.524571	1.541606
H196	H	0.611137	0.774571	1.791606
H197	H	-0.162356	0.024450	1.131892
H198	H	0.087644	0.274450	1.381892
H199	H	0.337644	0.524450	1.631892
H200	H	0.587644	0.774450	1.881892
H201	H	-0.172902	-0.143349	1.032627
H202	H	0.077098	0.106651	1.282627
H203	H	0.327098	0.356651	1.532627
H204	H	0.577098	0.606651	1.782627
H205	H	-0.196390	-0.143490	1.122922
H206	H	0.053610	0.106510	1.372922
H207	H	0.303610	0.356510	1.622922
H208	H	0.553610	0.606510	1.872922
C209	C	-0.328646	-0.025207	0.921283
C210	C	-0.078646	0.224793	1.171283
C211	C	0.171354	0.474793	1.421283
C212	C	0.421354	0.724793	1.671283
C213	C	-0.308533	-0.107129	0.973666
C214	C	-0.058533	0.142871	1.223666
C215	C	0.191467	0.392871	1.473666
C216	C	0.441467	0.642871	1.723666
H217	H	-0.347674	-0.053401	0.871949
H218	H	-0.097674	0.196599	1.121949
H219	H	0.152326	0.446599	1.371949
H220	H	0.402326	0.696599	1.621949
H221	H	-0.369480	0.016777	0.944935
H222	H	-0.119480	0.266777	1.194935
H223	H	0.130520	0.516777	1.444935
H224	H	0.380520	0.766777	1.694935
H225	H	-0.282417	0.016550	0.911429
H226	H	-0.032417	0.266550	1.161429
H227	H	0.217583	0.516550	1.411429
H228	H	0.467583	0.766550	1.661429
H229	H	-0.354763	-0.148881	0.983525
H230	H	-0.104763	0.101119	1.233525
H231	H	0.145237	0.351119	1.483525
H232	H	0.395237	0.601119	1.733525
H233	H	-0.267695	-0.149131	0.950009
H234	H	-0.017695	0.100869	1.200009
H235	H	0.232305	0.350869	1.450009
H236	H	0.482305	0.600869	1.700009
H237	H	-0.218041	0.082025	1.075667
H238	H	0.031959	0.332025	1.325667
H239	H	0.281959	0.582025	1.575667
H240	H	0.531959	0.832025	1.825667
H241	H	-0.294706	0.078240	0.991366
H242	H	-0.044706	0.328240	1.241366
H243	H	0.205294	0.578240	1.491366
H244	H	0.455294	0.828240	1.741366
