data_functionalizedCrystal
_audit_creation_method	'MofGen! by Chris Wilmer'
_symmetry_space_group_name_H-M	'P1'
_symmetry_Int_Tables_number	1
_symmetry_cell_setting	triclinic
loop_
_symmetry_equiv_pos_as_xyz
  x,y,z
_cell_length_a	18.215407
_cell_length_b	12.827892
_cell_length_c	18.215399
_cell_angle_alpha	90.024028
_cell_angle_beta	90.019833
_cell_angle_gamma	90.015840
loop_
_atom_site_label
_atom_site_type_symbol
_atom_site_fract_x
_atom_site_fract_y
_atom_site_fract_z
Zn1	Zn	1.125121	-0.416031	0.416136
Zn2	Zn	1.375121	-0.166031	0.666136
Zn3	Zn	1.625121	0.083969	0.916136
Zn4	Zn	1.875121	0.333969	1.166136
Zn5	Zn	1.125049	-0.590790	0.293078
Zn6	Zn	1.375049	-0.340790	0.543078
Zn7	Zn	1.625049	-0.090790	0.793078
Zn8	Zn	1.875049	0.159210	1.043078
Zn9	Zn	1.002053	-0.416065	0.293083
Zn10	Zn	1.252053	-0.166065	0.543083
Zn11	Zn	1.502053	0.083935	0.793083
Zn12	Zn	1.752053	0.333935	1.043083
Zn13	Zn	1.002039	-0.590732	0.416103
Zn14	Zn	1.252039	-0.340732	0.666103
Zn15	Zn	1.502039	-0.090732	0.916103
Zn16	Zn	1.752039	0.159268	1.166103
O17	O	1.063566	-0.503405	0.354600
O18	O	1.313566	-0.253405	0.604600
O19	O	1.563566	-0.003405	0.854600
O20	O	1.813566	0.246595	1.104600
O21	O	1.228095	-0.439223	0.399824
O22	O	1.478095	-0.189223	0.649824
O23	O	1.728095	0.060777	0.899824
O24	O	1.978095	0.310777	1.149824
O25	O	1.108710	-0.567651	0.190094
O26	O	1.358710	-0.317651	0.440094
O27	O	1.608710	-0.067651	0.690094
O28	O	1.858710	0.182349	0.940094
O29	O	1.018414	-0.269825	0.309422
O30	O	1.268414	-0.019825	0.559422
O31	O	1.518414	0.230175	0.809422
O32	O	1.768414	0.480175	1.059422
O33	O	1.228043	-0.567618	0.309414
O34	O	1.478043	-0.317618	0.559414
O35	O	1.728043	-0.067618	0.809414
O36	O	1.978043	0.182382	1.059414
O37	O	1.108831	-0.269800	0.399829
O38	O	1.358831	-0.019800	0.649829
O39	O	1.608831	0.230200	0.899829
O40	O	1.858831	0.480200	1.149829
O41	O	1.018345	-0.439282	0.190098
O42	O	1.268345	-0.189282	0.440098
O43	O	1.518345	0.060718	0.690098
O44	O	1.768345	0.310718	0.940098
O45	O	0.899067	-0.439225	0.309391
O46	O	1.149067	-0.189225	0.559391
O47	O	1.399067	0.060775	0.809391
O48	O	1.649067	0.310775	1.059391
O49	O	1.018390	-0.567519	0.519092
O50	O	1.268390	-0.317519	0.769092
O51	O	1.518390	-0.067519	1.019092
O52	O	1.768390	0.182481	1.269092
O53	O	0.899057	-0.567552	0.399773
O54	O	1.149057	-0.317552	0.649773
O55	O	1.399057	-0.067552	0.899773
O56	O	1.649057	0.182448	1.149773
O57	O	1.108818	-0.439167	0.519116
O58	O	1.358818	-0.189167	0.769116
O59	O	1.608818	0.060833	1.019116
O60	O	1.858818	0.310833	1.269116
O61	O	1.108696	-0.737019	0.309382
O62	O	1.358696	-0.487019	0.559382
O63	O	1.608696	-0.237019	0.809382
O64	O	1.858696	0.012981	1.059382
O65	O	1.018321	-0.736976	0.399767
O66	O	1.268321	-0.486976	0.649767
O67	O	1.518321	-0.236976	0.899767
O68	O	1.768321	0.013024	1.149767
C69	C	0.872359	-0.503387	0.354579
C70	C	1.122359	-0.253387	0.604579
C71	C	1.372359	-0.003387	0.854579
C72	C	1.622359	0.246613	1.104579
C73	C	0.790560	-0.503405	0.354587
C74	C	1.040560	-0.253405	0.604587
C75	C	1.290560	-0.003405	0.854587
C76	C	1.540560	0.246595	1.104587
C77	C	0.602380	-0.570329	0.401590
C78	C	0.852380	-0.320329	0.651590
C79	C	1.102380	-0.070329	0.901590
C80	C	1.352380	0.179671	1.151590
C81	C	0.525522	-0.570333	0.401599
C82	C	0.775522	-0.320333	0.651599
C83	C	1.025522	-0.070333	0.901599
C84	C	1.275522	0.179667	1.151599
C85	C	0.525503	-0.436499	0.307626
C86	C	0.775503	-0.186499	0.557626
C87	C	1.025503	0.063501	0.807626
C88	C	1.275503	0.313501	1.057626
C89	C	0.602360	-0.436491	0.307621
C90	C	0.852360	-0.186491	0.557621
C91	C	1.102360	0.063509	0.807621
C92	C	1.352360	0.313509	1.057621
C93	C	0.640797	-0.503413	0.354602
C94	C	0.890797	-0.253413	0.604602
C95	C	1.140797	-0.003413	0.854602
C96	C	1.390797	0.246587	1.104602
C97	C	0.487081	-0.503424	0.354616
C98	C	0.737081	-0.253424	0.604616
C99	C	0.987081	-0.003424	0.854616
C100	C	1.237081	0.246576	1.104616
C101	C	0.403747	-0.503427	0.354626
C102	C	0.653747	-0.253427	0.604626
C103	C	0.903747	-0.003427	0.854626
C104	C	1.153747	0.246573	1.104626
C105	C	0.724136	-0.503408	0.354594
C106	C	0.974136	-0.253408	0.604594
C107	C	1.224136	-0.003408	0.854594
C108	C	1.474136	0.246592	1.104594
C109	C	1.063520	-0.774915	0.354586
C110	C	1.313520	-0.524915	0.604586
C111	C	1.563520	-0.274915	0.854586
C112	C	1.813520	-0.024915	1.104586
C113	C	1.063567	-0.891068	0.354605
C114	C	1.313567	-0.641068	0.604605
C115	C	1.563567	-0.391068	0.854605
C116	C	1.813567	-0.141068	1.104605
C117	C	1.108288	-0.942757	0.399381
C118	C	1.358288	-0.692757	0.649381
C119	C	1.608288	-0.442757	0.899381
C120	C	1.858288	-0.192757	1.149381
C121	C	1.108339	-1.062807	0.399402
C122	C	1.358339	-0.812807	0.649402
C123	C	1.608339	-0.562807	0.899402
C124	C	1.858339	-0.312807	1.149402
C125	C	1.255518	-0.503424	0.354622
C126	C	1.505518	-0.253424	0.604622
C127	C	1.755518	-0.003424	0.854622
C128	C	2.005518	0.246576	1.104622
C129	C	1.337317	-0.503432	0.354631
C130	C	1.587317	-0.253432	0.604631
C131	C	1.837317	-0.003432	0.854631
C132	C	2.087317	0.246568	1.104631
C133	C	1.063610	-0.503333	0.546553
C134	C	1.313610	-0.253333	0.796553
C135	C	1.563610	-0.003333	1.046553
C136	C	1.813610	0.246667	1.296553
C137	C	1.063629	-0.503302	0.628352
C138	C	1.313629	-0.253302	0.878352
C139	C	1.563629	-0.003302	1.128352
C140	C	1.813629	0.246698	1.378352
C141	C	1.063632	-0.230835	0.354630
C142	C	1.313632	0.019165	0.604630
C143	C	1.563632	0.269165	0.854630
C144	C	1.813632	0.519165	1.104630
C145	C	1.063660	-0.114682	0.354643
C146	C	1.313660	0.135318	0.604643
C147	C	1.563660	0.385318	0.854643
C148	C	1.813660	0.635318	1.104643
C149	C	1.063563	-0.503401	0.163394
C150	C	1.313563	-0.253401	0.413394
C151	C	1.563563	-0.003401	0.663394
C152	C	1.813563	0.246599	0.913394
C153	C	1.063687	-0.503138	0.081595
C154	C	1.313687	-0.253138	0.331595
C155	C	1.563687	-0.003138	0.581595
C156	C	1.813687	0.246862	0.831595
C157	C	1.110732	-0.436407	0.816560
C158	C	1.360732	-0.186407	1.066560
C159	C	1.610732	0.063593	1.316560
C160	C	1.860732	0.313593	1.566560
C161	C	1.110741	-0.436376	0.893419
C162	C	1.360741	-0.186376	1.143419
C163	C	1.610741	0.063624	1.393419
C164	C	1.860741	0.313624	1.643419
C165	C	1.016579	-0.570036	0.893382
C166	C	1.266579	-0.320036	1.143382
C167	C	1.516579	-0.070036	1.393382
C168	C	1.766579	0.179964	1.643382
C169	C	1.016567	-0.570060	0.816525
C170	C	1.266567	-0.320060	1.066525
C171	C	1.516567	-0.070060	1.316525
C172	C	1.766567	0.179940	1.566525
C173	C	1.063648	-0.503247	0.778116
C174	C	1.313648	-0.253247	1.028116
C175	C	1.563648	-0.003247	1.278116
C176	C	1.813648	0.246753	1.528116
C177	C	1.063668	-0.503192	0.931832
C178	C	1.313668	-0.253192	1.181832
C179	C	1.563668	-0.003192	1.431832
C180	C	1.813668	0.246808	1.681832
C181	C	1.063678	-0.503160	1.015165
C182	C	1.313678	-0.253160	1.265165
C183	C	1.563678	-0.003160	1.515165
C184	C	1.813678	0.246840	1.765165
C185	C	1.063638	-0.503278	0.694777
C186	C	1.313638	-0.253278	0.944777
C187	C	1.563638	-0.003278	1.194777
C188	C	1.813638	0.246722	1.444777
H189	H	0.494198	-0.382016	0.269375
H190	H	0.744198	-0.132016	0.519375
H191	H	0.994198	0.117984	0.769375
H192	H	1.244198	0.367984	1.019375
Br193	Br	0.999845	-1.040607	0.290737
Br194	Br	1.249845	-0.790607	0.540737
Br195	Br	1.499845	-0.540607	0.790737
Br196	Br	1.749845	-0.290607	1.040737
Br197	Br	0.952656	-0.660770	0.764345
Br198	Br	1.202656	-0.410770	1.014345
Br199	Br	1.452656	-0.160770	1.264345
Br200	Br	1.702656	0.089230	1.514345
H201	H	1.025313	-0.935692	0.316290
H202	H	1.275313	-0.685692	0.566290
H203	H	1.525313	-0.435692	0.816290
H204	H	1.775313	-0.185692	1.066290
H205	H	1.146537	-0.898135	0.437704
H206	H	1.396537	-0.648135	0.687704
H207	H	1.646537	-0.398135	0.937704
H208	H	1.896537	-0.148135	1.187704
Br209	Br	1.172164	-1.136889	0.463293
Br210	Br	1.422164	-0.886889	0.713293
Br211	Br	1.672164	-0.636889	0.963293
Br212	Br	1.922164	-0.386889	1.213293
H213	H	1.149066	-0.382000	0.785289
H214	H	1.399066	-0.132000	1.035289
H215	H	1.649066	0.118000	1.285289
H216	H	1.899066	0.368000	1.535289
H217	H	1.149080	-0.381946	0.924717
H218	H	1.399080	-0.131946	1.174717
H219	H	1.649080	0.118054	1.424717
H220	H	1.899080	0.368054	1.674717
H221	H	0.978249	-0.624435	0.924664
H222	H	1.228249	-0.374435	1.174664
H223	H	1.478249	-0.124435	1.424664
H224	H	1.728249	0.125565	1.674664
H225	H	0.633674	-0.624818	0.439847
H226	H	0.883674	-0.374818	0.689847
H227	H	1.133674	-0.124818	0.939847
H228	H	1.383674	0.125182	1.189847
Br229	Br	0.654502	-0.345659	0.243854
Br230	Br	0.904502	-0.095659	0.493854
Br231	Br	1.154502	0.154341	0.743854
Br232	Br	1.404502	0.404341	0.993854
H233	H	0.494246	-0.624822	0.439863
H234	H	0.744246	-0.374822	0.689863
H235	H	0.994246	-0.124822	0.939863
H236	H	1.244246	0.125178	1.189863
