data_functionalizedCrystal
_audit_creation_method	'MofGen! by Chris Wilmer'
_symmetry_space_group_name_H-M	'P1'
_symmetry_Int_Tables_number	1
_symmetry_cell_setting	triclinic
loop_
_symmetry_equiv_pos_as_xyz
  x,y,z
_cell_length_a	13.032831
_cell_length_b	13.032268
_cell_length_c	11.169416
_cell_angle_alpha	82.846368
_cell_angle_beta	97.184303
_cell_angle_gamma	90.886977
loop_
_atom_site_label
_atom_site_type_symbol
_atom_site_fract_x
_atom_site_fract_y
_atom_site_fract_z
Zn1	Zn	1.498565	-0.780887	0.810548
Zn2	Zn	1.998565	-0.280887	1.310548
Zn3	Zn	1.520326	-0.608918	0.989369
Zn4	Zn	2.020326	-0.108918	1.489369
Zn5	Zn	1.348418	-0.587124	0.760410
Zn6	Zn	1.848418	-0.087124	1.260410
Zn7	Zn	1.326573	-0.759043	0.982880
Zn8	Zn	1.826573	-0.259043	1.482880
O9	O	1.423470	-0.683993	0.885802
O10	O	1.923470	-0.183993	1.385802
O11	O	1.645374	-0.776337	0.857968
O12	O	2.145374	-0.276337	1.357968
O13	O	1.515771	-0.462109	0.940730
O14	O	2.015771	0.037891	1.440730
O15	O	1.368370	-0.612848	0.599120
O16	O	1.868370	-0.112848	1.099120
O17	O	1.661362	-0.649993	0.989347
O18	O	2.161362	-0.149993	1.489347
O19	O	1.478682	-0.755205	0.635956
O20	O	1.978682	-0.255205	1.135956
O21	O	1.389471	-0.446098	0.772515
O22	O	1.889471	0.053902	1.272515
O23	O	1.201597	-0.591667	0.766223
O24	O	1.701597	-0.091667	1.266223
O25	O	1.331139	-0.905858	0.978287
O26	O	1.831139	-0.405858	1.478287
O27	O	1.185548	-0.717975	0.929670
O28	O	1.685548	-0.217975	1.429670
O29	O	1.457500	-0.921907	0.851676
O30	O	1.957500	-0.421907	1.351676
O31	O	1.494589	-0.628812	1.156450
O32	O	1.994589	-0.128812	1.656450
O33	O	1.352240	-0.739108	1.151682
O34	O	1.852240	-0.239108	1.651682
C35	C	1.156255	-0.650087	0.841802
C36	C	1.656255	-0.150087	1.341802
C37	C	1.041935	-0.635606	0.823011
C38	C	1.541935	-0.135606	1.323011
C39	C	0.983067	-0.691551	0.895609
C40	C	1.483067	-0.191551	1.395609
C41	C	0.864912	-0.676585	0.876190
C42	C	1.364912	-0.176585	1.376190
C43	C	1.389456	-0.952242	0.919850
C44	C	1.889456	-0.452242	1.419850
C45	C	1.374961	-1.066554	0.934360
C46	C	1.874961	-0.566554	1.434360
C47	C	1.431019	-1.125459	0.878184
C48	C	1.931019	-0.625459	1.378184
C49	C	1.416039	-1.243606	0.893178
C50	C	1.916039	-0.743606	1.393178
C51	C	1.691729	-0.718032	0.929974
C52	C	2.191729	-0.218032	1.429974
C53	C	1.806045	-0.732538	0.948798
C54	C	2.306045	-0.232538	1.448798
C55	C	1.423431	-0.683980	1.197619
C56	C	1.923431	-0.183980	1.697619
C57	C	1.423503	-0.684021	1.331035
C58	C	1.923503	-0.184021	1.831035
C59	C	1.457412	-0.416795	0.851809
C60	C	1.957412	0.083205	1.351809
C61	C	1.472106	-0.302509	0.836995
C62	C	1.972106	0.197491	1.336995
C63	C	1.423535	-0.684032	0.572775
C64	C	1.923535	-0.184032	1.072775
C65	C	1.423563	-0.684049	0.439381
C66	C	1.923563	-0.184049	0.939381
H67	H	1.020141	-0.750530	0.972136
H68	H	1.520141	-0.250530	1.472136
H69	H	0.827842	-0.617610	0.799649
H70	H	1.327842	-0.117610	1.299649
H71	H	1.531189	-1.265476	0.777787
H72	H	2.031189	-0.765476	1.277787
H73	H	1.356945	-1.280639	0.952369
H74	H	1.856945	-0.780639	1.452369
H75	H	0.843113	-0.791524	1.025328
H76	H	1.343113	-0.291524	1.525328
H77	H	1.004861	-0.576634	0.746476
H78	H	1.504861	-0.076634	1.246476
O79	O	1.501638	-1.081417	0.807658
O80	O	2.001638	-0.581417	1.307658
C81	C	1.680770	-1.070507	0.774088
C82	C	2.180770	-0.570507	1.274088
C83	C	1.600897	-1.120475	0.854045
C84	C	2.100897	-0.620475	1.354045
H85	H	1.761042	-1.102049	0.811576
H86	H	2.261042	-0.602049	1.311576
H87	H	1.660162	-1.089322	0.676995
H88	H	2.160162	-0.589322	1.176995
H89	H	1.680241	-0.983090	0.774546
H90	H	2.180241	-0.483090	1.274546
H91	H	1.601385	-1.207900	0.853689
H92	H	2.101385	-0.707900	1.353689
H93	H	1.621534	-1.101577	0.951100
H94	H	2.121534	-0.601577	1.451100
H95	H	1.315870	-1.103591	0.993546
H96	H	1.815870	-0.603591	1.493546
