data_functionalizedCrystal
_audit_creation_method	'MofGen! by Chris Wilmer'
_symmetry_space_group_name_H-M	'P1'
_symmetry_Int_Tables_number	1
_symmetry_cell_setting	triclinic
loop_
_symmetry_equiv_pos_as_xyz
  x,y,z
_cell_length_a	13.339070
_cell_length_b	16.992695
_cell_length_c	15.455313
_cell_angle_alpha	87.152573
_cell_angle_beta	86.596562
_cell_angle_gamma	76.851241
loop_
_atom_site_label
_atom_site_type_symbol
_atom_site_fract_x
_atom_site_fract_y
_atom_site_fract_z
O1	O	1.378861	-0.397619	-0.072114
O2	O	1.080088	-0.345100	-0.072120
O3	O	1.228277	-0.256957	-0.072110
O4	O	1.230673	-0.485763	-0.072124
O5	O	1.219800	-0.261968	0.072151
O6	O	1.071612	-0.350112	0.072142
O7	O	1.370385	-0.402631	0.072147
Cu8	Cu	1.220224	-0.376829	0.085317
Cu9	Cu	1.230249	-0.370902	-0.085289
O10	O	1.222196	-0.490774	0.072138
C11	C	1.037444	-0.338734	0.000010
C12	C	0.923004	-0.312290	0.000008
C13	C	1.220957	-0.229579	0.000020
C14	C	1.211762	-0.140535	0.000020
C15	C	1.413029	-0.408997	0.000015
C16	C	1.527469	-0.435440	0.000012
C17	C	1.875639	-0.229827	0.000012
C18	C	1.768118	-0.204979	0.000009
C19	C	1.707951	-0.262592	0.000010
C20	C	1.755315	-0.345058	0.000013
C21	C	1.862847	-0.369908	0.000008
C22	C	1.695158	-0.402673	0.000007
C23	C	1.742523	-0.485138	0.000010
C24	C	1.850045	-0.509984	0.000006
C25	C	1.910212	-0.452371	0.000005
C26	C	1.587626	-0.377823	0.000011
C27	C	1.574834	-0.517904	0.000008
C28	C	1.682355	-0.542752	0.000010
C29	C	1.229516	-0.518151	0.000005
C30	C	1.238711	-0.607196	-0.000000
N31	N	1.213181	-0.380999	0.205312
C32	C	1.300476	-0.109595	0.000023
C33	C	1.291831	-0.025927	0.000014
C34	C	1.194472	0.026799	0.000009
C35	C	1.105752	-0.004146	0.000004
C36	C	1.114398	-0.087812	0.000006
C37	C	1.158637	0.278193	-0.000003
C38	C	1.149998	0.361864	-0.000003
C39	C	1.336078	0.340078	0.000006
C40	C	1.344715	0.256411	0.000013
C41	C	1.255996	0.225473	0.000003
N42	N	1.185633	0.112321	0.000004
N43	N	1.264836	0.139953	0.000003
N44	N	1.237299	-0.366728	-0.205284
C45	C	1.276162	-0.343576	0.250710
C46	C	1.270845	-0.346739	0.341518
C47	C	1.202553	-0.387329	0.386925
C48	C	1.139566	-0.424752	0.341521
C49	C	1.144878	-0.421584	0.250715
C50	C	1.179624	-0.400983	0.658505
C51	C	1.174319	-0.404150	0.749317
C52	C	1.305598	-0.326135	0.749308
C53	C	1.310908	-0.322975	0.658500
C54	C	1.247917	-0.360394	0.613104
N55	N	1.197120	-0.390565	0.479745
N56	N	1.253346	-0.357153	0.520286
H57	H	1.620402	-0.242356	0.000009
H58	H	1.924637	-0.182927	0.000005
C59	C	1.100052	-0.448215	0.798463
C60	C	1.045998	-0.480284	0.739272
C61	C	0.977567	-0.520868	0.784513
H62	H	1.137582	-0.490802	0.833878
H63	H	1.052752	-0.411393	0.833879
H64	H	1.093291	-0.517103	0.703870
H65	H	1.008447	-0.437714	0.703854
H66	H	0.930267	-0.484046	0.819929
H67	H	1.015106	-0.563452	0.819927
H68	H	0.940877	-0.542626	0.744359
C69	C	1.339186	-0.305976	0.390691
C70	C	1.317480	-0.223139	0.368600
C71	C	1.380431	-0.185564	0.413869
H72	H	1.326313	-0.313575	0.451289
H73	H	1.409494	-0.329072	0.375771
H74	H	1.247188	-0.200050	0.383526
H75	H	1.330359	-0.215516	0.308010
H76	H	1.450739	-0.208660	0.398949
H77	H	1.367553	-0.193170	0.474465
H78	H	1.365719	-0.129357	0.398882
H79	H	1.083955	-0.457798	0.378497
C80	C	1.373916	-0.285357	0.798489
C81	C	1.352181	-0.202520	0.776398
C82	C	1.415101	-0.164925	0.821678
H83	H	1.361034	-0.292959	0.859086
H84	H	1.444231	-0.308437	0.783578
H85	H	1.281882	-0.179447	0.791315
H86	H	1.365068	-0.194895	0.715809
H87	H	1.485416	-0.188005	0.806767
H88	H	1.402214	-0.172533	0.882272
H89	H	1.400369	-0.108718	0.806690
C90	C	1.901276	-0.599556	0.000046
C91	C	1.825574	-0.644696	0.000071
C92	C	1.872726	-0.727212	0.000119
H93	H	1.945901	-0.610526	-0.050249
H94	H	1.939977	-0.613945	0.050372
H95	H	1.786890	-0.630313	-0.050250
H96	H	1.780944	-0.633751	0.050362
H97	H	1.911428	-0.741600	0.050445
H98	H	1.917351	-0.738172	-0.050177
H99	H	1.821370	-0.757849	0.000144
C100	C	1.388269	0.007506	0.000068
C101	C	1.475380	-0.056577	0.000103
C102	C	1.564240	-0.025811	0.000165
H103	H	1.391874	0.041420	-0.050226
H104	H	1.385858	0.037924	0.050395
H105	H	1.477792	-0.086982	-0.050218
H106	H	1.471810	-0.090496	0.050394
H107	H	1.561829	0.004607	0.050492
H108	H	1.567834	0.008102	-0.050130
H109	H	1.623355	-0.069287	0.000197
H110	H	1.128336	-0.431453	0.621550
H111	H	1.093591	-0.452056	0.213752
C112	C	1.384696	-0.278748	0.608928
C113	C	1.454267	-0.332899	0.556518
C114	C	1.522047	-0.292055	0.510745
H115	H	1.346665	-0.236332	0.573608
H116	H	1.421529	-0.256736	0.648756
H117	H	1.417438	-0.354899	0.516695
H118	H	1.492322	-0.375317	0.591817
H119	H	1.558880	-0.270043	0.550574
H120	H	1.484007	-0.249639	0.475430
H121	H	1.569265	-0.328791	0.475186
C122	C	1.716886	-0.115415	0.000058
C123	C	1.792587	-0.070279	0.000082
C124	C	1.745429	0.012234	0.000141
H125	H	1.678164	-0.100951	-0.050234
H126	H	1.672279	-0.104523	0.050387
H127	H	1.837176	-0.081166	-0.050242
H128	H	1.831314	-0.084718	0.050370
H129	H	1.700822	0.023126	0.050470
H130	H	1.706708	0.026689	-0.050152
H131	H	1.796784	0.042869	0.000165
C132	C	1.509702	-0.580585	-0.000033
C133	C	1.574196	-0.658121	-0.000063
C134	C	1.514227	-0.715876	-0.000115
H135	H	1.464525	-0.575659	0.050262
H136	H	1.470461	-0.572100	-0.050359
H137	H	1.613419	-0.666603	0.050258
H138	H	1.619372	-0.663073	-0.050354
H139	H	1.474986	-0.707392	-0.050441
H140	H	1.469053	-0.710943	0.050181
H141	H	1.557977	-0.768490	-0.000143
C142	C	1.536354	-0.288263	-0.000121
C143	C	1.570748	-0.249474	-0.074329
C144	C	1.523550	-0.166964	-0.074474
H145	H	1.463695	-0.281596	-0.000164
H146	H	1.553683	-0.265269	0.050160
H147	H	1.553411	-0.272461	-0.124598
H148	H	1.643400	-0.256117	-0.074303
H149	H	1.540879	-0.143970	-0.024192
H150	H	1.450893	-0.160306	-0.074514
H151	H	1.546886	-0.140634	-0.124818
H152	H	1.331777	-0.310528	0.213745
H153	H	1.997765	-0.472599	0.000011
C154	C	1.000119	0.053196	-0.000136
C155	C	0.994092	0.104454	-0.074344
C156	C	0.896802	0.157294	-0.074494
H157	H	0.948428	0.022890	-0.000183
H158	H	0.989911	0.084590	0.050145
H159	H	1.004288	0.073065	-0.124613
H160	H	1.045760	0.134779	-0.074312
H161	H	0.886594	0.188688	-0.024212
H162	H	0.845119	0.126981	-0.074539
H163	H	0.892703	0.192084	-0.124838
H164	H	1.720935	-0.609897	0.000012
H165	H	1.379756	-0.152520	0.000032
H166	H	1.408308	0.365277	0.000012
H167	H	1.423995	0.213486	0.000017
H168	H	1.070711	0.404793	0.000007
H169	H	1.042158	-0.113002	0.000004
H170	H	1.086395	0.253014	-0.000011
