data_functionalizedCrystal
_audit_creation_method	'MofGen! by Chris Wilmer'
_symmetry_space_group_name_H-M	'P1'
_symmetry_Int_Tables_number	1
_symmetry_cell_setting	triclinic
loop_
_symmetry_equiv_pos_as_xyz
  x,y,z
_cell_length_a	8.497374
_cell_length_b	11.169416
_cell_length_c	11.169417
_cell_angle_alpha	89.988781
_cell_angle_beta	89.999788
_cell_angle_gamma	90.005100
loop_
_atom_site_label
_atom_site_type_symbol
_atom_site_fract_x
_atom_site_fract_y
_atom_site_fract_z
Zn1	Zn	0.891929	-0.477987	-1.834730
Zn2	Zn	1.391929	0.022013	-1.334730
Zn3	Zn	0.628147	-0.678637	-1.834688
Zn4	Zn	1.128147	-0.178637	-1.334688
Zn5	Zn	0.628164	-0.477970	-1.634085
Zn6	Zn	1.128164	0.022030	-1.134085
Zn7	Zn	0.891886	-0.678630	-1.634023
Zn8	Zn	1.391886	-0.178630	-1.134023
O9	O	0.760031	-0.578306	-1.734381
O10	O	1.260031	-0.078306	-1.234381
O11	O	0.856949	-0.504614	-2.002674
O12	O	1.356949	-0.004614	-1.502674
O13	O	0.407387	-0.652014	-1.808086
O14	O	0.907387	-0.152014	-1.308086
O15	O	0.663178	-0.310023	-1.660744
O16	O	1.163178	0.189977	-1.160744
O17	O	0.663150	-0.652031	-2.002643
O18	O	1.163150	-0.152031	-1.502643
O19	O	0.856965	-0.310035	-1.808157
O20	O	1.356965	0.189965	-1.308157
O21	O	0.407399	-0.504585	-1.660703
O22	O	0.907399	-0.004585	-1.160703
O23	O	0.663135	-0.504578	-1.466127
O24	O	1.163135	-0.004578	-0.966127
O25	O	1.112654	-0.652018	-1.660639
O26	O	1.612654	-0.152018	-1.160639
O27	O	0.856891	-0.652002	-1.466082
O28	O	1.356891	-0.152002	-0.966082
O29	O	1.112686	-0.504607	-1.808098
O30	O	1.612686	-0.004607	-1.308098
O31	O	0.663108	-0.846586	-1.808026
O32	O	1.163108	-0.346586	-1.308026
O33	O	0.856875	-0.846581	-1.660599
O34	O	1.356875	-0.346581	-1.160599
C35	C	0.760019	-0.890131	-1.734334
C36	C	1.260019	-0.390131	-1.234334
C37	C	0.760067	-1.023531	-1.734423
C38	C	1.260067	-0.523531	-1.234423
C39	C	0.760011	-0.578288	-1.422557
C40	C	1.260011	-0.078288	-0.922557
C41	C	0.760040	-0.578309	-1.289157
C42	C	1.260040	-0.078309	-0.789157
C43	C	1.171512	-0.578308	-1.734373
C44	C	1.671512	-0.078308	-1.234373
C45	C	1.350156	-0.578321	-1.734375
C46	C	1.850156	-0.078321	-1.234375
C47	C	0.760078	-0.265264	-1.734462
C48	C	1.260078	0.234736	-1.234462
C49	C	0.760098	-0.131864	-1.734496
C50	C	1.260098	0.368136	-1.234496
C51	C	0.760053	-0.578325	-2.047424
C52	C	1.260053	-0.078325	-1.547424
C53	C	0.760062	-0.578333	-2.180824
C54	C	1.260062	-0.078333	-1.680824
