data_functionalizedCrystal
_audit_creation_method	'MofGen! by Chris Wilmer'
_symmetry_space_group_name_H-M	'P1'
_symmetry_Int_Tables_number	1
_symmetry_cell_setting	triclinic
loop_
_symmetry_equiv_pos_as_xyz
  x,y,z
_cell_length_a	18.050591
_cell_length_b	18.050589
_cell_length_c	18.050583
_cell_angle_alpha	90.031910
_cell_angle_beta	90.011642
_cell_angle_gamma	90.027061
loop_
_atom_site_label
_atom_site_type_symbol
_atom_site_fract_x
_atom_site_fract_y
_atom_site_fract_z
Zn1	Zn	1.135301	-0.295629	0.419848
Zn2	Zn	1.468634	0.037704	0.753182
Zn3	Zn	1.801967	0.371037	1.086515
Zn4	Zn	1.135209	-0.419842	0.295668
Zn5	Zn	1.468542	-0.086509	0.629001
Zn6	Zn	1.801876	0.246824	0.962334
Zn7	Zn	1.011117	-0.295668	0.295682
Zn8	Zn	1.344451	0.037665	0.629015
Zn9	Zn	1.677784	0.370999	0.962349
Zn10	Zn	1.011068	-0.419779	0.419826
Zn11	Zn	1.344401	-0.086446	0.753159
Zn12	Zn	1.677734	0.246887	1.086492
O13	O	1.073174	-0.357730	0.357756
O14	O	1.406507	-0.024396	0.691089
O15	O	1.739840	0.308937	1.024423
O16	O	1.239213	-0.312116	0.403379
O17	O	1.572546	0.021217	0.736712
O18	O	1.905880	0.354550	1.070046
O19	O	1.118730	-0.403413	0.191745
O20	O	1.452064	-0.070079	0.525078
O21	O	1.785397	0.263254	0.858412
O22	O	1.027650	-0.191738	0.312168
O23	O	1.360983	0.141595	0.645502
O24	O	1.694316	0.474928	0.978835
O25	O	1.239146	-0.403375	0.312144
O26	O	1.572479	-0.070042	0.645477
O27	O	1.905812	0.263292	0.978811
O28	O	1.118887	-0.191710	0.403393
O29	O	1.452220	0.141624	0.736726
O30	O	1.785553	0.474957	1.070059
O31	O	1.027561	-0.312183	0.191755
O32	O	1.360894	0.021151	0.525089
O33	O	1.694227	0.354484	0.858422
O34	O	0.907186	-0.312122	0.312146
O35	O	1.240520	0.021212	0.645480
O36	O	1.573853	0.354545	0.978813
O37	O	1.027565	-0.403268	0.523753
O38	O	1.360898	-0.069935	0.857087
O39	O	1.694232	0.263399	1.190420
O40	O	0.907150	-0.403306	0.403354
O41	O	1.240483	-0.069972	0.736688
O42	O	1.573816	0.263361	1.070021
O43	O	1.118838	-0.312055	0.523770
O44	O	1.452172	0.021278	0.857103
O45	O	1.785505	0.354611	1.190437
O46	O	1.118682	-0.523758	0.312122
O47	O	1.452015	-0.190425	0.645456
O48	O	1.785349	0.142908	0.978789
O49	O	1.027476	-0.523712	0.403341
O50	O	1.360810	-0.190379	0.736674
O51	O	1.694143	0.142954	1.070007
C52	C	0.880222	-0.357712	0.357750
C53	C	1.213555	-0.024378	0.691083
C54	C	1.546888	0.308955	1.024417
C55	C	0.797676	-0.357722	0.357765
C56	C	1.131009	-0.024388	0.691098
C57	C	1.464342	0.308945	1.024432
C58	C	0.548852	-0.407410	0.407296
C59	C	0.882185	-0.074077	0.740630
C60	C	1.215519	0.259256	1.073963
C61	C	0.598221	-0.425497	0.339512
C62	C	0.931554	-0.092164	0.672845
C63	C	1.264887	0.241169	1.006178
C64	C	0.500555	-0.357745	0.357764
C65	C	0.833889	-0.024412	0.691097
C66	C	1.167222	0.308922	1.024430
C67	C	0.598268	-0.339681	0.425545
C68	C	0.931602	-0.006348	0.758878
C69	C	1.264935	0.326985	1.092211
C70	C	0.646540	-0.357735	0.357768
C71	C	0.979874	-0.024402	0.691101
C72	C	1.313207	0.308931	1.024434
C73	C	0.548837	-0.375867	0.289943
C74	C	0.882170	-0.042534	0.623276
C75	C	1.215503	0.290799	0.956610
C76	C	0.548880	-0.290020	0.376022
C77	C	0.882214	0.043314	0.709355
C78	C	1.215547	0.376647	1.042689
C79	C	0.598227	-0.308081	0.308191
C80	C	0.931560	0.025252	0.641524
C81	C	1.264893	0.358586	0.974857
C82	C	0.416457	-0.357752	0.357762
C83	C	0.749790	-0.024419	0.691095
C84	C	1.083124	0.308914	1.024429
C85	C	0.730637	-0.357728	0.357762
C86	C	1.063970	-0.024395	0.691095
C87	C	1.397304	0.308939	1.024428
C88	C	1.073084	-0.550682	0.357744
C89	C	1.406417	-0.217349	0.691077
C90	C	1.739751	0.115985	1.024410
C91	C	1.073114	-0.633228	0.357763
C92	C	1.406447	-0.299894	0.691097
C93	C	1.739780	0.033439	1.024430
C94	C	1.023565	-0.832680	0.407350
C95	C	1.356898	-0.499347	0.740684
C96	C	1.690231	-0.166013	1.074017
C97	C	1.005465	-0.882130	0.339584
C98	C	1.338799	-0.548797	0.672918
C99	C	1.672132	-0.215463	1.006251
C100	C	1.073187	-0.784358	0.357773
C101	C	1.406520	-0.451025	0.691106
C102	C	1.739853	-0.117691	1.024440
C103	C	1.091322	-0.881990	0.425547
C104	C	1.424655	-0.548657	0.758880
C105	C	1.757989	-0.215323	1.092213
C106	C	1.073256	-0.930343	0.357788
C107	C	1.406589	-0.597010	0.691122
C108	C	1.739922	-0.263676	1.024455
C109	C	1.055052	-0.832721	0.289971
C110	C	1.388385	-0.499387	0.623304
C111	C	1.721718	-0.166054	0.956638
C112	C	1.140940	-0.832576	0.375979
C113	C	1.474273	-0.499243	0.709312
C114	C	1.807607	-0.165909	1.042646
C115	C	1.122867	-0.882004	0.308166
C116	C	1.456200	-0.548670	0.641500
C117	C	1.789533	-0.215337	0.974833
C118	C	1.073145	-0.700260	0.357765
C119	C	1.406478	-0.366926	0.691098
C120	C	1.739812	-0.033593	1.024432
C121	C	1.073297	-1.014440	0.357788
C122	C	1.406631	-0.681106	0.691122
C123	C	1.739964	-0.347773	1.024455
C124	C	1.266879	-0.357748	0.357763
C125	C	1.600213	-0.024415	0.691096
C126	C	1.933546	0.308918	1.024429
C127	C	1.349425	-0.357756	0.357765
C128	C	1.682758	-0.024423	0.691099
C129	C	2.016092	0.308910	1.024432
C130	C	1.073206	-0.357650	0.551462
C131	C	1.406540	-0.024317	0.884795
C132	C	1.739873	0.309016	1.218128
C133	C	1.073220	-0.357617	0.634007
C134	C	1.406554	-0.024283	0.967341
C135	C	1.739887	0.309050	1.300674
C136	C	1.073284	-0.164024	0.357785
C137	C	1.406617	0.169309	0.691118
C138	C	1.739951	0.502643	1.024451
C139	C	1.073331	-0.081478	0.357797
C140	C	1.406664	0.251855	0.691130
C141	C	1.739998	0.585188	1.024463
C142	C	1.073184	-0.357755	0.164804
C143	C	1.406517	-0.024422	0.498137
C144	C	1.739850	0.308912	0.831471
C145	C	1.073314	-0.357580	0.082258
C146	C	1.406647	-0.024246	0.415592
C147	C	1.739980	0.309087	0.748925
C148	C	1.122905	-0.307991	0.833467
C149	C	1.456238	0.025342	1.166801
C150	C	1.789571	0.358675	1.500134
C151	C	1.055171	-0.289814	0.882866
C152	C	1.388504	0.043520	1.216199
C153	C	1.721838	0.376853	1.549533
C154	C	1.073250	-0.357604	0.785138
C155	C	1.406584	-0.024271	1.118471
C156	C	1.739917	0.309063	1.451805
C157	C	1.141011	-0.375734	0.882821
C158	C	1.474344	-0.042401	1.216154
C159	C	1.807678	0.290932	1.549488
C160	C	1.073285	-0.357590	0.931123
C161	C	1.406618	-0.024257	1.264456
C162	C	1.739952	0.309076	1.597790
C163	C	1.005481	-0.339391	0.833449
C164	C	1.338814	-0.006058	1.166783
C165	C	1.672147	0.327275	1.500116
C166	C	1.091367	-0.425344	0.833400
C167	C	1.424700	-0.092010	1.166733
C168	C	1.758033	0.241323	1.500067
C169	C	1.023586	-0.407192	0.882776
C170	C	1.356920	-0.073858	1.216110
C171	C	1.690253	0.259475	1.549443
C172	C	1.073231	-0.357610	0.701040
C173	C	1.406565	-0.024277	1.034373
C174	C	1.739898	0.309057	1.367706
C175	C	1.073296	-0.357584	1.015220
C176	C	1.406630	-0.024251	1.348553
C177	C	1.739963	0.309082	1.681886
H178	H	0.527173	-0.449447	0.449130
H179	H	0.860506	-0.116113	0.782463
H180	H	1.193839	0.217220	1.115797
H181	H	0.981539	-0.811022	0.449217
H182	H	1.314872	-0.477689	0.782550
H183	H	1.648206	-0.144356	1.115884
H184	H	0.527215	-0.391211	0.232607
H185	H	0.860548	-0.057878	0.565941
H186	H	1.193882	0.275456	0.899274
H187	H	0.981562	-0.449142	0.904291
H188	H	1.314895	-0.115808	1.237624
H189	H	1.648228	0.217525	1.570958
H190	H	1.198301	-0.391074	0.904511
H191	H	1.531634	-0.057740	1.237844
H192	H	1.864967	0.275593	1.571178
H193	H	0.948201	-0.903913	0.324200
H194	H	1.281534	-0.570579	0.657533
H195	H	1.614867	-0.237246	0.990866
H196	H	1.039859	-0.232522	0.904594
H197	H	1.373192	0.100811	1.237927
H198	H	1.706525	0.434145	1.571261
H199	H	0.619893	-0.482767	0.324065
H200	H	0.953227	-0.149434	0.657398
H201	H	1.286560	0.183899	0.990731
H202	H	1.106634	-0.903632	0.482856
H203	H	1.439967	-0.570299	0.816189
H204	H	1.773301	-0.236966	1.149523
H205	H	1.164827	-0.266009	0.811814
H206	H	1.498160	0.067324	1.145147
H207	H	1.831493	0.400658	1.478480
H208	H	0.619769	-0.266077	0.266256
H209	H	0.953102	0.067257	0.599589
H210	H	1.286436	0.400590	0.932922
H211	H	0.527190	-0.232766	0.391488
H212	H	0.860524	0.100567	0.724821
H213	H	1.193857	0.433900	1.058155
H214	H	1.106699	-0.482619	0.811658
H215	H	1.440033	-0.149286	1.144991
H216	H	1.773366	0.184047	1.478324
H217	H	0.619981	-0.324407	0.482865
H218	H	0.953315	0.008926	0.816198
H219	H	1.286648	0.342260	1.149531
H220	H	1.039674	-0.811168	0.232646
H221	H	1.373007	-0.477834	0.565979
H222	H	1.706341	-0.144501	0.899313
H223	H	1.164860	-0.903524	0.266198
H224	H	1.498193	-0.570191	0.599532
H225	H	1.831527	-0.236858	0.932865
H226	H	1.198192	-0.810795	0.391396
H227	H	1.531525	-0.477462	0.724730
H228	H	1.864858	-0.144129	1.058063
H229	H	0.948174	-0.323984	0.811853
H230	H	1.281508	0.009349	1.145186
H231	H	1.614841	0.342682	1.478520
