data_functionalizedCrystal
_audit_creation_method	'MofGen! by Chris Wilmer'
_symmetry_space_group_name_H-M	'P1'
_symmetry_Int_Tables_number	1
_symmetry_cell_setting	triclinic
loop_
_symmetry_equiv_pos_as_xyz
  x,y,z
_cell_length_a	16.120530
_cell_length_b	18.050589
_cell_length_c	16.120256
_cell_angle_alpha	92.877403
_cell_angle_beta	90.128265
_cell_angle_gamma	87.123928
loop_
_atom_site_label
_atom_site_type_symbol
_atom_site_fract_x
_atom_site_fract_y
_atom_site_fract_z
Zn1	Zn	1.247404	-0.376262	-0.534589
Zn2	Zn	1.580737	-0.042929	-0.201256
Zn3	Zn	1.914071	0.290404	0.132077
Zn4	Zn	1.254344	-0.494483	-0.395538
Zn5	Zn	1.587677	-0.161150	-0.062205
Zn6	Zn	1.921010	0.172183	0.271128
Zn7	Zn	1.115396	-0.363709	-0.388506
Zn8	Zn	1.448729	-0.030376	-0.055173
Zn9	Zn	1.782062	0.302958	0.278161
Zn10	Zn	1.108300	-0.493803	-0.527508
Zn11	Zn	1.441633	-0.160470	-0.194175
Zn12	Zn	1.774967	0.172864	0.139159
O13	O	1.181361	-0.432065	-0.461535
O14	O	1.514694	-0.098731	-0.128202
O15	O	1.848027	0.234602	0.205131
O16	O	1.364690	-0.397483	-0.522050
O17	O	1.698024	-0.064150	-0.188717
O18	O	2.031357	0.269184	0.144616
O19	O	1.241786	-0.472167	-0.278239
O20	O	1.575119	-0.138834	0.055094
O21	O	1.908452	0.194500	0.388428
O22	O	1.132972	-0.261454	-0.407905
O23	O	1.466306	0.071880	-0.074571
O24	O	1.799639	0.405213	0.258762
O25	O	1.369789	-0.484340	-0.419890
O26	O	1.703122	-0.151006	-0.086557
O27	O	2.036455	0.182327	0.246776
O28	O	1.229958	-0.270677	-0.515232
O29	O	1.563292	0.062657	-0.181898
O30	O	1.896625	0.395990	0.151435
O31	O	1.139701	-0.376088	-0.273073
O32	O	1.473035	-0.042754	0.060261
O33	O	1.806368	0.290579	0.393594
O34	O	0.998089	-0.375428	-0.401038
O35	O	1.331422	-0.042095	-0.067705
O36	O	1.664755	0.291239	0.265628
O37	O	1.120879	-0.483180	-0.644814
O38	O	1.454212	-0.149847	-0.311480
O39	O	1.787545	0.183487	0.021853
O40	O	0.992875	-0.471007	-0.503162
O41	O	1.326209	-0.137674	-0.169829
O42	O	1.659542	0.195659	0.163504
O43	O	1.223078	-0.396823	-0.650016
O44	O	1.556411	-0.063490	-0.316683
O45	O	1.889744	0.269843	0.016650
O46	O	1.234905	-0.598314	-0.413024
O47	O	1.568239	-0.264981	-0.079690
O48	O	1.901572	0.068353	0.253643
O49	O	1.127608	-0.597814	-0.509981
O50	O	1.460941	-0.264481	-0.176648
O51	O	1.794274	0.068853	0.156685
C52	C	0.965310	-0.421782	-0.450569
C53	C	1.298643	-0.088449	-0.117236
C54	C	1.631976	0.244884	0.216097
C55	C	0.872881	-0.417402	-0.445898
C56	C	1.206214	-0.084069	-0.112564
C57	C	1.539548	0.249265	0.220769
C58	C	0.703652	-0.409388	-0.437376
C59	C	1.036986	-0.076055	-0.104043
C60	C	1.370319	0.257278	0.229291
C61	C	0.659907	-0.454798	-0.485756
C62	C	0.993240	-0.121465	-0.152422
C63	C	1.326573	0.211869	0.180911
C64	C	0.565742	-0.450339	-0.481014
C65	C	0.899075	-0.117006	-0.147681
C66	C	1.232409	0.216328	0.185653
C67	C	0.797826	-0.413846	-0.442116
C68	C	1.131159	-0.080513	-0.108783
C69	C	1.464492	0.252820	0.224550
C70	C	1.181261	-0.625011	-0.461516
C71	C	1.514594	-0.291678	-0.128183
C72	C	1.847928	0.041655	0.205150
C73	C	1.181293	-0.707560	-0.461540
C74	C	1.514626	-0.374226	-0.128207
C75	C	1.847960	-0.040893	0.205127
C76	C	1.123000	-0.906767	-0.514249
C77	C	1.456334	-0.573434	-0.180916
C78	C	1.789667	-0.240100	0.152418
C79	C	1.106577	-0.951987	-0.437343
C80	C	1.439911	-0.618654	-0.104010
C81	C	1.773244	-0.285320	0.229324
C82	C	1.181374	-0.858694	-0.461555
C83	C	1.514708	-0.525361	-0.128222
C84	C	1.848041	-0.192028	0.205112
C85	C	1.197838	-0.960558	-0.538472
C86	C	1.531171	-0.627225	-0.205139
C87	C	1.864504	-0.293892	0.128195
C88	C	1.181451	-1.004684	-0.461576
C89	C	1.514784	-0.671350	-0.128243
C90	C	1.848117	-0.338017	0.205091
C91	C	1.164914	-0.902823	-0.384607
C92	C	1.498247	-0.569490	-0.051273
C93	C	1.831580	-0.236157	0.282060
C94	C	1.256206	-0.911394	-0.485789
C95	C	1.589540	-0.578061	-0.152455
C96	C	1.922873	-0.244728	0.180878
C97	C	1.239815	-0.956591	-0.408832
C98	C	1.573148	-0.623258	-0.075498
C99	C	1.906482	-0.289924	0.257835
C100	C	1.181328	-0.774593	-0.461544
C101	C	1.514661	-0.441260	-0.128211
C102	C	1.847995	-0.107927	0.205123
C103	C	1.181498	-1.088783	-0.461579
C104	C	1.514831	-0.755449	-0.128245
C105	C	1.848164	-0.422116	0.205088
C106	C	1.398256	-0.442388	-0.472545
C107	C	1.731589	-0.109054	-0.139211
C108	C	2.064922	0.224279	0.194122
C109	C	1.490683	-0.446787	-0.477236
C110	C	1.824016	-0.113453	-0.143903
C111	C	2.157350	0.219880	0.189431
C112	C	1.170413	-0.441326	-0.678431
C113	C	1.503746	-0.107993	-0.345098
C114	C	1.837079	0.225341	-0.011764
C115	C	1.165747	-0.445273	-0.770859
C116	C	1.499080	-0.111940	-0.437526
C117	C	1.832414	0.221394	-0.104192
C118	C	1.181483	-0.238366	-0.461574
C119	C	1.514816	0.094967	-0.128240
C120	C	1.848149	0.428301	0.205093
C121	C	1.181535	-0.155823	-0.461590
C122	C	1.514868	0.177510	-0.128257
C123	C	1.848201	0.510843	0.205077
C124	C	1.205689	-0.411464	-0.983841
C125	C	1.539022	-0.078130	-0.650508
C126	C	1.872356	0.255203	-0.317174
C127	C	1.157201	-0.452447	-0.940079
C128	C	1.490535	-0.119113	-0.606746
C129	C	1.823868	0.214220	-0.273413
C130	C	1.161958	-0.448454	-0.845916
C131	C	1.495291	-0.115121	-0.512583
C132	C	1.828624	0.218213	-0.179250
C133	C	1.200934	-0.415455	-1.078013
C134	C	1.534267	-0.082122	-0.744679
C135	C	1.867601	0.251211	-0.411346
C136	C	1.192314	-0.422788	-0.245486
C137	C	1.525648	-0.089454	0.087847
C138	C	1.858981	0.243879	0.421181
C139	C	1.197141	-0.418639	-0.153067
C140	C	1.530474	-0.085306	0.180267
C141	C	1.863808	0.248027	0.513600
H142	H	1.043330	-0.969982	-0.416864
H143	H	1.376663	-0.636648	-0.083531
H144	H	1.709996	-0.303315	0.249803
C145	C	0.704844	-0.511861	-0.546497
C146	C	1.038178	-0.178528	-0.213164
C147	C	1.371511	0.154806	0.120170
H148	H	0.763157	-0.507422	-0.541743
H149	H	1.096490	-0.174089	-0.208409
H150	H	1.429824	0.159244	0.124924
H151	H	0.687871	-0.502822	-0.601699
H152	H	1.021204	-0.169488	-0.268366
H153	H	1.354537	0.163845	0.064968
H154	H	0.691241	-0.560553	-0.533502
H155	H	1.024574	-0.227219	-0.200168
H156	H	1.357908	0.106114	0.133165
C157	C	1.056233	-0.877211	-0.574356
C158	C	1.389566	-0.543878	-0.241023
C159	C	1.722899	-0.210544	0.092311
H160	H	1.081885	-0.851273	-0.616420
H161	H	1.415219	-0.517940	-0.283087
H162	H	1.748552	-0.184607	0.050247
H163	H	1.017619	-0.844484	-0.544612
H164	H	1.350952	-0.511150	-0.211279
H165	H	1.684285	-0.177817	0.122055
H166	H	1.028011	-0.917649	-0.599129
H167	H	1.361345	-0.584316	-0.265796
H168	H	1.694678	-0.250983	0.067537
C169	C	1.146035	-0.868874	-0.296717
C170	C	1.479368	-0.535541	0.036616
C171	C	1.812702	-0.202208	0.369950
H172	H	1.146092	-0.816271	-0.297252
H173	H	1.479425	-0.482938	0.036081
H174	H	1.812759	-0.149605	0.369414
H175	H	1.187279	-0.886321	-0.259247
H176	H	1.520612	-0.552988	0.074086
H177	H	1.853946	-0.219654	0.407419
H178	H	1.093071	-0.883077	-0.279438
H179	H	1.426404	-0.549743	0.053895
H180	H	1.759738	-0.216410	0.387229
H181	H	1.112113	-0.490527	-0.973333
H182	H	1.445446	-0.157194	-0.639999
H183	H	1.778780	0.176139	-0.306666
H184	H	0.670386	-0.367167	-0.392399
H185	H	1.003719	-0.033833	-0.059065
H186	H	1.337053	0.299500	0.274268
C187	C	1.306547	-0.985956	-0.348577
C188	C	1.639881	-0.652623	-0.015243
C189	C	1.973214	-0.319290	0.318090
H190	H	1.294741	-0.965987	-0.293987
H191	H	1.628074	-0.632653	0.039346
H192	H	1.961408	-0.299320	0.372679
H193	H	1.359540	-0.971394	-0.365316
H194	H	1.692873	-0.638061	-0.031982
H195	H	2.026207	-0.304728	0.301351
H196	H	1.306515	-1.038611	-0.349242
H197	H	1.639848	-0.705278	-0.015909
H198	H	1.973182	-0.371945	0.317424
C199	C	1.341641	-0.887111	-0.513486
C200	C	1.674974	-0.553778	-0.180152
C201	C	2.008308	-0.220444	0.153181
H202	H	1.353233	-0.906961	-0.568165
H203	H	1.686567	-0.573628	-0.234832
H204	H	2.019900	-0.240295	0.098501
H205	H	1.383225	-0.904959	-0.476606
H206	H	1.716558	-0.571625	-0.143273
H207	H	2.049891	-0.238292	0.190060
H208	H	1.341170	-0.834434	-0.512789
H209	H	1.674503	-0.501101	-0.179456
H210	H	2.007836	-0.167767	0.153877
C211	C	1.266597	-0.360024	-0.938925
C212	C	1.599930	-0.026691	-0.605592
C213	C	1.933264	0.306642	-0.272258
H214	H	1.261847	-0.364065	-0.880612
H215	H	1.595181	-0.030731	-0.547279
H216	H	1.928514	0.302602	-0.213946
H217	H	1.253768	-0.310135	-0.952482
H218	H	1.587101	0.023199	-0.619149
H219	H	1.920434	0.356532	-0.285815
H220	H	1.321760	-0.374153	-0.955954
H221	H	1.655094	-0.040820	-0.622621
H222	H	1.988427	0.292513	-0.289288
H223	H	1.211732	-0.985778	-0.603511
H224	H	1.545066	-0.652445	-0.270178
H225	H	1.878399	-0.319112	0.063155
