data_functionalizedCrystal
_audit_creation_method	'MofGen! by Chris Wilmer'
_symmetry_space_group_name_H-M	'P1'
_symmetry_Int_Tables_number	1
_symmetry_cell_setting	triclinic
loop_
_symmetry_equiv_pos_as_xyz
  x,y,z
_cell_length_a	6.394989
_cell_length_b	16.776229
_cell_length_c	17.699077
_cell_angle_alpha	90.007527
_cell_angle_beta	84.889144
_cell_angle_gamma	89.997510
loop_
_atom_site_label
_atom_site_type_symbol
_atom_site_fract_x
_atom_site_fract_y
_atom_site_fract_z
O1	O	-0.264072	0.066273	-1.006761
O2	O	-0.298449	0.066276	-0.786733
O3	O	0.022820	0.066275	-0.899870
O4	O	-0.585341	0.066274	-0.893623
O5	O	0.022840	-0.066302	-0.899885
O6	O	-0.298429	-0.066301	-0.786748
O7	O	-0.264052	-0.066304	-1.006776
Zn8	Zn	-0.281237	-0.087352	-0.896764
Zn9	Zn	-0.281264	0.087324	-0.896744
O10	O	-0.585320	-0.066303	-0.893639
C11	C	-0.297209	-0.000012	-0.758531
C12	C	-0.293520	-0.000011	-0.674475
N13	N	-0.281217	-0.206563	-0.896784
C14	C	-0.265292	-0.000014	-1.034978
C15	C	-0.268981	-0.000011	-1.119034
C16	C	0.100645	-0.000011	-0.898642
C17	C	0.336860	-0.000010	-0.894868
N18	N	-0.281267	0.206535	-0.896731
C19	C	-0.291771	-0.072279	-0.634998
C20	C	-0.288271	-0.072280	-0.556020
C21	C	-0.286536	-0.000011	-0.516519
C22	C	-0.288279	0.072263	-0.556001
C23	C	-0.291764	0.072263	-0.634979
C24	C	-0.274224	0.072264	-0.237495
C25	C	-0.270745	0.072258	-0.158512
C26	C	-0.270731	-0.072278	-0.158535
C27	C	-0.274215	-0.072278	-0.237513
C28	C	-0.275947	-0.000005	-0.276989
C29	C	-0.279738	-0.000005	-0.362626
C30	C	-0.282760	-0.000011	-0.430883
C31	C	-0.139256	0.751699	-0.946979
C32	C	-0.139254	0.668247	-0.946969
C33	C	-0.281226	0.626534	-0.896768
C34	C	-0.423194	0.668278	-0.846567
C35	C	-0.423184	0.751729	-0.846574
C36	C	-0.423237	0.331731	-0.846540
C37	C	-0.423240	0.248274	-0.846539
C38	C	-0.139307	0.248249	-0.946935
C39	C	-0.139297	0.331700	-0.946942
C40	C	-0.281257	0.373436	-0.896739
C41	C	-0.281254	0.463925	-0.896749
C42	C	-0.281240	0.536047	-0.896761
H43	H	-0.286812	-0.131128	-0.523882
H44	H	-0.023709	0.214258	-0.987811
H45	H	-0.023657	0.634264	-0.987841
C46	C	-0.579302	0.622400	-0.791322
H47	H	-0.663816	0.659212	-0.761417
H48	H	-0.666345	0.589830	-0.819284
H49	H	-0.504023	0.589864	-0.759165
C50	C	-0.268828	0.151757	-0.115062
H51	H	-0.270340	0.194801	-0.149884
H52	H	-0.389224	0.154763	-0.079641
H53	H	-0.145704	0.154755	-0.088866
H54	H	-0.293193	0.131111	-0.667120
C55	C	0.016919	0.797576	-1.002200
H56	H	0.101478	0.760763	-1.032087
H57	H	-0.058274	0.830127	-1.034366
H58	H	0.103942	0.830131	-0.974209
H59	H	-0.538829	0.365706	-0.805664
C60	C	-0.286404	0.151758	-0.512555
H61	H	-0.287937	0.194799	-0.547380
H62	H	-0.406809	0.154755	-0.477137
H63	H	-0.163289	0.154770	-0.486355
C64	C	0.016877	0.377579	-1.002160
H65	H	0.101441	0.340769	-1.032049
H66	H	-0.058316	0.410132	-1.034325
H67	H	0.103896	0.410134	-0.974167
C68	C	-0.579403	0.202388	-0.791313
H69	H	-0.559087	0.146710	-0.798507
H70	H	-0.556618	0.216070	-0.740613
H71	H	-0.718856	0.216066	-0.800762
H72	H	-0.275639	-0.131126	-0.269670
C73	C	-0.579349	0.797641	-0.791363
H74	H	-0.663919	0.760847	-0.761468
H75	H	-0.504141	0.830200	-0.759204
H76	H	-0.666364	0.830190	-0.819358
H77	H	-0.269311	-0.131127	-0.126385
C78	C	-0.293641	-0.151775	-0.678443
H79	H	-0.292067	-0.194815	-0.643619
H80	H	-0.416739	-0.154792	-0.704645
H81	H	-0.173219	-0.154769	-0.713861
C82	C	-0.276153	0.151761	-0.280908
H83	H	-0.274645	0.194799	-0.246068
H84	H	-0.155761	0.154771	-0.316330
H85	H	-0.399280	0.154765	-0.307101
