data_functionalizedCrystal
_audit_creation_method	'MofGen! by Chris Wilmer'
_symmetry_space_group_name_H-M	'P1'
_symmetry_Int_Tables_number	1
_symmetry_cell_setting	triclinic
loop_
_symmetry_equiv_pos_as_xyz
  x,y,z
_cell_length_a	21.395362
_cell_length_b	16.120484
_cell_length_c	21.395355
_cell_angle_alpha	87.119279
_cell_angle_beta	90.043940
_cell_angle_gamma	92.942400
loop_
_atom_site_label
_atom_site_type_symbol
_atom_site_fract_x
_atom_site_fract_y
_atom_site_fract_z
Zn1	Zn	0.945244	-0.331659	0.367215
Zn2	Zn	1.445244	0.168341	0.867215
Zn3	Zn	0.939845	-0.471058	0.267746
Zn4	Zn	1.439845	0.028942	0.767746
Zn5	Zn	0.840458	-0.331698	0.262418
Zn6	Zn	1.340458	0.168302	0.762418
Zn7	Zn	0.835126	-0.471075	0.372451
Zn8	Zn	1.335126	0.028925	0.872451
O9	O	0.890168	-0.401372	0.317458
O10	O	1.390168	0.098628	0.817458
O11	O	1.032207	-0.350127	0.354059
O12	O	1.532207	0.149873	0.854059
O13	O	0.926633	-0.452580	0.179362
O14	O	1.426633	0.047420	0.679362
O15	O	0.858849	-0.215024	0.271898
O16	O	1.358849	0.284976	0.771898
O17	O	1.028240	-0.452543	0.280979
O18	O	1.528240	0.047457	0.780979
O19	O	0.935836	-0.214995	0.348892
O20	O	1.435836	0.285005	0.848892
O21	O	0.853614	-0.350193	0.175447
O22	O	1.353614	0.149807	0.675447
O23	O	0.752072	-0.350210	0.276976
O24	O	1.252072	0.149790	0.776976
O25	O	0.849761	-0.452572	0.459434
O26	O	1.349761	0.047428	0.959434
O27	O	0.748154	-0.452609	0.357817
O28	O	1.248154	0.047391	0.857817
O29	O	0.930665	-0.350144	0.455587
O30	O	1.430665	0.149856	0.955587
O31	O	0.921462	-0.587728	0.286057
O32	O	1.421462	-0.087728	0.786057
O33	O	0.844526	-0.587741	0.362983
O34	O	1.344526	-0.087741	0.862983
C35	C	0.727379	-0.401416	0.317387
C36	C	1.227379	0.098584	0.817387
C37	C	0.657736	-0.401455	0.317372
C38	C	1.157736	0.098545	0.817372
C39	C	0.622997	-0.454845	0.359409
C40	C	1.122997	0.045155	0.859409
C41	C	0.557562	-0.454825	0.359436
C42	C	1.057562	0.045175	0.859436
C43	C	0.526869	-0.401423	0.317415
C44	C	1.026869	0.098577	0.817415
C45	C	0.561617	-0.348022	0.275375
C46	C	1.061617	0.151978	0.775375
C47	C	0.627050	-0.348039	0.275354
C48	C	1.127050	0.151961	0.775354
C49	C	0.423400	-0.394707	0.260754
C50	C	0.923400	0.105293	0.760754
C51	C	0.357967	-0.394696	0.260775
C52	C	0.857967	0.105304	0.760775
C53	C	0.325050	-0.401369	0.317482
C54	C	0.825050	0.098631	0.817482
C55	C	0.357574	-0.408069	0.374171
C56	C	0.857574	0.091931	0.874171
C57	C	0.423007	-0.408085	0.374149
C58	C	0.923007	0.091915	0.874149
C59	C	0.455918	-0.401399	0.317434
C60	C	0.955918	0.098601	0.817434
C61	C	0.219359	-0.454740	0.359552
C62	C	0.719359	0.045260	0.859552
C63	C	0.153924	-0.454713	0.359580
C64	C	0.653924	0.045287	0.859580
C65	C	0.157979	-0.347915	0.275514
C66	C	0.657979	0.152085	0.775514
C67	C	0.223414	-0.347937	0.275492
C68	C	0.723414	0.152063	0.775492
C69	C	0.254100	-0.401354	0.317510
C70	C	0.754100	0.098646	0.817510
C71	C	0.881846	-0.617986	0.325680
C72	C	1.381846	-0.117986	0.825680
C73	C	0.878344	-0.710654	0.329218
C74	C	1.378344	-0.210654	0.829218
C75	C	0.871952	-0.880320	0.335692
C76	C	1.371952	-0.380320	0.835692
C77	C	0.908497	-0.921584	0.299234
C78	C	1.408497	-0.421584	0.799234
C79	C	0.904940	-1.015992	0.302836
C80	C	1.404940	-0.515992	0.802836
C81	C	0.875507	-0.785903	0.332091
C82	C	1.375507	-0.285903	0.832091
C83	C	1.053593	-0.401328	0.317529
C84	C	1.553593	0.098672	0.817529
C85	C	1.123235	-0.401310	0.317560
C86	C	1.623235	0.098690	0.817560
C87	C	0.890221	-0.401355	0.480880
C88	C	1.390221	0.098645	0.980880
C89	C	0.890243	-0.401348	0.550521
C90	C	1.390243	0.098652	1.050521
C91	C	0.898540	-0.183913	0.309217
C92	C	1.398540	0.316087	0.809217
C93	C	0.902107	-0.091245	0.305705
C94	C	1.402107	0.408755	0.805705
C95	C	0.890154	-0.401329	0.154668
C96	C	1.390154	0.098671	0.654668
C97	C	0.890262	-0.401101	0.085019
C98	C	1.390262	0.098899	0.585019
C99	C	0.932368	-0.348011	0.581232
C100	C	1.432368	0.151989	1.081232
C101	C	0.932369	-0.347976	0.646666
C102	C	1.432369	0.152024	1.146666
C103	C	0.890250	-0.401291	0.681388
C104	C	1.390250	0.098709	1.181388
C105	C	0.848117	-0.454632	0.650669
C106	C	1.348117	0.045368	1.150669
C107	C	0.848114	-0.454660	0.585236
C108	C	1.348114	0.045340	1.085236
C109	C	0.882419	-0.476362	0.787910
C110	C	1.382419	0.023638	1.287910
C111	C	0.882427	-0.476335	0.853342
C112	C	1.382427	0.023665	1.353342
C113	C	0.890258	-0.401203	0.883205
C114	C	1.390258	0.098797	1.383205
C115	C	0.898094	-0.326096	0.847628
C116	C	1.398094	0.173904	1.347628
C117	C	0.898090	-0.326124	0.782195
C118	C	1.398090	0.173876	1.282195
C119	C	0.890249	-0.401266	0.752339
C120	C	1.390249	0.098734	1.252339
C121	C	0.932385	-0.347823	0.984867
C122	C	1.432385	0.152177	1.484867
C123	C	0.932382	-0.347786	1.050302
C124	C	1.432382	0.152214	1.550302
C125	C	0.848133	-0.454449	1.054304
C126	C	1.348133	0.045551	1.554304
C127	C	0.848134	-0.454479	0.988870
C128	C	1.348134	0.045521	1.488870
C129	C	0.890263	-0.401167	0.954155
C130	C	1.390263	0.098833	1.454155
H131	H	0.647977	-0.498340	0.393624
H132	H	1.147977	0.001660	0.893624
H133	H	0.132990	-0.304430	0.241303
H134	H	0.632990	0.195570	0.741303
O135	O	0.531904	-0.296071	0.234533
O136	O	1.031904	0.203929	0.734533
C137	C	0.576601	-0.248964	0.197412
C138	C	1.076601	0.251036	0.697412
H139	H	0.623382	-0.246138	0.222957
H140	H	1.123382	0.253862	0.722957
H141	H	0.560234	-0.183259	0.188321
H142	H	1.060234	0.316741	0.688321
H143	H	0.582328	-0.279403	0.150942
H144	H	1.082328	0.220597	0.650942
H145	H	0.942454	-0.886009	0.265316
H146	H	1.442454	-0.386009	0.765316
H147	H	0.244345	-0.498230	0.393769
H148	H	0.744345	0.001770	0.893769
H149	H	0.876050	-0.537492	0.882304
H150	H	1.376050	-0.037492	1.382304
O151	O	0.831454	-0.922881	0.376095
O152	O	1.331454	-0.422881	0.876095
C153	C	0.836883	-1.009032	0.370743
C154	C	1.336883	-0.509032	0.870743
H155	H	0.856999	-1.020816	0.322859
H156	H	1.356999	-0.520816	0.822859
H157	H	0.788722	-1.042272	0.376168
H158	H	1.288722	-0.542272	0.876168
H159	H	0.869316	-1.033670	0.408873
H160	H	1.369316	-0.533670	0.908873
H161	H	0.966673	-0.304600	0.552972
H162	H	1.466673	0.195400	1.052972
O163	O	0.874771	-0.549421	0.759004
O164	O	1.374771	-0.049421	1.259004
C165	C	0.867814	-0.615698	0.804434
C166	C	1.367814	-0.115698	1.304434
H167	H	0.889683	-0.595975	0.850327
H168	H	1.389683	-0.095975	1.350327
H169	H	0.892196	-0.671781	0.787660
H170	H	1.392196	-0.171781	1.287660
H171	H	0.815938	-0.632933	0.812049
H172	H	1.315938	-0.132933	1.312049
O173	O	0.973353	-0.296138	0.676410
O174	O	1.473353	0.203862	1.176410
C175	C	1.010524	-0.249074	0.631738
C176	C	1.510524	0.250926	1.131738
H177	H	1.011374	-0.283238	0.586395
H178	H	1.511374	0.216762	1.086395
H179	H	1.060233	-0.240169	0.650343
H180	H	1.560233	0.259831	1.150343
H181	H	0.990022	-0.185759	0.622355
H182	H	1.490022	0.314241	1.122355
O183	O	0.973368	-0.296153	0.951119
O184	O	1.473368	0.203847	1.451119
C185	C	1.011999	-0.343628	0.915101
C186	C	1.511999	0.156372	1.415101
H187	H	1.013339	-0.409281	0.937325
H188	H	1.513339	0.090719	1.437325
H189	H	1.061379	-0.313463	0.913249
H190	H	1.561379	0.186537	1.413249
H191	H	0.992519	-0.346527	0.865604
H192	H	1.492519	0.153473	1.365604
O193	O	0.807231	-0.506541	0.684329
O194	O	1.307231	-0.006541	1.184329
C195	C	0.817734	-0.589639	0.671524
C196	C	1.317734	-0.089639	1.171524
H197	H	0.841749	-0.591379	0.624097
H198	H	1.341749	-0.091379	1.124097
H199	H	0.771075	-0.627035	0.670676
H200	H	1.271075	-0.127035	1.170676
H201	H	0.848868	-0.617697	0.709441
H202	H	1.348868	-0.117697	1.209441
H203	H	0.904469	-0.264969	0.753231
H204	H	1.404469	0.235031	1.253231
H205	H	0.904471	-0.264916	0.871941
H206	H	1.404471	0.235084	1.371941
O207	O	0.120270	-0.506659	0.400439
O208	O	0.620270	-0.006659	0.900439
C209	C	0.161389	-0.553793	0.437527
C210	C	0.661389	-0.053793	0.937527
H211	H	0.207894	-0.556638	0.411950
H212	H	0.707894	-0.056638	0.911950
H213	H	0.139941	-0.619490	0.446623
H214	H	0.639941	-0.119490	0.946623
H215	H	0.169583	-0.523366	0.483995
H216	H	0.669583	-0.023366	0.983995
H217	H	0.966684	-0.304348	1.075305
H218	H	1.466684	0.195652	1.575305
O219	O	0.807283	-0.506221	1.088120
O220	O	1.307283	-0.006221	1.588120
C221	C	0.816309	-0.494746	1.152459
C222	C	1.316309	0.005254	1.652459
H223	H	0.865711	-0.467415	1.160390
H224	H	1.365711	0.032585	1.660390
H225	H	0.809664	-0.557188	1.179700
H226	H	1.309664	-0.057188	1.679700
H227	H	0.780849	-0.450359	1.169313
H228	H	1.280849	0.049641	1.669313
O229	O	0.325635	-0.414685	0.429277
O230	O	0.825635	0.085315	0.929277
C231	C	0.338739	-0.490099	0.461707
C232	C	0.838739	0.009901	0.961707
H233	H	0.354890	-0.536083	0.427082
H234	H	0.854890	-0.036083	0.927082
H235	H	0.294688	-0.517057	0.486754
H236	H	0.794688	-0.017057	0.986754
H237	H	0.377233	-0.478143	0.497506
H238	H	0.877233	0.021857	0.997506
H239	H	0.331492	-0.389246	0.214616
H240	H	0.831492	0.110754	0.714616
H241	H	0.813808	-0.498092	0.560232
H242	H	1.313808	0.001908	1.060232
H243	H	0.529272	-0.498301	0.393669
H244	H	1.029272	0.001699	0.893669
H245	H	0.450195	-0.389270	0.214573
H246	H	0.950195	0.110730	0.714573
O247	O	0.257067	-0.296053	0.234592
O248	O	0.757067	0.203947	0.734592
C249	C	0.215949	-0.248897	0.197520
C250	C	0.715949	0.251103	0.697520
H251	H	0.167978	-0.283030	0.196619
H252	H	0.667978	0.216970	0.696619
H253	H	0.235149	-0.239911	0.147818
H254	H	0.735149	0.260089	0.647818
H255	H	0.211470	-0.185621	0.218143
H256	H	0.711470	0.314379	0.718143
H257	H	0.813835	-0.497917	0.963865
H258	H	1.313835	0.002083	1.463865
H259	H	0.449485	-0.413538	0.420307
H260	H	0.949485	0.086462	0.920307
H261	H	0.655335	-0.304559	0.241122
H262	H	1.155335	0.195441	0.741122
