data_functionalizedCrystal
_audit_creation_method	'MofGen! by Chris Wilmer'
_symmetry_space_group_name_H-M	'P1'
_symmetry_Int_Tables_number	1
_symmetry_cell_setting	triclinic
loop_
_symmetry_equiv_pos_as_xyz
  x,y,z
_cell_length_a	6.817900
_cell_length_b	11.102288
_cell_length_c	11.102300
_cell_angle_alpha	91.947187
_cell_angle_beta	108.605850
_cell_angle_gamma	108.605689
loop_
_atom_site_label
_atom_site_type_symbol
_atom_site_fract_x
_atom_site_fract_y
_atom_site_fract_z
V1	V	-4.111530	-0.175839	-0.396257
O2	O	-4.070563	0.008450	-0.388713
O3	O	-4.088307	-0.348659	-0.393547
O4	O	-4.088311	-0.173134	-0.569078
O5	O	-4.070559	-0.168290	-0.211967
V6	V	-4.588633	-0.153796	-0.374214
O7	O	-4.386872	-0.224192	-0.444609
O8	O	-4.763488	-0.105442	-0.325862
O9	O	-4.388649	0.019025	-0.376924
O10	O	-4.746997	-0.338085	-0.381757
O11	O	-4.747001	-0.161344	-0.558503
O12	O	-4.388645	-0.156501	-0.201393
C13	C	-3.938618	-0.390789	-0.387295
C14	C	-4.001085	-0.532072	-0.386232
C15	C	-3.938622	-0.166888	-0.611201
C16	C	-4.001088	-0.165819	-0.752483
C17	C	-4.214440	-0.604920	-0.392073
C18	C	-4.273128	-0.737671	-0.391083
C19	C	-3.905082	-0.724713	-0.378406
C20	C	-3.846402	-0.591966	-0.379405
C21	C	-4.214446	-0.171665	-0.825332
C22	C	-4.273125	-0.170657	-0.958081
C23	C	-3.905070	-0.157963	-0.945120
C24	C	-3.846389	-0.158962	-0.812373
C25	C	-4.201681	0.061148	-0.383172
C26	C	-4.118453	0.202429	-0.384244
C27	C	-4.201677	-0.162751	-0.159263
C28	C	-4.118448	-0.163813	-0.017979
H29	H	-4.446859	-0.796980	-0.395841
H30	H	-4.340396	-0.556158	-0.397630
C31	C	-3.737100	-0.789772	-0.370717
C32	C	-3.703203	-0.848443	-0.259905
C33	C	-3.548446	-0.908370	-0.252766
H34	H	-3.790639	-0.852984	-0.444423
H35	H	-3.601549	-0.727400	-0.367311
H36	H	-3.838727	-0.910810	-0.263321
H37	H	-3.649634	-0.785260	-0.186180
H38	H	-3.412894	-0.845997	-0.249360
H39	H	-3.602000	-0.971576	-0.326477
H40	H	-3.525412	-0.948175	-0.177575
H41	H	-3.779130	-0.152383	-0.993899
C42	C	-3.614666	-0.152414	-0.733145
C43	C	-3.513380	-0.042775	-0.639419
C44	C	-3.299934	-0.036714	-0.566413
H45	H	-3.622434	-0.226923	-0.692599
H46	H	-3.530795	-0.148142	-0.787749
H47	H	-3.597230	-0.047058	-0.584822
H48	H	-3.505554	0.031752	-0.679929
H49	H	-3.216063	-0.032441	-0.621017
H50	H	-3.307724	-0.111228	-0.525876
H51	H	-3.231178	0.037681	-0.502820
C52	C	-4.504946	-0.177277	-1.037152
C53	C	-4.658469	-0.291217	-1.025928
C54	C	-4.872048	-0.297366	-1.098763
H55	H	-4.532770	-0.105691	-1.006523
H56	H	-4.517871	-0.175769	-1.124815
H57	H	-4.645552	-0.292713	-0.938283
H58	H	-4.630717	-0.362823	-1.056565
H59	H	-4.884973	-0.295858	-1.186426
H60	H	-4.899849	-0.225775	-1.068128
H61	H	-4.976237	-0.374678	-1.091167
H62	H	-3.672659	-0.532651	-0.374653
H63	H	-4.340414	-0.177247	-0.776574
