data_functionalizedCrystal
_audit_creation_method	'MofGen! by Chris Wilmer'
_symmetry_space_group_name_H-M	'P1'
_symmetry_Int_Tables_number	1
_symmetry_cell_setting	triclinic
loop_
_symmetry_equiv_pos_as_xyz
  x,y,z
_cell_length_a	6.817900
_cell_length_b	11.102237
_cell_length_c	11.102291
_cell_angle_alpha	91.950305
_cell_angle_beta	108.605752
_cell_angle_gamma	108.604801
loop_
_atom_site_label
_atom_site_type_symbol
_atom_site_fract_x
_atom_site_fract_y
_atom_site_fract_z
V1	V	-4.111536	-0.175855	-0.396262
O2	O	-4.070571	0.008434	-0.388716
O3	O	-4.088310	-0.348676	-0.393554
O4	O	-4.088320	-0.173157	-0.569084
O5	O	-4.070560	-0.168299	-0.211971
V6	V	-4.588638	-0.153811	-0.374219
O7	O	-4.386878	-0.224211	-0.444615
O8	O	-4.763493	-0.105456	-0.325866
O9	O	-4.388658	0.019009	-0.376926
O10	O	-4.746999	-0.338101	-0.381765
O11	O	-4.747010	-0.161367	-0.558509
O12	O	-4.388647	-0.156509	-0.201396
C13	C	-3.938620	-0.390805	-0.387304
C14	C	-4.001084	-0.532088	-0.386242
C15	C	-3.938632	-0.166913	-0.611207
C16	C	-4.001101	-0.165851	-0.752491
C17	C	-4.090610	-0.616614	-0.502130
C18	C	-4.149294	-0.749363	-0.501132
C19	C	-4.028925	-0.713050	-0.268345
C20	C	-3.970228	-0.580302	-0.269345
C21	C	-4.160113	-0.637580	-0.636528
C22	C	-4.218798	-0.770330	-0.635529
C23	C	-4.214456	-0.171690	-0.825339
C24	C	-4.273127	-0.170667	-0.958085
C25	C	-3.905071	-0.157970	-0.945123
C26	C	-3.846398	-0.158984	-0.812378
C27	C	-4.426954	-0.179026	-0.832824
C28	C	-4.485625	-0.178003	-0.965570
C29	C	-4.201690	0.061132	-0.383173
C30	C	-4.118465	0.202414	-0.384243
C31	C	-4.201677	-0.162758	-0.159266
C32	C	-4.118445	-0.163814	-0.017982
H33	H	-4.003807	-0.752323	-0.173172
H34	H	-3.897310	-0.511484	-0.174977
N35	N	-4.553321	-0.304562	-0.800412
H36	H	-4.640698	-0.287967	-0.747488
H37	H	-4.446263	-0.345292	-0.749690
N38	N	-4.533984	-0.058495	-1.004133
H39	H	-4.575372	-0.062109	-1.100360
H40	H	-4.398542	0.019845	-0.959745
N41	N	-4.452721	-0.064769	-0.770412
H42	H	-4.611341	-0.069460	-0.807388
H43	H	-4.353550	0.017110	-0.787408
H44	H	-4.402678	-0.819374	-0.691725
H45	H	-3.672670	-0.154230	-0.753070
N46	N	-4.675972	-0.299716	-1.035588
H47	H	-4.718586	-0.354772	-0.971087
H48	H	-4.630372	-0.348696	-1.093663
H49	H	-3.779124	-0.152377	-0.993900
N50	N	-4.357608	-0.598432	-0.698839
H51	H	-4.340166	-0.555392	-0.775362
H52	H	-4.368656	-0.536563	-0.634604
N53	N	-3.987244	-0.593932	-0.698797
H54	H	-3.952424	-0.670202	-0.725856
H55	H	-3.848835	-0.528254	-0.635371
N56	N	-4.078407	-0.826688	-0.683724
H57	H	-4.096122	-0.810839	-0.775001
H58	H	-4.126746	-0.922250	-0.681152
