data_functionalizedCrystal
_audit_creation_method	'MofGen! by Chris Wilmer'
_symmetry_space_group_name_H-M	'P1'
_symmetry_Int_Tables_number	1
_symmetry_cell_setting	triclinic
loop_
_symmetry_equiv_pos_as_xyz
  x,y,z
_cell_length_a	10.723023
_cell_length_b	17.699091
_cell_length_c	16.176319
_cell_angle_alpha	90.005674
_cell_angle_beta	89.992747
_cell_angle_gamma	96.123188
loop_
_atom_site_label
_atom_site_type_symbol
_atom_site_fract_x
_atom_site_fract_y
_atom_site_fract_z
O1	O	1.655379	-0.106151	-0.068742
O2	O	2.155379	0.393849	0.431258
O3	O	1.292052	-0.116313	-0.068744
O4	O	1.792052	0.383687	0.431256
O5	O	1.483975	-0.001108	-0.068740
O6	O	1.983975	0.498892	0.431260
O7	O	1.463456	-0.221356	-0.068746
O8	O	1.963456	0.278644	0.431254
O9	O	1.483949	-0.001100	0.068753
O10	O	1.983949	0.498900	0.568753
O11	O	1.292026	-0.116305	0.068749
O12	O	1.792026	0.383695	0.568749
O13	O	1.655352	-0.106144	0.068751
O14	O	2.155352	0.393856	0.568751
Cu15	Cu	1.473687	-0.111224	0.081304
Cu16	Cu	1.973687	0.388776	0.581304
Cu17	Cu	1.473718	-0.111233	-0.081297
Cu18	Cu	1.973718	0.388767	0.418703
O19	O	1.463429	-0.221349	0.068747
O20	O	1.963429	0.278651	0.568747
C21	C	1.245552	-0.115570	0.000002
C22	C	1.745552	0.384430	0.500002
C23	C	1.107036	-0.113358	0.000002
C24	C	1.607036	0.386642	0.500002
C25	C	0.902110	-0.110081	0.071224
C26	C	1.402110	0.389919	0.571224
C27	C	1.045274	-0.112367	0.071227
C28	C	1.545274	0.387633	0.571227
C29	C	1.483225	0.027097	0.000006
C30	C	1.983225	0.527097	0.500006
C31	C	1.481015	0.111129	0.000003
C32	C	1.981015	0.611129	0.500003
C33	C	1.701852	-0.106887	0.000003
C34	C	2.201852	0.393113	0.500003
C35	C	1.840369	-0.109099	-0.000002
C36	C	2.340369	0.390901	0.499998
C37	C	1.479994	0.150599	-0.074945
C38	C	1.979994	0.650599	0.425055
C39	C	1.477908	0.229555	-0.074945
C40	C	1.977908	0.729555	0.425055
C41	C	1.476854	0.269041	0.000003
C42	C	1.976854	0.769041	0.500003
C43	C	1.477871	0.229565	0.074957
C44	C	1.977871	0.729565	0.574957
C45	C	1.479947	0.150610	0.074957
C46	C	1.979947	0.650610	0.574957
C47	C	1.469497	0.547983	0.074962
C48	C	1.969497	1.047983	0.574962
C49	C	1.467424	0.626944	0.074957
C50	C	1.967424	1.126944	0.574957
C51	C	1.467458	0.626928	-0.074940
C52	C	1.967458	1.126928	0.425060
C53	C	1.469534	0.547973	-0.074941
C54	C	1.969534	1.047973	0.425059
C55	C	1.470545	0.508504	0.000012
C56	C	1.970545	1.008504	0.500012
C57	C	1.472803	0.422890	0.000012
C58	C	1.972803	0.922890	0.500012
C59	C	1.474604	0.354653	0.000005
C60	C	1.974604	0.854653	0.500005
N61	N	1.473674	-0.111217	0.195670
N62	N	1.973674	0.388783	0.695670
C63	C	1.464180	0.750446	0.000002
C64	C	1.964180	1.250446	0.500002
C65	C	1.466394	0.666415	0.000008
C66	C	1.966394	1.166415	0.500008
N67	N	1.473741	-0.111233	-0.195662
N68	N	1.973741	0.388767	0.304338
C69	C	1.558683	-0.060226	0.238936
C70	C	2.058683	0.439774	0.738936
C71	C	1.558689	-0.060225	0.325483
C72	C	2.058689	0.439775	0.825483
C73	C	1.473692	-0.111220	0.368762
C74	C	1.973692	0.388780	0.868762
C75	C	1.388673	-0.162214	0.325490
C76	C	1.888673	0.337786	0.825490
C77	C	1.388662	-0.162210	0.238945
C78	C	1.888662	0.337790	0.738945
C79	C	1.388716	-0.162228	0.674518
C80	C	1.888716	0.337772	1.174518
C81	C	1.388737	-0.162229	0.761070
C82	C	1.888737	0.337771	1.261070
C83	C	1.558743	-0.060243	0.761056
C84	C	2.058743	0.439757	1.261056
C85	C	1.558732	-0.060239	0.674511
C86	C	2.058732	0.439761	1.174511
C87	C	1.473710	-0.111230	0.631247
C88	C	1.973710	0.388770	1.131247
C89	C	1.473703	-0.111229	0.537402
C90	C	1.973703	0.388771	1.037402
C91	C	1.473704	-0.111225	0.462605
C92	C	1.973704	0.388775	0.962605
H93	H	1.098371	-0.113209	0.132206
H94	H	1.598371	0.386791	0.632206
H95	H	1.319438	-0.203732	0.203718
H96	H	1.819438	0.296268	0.703718
Br97	Br	1.674056	0.008982	0.384204
Br98	Br	2.174056	0.508982	0.884204
H99	H	1.053948	-0.112511	-0.060981
H100	H	1.553948	0.387489	0.439019
H101	H	1.627949	-0.018717	0.639275
H102	H	2.127949	0.481283	1.139275
Br103	Br	0.813568	-0.108672	0.172864
Br104	Br	1.313568	0.391328	0.672864
Br105	Br	1.674132	0.008962	0.819776
Br106	Br	2.174132	0.508962	1.319776
H107	H	1.319491	-0.203748	0.639299
H108	H	1.819491	0.296252	1.139299
Br109	Br	0.928906	-0.110527	-0.101641
Br110	Br	1.428906	0.389473	0.398359
Br111	Br	1.481438	0.097020	-0.176667
Br112	Br	1.981438	0.597020	0.323333
H113	H	1.477082	0.261688	-0.135976
H114	H	1.977082	0.761688	0.364024
Br115	Br	1.470976	0.494390	-0.176661
Br116	Br	1.970976	0.994390	0.323339
Br117	Br	1.465994	0.680532	0.176680
Br118	Br	1.965994	1.180532	0.676680
H119	H	1.480761	0.118473	0.135987
H120	H	1.980761	0.618473	0.635987
H121	H	1.319516	-0.203757	0.796307
H122	H	1.819516	0.296243	1.296307
H123	H	1.466628	0.659073	-0.135971
H124	H	1.966628	1.159073	0.364029
H125	H	1.470345	0.515858	0.135993
H126	H	1.970345	1.015858	0.635993
Br127	Br	1.273307	-0.231418	0.384223
Br128	Br	1.773307	0.268582	0.884223
H129	H	1.477005	0.261720	0.135982
H130	H	1.977005	0.761720	0.635982
H131	H	1.627903	-0.018703	0.203703
H132	H	2.127903	0.481297	0.703703
