data_functionalizedCrystal
_audit_creation_method	'MofGen! by Chris Wilmer'
_symmetry_space_group_name_H-M	'P1'
_symmetry_Int_Tables_number	1
_symmetry_cell_setting	triclinic
loop_
_symmetry_equiv_pos_as_xyz
  x,y,z
_cell_length_a	11.792241
_cell_length_b	14.853566
_cell_length_c	13.330367
_cell_angle_alpha	89.997816
_cell_angle_beta	89.998214
_cell_angle_gamma	83.913915
loop_
_atom_site_label
_atom_site_type_symbol
_atom_site_fract_x
_atom_site_fract_y
_atom_site_fract_z
O1	O	0.148170	1.196943	-0.083358
O2	O	0.648170	1.696943	0.416642
O3	O	0.165823	0.934553	-0.083374
O4	O	0.665823	1.434553	0.416626
O5	O	-0.008213	1.072116	-0.083358
O6	O	0.491787	1.572116	0.416642
O7	O	0.322207	1.059381	-0.083373
O8	O	0.822207	1.559381	0.416627
O9	O	-0.008208	1.072101	0.083489
O10	O	0.491792	1.572101	0.583489
O11	O	0.165829	0.934538	0.083473
O12	O	0.665829	1.434538	0.583473
O13	O	0.148175	1.196929	0.083490
O14	O	0.648175	1.696929	0.583490
Cu15	Cu	0.157002	1.065732	0.098716
Cu16	Cu	0.657002	1.565732	0.598716
Cu17	Cu	0.156996	1.065749	-0.098600
Cu18	Cu	0.656996	1.565749	0.401400
O19	O	0.322212	1.059366	0.083474
O20	O	0.822212	1.559366	0.583474
C21	C	0.165026	0.900954	0.000047
C22	C	0.665026	1.400954	0.500047
C23	C	0.162630	0.800861	0.000041
C24	C	0.662630	1.300861	0.500041
C25	C	0.152492	0.377644	-0.090889
C26	C	0.652492	0.877644	0.409111
C27	C	0.152498	0.377650	0.091014
C28	C	0.652498	0.877650	0.591014
C29	C	0.154749	0.471693	0.091011
C30	C	0.654749	0.971693	0.591011
C31	C	0.155872	0.518715	0.000056
C32	C	0.655872	1.018715	0.500056
C33	C	0.154746	0.471695	-0.090895
C34	C	0.654746	0.971695	0.409105
C35	C	0.155887	0.518719	0.181961
C36	C	0.655887	1.018719	0.681961
C37	C	0.158138	0.612767	0.181961
C38	C	0.658138	1.112767	0.681961
C39	C	0.159254	0.659792	0.091005
C40	C	0.659254	1.159792	0.591005
C41	C	0.158126	0.612766	0.000050
C42	C	0.658126	1.112766	0.500050
C43	C	0.159250	0.659789	-0.090904
C44	C	0.659250	1.159789	0.409096
C45	C	0.158114	0.612766	-0.181860
C46	C	0.658114	1.112766	0.318140
C47	C	0.155862	0.518720	-0.181851
C48	C	0.655862	1.018720	0.318149
C49	C	0.161506	0.753838	0.090996
C50	C	0.661506	1.253838	0.590996
C51	C	0.161504	0.753840	-0.090910
C52	C	0.661504	1.253840	0.409090
C53	C	-0.050497	1.071308	0.000065
C54	C	0.449503	1.571308	0.500065
C55	C	-0.176496	1.068914	0.000064
C56	C	0.323504	1.568914	0.500064
C57	C	-0.407181	1.064511	0.000047
C58	C	0.092819	1.564511	0.500047
C59	C	-0.278810	1.066958	0.000056
C60	C	0.221190	1.566958	0.500056
C61	C	0.364495	1.060173	0.000048
C62	C	0.864495	1.560173	0.500048
C63	C	0.490494	1.062568	0.000043
C64	C	0.990494	1.562568	0.500043
C65	C	0.148972	1.230528	0.000066
C66	C	0.648972	1.730528	0.500066
C67	C	0.151368	1.330621	0.000065
C68	C	0.651368	1.830621	0.500065
N69	N	0.157006	1.065727	0.237497
N70	N	0.657006	1.565727	0.737497
N71	N	0.156984	1.065762	-0.237382
N72	N	0.656984	1.565762	0.262618
C73	C	0.234046	1.004806	0.290016
C74	C	0.734046	1.504806	0.790016
C75	C	0.079962	1.126654	0.290007
C76	C	0.579962	1.626654	0.790007
C77	C	0.079957	1.126663	0.395025
C78	C	0.579957	1.626663	0.895025
C79	C	0.156997	1.065742	0.447544
C80	C	0.656997	1.565742	0.947544
C81	C	0.234041	1.004811	0.395044
C82	C	0.734041	1.504811	0.895044
C83	C	0.002906	1.187586	0.447533
C84	C	0.502906	1.687586	0.947533
C85	C	0.002898	1.187597	0.552558
C86	C	0.502898	1.687597	1.052558
C87	C	0.079944	1.126679	0.605078
C88	C	0.579944	1.626679	1.105078
C89	C	0.156993	1.065747	0.552572
C90	C	0.656993	1.565747	1.052572
C91	C	0.234032	1.004826	0.605090
C92	C	0.734032	1.504826	1.105090
C93	C	0.311087	0.943897	0.552585
C94	C	0.811087	1.443897	1.052585
C95	C	0.311088	0.943893	0.447564
C96	C	0.811088	1.443893	0.947564
C97	C	0.079944	1.126683	0.710100
C98	C	0.579944	1.626683	1.210100
C99	C	0.234028	1.004831	0.710118
C100	C	0.734028	1.504831	1.210118
H101	H	0.151591	0.339358	0.165065
H102	H	0.651591	0.839358	0.665065
C103	C	0.154626	0.466993	-0.281890
C104	C	0.654626	0.966993	0.218110
H105	H	0.153138	0.404247	-0.268858
H106	H	0.653138	0.904247	0.231142
H107	H	0.088863	0.488950	-0.319265
H108	H	0.588863	0.988950	0.180735
H109	H	0.221138	0.475854	-0.319259
H110	H	0.721138	0.975854	0.180741
C111	C	0.159377	0.664490	0.282004
C112	C	0.659377	1.164490	0.782004
H113	H	0.160884	0.727235	0.268976
H114	H	0.660884	1.227235	0.768976
H115	H	0.092877	0.655625	0.319378
H116	H	0.592877	1.155625	0.819378
H117	H	0.225153	0.642527	0.319370
H118	H	0.725153	1.142527	0.819370
C119	C	0.395826	0.876888	0.610362
C120	C	0.895826	1.376888	1.110362
H121	H	0.384784	0.885624	0.680428
H122	H	0.884784	1.385624	1.180428
H123	H	0.383375	0.816659	0.593158
H124	H	0.883375	1.316659	1.093158
H125	H	0.471603	0.887057	0.593159
H126	H	0.971603	1.387057	1.093159
H127	H	0.154979	0.480425	0.256011
H128	H	0.654979	0.980425	0.756011
C129	C	0.318803	0.937788	0.232272
C130	C	0.818803	1.437788	0.732272
H131	H	0.364686	0.901513	0.278595
H132	H	0.864686	1.401513	0.778595
H133	H	0.277900	0.900059	0.191301
H134	H	0.777900	1.400059	0.691301
H135	H	0.366130	0.970455	0.191306
H136	H	0.866130	1.470455	0.691306
C137	C	-0.004784	1.193654	0.232240
C138	C	0.495216	1.693654	0.732240
H139	H	0.006254	1.184925	0.162173
H140	H	0.506254	1.684925	0.662173
H141	H	-0.080553	1.183492	0.249458
H142	H	0.419447	1.683492	0.749458
H143	H	0.007679	1.253888	0.249438
H144	H	0.507679	1.753888	0.749438
H145	H	0.373822	0.894287	0.404808
H146	H	0.873822	1.394287	0.904808
H147	H	-0.059823	1.237183	0.404769
H148	H	0.440177	1.737183	0.904769
C149	C	-0.081846	1.254623	0.610304
C150	C	0.418154	1.754623	1.110304
H151	H	-0.127720	1.290908	0.563983
H152	H	0.372280	1.790908	1.063983
H153	H	-0.129168	1.221972	0.651284
H154	H	0.370832	1.721972	1.151284
H155	H	-0.040921	1.292356	0.651261
H156	H	0.459079	1.792356	1.151261
C157	C	-0.004809	1.193692	0.767851
C158	C	0.495191	1.693692	1.267851
H159	H	-0.050689	1.229974	0.721531
H160	H	0.449311	1.729974	1.221531
H161	H	-0.052122	1.161030	0.808825
H162	H	0.447878	1.661030	1.308825
H163	H	0.036104	1.231430	0.808813
H164	H	0.536104	1.731430	1.308813
H165	H	0.162415	0.792120	-0.164978
H166	H	0.662415	1.292120	0.335022
H167	H	0.159037	0.651063	-0.255916
H168	H	0.659037	1.151063	0.244084
C169	C	0.318773	0.937819	0.767885
C170	C	0.818773	1.437819	1.267885
H171	H	0.307741	0.946549	0.837953
H172	H	0.807741	1.446549	1.337953
H173	H	0.306320	0.877591	0.750677
H174	H	0.806320	1.377591	1.250677
H175	H	0.394548	0.947990	0.750675
H176	H	0.894548	1.447990	1.250675
C177	C	0.162760	0.805563	0.191031
C178	C	0.662760	1.305563	0.691031
H179	H	0.164269	0.868308	0.178002
H180	H	0.664269	1.368308	0.678002
H181	H	0.096264	0.796701	0.228413
H182	H	0.596264	1.296701	0.728413
H183	H	0.228540	0.783599	0.228390
H184	H	0.728540	1.283599	0.728390
H185	H	0.151563	0.339354	-0.164943
H186	H	0.651563	0.839354	0.335057
