data_functionalizedCrystal
_audit_creation_method	'MofGen! by Chris Wilmer'
_symmetry_space_group_name_H-M	'P1'
_symmetry_Int_Tables_number	1
_symmetry_cell_setting	triclinic
loop_
_symmetry_equiv_pos_as_xyz
  x,y,z
_cell_length_a	12.759401
_cell_length_b	17.637651
_cell_length_c	12.759393
_cell_angle_alpha	101.250165
_cell_angle_beta	90.018496
_cell_angle_gamma	101.219542
loop_
_atom_site_label
_atom_site_type_symbol
_atom_site_fract_x
_atom_site_fract_y
_atom_site_fract_z
Zn1	Zn	1.521690	-0.314720	0.509310
Zn2	Zn	1.486052	-0.446958	0.298053
Zn3	Zn	1.345981	-0.314761	0.333638
Zn4	Zn	1.310465	-0.446897	0.473711
O5	O	1.416047	-0.380834	0.403678
O6	O	1.663982	-0.332270	0.481292
O7	O	1.467420	-0.429465	0.155741
O8	O	1.399068	-0.204114	0.386732
O9	O	1.637798	-0.429425	0.326083
O10	O	1.528160	-0.204083	0.515798
O11	O	1.364511	-0.332340	0.181885
O12	O	1.194251	-0.332281	0.352213
O13	O	1.338535	-0.429321	0.625466
O14	O	1.168157	-0.429361	0.455124
O15	O	1.493722	-0.332211	0.651620
O16	O	1.432982	-0.557592	0.291564
O17	O	1.303978	-0.557547	0.420619
C18	C	1.143084	-0.380820	0.403668
C19	C	1.026304	-0.380832	0.403683
C20	C	0.957860	-0.431463	0.457136
C21	C	0.848133	-0.431473	0.457145
C22	C	0.875304	-0.330220	0.350239
C23	C	0.985029	-0.330206	0.350238
C24	C	0.942172	-0.489923	0.518853
C25	C	0.832445	-0.489933	0.518862
C26	C	1.360787	-0.586258	0.348390
C27	C	1.337243	-0.674139	0.324772
C28	C	1.595593	-0.962796	0.583429
C29	C	1.573436	-1.045373	0.561218
C30	C	1.439101	-1.045512	0.426693
C31	C	1.461250	-0.962933	0.448889
C32	C	1.539496	-0.921581	0.527259
C33	C	1.405154	-0.921718	0.392718
C34	C	1.427298	-0.839146	0.414916
C35	C	1.505538	-0.797788	0.493285
C36	C	1.561640	-0.839009	0.549457
C37	C	1.326903	-0.963072	0.314354
C38	C	1.270807	-0.921857	0.258183
C39	C	1.292955	-0.839283	0.280376
C40	C	1.371196	-0.797926	0.358744
C41	C	1.236853	-0.798063	0.224204
C42	C	1.258997	-0.715491	0.246402
C43	C	1.393339	-0.715354	0.380942
C44	C	1.690076	-0.380849	0.403689
C45	C	1.806851	-0.380856	0.403694
C46	C	1.416142	-0.380754	0.677733
C47	C	1.416183	-0.380720	0.794519
C48	C	1.471551	-0.174608	0.459206
C49	C	1.495204	-0.086727	0.482868
C50	C	1.416028	-0.380857	0.130705
C51	C	1.416251	-0.380668	0.013979
C52	C	1.496999	-0.330150	0.863003
C53	C	1.497031	-0.330122	0.972734
C54	C	1.335427	-0.431240	0.945487
C55	C	1.335391	-0.431264	0.835759
C56	C	1.590302	-0.271772	0.878734
C57	C	1.590335	-0.271744	0.988466
H58	H	1.457063	-0.681683	0.444752
O59	O	0.771178	-0.571020	0.467987
H60	H	0.723901	-0.567005	0.396941
H61	H	1.213316	-0.681934	0.200663
O62	O	1.186432	-0.966467	0.173645
H63	H	1.122862	-1.004097	0.210494
H64	H	0.960565	-0.548060	0.473927
H65	H	1.375391	-1.079192	0.362887
O66	O	1.303031	-1.052133	0.290402
H67	H	1.275941	-1.073879	0.363783
H68	H	1.269580	-0.472441	0.780003
O69	O	1.248295	-0.485754	0.989973
H70	H	1.169487	-0.472185	0.972565
H71	H	1.584987	-0.210541	0.865451
H72	H	1.619107	-1.078927	0.606980
H73	H	1.523566	-0.730553	0.511356
O74	O	1.152470	-0.842666	0.139670
H75	H	1.146503	-0.907008	0.133666
O76	O	0.987477	-0.468283	0.632501
H77	H	1.022620	-0.517304	0.650728
O78	O	1.679999	-0.918185	0.667946
H79	H	1.643041	-0.880554	0.731469
O80	O	1.646038	-0.794396	0.633981
H81	H	1.681328	-0.836926	0.669317
O82	O	1.684850	-0.300834	0.825815
H83	H	1.735007	-0.316219	0.886499
O84	O	1.572502	-0.194678	1.054316
H85	H	1.563026	-0.153840	1.000489
O86	O	0.795181	-0.460974	0.629105
H87	H	0.811657	-0.499809	0.683287
O88	O	1.058853	-0.275608	0.292572
H89	H	1.011712	-0.240419	0.255394
O90	O	0.830783	-0.275636	0.292564
H91	H	0.742982	-0.284159	0.301532
O92	O	1.692272	-0.293470	1.022083
H93	H	1.697378	-0.353105	0.977009
