data_functionalizedCrystal
_audit_creation_method	'MofGen! by Chris Wilmer'
_symmetry_space_group_name_H-M	'P1'
_symmetry_Int_Tables_number	1
_symmetry_cell_setting	triclinic
loop_
_symmetry_equiv_pos_as_xyz
  x,y,z
_cell_length_a	16.974800
_cell_length_b	10.489716
_cell_length_c	15.455313
_cell_angle_alpha	92.696181
_cell_angle_beta	90.973911
_cell_angle_gamma	83.958131
loop_
_atom_site_label
_atom_site_type_symbol
_atom_site_fract_x
_atom_site_fract_y
_atom_site_fract_z
O1	O	1.049988	0.162600	0.001611
O2	O	0.820665	0.182079	-0.014494
O3	O	0.940555	-0.013319	-0.006078
O4	O	0.930098	0.357999	-0.006806
O5	O	0.933699	-0.002192	0.137703
O6	O	0.813809	0.193207	0.129287
O7	O	1.043132	0.173728	0.145391
Cu8	Cu	0.927844	0.184483	0.150467
Cu9	Cu	0.935952	0.171324	-0.019570
O10	O	0.923242	0.369126	0.136975
C11	C	0.787872	0.186698	0.055334
C12	C	0.700375	0.183868	0.049189
C13	C	0.655536	0.188601	0.124679
C14	C	0.573324	0.185921	0.118908
C15	C	0.535952	0.178518	0.037645
C16	C	0.580797	0.173781	-0.037850
C17	C	0.663008	0.176451	-0.032078
C18	C	0.290479	0.169872	0.011977
C19	C	0.208262	0.167205	0.006211
C20	C	0.200794	0.179344	0.162969
C21	C	0.283006	0.182022	0.168734
C22	C	0.327845	0.177277	0.093239
N23	N	0.451918	0.175783	0.031744
N24	N	0.411878	0.180004	0.099141
C25	C	0.936341	-0.055279	0.065755
C26	C	0.933991	-0.196884	0.065582
C27	C	1.007511	-0.295387	0.070753
C28	C	0.972041	-0.377795	-0.002865
C29	C	0.965265	-0.366788	0.138891
C30	C	0.898555	-0.277432	-0.008092
C31	C	0.891786	-0.266415	0.133728
C32	C	0.856264	-0.348776	0.060089
C33	C	1.075925	0.169108	0.075561
C34	C	1.163423	0.171938	0.081701
C35	C	0.927456	0.411086	0.065141
C36	C	0.929806	0.552691	0.065308
N37	N	0.922147	0.193738	0.270063
N38	N	0.941656	0.162058	-0.139165
C39	C	0.973099	0.110757	0.319034
C40	C	0.968798	0.117768	0.409540
C41	C	0.913548	0.207768	0.451073
C42	C	0.862591	0.290753	0.402096
C43	C	0.866889	0.283735	0.311591
C44	C	0.894997	0.238026	0.721353
C45	C	0.890704	0.245040	0.811864
C46	C	0.996910	0.072053	0.819302
C47	C	1.001206	0.065048	0.728795
C48	C	0.950247	0.148028	0.679825
N49	N	0.909152	0.214939	0.543585
N50	N	0.954639	0.140850	0.587315
H51	H	0.313429	0.188044	0.234907
H52	H	0.870397	-0.238422	-0.070268
H53	H	1.018092	0.037475	0.285224
Br54	Br	0.787602	0.412889	0.458459
Br55	Br	0.749600	-0.388302	0.052541
Br56	Br	1.066065	-0.040561	0.885764
H57	H	0.825398	0.351306	0.271719
H58	H	0.857920	-0.217909	0.191485
H59	H	0.699515	0.172600	-0.093550
H60	H	1.071464	-0.271437	0.075172
Br61	Br	0.530084	0.163677	-0.148136
H62	H	0.164278	0.183204	0.224433
Br63	Br	0.157542	0.157166	-0.104081
Br64	Br	0.825841	0.350641	0.654898
Br65	Br	0.351321	0.163432	-0.090481
H66	H	1.005935	-0.426279	-0.060618
H67	H	0.993459	-0.405973	0.201001
H68	H	1.046195	-0.008237	0.694981
Br69	Br	0.706245	0.198662	0.234969
H70	H	0.536821	0.189754	0.180380
H71	H	1.010286	0.050197	0.449412
H72	H	0.845711	0.318334	0.845676
