data_functionalizedCrystal
_audit_creation_method	'MofGen! by Chris Wilmer'
_symmetry_space_group_name_H-M	'P1'
_symmetry_Int_Tables_number	1
_symmetry_cell_setting	triclinic
loop_
_symmetry_equiv_pos_as_xyz
  x,y,z
_cell_length_a	16.120490
_cell_length_b	16.120444
_cell_length_c	13.897441
_cell_angle_alpha	87.133622
_cell_angle_beta	92.917671
_cell_angle_gamma	90.165174
loop_
_atom_site_label
_atom_site_type_symbol
_atom_site_fract_x
_atom_site_fract_y
_atom_site_fract_z
Zn1	Zn	1.254490	-0.395644	0.642071
Zn2	Zn	1.587823	-0.062311	0.975405
Zn3	Zn	1.921157	0.271022	1.308738
Zn4	Zn	1.247325	-0.534712	0.488503
Zn5	Zn	1.580659	-0.201379	0.821836
Zn6	Zn	1.913992	0.131955	1.155169
Zn7	Zn	1.115424	-0.388612	0.472229
Zn8	Zn	1.448757	-0.055279	0.805563
Zn9	Zn	1.782090	0.278054	1.138896
Zn10	Zn	1.108340	-0.527590	0.641194
Zn11	Zn	1.441673	-0.194256	0.974528
Zn12	Zn	1.775006	0.139077	1.307861
O13	O	1.181395	-0.461640	0.560999
O14	O	1.514728	-0.128306	0.894333
O15	O	1.848061	0.205027	1.227666
O16	O	1.369905	-0.420015	0.628878
O17	O	1.703239	-0.086682	0.962211
O18	O	2.036572	0.246651	1.295544
O19	O	1.229795	-0.515369	0.351362
O20	O	1.563128	-0.182036	0.684696
O21	O	1.896461	0.151297	1.018029
O22	O	1.139834	-0.273182	0.488316
O23	O	1.473168	0.060151	0.821649
O24	O	1.806501	0.393484	1.154982
O25	O	1.364642	-0.522188	0.516051
O26	O	1.697975	-0.188855	0.849385
O27	O	2.031308	0.144479	1.182718
O28	O	1.242006	-0.278349	0.613098
O29	O	1.575339	0.054985	0.946431
O30	O	1.908672	0.388318	1.279765
O31	O	1.132887	-0.408031	0.339406
O32	O	1.466220	-0.074697	0.672740
O33	O	1.799554	0.258636	1.006073
O34	O	0.998118	-0.401124	0.487465
O35	O	1.331451	-0.067791	0.820799
O36	O	1.664785	0.265542	1.154132
O37	O	1.127760	-0.510049	0.776292
O38	O	1.461094	-0.176716	1.109625
O39	O	1.794427	0.156618	1.442959
O40	O	0.992913	-0.503231	0.611603
O41	O	1.326247	-0.169897	0.944936
O42	O	1.659580	0.163436	1.278270
O43	O	1.235136	-0.413109	0.776936
O44	O	1.568470	-0.079776	1.110270
O45	O	1.901803	0.253557	1.443603
O46	O	1.222925	-0.650130	0.515201
O47	O	1.556259	-0.316797	0.848534
O48	O	1.889592	0.016537	1.181867
O49	O	1.120813	-0.644897	0.627383
O50	O	1.454146	-0.311564	0.960716
O51	O	1.787480	0.021769	1.294049
C52	C	0.965343	-0.450642	0.547674
C53	C	1.298677	-0.117309	0.881007
C54	C	1.632010	0.216024	1.214340
C55	C	0.872915	-0.445958	0.541997
C56	C	1.206248	-0.112624	0.875330
C57	C	1.539581	0.220709	1.208664
C58	C	0.659946	-0.485933	0.590447
C59	C	0.993279	-0.152600	0.923780
C60	C	1.326613	0.180733	1.257113
C61	C	0.703691	-0.437412	0.531632
C62	C	1.037024	-0.104079	0.864965
C63	C	1.370358	0.229255	1.198299
C64	C	0.797856	-0.442168	0.537401
C65	C	1.131189	-0.108835	0.870734
C66	C	1.464523	0.224498	1.204067
C67	C	0.565773	-0.481178	0.584679
C68	C	0.899106	-0.147845	0.918012
C69	C	1.232439	0.185488	1.251346
C70	C	1.170346	-0.677686	0.572985
C71	C	1.503679	-0.344353	0.906318
C72	C	1.837012	-0.011020	1.239652
C73	C	1.165695	-0.770116	0.578149
C74	C	1.499028	-0.436783	0.911483
C75	C	1.832362	-0.103449	1.244816
C76	C	1.205724	-0.983094	0.534429
C77	C	1.539057	-0.649761	0.867762
C78	C	1.872391	-0.316427	1.201095
C79	C	1.157219	-0.939342	0.587589
C80	C	1.490553	-0.606008	0.920923
C81	C	1.823886	-0.272675	1.254256
C82	C	1.161937	-0.845176	0.582335
C83	C	1.495270	-0.511843	0.915669
C84	C	1.828603	-0.178509	1.249002
C85	C	1.201008	-1.077268	0.539682
C86	C	1.534341	-0.743935	0.873015
C87	C	1.867674	-0.410602	1.206348
C88	C	1.398289	-0.472680	0.574378
C89	C	1.731623	-0.139347	0.907711
C90	C	2.064956	0.193986	1.241044
C91	C	1.490717	-0.477385	0.580078
C92	C	1.824050	-0.144052	0.913412
C93	C	2.157384	0.189281	1.246745
C94	C	1.181457	-0.461569	0.812592
C95	C	1.514791	-0.128236	1.145925
C96	C	1.848124	0.205098	1.479259
C97	C	1.181484	-0.461539	0.919806
C98	C	1.514817	-0.128206	1.253139
C99	C	1.848151	0.205128	1.586472
C100	C	1.192509	-0.244750	0.548989
C101	C	1.525843	0.088583	0.882323
C102	C	1.859176	0.421916	1.215656
C103	C	1.197246	-0.152325	0.543872
C104	C	1.530579	0.181008	0.877205
C105	C	1.863912	0.514342	1.210538
C106	C	1.181383	-0.461652	0.310385
C107	C	1.514716	-0.128319	0.643718
C108	C	1.848050	0.205014	0.977052
C109	C	1.181529	-0.461456	0.203169
C110	C	1.514863	-0.128123	0.536502
C111	C	1.848196	0.205210	0.869835
C112	C	1.181510	-0.461484	1.116099
C113	C	1.514843	-0.128151	1.449433
C114	C	1.848176	0.205183	1.782766
C115	C	1.181493	-0.461517	1.006868
C116	C	1.514826	-0.128183	1.340201
C117	C	1.848159	0.205150	1.673534
H118	H	0.693212	-0.531043	0.645127
H119	H	1.026546	-0.197709	0.978461
H120	H	1.359879	0.135624	1.311794
H121	H	1.112150	-0.972605	0.637047
H122	H	1.445484	-0.639272	0.970381
H123	H	1.778817	-0.305939	1.303714
H124	H	1.250789	-0.949834	0.484973
H125	H	1.584123	-0.616501	0.818306
H126	H	1.917456	-0.283168	1.151640
H127	H	0.670423	-0.392300	0.476946
H128	H	1.003756	-0.058966	0.810279
H129	H	1.337089	0.274367	1.143613
