data_functionalizedCrystal
_audit_creation_method	'MofGen! by Chris Wilmer'
_symmetry_space_group_name_H-M	'P1'
_symmetry_Int_Tables_number	1
_symmetry_cell_setting	triclinic
loop_
_symmetry_equiv_pos_as_xyz
  x,y,z
_cell_length_a	11.026660
_cell_length_b	13.339070
_cell_length_c	10.065918
_cell_angle_alpha	96.977619
_cell_angle_beta	97.708604
_cell_angle_gamma	112.107065
loop_
_atom_site_label
_atom_site_type_symbol
_atom_site_fract_x
_atom_site_fract_y
_atom_site_fract_z
O1	O	1.783795	0.468424	0.113493
O2	O	1.413190	0.417039	0.113494
O3	O	1.555959	0.287722	0.113490
O4	O	1.641027	0.597741	0.113497
O5	O	1.512542	0.253410	-0.113499
O6	O	1.369774	0.382727	-0.113495
O7	O	1.740379	0.434112	-0.113496
Zn8	Zn	1.548183	0.402972	-0.149535
Zn9	Zn	1.605386	0.448179	0.149533
O10	O	1.597610	0.563429	-0.113492
C11	C	1.343080	0.390403	-0.000000
C12	C	1.198852	0.362144	0.000001
C13	C	1.002255	0.410977	0.000006
C14	C	1.151322	0.440187	0.000004
C15	C	1.519881	0.230260	-0.000003
C16	C	1.477050	0.110160	0.000003
C17	C	1.810089	-0.193987	0.000001
C18	C	1.850333	-0.081148	-0.000012
C19	C	1.757016	-0.033315	-0.000008
C20	C	1.623447	-0.098334	0.000008
C21	C	1.583197	-0.211186	0.000010
C22	C	1.530124	-0.050514	0.000002
C23	C	1.396555	-0.115532	0.000018
C24	C	1.356312	-0.228373	0.000021
C25	C	1.449629	-0.276206	0.000017
C26	C	1.570374	0.062339	-0.000001
C27	C	1.343482	0.045140	0.000009
C28	C	1.303238	-0.067700	0.000022
C29	C	1.810490	0.460748	0.000001
C30	C	1.954720	0.489008	0.000009
C31	C	1.633688	0.620891	0.000004
C32	C	1.676521	0.740993	0.000007
N33	N	1.509152	0.372119	-0.353641
C34	C	1.591798	0.437444	-0.421419
C35	C	1.561766	0.413691	-0.578586
N36	N	1.644424	0.479025	0.353639
H37	H	0.932588	0.322544	-0.000016
H38	H	1.024380	0.577437	0.000003
H39	H	1.247550	-0.281311	0.000024
O40	O	1.755274	0.566717	-0.576586
C41	C	1.886339	0.670286	-0.356319
C42	C	1.760746	0.570953	-0.435168
H43	H	1.890819	0.673730	-0.241969
H44	H	1.882292	0.749431	-0.384239
H45	H	1.978946	0.661189	-0.384393
H46	H	1.668075	0.579943	-0.407137
H47	H	1.764910	0.491846	-0.407242
H48	H	1.468774	0.340173	-0.636909
O49	O	1.173564	-0.130951	0.000212
C50	C	1.018948	-0.250510	0.117862
C51	C	1.165857	-0.178937	0.117801
H52	H	1.012667	-0.289307	0.212937
H53	H	0.976233	-0.318200	0.022935
H54	H	0.959171	-0.196938	0.117797
H55	H	1.225742	-0.232418	0.117914
H56	H	1.208467	-0.111240	0.212720
H57	H	1.267494	0.084083	0.000006
O58	O	1.398242	0.284493	-0.423422
C59	C	1.267097	0.181000	-0.643690
C60	C	1.392735	0.280291	-0.564840
H61	H	1.262618	0.177557	-0.758040
H62	H	1.174433	0.189986	-0.615612
H63	H	1.271276	0.101895	-0.615776
H64	H	1.388686	0.359443	-0.592711
H65	H	1.485346	0.271208	-0.592924
H66	H	1.129212	0.273722	0.000089
O67	O	1.980010	-0.017980	-0.000261
C68	C	2.134620	0.101684	-0.117821
C69	C	1.987703	0.030160	-0.117730
H70	H	2.140885	0.140643	-0.212769
H71	H	2.194460	0.048161	-0.117906
H72	H	2.177277	0.169266	-0.022785
H73	H	1.944926	-0.037430	-0.212749
H74	H	1.927957	0.083757	-0.117573
O75	O	1.700176	0.125483	0.000237
C76	C	1.928913	0.192422	0.117791
C77	C	1.781954	0.120894	0.117702
H78	H	1.995075	0.188718	0.212737
H79	H	1.941753	0.281325	0.117878
H80	H	1.958714	0.160113	0.022753
H81	H	1.752055	0.153105	0.212724
H82	H	1.769194	0.032002	0.117544
O83	O	1.795999	0.076255	-0.000261
C84	C	1.768959	0.215699	-0.117821
C85	C	1.724699	0.091572	-0.117723
H86	H	1.711314	0.228123	-0.212764
H87	H	1.880433	0.253994	-0.117922
H88	H	1.747833	0.256878	-0.022780
H89	H	1.745736	0.050299	-0.212749
H90	H	1.613237	0.053359	-0.117551
H91	H	1.220979	0.528621	-0.000003
H92	H	1.886051	-0.232945	-0.000014
H93	H	1.416869	-0.368088	0.000033
H94	H	1.684790	0.510951	-0.363091
