data_functionalizedCrystal
_audit_creation_method	'MofGen! by Chris Wilmer'
_symmetry_space_group_name_H-M	'P1'
_symmetry_Int_Tables_number	1
_symmetry_cell_setting	triclinic
loop_
_symmetry_equiv_pos_as_xyz
  x,y,z
_cell_length_a	19.851628
_cell_length_b	14.628931
_cell_length_c	14.628931
_cell_angle_alpha	60.000028
_cell_angle_beta	90.000178
_cell_angle_gamma	60.003920
loop_
_atom_site_label
_atom_site_type_symbol
_atom_site_fract_x
_atom_site_fract_y
_atom_site_fract_z
Zr1	Zr	0.648899	1.000684	-0.120012
O2	O	0.541345	1.191372	-0.265964
O3	O	0.681871	0.809983	-0.075269
O4	O	0.681871	1.000688	-0.265975
O5	O	0.541345	1.000667	0.075173
O6	O	0.792720	1.000706	-0.265983
O7	O	0.541345	1.000667	-0.075259
O8	O	0.792720	0.659569	0.075155
O9	O	0.541345	1.341804	-0.265965
O10	O	0.778658	0.888439	-0.056193
O11	O	0.695932	0.888426	0.056078
O12	O	0.695932	1.112957	-0.168453
O13	O	0.613207	1.112944	-0.056181
Zr14	Zr	0.825690	1.000712	0.119896
Zr15	Zr	0.825690	1.000712	-0.120025
Zr16	Zr	0.648899	1.000684	0.119910
Zr17	Zr	0.648899	1.240606	-0.120012
Zr18	Zr	0.825691	0.760790	0.119897
O19	O	0.792719	1.191413	0.075154
O20	O	0.792719	1.191412	-0.265983
O21	O	0.541345	1.191373	0.075173
O22	O	0.933245	0.810024	0.265849
O23	O	0.933245	0.810023	-0.075288
O24	O	0.681870	0.809984	0.265868
O25	O	0.933245	1.000729	-0.075288
O26	O	0.792719	1.000708	0.265859
O27	O	0.681870	1.000690	0.265868
O28	O	0.933244	1.000729	0.075143
O29	O	0.681870	1.341827	-0.265975
O30	O	0.792719	0.659569	0.265860
O31	O	0.933245	0.659592	0.265849
O32	O	0.933245	0.659591	0.075144
O33	O	0.541345	1.341805	-0.075259
O34	O	0.681870	1.341827	-0.075270
O35	O	0.778657	0.888439	0.168338
O36	O	0.861383	0.888452	0.056066
O37	O	0.778657	1.112970	-0.056194
O38	O	0.695932	1.112957	0.056078
C39	C	0.737295	0.700592	-0.000057
C40	C	0.737295	0.598739	-0.000057
C41	C	0.679260	0.632080	-0.078812
C42	C	0.679259	0.526811	-0.078814
C43	C	0.516156	1.000663	-0.000041
C44	C	0.441104	1.000651	-0.000035
C45	C	0.304843	0.878263	0.061159
C46	C	0.237394	0.939455	0.105529
C47	C	0.303672	1.000684	-0.000050
C48	C	0.237386	0.939484	-0.044381
C49	C	0.170923	1.000708	-0.000063
C50	C	0.237212	1.061878	0.044382
C51	C	0.237215	1.061888	-0.105587
C52	C	0.169753	1.123170	-0.061244
C53	C	0.380147	1.000667	-0.000039
C54	C	0.094447	1.000734	-0.000071
C55	C	0.958433	1.000733	-0.000074
C56	C	1.033486	1.000745	-0.000080
C57	C	0.737295	1.000697	-0.300163
C58	C	0.737295	1.000697	-0.402015
C59	C	0.737294	1.300804	-0.000058
C60	C	0.737294	1.402657	-0.000059
C61	C	0.778332	0.889323	-0.497003
C62	C	0.778333	0.889321	-0.391731
C63	C	0.737295	1.000699	0.300047
C64	C	0.737294	1.000699	0.401900
C65	C	0.958434	0.700627	-0.000074
C66	C	1.033486	0.598786	-0.000079
C67	C	0.737295	0.700593	0.300048
C68	C	0.737295	0.598740	0.401901
C69	C	0.958434	0.700628	0.300031
C70	C	1.033486	0.598787	0.401878
C71	C	0.516156	1.300768	-0.300146
C72	C	0.441104	1.402609	-0.401994
C73	C	0.516156	1.300769	-0.000042
C74	C	0.441103	1.402610	-0.000036
C75	C	0.737295	1.300803	-0.300163
C76	C	0.737295	1.402656	-0.402016
C77	C	1.025550	0.550953	-0.058690
C78	C	1.096063	0.455276	-0.058718
C79	C	1.174512	0.407427	-0.000127
C80	C	1.182446	0.455269	0.058485
C81	C	1.111934	0.550951	0.058506
C82	C	1.111921	0.550969	0.391102
C83	C	1.182447	0.455292	0.486790
C84	C	1.174537	0.407429	0.593252
C85	C	1.096094	0.455257	0.604026
C86	C	1.025570	0.550939	0.508340
C87	C	0.362669	1.450439	-0.391218
C88	C	0.292143	1.546146	-0.486905
C89	C	0.300052	1.594014	-0.593367
C90	C	0.378495	1.546179	-0.604141
C91	C	0.449020	1.450481	-0.508455
C92	C	0.449039	1.450453	0.058565
C93	C	0.378526	1.546156	0.058566
C94	C	0.300078	1.594009	-0.000028
C95	C	0.292143	1.546162	-0.058636
C96	C	0.362656	1.450467	-0.058643
C97	C	0.778332	0.553338	0.502998
C98	C	0.778333	0.448067	0.608270
H99	H	0.786980	0.374278	0.067374
H100	H	0.237917	1.113584	-0.194815
C101	C	0.825797	0.606098	0.514651
H102	H	0.819575	0.669924	0.442368
H103	H	0.804487	0.643472	0.554388
H104	H	0.882623	0.537441	0.554377
C105	C	1.268742	0.402615	0.122940
H106	H	1.309593	0.338769	0.114538
H107	H	1.274945	0.471300	0.094017
H108	H	1.274931	0.365260	0.200045
H109	H	0.702155	1.096055	-0.488740
H110	H	0.702159	0.559681	0.393283
C111	C	0.689833	1.129519	-0.609759
H112	H	0.664092	1.199396	-0.686838
H113	H	0.648996	1.134322	-0.574820
H114	H	0.727140	1.134324	-0.574830
H115	H	1.246312	0.416359	0.477997
C116	C	0.689810	0.455411	0.480835
H117	H	0.664063	0.413267	0.488040
H118	H	0.648975	0.545759	0.441117
H119	H	0.727099	0.439741	0.441075
C120	C	0.387265	1.598775	0.123035
H121	H	0.334039	1.662636	0.114640
H122	H	0.416563	1.530075	0.200130
H123	H	0.416575	1.636101	0.094086
H124	H	0.961680	0.589911	-0.106415
C125	C	0.238019	1.131715	0.095172
H126	H	0.286049	1.131240	0.094903
H127	H	0.190348	1.218445	0.052024
H128	H	0.238178	1.088519	0.169939
C129	C	0.612136	0.775917	-0.169898
H130	H	0.620939	0.827800	-0.157943
H131	H	0.614650	0.794354	-0.241463
H132	H	0.559401	0.794339	-0.166468
C133	C	0.612134	0.565147	-0.169902
H134	H	0.620942	0.489366	-0.157958
H135	H	0.559401	0.614855	-0.166484
H136	H	0.614658	0.614857	-0.241468
H137	H	1.089666	0.416273	0.690720
H138	H	0.356213	1.411470	-0.304539
H139	H	0.236726	0.887720	-0.081870
C140	C	0.382976	0.738435	0.131164
H141	H	0.414539	0.724233	0.084975
H142	H	0.414976	0.724833	0.190717
H143	H	0.367611	0.679974	0.160977
C144	C	0.222473	1.699274	-0.698615
H145	H	0.238412	1.720944	-0.763569
H146	H	0.190572	1.667896	-0.698607
H147	H	0.190578	1.773935	-0.698605
C148	C	0.804420	0.454904	0.091034
H149	H	0.840834	0.447637	0.140440
H150	H	0.779299	0.414164	0.131921
H151	H	0.834553	0.414177	0.056933
C152	C	1.252071	0.302169	-0.000145
H153	H	1.299932	0.280520	0.043138
H154	H	1.252063	0.227511	0.031224
H155	H	1.252068	0.333552	-0.074817
C156	C	0.236478	0.869564	0.226087
H157	H	0.283879	0.782583	0.269487
H158	H	0.236808	0.912204	0.257999
H159	H	0.188187	0.870761	0.225151
C160	C	0.091746	1.263113	-0.131159
H161	H	0.091265	1.306392	-0.099502
H162	H	0.091673	1.306910	-0.205804
H163	H	0.044169	1.262366	-0.131280
H164	H	1.231970	0.329518	0.671157
H165	H	0.512910	1.411498	0.106286
H166	H	1.118407	0.589884	0.106240
H167	H	0.961707	0.589860	0.517129
C168	C	1.120638	0.603605	0.274006
H169	H	1.177456	0.561421	0.281309
H170	H	1.094930	0.587912	0.234235
H171	H	1.094921	0.693958	0.234243
H172	H	1.089587	0.416335	-0.106447
C173	C	0.205850	1.598796	-0.123076
H174	H	0.211213	1.556608	-0.157988
H175	H	0.176554	1.583107	-0.072479
H176	H	0.176548	1.689149	-0.178532
H177	H	0.813469	0.793972	-0.488385
H178	H	0.813462	0.793968	-0.305003
H179	H	0.228278	1.585077	-0.478111
C180	C	0.387186	1.598833	-0.721252
H181	H	0.333946	1.662664	-0.776687
H182	H	0.416486	1.636175	-0.729671
H183	H	0.416474	1.530132	-0.729656
H184	H	0.512883	1.411538	-0.517242
C185	C	0.222522	1.699268	-0.000008
H186	H	0.238491	1.720893	0.043296
H187	H	0.190616	1.773939	-0.074663
H188	H	0.190620	1.667893	0.031384
C189	C	0.353916	1.397834	-0.123092
H190	H	0.297094	1.440035	-0.157973
H191	H	0.379626	1.413508	-0.178555
H192	H	0.379621	1.307484	-0.072498
C193	C	0.825795	0.395332	0.725427
H194	H	0.819564	0.331504	0.780811
H195	H	0.882617	0.357965	0.733878
H196	H	0.804471	0.463997	0.733877
