data_functionalizedCrystal
_audit_creation_method	'MofGen! by Chris Wilmer'
_symmetry_space_group_name_H-M	'P1'
_symmetry_Int_Tables_number	1
_symmetry_cell_setting	triclinic
loop_
_symmetry_equiv_pos_as_xyz
  x,y,z
_cell_length_a	16.992694
_cell_length_b	17.666332
_cell_length_c	16.992695
_cell_angle_alpha	89.993578
_cell_angle_beta	89.331777
_cell_angle_gamma	90.003580
loop_
_atom_site_label
_atom_site_type_symbol
_atom_site_fract_x
_atom_site_fract_y
_atom_site_fract_z
O1	O	1.050856	0.062854	-0.166918
O2	O	0.822456	0.062876	-0.165087
O3	O	0.935740	0.062859	-0.051803
O4	O	0.937572	0.062871	-0.280203
O5	O	0.935719	-0.063037	-0.051795
O6	O	0.822434	-0.063020	-0.165079
O7	O	1.050834	-0.063043	-0.166911
Cu8	Cu	0.936632	-0.074527	-0.165994
Cu9	Cu	0.936658	0.074361	-0.166003
O10	O	0.937550	-0.063026	-0.280195
C11	C	0.793085	-0.000069	-0.162727
C12	C	0.705600	-0.000061	-0.155699
N13	N	0.936620	-0.179246	-0.165988
C14	C	0.659610	-0.000058	-0.223517
C15	C	0.577409	-0.000069	-0.216908
C16	C	0.541201	-0.000077	-0.142480
C17	C	0.587198	-0.000082	-0.074657
C18	C	0.669397	-0.000077	-0.081267
C19	C	0.295886	-0.000099	-0.115086
C20	C	0.213681	-0.000102	-0.108481
C21	C	0.203898	-0.000090	-0.250732
C22	C	0.286099	-0.000080	-0.257335
C23	C	0.332089	-0.000089	-0.189512
N24	N	0.457178	-0.000086	-0.135723
N25	N	0.416110	-0.000086	-0.196270
C26	C	0.986802	-0.218864	-0.115853
C27	C	0.986806	-0.298111	-0.115849
C28	C	0.936637	-0.337738	-0.165995
C29	C	0.886446	-0.298112	-0.216133
C30	C	0.886438	-0.218865	-0.216130
N31	N	0.930982	-0.462153	-0.235021
N32	N	0.930994	-0.537433	-0.235022
C33	C	0.936659	-0.576502	-0.166007
N34	N	0.942325	-0.537447	-0.096989
N35	N	0.942317	-0.462160	-0.096989
C36	C	0.936641	-0.423668	-0.166004
C37	C	0.986847	-0.702049	-0.115864
C38	C	0.986846	-0.781298	-0.115859
C39	C	0.886491	-0.781297	-0.216150
C40	C	0.886488	-0.702049	-0.216148
C41	C	0.936670	-0.662430	-0.166006
C42	C	1.080205	-0.000095	-0.169270
C43	C	1.167690	-0.000099	-0.176299
C44	C	0.933374	-0.000089	-0.022439
C45	C	0.926345	-0.000088	0.065046
N46	N	0.936676	0.179080	-0.166004
C47	C	0.939917	-0.000076	-0.309559
C48	C	0.946945	-0.000072	-0.397044
C49	C	0.994163	-0.000095	0.111037
C50	C	0.987554	-0.000087	0.193238
C51	C	0.913127	-0.000078	0.229446
C52	C	0.845303	-0.000068	0.183449
C53	C	0.851913	-0.000070	0.101250
C54	C	0.885732	-0.000064	0.474760
C55	C	0.879127	-0.000064	0.556966
C56	C	1.021379	-0.000082	0.566749
C57	C	1.027982	-0.000089	0.484547
C58	C	0.960159	-0.000076	0.438558
N59	N	0.906369	-0.000072	0.313468
N60	N	0.966917	-0.000076	0.354537
H61	H	0.689084	-0.000051	-0.284124
H62	H	1.054770	-0.000108	0.081563
Cl63	Cl	0.541678	-0.000097	0.018910
H64	H	0.333322	-0.000107	-0.059859
H65	H	0.845629	-0.669791	-0.256976
Cl66	Cl	0.785554	-0.000056	0.602483
H67	H	0.706842	-0.000079	-0.026042
H68	H	1.027661	-0.186608	-0.075022
H69	H	0.315574	-0.000064	-0.317942
H70	H	1.042779	-0.000095	0.230680
H71	H	0.845639	-0.813561	-0.256976
Cl72	Cl	0.823348	-0.169057	-0.279163
Cl73	Cl	0.751737	-0.000046	0.228968
Cl74	Cl	0.519595	-0.000060	-0.302169
H75	H	0.796688	-0.000064	0.063804
H76	H	0.830505	-0.000054	0.437325
Cl77	Cl	0.146078	-0.000081	-0.335990
Cl78	Cl	1.049898	-0.347924	-0.052817
Cl79	Cl	0.823373	-0.347927	-0.279170
Cl80	Cl	1.049929	-0.652241	-0.052824
H81	H	0.184203	-0.000108	-0.047870
Cl82	Cl	1.121552	-0.000077	0.439035
Cl83	Cl	1.049932	-0.831106	-0.052822
H84	H	1.076596	-0.000092	0.604202
