data_functionalizedCrystal
_audit_creation_method	'MofGen! by Chris Wilmer'
_symmetry_space_group_name_H-M	'P1'
_symmetry_Int_Tables_number	1
_symmetry_cell_setting	triclinic
loop_
_symmetry_equiv_pos_as_xyz
  x,y,z
_cell_length_a	19.121368
_cell_length_b	10.686220
_cell_length_c	10.685880
_cell_angle_alpha	89.641569
_cell_angle_beta	87.904476
_cell_angle_gamma	83.001813
loop_
_atom_site_label
_atom_site_type_symbol
_atom_site_fract_x
_atom_site_fract_y
_atom_site_fract_z
Zn1	Zn	0.219353	1.954357	-0.546982
Zn2	Zn	0.719353	2.454357	-0.046982
Zn3	Zn	0.328623	1.929223	-0.329563
Zn4	Zn	0.828623	2.429223	0.170437
Zn5	Zn	0.220785	1.728370	-0.353204
Zn6	Zn	0.720785	2.228370	0.146796
Zn7	Zn	0.346484	1.734183	-0.554082
Zn8	Zn	0.846484	2.234183	-0.054082
O9	O	0.278811	1.836533	-0.445958
O10	O	0.778811	2.336533	0.054042
O11	O	0.225774	2.127224	-0.505276
O12	O	0.725774	2.627224	-0.005276
O13	O	0.307443	1.889628	-0.157641
O14	O	0.807443	2.389628	0.342359
O15	O	0.122260	1.766433	-0.385832
O16	O	0.622260	2.266433	0.114168
O17	O	0.306054	2.108759	-0.345539
O18	O	0.806054	2.608759	0.154461
O19	O	0.121207	1.932465	-0.528200
O20	O	0.621207	2.432465	-0.028200
O21	O	0.228214	1.742062	-0.175010
O22	O	0.728214	2.242062	0.324990
O23	O	0.245534	1.552939	-0.392716
O24	O	0.745534	2.052939	0.107284
O25	O	0.336495	1.776341	-0.728199
O26	O	0.836495	2.276341	-0.228199
O27	O	0.337884	1.557211	-0.540300
O28	O	0.837884	2.057211	-0.040300
O29	O	0.243093	1.938102	-0.722983
O30	O	0.743093	2.438102	-0.222983
O31	O	0.429328	1.895265	-0.352423
O32	O	0.929328	2.395265	0.147577
O33	O	0.442450	1.751970	-0.517376
O34	O	0.942450	2.251970	-0.017376
C35	C	0.293803	1.509388	-0.469845
C36	C	0.793803	2.009388	0.030155
C37	C	0.300235	1.369434	-0.480092
C38	C	0.800235	1.869434	0.019908
C39	C	0.095523	1.851604	-0.458861
C40	C	0.595523	2.351604	0.041139
C41	C	0.017417	1.858026	-0.464360
C42	C	0.517417	2.358026	0.035640
C43	C	-0.018731	1.774604	-0.392822
C44	C	0.481269	2.274604	0.107178
C45	C	-0.092120	1.780637	-0.398002
C46	C	0.407880	2.280637	0.101998
C47	C	-0.129360	1.870099	-0.474713
C48	C	0.370640	2.370099	0.025287
C49	C	-0.093206	1.953524	-0.546259
C50	C	0.406794	2.453524	-0.046259
C51	C	-0.019818	1.947484	-0.541085
C52	C	0.480182	2.447484	-0.041085
C53	C	-0.350970	1.892655	-0.494047
C54	C	0.149030	2.392655	0.005953
C55	C	-0.424364	1.898691	-0.499212
C56	C	0.075636	2.398691	0.000788
C57	C	-0.423272	1.725802	-0.350957
C58	C	0.076728	2.225802	0.149043
C59	C	-0.349883	1.719775	-0.345784
C60	C	0.150117	2.219775	0.154216
C61	C	-0.313736	1.803196	-0.417335
C62	C	0.186264	2.303196	0.082665
C63	C	-0.204375	1.876270	-0.480006
C64	C	0.295625	2.376270	0.019994
C65	C	-0.238721	1.797017	-0.412048
C66	C	0.261279	2.297017	0.087952
C67	C	0.461386	1.821558	-0.433129
C68	C	0.961386	2.321558	0.066871
C69	C	0.539488	1.815269	-0.427675
C70	C	1.039488	2.315269	0.072325
C71	C	0.291627	1.860674	-0.772251
C72	C	0.791627	2.360674	-0.272251
C73	C	0.297088	1.870961	-0.911297
C74	C	0.797088	2.370961	-0.411297
C75	C	0.263762	2.164956	-0.421979
C76	C	0.763762	2.664956	0.078021
C77	C	0.257348	2.304910	-0.411760
C78	C	0.757348	2.804910	0.088240
C79	C	0.265992	1.812563	-0.120933
C80	C	0.765992	2.312563	0.379067
C81	C	0.260321	1.802536	0.018117
C82	C	0.760321	2.302536	0.518117
H83	H	0.215712	1.356737	-0.345417
H84	H	0.715712	1.856737	0.154583
F85	F	0.343700	1.957826	-0.971350
F86	F	0.843700	2.457826	-0.471350
H87	H	-0.319568	1.646928	-0.283316
H88	H	0.180432	2.146928	0.216684
H89	H	0.011584	1.701759	-0.330351
H90	H	0.511584	2.201759	0.169649
H91	H	0.341878	1.317601	-0.546431
H92	H	0.841878	1.817601	-0.046431
F93	F	-0.130587	1.691836	-0.321876
F94	F	0.369413	2.191836	0.178124
F95	F	-0.461747	1.637022	-0.274816
F96	F	0.038253	2.137022	0.225184
F97	F	-0.463996	1.993916	-0.580858
F98	F	0.036004	2.493916	-0.080858
F99	F	-0.312508	1.981431	-0.570209
F100	F	0.187492	2.481431	-0.070209
H101	H	-0.123531	2.026362	-0.608725
H102	H	0.376469	2.526362	-0.108725
H103	H	0.009613	2.015406	-0.599349
H104	H	0.509613	2.515406	-0.099349
F105	F	-0.199086	1.701803	-0.330417
F106	F	0.300914	2.201803	0.169583
H107	H	0.224668	1.736075	-0.935941
H108	H	0.724668	2.236075	-0.435941
H109	H	-0.234702	1.949114	-0.542463
H110	H	0.265298	2.449114	-0.042463
