data_functionalizedCrystal
_audit_creation_method	'MofGen! by Chris Wilmer'
_symmetry_space_group_name_H-M	'P1'
_symmetry_Int_Tables_number	1
_symmetry_cell_setting	triclinic
loop_
_symmetry_equiv_pos_as_xyz
  x,y,z
_cell_length_a	15.995350
_cell_length_b	17.666332
_cell_length_c	15.995343
_cell_angle_alpha	89.988805
_cell_angle_beta	96.509220
_cell_angle_gamma	90.005705
loop_
_atom_site_label
_atom_site_type_symbol
_atom_site_fract_x
_atom_site_fract_y
_atom_site_fract_z
O1	O	1.110988	0.062892	-0.107928
O2	O	1.610988	0.562892	0.392072
O3	O	0.867213	0.062909	-0.121256
O4	O	1.367213	0.562909	0.378744
O5	O	0.995768	0.062886	0.007296
O6	O	1.495768	0.562886	0.507296
O7	O	0.982433	0.062915	-0.236480
O8	O	1.482433	0.562915	0.263520
O9	O	0.995745	-0.063011	0.007303
O10	O	1.495745	0.436989	0.507303
O11	O	0.867190	-0.062988	-0.121249
O12	O	1.367190	0.437012	0.378751
O13	O	1.110966	-0.063004	-0.107922
O14	O	1.610966	0.436996	0.392078
Cu15	Cu	0.989076	-0.074492	-0.114585
Cu16	Cu	1.489076	0.425508	0.385415
Cu17	Cu	0.989102	0.074396	-0.114593
Cu18	Cu	1.489102	0.574396	0.385407
O19	O	0.982411	-0.062982	-0.236473
O20	O	1.482411	0.437018	0.263527
C21	C	0.836007	-0.000038	-0.120702
C22	C	1.336007	0.499962	0.379298
C23	C	0.743056	-0.000032	-0.119050
C24	C	1.243056	0.499968	0.380950
N25	N	0.989063	-0.179211	-0.114578
N26	N	1.489063	0.320789	0.385422
C27	C	0.405309	-0.000048	-0.113118
C28	C	0.905309	0.499952	0.386882
C29	C	0.452746	-0.000340	-0.021565
C30	C	0.952746	0.499660	0.478435
C31	C	0.549436	-0.000051	-0.023217
C32	C	1.049436	0.499949	0.476783
C33	C	0.572869	-0.000041	-0.116060
C34	C	1.072869	0.499959	0.383940
C35	C	0.531794	0.071855	-0.161221
C36	C	1.031794	0.571855	0.338779
C37	C	0.435158	0.071910	-0.158921
C38	C	0.935158	0.571910	0.341079
C39	C	0.434794	-0.071258	-0.160805
C40	C	0.934794	0.428742	0.339195
C41	C	0.531739	-0.072203	-0.160783
C42	C	1.031739	0.427797	0.339217
C43	C	0.667567	-0.000034	-0.117728
C44	C	1.167567	0.499966	0.382272
C45	C	0.310611	-0.000050	-0.111452
C46	C	0.810611	0.499950	0.388548
C47	C	1.046006	-0.218831	-0.057684
C48	C	1.546006	0.281169	0.442316
C49	C	1.046011	-0.298078	-0.057680
C50	C	1.546011	0.201922	0.442320
C51	C	0.989081	-0.337703	-0.114585
C52	C	1.489081	0.162297	0.385415
C53	C	0.932128	-0.298074	-0.171484
C54	C	1.432128	0.201926	0.328516
C55	C	0.932119	-0.218828	-0.171481
C56	C	1.432119	0.281172	0.328519
N57	N	0.978421	-0.462113	-0.188673
N58	N	1.478421	0.037887	0.311327
N59	N	0.978434	-0.537393	-0.188674
N60	N	1.478434	-0.037393	0.311326
C61	C	0.989103	-0.576467	-0.114597
C62	C	1.489103	-0.076467	0.385403
N63	N	0.999774	-0.537417	-0.040517
N64	N	1.499774	-0.037417	0.459483
N65	N	0.999765	-0.462130	-0.040517
N66	N	1.499765	0.037870	0.459483
C67	C	0.989084	-0.423632	-0.114594
C68	C	1.489084	0.076368	0.385406
C69	C	1.046054	-0.702016	-0.057693
C70	C	1.546054	-0.202016	0.442307
C71	C	1.046053	-0.781265	-0.057687
C72	C	1.546053	-0.281265	0.442313
C73	C	0.932174	-0.781259	-0.171499
C74	C	1.432174	-0.281259	0.328501
C75	C	0.932171	-0.702012	-0.171497
C76	C	1.432171	-0.202012	0.328503
C77	C	0.989115	-0.662395	-0.114595
C78	C	1.489115	-0.162395	0.385405
C79	C	1.142172	-0.000056	-0.108476
C80	C	1.642172	0.499944	0.391524
C81	C	1.235122	-0.000057	-0.110128
C82	C	1.735122	0.499943	0.389872
C83	C	0.995206	-0.000064	0.038494
C84	C	1.495206	0.499936	0.538494
C85	C	0.993557	-0.000070	0.131445
C86	C	1.493557	0.499930	0.631445
N87	N	0.989122	0.179115	-0.114592
N88	N	1.489122	0.679115	0.385408
C89	C	0.982972	-0.000030	-0.267672
C90	C	1.482972	0.499970	0.232328
C91	C	0.984621	-0.000019	-0.360622
C92	C	1.484621	0.499981	0.139378
C93	C	0.990563	-0.000053	0.301631
C94	C	1.490563	0.499947	0.801631
C95	C	0.897766	-0.000045	0.324977
C96	C	1.397766	0.499955	0.824977
C97	C	0.896021	0.000250	0.421655
C98	C	1.396021	0.500250	0.921655
C99	C	0.987615	-0.000036	0.469191
C100	C	1.487615	0.499964	0.969191
C101	C	1.034288	0.071709	0.440088
C102	C	1.534288	0.571709	0.940088
C103	C	1.035388	0.071761	0.343296
C104	C	1.535388	0.571761	0.843296
C105	C	1.036721	-0.071412	0.343408
C106	C	1.536721	0.428588	0.843408
C107	C	1.033295	-0.072347	0.439903
C108	C	1.533295	0.427653	0.939903
C109	C	0.985953	-0.000025	0.563889
C110	C	1.485953	0.499975	1.063889
C111	C	0.992228	-0.000059	0.206933
C112	C	1.492228	0.499941	0.706933
H113	H	0.577856	-0.051589	0.012281
H114	H	1.077856	0.448411	0.512281
H115	H	0.861788	-0.051488	0.296977
H116	H	1.361788	0.448512	0.796977
H117	H	1.103440	0.074814	0.328722
H118	H	1.603440	0.574814	0.828722
C119	C	0.426277	0.068910	0.027651
C120	C	0.926277	0.568910	0.527651
N121	N	0.406338	0.121069	0.064719
N122	N	0.906338	0.621069	0.564719
C123	C	0.552506	-0.078069	-0.252244
C124	C	1.052506	0.421931	0.247756
N125	N	0.568153	-0.082486	-0.321133
N126	N	1.068153	0.417514	0.178867
C127	C	1.108638	-0.175257	0.004919
C128	C	1.608638	0.324743	0.504919
N129	N	1.155811	-0.142436	0.052075
N130	N	1.655811	0.357564	0.552075
H131	H	0.885806	-0.669751	-0.217830
H132	H	1.385806	-0.169751	0.282170
C133	C	1.125356	0.075042	0.483114
C134	C	1.625356	0.575042	0.983114
N135	N	1.193948	0.077551	0.515524
N136	N	1.693948	0.577551	1.015524
C137	C	1.108663	-0.341669	0.004903
C138	C	1.608663	0.158331	0.504903
N139	N	1.155856	-0.374499	0.052038
N140	N	1.655856	0.125501	0.552038
H141	H	0.862393	0.051333	0.295985
H142	H	1.362393	0.551333	0.795985
H143	H	0.859478	-0.051165	0.440681
H144	H	1.359478	0.448835	0.940681
H145	H	0.859679	0.051989	0.440084
H146	H	1.359679	0.551989	0.940084
C147	C	0.427703	-0.069993	0.027879
C148	C	0.927703	0.430007	0.527879
N149	N	0.408834	-0.122457	0.065122
N150	N	0.908834	0.377543	0.565122
C151	C	0.987381	-0.144055	0.464988
C152	C	1.487381	0.355945	0.964988
N153	N	0.952797	-0.198065	0.483887
N154	N	1.452797	0.301935	0.983887
H155	H	0.414249	-0.125753	-0.130871
H156	H	0.914249	0.374247	0.369129
H157	H	1.003462	0.125601	0.316502
H158	H	1.503462	0.625601	0.816502
C159	C	1.128995	-0.072358	0.324472
C160	C	1.628995	0.427642	0.824472
N161	N	1.198493	-0.073065	0.310204
N162	N	1.698493	0.426935	0.810204
C163	C	0.869551	-0.824842	-0.234097
C164	C	1.369551	-0.324842	0.265903
N165	N	0.822381	-0.857672	-0.281247
N166	N	1.322381	-0.357672	0.218753
H167	H	1.002282	0.125312	0.460170
H168	H	1.502282	0.625312	0.960170
H169	H	0.403030	-0.071737	-0.228305
H170	H	0.903030	0.428263	0.271695
H171	H	0.559047	-0.125391	-0.127816
H172	H	1.059047	0.374609	0.372184
C173	C	1.123589	-0.078499	0.484415
C174	C	1.623589	0.421501	0.984415
N175	N	1.191601	-0.083129	0.517944
N176	N	1.691601	0.416871	1.017944
H177	H	1.007434	-0.125813	0.315146
H178	H	1.507434	0.374187	0.815146
H179	H	1.092420	-0.813524	-0.011352
H180	H	1.592420	-0.313524	0.488648
H181	H	0.577304	0.051569	0.012515
H182	H	1.077304	0.551569	0.512515
H183	H	0.885773	-0.330340	-0.217816
H184	H	1.385773	0.169660	0.282184
H185	H	0.885748	-0.186568	-0.217812
H186	H	1.385748	0.313432	0.282188
H187	H	0.416860	0.125646	-0.125993
H188	H	0.916860	0.625646	0.374007
H189	H	0.402908	0.075180	-0.226137
H190	H	0.902908	0.575180	0.273863
H191	H	0.545917	0.074536	-0.229430
H192	H	1.045917	0.574536	0.270570
H193	H	0.560179	0.125354	-0.129860
H194	H	1.060179	0.625354	0.370140
C195	C	1.108686	-0.658435	0.004908
C196	C	1.608686	-0.158435	0.504908
N197	N	1.155859	-0.625612	0.052061
N198	N	1.655859	-0.125612	0.552061
