data_functionalizedCrystal
_audit_creation_method	'MofGen! by Chris Wilmer'
_symmetry_space_group_name_H-M	'P1'
_symmetry_Int_Tables_number	1
_symmetry_cell_setting	triclinic
loop_
_symmetry_equiv_pos_as_xyz
  x,y,z
_cell_length_a	12.970454
_cell_length_b	17.052862
_cell_length_c	12.970454
_cell_angle_alpha	89.999968
_cell_angle_beta	59.999644
_cell_angle_gamma	50.259530
loop_
_atom_site_label
_atom_site_type_symbol
_atom_site_fract_x
_atom_site_fract_y
_atom_site_fract_z
Zr1	Zr	0.765897	0.914392	0.046006
O2	O	1.041093	0.762832	-0.148672
O3	O	0.532380	0.960853	0.105686
O4	O	0.747472	0.960852	-0.109406
O5	O	0.826000	0.762834	0.236088
O6	O	0.685527	1.117054	-0.078433
O7	O	0.826001	0.762833	0.066420
O8	O	0.300766	1.117055	0.306327
O9	O	1.210760	0.762832	-0.148673
O10	O	0.566763	1.097239	0.154253
O11	O	0.612991	0.980669	0.257759
O12	O	0.866234	0.980668	0.004516
O13	O	0.912463	0.864097	0.108022
Zr14	Zr	0.667099	1.163516	0.366004
Zr15	Zr	0.667100	1.163515	0.095404
Zr16	Zr	0.765895	0.914393	0.316606
Zr17	Zr	1.036496	0.914392	0.046005
Zr18	Zr	0.396499	1.163516	0.366006
O19	O	0.900615	1.117055	0.306324
O20	O	0.900618	1.117054	-0.078434
O21	O	1.041090	0.762834	0.236087
O22	O	0.391902	1.315076	0.560682
O23	O	0.391905	1.315074	0.175924
O24	O	0.532378	0.960855	0.490445
O25	O	0.606996	1.315074	0.175922
O26	O	0.685523	1.117056	0.521416
O27	O	0.747468	0.960855	0.490444
O28	O	0.606995	1.315075	0.345590
O29	O	1.132231	0.960852	-0.109408
O30	O	0.300765	1.117056	0.521418
O31	O	0.222235	1.315076	0.560683
O32	O	0.222236	1.315075	0.345592
O33	O	1.210759	0.762833	0.066418
O34	O	1.132229	0.960853	0.105683
O35	O	0.566761	1.097241	0.407495
O36	O	0.520532	1.213811	0.303988
O37	O	0.820004	1.097240	0.154251
O38	O	0.866233	0.980669	0.257758
C39	C	0.378018	1.038954	0.206007
C40	C	0.263142	1.038954	0.206007
C41	C	0.840076	0.727339	0.144216
C42	C	0.882018	0.621579	0.123245
C43	C	0.374944	0.566864	0.376779
C44	C	0.335532	0.666233	0.396477
C45	C	0.472150	0.655075	0.328171
C46	C	0.648187	0.544538	0.240163
C47	C	0.687603	0.445160	0.220455
C48	C	0.784808	0.533370	0.171847
C49	C	0.960845	0.422833	0.083839
C50	C	1.000253	0.323466	0.064136
C51	C	0.863636	0.334624	0.132441
C52	C	0.745393	0.632748	0.191555
C53	C	1.058051	0.511044	0.035232
C54	C	1.097463	0.411675	0.015534
C55	C	1.054977	1.038954	0.206003
C56	C	1.169854	1.038954	0.206003
C57	C	0.716500	1.038953	-0.132474
C58	C	0.716501	1.038952	-0.247351
C59	C	0.592919	1.350569	0.267794
C60	C	0.550977	1.456329	0.288765
C61	C	0.716495	1.038955	0.544485
C62	C	0.716495	1.038956	0.659362
C63	C	0.254440	1.350569	0.267796
C64	C	0.097621	1.456329	0.288767
C65	C	0.378016	1.038955	0.544486
C66	C	0.263139	1.038956	0.659364
C67	C	0.254437	1.350571	0.606276
C68	C	0.097618	1.456330	0.742124
C69	C	1.178558	0.727338	-0.194265
C70	C	1.335377	0.621578	-0.330113
C71	C	1.178556	0.727339	0.144214
C72	C	1.335374	0.621580	0.123243
C73	C	1.054979	1.038953	-0.132476
C74	C	1.169857	1.038952	-0.247354
C75	C	0.048109	1.445145	0.220444
C76	C	-0.099219	1.544508	0.240121
C77	C	-0.197041	1.655053	0.328130
C78	C	-0.147518	1.666234	0.396455
C79	C	-0.000184	1.566873	0.376770
C80	C	-0.000160	1.566856	0.751892
C81	C	-0.147497	1.666238	0.879527
C82	C	-0.197060	1.655092	0.997393
C83	C	-0.099266	1.544555	0.987619
C84	C	0.048076	1.445176	0.859986
C85	C	1.433169	0.511053	-0.339882
C86	C	1.580539	0.411670	-0.467517
C87	C	1.630107	0.422816	-0.585382
C88	C	1.532306	0.533353	-0.575609
C89	C	1.384946	0.632732	-0.447975
C90	C	1.384897	0.632763	0.191555
C91	C	1.532256	0.533401	0.171848
C92	C	1.630081	0.422855	0.083835
C93	C	1.580553	0.411674	0.015515
C94	C	1.433204	0.511036	0.035216
H95	H	0.602061	0.722741	0.263222
O96	O	0.145676	0.785445	0.491390
H97	H	0.120229	0.833643	0.573997
O98	O	0.429655	0.762246	0.349416
H99	H	0.284297	0.840983	0.422096
O100	O	1.205384	0.499027	-0.038454
H101	H	1.287947	0.450776	-0.009856
H102	H	-0.139519	1.535381	0.184479
H103	H	1.392825	0.501955	-0.243924
O104	O	1.788984	0.315704	0.062628
H105	H	1.908177	0.263221	-0.046190
O106	O	-0.355955	1.762221	0.349364
H107	H	-0.454272	1.762146	0.390712
H108	H	0.127674	1.355185	0.852050
O109	O	-0.253052	1.785474	0.491382
H110	H	-0.166484	1.795607	0.455201
H111	H	0.040169	1.575953	0.655934
H112	H	1.660148	0.321676	-0.475449
H113	H	0.040108	1.575995	0.432417
H114	H	1.572554	0.542527	0.227491
O115	O	-0.252978	1.785451	0.890054
H116	H	-0.193772	1.776495	0.786648
H117	H	-0.317039	1.736023	1.101312
H118	H	1.660224	0.321655	-0.056146
H119	H	1.750101	0.341885	-0.689301
H120	H	0.263729	0.575934	0.432378
H121	H	0.895715	0.253715	0.116414
O122	O	1.279453	0.751943	-0.437445
H123	H	1.338678	0.742984	-0.540852
H124	H	1.143595	0.233464	-0.007538
O125	O	1.379795	0.498956	-0.038462
H126	H	1.383717	0.541301	-0.103135
H127	H	-0.139642	1.535498	1.083603
H128	H	1.572684	0.542414	-0.671590
O129	O	1.287329	0.292453	-0.079408
H130	H	1.291774	0.225233	-0.081642
O131	O	1.279420	0.751988	0.286465
H132	H	1.338653	0.743053	0.330628
H133	H	0.127753	1.355142	0.148764
