data_functionalizedCrystal
_audit_creation_method	'MofGen! by Chris Wilmer'
_symmetry_space_group_name_H-M	'P1'
_symmetry_Int_Tables_number	1
_symmetry_cell_setting	triclinic
loop_
_symmetry_equiv_pos_as_xyz
  x,y,z
_cell_length_a	8.497374
_cell_length_b	19.805407
_cell_length_c	19.805405
_cell_angle_alpha	90.026410
_cell_angle_beta	89.985911
_cell_angle_gamma	89.995496
loop_
_atom_site_label
_atom_site_type_symbol
_atom_site_fract_x
_atom_site_fract_y
_atom_site_fract_z
Zn1	Zn	0.892011	-1.034635	0.269581
Zn2	Zn	0.628188	-1.034580	0.382739
Zn3	Zn	0.628226	-0.921479	0.269569
Zn4	Zn	0.891907	-0.921413	0.382733
O5	O	0.760083	-0.978027	0.326155
O6	O	0.857043	-1.129344	0.284598
O7	O	0.407431	-1.019581	0.367724
O8	O	0.663277	-0.936541	0.174854
O9	O	0.663213	-1.129303	0.367735
O10	O	0.857079	-1.019676	0.174862
O11	O	0.407458	-0.936487	0.284579
O12	O	0.663176	-0.826754	0.284573
O13	O	1.112683	-0.936428	0.367725
O14	O	0.856901	-0.826705	0.367714
O15	O	1.112760	-1.019611	0.284593
O16	O	0.663111	-1.019517	0.477455
O17	O	0.856864	-0.936374	0.477450
C18	C	0.760032	-0.802171	0.326142
C19	C	0.760048	-0.726939	0.326153
C20	C	0.760007	-0.977951	0.502011
C21	C	0.760027	-0.977980	0.577243
C22	C	0.760135	-1.154569	0.326169
C23	C	0.760157	-1.229801	0.326175
C24	C	1.171563	-0.978022	0.326156
C25	C	1.350207	-0.978023	0.326164
C26	C	0.760194	-0.978122	0.149613
C27	C	0.760241	-0.978162	0.074381
C28	C	0.860757	-0.691587	0.369510
C29	C	0.860779	-0.620899	0.369511
C30	C	0.760083	-0.585563	0.326158
C31	C	0.659369	-0.620920	0.282797
C32	C	0.659356	-0.691607	0.282793
C33	C	0.659421	-0.335847	0.282812
C34	C	0.659439	-0.265155	0.282821
C35	C	0.860844	-0.265138	0.369530
C36	C	0.860831	-0.335825	0.369526
C37	C	0.760124	-0.371176	0.326162
C38	C	0.760103	-0.447824	0.326161
C39	C	0.760095	-0.508916	0.326163
C40	C	0.659245	-1.021314	0.612567
C41	C	0.659280	-1.021343	0.683256
C42	C	0.760090	-0.978034	0.718619
C43	C	0.860882	-0.934697	0.683290
C44	C	0.860854	-0.934672	0.612603
C45	C	0.860999	-0.934797	0.968363
C46	C	0.861016	-0.934824	1.039055
C47	C	0.659425	-1.021468	1.039016
C48	C	0.659397	-1.021443	0.968329
C49	C	0.760195	-0.978109	0.933006
C50	C	0.760158	-0.978080	0.856358
C51	C	0.760120	-0.978059	0.795266
H52	H	0.942785	-0.592118	0.404817
H53	H	0.943069	-0.899512	0.939609
H54	H	0.942823	-0.364592	0.404830
H55	H	0.577407	-0.364621	0.247508
O56	O	0.561252	-1.063482	0.934053
C57	C	0.292967	-1.096407	0.912412
C58	C	0.403933	-1.048763	0.951281
H59	H	0.165750	-1.084514	0.926316
H60	H	0.320669	-1.150989	0.926274
H61	H	0.310339	-1.088956	0.855825
H62	H	0.386623	-1.056153	1.007877
H63	H	0.376203	-0.994198	0.937363
O64	O	0.561610	-0.586493	0.240744
C65	C	0.472443	-0.477605	0.202286
C66	C	0.583210	-0.516507	0.249958
H67	H	0.489891	-0.421015	0.209708
H68	H	0.345145	-0.491439	0.214081
H69	H	0.500370	-0.491569	0.147735
H70	H	0.555425	-0.502564	0.304524
H71	H	0.710475	-0.502670	0.238104
O72	O	0.958699	-0.892639	0.578182
C73	C	1.047940	-0.854173	0.469300
C74	C	0.937068	-0.901819	0.508196
H75	H	1.030466	-0.861568	0.412709
H76	H	1.175213	-0.866019	0.483117
H77	H	1.020143	-0.799618	0.483287
H78	H	0.964723	-0.956390	0.494230
H79	H	0.809828	-0.889915	0.494376
H80	H	0.942751	-0.720352	0.404815
H81	H	0.942970	-0.899437	0.712088
H82	H	0.942851	-0.236347	0.404836
H83	H	0.577357	-1.056755	1.067784
H84	H	0.577356	-0.720390	0.247484
H85	H	0.577212	-1.056630	0.712013
O86	O	0.561574	-0.230933	0.240638
C87	C	0.361748	-0.238405	0.154652
C88	C	0.472518	-0.277244	0.202373
H89	H	0.289694	-0.275830	0.123711
H90	H	0.434269	-0.205346	0.119272
H91	H	0.279196	-0.205276	0.185683
H92	H	0.555092	-0.310410	0.171396
H93	H	0.399899	-0.310260	0.237754
O94	O	0.561262	-1.063448	0.578323
C95	C	0.361239	-1.149364	0.585753
C96	C	0.472151	-1.101691	0.624616
H97	H	0.289140	-1.180286	0.623164
H98	H	0.433651	-1.184763	0.552635
H99	H	0.278735	-1.118296	0.552682
H100	H	0.554676	-1.132705	0.657724
H101	H	0.399640	-1.066290	0.657692
H102	H	0.943119	-0.899556	1.067846
