data_functionalizedCrystal
_audit_creation_method	'MofGen! by Chris Wilmer'
_symmetry_space_group_name_H-M	'P1'
_symmetry_Int_Tables_number	1
_symmetry_cell_setting	triclinic
loop_
_symmetry_equiv_pos_as_xyz
  x,y,z
_cell_length_a	29.839134
_cell_length_b	29.839131
_cell_length_c	16.120297
_cell_angle_alpha	87.132273
_cell_angle_beta	87.133417
_cell_angle_gamma	90.034165
loop_
_atom_site_label
_atom_site_type_symbol
_atom_site_fract_x
_atom_site_fract_y
_atom_site_fract_z
Zn1	Zn	0.673862	-0.191837	0.471627
Zn2	Zn	1.173862	0.308163	0.971627
Zn3	Zn	0.677595	-0.263155	0.332209
Zn4	Zn	1.177595	0.236845	0.832209
Zn5	Zn	0.602546	-0.188030	0.332203
Zn6	Zn	1.102546	0.311970	0.832203
Zn7	Zn	0.598695	-0.266929	0.471544
Zn8	Zn	1.098695	0.233071	0.971544
O9	O	0.638174	-0.227488	0.401895
O10	O	1.138174	0.272512	0.901895
O11	O	0.737223	-0.201311	0.453170
O12	O	1.237223	0.298689	0.953170
O13	O	0.670813	-0.250017	0.215547
O14	O	1.170813	0.249983	0.715547
O15	O	0.612055	-0.125669	0.350730
O16	O	1.112055	0.374331	0.850730
O17	O	0.739966	-0.253708	0.350741
O18	O	1.239966	0.246292	0.850741
O19	O	0.664451	-0.128466	0.453164
O20	O	1.164451	0.371534	0.953164
O21	O	0.615675	-0.194823	0.215542
O22	O	1.115675	0.305177	0.715542
O23	O	0.539169	-0.198483	0.350649
O24	O	1.039169	0.301517	0.850649
O25	O	0.605492	-0.260140	0.588216
O26	O	1.105492	0.239860	1.088216
O27	O	0.536339	-0.256449	0.453022
O28	O	1.036339	0.243551	0.953022
O29	O	0.660717	-0.204970	0.588277
O30	O	1.160717	0.295030	1.088277
O31	O	0.667079	-0.326522	0.350660
O32	O	1.167079	0.173478	0.850660
O33	O	0.609112	-0.329294	0.453028
O34	O	1.109112	0.170706	0.953028
C35	C	0.521454	-0.227462	0.401827
C36	C	1.021454	0.272538	0.901827
C37	C	0.471519	-0.227463	0.401817
C38	C	0.971519	0.272537	0.901817
C39	C	0.116388	-0.197265	0.348699
C40	C	0.616388	0.302735	0.848699
C41	C	0.304062	-0.197251	0.348648
C42	C	0.804062	0.302749	0.848648
O43	O	0.329567	-0.171535	0.303408
O44	O	0.829567	0.328465	0.803408
N45	N	0.326073	-0.227471	0.401859
N46	N	0.826073	0.272529	0.901859
C47	C	0.301162	-0.257696	0.455090
C48	C	0.801162	0.242304	0.955090
O49	O	0.324190	-0.283396	0.500354
O50	O	0.824190	0.216604	1.000354
C51	C	0.113489	-0.257707	0.455144
C52	C	0.613489	0.242293	0.955144
C53	C	0.091480	-0.227488	0.401924
C54	C	0.591480	0.272512	0.901924
C55	C	0.094380	-0.167048	0.295484
C56	C	0.594380	0.332952	0.795484
C57	C	0.047464	-0.167053	0.295494
C58	C	0.547464	0.332947	0.795494
C59	C	0.022556	-0.197276	0.348719
C60	C	0.522556	0.302724	0.848719
C61	C	0.044565	-0.227493	0.401934
C62	C	0.544565	0.272507	0.901934
C63	C	0.088578	-0.287929	0.508378
C64	C	0.588578	0.212071	1.008378
C65	C	0.041657	-0.287928	0.508389
C66	C	0.541657	0.212072	1.008389
C67	C	0.019649	-0.257709	0.455169
C68	C	0.519649	0.242291	0.955169
C69	C	-0.027258	-0.257721	0.455169
C70	C	0.472742	0.242279	0.955169
N71	N	-0.049269	-0.227501	0.401958
N72	N	0.450731	0.272499	0.901958
C73	C	-0.024362	-0.197278	0.348733
C74	C	0.475638	0.302722	0.848733
C75	C	0.399694	-0.257688	0.455056
C76	C	0.899694	0.242312	0.955056
C77	C	0.446612	-0.257686	0.455042
C78	C	0.946612	0.242314	0.955042
C79	C	0.449509	-0.197241	0.348601
C80	C	0.949509	0.302759	0.848601
C81	C	0.402590	-0.197245	0.348612
C82	C	0.902590	0.302755	0.848612
C83	C	0.377683	-0.227468	0.401846
C84	C	0.877683	0.272532	0.901846
C85	C	-0.122888	-0.197292	0.348758
C86	C	0.377112	0.302708	0.848758
C87	C	-0.169808	-0.197302	0.348770
C88	C	0.330192	0.302698	0.848770
C89	C	-0.172701	-0.257745	0.455213
C90	C	0.327299	0.242255	0.955213
C91	C	-0.125785	-0.257737	0.455198
C92	C	0.374215	0.242263	0.955198
C93	C	-0.100880	-0.227507	0.401968
C94	C	0.399120	0.272493	0.901968
O95	O	-0.052791	-0.283420	0.500392
O96	O	0.447209	0.216580	1.000392
O97	O	-0.047398	-0.171575	0.303489
O98	O	0.452602	0.328425	0.803489
C99	C	0.163304	-0.197260	0.348689
C100	C	0.663304	0.302740	0.848689
C101	C	0.185312	-0.227477	0.401904
C102	C	0.685312	0.272523	0.901904
C103	C	0.160404	-0.257700	0.455129
C104	C	0.660404	0.242300	0.955129
C105	C	0.232230	-0.227475	0.401889
C106	C	0.732230	0.272525	0.901889
C107	C	0.257138	-0.197252	0.348664
C108	C	0.757138	0.302748	0.848664
C109	C	0.235127	-0.167032	0.295454
C110	C	0.735127	0.332968	0.795454
C111	C	0.188211	-0.167037	0.295464
C112	C	0.688211	0.332963	0.795464
C113	C	0.182415	-0.287920	0.508340
C114	C	0.682415	0.212080	1.008340
C115	C	0.229331	-0.287912	0.508325
C116	C	0.729331	0.212088	1.008325
C117	C	0.254239	-0.257690	0.455100
C118	C	0.754239	0.242310	0.955100
C119	C	0.638094	-0.344209	0.401854
C120	C	1.138094	0.155791	0.901854
C121	C	0.638100	-0.394144	0.401864
C122	C	1.138100	0.105856	0.901864
C123	C	0.668408	-0.702334	0.348670
C124	C	1.168408	-0.202334	0.848670
C125	C	0.668463	-0.890008	0.348703
C126	C	1.168463	-0.390008	0.848703
O127	O	0.694168	-0.913036	0.303443
O128	O	1.194168	-0.413036	0.803443
N129	N	0.638266	-0.914931	0.401958
N130	N	1.138266	-0.414931	0.901958
C131	C	0.608055	-0.892934	0.455214
C132	C	1.108055	-0.392934	0.955214
O133	O	0.582375	-0.918439	0.500518
O134	O	1.082375	-0.418439	1.000518
C135	C	0.608003	-0.705261	0.455185
C136	C	1.108003	-0.205261	0.955185
C137	C	0.638199	-0.680340	0.401920
C138	C	1.138199	-0.180340	0.901920
C139	C	0.698602	-0.677413	0.295410
C140	C	1.198602	-0.177413	0.795410
C141	C	0.698586	-0.630497	0.295399
C142	C	1.198586	-0.130497	0.795399
C143	C	0.668377	-0.608502	0.348649
C144	C	1.168377	-0.108502	0.848649
C145	C	0.638183	-0.633424	0.401909
C146	C	1.138183	-0.133424	0.901909
C147	C	0.577795	-0.683264	0.508444
C148	C	1.077795	-0.183264	1.008444
C149	C	0.577785	-0.636343	0.508434
C150	C	1.077785	-0.136343	1.008434
C151	C	0.607981	-0.611422	0.455168
C152	C	1.107981	-0.111422	0.955168
C153	C	0.607958	-0.564514	0.455148
C154	C	1.107958	-0.064514	0.955148
N155	N	0.638155	-0.539590	0.401892
N156	N	1.138155	-0.039590	0.901892
C157	C	0.668365	-0.561584	0.348642
C158	C	1.168365	-0.061584	0.848642
C159	C	0.608084	-0.991465	0.455224
C160	C	1.108084	-0.491465	0.955224
C161	C	0.608096	-1.038383	0.455230
C162	C	1.108096	-0.538383	0.955230
C163	C	0.668505	-1.035454	0.348720
C164	C	1.168505	-0.535454	0.848720
C165	C	0.668490	-0.988535	0.348710
C166	C	1.168490	-0.488535	0.848710
C167	C	0.638281	-0.966541	0.401968
C168	C	1.138281	-0.466541	0.901968
C169	C	0.668329	-0.463058	0.348623
C170	C	1.168329	0.036942	0.848623
C171	C	0.668310	-0.416138	0.348615
C172	C	1.168310	0.083862	0.848615
C173	C	0.607903	-0.419072	0.455128
C174	C	1.107903	0.080928	0.955128
C175	C	0.607921	-0.465987	0.455134
C176	C	1.107921	0.034013	0.955134
C177	C	0.638138	-0.487979	0.401879
C178	C	1.138138	0.012021	0.901879
O179	O	0.582270	-0.541456	0.500390
O180	O	1.082270	-0.041456	1.000390
O181	O	0.694047	-0.536071	0.303358
O182	O	1.194047	-0.036071	0.803358
C183	C	0.668424	-0.749250	0.348681
C184	C	1.168424	-0.249250	0.848681
C185	C	0.638230	-0.774171	0.401941
C186	C	1.138230	-0.274171	0.901941
C187	C	0.608021	-0.752177	0.455191
C188	C	1.108021	-0.252177	0.955191
C189	C	0.638242	-0.821089	0.401948
C190	C	1.138242	-0.321089	0.901948
C191	C	0.668452	-0.843083	0.348698
C192	C	1.168452	-0.343083	0.848698
C193	C	0.698649	-0.818160	0.295442
C194	C	1.198649	-0.318160	0.795442
C195	C	0.698633	-0.771244	0.295431
C196	C	1.198633	-0.271244	0.795431
C197	C	0.577824	-0.777100	0.508447
C198	C	1.077824	-0.277100	1.008447
C199	C	0.577841	-0.824016	0.508452
C200	C	1.077841	-0.324016	1.008452
C201	C	0.608051	-0.846010	0.455203
C202	C	1.108051	-0.346010	0.955203
C203	C	0.755351	-0.227513	0.401965
C204	C	1.255351	0.272487	0.901965
C205	C	0.805284	-0.227524	0.401995
C206	C	1.305284	0.272476	0.901995
C207	C	0.632258	-0.233401	0.619341
C208	C	1.132258	0.266599	1.119341
C209	C	0.629737	-0.235920	0.712003
C210	C	1.129737	0.264080	1.212003
C211	C	0.638266	-0.110311	0.401955
C212	C	1.138266	0.389689	0.901955
C213	C	0.638306	-0.060377	0.401981
C214	C	1.138306	0.439623	0.901981
C215	C	0.644093	-0.221565	0.185296
C216	C	1.144093	0.278435	0.685296
C217	C	0.646701	-0.218919	0.092634
C218	C	1.146701	0.281081	0.592634
C219	C	0.625118	-0.240511	0.881658
C220	C	1.125118	0.259489	1.381658
C221	C	0.651319	-0.214330	0.922984
C222	C	1.151319	0.285670	1.422984
C223	C	0.648749	-0.216884	1.017386
C224	C	1.148749	0.283116	1.517386
C225	C	0.627688	-0.237957	0.787248
C226	C	1.127688	0.262043	1.287248
H227	H	-0.192989	-0.282353	0.498545
H228	H	0.307011	0.217647	0.998545
Br229	Br	0.365898	-0.298709	0.527308
Br230	Br	0.865898	0.201291	1.027308
H231	H	0.464527	-0.282298	0.498370
H232	H	0.964527	0.217702	0.998370
H233	H	0.106489	-0.312537	0.551716
H234	H	0.606489	0.187463	1.051716
H235	H	0.692899	-0.395848	0.305237
H236	H	1.192899	0.104152	0.805237
Br237	Br	0.584517	-0.281065	0.940854
Br238	Br	1.084517	0.218935	1.440854
Br239	Br	0.739645	-0.848019	0.223172
Br240	Br	1.239645	-0.348019	0.723172
Br241	Br	0.372727	-0.156232	0.276382
Br242	Br	0.872727	0.343768	0.776382
H243	H	-0.102616	-0.172674	0.305416
H244	H	0.397384	0.327326	0.805416
H245	H	0.692936	-0.480958	0.305260
H246	H	1.192936	0.019042	0.805260
H247	H	-0.187725	-0.172693	0.305429
H248	H	0.312275	0.327307	0.805429
Br249	Br	0.017603	-0.126035	0.223271
Br250	Br	0.517603	0.373965	0.723271
H251	H	0.675680	-0.189997	0.887467
H252	H	1.175680	0.310003	1.387467
H253	H	0.469796	-0.172632	0.305262
H254	H	0.969796	0.327368	0.805262
H255	H	0.021380	-0.312538	0.551742
H256	H	0.521380	0.187462	1.051742
Br257	Br	-0.095916	-0.298755	0.527415
Br258	Br	0.404084	0.201245	1.027415
H259	H	0.114654	-0.142434	0.252141
H260	H	0.614654	0.357566	0.752141
H261	H	0.255415	-0.142425	0.252113
H262	H	0.755415	0.357575	0.752113
Br263	Br	0.158350	-0.126022	0.223233
Br264	Br	0.658350	0.373978	0.723233
Br265	Br	0.536816	-0.717075	0.580746
Br266	Br	1.036816	-0.217075	1.080746
H267	H	0.723204	-0.695315	0.252048
H268	H	1.223204	-0.195315	0.752048
Br269	Br	0.259193	-0.328931	0.580554
Br270	Br	0.759193	0.171069	1.080554
H271	H	0.162140	-0.312531	0.551684
H272	H	0.662140	0.187469	1.051684
H273	H	0.723176	-0.610209	0.252029
H274	H	1.223176	-0.110209	0.752029
H275	H	0.693078	-0.968246	0.305337
H276	H	1.193078	-0.468246	0.805337
Br277	Br	0.709502	-1.065312	0.276450
Br278	Br	1.209502	-0.565312	0.776450
Br279	Br	0.567108	-1.072199	0.527509
Br280	Br	1.067108	-0.572199	1.027509
H281	H	0.583483	-0.973561	0.498594
H282	H	1.083483	-0.473561	0.998594
H283	H	0.553186	-0.618439	0.551805
H284	H	1.053186	-0.118439	1.051805
H285	H	0.553224	-0.759196	0.551810
H286	H	1.053224	-0.259196	1.051810
H287	H	0.583306	-0.401156	0.498481
H288	H	1.083306	0.098844	0.998481
H289	H	0.583334	-0.486280	0.498509
H290	H	1.083334	0.013720	0.998509
Br291	Br	0.739617	-0.737429	0.223141
Br292	Br	1.239617	-0.237429	0.723141
H293	H	0.553248	-0.844303	0.551827
H294	H	1.053248	-0.344303	1.051827
