data_functionalizedCrystal
_audit_creation_method	'MofGen! by Chris Wilmer'
_symmetry_space_group_name_H-M	'P1'
_symmetry_Int_Tables_number	1
_symmetry_cell_setting	triclinic
loop_
_symmetry_equiv_pos_as_xyz
  x,y,z
_cell_length_a	17.639617
_cell_length_b	17.640280
_cell_length_c	18.215399
_cell_angle_alpha	78.775397
_cell_angle_beta	78.758603
_cell_angle_gamma	87.821186
loop_
_atom_site_label
_atom_site_type_symbol
_atom_site_fract_x
_atom_site_fract_y
_atom_site_fract_z
Zn1	Zn	1.222276	-0.067953	-0.633802
Zn2	Zn	1.247886	-0.194961	-0.491688
Zn3	Zn	1.095275	-0.093613	-0.481979
Zn4	Zn	1.120930	-0.220542	-0.585967
O5	O	1.171592	-0.144267	-0.548359
O6	O	1.331956	-0.063356	-0.639033
O7	O	1.227623	-0.181550	-0.387406
O8	O	1.090667	0.016064	-0.518075
O9	O	1.350771	-0.156668	-0.534622
O10	O	1.183975	0.034917	-0.629619
O11	O	1.115500	-0.107090	-0.380273
O12	O	0.992396	-0.131895	-0.471691
O13	O	1.134393	-0.200268	-0.695306
O14	O	1.011245	-0.225150	-0.548090
O15	O	1.208852	-0.088161	-0.730451
O16	O	1.252500	-0.304628	-0.488238
O17	O	1.159226	-0.323422	-0.557504
C18	C	0.974263	-0.184083	-0.503646
C19	C	0.889848	-0.201135	-0.484533
C20	C	0.563292	-0.014711	-0.693747
C21	C	0.483975	-0.030753	-0.675769
C22	C	0.503557	-0.127758	-0.566935
C23	C	0.582878	-0.111727	-0.584906
C24	C	0.612738	-0.055202	-0.648313
C25	C	0.632324	-0.152218	-0.539472
C26	C	0.711637	-0.136185	-0.557439
C27	C	0.741503	-0.079661	-0.620841
C28	C	0.692051	-0.039169	-0.666280
C29	C	0.602461	-0.208738	-0.476063
C30	C	0.651907	-0.249229	-0.430628
C31	C	0.731222	-0.233201	-0.448598
C32	C	0.761089	-0.176677	-0.512000
C33	C	0.780674	-0.273693	-0.403159
C34	C	0.859987	-0.257660	-0.421127
C35	C	0.840402	-0.160644	-0.529968
C36	C	1.211446	-0.341577	-0.518755
C37	C	1.228566	-0.425972	-0.506130
C38	C	1.041849	-0.752645	-0.644604
C39	C	1.057937	-0.831947	-0.632719
C40	C	1.155123	-0.812299	-0.560701
C41	C	1.139046	-0.732993	-0.572584
C42	C	1.082408	-0.703172	-0.614535
C43	C	1.179605	-0.683520	-0.542515
C44	C	1.163526	-0.604222	-0.554393
C45	C	1.106889	-0.574395	-0.596341
C46	C	1.066329	-0.623874	-0.626414
C47	C	1.236239	-0.713343	-0.500559
C48	C	1.276798	-0.663871	-0.470490
C49	C	1.260723	-0.584570	-0.482373
C50	C	1.204086	-0.554743	-0.524321
C51	C	1.301283	-0.535091	-0.452300
C52	C	1.285204	-0.455793	-0.464179
C53	C	1.188007	-0.475445	-0.536199
C54	C	1.369692	-0.104296	-0.593247
C55	C	1.454110	-0.087263	-0.612375
C56	C	1.171627	-0.144206	-0.740330
C57	C	1.171643	-0.144179	-0.822137
C58	C	1.131602	0.053817	-0.578100
C59	C	1.114561	0.138228	-0.590774
C60	C	1.210422	-0.085757	-1.028643
C61	C	1.210426	-0.085733	-1.105507
C62	C	1.132894	-0.202474	-1.068899
C63	C	1.132885	-0.202494	-0.992036
C64	C	1.171653	-0.144136	-0.971911
C65	C	1.171667	-0.144092	-1.125638
C66	C	1.171671	-0.144066	-1.208977
C67	C	1.171648	-0.144160	-0.888566
C68	C	1.171589	-0.144265	-0.357153
C69	C	1.171678	-0.144048	-0.275412
H70	H	0.716365	0.006856	-0.717914
H71	H	1.241994	-0.038193	-1.151697
H72	H	1.020213	-0.599592	-0.660582
H73	H	0.756348	-0.319709	-0.351530
H74	H	0.864716	-0.114619	-0.581602
O75	O	0.474529	-0.182752	-0.505432
C76	C	0.438578	-0.241111	-0.529501
H77	H	0.463464	-0.241038	-0.592161
H78	H	0.449480	-0.299703	-0.493830
H79	H	0.373722	-0.229784	-0.521976
H80	H	1.101332	-0.249989	-1.085295
H81	H	0.995734	-0.728363	-0.678772
H82	H	1.024914	-0.872224	-0.657218
O83	O	1.095235	-0.259132	-0.936823
C84	C	1.103555	-0.246643	-0.864669
H85	H	1.116595	-0.183018	-0.868615
H86	H	1.047703	-0.263281	-0.821786
H87	H	1.153094	-0.283532	-0.845259
O88	O	0.592233	0.040137	-0.755423
C89	C	0.576279	0.019516	-0.821858
H90	H	0.524593	-0.021313	-0.805914
H91	H	0.562512	0.073729	-0.862554
H92	H	0.628829	-0.010543	-0.850827
H93	H	0.537875	-0.221773	-0.461422
H94	H	0.443717	0.002228	-0.712770
H95	H	0.627583	-0.295249	-0.379000
O96	O	0.818523	-0.063965	-0.638387
C97	C	0.834277	-0.005408	-0.704104
H98	H	0.779602	0.029706	-0.710776
H99	H	0.881496	0.034162	-0.698290
H100	H	0.854471	-0.032741	-0.756384
O101	O	0.907922	-0.297091	-0.376936
C102	C	0.864558	-0.350408	-0.317112
H103	H	0.808569	-0.364503	-0.334042
H104	H	0.899572	-0.405597	-0.305393
H105	H	0.850467	-0.324241	-0.263526
O106	O	1.133051	-0.446540	-0.577059
C107	C	1.153544	-0.462507	-0.651283
H108	H	1.194400	-0.514173	-0.650823
H109	H	1.099270	-0.476301	-0.671416
H110	H	1.183532	-0.409958	-0.691629
H111	H	1.093793	-0.509826	-0.606006
H112	H	1.347393	-0.559385	-0.418137
O113	O	1.210130	-0.841394	-0.519986
C114	C	1.215605	-0.921998	-0.515923
H115	H	1.192901	-0.937852	-0.565436
H116	H	1.278596	-0.940618	-0.519345
H117	H	1.179746	-0.952703	-0.459705
H118	H	1.249331	-0.777913	-0.490891
H119	H	1.322911	-0.688162	-0.436330
H120	H	1.241987	-0.038236	-1.012260
O121	O	1.324695	-0.407834	-0.434944
C122	C	1.378119	-0.451160	-0.395354
H123	H	1.392196	-0.507143	-0.417627
H124	H	1.433305	-0.416122	-0.404547
H125	H	1.352058	-0.465251	-0.331874
