data_functionalizedCrystal
_audit_creation_method	'MofGen! by Chris Wilmer'
_symmetry_space_group_name_H-M	'P1'
_symmetry_Int_Tables_number	1
_symmetry_cell_setting	triclinic
loop_
_symmetry_equiv_pos_as_xyz
  x,y,z
_cell_length_a	10.540539
_cell_length_b	10.489741
_cell_length_c	9.616153
_cell_angle_alpha	89.998052
_cell_angle_beta	89.995174
_cell_angle_gamma	84.532333
loop_
_atom_site_label
_atom_site_type_symbol
_atom_site_fract_x
_atom_site_fract_y
_atom_site_fract_z
O1	O	1.685914	0.179760	-0.115579
O2	O	1.316503	0.196697	-0.115596
O3	O	1.509614	0.002629	-0.115579
O4	O	1.492802	0.373827	-0.115596
O5	O	1.509587	0.002633	0.115712
O6	O	1.316476	0.196701	0.115695
O7	O	1.685887	0.179764	0.115712
Zn8	Zn	1.501177	0.188233	0.152426
Zn9	Zn	1.501212	0.188228	-0.152310
O10	O	1.492776	0.373831	0.115695
C11	C	1.269186	0.195429	0.000047
C12	C	1.128238	0.191629	0.000041
C13	C	0.944793	0.046011	0.000588
C14	C	1.091412	0.049864	0.000052
C15	C	1.066588	0.259850	-0.132036
C16	C	0.920043	0.255011	-0.132132
C17	C	0.919525	0.257900	0.130890
C18	C	1.066507	0.259206	0.132621
C19	C	1.508331	-0.044900	0.000066
C20	C	1.504532	-0.186529	0.000063
C21	C	1.381661	-0.254654	0.000047
C22	C	1.439691	-0.346782	0.114088
C23	C	1.439746	-0.346760	-0.113947
C24	C	1.562613	-0.276791	0.114199
C25	C	1.562651	-0.276760	-0.113939
C26	C	1.620770	-0.368860	0.000130
C27	C	1.733203	0.181032	0.000066
C28	C	1.874152	0.184832	0.000063
C29	C	1.494059	0.421361	0.000047
C30	C	1.497858	0.562990	0.000041
N31	N	1.501163	0.188236	0.360401
N32	N	1.501237	0.188215	-0.360285
C33	C	1.397545	0.291701	0.580761
C34	C	1.397773	0.292088	0.419594
C35	C	1.633890	0.218515	0.418855
C36	C	1.633325	0.219248	0.580073
C37	C	1.473374	0.054153	0.580317
C38	C	1.470328	0.055022	0.419090
H39	H	0.916190	-0.009992	0.095308
H40	H	0.872087	0.356966	-0.138131
H41	H	1.614546	-0.245964	0.210720
H42	H	1.657691	0.317055	0.617657
N43	N	1.558789	-0.046221	0.368531
N44	N	1.646395	-0.021732	0.288069
H45	H	1.708881	-0.093232	0.252360
H46	H	1.378634	0.025335	0.621051
H47	H	0.914590	-0.009758	-0.093600
H48	H	1.712936	0.145199	0.380509
N49	N	1.374540	-0.385644	-0.234899
N50	N	1.362008	-0.501534	-0.254785
H51	H	1.315950	-0.528994	-0.340202
H52	H	1.133162	-0.004197	-0.094786
N53	N	1.096921	0.388863	0.142610
N54	N	1.164884	0.433777	0.051767
H55	H	1.186364	0.525353	0.058812
N56	N	1.347834	0.026243	0.371164
N57	N	1.283416	0.103488	0.294067
H58	H	1.196903	0.083167	0.260211
N59	N	1.665131	0.339825	0.368171
N60	N	1.589869	0.404181	0.289017
H61	H	1.611926	0.489860	0.253221
N62	N	1.374468	-0.385669	0.235042
N63	N	1.329986	-0.303768	0.320876
H64	H	1.283915	-0.331227	0.406296
H65	H	1.712959	0.146910	0.619068
N66	N	1.568220	-0.042465	0.628151
N67	N	1.655998	-0.012894	0.705647
H68	H	1.722986	-0.081121	0.739439
N69	N	0.884671	0.191756	-0.255985
N70	N	0.968177	0.151482	-0.341749
H71	H	0.943203	0.106805	-0.429224
H72	H	1.299154	0.273870	0.380075
N73	N	1.747621	-0.430867	0.000221
N74	N	1.821588	-0.412409	0.098226
H75	H	1.911176	-0.456201	0.098297
H76	H	1.109182	0.212456	-0.230326
N77	N	1.144840	-0.017490	0.118821
N78	N	1.073849	-0.067679	0.202687
H79	H	1.111577	-0.115260	0.286568
H80	H	1.088954	0.363958	-0.136955
N81	N	0.879919	0.200342	0.256472
N82	N	0.817762	0.104759	0.251072
H83	H	0.789788	0.064097	0.339758
H84	H	1.614607	-0.245724	-0.210353
N85	N	1.117812	0.196644	0.255201
N86	N	1.045672	0.147447	0.338606
H87	H	1.081905	0.103245	0.425172
H88	H	0.872310	0.360296	0.131777
N89	N	1.254925	-0.192363	0.000188
N90	N	1.180757	-0.211037	0.097954
H91	H	1.091251	-0.167044	0.098060
H92	H	1.415224	0.390600	0.621256
N93	N	1.273448	0.269230	0.629496
N94	N	1.209713	0.352829	0.699596
H95	H	1.122068	0.336960	0.734034
H96	H	1.415684	0.391551	0.381010
