data_functionalizedCrystal
_audit_creation_method	'MofGen! by Chris Wilmer'
_symmetry_space_group_name_H-M	'P1'
_symmetry_Int_Tables_number	1
_symmetry_cell_setting	triclinic
loop_
_symmetry_equiv_pos_as_xyz
  x,y,z
_cell_length_a	15.944545
_cell_length_b	14.044220
_cell_length_c	13.101039
_cell_angle_alpha	86.332523
_cell_angle_beta	86.641250
_cell_angle_gamma	91.657475
loop_
_atom_site_label
_atom_site_type_symbol
_atom_site_fract_x
_atom_site_fract_y
_atom_site_fract_z
O1	O	1.127909	-0.116989	-0.085240
O2	O	1.377909	0.133011	0.164760
O3	O	1.627909	0.383011	0.414760
O4	O	1.877909	0.633011	0.664760
O5	O	0.884488	-0.132068	-0.085238
O6	O	1.134488	0.117932	0.164762
O7	O	1.384488	0.367932	0.414762
O8	O	1.634488	0.617932	0.664762
O9	O	1.002544	0.013456	-0.085229
O10	O	1.252544	0.263456	0.164771
O11	O	1.502544	0.513456	0.414771
O12	O	1.752544	0.763456	0.664771
O13	O	1.009853	-0.262512	-0.085249
O14	O	1.259853	-0.012512	0.164751
O15	O	1.509853	0.237488	0.414751
O16	O	1.759853	0.487488	0.664751
O17	O	0.994075	0.002997	0.085201
O18	O	1.244075	0.252997	0.335201
O19	O	1.494075	0.502997	0.585201
O20	O	1.744075	0.752997	0.835201
O21	O	0.876019	-0.142526	0.085192
O22	O	1.126019	0.107474	0.335192
O23	O	1.376019	0.357474	0.585192
O24	O	1.626019	0.607474	0.835192
O25	O	1.119440	-0.127448	0.085189
O26	O	1.369440	0.122552	0.335189
O27	O	1.619440	0.372552	0.585189
O28	O	1.869440	0.622552	0.835189
Zn29	Zn	0.996385	-0.136647	0.112250
Zn30	Zn	1.246385	0.113353	0.362250
Zn31	Zn	1.496385	0.363353	0.612250
Zn32	Zn	1.746385	0.613353	0.862250
Zn33	Zn	1.007543	-0.122868	-0.112298
Zn34	Zn	1.257543	0.127132	0.137702
Zn35	Zn	1.507543	0.377132	0.387702
Zn36	Zn	1.757543	0.627132	0.637702
O37	O	1.001384	-0.272971	0.085180
O38	O	1.251384	-0.022971	0.335180
O39	O	1.501384	0.227029	0.585180
O40	O	1.751384	0.477029	0.835180
C41	C	0.848912	-0.136672	-0.000023
C42	C	1.098912	0.113328	0.249977
C43	C	1.348912	0.363328	0.499977
C44	C	1.598912	0.613328	0.749977
C45	C	0.755526	-0.134799	-0.000021
C46	C	1.005526	0.115201	0.249979
C47	C	1.255526	0.365201	0.499979
C48	C	1.505526	0.615201	0.749979
C49	C	1.155016	-0.122843	-0.000028
C50	C	1.405016	0.127157	0.249972
C51	C	1.655016	0.377157	0.499972
C52	C	1.905016	0.627157	0.749972
C53	C	1.248403	-0.124716	-0.000036
C54	C	1.498403	0.125284	0.249964
C55	C	1.748403	0.375284	0.499964
C56	C	1.998403	0.625284	0.749964
C57	C	0.995111	0.043541	-0.000014
C58	C	1.245111	0.293541	0.249986
C59	C	1.495111	0.543541	0.499986
C60	C	1.745111	0.793541	0.749986
C61	C	0.985569	0.148767	-0.000012
C62	C	1.235569	0.398767	0.249988
C63	C	1.485569	0.648767	0.499988
C64	C	1.735569	0.898767	0.749988
C65	C	1.526209	-0.220517	-0.000037
C66	C	1.776209	0.029483	0.249963
C67	C	2.026209	0.279483	0.499963
C68	C	2.276209	0.529483	0.749963
C69	C	1.467996	-0.179486	0.084000
C70	C	1.717996	0.070514	0.334000
C71	C	1.967996	0.320514	0.584000
C72	C	2.217996	0.570514	0.834000
C73	C	1.584546	-0.131398	-0.000024
C74	C	1.834546	0.118602	0.249976
C75	C	2.084546	0.368602	0.499976
C76	C	2.334546	0.618602	0.749976
C77	C	1.476356	-0.169151	-0.084029
C78	C	1.726356	0.080849	0.165971
C79	C	1.976356	0.330849	0.415971
C80	C	2.226356	0.580849	0.665971
C81	C	1.419387	-0.128120	-0.000032
C82	C	1.669387	0.121880	0.249968
C83	C	1.919387	0.371880	0.499968
C84	C	2.169387	0.621880	0.749968
C85	C	1.527560	-0.090396	0.084082
C86	C	1.777560	0.159604	0.334082
C87	C	2.027560	0.409604	0.584082
C88	C	2.277560	0.659604	0.834082
C89	C	1.535929	-0.080069	-0.084023
C90	C	1.785929	0.169931	0.165977
C91	C	2.035929	0.419931	0.415977
C92	C	2.285929	0.669931	0.665977
C93	C	1.477743	-0.038975	0.000035
C94	C	1.727743	0.211025	0.250035
C95	C	1.977743	0.461025	0.500035
C96	C	2.227743	0.711025	0.750035
C97	C	1.679690	-0.133289	-0.000019
C98	C	1.929690	0.116711	0.249981
C99	C	2.179690	0.366711	0.499981
C100	C	2.429690	0.616711	0.749981
C101	C	1.324246	-0.126222	-0.000030
C102	C	1.574246	0.123778	0.249970
C103	C	1.824246	0.373778	0.499970
C104	C	2.074246	0.623778	0.749970
C105	C	1.008817	-0.303056	-0.000037
C106	C	1.258817	-0.053056	0.249963
C107	C	1.508817	0.196944	0.499963
C108	C	1.758817	0.446944	0.749963
C109	C	1.018359	-0.408282	-0.000045
C110	C	1.268359	-0.158282	0.249955
C111	C	1.518359	0.091718	0.499955
C112	C	1.768359	0.341718	0.749955
N113	N	0.988775	-0.146051	0.265498
N114	N	1.238775	0.103949	0.515498
N115	N	1.488775	0.353949	0.765498
N116	N	1.738775	0.603949	1.015498
C117	C	0.968127	0.341430	-0.000027
C118	C	1.218127	0.591430	0.249973
C119	C	1.468127	0.841430	0.499973
C120	C	1.718127	1.091430	0.749973
C121	C	1.035798	0.399061	-0.000031
C122	C	1.285798	0.649061	0.249969
C123	C	1.535798	0.899061	0.499969
C124	C	1.785798	1.149061	0.749969
C125	C	1.026092	0.506265	-0.000039
C126	C	1.276092	0.756265	0.249961
C127	C	1.526092	1.006265	0.499961
C128	C	1.776092	1.256265	0.749961
C129	C	0.977831	0.234216	-0.000019
C130	C	1.227831	0.484216	0.249981
C131	C	1.477831	0.734216	0.499981
C132	C	1.727831	0.984216	0.749981
N133	N	1.015158	-0.113457	-0.265546
N134	N	1.265158	0.136543	-0.015546
N135	N	1.515158	0.386543	0.234454
N136	N	1.765158	0.636543	0.484454
C137	C	0.978423	-0.158853	0.474539
C138	C	1.228423	0.091147	0.724539
C139	C	1.478423	0.341147	0.974539
C140	C	1.728423	0.591147	1.224539
C141	C	1.025508	-0.100658	0.525419
C142	C	1.275508	0.149342	0.775419
C143	C	1.525508	0.399342	1.025419
C144	C	1.775508	0.649342	1.275419
C145	C	1.019748	-0.107781	0.641737
C146	C	1.269748	0.142219	0.891737
C147	C	1.519748	0.392219	1.141737
C148	C	1.769748	0.642219	1.391737
C149	C	0.984182	-0.151731	0.358211
C150	C	1.234182	0.098269	0.608211
C151	C	1.484182	0.348269	0.858211
C152	C	1.734182	0.598269	1.108211
H153	H	1.547601	-0.297273	0.000035
H154	H	1.797601	-0.047273	0.250035
H155	H	2.047601	0.202727	0.500035
H156	H	2.297601	0.452727	0.750035
C157	C	1.123909	0.356954	-0.000009
C158	C	1.373909	0.606954	0.249991
C159	C	1.623909	0.856954	0.499991
C160	C	1.873909	1.106954	0.749991
H161	H	1.118960	0.289378	0.000008
H162	H	1.368960	0.539378	0.250008
H163	H	1.618960	0.789378	0.500008
H164	H	1.868960	1.039378	0.750008
H165	H	1.156526	0.381382	-0.059435
H166	H	1.406526	0.631382	0.190565
H167	H	1.656526	0.881382	0.440565
H168	H	1.906526	1.131382	0.690565
H169	H	1.150593	0.374109	0.059437
H170	H	1.400593	0.624109	0.309437
H171	H	1.650593	0.874109	0.559437
H172	H	1.900593	1.124109	0.809437
C173	C	1.445864	-0.214116	-0.180003
C174	C	1.695864	0.035884	0.069997
C175	C	1.945864	0.285884	0.319997
C176	C	2.195864	0.535884	0.569997
H177	H	1.416821	-0.168148	-0.219572
H178	H	1.666821	0.081852	0.030428
H179	H	1.916821	0.331852	0.280428
H180	H	2.166821	0.581852	0.530428
H181	H	1.492837	-0.234648	-0.219836
H182	H	1.742837	0.015352	0.030164
H183	H	1.992837	0.265352	0.280164
H184	H	2.242837	0.515352	0.530164
H185	H	1.409107	-0.267293	-0.159800
H186	H	1.659107	-0.017293	0.090200
H187	H	1.909107	0.232707	0.340200
H188	H	2.159107	0.482707	0.590200
C189	C	0.918108	-0.233365	0.533695
C190	C	1.168108	0.016635	0.783695
C191	C	1.418108	0.266635	1.033695
C192	C	1.668108	0.516635	1.283695
H193	H	0.889311	-0.268935	0.486479
H194	H	1.139311	-0.018935	0.736479
H195	H	1.389311	0.231065	0.986479
H196	H	1.639311	0.481065	1.236479
H197	H	0.949284	-0.275304	0.575557
H198	H	1.199284	-0.025304	0.825557
H199	H	1.449284	0.224696	1.075557
H200	H	1.699284	0.474696	1.325557
H201	H	0.878500	-0.201810	0.575543
H202	H	1.128500	0.048190	0.825543
H203	H	1.378500	0.298190	1.075543
H204	H	1.628500	0.548190	1.325543
C205	C	0.880020	0.383536	-0.000018
C206	C	1.130020	0.633536	0.249982
C207	C	1.380020	0.883536	0.499982
C208	C	1.630020	1.133536	0.749982
H209	H	0.884974	0.451110	-0.000012
H210	H	1.134974	0.701110	0.249988
H211	H	1.384974	0.951110	0.499988
H212	H	1.634974	1.201110	0.749988
H213	H	0.853312	0.366388	-0.059443
H214	H	1.103312	0.616388	0.190557
H215	H	1.353312	0.866388	0.440557
H216	H	1.603312	1.116388	0.690557
H217	H	0.847422	0.359104	0.059429
H218	H	1.097422	0.609104	0.309429
H219	H	1.347422	0.859104	0.559429
H220	H	1.597422	1.109104	0.809429
H221	H	1.565580	-0.038100	-0.155066
H222	H	1.815580	0.211900	0.094934
H223	H	2.065580	0.461900	0.344934
H224	H	2.315580	0.711900	0.594934
H225	H	1.438355	-0.221484	0.155040
H226	H	1.688355	0.028516	0.405040
H227	H	1.938355	0.278516	0.655040
H228	H	2.188355	0.528516	0.905040
C229	C	1.085836	-0.026152	0.466258
C230	C	1.335836	0.223848	0.716258
C231	C	1.585836	0.473848	0.966258
C232	C	1.835836	0.723848	1.216258
H233	H	1.081860	-0.031092	0.394707
H234	H	1.331860	0.218908	0.644707
H235	H	1.581860	0.468908	0.894707
H236	H	1.831860	0.718908	1.144707
H237	H	1.071055	0.036044	0.483768
H238	H	1.321055	0.286044	0.733768
H239	H	1.571055	0.536044	0.983768
H240	H	1.821055	0.786044	1.233768
H241	H	1.141825	-0.037469	0.483787
H242	H	1.391825	0.212531	0.733787
H243	H	1.641825	0.462531	0.983787
H244	H	1.891825	0.712531	1.233787
H245	H	1.550023	-0.057147	0.155202
H246	H	1.800023	0.192853	0.405202
H247	H	2.050023	0.442853	0.655202
H248	H	2.300023	0.692853	0.905202
H249	H	1.456498	0.037832	0.000090
H250	H	1.706498	0.287832	0.250090
H251	H	1.956498	0.537832	0.500090
H252	H	2.206498	0.787832	0.750090
