data_functionalizedCrystal
_audit_creation_method	'MofGen! by Chris Wilmer'
_symmetry_space_group_name_H-M	'P1'
_symmetry_Int_Tables_number	1
_symmetry_cell_setting	triclinic
loop_
_symmetry_equiv_pos_as_xyz
  x,y,z
_cell_length_a	14.628931
_cell_length_b	14.628931
_cell_length_c	23.196401
_cell_angle_alpha	59.997492
_cell_angle_beta	90.005554
_cell_angle_gamma	60.000028
loop_
_atom_site_label
_atom_site_type_symbol
_atom_site_fract_x
_atom_site_fract_y
_atom_site_fract_z
Zr1	Zr	0.880597	1.000599	-0.075662
O2	O	0.734609	1.191330	-0.167721
O3	O	0.925350	0.809886	-0.047441
O4	O	0.925315	1.000624	-0.167721
O5	O	0.734672	1.000566	0.047438
O6	O	1.075747	1.000624	-0.167722
O7	O	0.734644	1.000591	-0.047441
O8	O	1.075809	0.659428	0.047437
O9	O	0.734610	1.341762	-0.167721
O10	O	1.056702	0.888322	-0.035406
O11	O	0.944457	0.888303	0.035401
O12	O	0.944416	1.112873	-0.106213
O13	O	0.832171	1.112854	-0.035406
Zr14	Zr	1.120563	1.000558	0.075658
Zr15	Zr	1.120519	1.000599	-0.075663
Zr16	Zr	0.880641	1.000558	0.075658
Zr17	Zr	0.880597	1.240521	-0.075663
Zr18	Zr	1.120563	0.760636	0.075658
O19	O	1.075810	1.191271	0.047437
O20	O	1.075747	1.191330	-0.167722
O21	O	0.734673	1.191271	0.047437
O22	O	1.266550	0.809827	0.167717
O23	O	1.266487	0.809886	-0.047442
O24	O	0.925413	0.809827	0.167717
O25	O	1.266488	1.000591	-0.047442
O26	O	1.075845	1.000533	0.167717
O27	O	0.925413	1.000533	0.167717
O28	O	1.266515	1.000566	0.047437
O29	O	0.925315	1.341762	-0.167722
O30	O	1.075845	0.659395	0.167717
O31	O	1.266550	0.659395	0.167717
O32	O	1.266515	0.659428	0.047437
O33	O	0.734645	1.341729	-0.047442
O34	O	0.925351	1.341729	-0.047442
O35	O	1.056744	0.888284	0.106208
O36	O	1.168989	0.888303	0.035401
O37	O	1.056703	1.112854	-0.035406
O38	O	0.944458	1.112834	0.035401
C39	C	1.000579	0.700473	-0.000002
C40	C	1.000579	0.598620	-0.000002
C41	C	1.056260	0.553221	-0.035127
C42	C	1.056261	0.447950	-0.035128
C43	C	0.700475	1.000578	-0.000002
C44	C	0.598622	1.000578	-0.000002
C45	C	0.553198	1.000592	-0.049676
C46	C	0.447928	1.000592	-0.049677
C47	C	1.300685	1.000578	-0.000003
C48	C	1.402538	1.000578	-0.000003
C49	C	1.000524	1.000630	-0.189281
C50	C	1.000506	1.000648	-0.253521
C51	C	1.000580	1.300684	-0.000002
C52	C	1.000581	1.402537	-0.000003
C53	C	1.083382	1.000650	-0.283684
C54	C	1.083407	1.000624	-0.344031
C55	C	1.000538	1.000622	-0.374220
C56	C	0.917654	1.000612	-0.344047
C57	C	0.917638	1.000625	-0.283698
C58	C	0.899401	1.075934	-0.493602
C59	C	0.899416	1.075929	-0.553953
C60	C	1.000587	1.000576	-0.560356
C61	C	1.101750	0.925244	-0.506407
C62	C	1.101734	0.925257	-0.446057
C63	C	1.000547	1.000607	-0.439659
C64	C	1.083498	1.000548	-0.655954
C65	C	1.083523	1.000514	-0.716299
C66	C	0.917761	1.000515	-0.716318
C67	C	0.917744	1.000536	-0.655970
C68	C	1.000612	1.000559	-0.625793
C69	C	1.000635	1.000527	0.189277
C70	C	1.000654	1.000509	0.253517
C71	C	1.300685	0.700473	-0.000002
C72	C	1.402538	0.598620	-0.000002
C73	C	1.000635	0.700422	0.189277
C74	C	1.000654	0.598551	0.253517
C75	C	1.300740	0.700422	0.189277
C76	C	1.402612	0.598551	0.253516
C77	C	0.700420	1.300735	-0.189281
C78	C	0.598548	1.402606	-0.253521
C79	C	0.700475	1.300684	-0.000002
C80	C	0.598622	1.402537	-0.000002
C81	C	1.000525	1.300735	-0.189282
C82	C	1.000506	1.402606	-0.253521
C83	C	1.059275	0.550702	0.320651
C84	C	1.059288	0.454997	0.381017
C85	C	1.000686	0.407137	0.374247
C86	C	0.942058	0.454996	0.307106
C87	C	0.942039	0.550705	0.246741
C88	C	1.509053	0.550722	0.246723
C89	C	1.604781	0.455017	0.307078
C90	C	1.594066	0.407137	0.374224
C91	C	1.487614	0.454976	0.381016
C92	C	1.391888	0.550685	0.320662
C93	C	0.492107	1.450447	-0.246728
C94	C	0.396379	1.546181	-0.307082
C95	C	0.407094	1.594067	-0.374228
C96	C	0.513546	1.546222	-0.381020
C97	C	0.609272	1.450495	-0.320667
C98	C	1.059120	1.450435	-0.246729
C99	C	1.059124	1.546141	-0.307083
C100	C	1.000508	1.594021	-0.374229
C101	C	0.941892	1.546182	-0.381021
C102	C	0.941895	1.450472	-0.320667
C103	C	1.392245	0.553221	-0.035127
C104	C	1.497514	0.447950	-0.035128
H105	H	0.952902	0.441579	0.030067
O106	O	0.837092	1.000808	-0.254390
C107	C	0.776416	1.112205	-0.254632
H108	H	0.829806	1.149334	-0.257295
H109	H	0.753847	1.087177	-0.204300
H110	H	0.696530	1.190180	-0.302496
H111	H	1.000514	1.671955	-0.423367
O112	O	1.115971	1.403829	-0.181454
C113	C	1.103443	1.309068	-0.129631
H114	H	1.024280	1.324795	-0.153148
H115	H	1.096756	1.316821	-0.083084
H116	H	1.179159	1.208964	-0.110754
O117	O	0.401447	1.000661	-0.100485
C118	C	0.464115	1.000637	-0.146659
H119	H	0.512012	1.041343	-0.144227
H120	H	0.405165	1.063073	-0.202881
H121	H	0.525842	0.897478	-0.130208
H122	H	1.305223	0.589616	0.326203
O123	O	0.712582	1.404118	-0.327397
C124	C	0.701497	1.466939	-0.399605
H125	H	0.616075	1.506395	-0.431784
H126	H	0.770110	1.395162	-0.408033
H127	H	0.709343	1.550054	-0.417389
O128	O	0.943885	0.551778	0.035928
C129	C	1.019212	0.417665	0.087775
H130	H	1.096352	0.377204	0.072225
H131	H	0.976786	0.368009	0.092210
H132	H	1.045410	0.399335	0.140815
H133	H	0.894169	1.585181	-0.435699
H134	H	0.592245	1.000597	-0.092202
H135	H	0.441591	1.000574	0.042526
H136	H	0.522256	1.585222	-0.435698
O137	O	1.687176	0.314118	0.432775
C138	C	1.783416	0.282199	0.412372
H139	H	1.761412	0.308597	0.356656
H140	H	1.851022	0.174026	0.450497
H141	H	1.815637	0.338162	0.413465
H142	H	1.488877	0.408904	-0.065198
H143	H	0.329138	1.672013	-0.423366
O144	O	1.116072	1.592509	-0.300351
C145	C	1.167812	1.529709	-0.228142
H146	H	1.121841	1.490274	-0.195967
H147	H	1.164652	1.601494	-0.219724
H148	H	1.258778	1.446581	-0.210346
O149	O	0.837406	1.000337	-0.745644
C150	C	0.888144	0.888944	-0.745407
H151	H	0.978669	0.851815	-0.742728
H152	H	0.840554	0.913976	-0.795747
H153	H	0.886236	0.810967	-0.697554
H154	H	1.607265	0.441565	0.030075
H155	H	1.691450	0.416076	0.301535
O156	O	0.884832	1.404086	-0.327193
C157	C	0.802560	1.427542	-0.294521
H158	H	0.827236	1.439386	-0.253366
H159	H	0.795402	1.342582	-0.267747
H160	H	0.718516	1.519621	-0.336028
H161	H	0.559580	1.000560	0.042528
O162	O	1.116330	0.408289	0.446270
C163	C	1.198604	0.274185	0.483396
H164	H	1.173958	0.233592	0.460360
H165	H	1.205725	0.224595	0.541486
H166	H	1.282658	0.255926	0.478365
O167	O	0.481484	1.404137	-0.181559
C168	C	0.367000	1.466893	-0.188520
H169	H	0.315955	1.563903	-0.242386
H170	H	0.353680	1.483387	-0.145236
H171	H	0.338791	1.404137	-0.183568
O172	O	1.505960	0.551999	0.035979
C173	C	1.518344	0.496525	0.108144
H174	H	1.432231	0.539788	0.114231
H175	H	1.568792	0.517399	0.130792
H176	H	1.564022	0.387534	0.137762
H177	H	1.184133	0.863883	-0.511617
O178	O	1.113034	0.600000	-0.070993
C179	C	1.100410	0.694678	-0.062998
H180	H	1.021254	0.736435	-0.049378
H181	H	1.093647	0.775273	-0.114422
H182	H	1.176116	0.648887	-0.018731
O183	O	1.163995	1.000601	-0.254439
C184	C	1.237134	1.000629	-0.294017
H185	H	1.233202	0.959913	-0.324200
H186	H	1.326313	0.938202	-0.256883
H187	H	1.211032	1.103789	-0.332971
H188	H	1.150898	1.000625	-0.368594
O189	O	0.292897	1.592820	-0.300601
C190	C	0.210693	1.687563	-0.368264
H191	H	0.247955	1.729454	-0.408279
H192	H	0.136903	1.768052	-0.367579
H193	H	0.180746	1.641796	-0.383647
O194	O	1.113282	0.401177	-0.070892
C195	C	1.195474	0.267054	-0.023412
H196	H	1.217294	0.240902	0.032258
H197	H	1.273732	0.239447	-0.039431
H198	H	1.161861	0.212357	-0.024671
O199	O	1.164109	1.000498	-0.626703
C200	C	1.237257	1.000513	-0.666275
H201	H	1.233331	0.959789	-0.696454
H202	H	1.326433	0.938087	-0.629138
H203	H	1.211160	1.103671	-0.705232
H204	H	1.184103	0.863916	-0.402133
O205	O	1.164127	1.000286	-0.745554
C206	C	1.224779	0.888926	-0.745346
H207	H	1.216674	0.811085	-0.702610
H208	H	1.316770	0.851555	-0.734232
H209	H	1.189939	0.914085	-0.799027
H210	H	0.850254	1.000542	-0.631412
H211	H	1.305500	0.592292	-0.065202
O212	O	0.801049	1.149136	-0.606276
C213	C	0.711750	1.215658	-0.587689
H214	H	0.738493	1.162389	-0.527865
H215	H	0.636548	1.220517	-0.606670
H216	H	0.688000	1.317856	-0.613500
H217	H	1.106996	0.589659	0.326177
H218	H	0.817007	1.137284	-0.488392
H219	H	0.850182	1.000607	-0.368629
H220	H	1.000711	0.329204	0.423405
H221	H	0.894346	0.416014	0.301604
O222	O	0.885248	0.596966	0.181543
C223	C	0.928331	0.494807	0.173837
H224	H	1.017668	0.413469	0.212059
H225	H	0.928166	0.531299	0.117380
H226	H	0.874000	0.457045	0.185840
O227	O	1.519676	0.597028	0.181555
C228	C	1.634160	0.534204	0.188516
H229	H	1.685212	0.494869	0.242346
H230	H	1.647490	0.605943	0.145178
H231	H	1.662352	0.451000	0.183652
H232	H	1.478907	0.415977	0.435694
