data_functionalizedCrystal
_audit_creation_method	'MofGen! by Chris Wilmer'
_symmetry_space_group_name_H-M	'P1'
_symmetry_Int_Tables_number	1
_symmetry_cell_setting	triclinic
loop_
_symmetry_equiv_pos_as_xyz
  x,y,z
_cell_length_a	19.188925
_cell_length_b	17.666332
_cell_length_c	13.339070
_cell_angle_alpha	89.997681
_cell_angle_beta	80.614078
_cell_angle_gamma	90.010303
loop_
_atom_site_label
_atom_site_type_symbol
_atom_site_fract_x
_atom_site_fract_y
_atom_site_fract_z
O1	O	0.950859	0.062963	-0.126163
O2	O	0.750875	0.062960	-0.143156
O3	O	0.827915	0.062959	0.012502
O4	O	0.873818	0.062964	-0.281821
O5	O	0.827895	-0.062938	0.012510
O6	O	0.750854	-0.062936	-0.143148
O7	O	0.950838	-0.062934	-0.126155
Cu8	Cu	0.850844	-0.074431	-0.134651
Cu9	Cu	0.850869	0.074457	-0.134660
O10	O	0.873798	-0.062933	-0.281813
C11	C	0.724746	0.000012	-0.142602
C12	C	0.646918	0.000011	-0.140953
C13	C	0.100872	0.000014	-0.221245
C14	C	0.174000	0.000018	-0.222804
C15	C	0.201048	0.000015	-0.131469
C16	C	0.154961	0.000027	-0.038569
C17	C	0.081835	0.000031	-0.037013
N18	N	0.308769	-0.042842	-0.065343
N19	N	0.378237	-0.042847	-0.066827
C20	C	0.421374	0.000006	-0.136151
N21	N	0.392420	0.042855	-0.203949
N22	N	0.322946	0.042857	-0.202468
C23	C	0.280341	0.000012	-0.133146
C24	C	0.546746	0.000004	-0.230735
C25	C	0.619875	0.000012	-0.232289
C26	C	0.600835	0.000014	-0.048051
C27	C	0.527707	0.000013	-0.046499
C28	C	0.500667	0.000004	-0.137844
N29	N	0.850832	-0.179150	-0.134643
C30	C	0.884968	-0.218760	-0.065751
C31	C	0.884971	-0.298008	-0.065746
C32	C	0.850849	-0.337642	-0.134651
C33	C	0.816705	-0.298022	-0.203548
C34	C	0.816697	-0.218776	-0.203544
N35	N	0.859294	-0.462059	-0.224126
N36	N	0.859306	-0.537340	-0.224126
C37	C	0.850870	-0.576406	-0.134665
N38	N	0.842435	-0.537348	-0.045200
N39	N	0.842428	-0.462061	-0.045200
C40	C	0.850853	-0.423571	-0.134662
C41	C	0.885010	-0.701946	-0.065762
C42	C	0.885008	-0.781195	-0.065756
C43	C	0.816748	-0.781208	-0.203566
C44	C	0.816745	-0.701960	-0.203563
C45	C	0.850880	-0.662334	-0.134663
C46	C	0.976967	0.000016	-0.126708
C47	C	1.054795	0.000022	-0.128357
C48	C	0.820151	0.000011	0.050161
C49	C	0.797038	0.000014	0.162360
N50	N	0.850884	0.179176	-0.134660
C51	C	0.881562	0.000016	-0.319471
C52	C	0.904675	0.000018	-0.431670
C53	C	0.976751	0.000016	0.527953
C54	C	0.998469	0.000009	0.422537
C55	C	0.948113	0.000011	0.357487
C56	C	0.876035	0.000019	0.397864
C57	C	0.854315	0.000019	0.503290
C58	C	0.825677	0.000014	0.332825
C59	C	0.753600	0.000022	0.373202
C60	C	0.731884	0.000024	0.478618
C61	C	0.782240	0.000022	0.543667
C62	C	0.847397	0.000013	0.227399
C63	C	0.724962	0.000017	0.202737
C64	C	0.703244	0.000024	0.308153
H65	H	0.078861	0.000010	-0.295625
Cl66	Cl	0.231936	0.000005	-0.339586
Cl67	Cl	0.641272	0.000023	0.529375
Cl68	Cl	1.040046	-0.000000	0.609731
H69	H	0.657391	0.000012	-0.307933
Cl70	Cl	0.188964	0.000027	0.076253
Cl71	Cl	0.773844	-0.831028	-0.290181
H72	H	0.044318	0.000038	0.038630
Cl73	Cl	0.773805	-0.347846	-0.290166
Cl74	Cl	0.773834	-0.652160	-0.290179
H75	H	0.965800	0.000005	0.271654
Cl76	Cl	0.612635	0.000035	0.358925
Cl77	Cl	0.512749	-0.000005	-0.345565
H78	H	0.906083	0.000007	0.194535
H79	H	1.057154	0.000002	0.389670
Cl80	Cl	0.634831	0.000022	0.066771
Cl81	Cl	0.469779	0.000026	0.070281
Cl82	Cl	0.927875	-0.168945	0.020870
H83	H	0.764560	0.000030	0.629507
H84	H	0.683958	0.000014	0.149773
Cl85	Cl	0.927918	-0.652129	0.020861
H86	H	0.912769	-0.330265	-0.009644
Cl87	Cl	0.773782	-0.168977	-0.290159
Cl88	Cl	0.927919	-0.830994	0.020864
