data_functionalizedCrystal
_audit_creation_method	'MofGen! by Chris Wilmer'
_symmetry_space_group_name_H-M	'P1'
_symmetry_Int_Tables_number	1
_symmetry_cell_setting	triclinic
loop_
_symmetry_equiv_pos_as_xyz
  x,y,z
_cell_length_a	18.050589
_cell_length_b	18.050591
_cell_length_c	18.050583
_cell_angle_alpha	90.011642
_cell_angle_beta	90.031910
_cell_angle_gamma	90.027061
loop_
_atom_site_label
_atom_site_type_symbol
_atom_site_fract_x
_atom_site_fract_y
_atom_site_fract_z
Zn1	Zn	-0.295629	1.135301	0.419848
Zn2	Zn	0.204371	1.635301	0.919848
Zn3	Zn	-0.419842	1.135209	0.295668
Zn4	Zn	0.080158	1.635209	0.795668
Zn5	Zn	-0.295668	1.011117	0.295682
Zn6	Zn	0.204332	1.511117	0.795682
Zn7	Zn	-0.419779	1.011068	0.419826
Zn8	Zn	0.080221	1.511068	0.919826
O9	O	-0.357730	1.073174	0.357756
O10	O	0.142270	1.573174	0.857756
O11	O	-0.312116	1.239213	0.403379
O12	O	0.187884	1.739213	0.903379
O13	O	-0.403413	1.118730	0.191745
O14	O	0.096587	1.618730	0.691745
O15	O	-0.191738	1.027650	0.312168
O16	O	0.308262	1.527650	0.812168
O17	O	-0.403375	1.239146	0.312144
O18	O	0.096625	1.739146	0.812144
O19	O	-0.191710	1.118887	0.403393
O20	O	0.308290	1.618887	0.903393
O21	O	-0.312183	1.027561	0.191755
O22	O	0.187817	1.527561	0.691755
O23	O	-0.312122	0.907186	0.312146
O24	O	0.187878	1.407186	0.812146
O25	O	-0.403268	1.027565	0.523753
O26	O	0.096732	1.527565	1.023753
O27	O	-0.403306	0.907150	0.403354
O28	O	0.096694	1.407150	0.903354
O29	O	-0.312055	1.118838	0.523770
O30	O	0.187945	1.618838	1.023770
O31	O	-0.523758	1.118682	0.312122
O32	O	-0.023758	1.618682	0.812122
O33	O	-0.523712	1.027476	0.403341
O34	O	-0.023712	1.527476	0.903341
C35	C	-0.357712	0.880222	0.357750
C36	C	0.142288	1.380222	0.857750
C37	C	-0.357722	0.797676	0.357765
C38	C	0.142278	1.297676	0.857765
C39	C	-0.407410	0.548852	0.407296
C40	C	0.092590	1.048852	0.907296
C41	C	-0.425497	0.598221	0.339512
C42	C	0.074503	1.098221	0.839512
C43	C	-0.357745	0.500555	0.357764
C44	C	0.142255	1.000555	0.857764
C45	C	-0.339681	0.598268	0.425545
C46	C	0.160319	1.098268	0.925545
C47	C	-0.357735	0.646540	0.357768
C48	C	0.142265	1.146540	0.857768
C49	C	-0.375867	0.548837	0.289943
C50	C	0.124133	1.048837	0.789943
C51	C	-0.290020	0.548880	0.376022
C52	C	0.209980	1.048880	0.876022
C53	C	-0.308081	0.598227	0.308191
C54	C	0.191919	1.098227	0.808191
C55	C	-0.357752	0.416457	0.357762
C56	C	0.142248	0.916457	0.857762
C57	C	-0.357728	0.730637	0.357762
C58	C	0.142272	1.230637	0.857762
C59	C	-0.550682	1.073084	0.357744
C60	C	-0.050682	1.573084	0.857744
C61	C	-0.633228	1.073114	0.357763
C62	C	-0.133228	1.573114	0.857763
C63	C	-0.832680	1.023565	0.407350
C64	C	-0.332680	1.523565	0.907350
C65	C	-0.882130	1.005465	0.339584
C66	C	-0.382130	1.505465	0.839584
C67	C	-0.784358	1.073187	0.357773
C68	C	-0.284358	1.573187	0.857773
C69	C	-0.881990	1.091322	0.425547
C70	C	-0.381990	1.591322	0.925547
C71	C	-0.930343	1.073256	0.357788
C72	C	-0.430343	1.573256	0.857788
C73	C	-0.832721	1.055052	0.289971
C74	C	-0.332721	1.555052	0.789971
C75	C	-0.832576	1.140940	0.375979
C76	C	-0.332576	1.640940	0.875979
C77	C	-0.882004	1.122867	0.308166
C78	C	-0.382004	1.622867	0.808166
C79	C	-0.700260	1.073145	0.357765
C80	C	-0.200260	1.573145	0.857765
C81	C	-1.014440	1.073297	0.357788
C82	C	-0.514440	1.573297	0.857788
C83	C	-0.164024	1.073284	0.357785
C84	C	0.335976	1.573284	0.857785
C85	C	-0.081478	1.073331	0.357797
C86	C	0.418522	1.573331	0.857797
C87	C	-0.357650	1.073206	0.551462
C88	C	0.142350	1.573206	1.051462
C89	C	-0.357617	1.073220	0.634007
C90	C	0.142383	1.573220	1.134007
C91	C	-0.357748	1.266879	0.357763
C92	C	0.142252	1.766879	0.857763
C93	C	-0.357756	1.349425	0.357765
C94	C	0.142244	1.849425	0.857765
C95	C	-0.357755	1.073184	0.164804
C96	C	0.142245	1.573184	0.664804
C97	C	-0.357580	1.073314	0.082258
C98	C	0.142420	1.573314	0.582258
C99	C	-0.307991	1.122905	0.833467
C100	C	0.192009	1.622905	1.333467
C101	C	-0.289814	1.055171	0.882866
C102	C	0.210186	1.555171	1.382866
C103	C	-0.357604	1.073250	0.785138
C104	C	0.142396	1.573250	1.285138
C105	C	-0.375734	1.141011	0.882821
C106	C	0.124266	1.641011	1.382821
C107	C	-0.357590	1.073285	0.931123
C108	C	0.142410	1.573285	1.431123
C109	C	-0.339391	1.005481	0.833449
C110	C	0.160609	1.505481	1.333449
C111	C	-0.425344	1.091367	0.833400
C112	C	0.074656	1.591367	1.333400
C113	C	-0.407192	1.023586	0.882776
C114	C	0.092808	1.523586	1.382776
C115	C	-0.357610	1.073231	0.701040
C116	C	0.142390	1.573231	1.201040
C117	C	-0.357584	1.073296	1.015220
C118	C	0.142416	1.573296	1.515220
H119	H	-0.266077	0.619769	0.266256
H120	H	0.233923	1.119769	0.766256
H121	H	-0.482619	1.106699	0.811658
H122	H	0.017381	1.606699	1.311658
H123	H	-0.391074	1.198301	0.904511
H124	H	0.108926	1.698301	1.404511
F125	F	-0.215185	0.520527	0.396237
F126	F	0.284815	1.020527	0.896237
H127	H	-0.323984	0.948174	0.811853
H128	H	0.176016	1.448174	1.311853
F129	F	-0.804370	0.968637	0.462074
F130	F	-0.304370	1.468637	0.962074
H131	H	-0.449447	0.527173	0.449130
H132	H	0.050553	1.027173	0.949130
H133	H	-0.482767	0.619893	0.324065
H134	H	0.017233	1.119893	0.824065
F135	F	-0.214931	1.035156	0.911268
F136	F	0.285069	1.535156	1.411268
F137	F	-0.462017	0.968657	0.910910
F138	F	0.037983	1.468657	1.410910
H139	H	-0.266009	1.164827	0.811814
H140	H	0.233991	1.664827	1.311814
H141	H	-0.391211	0.527215	0.232607
H142	H	0.108789	1.027215	0.732607
H143	H	-0.903913	0.948201	0.324200
H144	H	-0.403913	1.448201	0.824200
F145	F	-0.319716	0.626650	0.500465
F146	F	0.180284	1.126650	1.000465
H147	H	-0.811168	1.039674	0.232646
H148	H	-0.311168	1.539674	0.732646
H149	H	-0.810795	1.198192	0.391396
H150	H	-0.310795	1.698192	0.891396
F151	F	-0.910133	1.177757	0.253314
F152	F	-0.410133	1.677757	0.753314
H153	H	-0.903632	1.106634	0.482856
H154	H	-0.403632	1.606634	0.982856
