data_functionalizedCrystal
_audit_creation_method	'MofGen! by Chris Wilmer'
_symmetry_space_group_name_H-M	'P1'
_symmetry_Int_Tables_number	1
_symmetry_cell_setting	triclinic
loop_
_symmetry_equiv_pos_as_xyz
  x,y,z
_cell_length_a	16.120490
_cell_length_b	29.839131
_cell_length_c	16.120297
_cell_angle_alpha	92.860396
_cell_angle_beta	90.129683
_cell_angle_gamma	87.127008
loop_
_atom_site_label
_atom_site_type_symbol
_atom_site_fract_x
_atom_site_fract_y
_atom_site_fract_z
Zn1	Zn	1.247365	-0.227636	-0.534445
Zn2	Zn	1.254290	-0.299152	-0.395359
Zn3	Zn	1.115357	-0.220041	-0.388369
Zn4	Zn	1.108246	-0.298734	-0.527332
O5	O	1.181315	-0.261391	-0.461376
O6	O	1.364649	-0.240476	-0.521897
O7	O	1.241735	-0.285654	-0.278067
O8	O	1.132947	-0.158185	-0.407798
O9	O	1.369737	-0.293019	-0.419711
O10	O	1.229932	-0.163765	-0.515119
O11	O	1.139661	-0.227531	-0.272932
O12	O	0.998048	-0.227126	-0.400900
O13	O	1.120826	-0.292307	-0.644639
O14	O	0.992823	-0.284942	-0.502996
O15	O	1.223036	-0.240071	-0.649865
O16	O	1.234839	-0.361961	-0.412813
O17	O	1.127541	-0.361653	-0.509773
C18	C	0.965264	-0.255165	-0.450418
C19	C	0.872835	-0.252513	-0.445750
C20	C	0.659865	-0.275145	-0.485591
C21	C	0.703612	-0.247674	-0.437226
C22	C	0.797776	-0.250367	-0.441971
C23	C	0.565692	-0.272453	-0.480848
C24	C	1.181191	-0.378108	-0.461299
C25	C	1.181213	-0.428043	-0.461298
C26	C	1.231799	-0.740564	-0.517333
C27	C	1.231887	-0.928240	-0.517388
O28	O	1.274776	-0.954947	-0.564972
N29	N	1.181451	-0.948839	-0.461475
C30	C	1.130985	-0.922516	-0.405549
O31	O	1.088082	-0.944343	-0.357999
C32	C	1.130894	-0.734840	-0.405499
C33	C	1.181340	-0.714244	-0.461409
C34	C	1.282240	-0.719967	-0.573240
C35	C	1.282221	-0.673051	-0.573223
C36	C	1.231761	-0.646731	-0.517299
C37	C	1.181320	-0.667327	-0.461392
C38	C	1.080424	-0.708517	-0.349577
C39	C	1.080404	-0.661595	-0.349571
C40	C	1.130850	-0.640999	-0.405481
C41	C	1.130841	-0.594091	-0.405451
N42	N	1.181278	-0.573492	-0.461364
C43	C	1.231737	-0.599812	-0.517287
C44	C	1.131038	-1.021049	-0.405578
C45	C	1.131062	-1.067967	-0.405589
C46	C	1.231963	-1.073689	-0.517429
C47	C	1.231943	-1.026769	-0.517413
C48	C	1.181474	-1.000450	-0.461490
C49	C	1.231694	-0.501284	-0.517247
C50	C	1.231673	-0.454363	-0.517222
C51	C	1.130769	-0.448646	-0.405385
C52	C	1.130793	-0.495562	-0.405406
C53	C	1.181258	-0.521881	-0.461344
O54	O	1.087968	-0.567357	-0.357898
O55	O	1.274621	-0.577976	-0.564843
C56	C	1.231819	-0.787480	-0.517350
C57	C	1.181378	-0.808076	-0.461444
C58	C	1.130918	-0.781757	-0.405520
C59	C	1.181402	-0.854995	-0.461455
C60	C	1.231861	-0.881315	-0.517379
C61	C	1.282297	-0.860716	-0.573291
C62	C	1.282278	-0.813800	-0.573274
C63	C	1.080482	-0.802355	-0.349608
C64	C	1.080506	-0.849272	-0.349629
C65	C	1.130966	-0.875592	-0.405553
C66	C	1.398209	-0.267642	-0.472377
C67	C	1.490637	-0.270305	-0.477065
C68	C	1.170365	-0.266989	-0.678268
C69	C	1.165699	-0.269375	-0.770695
C70	C	1.181460	-0.144219	-0.461472
C71	C	1.181522	-0.094287	-0.461513
C72	C	1.157150	-0.273720	-0.939918
C73	C	1.205643	-0.248932	-0.983694
C74	C	1.200886	-0.251349	-1.077856
C75	C	1.161906	-0.271303	-0.845748
C76	C	1.192269	-0.255783	-0.245330
C77	C	1.197096	-0.253275	-0.152912
H78	H	1.272781	-0.522707	-0.562802
C79	C	1.287465	-1.102647	-0.578951
C80	C	1.275816	-1.098418	-0.673126
C81	C	1.331309	-1.127379	-0.734648
C82	C	1.398452	-1.160568	-0.701995
C83	C	1.410104	-1.164798	-0.607814
C84	C	1.354611	-1.135838	-0.546292
H85	H	1.226110	-1.073848	-0.697302
H86	H	1.322683	-1.124247	-0.804367
H87	H	1.439531	-1.182006	-0.747537
H88	H	1.459809	-1.189369	-0.583638
H89	H	1.363237	-1.138970	-0.476574
C90	C	0.704800	-0.309650	-0.546332
C91	C	0.693271	-0.360203	-0.538765
C92	C	0.738219	-0.394709	-0.599501
C93	C	0.794696	-0.378663	-0.667805
C94	C	0.806228	-0.328108	-0.675375
C95	C	0.761280	-0.293602	-0.614639
H96	H	0.651461	-0.372083	-0.488200
H97	H	0.729682	-0.432133	-0.593897
H98	H	0.827970	-0.404206	-0.712766
H99	H	0.848039	-0.316227	-0.725940
H100	H	0.769817	-0.256177	-0.620243
C101	C	0.658683	-0.213175	-0.376462
C102	C	0.670211	-0.162620	-0.384000
C103	C	0.625280	-0.128124	-0.323232
C104	C	0.568820	-0.144183	-0.254925
C105	C	0.557289	-0.194740	-0.247384
C106	C	0.602220	-0.229236	-0.308152
H107	H	0.712008	-0.150730	-0.434567
H108	H	0.633816	-0.090698	-0.328815
H109	H	0.535559	-0.118647	-0.209941
H110	H	0.515492	-0.206630	-0.196816
H111	H	0.593684	-0.266661	-0.302569
C112	C	1.287162	-0.431708	-0.578731
C113	C	1.342661	-0.460663	-0.640249
C114	C	1.398146	-0.438010	-0.701758
C115	C	1.398133	-0.386401	-0.701748
C116	C	1.342632	-0.357443	-0.640227
C117	C	1.287147	-0.380096	-0.578718
H118	H	1.342672	-0.498869	-0.640259
H119	H	1.439231	-0.459447	-0.747300
H120	H	1.439206	-0.369632	-0.747280
H121	H	1.342620	-0.319237	-0.640217
H122	H	1.246062	-0.358659	-0.533177
H123	H	1.323296	-0.656284	-0.618752
H124	H	1.039304	-0.640168	-0.304032
C125	C	1.075316	-0.518223	-0.343899
C126	C	1.086953	-0.509559	-0.249719
C127	C	1.031470	-0.532217	-0.188215
C128	C	0.964350	-0.563540	-0.220891
C129	C	0.952710	-0.572205	-0.315075
C130	C	1.008193	-0.549547	-0.376579
H131	H	1.136641	-0.486371	-0.225526
H132	H	1.040087	-0.525802	-0.118493
H133	H	0.923279	-0.580313	-0.175362
H134	H	0.903022	-0.595393	-0.339269
H135	H	0.999576	-0.555962	-0.446301
H136	H	1.089994	-1.084733	-0.360053
C137	C	1.337757	-0.748913	-0.634760
C138	C	1.432627	-0.744956	-0.632831
C139	C	1.488154	-0.773898	-0.694350
C140	C	1.448811	-0.806798	-0.757798
C141	C	1.353935	-0.810757	-0.759729
C142	C	1.298408	-0.781815	-0.698210
H143	H	1.461757	-0.720600	-0.585861
H144	H	1.558388	-0.770967	-0.692920
H145	H	1.489915	-0.828223	-0.803338
H146	H	1.324806	-0.835113	-0.806699
H147	H	1.228174	-0.784746	-0.699639
H148	H	1.250731	-0.225893	-0.950455
C149	C	1.287428	-1.004115	-0.578920
C150	C	1.382307	-1.013073	-0.577008
C151	C	1.437793	-0.990422	-0.638518
C152	C	1.398400	-0.958814	-0.701941
C153	C	1.303516	-0.949855	-0.703856
C154	C	1.248030	-0.972506	-0.642345
H155	H	1.411473	-1.036473	-0.530056
H156	H	1.508033	-0.997054	-0.637101
H157	H	1.439474	-0.942046	-0.747475
H158	H	1.274350	-0.926455	-0.750807
H159	H	1.177790	-0.965873	-0.643763
H160	H	1.089940	-0.999622	-0.360036
H161	H	1.039346	-0.725278	-0.304048
C162	C	1.075258	-0.419688	-0.343878
C163	C	1.075234	-0.368079	-0.343875
C164	C	1.019714	-0.339121	-0.282374
C165	C	0.964219	-0.361770	-0.220876
C166	C	0.964242	-0.413381	-0.220876
C167	C	1.019761	-0.442340	-0.282377
H168	H	1.116316	-0.351310	-0.389402
H169	H	1.019698	-0.300914	-0.282374
H170	H	0.923121	-0.340333	-0.175349
H171	H	0.923159	-0.430150	-0.175349
H172	H	1.019778	-0.480547	-0.282377
H173	H	1.112066	-0.296757	-0.973155
C174	C	1.025009	-0.871924	-0.288122
C175	C	1.064386	-0.903537	-0.224698
C176	C	1.008885	-0.926187	-0.163199
C177	C	0.914007	-0.917223	-0.165123
C178	C	0.874626	-0.885608	-0.228549
C179	C	0.930127	-0.862958	-0.290048
H180	H	1.134624	-0.910174	-0.223271
H181	H	1.038038	-0.949590	-0.116247
H182	H	0.872922	-0.933989	-0.119598
H183	H	0.804387	-0.878970	-0.229976
H184	H	0.900974	-0.839555	-0.337001
C185	C	1.024976	-0.773409	-0.288081
C186	C	1.036625	-0.777653	-0.193909
C187	C	0.981119	-0.748709	-0.132373
C188	C	0.913964	-0.715521	-0.165010
C189	C	0.902312	-0.711276	-0.259186
C190	C	0.957818	-0.740220	-0.320722
H191	H	1.086340	-0.802221	-0.169745
H192	H	0.989746	-0.751852	-0.062657
H193	H	0.872876	-0.694095	-0.119457
H194	H	0.852597	-0.686707	-0.283350
H195	H	0.949192	-0.737077	-0.390438
H196	H	1.323356	-0.797034	-0.618802
H197	H	1.323387	-0.882154	-0.618824
