data_functionalizedCrystal
_audit_creation_method	'MofGen! by Chris Wilmer'
_symmetry_space_group_name_H-M	'P1'
_symmetry_Int_Tables_number	1
_symmetry_cell_setting	triclinic
loop_
_symmetry_equiv_pos_as_xyz
  x,y,z
_cell_length_a	8.559649
_cell_length_b	14.472310
_cell_length_c	8.597304
_cell_angle_alpha	97.700797
_cell_angle_beta	77.624695
_cell_angle_gamma	90.012175
loop_
_atom_site_label
_atom_site_type_symbol
_atom_site_fract_x
_atom_site_fract_y
_atom_site_fract_z
O1	O	2.119317	0.072594	-0.053155
O2	O	1.655379	0.079039	0.027744
O3	O	1.896473	0.057539	-0.242270
O4	O	1.878224	0.094095	0.216859
O5	O	1.896410	-0.096142	-0.242249
O6	O	1.655316	-0.074641	0.027766
O7	O	2.119254	-0.081086	-0.053134
Cu8	Cu	1.887280	-0.091896	-0.012682
Cu9	Cu	1.887354	0.089849	-0.012707
O10	O	1.878161	-0.059585	0.216881
C11	C	1.595914	0.002687	0.033886
C12	C	1.418819	0.004142	0.052135
N13	N	1.887239	-0.219725	-0.012666
C14	C	1.887352	-0.593820	-0.012714
C15	C	1.757901	-0.543180	0.131387
C16	C	1.758212	-0.436058	0.131818
C17	C	1.887294	-0.408228	-0.012690
C18	C	2.054260	-0.445820	0.002952
C19	C	2.053535	-0.552862	0.003953
C20	C	1.851315	-0.567113	-0.173016
C21	C	1.847516	-0.459862	-0.171460
C22	C	1.887273	-0.303339	-0.012681
C23	C	1.887385	-0.698709	-0.012720
C24	C	2.178720	-0.004732	-0.059275
C25	C	2.355814	-0.006181	-0.077524
C26	C	1.894478	-0.023936	-0.300494
C27	C	1.888611	-0.037746	-0.474012
N28	N	1.887407	0.217677	-0.012737
C29	C	1.880155	0.021891	0.275104
C30	C	1.886023	0.035707	0.448622
H31	H	1.437355	-0.016126	-0.202492
H32	H	1.724681	-0.435461	-0.183798
H33	H	2.153008	-0.586881	-0.097938
C34	C	2.187659	-0.422472	-0.136184
C35	C	2.146436	-0.368872	-0.265936
C36	C	2.279833	-0.345521	-0.405073
C37	C	2.454454	-0.375771	-0.414457
C38	C	2.495685	-0.429375	-0.284700
C39	C	2.362288	-0.452725	-0.145563
H40	H	2.017164	-0.346476	-0.258994
H41	H	2.249310	-0.305840	-0.501128
H42	H	2.553202	-0.358486	-0.517454
H43	H	2.624957	-0.451771	-0.291642
H44	H	2.392811	-0.492406	-0.049508
H45	H	1.888291	0.109164	-0.484867
C46	C	1.885529	-0.136991	-0.563854
C47	C	1.743599	-0.166133	-0.641504
C48	C	1.740517	-0.265376	-0.731346
C49	C	1.879365	-0.335478	-0.743539
C50	C	2.021306	-0.306338	-0.665888
C51	C	2.024388	-0.207095	-0.576045
H52	H	1.640806	-0.114238	-0.632480
H53	H	1.635443	-0.286947	-0.788829
H54	H	1.877084	-0.408944	-0.810046
H55	H	2.124099	-0.358233	-0.674912
H56	H	2.129462	-0.185524	-0.518562
H57	H	1.337269	0.014097	0.177111
H58	H	1.634186	-0.410308	0.125457
H59	H	1.633480	-0.569442	0.125424
C60	C	2.095896	-0.574101	0.161061
C61	C	2.244558	-0.635538	0.154868
C62	C	2.286917	-0.656770	0.311981
C63	C	2.180614	-0.616566	0.475286
C64	C	2.031942	-0.555126	0.481485
C65	C	1.989583	-0.533893	0.324372
H66	H	2.323259	-0.665303	0.033974
H67	H	2.396974	-0.702253	0.307391
H68	H	2.211970	-0.632283	0.591590
H69	H	1.953241	-0.525361	0.602379
H70	H	1.879526	-0.488411	0.328962
C71	C	1.789662	-0.388581	0.293084
C72	C	1.945921	-0.410859	0.343839
C73	C	1.977377	-0.363385	0.505112
C74	C	1.852573	-0.293632	0.615629
C75	C	1.696303	-0.271351	0.564876
C76	C	1.664847	-0.318825	0.403603
H77	H	2.038318	-0.462498	0.262026
H78	H	2.093059	-0.379879	0.542682
H79	H	1.875858	-0.258488	0.735013
H80	H	1.603907	-0.219712	0.646689
H81	H	1.549165	-0.302331	0.366033
C82	C	1.690189	-0.605793	-0.200034
C83	C	1.589272	-0.662137	-0.076869
C84	C	1.428140	-0.700817	-0.103866
C85	C	1.367924	-0.683153	-0.254028
C86	C	1.468843	-0.626807	-0.377204
C87	C	1.629975	-0.588127	-0.350207
H88	H	1.633846	-0.675215	0.034300
H89	H	1.353433	-0.742529	-0.012682
H90	H	1.248644	-0.711786	-0.274013
H91	H	1.424269	-0.613728	-0.488372
H92	H	1.704682	-0.546415	-0.441391
H93	H	1.780874	-0.560637	0.250111
H94	H	2.086308	-0.409839	0.117796
H95	H	1.935481	-0.441903	-0.282165
H96	H	1.945688	-0.600959	-0.280014
