data_functionalizedCrystal
_audit_creation_method	'MofGen! by Chris Wilmer'
_symmetry_space_group_name_H-M	'P1'
_symmetry_Int_Tables_number	1
_symmetry_cell_setting	triclinic
loop_
_symmetry_equiv_pos_as_xyz
  x,y,z
_cell_length_a	15.995343
_cell_length_b	15.995343
_cell_length_c	10.868271
_cell_angle_alpha	89.990143
_cell_angle_beta	90.000003
_cell_angle_gamma	83.489184
loop_
_atom_site_label
_atom_site_type_symbol
_atom_site_fract_x
_atom_site_fract_y
_atom_site_fract_z
O1	O	1.110986	0.107896	-0.102212
O2	O	0.867210	0.121231	-0.102243
O3	O	0.995765	-0.007325	-0.102204
O4	O	0.982431	0.236452	-0.102251
O5	O	0.995755	-0.007330	0.102441
O6	O	0.867199	0.121226	0.102402
O7	O	1.110976	0.107891	0.102433
Zn8	Zn	0.989086	0.114558	0.134909
Zn9	Zn	0.989100	0.114564	-0.134719
O10	O	0.982420	0.236447	0.102393
C11	C	0.836010	0.120678	0.000076
C12	C	0.743059	0.119029	0.000065
C13	C	0.572873	0.116035	0.000082
C14	C	0.549530	0.023238	0.000099
C15	C	0.452852	0.021492	0.000571
C16	C	0.405313	0.113087	0.000097
C17	C	0.434397	0.159744	0.116718
C18	C	0.531190	0.160845	0.116808
C19	C	0.531112	0.162209	-0.115919
C20	C	0.434617	0.158783	-0.117444
C21	C	0.310615	0.111425	0.000110
C22	C	0.667571	0.117700	0.000077
C23	C	0.995210	-0.038522	0.000122
C24	C	0.993561	-0.131473	0.000131
C25	C	0.990567	-0.301659	0.000103
C26	C	0.897770	-0.325002	0.000088
C27	C	0.896024	-0.421680	-0.000390
C28	C	0.987619	-0.469219	0.000076
C29	C	1.034285	-0.440118	-0.116545
C30	C	1.035385	-0.343326	-0.116629
C31	C	1.036732	-0.343436	0.116099
C32	C	1.033306	-0.439931	0.117617
C33	C	0.985957	-0.563917	0.000057
C34	C	0.992231	-0.206961	0.000114
C35	C	1.142176	0.108444	0.000111
C36	C	1.235127	0.110093	0.000114
C37	C	0.982976	0.267644	0.000065
C38	C	0.984625	0.360595	0.000048
N39	N	0.989082	0.114553	0.318923
N40	N	0.989110	0.114563	-0.318733
C41	C	0.989095	0.114563	0.569929
C42	C	0.989085	0.114560	0.430252
H43	H	0.578511	-0.012147	0.083618
H44	H	0.862391	-0.296010	-0.083427
H45	H	1.007449	-0.315173	0.204526
H46	H	1.105034	-0.329418	0.117240
H47	H	0.999323	-0.458497	0.203896
H48	H	0.859486	-0.440705	0.083184
H49	H	0.577542	-0.012729	-0.083517
H50	H	0.433838	-0.015031	-0.083009
H51	H	0.434412	-0.014864	0.084673
H52	H	0.559387	0.132933	-0.204343
H53	H	1.101696	-0.471966	-0.120547
H54	H	0.545123	0.230513	-0.117057
H55	H	0.861796	-0.297000	0.083708
H56	H	0.416065	0.124806	-0.203722
H57	H	0.859678	-0.440109	-0.084494
H58	H	1.100142	-0.472881	0.125019
H59	H	1.003454	-0.316532	-0.204146
H60	H	0.557972	0.128906	0.204329
H61	H	0.545761	0.228895	0.121782
H62	H	0.414302	0.127727	0.203849
H63	H	0.402549	0.227155	0.120714
H64	H	0.401659	0.225616	-0.124861
H65	H	1.002274	-0.460200	-0.203676
H66	H	1.103437	-0.328754	-0.121591
