data_functionalizedCrystal
_audit_creation_method	'MofGen! by Chris Wilmer'
_symmetry_space_group_name_H-M	'P1'
_symmetry_Int_Tables_number	1
_symmetry_cell_setting	triclinic
loop_
_symmetry_equiv_pos_as_xyz
  x,y,z
_cell_length_a	18.215407
_cell_length_b	18.215405
_cell_length_c	21.395355
_cell_angle_alpha	90.019851
_cell_angle_beta	90.021756
_cell_angle_gamma	90.022344
loop_
_atom_site_label
_atom_site_type_symbol
_atom_site_fract_x
_atom_site_fract_y
_atom_site_fract_z
Zn1	Zn	1.125107	-0.293119	0.354209
Zn2	Zn	1.125005	-0.416168	0.249429
Zn3	Zn	1.002029	-0.293114	0.249451
Zn4	Zn	1.002006	-0.416143	0.354174
O5	O	1.063537	-0.354636	0.301816
O6	O	1.228078	-0.309454	0.340315
O7	O	1.108659	-0.399852	0.161754
O8	O	1.018408	-0.190131	0.263371
O9	O	1.228003	-0.399858	0.263334
O10	O	1.108833	-0.190134	0.340336
O11	O	1.018310	-0.309445	0.161770
O12	O	0.899042	-0.309422	0.263337
O13	O	1.018368	-0.399816	0.441857
O14	O	0.899024	-0.399811	0.340277
O15	O	1.108810	-0.309431	0.441882
O16	O	1.108636	-0.519149	0.263300
O17	O	1.018269	-0.519131	0.340256
C18	C	0.872331	-0.354614	0.301806
C19	C	0.790532	-0.354622	0.301817
C20	C	0.525484	-0.401779	0.341823
C21	C	0.602343	-0.401773	0.341820
C22	C	0.602331	-0.307510	0.261819
C23	C	0.525473	-0.307520	0.261819
C24	C	0.487052	-0.354654	0.301825
C25	C	0.640768	-0.354637	0.301822
C26	C	0.724102	-0.354630	0.301818
C27	C	0.403713	-0.354662	0.301828
C28	C	1.063459	-0.545842	0.301786
C29	C	1.063493	-0.627641	0.301794
C30	C	1.110658	-0.815820	0.261796
C31	C	1.110691	-0.892679	0.261812
C32	C	1.016510	-0.892700	0.341880
C33	C	1.016481	-0.815843	0.341868
C34	C	1.063554	-0.777405	0.301822
C35	C	1.063616	-0.931121	0.301850
C36	C	1.063651	-1.014454	0.301867
C37	C	1.063520	-0.694066	0.301806
C38	C	1.255490	-0.354659	0.301826
C39	C	1.337289	-0.354669	0.301830
C40	C	1.063598	-0.354621	0.465239
C41	C	1.063624	-0.354615	0.534880
C42	C	1.063635	-0.162683	0.301860
C43	C	1.063677	-0.080884	0.301878
C44	C	1.063518	-0.354598	0.139028
C45	C	1.063635	-0.354397	0.069387
C46	C	1.110715	-0.307549	0.567608
C47	C	1.110714	-0.307518	0.633043
C48	C	1.063630	-0.354565	0.665749
C49	C	1.016529	-0.401634	0.633013
C50	C	1.016526	-0.401659	0.567579
C51	C	1.057792	-0.420829	0.769413
C52	C	1.057800	-0.420805	0.834846
C53	C	1.063634	-0.354487	0.867570
C54	C	1.069476	-0.288191	0.834852
C55	C	1.069473	-0.288216	0.769418
C56	C	1.063627	-0.354542	0.736701
C57	C	1.110727	-0.307383	0.971250
C58	C	1.110721	-0.307350	1.036686
C59	C	1.016540	-0.401473	1.036655
C60	C	1.016542	-0.401499	0.971220
C61	C	1.063639	-0.354455	0.938521
H62	H	0.633622	-0.269134	0.229249
H63	H	1.052844	-0.474819	0.742775
H64	H	1.074228	-0.234189	0.861494
H65	H	0.978124	-0.784563	0.374464
N66	N	0.965733	-0.934155	0.385066
H67	H	0.995631	-0.966005	0.414130
H68	H	0.931666	-0.966040	0.359536
H69	H	0.978190	-0.439937	0.659646
H70	H	1.149065	-0.269242	0.540988
N71	N	1.161436	-0.774358	0.218616
H72	H	1.131538	-0.742511	0.189550
H73	H	1.191273	-0.810404	0.193306
N74	N	1.161507	-0.256752	0.668353
H75	H	1.191341	-0.226954	0.637709
H76	H	1.195545	-0.286709	0.695510
H77	H	0.494181	-0.269144	0.229245
N78	N	1.161494	-0.934106	0.218635
H79	H	1.131615	-0.966037	0.189583
H80	H	1.195589	-0.965908	0.244170
H81	H	1.149067	-0.269020	1.063332
H82	H	0.978195	-0.439772	1.063283
H83	H	1.074228	-0.234236	0.742782
N84	N	0.484049	-0.452624	0.384965
H85	H	0.452141	-0.486688	0.359450
H86	H	0.452223	-0.422721	0.414040
N87	N	0.643790	-0.452605	0.384961
H88	H	0.630440	-0.441249	0.429745
H89	H	0.698297	-0.445429	0.378838
H90	H	1.149072	-0.269073	0.944625
H91	H	0.978200	-0.439829	0.944573
N92	N	1.051505	-0.492305	0.870132
H93	H	1.047799	-0.534320	0.839474
H94	H	1.006163	-0.491227	0.897269
N95	N	0.965723	-0.452414	0.532276
H96	H	0.935888	-0.482209	0.562921
H97	H	0.995651	-0.486490	0.505132
