data_functionalizedCrystal
_audit_creation_method	'MofGen! by Chris Wilmer'
_symmetry_space_group_name_H-M	'P1'
_symmetry_Int_Tables_number	1
_symmetry_cell_setting	triclinic
loop_
_symmetry_equiv_pos_as_xyz
  x,y,z
_cell_length_a	16.956984
_cell_length_b	15.455301
_cell_length_c	14.971486
_cell_angle_alpha	87.002686
_cell_angle_beta	100.166226
_cell_angle_gamma	93.167959
loop_
_atom_site_label
_atom_site_type_symbol
_atom_site_fract_x
_atom_site_fract_y
_atom_site_fract_z
O1	O	1.061194	0.072136	-0.040321
O2	O	0.829066	0.072137	-0.071722
O3	O	0.951351	0.072130	0.074646
O4	O	0.938909	0.072142	-0.186689
O5	O	0.945103	-0.072133	0.081177
O6	O	0.822818	-0.072126	-0.065191
O7	O	1.054945	-0.072127	-0.033790
Cu8	Cu	0.938311	-0.085299	-0.048894
Cu9	Cu	0.945700	0.085308	-0.056618
O10	O	0.932660	-0.072121	-0.180159
C11	C	0.796235	0.000005	-0.070065
C12	C	0.707719	0.000005	-0.074845
N13	N	0.933120	-0.205295	-0.043461
C14	C	0.675559	-0.000000	0.005085
C15	C	0.592388	0.000006	0.000588
C16	C	0.541379	0.000012	-0.083841
C17	C	0.573545	0.000020	-0.163778
C18	C	0.656715	0.000020	-0.159280
C19	C	0.291628	0.000019	-0.106106
C20	C	0.208453	0.000017	-0.110598
C21	C	0.227302	0.000005	0.053768
C22	C	0.310472	-0.000001	0.058259
C23	C	0.342631	0.000012	-0.021678
N24	N	0.456365	0.000016	-0.088440
N25	N	0.427644	0.000014	-0.017078
C26	C	0.979564	-0.250684	-0.092110
C27	C	0.975648	-0.341492	-0.087995
C28	C	0.925284	-0.386911	-0.035235
C29	C	0.878838	-0.341516	0.013420
C30	C	0.882758	-0.250709	0.009309
C31	C	0.908372	-0.658494	-0.017499
C32	C	0.904454	-0.749307	-0.013394
C33	C	1.001266	-0.749277	-0.114808
C34	C	1.005179	-0.658468	-0.118919
C35	C	0.958736	-0.613082	-0.070260
N36	N	0.921278	-0.479731	-0.031030
N37	N	0.962746	-0.520263	-0.074461
C38	C	1.087776	0.000006	-0.035448
C39	C	1.176293	0.000011	-0.030667
C40	C	0.947671	-0.000001	0.111195
C41	C	0.946003	-0.000001	0.210366
N42	N	0.950898	0.205305	-0.062043
C43	C	0.936341	0.000012	-0.216707
C44	C	0.938009	0.000017	-0.315879
C45	C	1.017842	-0.000002	0.272990
C46	C	1.016271	0.000007	0.366171
C47	C	0.942859	0.000011	0.396727
C48	C	0.871015	0.000014	0.334095
C49	C	0.872587	0.000012	0.240916
C50	C	0.867742	0.000017	0.528312
C51	C	0.866169	0.000018	0.621498
C52	C	1.011426	0.000013	0.653567
C53	C	1.012999	0.000010	0.560387
C54	C	0.941154	0.000012	0.497762
H55	H	0.717085	-0.000008	0.073837
H56	H	0.863436	-0.786285	0.029569
H57	H	1.046193	-0.621495	-0.161878
H58	H	0.870555	-0.621551	0.022123
H59	H	0.814088	0.000013	0.189927
H60	H	1.074770	0.000005	0.417156
H61	H	1.072777	0.000001	0.535513
H62	H	0.201109	0.000004	0.118848
H63	H	1.013470	-0.378443	-0.127609
H64	H	1.020572	-0.213710	-0.135079
H65	H	1.069926	0.000014	0.704561
H66	H	0.682898	0.000020	-0.224368
H67	H	1.077623	-0.000010	0.248120
H68	H	0.837833	-0.378503	0.056383
H69	H	0.317801	0.000035	-0.171197
H70	H	0.532007	0.000030	-0.232522
H71	H	0.844937	-0.213756	0.048924
H72	H	0.166922	0.000017	-0.179354
H73	H	0.809238	0.000021	0.477324
H74	H	0.806391	0.000007	0.646373
H75	H	0.811242	0.000022	0.358981
H76	H	0.351999	-0.000009	0.127010
H77	H	0.566207	0.000003	0.065676
H78	H	1.039078	-0.786240	-0.154423
