data_functionalizedCrystal
_audit_creation_method	'MofGen! by Chris Wilmer'
_symmetry_space_group_name_H-M	'P1'
_symmetry_Int_Tables_number	1
_symmetry_cell_setting	triclinic
loop_
_symmetry_equiv_pos_as_xyz
  x,y,z
_cell_length_a	23.532407
_cell_length_b	23.532407
_cell_length_c	9.130307
_cell_angle_alpha	90.004242
_cell_angle_beta	90.000472
_cell_angle_gamma	82.848712
loop_
_atom_site_label
_atom_site_type_symbol
_atom_site_fract_x
_atom_site_fract_y
_atom_site_fract_z
O1	O	0.755259	0.069131	0.121722
O2	O	0.589395	0.079134	0.121747
O3	O	0.677329	-0.008799	0.121707
O4	O	0.667326	0.157064	0.121762
O5	O	0.677322	-0.008793	-0.121892
O6	O	0.589389	0.079140	-0.121852
O7	O	0.755252	0.069137	-0.121877
Cu8	Cu	0.672320	0.074139	-0.144107
Cu9	Cu	0.672328	0.074132	0.143977
O10	O	0.667319	0.157070	-0.121837
C11	C	0.568176	0.078882	-0.000050
C12	C	0.504959	0.078116	-0.000041
C13	C	0.238792	0.022921	-0.000099
C14	C	0.298192	0.023632	-0.000099
O15	O	0.334937	-0.020153	-0.000164
N16	N	0.320818	0.075909	-0.000071
C17	C	0.284041	0.127477	-0.000060
O18	O	0.308740	0.172007	-0.000038
C19	C	0.224642	0.126765	-0.000071
C20	C	0.202019	0.074485	-0.000083
C21	C	0.216169	-0.029354	-0.000114
C22	C	0.156772	-0.030066	-0.000111
C23	C	0.119999	0.021499	-0.000095
C24	C	0.142623	0.073774	-0.000081
C25	C	0.187865	0.178333	-0.000069
C26	C	0.128463	0.177616	-0.000082
C27	C	0.105840	0.125336	-0.000094
C28	C	0.046454	0.124627	-0.000063
N29	N	0.023828	0.072351	-0.000090
C30	C	0.060600	0.020787	-0.000106
C31	C	0.408783	0.128968	-0.000039
C32	C	0.468181	0.129681	-0.000017
C33	C	0.482328	0.025836	-0.000059
C34	C	0.422929	0.025124	-0.000070
C35	C	0.386157	0.076692	-0.000066
C36	C	-0.064136	0.019297	-0.000101
C37	C	-0.123538	0.018590	-0.000092
C38	C	-0.137680	0.122435	-0.000058
C39	C	-0.078284	0.123142	-0.000059
C40	C	-0.041512	0.071568	-0.000085
O41	O	0.009675	0.168390	-0.000003
O42	O	0.035892	-0.023737	-0.000148
C43	C	0.677071	-0.030012	-0.000096
C44	C	0.676305	-0.093229	-0.000108
C45	C	0.776472	0.069389	-0.000077
C46	C	0.839689	0.070155	-0.000076
C47	C	0.723538	-0.492332	-0.000034
C48	C	0.722827	-0.551733	-0.000023
O49	O	0.766613	-0.588477	0.000024
N50	N	0.670551	-0.574359	-0.000016
C51	C	0.618982	-0.537581	-0.000006
O52	O	0.574452	-0.562281	0.000002
C53	C	0.619695	-0.478182	-0.000007
C54	C	0.671974	-0.455559	-0.000028
C55	C	0.775814	-0.469709	-0.000055
C56	C	0.776525	-0.410313	-0.000069
C57	C	0.724961	-0.373540	-0.000062
C58	C	0.672685	-0.396163	-0.000042
C59	C	0.568127	-0.441406	0.000014
C60	C	0.568843	-0.382003	0.000015
C61	C	0.621123	-0.359381	-0.000007
C62	C	0.621832	-0.299994	-0.000050
N63	N	0.674109	-0.277368	-0.000057
C64	C	0.725673	-0.314141	-0.000063
C65	C	0.617491	-0.662324	-0.000002
C66	C	0.616778	-0.721722	-0.000011
C67	C	0.720623	-0.735869	-0.000026
C68	C	0.721335	-0.676470	-0.000027
C69	C	0.669767	-0.639698	-0.000009
C70	C	0.727163	-0.189404	-0.000094
C71	C	0.727869	-0.130002	-0.000114
C72	C	0.624025	-0.115860	-0.000091
C73	C	0.623318	-0.175257	-0.000079
C74	C	0.674891	-0.212028	-0.000075
O75	O	0.578069	-0.263215	-0.000091
O76	O	0.770196	-0.289433	-0.000052
C77	C	0.667577	0.178283	-0.000031
C78	C	0.668343	0.241500	-0.000010
N79	N	0.672319	0.074143	-0.346730
C80	C	0.603654	0.005383	-0.653403
C81	C	0.569307	-0.028980	-0.576738
C82	C	0.569297	-0.028969	-0.423404
C83	C	0.603637	0.005407	-0.346733
C84	C	0.637984	0.039770	-0.423398
C85	C	0.637989	0.039756	-0.576735
C86	C	0.706665	0.108506	-0.423395
C87	C	0.706674	0.108499	-0.576729
C88	C	0.741006	0.142882	-0.346724
C89	C	0.775350	0.177249	-0.423389
C90	C	0.775359	0.177237	-0.576732
C91	C	0.741020	0.142862	-0.653394
N92	N	0.672333	0.074123	0.346600
H93	H	0.404515	-0.017447	-0.000082
H94	H	-0.059864	0.165712	-0.000047
Cl95	Cl	-0.183920	0.187255	-0.000031
H96	H	0.770443	-0.111587	-0.000135
Cl97	Cl	0.603658	0.005374	-0.846166
Cl98	Cl	0.528568	-0.038988	-0.000079
Cl99	Cl	0.551053	-0.750154	-0.000012
Cl100	Cl	0.526139	-0.072193	-0.673131
Cl101	Cl	0.362560	0.193803	-0.000015
Cl102	Cl	0.791999	-0.235622	-0.000091
H103	H	0.526850	-0.352065	0.000032
H104	H	0.819097	-0.391900	-0.000080
H105	H	0.817806	-0.499644	-0.000054
H106	H	0.575496	-0.632386	0.000001
H107	H	0.763906	-0.658055	-0.000043
H108	H	-0.141954	-0.023984	-0.000099
Cl109	Cl	0.128342	-0.095792	-0.000114
H110	H	0.803310	0.205232	-0.360951
H111	H	0.803330	0.205218	-0.639144
H112	H	0.486595	0.172252	0.000013
Cl113	Cl	0.526126	-0.072176	-0.327021
Cl114	Cl	0.603632	0.005410	-0.153969
Cl115	Cl	0.502400	-0.469830	0.000051
H116	H	0.580747	-0.193677	-0.000102
Cl117	Cl	0.262388	-0.094187	-0.000135
Cl118	Cl	0.740997	0.142891	-0.153960
H119	H	0.206274	0.220904	-0.000053
H120	H	-0.034204	-0.022699	-0.000121
Cl121	Cl	0.082238	0.242449	-0.000082
H122	H	0.582043	-0.085909	-0.000091
H123	H	0.762610	-0.765821	-0.000026
H124	H	0.741023	0.142851	-0.778246
