data_functionalizedCrystal
_audit_creation_method	'MofGen! by Chris Wilmer'
_symmetry_space_group_name_H-M	'P1'
_symmetry_Int_Tables_number	1
_symmetry_cell_setting	triclinic
loop_
_symmetry_equiv_pos_as_xyz
  x,y,z
_cell_length_a	10.723023
_cell_length_b	15.995350
_cell_length_c	9.198806
_cell_angle_alpha	89.999047
_cell_angle_beta	89.996513
_cell_angle_gamma	83.979961
loop_
_atom_site_label
_atom_site_type_symbol
_atom_site_fract_x
_atom_site_fract_y
_atom_site_fract_z
O1	O	1.655690	0.117432	-0.120870
O2	O	1.292394	0.128673	-0.120875
O3	O	1.483973	0.001222	-0.120871
O4	O	1.464111	0.244883	-0.120874
O5	O	1.483958	0.001221	0.120914
O6	O	1.292379	0.128673	0.120910
O7	O	1.655675	0.117431	0.120915
Cu8	Cu	1.474026	0.123052	0.142990
Cu9	Cu	1.474044	0.123052	-0.142949
O10	O	1.464096	0.244883	0.120911
C11	C	1.245898	0.127855	0.000017
C12	C	1.107374	0.125408	0.000014
C13	C	1.045608	0.124316	0.125265
C14	C	0.902438	0.121787	0.125266
C15	C	1.483144	-0.029978	0.000019
C16	C	1.480683	-0.122942	0.000011
C17	C	1.471842	-0.460741	0.000015
C18	C	1.335403	-0.414090	-0.000529
C19	C	1.337865	-0.317386	0.000016
C20	C	1.476227	-0.293155	0.000012
C21	C	1.543515	-0.333846	0.138082
C22	C	1.540088	-0.430502	0.138197
C23	C	1.542923	-0.430843	-0.136758
C24	C	1.542891	-0.333898	-0.138582
C25	C	1.478713	-0.198443	0.000015
C26	C	1.469361	-0.555453	0.000022
C27	C	1.702172	0.118249	0.000020
C28	C	1.840695	0.120696	0.000013
C29	C	1.464925	0.276082	0.000018
C30	C	1.467387	0.369047	0.000017
N31	N	1.474022	0.123051	0.344103
N32	N	1.474057	0.123047	-0.344063
C33	C	1.554464	0.069302	0.416302
C34	C	1.554483	0.069299	0.583714
H35	H	0.849319	0.120853	0.232497
O36	O	1.391842	0.178031	0.582112
C37	C	1.223873	0.290203	0.597879
C38	C	1.316932	0.227993	0.681679
H39	H	1.163267	0.330602	0.678343
H40	H	1.277919	0.332270	0.526648
H41	H	1.161481	0.253744	0.526590
H42	H	1.379348	0.264383	0.753047
H43	H	1.262809	0.185926	0.752819
H44	H	0.893803	0.121640	-0.107224
H45	H	1.054262	0.124467	-0.107217
O46	O	1.109121	0.125326	0.253105
C47	C	1.270314	0.055485	0.405907
C48	C	1.198508	0.054249	0.261058
H49	H	1.342582	-0.001983	0.412398
H50	H	1.319931	0.115017	0.412423
H51	H	1.201513	0.054312	0.500189
H52	H	1.267225	0.055392	0.166694
H53	H	1.148871	-0.005278	0.254669
O54	O	1.662856	-0.468179	-0.137957
C55	C	1.797908	-0.598399	-0.144399
C56	C	1.662034	-0.556220	-0.143095
H57	H	1.797289	-0.669587	-0.148521
H58	H	1.848924	-0.576500	-0.243891
H59	H	1.848109	-0.580330	-0.041633
H60	H	1.611727	-0.574270	-0.245792
H61	H	1.611113	-0.578120	-0.043534
H62	H	1.405163	0.169063	0.406230
O63	O	1.636818	0.014479	0.657706
C64	C	1.853610	-0.033666	0.704441
C65	C	1.760503	0.028481	0.620579
H66	H	1.953628	-0.022379	0.674431
H67	H	1.839097	-0.023890	0.826280
H68	H	1.837019	-0.100787	0.674617
H69	H	1.777037	0.095626	0.650280
H70	H	1.775037	0.018632	0.498760
O71	O	1.274666	-0.283967	-0.118087
C72	C	1.157563	-0.310875	-0.333619
C73	C	1.229089	-0.348825	-0.199911
H74	H	1.120717	-0.363296	-0.399826
H75	H	1.075541	-0.264713	-0.296407
H76	H	1.223567	-0.276516	-0.403665
H77	H	1.163185	-0.383226	-0.129807
H78	H	1.311126	-0.394943	-0.237223
O79	O	1.663323	-0.315015	-0.148664
C80	C	1.881850	-0.368315	-0.158269
C81	C	1.745523	-0.389830	-0.146847
H82	H	1.948348	-0.428789	-0.156773
H83	H	1.894539	-0.333072	-0.264077
H84	H	1.903589	-0.327143	-0.062299
H85	H	1.723692	-0.431028	-0.242739
H86	H	1.732903	-0.425031	-0.040980
O87	O	1.636488	0.014304	0.342232
C88	C	1.709071	-0.130891	0.295327
C89	C	1.616086	-0.068708	0.379291
H90	H	1.692626	-0.198019	0.325281
H91	H	1.694395	-0.121157	0.173503
H92	H	1.809103	-0.119523	0.325112
H93	H	1.516018	-0.080038	0.349628
H94	H	1.630871	-0.078456	0.501094
O95	O	1.270156	-0.436586	-0.118486
C96	C	1.089399	-0.498970	-0.206000
C97	C	1.163156	-0.473514	-0.072285
H98	H	1.002889	-0.528848	-0.168695
H99	H	1.059197	-0.440857	-0.274230
H100	H	1.151572	-0.546106	-0.274081
H101	H	1.101058	-0.426398	-0.004094
H102	H	1.193374	-0.531667	-0.004164
O103	O	1.270541	-0.437680	0.116978
C104	C	1.159308	-0.393384	0.336005
C105	C	1.232714	-0.366550	0.202979
H106	H	1.128727	-0.335893	0.405589
H107	H	1.073048	-0.423294	0.297976
H108	H	1.221892	-0.440853	0.402986
H109	H	1.170233	-0.319057	0.135941
H110	H	1.318985	-0.336689	0.241106
O111	O	1.274332	-0.284360	0.118188
C112	C	1.204386	-0.159076	0.253245
C113	C	1.276346	-0.196364	0.119332
H114	H	1.206012	-0.087930	0.254231
H115	H	1.103141	-0.174676	0.248420
H116	H	1.250810	-0.187035	0.356289
H117	H	1.230029	-0.168427	0.016220
H118	H	1.377589	-0.180772	0.124285
O119	O	1.481598	-0.452826	0.261270
C120	C	1.411271	-0.565802	0.402451
C121	C	1.477568	-0.540645	0.263032
H122	H	1.407968	-0.636802	0.403907
H123	H	1.465016	-0.546242	0.501597
H124	H	1.311659	-0.532967	0.405015
H125	H	1.577180	-0.573468	0.260327
H126	H	1.423728	-0.560189	0.163951
H127	H	1.640259	-0.462175	0.144459
O128	O	1.664827	-0.316408	0.144408
C129	C	1.859815	-0.333936	0.276609
C130	C	1.722463	-0.353765	0.269609
H131	H	1.906447	-0.364115	0.377841
H132	H	1.912012	-0.360010	0.175708
H133	H	1.862640	-0.262944	0.281503
H134	H	1.719522	-0.424746	0.264762
H135	H	1.670326	-0.327634	0.370508
H136	H	1.496768	-0.305733	0.240831
H137	H	1.498321	-0.451639	-0.241406
H138	H	1.493695	-0.306932	-0.240722
