data_functionalizedCrystal
_audit_creation_method	'MofGen! by Chris Wilmer'
_symmetry_space_group_name_H-M	'P1'
_symmetry_Int_Tables_number	1
_symmetry_cell_setting	triclinic
loop_
_symmetry_equiv_pos_as_xyz
  x,y,z
_cell_length_a	17.699083
_cell_length_b	17.699092
_cell_length_c	18.366186
_cell_angle_alpha	89.995439
_cell_angle_beta	89.996982
_cell_angle_gamma	83.284691
loop_
_atom_site_label
_atom_site_type_symbol
_atom_site_fract_x
_atom_site_fract_y
_atom_site_fract_z
O1	O	1.004083	0.095712	-0.060445
O2	O	1.337417	0.429045	0.272888
O3	O	1.670750	0.762379	0.606222
O4	O	0.783705	0.108164	-0.060468
O5	O	1.117039	0.441498	0.272865
O6	O	1.450372	0.774831	0.606198
O7	O	0.900117	-0.008251	-0.060454
O8	O	1.233451	0.325083	0.272879
O9	O	1.566784	0.658416	0.606212
O10	O	0.887671	0.212127	-0.060459
O11	O	1.221005	0.545460	0.272874
O12	O	1.554338	0.878794	0.606208
O13	O	0.900098	-0.008256	0.060645
O14	O	1.233431	0.325077	0.393978
O15	O	1.566764	0.658410	0.727312
O16	O	0.783686	0.108159	0.060631
O17	O	1.117019	0.441492	0.393964
O18	O	1.450352	0.774825	0.727298
O19	O	1.004064	0.095706	0.060655
O20	O	1.337397	0.429040	0.393988
O21	O	1.670730	0.762373	0.727321
Zn22	Zn	0.893872	0.101931	0.079870
Zn23	Zn	1.227205	0.435265	0.413203
Zn24	Zn	1.560538	0.768598	0.746537
Zn25	Zn	0.893898	0.101939	-0.079684
Zn26	Zn	1.227231	0.435272	0.253650
Zn27	Zn	1.560564	0.768606	0.586983
O28	O	0.887652	0.212121	0.060640
O29	O	1.220985	0.545454	0.393974
O30	O	1.554318	0.878788	0.727307
C31	C	0.899661	-0.036450	0.000094
C32	C	1.232994	0.296883	0.333428
C33	C	1.566327	0.630216	0.666761
C34	C	0.898319	-0.120468	0.000091
C35	C	1.231653	0.212865	0.333424
C36	C	1.564986	0.546199	0.666757
C37	C	0.755499	0.107715	0.000078
C38	C	1.088832	0.441049	0.333412
C39	C	1.422165	0.774382	0.666745
C40	C	0.671480	0.106377	0.000069
C41	C	1.004814	0.439710	0.333403
C42	C	1.338147	0.773043	0.666736
C43	C	0.897702	-0.159932	-0.065921
C44	C	1.231035	0.173401	0.267412
C45	C	1.564369	0.506734	0.600745
C46	C	0.896437	-0.238875	-0.065922
C47	C	1.229770	0.094458	0.267411
C48	C	1.563104	0.427791	0.600744
C49	C	0.895795	-0.278353	0.000090
C50	C	1.229128	0.054980	0.333423
C51	C	1.562462	0.388313	0.666756
C52	C	0.896410	-0.238883	0.066107
C53	C	1.229744	0.094450	0.399440
C54	C	1.563077	0.427783	0.732773
C55	C	0.897670	-0.159941	0.066107
C56	C	1.231003	0.173392	0.399440
C57	C	1.564337	0.506726	0.732774
C58	C	0.891330	-0.557248	0.066107
C59	C	1.224663	-0.223915	0.399441
C60	C	1.557997	0.109418	0.732774
C61	C	0.890073	-0.636196	0.066102
C62	C	1.223406	-0.302863	0.399435
C63	C	1.556739	0.030470	0.732769
C64	C	0.890097	-0.636183	-0.065922
C65	C	1.223430	-0.302849	0.267411
C66	C	1.556764	0.030484	0.600745
C67	C	0.891357	-0.557240	-0.065922
C68	C	1.224690	-0.223907	0.267411
C69	C	1.558023	0.109426	0.600745
C70	C	0.891968	-0.517777	0.000095
C71	C	1.225301	-0.184443	0.333428
C72	C	1.558634	0.148890	0.666762
C73	C	0.893338	-0.432178	0.000095
C74	C	1.226671	-0.098844	0.333428
C75	C	1.560005	0.234489	0.666762
C76	C	0.894430	-0.363952	0.000090
C77	C	1.227764	-0.030618	0.333423
C78	C	1.561097	0.302715	0.666757
C79	C	0.622862	0.174710	0.000068
C80	C	0.956195	0.508043	0.333401
C81	C	1.289528	0.841376	0.666735
C82	C	0.543918	0.173448	0.000077
C83	C	0.877251	0.506781	0.333411
C84	C	1.210585	0.840114	0.666744
C85	C	0.513595	0.103851	0.000083
C86	C	0.846929	0.437185	0.333416
C87	C	1.180262	0.770518	0.666750
C88	C	0.562220	0.035513	0.000086
C89	C	0.895554	0.368846	0.333420
C90	C	1.228887	0.702180	0.666753
C91	C	0.641162	0.036776	0.000082
C92	C	0.974496	0.370109	0.333415
C93	C	1.307829	0.703443	0.666749
C94	C	0.243857	0.030418	0.000104
C95	C	0.577191	0.363751	0.333438
C96	C	0.910524	0.697084	0.666771
C97	C	0.164909	0.029160	0.000107
C98	C	0.498243	0.362493	0.333440
C99	C	0.831576	0.695827	0.666773
C100	C	0.146613	0.167089	0.000100
C101	C	0.479946	0.500423	0.333433
C102	C	0.813280	0.833756	0.666766
C103	C	0.225555	0.168352	0.000096
C104	C	0.558888	0.501686	0.333429
C105	C	0.892222	0.835019	0.666762
C106	C	0.274173	0.100014	0.000103
C107	C	0.607506	0.433348	0.333436
C108	C	0.940840	0.766681	0.666769
C109	C	0.359772	0.101384	0.000094
C110	C	0.693106	0.434717	0.333427
C111	C	1.026439	0.768051	0.666761
C112	C	0.427998	0.102481	0.000087
C113	C	0.761331	0.435814	0.333420
C114	C	1.094664	0.769148	0.666753
C115	C	1.032271	0.096155	0.000106
C116	C	1.365604	0.429489	0.333440
C117	C	1.698937	0.762822	0.666773
C118	C	1.116289	0.097494	0.000111
C119	C	1.449622	0.430827	0.333444
C120	C	1.782955	0.764160	0.666777
C121	C	0.888109	0.240321	0.000090
C122	C	1.221442	0.573654	0.333424
C123	C	1.554775	0.906988	0.666757
C124	C	0.889450	0.324339	0.000089
C125	C	1.222783	0.657672	0.333422
C126	C	1.556116	0.991005	0.666756
N127	N	0.893859	0.101926	0.188761
N128	N	1.227193	0.435259	0.522094
N129	N	1.560526	0.768593	0.855428
N130	N	0.893916	0.101939	-0.188575
N131	N	1.227249	0.435272	0.144758
N132	N	1.560583	0.768605	0.478092
C133	C	0.945423	0.050403	0.226868
C134	C	1.278757	0.383736	0.560201
C135	C	1.612090	0.717069	0.893534
C136	C	0.945428	0.050399	0.303095
C137	C	1.278762	0.383733	0.636429
C138	C	1.612095	0.717066	0.969762
C139	C	0.893876	0.101932	0.341214
C140	C	1.227209	0.435265	0.674547
C141	C	1.560543	0.768599	1.007880
C142	C	0.842302	0.153459	0.303098
C143	C	1.175636	0.486793	0.636431
C144	C	1.508969	0.820126	0.969765
C145	C	0.842294	0.153456	0.226872
C146	C	1.175627	0.486790	0.560205
C147	C	1.508961	0.820123	0.893538
C148	C	0.883835	0.170881	0.461972
C149	C	1.217169	0.504214	0.795305
C150	C	1.550502	0.837548	1.128639
C151	C	0.883849	0.170885	0.538197
C152	C	1.217182	0.504218	0.871530
C153	C	1.550516	0.837552	1.204864
C154	C	0.893898	0.101942	0.576321
C155	C	1.227231	0.435275	0.909655
C156	C	1.560564	0.768608	1.242988
C157	C	0.903949	0.032991	0.538211
C158	C	1.237282	0.366324	0.871545
C159	C	1.570615	0.699658	1.204878
C160	C	0.903940	0.032988	0.461985
C161	C	1.237274	0.366321	0.795318
C162	C	1.570607	0.699655	1.128652
C163	C	0.893879	0.101941	0.423868
C164	C	1.227213	0.435274	0.757202
C165	C	1.560546	0.768608	1.090535
C166	C	0.945470	0.050410	0.697083
C167	C	1.278803	0.383744	1.030416
C168	C	1.612136	0.717077	1.363750
C169	C	0.945469	0.050406	0.773312
C170	C	1.278803	0.383739	1.106645
C171	C	1.612136	0.717073	1.439979
C172	C	0.842347	0.153473	0.773313
C173	C	1.175680	0.486806	1.106646
C174	C	1.509014	0.820139	1.439980
C175	C	0.842344	0.153471	0.697085
C176	C	1.175677	0.486804	1.030419
C177	C	1.509011	0.820137	1.363752
C178	C	0.893909	0.101940	0.658975
C179	C	1.227243	0.435274	0.992308
C180	C	1.560576	0.768607	1.325641
H181	H	0.898229	-0.127796	-0.119676
H182	H	1.231562	0.205538	0.213657
H183	H	1.564895	0.538871	0.546991
H184	H	0.647544	0.231383	0.000063
H185	H	0.980877	0.564716	0.333396
H186	H	1.314210	0.898050	0.666730
H187	H	0.891883	-0.525102	-0.119676
H188	H	1.225216	-0.191769	0.213658
H189	H	1.558550	0.141565	0.546991
H190	H	0.891843	-0.525128	0.119862
H191	H	1.225176	-0.191795	0.453196
H192	H	1.558509	0.141538	0.786529
F193	F	0.895719	-0.280900	0.136362
F194	F	1.229052	0.052434	0.469695
F195	F	1.562385	0.385767	0.803029
F196	F	0.787466	0.208312	0.656526
F197	F	1.120799	0.541645	0.989860
F198	F	1.454132	0.874979	1.323193
H199	H	0.889596	-0.668323	-0.119676
H200	H	1.222929	-0.334990	0.213657
H201	H	1.556262	-0.001656	0.546990
H202	H	0.537525	-0.021154	0.000101
H203	H	0.870859	0.312180	0.333435
H204	H	1.204192	0.645513	0.666768
H205	H	0.680748	-0.018868	0.000083
H206	H	1.014081	0.314465	0.333416
H207	H	1.347414	0.647799	0.666749
H208	H	0.504335	0.229091	0.000076
H209	H	0.837669	0.562425	0.333409
H210	H	1.171002	0.895758	0.666742
F211	F	0.257822	0.242426	0.000085
F212	F	0.591155	0.575759	0.333419
F213	F	0.924489	0.909092	0.666752
F214	F	0.914631	-0.040392	0.421428
F215	F	1.247964	0.292942	0.754762
F216	F	1.581298	0.626275	1.088095
F217	F	0.898326	-0.117940	0.136366
F218	F	1.231659	0.215393	0.469700
F219	F	1.564993	0.548726	0.803033
H220	H	0.283433	-0.025227	0.000111
H221	H	0.616767	0.308106	0.333444
H222	H	0.950100	0.641439	0.666778
F223	F	0.094864	0.239821	0.000095
F224	F	0.428197	0.573155	0.333428
F225	F	0.761530	0.906488	0.666762
H226	H	0.140224	-0.027517	0.000112
H227	H	0.473557	0.305816	0.333445
H228	H	0.806891	0.639150	0.666779
F229	F	0.895781	-0.280873	-0.136182
F230	F	1.229114	0.052460	0.197152
F231	F	1.562447	0.385794	0.530485
H232	H	0.987455	0.008449	0.666052
H233	H	1.320789	0.341782	0.999385
H234	H	1.654122	0.675116	1.332719
F235	F	1.000313	-0.004442	0.343658
F236	F	1.333646	0.328892	0.676991
F237	F	1.666979	0.662225	1.010325
F238	F	0.889388	-0.678210	0.136364
F239	F	1.222722	-0.344877	0.469698
F240	F	1.556055	-0.011543	0.803031
H241	H	0.987409	0.008442	0.195840
H242	H	1.320742	0.341775	0.529174
H243	H	1.654076	0.675109	0.862507
F244	F	0.914649	-0.040389	0.578780
F245	F	1.247982	0.292944	0.912113
F246	F	1.581316	0.626277	1.245446
H247	H	0.987457	0.008446	0.804339
H248	H	1.320790	0.341779	1.137672
H249	H	1.654123	0.675112	1.471006
F250	F	0.787477	0.208313	0.813878
F251	F	1.120810	0.541646	1.147211
F252	F	1.454144	0.874980	1.480544
F253	F	0.873157	0.244267	0.578749
F254	F	1.206490	0.577601	0.912083
F255	F	1.539824	0.910934	1.245416
H256	H	0.875639	0.227027	0.430937
H257	H	1.208973	0.560360	0.764271
H258	H	1.542306	0.893693	1.097604
H259	H	0.800327	0.195417	0.334138
H260	H	1.133660	0.528750	0.667471
H261	H	1.466993	0.862084	1.000804
H262	H	0.800303	0.195413	0.195844
H263	H	1.133637	0.528747	0.529178
H264	H	1.466970	0.862080	0.862511
