data_functionalizedCrystal
_audit_creation_method	'MofGen! by Chris Wilmer'
_symmetry_space_group_name_H-M	'P1'
_symmetry_Int_Tables_number	1
_symmetry_cell_setting	triclinic
loop_
_symmetry_equiv_pos_as_xyz
  x,y,z
_cell_length_a	10.723024
_cell_length_b	10.540510
_cell_length_c	9.798715
_cell_angle_alpha	89.999330
_cell_angle_beta	89.996609
_cell_angle_gamma	84.490590
loop_
_atom_site_label
_atom_site_type_symbol
_atom_site_fract_x
_atom_site_fract_y
_atom_site_fract_z
O1	O	1.657257	0.178048	-0.113474
O2	O	2.157257	0.678048	0.386526
O3	O	1.294111	0.195091	-0.113478
O4	O	1.794111	0.695091	0.386522
O5	O	1.483989	0.001856	-0.113475
O6	O	1.983989	0.501856	0.386525
O7	O	1.467380	0.371283	-0.113477
O8	O	1.967380	0.871283	0.386523
O9	O	1.483974	0.001856	0.113507
O10	O	1.983974	0.501856	0.613507
O11	O	1.294097	0.195091	0.113504
O12	O	1.794097	0.695091	0.613504
O13	O	1.657243	0.178048	0.113508
O14	O	2.157243	0.678048	0.613508
Zn15	Zn	1.475668	0.186569	0.149544
Zn16	Zn	1.975668	0.686569	0.649544
Zn17	Zn	1.475686	0.186570	-0.149514
Zn18	Zn	1.975686	0.686570	0.350486
O19	O	1.467366	0.371282	0.113506
O20	O	1.967366	0.871282	0.613506
C21	C	1.247604	0.193851	0.000013
C22	C	1.747604	0.693851	0.500013
C23	C	1.109048	0.190140	0.000011
C24	C	1.609048	0.690140	0.500011
C25	C	0.917246	0.074875	0.000009
C26	C	1.417246	0.574875	0.500009
C27	C	1.060451	0.078708	0.000010
C28	C	1.560451	0.578708	0.500010
C29	C	1.482744	-0.045447	0.000013
C30	C	1.982744	0.454553	0.500013
C31	C	1.479041	-0.186395	0.000005
C32	C	1.979041	0.313605	0.500005
C33	C	1.610948	-0.403918	0.000526
C34	C	2.110948	0.096082	0.500526
C35	C	1.614898	-0.257324	0.000007
C36	C	2.114898	0.242676	0.500007
C37	C	1.409503	-0.231117	-0.129611
C38	C	1.909503	0.268883	0.370389
C39	C	1.406516	-0.377877	-0.129713
C40	C	1.906516	0.122123	0.370287
C41	C	1.403670	-0.377684	0.128408
C42	C	1.903670	0.122316	0.628408
C43	C	1.410114	-0.231347	0.130114
C44	C	1.910114	0.268653	0.630114
C45	C	1.703750	0.179288	0.000015
C46	C	2.203750	0.679288	0.500015
C47	C	1.842306	0.182999	0.000007
C48	C	2.342306	0.682999	0.500007
C49	C	1.468610	0.418586	0.000014
C50	C	1.968610	0.918586	0.500014
C51	C	1.472313	0.559534	0.000014
C52	C	1.972313	1.059534	0.500014
N53	N	1.475664	0.186568	0.353644
N54	N	1.975664	0.686568	0.853644
N55	N	1.475700	0.186561	-0.353614
N56	N	1.975700	0.686561	0.146386
C57	C	1.555388	0.105077	0.421422
C58	C	2.055388	0.605077	0.921422
C59	C	1.555408	0.105072	0.578585
C60	C	2.055408	0.605072	1.078585
H61	H	1.669307	-0.228009	0.092919
H62	H	2.169307	0.271991	0.592919
H63	H	1.124847	-0.013855	0.000003
H64	H	1.624847	0.486145	0.500003
F65	F	1.476241	-0.193975	0.255452
F66	F	1.976241	0.306025	0.755452
H67	H	0.875386	-0.020531	0.000029
H68	H	1.375386	0.479469	0.500029
H69	H	1.309488	-0.183677	-0.134432
H70	H	1.809488	0.316323	0.365568
F71	F	1.644362	0.013660	0.345195
F72	F	2.144362	0.513660	0.845195
F73	F	1.024889	0.311136	-0.000000
F74	F	1.524889	0.811136	0.500000
H75	H	1.663577	-0.447451	-0.091901
H76	H	2.163577	0.052549	0.408099
F77	F	0.897012	0.307706	0.000018
F78	F	1.397012	0.807706	0.500018
H79	H	1.663870	-0.445901	0.093480
H80	H	2.163870	0.054099	0.593480
F81	F	1.686439	-0.220227	-0.121648
F82	F	2.186439	0.279773	0.378352
H83	H	1.623668	0.035308	0.636871
H84	H	2.123668	0.535308	1.136871
H85	H	1.454049	-0.418116	-0.226602
H86	H	1.954049	0.081884	0.273398
F87	F	1.280467	-0.167150	0.140346
F88	F	1.780467	0.332850	0.640346
F89	F	1.273705	-0.407869	-0.137410
F90	F	1.773705	0.092131	0.362590
H91	H	1.457807	-0.200285	-0.226070
H92	H	1.957807	0.299715	0.273930
H93	H	1.407446	0.256337	0.588109
H94	H	1.907446	0.756337	1.088109
H95	H	1.407419	0.256328	0.411968
H96	H	1.907419	0.756328	0.911968
H97	H	1.446838	-0.419889	0.226658
H98	H	1.946838	0.080111	0.726658
H99	H	1.301668	-0.399782	0.129280
H100	H	1.801668	0.100218	0.629280
