data_functionalizedCrystal
_audit_creation_method	'MofGen! by Chris Wilmer'
_symmetry_space_group_name_H-M	'P1'
_symmetry_Int_Tables_number	1
_symmetry_cell_setting	triclinic
loop_
_symmetry_equiv_pos_as_xyz
  x,y,z
_cell_length_a	12.759395
_cell_length_b	19.121063
_cell_length_c	12.759387
_cell_angle_alpha	92.402374
_cell_angle_beta	89.981185
_cell_angle_gamma	92.470426
loop_
_atom_site_label
_atom_site_type_symbol
_atom_site_fract_x
_atom_site_fract_y
_atom_site_fract_z
Zn1	Zn	1.588319	-0.279539	-0.611792
Zn2	Zn	2.088319	0.220461	-0.111792
Zn3	Zn	1.580679	-0.397009	-0.443587
Zn4	Zn	2.080679	0.102991	0.056413
Zn5	Zn	1.412620	-0.279580	-0.436132
Zn6	Zn	1.912620	0.220420	0.063868
Zn7	Zn	1.405077	-0.396957	-0.619223
Zn8	Zn	1.905077	0.103043	-0.119223
O9	O	1.496674	-0.338271	-0.527683
O10	O	1.996674	0.161729	-0.027683
O11	O	1.734326	-0.295127	-0.589490
O12	O	2.234326	0.204873	-0.089490
O13	O	1.558345	-0.381471	-0.295579
O14	O	2.058345	0.118529	0.204421
O15	O	1.442280	-0.181290	-0.453203
O16	O	1.942280	0.318710	0.046797
O17	O	1.728713	-0.381431	-0.465910
O18	O	2.228713	0.118569	0.034090
O19	O	1.571366	-0.181260	-0.582260
O20	O	2.071366	0.318740	-0.082260
O21	O	1.434872	-0.295196	-0.290102
O22	O	1.934872	0.204804	0.209898
O23	O	1.264598	-0.295145	-0.460409
O24	O	1.764598	0.204855	0.039591
O25	O	1.429425	-0.381342	-0.765256
O26	O	1.929425	0.118658	-0.265256
O27	O	1.259057	-0.381381	-0.594925
O28	O	1.759057	0.118619	-0.094925
O29	O	1.564052	-0.295076	-0.759796
O30	O	2.064052	0.204924	-0.259796
O31	O	1.551031	-0.495286	-0.473116
O32	O	2.051031	0.004714	0.026884
O33	O	1.422017	-0.495248	-0.602154
O34	O	1.922017	0.004752	-0.102154
C35	C	1.223707	-0.338263	-0.527665
C36	C	1.723707	0.161737	-0.027665
C37	C	1.106929	-0.338276	-0.527683
C38	C	1.606929	0.161724	-0.027683
C39	C	1.101188	-0.428219	-0.667547
C40	C	1.601188	0.071781	-0.167547
C41	C	1.043456	-0.473196	-0.737482
C42	C	1.543456	0.026804	-0.237482
C43	C	0.933734	-0.473205	-0.737495
C44	C	1.433734	0.026795	-0.237495
C45	C	0.881742	-0.428230	-0.667568
C46	C	1.381742	0.071770	-0.167568
C47	C	0.939473	-0.383253	-0.597633
C48	C	1.439473	0.116747	-0.097633
C49	C	1.049197	-0.383250	-0.597625
C50	C	1.549197	0.116750	-0.097625
C51	C	0.945214	-0.293307	-0.457776
C52	C	1.445214	0.206693	0.042224
C53	C	1.054936	-0.293301	-0.457755
C54	C	1.554936	0.206699	0.042245
C55	C	0.893222	-0.248332	-0.387848
C56	C	1.393222	0.251668	0.112152
C57	C	0.950953	-0.203357	-0.317906
C58	C	1.450953	0.296643	0.182094
C59	C	1.060682	-0.203351	-0.317895
C60	C	1.560682	0.296649	0.182105
C61	C	1.112668	-0.248324	-0.387820
C62	C	1.612668	0.251676	0.112180
C63	C	1.484905	-0.520751	-0.539273
C64	C	1.984905	-0.020751	-0.039273
C65	C	1.479967	-0.598817	-0.544267
C66	C	1.979967	-0.098817	-0.044267
C67	C	1.544869	-0.635489	-0.479484
C68	C	2.044869	-0.135489	0.020516
C69	C	1.540231	-0.708840	-0.484187
C70	C	2.040231	-0.208840	0.015813
C71	C	1.470684	-0.745517	-0.553667
C72	C	1.970684	-0.245517	-0.053667
C73	C	1.405778	-0.708840	-0.618456
C74	C	1.905778	-0.208840	-0.118456
C75	C	1.410423	-0.635490	-0.613758
C76	C	1.910423	-0.135490	-0.113758
C77	C	1.453302	-0.966986	-0.571214
C78	C	1.953302	-0.466986	-0.071214
C79	C	1.448661	-1.040341	-0.575905
C80	C	1.948661	-0.540341	-0.075905
C81	C	1.583115	-1.040335	-0.441637
C82	C	2.083115	-0.540335	0.058363
C83	C	1.587749	-0.966984	-0.436941
C84	C	2.087749	-0.466984	0.063059
C85	C	1.522848	-0.930313	-0.501734
C86	C	2.022848	-0.430313	-0.001734
C87	C	1.465939	-0.820494	-0.558473
C88	C	1.965939	-0.320494	-0.058473
C89	C	1.527599	-0.855338	-0.496932
C90	C	2.027599	-0.355338	0.003068
C91	C	1.770706	-0.338280	-0.527703
C92	C	2.270706	0.161720	-0.027703
C93	C	1.887483	-0.338284	-0.527711
C94	C	2.387483	0.161716	-0.027711
C95	C	1.496749	-0.338199	-0.801712
C96	C	1.996749	0.161801	-0.301712
C97	C	1.496782	-0.338168	-0.918487
C98	C	1.996782	0.161832	-0.418487
C99	C	1.508517	-0.155079	-0.516071
C100	C	2.008517	0.344921	-0.016071
C101	C	1.513563	-0.077013	-0.511123
C102	C	2.013563	0.422987	-0.011123
C103	C	1.368219	-0.248324	-0.912802
C104	C	1.868219	0.251676	-0.412802
C105	C	1.303958	-0.203388	-0.964819
C106	C	1.803958	0.296612	-0.464819
C107	C	1.303991	-0.203362	-1.074539
C108	C	1.803991	0.296638	-0.574539
C109	C	1.368290	-0.248279	-1.132245
C110	C	1.868290	0.251721	-0.632245
C111	C	1.432551	-0.293215	-1.080228
C112	C	1.932551	0.206785	-0.580228
C113	C	1.432513	-0.293234	-0.970505
C114	C	1.932513	0.206766	-0.470505
C115	C	1.561107	-0.383062	-1.085913
C116	C	2.061107	0.116938	-0.585913
C117	C	1.561081	-0.383085	-0.976193
C118	C	2.061081	0.116915	-0.476193
C119	C	1.625406	-0.427978	-1.143619
C120	C	2.125406	0.072022	-0.643619
C121	C	1.689674	-0.472912	-1.091601
C122	C	2.189674	0.027088	-0.591601
C123	C	1.689639	-0.472935	-0.981874
C124	C	2.189639	0.027065	-0.481874
C125	C	1.625342	-0.428020	-0.924176
C126	C	2.125342	0.071980	-0.424176
C127	C	1.496662	-0.338293	-0.254717
C128	C	1.996662	0.161707	0.245283
C129	C	1.496845	-0.338126	-0.137930
C130	C	1.996845	0.161874	0.362070
H131	H	0.792400	-0.428235	-0.667594
H132	H	1.292400	0.071765	-0.167594
H133	H	1.368194	-0.248334	-0.823461
H134	H	1.868194	0.251666	-0.323461
H135	H	1.400455	-0.937134	-0.623969
H136	H	1.900455	-0.437134	-0.123969
H137	H	0.803880	-0.248339	-0.387869
H138	H	1.303880	0.251661	0.112131
H139	H	1.625311	-0.428032	-0.834835
H140	H	2.125311	0.071968	-0.334835
H141	H	0.908612	-0.166739	-0.260982
H142	H	1.408612	0.333261	0.239018
H143	H	1.349156	-0.738709	-0.675032
H144	H	1.849156	-0.238709	-0.175032
H145	H	1.742017	-0.509482	-1.138594
H146	H	2.242017	-0.009482	-0.638594
H147	H	1.107681	-0.166720	-0.260952
H148	H	1.607681	0.333280	0.239048
H149	H	1.644380	-0.937123	-0.380365
H150	H	2.144380	-0.437123	0.119635
H151	H	1.625423	-0.427958	-1.232959
H152	H	2.125423	0.072042	-0.732959
H153	H	1.741972	-0.509525	-0.939529
H154	H	2.241972	-0.009525	-0.439529
H155	H	1.190529	-0.428222	-0.667535
H156	H	1.690529	0.071778	-0.167535
H157	H	1.202009	-0.248325	-0.387815
H158	H	1.702009	0.251675	0.112185
H159	H	1.251604	-0.166819	-0.917823
H160	H	1.751604	0.333181	-0.417823
H161	H	1.601497	-0.605631	-0.422902
H162	H	2.101497	-0.105631	0.077098
H163	H	1.085801	-0.509812	-0.794417
H164	H	1.585801	-0.009812	-0.294417
H165	H	1.251662	-0.166772	-1.116891
H166	H	1.751662	0.333228	-0.616891
H167	H	1.593081	-0.738695	-0.431434
H168	H	2.093081	-0.238695	0.068566
H169	H	1.368301	-0.248261	-1.221585
H170	H	1.868301	0.251739	-0.721585
H171	H	0.886729	-0.509825	-0.794448
H172	H	1.386729	-0.009825	-0.294448
H173	H	1.635956	-1.070201	-0.388888
H174	H	2.135956	-0.570201	0.111112
H175	H	1.392039	-1.070202	-0.632502
H176	H	1.892039	-0.570202	-0.132502
H177	H	1.357573	-0.605633	-0.666512
H178	H	1.857573	-0.105633	-0.166512
H179	H	1.584228	-0.825473	-0.440366
H180	H	2.084228	-0.325473	0.059634
H181	H	1.409311	-0.850365	-0.615041
H182	H	1.909311	-0.350365	-0.115041
