data_functionalizedCrystal
_audit_creation_method	'MofGen! by Chris Wilmer'
_symmetry_space_group_name_H-M	'P1'
_symmetry_Int_Tables_number	1
_symmetry_cell_setting	triclinic
loop_
_symmetry_equiv_pos_as_xyz
  x,y,z
_cell_length_a	14.519709
_cell_length_b	14.853558
_cell_length_c	13.930277
_cell_angle_alpha	89.993309
_cell_angle_beta	89.998355
_cell_angle_gamma	96.344361
loop_
_atom_site_label
_atom_site_type_symbol
_atom_site_fract_x
_atom_site_fract_y
_atom_site_fract_z
O1	O	-0.120364	1.196420	-0.079806
O2	O	-0.134716	0.933965	-0.079808
O3	O	0.006702	1.072151	-0.079816
O4	O	-0.261781	1.058234	-0.079798
O5	O	0.006705	1.072132	0.079846
O6	O	-0.134713	0.933946	0.079853
O7	O	-0.120361	1.196401	0.079856
Zn8	Zn	-0.127536	1.065170	0.105205
Zn9	Zn	-0.127540	1.065196	-0.105157
O10	O	-0.261778	1.058215	0.079863
C11	C	-0.134066	0.900366	0.000022
C12	C	-0.132122	0.800282	0.000020
C13	C	-0.131211	0.753272	-0.087015
C14	C	-0.131197	0.753249	0.087054
C15	C	-0.129366	0.659215	0.087056
C16	C	-0.128456	0.612204	0.000020
C17	C	-0.129377	0.659229	-0.087017
C18	C	-0.128435	0.612184	0.174091
C19	C	-0.126602	0.518144	0.174096
C20	C	-0.125699	0.471132	0.087059
C21	C	-0.126621	0.518162	0.000019
C22	C	-0.125711	0.471152	-0.087016
C23	C	-0.126640	0.518179	-0.174058
C24	C	-0.128474	0.612216	-0.174053
C25	C	-0.123865	0.377095	0.087055
C26	C	-0.123877	0.377109	-0.087018
C27	C	-0.296139	1.058873	0.000035
C28	C	-0.398520	1.060817	0.000041
C29	C	-0.773412	1.067972	0.000003
C30	C	-0.669105	1.065985	0.000014
C31	C	-0.585969	1.064395	0.000023
C32	C	-0.481656	1.062407	0.000032
C33	C	0.041063	1.071493	0.000011
C34	C	0.143443	1.069550	-0.000002
C35	C	-0.121011	1.230000	0.000024
C36	C	-0.122955	1.330085	0.000019
N37	N	-0.127533	1.065160	0.248771
N38	N	-0.127536	1.065214	-0.248723
C39	C	-0.190135	1.004005	0.701043
C40	C	-0.064938	1.126412	0.701006
C41	C	-0.064935	1.126401	0.600510
C42	C	-0.127534	1.065192	0.550276
C43	C	-0.190136	1.003994	0.600538
C44	C	-0.002341	1.187604	0.550241
C45	C	-0.002336	1.187597	0.449739
C46	C	-0.064931	1.126383	0.399503
C47	C	-0.127535	1.065181	0.449771
C48	C	-0.190134	1.003972	0.399537
C49	C	-0.252734	0.942766	0.449803
C50	C	-0.252732	0.942780	0.550302
C51	C	-0.064934	1.126369	0.299005
C52	C	-0.190135	1.003961	0.299032
H53	H	-0.123117	0.338808	0.157922
O54	O	-0.257656	0.937945	0.244851
H55	H	-0.301186	0.895395	0.296690
O56	O	0.002593	1.192351	0.244779
H57	H	-0.036295	1.236225	0.198970
H58	H	0.048637	1.237433	0.408819
H59	H	-0.129229	0.650514	-0.244917
H60	H	-0.131972	0.791565	-0.157882
H61	H	-0.131931	0.791531	0.157914
H62	H	-0.125844	0.479863	0.244970
O63	O	-0.320234	0.876740	0.395608
H64	H	-0.365123	0.914750	0.349803
H65	H	-0.303699	0.892948	0.591235
O66	O	-0.257658	0.937994	0.755248
H67	H	-0.247149	0.948284	0.833571
O68	O	0.002577	1.192430	0.755179
H69	H	-0.007937	1.182153	0.833507
O70	O	-0.129421	0.662882	0.267961
H71	H	-0.130867	0.736171	0.253337
O72	O	-0.122899	0.326412	-0.180897
H73	H	-0.121472	0.253120	-0.166279
O74	O	0.065173	1.253622	0.604417
H75	H	0.054662	1.243338	0.682744
H76	H	-0.125894	0.479892	-0.244922
