data_functionalizedCrystal
_audit_creation_method	'MofGen! by Chris Wilmer'
_symmetry_space_group_name_H-M	'P1'
_symmetry_Int_Tables_number	1
_symmetry_cell_setting	triclinic
loop_
_symmetry_equiv_pos_as_xyz
  x,y,z
_cell_length_a	19.121368
_cell_length_b	19.121102
_cell_length_c	19.120904
_cell_angle_alpha	90.088173
_cell_angle_beta	90.118909
_cell_angle_gamma	90.107979
loop_
_atom_site_label
_atom_site_type_symbol
_atom_site_fract_x
_atom_site_fract_y
_atom_site_fract_z
Zn1	Zn	0.342325	1.041030	-0.426932
Zn2	Zn	0.842325	1.541030	0.073068
Zn3	Zn	0.454581	1.041419	-0.304733
Zn4	Zn	0.954581	1.541419	0.195267
Zn5	Zn	0.332371	0.929201	-0.305155
Zn6	Zn	0.832371	1.429201	0.194845
Zn7	Zn	0.454111	0.919250	-0.416957
Zn8	Zn	0.954111	1.419250	0.083043
O9	O	0.395847	0.982725	-0.363444
O10	O	0.895847	1.482725	0.136556
O11	O	0.361579	1.139011	-0.414720
O12	O	0.861579	1.639011	0.085280
O13	O	0.434401	1.030861	-0.206860
O14	O	0.934401	1.530861	0.293140
O15	O	0.235764	0.948037	-0.325661
O16	O	0.735764	1.448037	0.174339
O17	O	0.444053	1.139297	-0.324941
O18	O	0.944053	1.639297	0.175059
O19	O	0.243077	1.030197	-0.415129
O20	O	0.743077	1.530197	0.084871
O21	O	0.344614	0.948414	-0.207170
O22	O	0.844614	1.448414	0.292830
O23	O	0.344158	0.829951	-0.315988
O24	O	0.844158	1.329951	0.184012
O25	O	0.443251	0.931077	-0.516209
O26	O	0.943251	1.431077	-0.016209
O27	O	0.433599	0.822640	-0.398128
O28	O	0.933599	1.322640	0.101872
O29	O	0.361122	1.020548	-0.523538
O30	O	0.861122	1.520548	-0.023538
O31	O	0.552446	1.021211	-0.315269
O32	O	1.052446	1.521211	0.184731
O33	O	0.552101	0.931454	-0.397719
O34	O	1.052101	1.431454	0.102281
C35	C	0.387748	0.800904	-0.356022
C36	C	0.887748	1.300904	0.143978
C37	C	0.384300	0.723119	-0.352862
C38	C	0.884300	1.223119	0.147138
C39	C	0.429313	0.682787	-0.394070
C40	C	0.929313	1.182787	0.105930
C41	C	0.426064	0.609700	-0.391105
C42	C	0.926064	1.109700	0.108895
C43	C	0.377807	0.576945	-0.346928
C44	C	0.877807	1.076945	0.153072
C45	C	0.332789	0.617282	-0.305719
C46	C	0.832789	1.117282	0.194281
C47	C	0.336035	0.690368	-0.308688
C48	C	0.836035	1.190368	0.191312
C49	C	0.365672	0.356463	-0.335831
C50	C	0.865672	0.856463	0.164169
C51	C	0.362431	0.283371	-0.332864
C52	C	0.862431	0.783371	0.167136
C53	C	0.455706	0.275794	-0.418252
C54	C	0.955706	0.775794	0.081748
C55	C	0.458949	0.348882	-0.421214
C56	C	0.958949	0.848882	0.078786
C57	C	0.413930	0.389212	-0.380007
C58	C	0.913930	0.889212	0.119993
C59	C	0.374487	0.502238	-0.343895
C60	C	0.874487	1.002238	0.156105
C61	C	0.417247	0.463918	-0.383044
C62	C	0.917247	0.963918	0.116956
C63	C	0.213319	0.990184	-0.371555
C64	C	0.713319	1.490184	0.128445
C65	C	0.135536	0.993362	-0.375011
C66	C	0.635536	1.493362	0.124989
C67	C	0.095185	0.952082	-0.330055
C68	C	0.595185	1.452082	0.169945
C69	C	0.022100	0.955067	-0.333309
C70	C	0.522100	1.455067	0.166691
C71	C	-0.010632	0.999337	-0.381517
C72	C	0.489368	1.499337	0.118483
C73	C	0.029724	1.040619	-0.426477
C74	C	0.529724	1.540619	0.073523
C75	C	0.102807	1.037629	-0.423226
C76	C	0.602807	1.537629	0.076774
C77	C	-0.231107	1.010499	-0.393668
C78	C	0.268893	1.510499	0.106332
C79	C	-0.304195	1.013486	-0.396914
C80	C	0.195805	1.513486	0.103086
C81	C	-0.311814	0.927933	-0.303746
C82	C	0.188186	1.427933	0.196254
C83	C	-0.238729	0.924951	-0.300496
C84	C	0.261271	1.424951	0.199504
C85	C	-0.198379	0.966230	-0.345460
C86	C	0.301621	1.466230	0.154540
C87	C	-0.085337	1.002390	-0.384843
C88	C	0.414663	1.502390	0.115157
C89	C	-0.123676	0.963172	-0.342136
C90	C	0.376324	1.463172	0.157864
C91	C	0.577667	0.975313	-0.355381
C92	C	1.077667	1.475313	0.144619
C93	C	0.655454	0.972206	-0.351958
C94	C	1.155454	1.472206	0.148042
C95	C	0.403244	0.974659	-0.545976
C96	C	0.903244	1.474659	-0.045976
C97	C	0.406397	0.971222	-0.623760
C98	C	0.906397	1.471222	-0.123760
C99	C	0.403978	1.165256	-0.370896
C100	C	0.903978	1.665256	0.129104
C101	C	0.407443	1.243040	-0.374072
C102	C	0.907443	1.743040	0.125928
C103	C	0.365120	1.016188	-0.664119
C104	C	0.865120	1.516188	-0.164119
C105	C	0.368079	1.012950	-0.737205
C106	C	0.868079	1.512950	-0.237205
C107	C	0.412319	0.964749	-0.769930
C108	C	0.912319	1.464749	-0.269930
C109	C	0.453597	0.919778	-0.729565
C110	C	0.953597	1.419778	-0.229565
C111	C	0.450634	0.923013	-0.656481
C112	C	0.950634	1.423013	-0.156481
C113	C	0.423401	0.952647	-0.990408
C114	C	0.923401	1.452647	-0.490408
C115	C	0.426363	0.949417	-1.063498
C116	C	0.926363	1.449417	-0.563498
C117	C	0.340843	1.042588	-1.071133
C118	C	0.840843	1.542588	-0.571133
C119	C	0.337887	1.045822	-0.998047
C120	C	0.837887	1.545822	-0.498047
C121	C	0.379163	1.000848	-0.957688
C122	C	0.879163	1.500848	-0.457688
C123	C	0.415346	0.961439	-0.844636
C124	C	0.915346	1.461439	-0.344636
C125	C	0.376131	1.004155	-0.882984
C126	C	0.876131	1.504155	-0.382984
C127	C	0.388429	0.990802	-0.181627
C128	C	0.888429	1.490802	0.318373
C129	C	0.385086	0.994382	-0.103858
C130	C	0.885086	1.494382	0.396142
H131	H	0.293494	0.590608	-0.269752
H132	H	0.793494	1.090608	0.230248
O133	O	0.499330	0.236584	-0.458360
O134	O	0.999330	0.736584	0.041640
C135	C	0.459511	0.193927	-0.503657
C136	C	0.959511	0.693927	-0.003657
H137	H	0.405559	0.218004	-0.511405
H138	H	0.905559	0.718004	-0.011405
H139	H	0.453730	0.139587	-0.479882
H140	H	0.953730	0.639587	0.020118
C141	C	0.562971	0.158637	-0.565271
C142	C	1.062971	0.658637	-0.065271
C143	C	0.496707	0.188212	-0.574792
C144	C	0.996707	0.688212	-0.074792
H145	H	0.585916	0.155108	-0.609150
H146	H	1.085916	0.655108	-0.109150
H147	H	0.589798	0.187374	-0.534752
H148	H	1.089798	0.687374	-0.034752
H149	H	0.558144	0.113357	-0.545456
H150	H	1.058144	0.613357	-0.045456
H151	H	0.501535	0.233494	-0.594598
H152	H	1.001535	0.733494	-0.094598
H153	H	0.469881	0.159483	-0.605316
H154	H	0.969881	0.659483	-0.105316
H155	H	0.462719	0.576865	-0.424661
H156	H	0.962719	1.076865	0.075339
H157	H	0.121830	0.916035	-0.290797
H158	H	0.621830	1.416035	0.209203
H159	H	0.489616	0.880529	-0.756216
H160	H	0.989616	1.380529	-0.256216
H161	H	0.335197	0.475562	-0.307924
H162	H	0.835197	0.975562	0.192076
H163	H	0.498248	0.375545	-0.457186
H164	H	0.998248	0.875545	0.042814
O165	O	-0.016992	0.914949	-0.289561
O166	O	0.483008	1.414949	0.210439
C167	C	0.027570	0.875228	-0.246322
C168	C	0.527570	1.375228	0.253678
H169	H	0.080847	0.901868	-0.242758
H170	H	0.580847	1.401868	0.257242
H171	H	0.034012	0.820624	-0.269424
H172	H	0.534012	1.320624	0.230576
C173	C	-0.069857	0.836892	-0.177073
C174	C	0.430143	1.336892	0.322927
C175	C	-0.004423	0.869616	-0.172691
C176	C	0.495577	1.369616	0.327309
H177	H	-0.089593	0.833427	-0.131655
H178	H	0.410407	1.333427	0.368345
H179	H	-0.099880	0.863651	-0.206206
H180	H	0.400120	1.363651	0.293794
H181	H	-0.064480	0.791393	-0.196328
H182	H	0.435520	1.291393	0.303672
H183	H	-0.009802	0.915117	-0.153446
H184	H	0.490198	1.415117	0.346554
H185	H	0.025598	0.842865	-0.143554
H186	H	0.525598	1.342865	0.356446
H187	H	0.468612	0.709450	-0.430042
H188	H	0.968612	1.209450	0.069958
H189	H	0.456535	0.490589	-0.419016
H190	H	0.956535	0.990589	0.080984
H191	H	-0.111993	1.038437	-0.424093
H192	H	0.388007	1.538437	0.075907
H193	H	0.135661	1.071239	-0.459839
H194	H	0.635661	1.571239	0.040161
O195	O	0.292383	0.729520	-0.268550
O196	O	0.792383	1.229520	0.231450
C197	C	0.303936	0.714100	-0.197379
C198	C	0.803936	1.214100	0.302621
H199	H	0.358797	0.691889	-0.190460
H200	H	0.858797	1.191889	0.309540
H201	H	0.263765	0.674010	-0.179087
H202	H	0.763765	1.174010	0.320913
C203	C	0.229333	0.808693	-0.162189
C204	C	0.729333	1.308693	0.337811
C205	C	0.296716	0.781419	-0.153690
C206	C	0.796716	1.281419	0.346310
H207	H	0.224877	0.850218	-0.135238
H208	H	0.724877	1.350218	0.364762
H209	H	0.221547	0.819081	-0.210138
H210	H	0.721547	1.319081	0.289862
H211	H	0.195865	0.775278	-0.146946
H212	H	0.695865	1.275278	0.353054
H213	H	0.330183	0.814830	-0.168940
H214	H	0.830183	1.314830	0.331060
H215	H	0.304508	0.771039	-0.105742
H216	H	0.804508	1.271039	0.394258
O217	O	0.333055	1.050905	-0.851232
O218	O	0.833055	1.550905	-0.351232
C219	C	0.263351	1.037688	-0.871577
C220	C	0.763351	1.537688	-0.371577
H221	H	0.258136	0.981039	-0.889543
H222	H	0.758136	1.481039	-0.389543
H223	H	0.248451	1.074082	-0.916344
H224	H	0.748451	1.574082	-0.416344
C225	C	0.220787	1.120191	-0.786994
C226	C	0.720787	1.620191	-0.286994
C227	C	0.214381	1.050611	-0.809054
C228	C	0.714381	1.550611	-0.309054
H229	H	0.190579	1.128165	-0.748428
H230	H	0.690579	1.628165	-0.248428
H231	H	0.267748	1.129097	-0.773288
H232	H	0.767748	1.629097	-0.273288
H233	H	0.208372	1.150511	-0.824305
H234	H	0.708372	1.650511	-0.324305
H235	H	0.226805	1.020293	-0.771746
H236	H	0.726805	1.520293	-0.271746
H237	H	0.167421	1.041700	-0.822752
H238	H	0.667421	1.541700	-0.322752
H239	H	0.462390	0.910163	-1.090140
H240	H	0.962390	1.410163	-0.590140
H241	H	-0.212083	0.888903	-0.261239
H242	H	0.287917	1.388903	0.238761
H243	H	-0.097022	0.927125	-0.302889
H244	H	0.402978	1.427125	0.197111
H245	H	0.323126	0.256705	-0.296894
H246	H	0.823126	0.756705	0.203106
H247	H	-0.344674	0.894324	-0.267140
H248	H	0.155326	1.394324	0.232860
H249	H	0.484239	0.886390	-0.623620
H250	H	0.984239	1.386390	-0.123620
H251	H	-0.330842	1.049539	-0.436173
H252	H	0.169158	1.549539	0.063827
H253	H	-0.198262	1.044120	-0.430272
H254	H	0.301738	1.544120	0.069728
H255	H	0.329018	0.389291	-0.302272
H256	H	0.829018	0.889291	0.197728
O257	O	-0.002152	1.083526	-0.473341
O258	O	0.497848	1.583526	0.026659
C259	C	-0.044357	1.043412	-0.518802
C260	C	0.455643	1.543412	-0.018802
H261	H	-0.058670	0.991917	-0.492441
H262	H	0.441330	1.491917	0.007559
H263	H	-0.014432	1.032279	-0.569097
H264	H	0.485568	1.532279	-0.069097
C265	C	-0.093970	1.147441	-0.568508
C266	C	0.406030	1.647441	-0.068508
C267	C	-0.111554	1.084196	-0.536128
C268	C	0.388446	1.584196	-0.036128
H269	H	-0.135419	1.172599	-0.579199
H270	H	0.364581	1.672599	-0.079199
H271	H	-0.065534	1.174467	-0.537882
H272	H	0.434466	1.674467	-0.037882
H273	H	-0.069031	1.138154	-0.610417
H274	H	0.430969	1.638154	-0.110417
H275	H	-0.136485	1.093484	-0.494216
H276	H	0.363515	1.593484	0.005784
H277	H	-0.139996	1.057173	-0.566748
H278	H	0.360004	1.557173	-0.066748
H279	H	0.451370	0.922197	-0.871289
H280	H	0.951370	1.422197	-0.371289
O281	O	0.322084	1.063031	-0.632445
O282	O	0.822084	1.563031	-0.132445
C283	C	0.286299	1.102035	-0.683744
C284	C	0.786299	1.602035	-0.183744
H285	H	0.284713	1.071163	-0.734776
H286	H	0.784713	1.571163	-0.234776
H287	H	0.314608	1.153793	-0.692552
H288	H	0.814608	1.653793	-0.192552
C289	C	0.213061	1.154344	-0.596267
C290	C	0.713061	1.654344	-0.096267
C291	C	0.211107	1.116424	-0.658944
C292	C	0.711107	1.616424	-0.158944
H293	H	0.166680	1.163224	-0.580969
H294	H	0.666680	1.663224	-0.080969
H295	H	0.237171	1.128069	-0.561705
H296	H	0.737171	1.628069	-0.061705
H297	H	0.236655	1.197472	-0.603615
H298	H	0.736655	1.697472	-0.103615
H299	H	0.187521	1.073294	-0.651593
H300	H	0.687521	1.573294	-0.151593
H301	H	0.186991	1.142693	-0.693504
H302	H	0.686991	1.642693	-0.193504
H303	H	0.334469	1.049567	-0.770063
H304	H	0.834469	1.549567	-0.270063
H305	H	0.301864	1.085074	-0.971407
H306	H	0.801864	1.585074	-0.471407
H307	H	0.307238	1.079201	-1.104001
H308	H	0.807238	1.579201	-0.604001
H309	H	0.457022	0.916036	-0.957556
H310	H	0.957022	1.416036	-0.457556
