data_functionalizedCrystal
_audit_creation_method	'MofGen! by Chris Wilmer'
_symmetry_space_group_name_H-M	'P1'
_symmetry_Int_Tables_number	1
_symmetry_cell_setting	triclinic
loop_
_symmetry_equiv_pos_as_xyz
  x,y,z
_cell_length_a	21.395362
_cell_length_b	12.645330
_cell_length_c	21.395355
_cell_angle_alpha	89.987670
_cell_angle_beta	89.956060
_cell_angle_gamma	90.033572
loop_
_atom_site_label
_atom_site_type_symbol
_atom_site_fract_x
_atom_site_fract_y
_atom_site_fract_z
Zn1	Zn	0.957916	-0.421713	-0.354613
Zn2	Zn	0.957842	-0.598962	-0.249846
Zn3	Zn	0.853131	-0.421762	-0.249814
Zn4	Zn	0.853124	-0.598984	-0.354551
O5	O	0.905503	-0.510355	-0.302206
O6	O	1.045584	-0.445196	-0.340754
O7	O	0.943924	-0.575468	-0.162164
O8	O	0.867065	-0.273408	-0.263728
O9	O	1.045530	-0.575420	-0.263783
O10	O	0.944050	-0.273372	-0.340723
O11	O	0.866993	-0.445280	-0.162140
O12	O	0.765452	-0.445301	-0.263668
O13	O	0.867053	-0.575457	-0.442237
O14	O	0.765447	-0.575505	-0.340618
O15	O	0.944043	-0.445217	-0.442282
O16	O	0.943918	-0.747312	-0.263724
O17	O	0.866981	-0.747328	-0.340650
C18	C	0.742716	-0.510411	-0.302133
C19	C	0.673074	-0.510461	-0.302117
C20	C	0.640375	-0.578348	-0.342125
C21	C	0.574940	-0.578322	-0.342153
C22	C	0.542206	-0.510420	-0.302162
C23	C	0.574913	-0.442520	-0.262151
C24	C	0.640348	-0.442540	-0.262129
C25	C	0.438480	-0.501880	-0.245756
C26	C	0.373047	-0.501867	-0.245777
C27	C	0.340386	-0.510351	-0.302231
C28	C	0.373165	-0.518870	-0.358665
C29	C	0.438599	-0.518890	-0.358643
C30	C	0.471254	-0.510390	-0.302182
C31	C	0.236734	-0.578213	-0.342272
C32	C	0.171297	-0.578180	-0.342301
C33	C	0.171272	-0.442383	-0.262294
C34	C	0.236707	-0.442411	-0.262271
C35	C	0.269434	-0.510332	-0.302259
C36	C	0.905458	-0.785785	-0.302197
C37	C	0.905495	-0.903615	-0.302214
C38	C	0.857295	-1.071233	-0.350758
C39	C	0.857048	-0.948674	-0.350602
C40	C	0.887617	-0.948193	-0.236177
C41	C	0.887323	-1.070792	-0.236472
C42	C	0.971870	-1.070679	-0.319173
C43	C	0.971463	-0.948073	-0.320616
C44	C	1.068927	-0.510300	-0.302279
C45	C	1.138568	-0.510276	-0.302311
C46	C	0.905555	-0.510334	-0.465629
C47	C	0.905578	-0.510325	-0.535271
C48	C	0.905566	-0.233850	-0.302228
C49	C	0.905593	-0.116020	-0.302238
C50	C	0.945665	-0.442506	-0.568008
C51	C	0.945664	-0.442460	-0.633444
C52	C	0.905582	-0.510252	-0.666139
C53	C	0.865488	-0.578076	-0.633393
C54	C	0.865485	-0.578112	-0.567959
C55	C	0.900619	-0.605707	-0.769809
C56	C	0.900626	-0.605673	-0.835242
C57	C	0.905586	-0.510140	-0.867960
C58	C	0.910553	-0.414639	-0.835237
C59	C	0.910550	-0.414676	-0.769803
C60	C	0.905580	-0.510220	-0.737091
C61	C	0.945675	-0.442266	-0.971650
C62	C	0.945669	-0.442219	-1.037087
C63	C	0.865496	-0.577844	-1.037035
C64	C	0.865498	-0.577882	-0.971600
C65	C	0.905591	-0.510095	-0.938911
C66	C	0.905488	-0.510300	-0.139418
C67	C	0.905587	-0.510011	-0.069778
H68	H	0.144621	-0.387091	-0.229735
H69	H	0.807914	-0.919458	-0.339381
N70	N	0.824545	-0.647394	-0.534506
N71	N	0.824551	-0.647420	-0.476083
H72	H	0.795637	-0.696352	-0.452454
N73	N	0.826545	-1.106798	-0.218474
N74	N	0.784639	-1.041382	-0.205784
H75	H	0.741712	-1.066805	-0.193073
N76	N	0.895530	-0.703198	-0.868682
N77	N	0.850765	-0.717983	-0.905163
H78	H	0.847160	-0.786856	-0.928786
N79	N	0.871210	-1.108168	-0.412380
N80	N	0.831791	-1.161534	-0.441771
H81	H	0.841628	-1.187628	-0.485290
H82	H	0.346573	-0.525777	-0.404635
H83	H	1.009343	-0.917393	-0.287852
N84	N	0.986612	-0.373016	-0.938245
N85	N	0.986606	-0.373059	-0.879822
H86	H	1.015517	-0.324150	-0.856230
N87	N	0.986619	-0.372925	-1.070520
N88	N	1.022409	-0.312409	-1.041323
H89	H	1.051331	-0.263468	-1.064935
H90	H	0.914593	-0.336915	-0.743162
H91	H	1.007853	-1.099637	-0.283834
H92	H	0.914593	-0.336848	-0.861874
N93	N	0.270122	-0.373074	-0.221405
N94	N	0.306691	-0.305590	-0.243505
H95	H	0.330292	-0.256615	-0.214644
H96	H	0.832855	-0.633031	-1.063655
N97	N	0.988372	-0.911515	-0.381585
N98	N	0.952008	-0.852932	-0.411408
H99	H	0.963948	-0.827108	-0.454468
N100	N	0.824547	-0.647167	-0.938165
N101	N	0.788760	-0.707689	-0.967362
H102	H	0.759834	-0.756623	-0.943749
H103	H	0.921680	-0.919005	-0.199037
H104	H	0.978310	-0.387306	-0.541397
N105	N	0.895587	-0.703294	-0.736382
N106	N	0.895606	-0.703317	-0.677960
H107	H	0.892062	-0.772236	-0.654351
H108	H	0.808467	-1.102153	-0.339680
N109	N	0.824545	-0.647311	-0.666797
N110	N	0.824553	-0.647271	-0.725220
H111	H	0.795634	-0.696166	-0.748812
N112	N	0.673794	-0.647730	-0.382975
N113	N	0.644585	-0.708339	-0.418695
H114	H	0.668187	-0.757340	-0.447547
N115	N	0.986613	-0.373167	-0.666884
N116	N	1.022402	-0.312644	-0.637690
H117	H	1.051322	-0.263704	-0.661305
N118	N	0.472072	-0.527593	-0.416289
N119	N	0.442910	-0.535172	-0.466692
H120	H	0.466550	-0.541315	-0.507407
H121	H	0.548311	-0.633603	-0.374734
H122	H	0.868234	-0.918533	-0.399567
N123	N	0.270170	-0.647594	-0.383112
N124	N	0.262812	-0.745401	-0.378862
H125	H	0.286425	-0.794403	-0.407704
N126	N	0.137903	-0.647526	-0.383181
N127	N	0.167134	-0.708156	-0.418880
H128	H	0.143549	-0.757133	-0.447753
H129	H	0.346364	-0.494937	-0.199825
H130	H	0.988178	-1.101533	-0.366510
H131	H	0.548258	-0.387232	-0.229591
N132	N	0.471830	-0.493194	-0.188081
N133	N	0.442559	-0.485591	-0.137700
H134	H	0.466111	-0.479451	-0.096968
H135	H	0.666971	-0.387255	-0.229549
H136	H	0.839674	-0.917599	-0.221575
N137	N	0.929525	-1.107951	-0.189559
N138	N	0.959098	-1.043336	-0.156703
H139	H	0.988896	-1.069574	-0.123565
