data_functionalizedCrystal
_audit_creation_method	'MofGen! by Chris Wilmer'
_symmetry_space_group_name_H-M	'P1'
_symmetry_Int_Tables_number	1
_symmetry_cell_setting	triclinic
loop_
_symmetry_equiv_pos_as_xyz
  x,y,z
_cell_length_a	14.971486
_cell_length_b	19.188924
_cell_length_c	13.448316
_cell_angle_alpha	89.991325
_cell_angle_beta	89.998199
_cell_angle_gamma	83.378047
loop_
_atom_site_label
_atom_site_type_symbol
_atom_site_fract_x
_atom_site_fract_y
_atom_site_fract_z
O1	O	1.186464	0.090988	-0.082582
O2	O	1.686464	0.590988	0.417418
O3	O	0.926006	0.101884	-0.082610
O4	O	1.426006	0.601884	0.417390
O5	O	1.063754	-0.005195	-0.082583
O6	O	1.563754	0.494805	0.417417
O7	O	1.048715	0.198068	-0.082609
O8	O	1.548715	0.698068	0.417391
O9	O	1.063737	-0.005202	0.082800
O10	O	1.563737	0.494798	0.582800
O11	O	0.925989	0.101878	0.082774
O12	O	1.425989	0.601878	0.582774
O13	O	1.186447	0.090982	0.082802
O14	O	1.686447	0.590982	0.582802
Cu15	Cu	1.056216	0.096429	0.097889
Cu16	Cu	1.556216	0.596429	0.597889
Cu17	Cu	1.056236	0.096437	-0.097697
Cu18	Cu	1.556236	0.596437	0.402303
O19	O	1.048698	0.198061	0.082775
O20	O	1.548698	0.698061	0.582775
C21	C	0.892675	0.101394	0.000079
C22	C	1.392675	0.601394	0.500079
C23	C	0.793386	0.099933	0.000069
C24	C	1.293386	0.599933	0.500069
C25	C	0.735826	0.162840	0.000062
C26	C	1.235826	0.662840	0.500062
C27	C	0.642534	0.161464	0.000077
C28	C	1.142534	0.661464	0.500077
C29	C	0.606803	0.097180	0.000091
C30	C	1.106803	0.597180	0.500091
C31	C	0.664370	0.034269	0.000101
C32	C	1.164370	0.534269	0.500101
C33	C	0.757661	0.035646	0.000093
C34	C	1.257661	0.535646	0.500093
C35	C	0.469923	0.031403	0.000115
C36	C	0.969923	0.531403	0.500115
C37	C	0.376626	0.030026	0.000121
C38	C	0.876626	0.530026	0.500121
C39	C	0.354796	0.157221	0.000099
C40	C	0.854796	0.657221	0.500099
C41	C	0.448087	0.158598	0.000091
C42	C	0.948087	0.658598	0.500091
C43	C	0.505647	0.095686	0.000099
C44	C	1.005647	0.595686	0.500099
C45	C	1.063260	-0.031211	0.000109
C46	C	1.563260	0.468789	0.500109
C47	C	1.061801	-0.108721	0.000112
C48	C	1.561801	0.391279	0.500112
C49	C	1.061129	-0.145118	-0.090039
C50	C	1.561129	0.354882	0.409961
C51	C	1.059746	-0.217946	-0.090047
C52	C	1.559746	0.282054	0.409953
C53	C	1.059052	-0.254374	0.000101
C54	C	1.559052	0.245626	0.500101
C55	C	1.059719	-0.217967	0.090264
C56	C	1.559719	0.282033	0.590264
C57	C	1.061093	-0.145141	0.090270
C58	C	1.561093	0.354859	0.590270
N59	N	1.107787	-0.373883	0.067202
N60	N	1.607787	0.126117	0.567202
N61	N	1.106483	-0.443066	0.067191
N62	N	1.606483	0.056934	0.567191
C63	C	1.054909	-0.473797	0.000091
C64	C	1.554909	0.026203	0.500091
N65	N	1.004699	-0.432733	-0.067012
N66	N	1.504699	0.067267	0.432988
N67	N	1.006006	-0.363544	-0.067004
N68	N	1.506006	0.136456	0.432996
C69	C	1.057561	-0.333343	0.000106
C70	C	1.557561	0.166657	0.500106
C71	C	1.052736	-0.589162	-0.090074
C72	C	1.552736	-0.089162	0.409926
C73	C	1.051347	-0.661990	-0.090078
C74	C	1.551347	-0.161990	0.409922
C75	C	1.051329	-0.662011	0.090236
C76	C	1.551329	-0.162011	0.590236
C77	C	1.052709	-0.589184	0.090237
C78	C	1.552709	-0.089184	0.590237
C79	C	1.053417	-0.552764	0.000079
C80	C	1.553417	-0.052764	0.500079
C81	C	1.219777	0.091472	0.000111
C82	C	1.719777	0.591472	0.500111
C83	C	1.319067	0.092933	0.000115
C84	C	1.819067	0.592933	0.500115
C85	C	1.049193	0.224077	0.000080
C86	C	1.549193	0.724077	0.500080
C87	C	1.050652	0.301587	0.000071
C88	C	1.550652	0.801587	0.500071
N89	N	1.056208	0.096423	0.235453
N90	N	1.556208	0.596423	0.735453
N91	N	1.056251	0.096437	-0.235261
N92	N	1.556251	0.596437	0.264739
C93	C	1.117222	0.049028	0.287505
C94	C	1.617222	0.549028	0.787505
C95	C	1.117228	0.049027	0.391608
C96	C	1.617228	0.549027	0.891608
C97	C	1.056223	0.096426	0.443658
C98	C	1.556223	0.596426	0.943658
C99	C	0.995203	0.143824	0.391598
C100	C	1.495203	0.643824	0.891598
C101	C	0.995194	0.143820	0.287497
C102	C	1.495194	0.643820	0.787497
C103	C	0.995228	0.143828	0.608578
C104	C	1.495228	0.643828	1.108578
C105	C	0.995238	0.143833	0.712687
C106	C	1.495238	0.643833	1.212687
C107	C	1.117262	0.049035	0.712690
C108	C	1.617262	0.549035	1.212690
C109	C	1.117252	0.049032	0.608588
C110	C	1.617252	0.549032	1.108588
C111	C	1.056233	0.096431	0.556536
C112	C	1.556233	0.596431	1.056536
H113	H	0.347538	-0.022319	0.000134
H114	H	0.847538	0.477681	0.500134
H115	H	1.061636	-0.115506	0.163684
H116	H	1.561636	0.384494	0.663684
H117	H	0.945560	0.182429	0.755060
H118	H	1.445560	0.682429	1.255060
H119	H	0.945536	0.182423	0.566201
H120	H	1.445536	0.682423	1.066201
H121	H	1.166945	0.010442	0.755077
H122	H	1.666945	0.510442	1.255077
C123	C	0.928071	0.195942	0.448845
C124	C	1.428071	0.695942	0.948845
H125	H	0.891718	0.224158	0.402932
H126	H	1.391718	0.724158	0.902932
H127	H	0.960103	0.225058	0.489457
H128	H	1.460103	0.725058	0.989457
H129	H	0.890952	0.170753	0.489451
H130	H	1.390952	0.670753	0.989451
C131	C	0.820976	-0.033551	0.000090
C132	C	1.320976	0.466449	0.500090
H133	H	0.786337	-0.072034	0.000089
H134	H	1.286337	0.427966	0.500089
H135	H	0.857828	-0.035662	0.057758
H136	H	1.357828	0.464338	0.557758
H137	H	0.857817	-0.035653	-0.057595
H138	H	1.357817	0.464347	0.442405
H139	H	0.516787	-0.019826	0.000122
H140	H	1.016787	0.480174	0.500122
C141	C	1.050604	-0.702027	-0.189249
C142	C	1.550604	-0.202027	0.310751
H143	H	1.051230	-0.669904	-0.242939
H144	H	1.551230	-0.169904	0.257061
H145	H	0.997919	-0.725151	-0.193010
H146	H	1.497919	-0.225151	0.306990
H147	H	1.102221	-0.735720	-0.192989
H148	H	1.602221	-0.235720	0.307011
H149	H	1.061703	-0.115470	-0.163453
H150	H	1.561703	0.384530	0.336547
H151	H	1.053307	-0.559506	-0.163486
H152	H	1.553307	-0.059506	0.336514
H153	H	1.059151	-0.247632	0.163664
H154	H	1.559151	0.252368	0.663664
C155	C	0.625073	-0.036443	0.000115
C156	C	1.125073	0.463557	0.500115
H157	H	0.672718	-0.073711	0.000126
H158	H	1.172718	0.426289	0.500126
H159	H	0.589133	-0.039623	-0.057555
H160	H	1.089133	0.460377	0.442445
H161	H	0.589137	-0.039626	0.057798
H162	H	1.089137	0.460374	0.557798
H163	H	1.166909	0.010434	0.433989
H164	H	1.666909	0.510434	0.933989
H165	H	1.059194	-0.247586	-0.163461
H166	H	1.559194	0.252414	0.336539
H167	H	1.050757	-0.691670	0.163637
H168	H	1.550757	-0.191670	0.663637
H169	H	1.053263	-0.559549	0.163648
H170	H	1.553263	-0.059549	0.663648
C171	C	0.291488	0.226425	0.000097
C172	C	0.791488	0.726425	0.500097
H173	H	0.326129	0.264906	0.000074
H174	H	0.826129	0.764906	0.500074
H175	H	0.254645	0.228533	0.057773
H176	H	0.754645	0.728533	0.557773
H177	H	0.254639	0.228531	-0.057580
H178	H	0.754639	0.728531	0.442420
H179	H	1.166903	0.010433	0.245133
H180	H	1.666903	0.510433	0.745133
C181	C	1.184355	-0.003106	0.551335
C182	C	1.684355	0.496894	1.051335
H183	H	1.220691	-0.031339	0.597243
H184	H	1.720691	0.468661	1.097243
H185	H	1.221479	0.022058	0.510710
H186	H	1.721479	0.522058	1.010710
H187	H	1.152285	-0.032214	0.510742
H188	H	1.652285	0.467786	1.010742
H189	H	0.764910	0.215187	0.000050
H190	H	1.264910	0.715187	0.500050
C191	C	0.487390	0.229308	0.000078
C192	C	0.987390	0.729308	0.500078
H193	H	0.439749	0.266579	0.000085
H194	H	0.939749	0.766579	0.500085
H195	H	0.523329	0.232491	-0.057596
H196	H	1.023329	0.732491	0.442404
H197	H	0.523329	0.232482	0.057757
H198	H	1.023329	0.732482	0.557757
C199	C	0.928082	0.195958	0.230240
C200	C	1.428082	0.695958	0.730240
H201	H	0.891757	0.224192	0.276146
H202	H	1.391757	0.724192	0.776146
H203	H	0.890948	0.170793	0.189642
H204	H	1.390948	0.670793	0.689642
H205	H	0.960142	0.225065	0.189618
H206	H	1.460142	0.725065	0.689618
H207	H	0.595672	0.212689	0.000071
H208	H	1.095672	0.712689	0.500071
