data_functionalizedCrystal
_audit_creation_method	'MofGen! by Chris Wilmer'
_symmetry_space_group_name_H-M	'P1'
_symmetry_Int_Tables_number	1
_symmetry_cell_setting	triclinic
loop_
_symmetry_equiv_pos_as_xyz
  x,y,z
_cell_length_a	19.077105
_cell_length_b	18.101395
_cell_length_c	19.077271
_cell_angle_alpha	87.712642
_cell_angle_beta	89.912562
_cell_angle_gamma	87.727498
loop_
_atom_site_label
_atom_site_type_symbol
_atom_site_fract_x
_atom_site_fract_y
_atom_site_fract_z
Zn1	Zn	1.058149	-0.358390	0.440417
Zn2	Zn	1.062797	-0.477431	0.322913
Zn3	Zn	0.945391	-0.348436	0.318212
Zn4	Zn	0.940598	-0.477014	0.435664
O5	O	1.001734	-0.415318	0.379302
O6	O	1.157096	-0.378521	0.428787
O7	O	1.051174	-0.456328	0.223959
O8	O	0.960408	-0.246127	0.334444
O9	O	1.160511	-0.465980	0.342456
O10	O	1.043251	-0.253440	0.424228
O11	O	0.964916	-0.361556	0.220505
O12	O	0.846424	-0.361153	0.329835
O13	O	0.952241	-0.465270	0.534625
O14	O	0.842903	-0.455618	0.416127
O15	O	1.038605	-0.378117	0.538117
O16	O	1.046527	-0.581005	0.337848
O17	O	0.956748	-0.580699	0.420686
C18	C	0.819168	-0.407261	0.371956
C19	C	0.741065	-0.403833	0.368830
C20	C	0.702560	-0.451474	0.412219
C21	C	0.629173	-0.448243	0.409285
C22	C	0.594293	-0.397374	0.362959
C23	C	0.632803	-0.349728	0.319569
C24	C	0.706188	-0.352955	0.322506
C25	C	0.375010	-0.382435	0.349366
C26	C	0.301620	-0.379213	0.346430
C27	C	0.297995	-0.477727	0.436148
C28	C	0.371382	-0.480954	0.439079
C29	C	0.409885	-0.433305	0.395691
N30	N	0.519281	-0.394072	0.359958
N31	N	0.484896	-0.436604	0.398696
C32	C	1.001641	-0.607723	0.379277
C33	C	1.001664	-0.690039	0.379293
C34	C	1.001817	-0.989138	0.379337
C35	C	0.945451	-0.957663	0.431596
C36	C	0.945200	-0.872026	0.431416
C37	C	1.001741	-0.840752	0.379316
C38	C	0.984685	-0.867993	0.304456
C39	C	0.984322	-0.953636	0.304767
C40	C	1.075384	-0.961532	0.401290
C41	C	1.074881	-0.875928	0.402897
C42	C	1.001700	-0.756890	0.379299
C43	C	1.001857	-1.073000	0.379348
C44	C	1.185013	-0.423407	0.386676
C45	C	1.263115	-0.426854	0.389819
C46	C	0.994370	-0.422757	0.562580
C47	C	0.991231	-0.425928	0.640683
C48	C	1.001846	-0.222162	0.379342
C49	C	1.001894	-0.139851	0.379360
C50	C	1.034720	-0.382043	0.679195
C51	C	1.031763	-0.385019	0.752580
C52	C	0.985320	-0.431883	0.787452
C53	C	0.941827	-0.475769	0.748935
C54	C	0.944781	-0.472789	0.675551
C55	C	0.971660	-0.445658	1.006732
C56	C	0.968710	-0.448636	1.080121
C57	C	1.058646	-0.357884	1.083761
C58	C	1.061599	-0.354912	1.010375
C59	C	1.018103	-0.398795	0.971864
N60	N	0.982298	-0.434928	0.862464
N61	N	1.021122	-0.395746	0.896854
C62	C	1.009063	-0.407923	1.196735
C63	C	1.012199	-0.404752	1.118633
H64	H	0.273223	-0.337781	0.308710
O65	O	0.412300	-0.336120	0.307151
C66	C	0.365775	-0.290519	0.265647
H67	H	0.313552	-0.318453	0.261065
H68	H	0.389194	-0.281205	0.211146
H69	H	0.356956	-0.235027	0.291166
H70	H	0.904010	-0.513925	0.777333
H71	H	0.931584	-0.843571	0.285940
H72	H	1.117342	-0.981939	0.363264
O73	O	0.923629	-0.494259	1.113924
C74	C	0.939665	-0.568022	1.096612
H75	H	0.968813	-0.568593	1.044415
H76	H	0.889030	-0.598882	1.092061
H77	H	0.974118	-0.596236	1.139362
H78	H	0.909361	-0.508517	0.644195
H79	H	1.118858	-0.854885	0.367845
O80	O	0.743569	-0.306755	0.280254
C81	C	0.728418	-0.319180	0.209475
H82	H	0.708361	-0.377299	0.205021
H83	H	0.778070	-0.313460	0.176704
H84	H	0.686573	-0.276828	0.189467
H85	H	1.024580	-0.847603	0.264326
H86	H	0.604398	-0.308306	0.281852
H87	H	0.955525	-0.853759	0.486830
H88	H	1.087798	-0.858459	0.458004
O89	O	0.260628	-0.524108	0.478227
C90	C	0.279158	-0.598053	0.463483
H91	H	0.301567	-0.600316	0.408147
H92	H	0.230642	-0.632771	0.467553
H93	H	0.320246	-0.620868	0.502827
H94	H	1.072541	-0.343883	0.650807
H95	H	0.955643	-0.981009	0.487184
O96	O	0.880759	-0.979962	0.414060
C97	C	0.886220	-1.023931	0.354785
H98	H	0.935907	-1.010400	0.324415
H99	H	0.838529	-1.012043	0.319592
H100	H	0.888639	-1.084902	0.372414
O101	O	1.074081	-0.342367	0.789884
C102	C	1.115697	-0.300356	0.743369
H103	H	1.120215	-0.328674	0.691150
H104	H	1.170212	-0.295766	0.766805
H105	H	1.090317	-0.242658	0.734538
H106	H	1.094056	-0.322156	1.115124
H107	H	0.399776	-0.522378	0.476801
O108	O	1.106729	-0.309320	0.976612
C109	C	1.144493	-0.271237	1.026342
H110	H	1.113608	-0.269525	1.077493
H111	H	1.152877	-0.212361	1.005452
H112	H	1.197529	-0.301029	1.036291
H113	H	0.930634	-0.970629	0.286517
O114	O	0.736328	-0.500910	0.457283
C115	C	0.686602	-0.542277	0.494938
H116	H	0.634206	-0.509747	0.495325
H117	H	0.705588	-0.553445	0.551137
H118	H	0.679804	-0.597088	0.468800
H119	H	0.597826	-0.487038	0.444616
O120	O	0.880056	-0.844117	0.413905
C121	C	0.852854	-0.802058	0.469083
H122	H	0.880118	-0.820890	0.520225
H123	H	0.794103	-0.810271	0.474227
H124	H	0.862342	-0.741007	0.457416
O125	O	1.031282	-0.978266	0.256449
C126	C	1.012253	-0.948423	0.189453
H127	H	0.953860	-0.932373	0.188825
H128	H	1.023818	-0.991462	0.148526
H129	H	1.043692	-0.897305	0.176831
O130	O	1.094513	-0.990820	0.465512
C131	C	1.041673	-1.036788	0.491587
H132	H	0.989661	-1.019751	0.465112
H133	H	1.036445	-1.030991	0.550669
H134	H	1.056184	-1.096793	0.480067
O135	O	0.929509	-0.488327	0.969262
C136	C	0.971184	-0.536220	0.928425
H137	H	1.024892	-0.512009	0.919568
H138	H	0.944621	-0.542791	0.875673
H139	H	0.977738	-0.592585	0.957012
