data_functionalizedCrystal
_audit_creation_method	'MofGen! by Chris Wilmer'
_symmetry_space_group_name_H-M	'P1'
_symmetry_Int_Tables_number	1
_symmetry_cell_setting	triclinic
loop_
_symmetry_equiv_pos_as_xyz
  x,y,z
_cell_length_a	18.050591
_cell_length_b	18.050590
_cell_length_c	12.759387
_cell_angle_alpha	89.963724
_cell_angle_beta	89.973947
_cell_angle_gamma	90.015000
loop_
_atom_site_label
_atom_site_type_symbol
_atom_site_fract_x
_atom_site_fract_y
_atom_site_fract_z
Zn1	Zn	1.135389	-0.295682	-0.594176
Zn2	Zn	1.635389	0.204318	-0.094176
Zn3	Zn	1.135307	-0.419893	-0.418484
Zn4	Zn	1.635307	0.080107	0.081516
Zn5	Zn	1.011194	-0.295714	-0.418491
Zn6	Zn	1.511194	0.204286	0.081509
Zn7	Zn	1.011177	-0.419827	-0.594100
Zn8	Zn	1.511177	0.080173	-0.094100
O9	O	1.073266	-0.357779	-0.506313
O10	O	1.573266	0.142221	-0.006313
O11	O	1.239302	-0.312173	-0.570899
O12	O	1.739302	0.187827	-0.070899
O13	O	1.118816	-0.403462	-0.271463
O14	O	1.618816	0.096538	0.228537
O15	O	1.027710	-0.191785	-0.441831
O16	O	1.527710	0.308215	0.058169
O17	O	1.239242	-0.403431	-0.441818
O18	O	1.739242	0.096569	0.058182
O19	O	1.118956	-0.191762	-0.570906
O20	O	1.618956	0.308238	-0.070906
O21	O	1.027631	-0.312228	-0.271469
O22	O	1.527631	0.187772	0.228531
O23	O	0.907267	-0.312164	-0.441757
O24	O	1.407267	0.187836	0.058243
O25	O	1.027681	-0.403318	-0.741132
O26	O	1.527681	0.096682	-0.241132
O27	O	0.907254	-0.403349	-0.570777
O28	O	1.407254	0.096651	-0.070777
O29	O	1.118939	-0.312109	-0.741187
O30	O	1.618939	0.187891	-0.241187
O31	O	1.118799	-0.523809	-0.441745
O32	O	1.618799	-0.023809	0.058255
O33	O	1.027601	-0.523761	-0.570770
O34	O	1.527601	-0.023761	-0.070770
C35	C	0.880314	-0.357753	-0.506260
C36	C	1.380314	0.142247	-0.006260
C37	C	0.797769	-0.357760	-0.506263
C38	C	1.297769	0.142240	-0.006263
C39	C	0.548928	-0.308122	-0.436268
C40	C	1.048928	0.191878	0.063732
C41	C	0.598365	-0.290025	-0.532151
C42	C	1.098365	0.209975	-0.032151
C43	C	0.500648	-0.357798	-0.506349
C44	C	1.000648	0.142202	-0.006349
C45	C	0.598294	-0.375840	-0.410429
C46	C	1.098294	0.124160	0.089571
C47	C	0.646633	-0.357777	-0.506301
C48	C	1.146633	0.142223	-0.006301
C49	C	0.548997	-0.339666	-0.602282
C50	C	1.048997	0.160334	-0.102282
C51	C	0.548922	-0.425513	-0.480496
C52	C	1.048922	0.074487	0.019504
C53	C	0.598336	-0.407442	-0.576445
C54	C	1.098336	0.092558	-0.076445
C55	C	0.416550	-0.357808	-0.506375
C56	C	0.916550	0.142192	-0.006375
C57	C	0.730730	-0.357767	-0.506286
C58	C	1.230730	0.142233	-0.006286
C59	C	1.073209	-0.550731	-0.506271
C60	C	1.573209	-0.050731	-0.006271
C61	C	1.073253	-0.633277	-0.506288
C62	C	1.573253	-0.133277	-0.006288
C63	C	1.122949	-0.832727	-0.436222
C64	C	1.622949	-0.332727	0.063778
C65	C	1.141092	-0.882052	-0.532112
C66	C	1.641092	-0.382052	-0.032112
C67	C	1.073295	-0.784407	-0.506330
C68	C	1.573295	-0.284407	-0.006330
C69	C	1.055228	-0.882165	-0.410483
C70	C	1.555228	-0.382165	0.089517
C71	C	1.073337	-0.930393	-0.506362
C72	C	1.573337	-0.430393	-0.006362
C73	C	1.091473	-0.832645	-0.602271
C74	C	1.591473	-0.332645	-0.102271
C75	C	1.005577	-0.832753	-0.480577
C76	C	1.505577	-0.332753	0.019423
C77	C	1.023694	-0.882055	-0.576533
C78	C	1.523694	-0.382055	-0.076533
C79	C	1.073273	-0.700309	-0.506310
C80	C	1.573273	-0.200309	-0.006310
C81	C	1.073359	-1.014489	-0.506393
C82	C	1.573359	-0.514489	-0.006393
C83	C	1.266972	-0.357806	-0.506366
C84	C	1.766972	0.142194	-0.006366
C85	C	1.349518	-0.357817	-0.506389
C86	C	1.849518	0.142183	-0.006389
C87	C	1.073317	-0.357702	-0.780346
C88	C	1.573317	0.142298	-0.280346
C89	C	1.073338	-0.357670	-0.897123
C90	C	1.573338	0.142330	-0.397123
C91	C	1.073344	-0.164074	-0.506378
C92	C	1.573344	0.335926	-0.006378
C93	C	1.073377	-0.081528	-0.506406
C94	C	1.573377	0.418472	-0.006406
C95	C	0.978394	-0.262661	-0.897148
C96	C	1.478394	0.237339	-0.397148
C97	C	0.930935	-0.215142	-0.952021
C98	C	1.430935	0.284858	-0.452021
C99	C	0.930957	-0.215116	-1.061743
C100	C	1.430957	0.284884	-0.561743
C101	C	0.978442	-0.262614	-1.116594
C102	C	1.478442	0.237386	-0.616594
C103	C	1.025901	-0.310133	-1.061721
C104	C	1.525901	0.189867	-0.561721
C105	C	1.025875	-0.310153	-0.951996
C106	C	1.525875	0.189847	-0.451996
C107	C	1.120840	-0.405144	-1.061696
C108	C	1.620840	0.094856	-0.561696
C109	C	1.120823	-0.405169	-0.951974
C110	C	1.620823	0.094831	-0.451974
C111	C	1.168325	-0.452643	-1.116547
C112	C	1.668325	0.047357	-0.616547
C113	C	1.215788	-0.500160	-1.061674
C114	C	1.715788	-0.000160	-0.561674
C115	C	1.215765	-0.500184	-0.951946
C116	C	1.715765	-0.000184	-0.451946
C117	C	1.168282	-0.452688	-0.897101
C118	C	1.668282	0.047312	-0.397101
C119	C	1.073259	-0.357802	-0.233345
C120	C	1.573259	0.142198	0.266655
C121	C	1.073381	-0.357625	-0.116569
C122	C	1.573381	0.142375	0.383431
H123	H	0.619891	-0.449443	-0.635758
H124	H	1.119891	0.050557	-0.135758
Cl125	Cl	1.275471	-0.559871	-1.130634
Cl126	Cl	1.775471	-0.059871	-0.630634
H127	H	1.168260	-0.452700	-0.807760
H128	H	1.668260	0.047300	-0.307760
Cl129	Cl	1.229540	-0.915471	-0.565794
Cl130	Cl	1.729540	-0.415471	-0.065794
H131	H	0.948307	-0.811081	-0.458745
H132	H	1.448307	-0.311081	0.041255
H133	H	0.981721	-0.903578	-0.635903
H134	H	1.481721	-0.403578	-0.135903
Cl135	Cl	0.515708	-0.315987	-0.727528
Cl136	Cl	1.015708	0.184013	-0.227528
Cl137	Cl	0.515360	-0.513913	-0.446712
Cl138	Cl	1.015360	-0.013913	0.053288
Cl139	Cl	0.631729	-0.399416	-0.285222
Cl140	Cl	1.131729	0.100584	0.214778
H141	H	1.164955	-0.811067	-0.376996
H142	H	1.664955	-0.311067	0.123004
Cl143	Cl	1.115207	-0.799209	-0.727470
Cl144	Cl	1.615207	-0.299209	-0.227470
H145	H	0.978449	-0.262595	-1.205935
H146	H	1.478449	0.237405	-0.705935
Cl147	Cl	1.031607	-0.915748	-0.285320
Cl148	Cl	1.531607	-0.415748	0.214680
H149	H	1.168336	-0.452622	-1.205888
H150	H	1.668336	0.047378	-0.705888
H151	H	0.892311	-0.176423	-1.106420
H152	H	1.392311	0.323577	-0.606420
H153	H	0.978377	-0.262673	-0.807807
H154	H	1.478377	0.237327	-0.307807
H155	H	0.892272	-0.176472	-0.907349
H156	H	1.392272	0.323528	-0.407349
H157	H	1.254414	-0.538878	-0.907274
H158	H	1.754414	-0.038878	-0.407274
H159	H	0.620069	-0.232749	-0.554016
H160	H	1.120069	0.267251	-0.054016
Cl161	Cl	0.515432	-0.243231	-0.344913
Cl162	Cl	1.015432	0.256769	0.155087
