data_functionalizedCrystal
_audit_creation_method	'MofGen! by Chris Wilmer'
_symmetry_space_group_name_H-M	'P1'
_symmetry_Int_Tables_number	1
_symmetry_cell_setting	triclinic
loop_
_symmetry_equiv_pos_as_xyz
  x,y,z
_cell_length_a	19.077105
_cell_length_b	25.639239
_cell_length_c	19.076919
_cell_angle_alpha	92.268407
_cell_angle_beta	90.076224
_cell_angle_gamma	87.734929
loop_
_atom_site_label
_atom_site_type_symbol
_atom_site_fract_x
_atom_site_fract_y
_atom_site_fract_z
Zn1	Zn	1.058187	-0.252939	-0.440398
Zn2	Zn	1.062799	-0.337004	-0.322884
Zn3	Zn	0.945407	-0.245935	-0.318192
Zn4	Zn	0.940620	-0.336689	-0.435637
O5	O	1.001753	-0.293142	-0.379278
O6	O	1.157129	-0.267153	-0.428766
O7	O	1.051160	-0.322124	-0.223931
O8	O	0.960440	-0.173702	-0.334431
O9	O	1.160518	-0.328916	-0.342429
O10	O	1.043299	-0.178848	-0.424215
O11	O	0.964912	-0.255216	-0.220483
O12	O	0.846441	-0.254910	-0.329815
O13	O	0.952283	-0.328378	-0.534600
O14	O	0.842925	-0.321587	-0.416101
O15	O	1.038658	-0.266848	-0.538097
O16	O	1.046519	-0.410124	-0.337813
O17	O	0.956755	-0.409893	-0.420652
C18	C	0.819187	-0.287455	-0.371933
C19	C	0.741083	-0.285035	-0.368807
C20	C	0.702581	-0.318661	-0.412193
C21	C	0.629194	-0.316381	-0.409259
C22	C	0.594312	-0.280476	-0.362936
C23	C	0.632820	-0.246846	-0.319549
C24	C	0.706205	-0.249125	-0.322486
C25	C	0.375028	-0.269932	-0.349344
C26	C	0.301638	-0.267658	-0.346409
C27	C	0.298017	-0.337192	-0.436121
C28	C	0.371404	-0.339469	-0.439051
C29	C	0.409905	-0.305837	-0.395666
N30	N	0.519299	-0.278146	-0.359935
N31	N	0.484917	-0.308166	-0.398671
C32	C	1.001636	-0.428980	-0.379241
C33	C	1.001650	-0.487094	-0.379251
C34	C	1.048607	-0.847575	-0.336225
C35	C	1.048634	-0.902180	-0.336235
O36	O	1.088438	-0.930513	-0.299613
N37	N	1.001875	-0.929386	-0.379329
C38	C	0.955090	-0.901983	-0.422421
O39	O	0.915321	-0.930137	-0.459077
C40	C	0.955067	-0.847379	-0.422413
C41	C	1.001825	-0.820176	-0.379311
C42	C	1.095362	-0.820372	-0.293127
C43	C	1.095334	-0.765771	-0.293116
C44	C	1.048551	-0.738372	-0.336202
C45	C	1.001797	-0.765574	-0.379300
C46	C	0.908287	-0.819977	-0.465508
C47	C	0.908268	-0.765369	-0.465497
C48	C	0.955026	-0.738167	-0.422395
C49	C	0.954987	-0.683574	-0.422375
N50	N	1.001746	-0.656368	-0.379282
C51	C	1.048528	-0.683767	-0.336195
C52	C	0.955143	-1.016656	-0.422434
C53	C	0.955162	-1.071259	-0.422438
C54	C	1.048707	-1.071452	-0.336253
C55	C	1.048684	-1.016848	-0.336246
C56	C	1.001902	-0.989450	-0.379340
C57	C	1.048466	-0.569100	-0.336174
C58	C	1.048432	-0.514493	-0.336164
C59	C	0.954890	-0.514304	-0.422351
C60	C	0.954921	-0.568906	-0.422359
C61	C	1.001715	-0.596303	-0.379268
O62	O	0.915205	-0.655207	-0.458982
O63	O	1.088298	-0.655607	-0.299552
C64	C	1.185032	-0.298851	-0.386652
C65	C	1.263135	-0.301284	-0.389794
C66	C	0.994422	-0.298359	-0.562557
C67	C	0.991298	-0.300582	-0.640660
C68	C	1.001889	-0.156774	-0.379331
C69	C	1.001947	-0.098662	-0.379354
C70	C	1.034799	-0.269593	-0.679175
C71	C	1.031855	-0.271680	-0.752561
C72	C	0.985413	-0.304759	-0.787430
C73	C	0.941907	-0.335750	-0.748910
C74	C	0.944848	-0.333660	-0.675526
C75	C	0.971792	-0.314442	-1.006711
C76	C	0.968856	-0.316531	-1.080100
C77	C	1.058803	-0.252460	-1.083746
C78	C	1.061742	-0.250375	-1.010361
C79	C	1.018234	-0.281364	-0.971846
N80	N	0.982404	-0.306894	-0.862442
N81	N	1.021240	-0.279226	-0.896836
C82	C	1.009096	-0.287908	-0.196713
C83	C	1.012356	-0.285541	-0.118616
H84	H	0.399800	-0.368707	-0.476771
C85	C	1.148004	-0.188919	-1.079978
C86	C	1.106621	-0.218394	-1.126082
H87	H	1.177528	-0.167889	-1.106115
H88	H	1.118555	-0.167154	-1.050131
H89	H	1.176006	-0.211726	-1.052428
H90	H	1.078615	-0.195587	-1.153628
H91	H	1.136074	-0.240161	-1.155941
H92	H	0.936374	-0.339684	-0.975362
H93	H	0.917081	-1.093402	-0.457529
H94	H	0.931035	-0.343470	-1.108489
C95	C	0.546220	-0.384424	-0.415532
C96	C	0.586865	-0.353344	-0.456944
H97	H	0.520084	-0.407242	-0.444973
H98	H	0.576051	-0.404402	-0.386019
H99	H	0.514950	-0.362706	-0.387527
H100	H	0.618139	-0.375063	-0.484945
H101	H	0.557031	-0.333365	-0.486469
C102	C	0.820309	-0.221741	-0.287159
C103	C	0.748531	-0.212162	-0.274795
H104	H	0.846437	-0.198917	-0.257720
H105	H	0.832716	-0.256931	-0.277266
H106	H	0.830453	-0.215862	-0.334874
H107	H	0.738386	-0.218044	-0.227081
H108	H	0.736119	-0.176964	-0.284683
C109	C	0.273997	-0.426029	-0.469235
C110	C	0.255696	-0.374153	-0.483816
H111	H	0.247867	-0.448846	-0.498683
H112	H	0.322689	-0.432519	-0.477613
H113	H	0.263835	-0.431905	-0.421523
H114	H	0.265863	-0.368276	-0.531528
H115	H	0.206993	-0.367660	-0.475444
H116	H	0.273239	-0.238414	-0.308691
H117	H	0.406367	-0.242551	-0.314012
H118	H	0.604413	-0.217610	-0.281834
C119	C	1.140904	-0.520178	-0.250976
C120	C	1.099834	-0.484593	-0.288787
H121	H	1.172640	-0.501719	-0.221732
H122	H	1.111397	-0.539789	-0.222848
H123	H	1.166538	-0.543154	-0.282707
H124	H	1.074196	-0.461619	-0.257055
H125	H	1.129345	-0.464973	-0.316917
H126	H	1.086571	-0.591400	-0.301087
C127	C	1.141176	-1.066173	-0.251060
C128	C	1.100136	-1.101576	-0.288893
H129	H	1.172920	-1.084772	-0.221821
H130	H	1.166794	-1.046554	-0.282772
H131	H	1.111645	-1.043187	-0.222918
H132	H	1.129666	-1.124559	-0.317039
H133	H	1.074517	-1.121204	-0.257177
C134	C	0.909416	-0.358903	-0.561411
C135	C	0.897031	-0.367725	-0.633186
H136	H	0.879889	-0.379930	-0.535274
H137	H	0.957096	-0.367685	-0.551287
H138	H	0.899649	-0.323110	-0.548994
H139	H	0.906802	-0.403517	-0.645604
H140	H	0.849340	-0.358946	-0.643314
C141	C	0.815813	-0.770668	-0.550699
C142	C	0.856843	-0.735255	-0.512870
H143	H	0.784064	-0.752075	-0.579940
H144	H	0.845345	-0.793650	-0.578830
H145	H	0.790195	-0.790288	-0.518978
H146	H	0.882465	-0.715637	-0.544590
H147	H	0.827308	-0.712263	-0.484736
H148	H	1.133410	-0.743625	-0.258020
C149	C	1.187812	-0.815064	-0.207931
C150	C	1.146787	-0.850483	-0.245756
H151	H	1.219555	-0.833651	-0.178678
H152	H	1.213430	-0.795450	-0.239648
H153	H	1.158271	-0.792076	-0.179804
H154	H	1.176327	-0.873469	-0.273886
H155	H	1.121167	-0.870106	-0.214034
C156	C	0.941332	-0.632680	-0.516484
C157	C	0.903522	-0.598814	-0.469729
H158	H	0.909602	-0.651143	-0.545728
H159	H	0.970829	-0.613060	-0.544611
H160	H	0.969198	-0.656811	-0.490818
H161	H	0.875660	-0.574681	-0.495395
H162	H	0.874013	-0.618435	-0.441600
H163	H	1.086758	-0.994703	-0.301149
C164	C	0.913332	-0.430509	-0.460602
C165	C	0.903471	-0.484180	-0.469715
H166	H	0.881593	-0.411912	-0.489849
H167	H	0.904964	-0.419923	-0.412974
H168	H	0.960124	-0.423293	-0.472816
H169	H	0.856680	-0.491398	-0.457495
H170	H	0.911834	-0.494770	-0.517354
C171	C	0.862673	-1.021957	-0.507618
C172	C	0.903707	-0.986542	-0.469798
H173	H	0.830917	-1.003367	-0.536855
H174	H	0.892201	-1.044940	-0.535753
H175	H	0.837061	-1.041577	-0.475891
H176	H	0.929322	-0.966925	-0.501524
H177	H	0.874175	-0.963550	-0.441661
C178	C	0.894703	-0.883737	-0.559648
C179	C	0.856894	-0.849869	-0.512895
H180	H	0.862974	-0.902191	-0.588903
H181	H	0.924213	-0.864119	-0.587765
H182	H	0.922557	-0.907875	-0.533982
H183	H	0.829045	-0.825728	-0.538561
H184	H	0.827372	-0.869488	-0.484776
C185	C	0.897463	-0.367406	-0.859783
C186	C	0.890857	-0.372112	-0.787237
H187	H	0.865950	-0.389858	-0.883442
H188	H	0.886732	-0.332304	-0.871406
H189	H	0.944189	-0.376872	-0.873701
H190	H	0.844132	-0.362642	-0.773318
H191	H	0.901583	-0.407222	-0.775608
C192	C	1.123405	-0.206467	-0.690158
C193	C	1.085848	-0.233229	-0.640851
H194	H	1.154917	-0.184014	-0.666497
H195	H	1.149113	-0.230898	-0.719852
H196	H	1.091653	-0.186332	-0.717556
H197	H	1.117600	-0.253367	-0.613455
H198	H	1.060139	-0.208794	-0.611144
H199	H	1.067280	-0.246446	-0.783917
C200	C	1.106142	-0.218688	-0.899486
C201	C	1.112759	-0.213987	-0.972032
H202	H	1.137634	-0.196219	-0.875825
H203	H	1.059413	-0.209245	-0.885581
H204	H	1.116904	-0.253789	-0.887853
H205	H	1.101993	-0.178887	-0.983666
H206	H	1.159499	-0.223428	-0.985943
C207	C	0.691623	-0.387158	-0.500580
C208	C	0.740920	-0.358128	-0.463116
H209	H	0.715292	-0.411520	-0.532023
H210	H	0.664206	-0.405360	-0.468770
H211	H	0.661945	-0.364281	-0.526365
H212	H	0.770594	-0.381005	-0.437327
H213	H	0.768348	-0.339924	-0.494930
