data_functionalizedCrystal
_audit_creation_method	'MofGen! by Chris Wilmer'
_symmetry_space_group_name_H-M	'P1'
_symmetry_Int_Tables_number	1
_symmetry_cell_setting	triclinic
loop_
_symmetry_equiv_pos_as_xyz
  x,y,z
_cell_length_a	18.101395
_cell_length_b	16.959455
_cell_length_c	16.959447
_cell_angle_alpha	89.985678
_cell_angle_beta	90.029468
_cell_angle_gamma	89.971949
loop_
_atom_site_label
_atom_site_type_symbol
_atom_site_fract_x
_atom_site_fract_y
_atom_site_fract_z
Zn1	Zn	-0.294875	-1.208323	0.446913
Zn2	Zn	0.205125	-0.708323	0.946913
Zn3	Zn	-0.418728	-1.208220	0.314737
Zn4	Zn	0.081272	-0.708220	0.814737
Zn5	Zn	-0.294899	-1.076152	0.314751
Zn6	Zn	0.205101	-0.576152	0.814751
Zn7	Zn	-0.418673	-1.076091	0.446875
Zn8	Zn	0.081327	-0.576091	0.946875
O9	O	-0.356794	-1.142196	0.380819
O10	O	0.143206	-0.642196	0.880819
O11	O	-0.311318	-1.318920	0.429390
O12	O	0.188682	-0.818920	0.929390
O13	O	-0.402335	-1.190683	0.204128
O14	O	0.097665	-0.690683	0.704128
O15	O	-0.191263	-1.093753	0.332304
O16	O	0.308737	-0.593753	0.832304
O17	O	-0.402312	-1.318845	0.332280
O18	O	0.097688	-0.818845	0.832280
O19	O	-0.191246	-1.190859	0.429404
O20	O	0.308754	-0.690859	0.929404
O21	O	-0.311358	-1.093653	0.204138
O22	O	0.188642	-0.593653	0.704138
O23	O	-0.311304	-0.965533	0.332267
O24	O	0.188696	-0.465533	0.832267
O25	O	-0.402218	-1.093649	0.557491
O26	O	0.097782	-0.593649	1.057491
O27	O	-0.402241	-0.965488	0.429339
O28	O	0.097759	-0.465488	0.929339
O29	O	-0.311264	-1.190800	0.557519
O30	O	0.188736	-0.690800	1.057519
O31	O	-0.522354	-1.190624	0.332243
O32	O	-0.022354	-0.690624	0.832243
O33	O	-0.522313	-1.093550	0.429325
O34	O	-0.022313	-0.593550	0.929325
C35	C	-0.356769	-0.936830	0.380801
C36	C	0.143231	-0.436830	0.880801
C37	C	-0.356777	-0.848974	0.380812
C38	C	0.143223	-0.348974	0.880812
C39	C	-0.549204	-1.142091	0.380796
C40	C	-0.049204	-0.642091	0.880796
C41	C	-0.631518	-1.142118	0.380812
C42	C	-0.131518	-0.642118	0.880812
C43	C	-0.356732	-1.142229	0.586987
C44	C	0.143268	-0.642229	1.086987
C45	C	-0.356706	-1.142243	0.674844
C46	C	0.143294	-0.642243	1.174844
C47	C	-0.930609	-1.142291	0.380855
C48	C	-0.430609	-0.642291	0.880855
C49	C	-0.899289	-1.081356	0.442088
C50	C	-0.399289	-0.581356	0.942088
C51	C	-0.813671	-1.081066	0.441896
C52	C	-0.313671	-0.581066	0.941896
C53	C	-0.782227	-1.142205	0.380834
C54	C	-0.282227	-0.642205	0.880834
C55	C	-0.813380	-1.119658	0.297530
C56	C	-0.313380	-0.619658	0.797530
C57	C	-0.899025	-1.119266	0.297896
C58	C	-0.399025	-0.619266	0.797896
C59	C	-0.898956	-1.225907	0.402193
C60	C	-0.398956	-0.725907	0.902193
C61	C	-0.813305	-1.225415	0.404020
C62	C	-0.313305	-0.725415	0.904020
C63	C	-0.698367	-1.142158	0.380818
C64	C	-0.198367	-0.642158	0.880818
C65	C	-1.014469	-1.142337	0.380866
C66	C	-0.514469	-0.642337	0.880866
C67	C	-0.163632	-1.142324	0.380860
C68	C	0.336368	-0.642324	0.880860
C69	C	-0.081318	-1.142379	0.380877
C70	C	0.418682	-0.642379	0.880877
C71	C	-0.356819	-1.348365	0.380838
C72	C	0.143181	-0.848365	0.880838
C73	C	-0.356830	-1.436221	0.380846
C74	C	0.143170	-0.936221	0.880846
C75	C	-0.309404	-0.477497	0.330380
C76	C	0.190596	0.022503	0.830380
C77	C	-0.404244	-0.477499	0.431304
C78	C	0.095756	0.022501	0.931304
C79	C	-0.404234	-0.560045	0.431299
C80	C	0.095766	-0.060045	0.931299
C81	C	-0.356808	-0.601321	0.380833
C82	C	0.143192	-0.101321	0.880833
C83	C	-0.309394	-0.560050	0.330372
C84	C	0.190606	-0.060050	0.830372
C85	C	-0.451653	-0.601321	0.481754
C86	C	0.048347	-0.101321	0.981754
C87	C	-0.451644	-0.683872	0.481750
C88	C	0.048356	-0.183872	0.981750
C89	C	-0.404215	-0.725150	0.431287
C90	C	0.095785	-0.225150	0.931287
C91	C	-0.356798	-0.683874	0.380825
C92	C	0.143202	-0.183874	0.880825
C93	C	-0.309373	-0.725150	0.330359
C94	C	0.190627	-0.225150	0.830359
C95	C	-0.261951	-0.683876	0.279899
C96	C	0.238049	-0.183876	0.779899
C97	C	-0.261964	-0.601327	0.279909
C98	C	0.238036	-0.101327	0.779909
C99	C	-0.404202	-0.807698	0.431278
C100	C	0.095798	-0.307698	0.931278
C101	C	-0.309362	-0.807703	0.330351
C102	C	0.190638	-0.307703	0.830351
C103	C	-0.356801	-1.142209	0.175453
C104	C	0.143199	-0.642209	0.675453
C105	C	-0.356619	-1.142348	0.087597
C106	C	0.143381	-0.642348	0.587597
C107	C	-0.403984	-1.091756	1.046308
C108	C	0.096016	-0.591756	1.546308
C109	C	-0.309273	-1.192920	1.046332
C110	C	0.190727	-0.692920	1.546332
C111	C	-0.309289	-1.192899	0.963786
C112	C	0.190711	-0.692899	1.463786
C113	C	-0.356653	-1.142306	0.922497
C114	C	0.143347	-0.642306	1.422497
C115	C	-0.404002	-1.091735	0.963754
C116	C	0.095998	-0.591735	1.463754
C117	C	-0.261946	-1.243475	0.922523
C118	C	0.238054	-0.743475	1.422523
C119	C	-0.261960	-1.243456	0.839972
C120	C	0.238040	-0.743456	1.339972
C121	C	-0.309322	-1.192859	0.798681
C122	C	0.190678	-0.692859	1.298681
C123	C	-0.356672	-1.142285	0.839944
C124	C	0.143328	-0.642285	1.339944
C125	C	-0.404037	-1.091693	0.798655
C126	C	0.095963	-0.591693	1.298655
C127	C	-0.451384	-1.041115	0.839915
C128	C	0.048616	-0.541115	1.339915
C129	C	-0.451364	-1.041138	0.922464
C130	C	0.048636	-0.541138	1.422464
C131	C	-0.309342	-1.192836	0.716133
C132	C	0.190658	-0.692836	1.216133
C133	C	-0.404055	-1.091672	0.716101
C134	C	0.095945	-0.591672	1.216101
H135	H	-0.792606	-1.095172	0.503666
H136	H	-0.292606	-0.595172	1.003666
Br137	Br	-0.933535	-1.104627	0.545379
Br138	Br	-0.433535	-0.604627	1.045379
Br139	Br	-0.244990	-0.863714	0.261864
Br140	Br	0.255010	-0.363714	0.761864
H141	H	-0.270794	-1.234018	0.682542
H142	H	0.229206	-0.734018	1.182542
Br143	Br	-0.197677	-1.312140	0.978560
Br144	Br	0.302323	-0.812140	1.478560
H145	H	-0.442619	-1.050466	0.682489
H146	H	0.057381	-0.550466	1.182489
Br147	Br	-0.935283	-0.978685	0.418848
Br148	Br	-0.435283	-0.478685	0.918848
H149	H	-0.793014	-1.162645	0.250663
H150	H	-0.293014	-0.662645	0.750663
Br151	Br	-0.934869	-1.260172	0.501714
Br152	Br	-0.434869	-0.760172	1.001714
H153	H	-0.490257	-0.717471	0.522838
H154	H	0.009743	-0.217471	1.022838
Br155	Br	-0.197598	-0.739903	0.211405
Br156	Br	0.302402	-0.239903	0.711405
Br157	Br	-0.197704	-1.312095	0.783982
Br158	Br	0.302296	-0.812095	1.283982
H159	H	-0.490269	-0.567709	0.522835
H160	H	0.009731	-0.067709	1.022835
H161	H	-0.489951	-0.999926	0.806287
H162	H	0.010049	-0.499926	1.306287
H163	H	-0.919210	-1.271306	0.357595
H164	H	-0.419210	-0.771306	0.857595
H165	H	-0.223357	-0.567715	0.238827
H166	H	0.276643	-0.067715	0.738827
Br167	Br	-0.468560	-0.863710	0.499745
Br168	Br	0.031440	-0.363710	0.999745
H169	H	-0.270715	-1.234114	1.079954
H170	H	0.229285	-0.734114	1.579954
H171	H	-0.793246	-1.019089	0.427762
H172	H	-0.293246	-0.519089	0.927762
H173	H	-0.792941	-1.242417	0.465328
H174	H	-0.292941	-0.742417	0.965328
H175	H	-0.919066	-1.058143	0.279821
H176	H	-0.419066	-0.558143	0.779821
H177	H	-0.270793	-0.443888	0.289299
H178	H	0.229207	0.056112	0.789299
Br179	Br	-0.777739	-1.018861	0.266859
Br180	Br	-0.277739	-0.518861	0.766859
Br181	Br	-0.468233	-1.023113	1.102300
Br182	Br	0.031767	-0.523113	1.602300
Br183	Br	-0.933567	-1.190021	0.219258
Br184	Br	-0.433567	-0.690021	0.719258
Br185	Br	-0.777617	-1.305093	0.335111
Br186	Br	-0.277617	-0.805093	0.835111
H187	H	-0.442860	-0.443888	0.472386
H188	H	0.057140	0.056112	0.972386
H189	H	-0.489914	-0.999962	0.956066
H190	H	0.010086	-0.499962	1.456066
