data_functionalizedCrystal
_audit_creation_method	'MofGen! by Chris Wilmer'
_symmetry_space_group_name_H-M	'P1'
_symmetry_Int_Tables_number	1
_symmetry_cell_setting	triclinic
loop_
_symmetry_equiv_pos_as_xyz
  x,y,z
_cell_length_a	19.077068
_cell_length_b	19.805407
_cell_length_c	19.805399
_cell_angle_alpha	89.980427
_cell_angle_beta	92.269429
_cell_angle_gamma	92.327086
loop_
_atom_site_label
_atom_site_type_symbol
_atom_site_fract_x
_atom_site_fract_y
_atom_site_fract_z
Zn1	Zn	-0.280218	1.023904	-0.393534
Zn2	Zn	0.053115	1.357237	-0.060201
Zn3	Zn	0.386449	1.690571	0.273133
Zn4	Zn	-0.397917	1.019269	-0.284888
Zn5	Zn	-0.064584	1.352603	0.048445
Zn6	Zn	0.268750	1.685936	0.381779
Zn7	Zn	-0.280237	0.910718	-0.280359
Zn8	Zn	0.053096	1.244051	0.052974
Zn9	Zn	0.386429	1.577385	0.386307
Zn10	Zn	-0.397880	0.906134	-0.398033
Zn11	Zn	-0.064546	1.239467	-0.064700
Zn12	Zn	0.268787	1.572801	0.268633
O13	O	-0.339063	0.965006	-0.339204
O14	O	-0.005730	1.298340	-0.005870
O15	O	0.327604	1.631673	0.327463
O16	O	-0.295839	1.118005	-0.379134
O17	O	0.037495	1.451339	-0.045801
O18	O	0.370828	1.784672	0.287533
O19	O	-0.382330	1.004848	-0.189571
O20	O	-0.048997	1.338182	0.143762
O21	O	0.284336	1.671515	0.477095
O22	O	-0.181744	0.929590	-0.291594
O23	O	0.151590	1.262924	0.041740
O24	O	0.484923	1.596257	0.375073
O25	O	-0.382312	1.114600	-0.299312
O26	O	-0.048978	1.447934	0.034021
O27	O	0.284355	1.781267	0.367354
O28	O	-0.181729	1.012748	-0.374743
O29	O	0.151604	1.346081	-0.041409
O30	O	0.484937	1.679414	0.291924
O31	O	-0.295872	0.925096	-0.186244
O32	O	0.037462	1.258429	0.147089
O33	O	0.370795	1.591763	0.480422
O34	O	-0.295835	0.815394	-0.295957
O35	O	0.037498	1.148727	0.037377
O36	O	0.370831	1.482060	0.370710
O37	O	-0.382248	0.921778	-0.492152
O38	O	-0.048915	1.255111	-0.158819
O39	O	0.284419	1.588444	0.174515
O40	O	-0.382267	0.812026	-0.382411
O41	O	-0.048933	1.145359	-0.049078
O42	O	0.284400	1.478692	0.284255
O43	O	-0.295802	1.008303	-0.488846
O44	O	0.037531	1.341636	-0.155513
O45	O	0.370864	1.674970	0.177820
O46	O	-0.496403	1.000404	-0.303675
O47	O	-0.163070	1.333737	0.029658
O48	O	0.170263	1.667070	0.362992
O49	O	-0.496376	0.917284	-0.386802
O50	O	-0.163043	1.250617	-0.053469
O51	O	0.170291	1.583950	0.279864
C52	C	-0.339050	0.789151	-0.339181
C53	C	-0.005716	1.122484	-0.005848
C54	C	0.327617	1.455817	0.327486
C55	C	-0.339061	0.713918	-0.339188
C56	C	-0.005727	1.047252	-0.005855
C57	C	0.327606	1.380585	0.327478
C58	C	-0.384133	0.676836	-0.384138
C59	C	-0.050800	1.010169	-0.050804
C60	C	0.282533	1.343502	0.282529
C61	C	-0.384135	0.606147	-0.384147
C62	C	-0.050801	0.939481	-0.050814
C63	C	0.282532	1.272814	0.282519
C64	C	-0.339066	0.572543	-0.339204
C65	C	-0.005733	0.905876	-0.005870
C66	C	0.327600	1.239209	0.327463
C67	C	-0.293989	0.609630	-0.294252
C68	C	0.039345	0.942964	0.039081
C69	C	0.372678	1.276297	0.372415
C70	C	-0.293985	0.680318	-0.294246
C71	C	0.039349	1.013651	0.039087
C72	C	0.372682	1.346984	0.372420
C73	C	-0.294004	0.324556	-0.294275
C74	C	0.039329	0.657890	0.039058
C75	C	0.372662	0.991223	0.372392
C76	C	-0.294014	0.253864	-0.294283
C77	C	0.039320	0.587197	0.039050
C78	C	0.372653	0.920531	0.372384
C79	C	-0.384154	0.250386	-0.384176
C80	C	-0.050821	0.583719	-0.050843
C81	C	0.282512	0.917053	0.282491
C82	C	-0.384150	0.321073	-0.384170
C83	C	-0.050817	0.654407	-0.050837
C84	C	0.282517	0.987740	0.282496
C85	C	-0.339070	0.358155	-0.339221
C86	C	-0.005737	0.691488	-0.005888
C87	C	0.327596	1.024822	0.327445
C88	C	-0.339069	0.434804	-0.339212
C89	C	-0.005735	0.768137	-0.005879
C90	C	0.327598	1.101470	0.327454
C91	C	-0.339071	0.495895	-0.339209
C92	C	-0.005738	0.829229	-0.005875
C93	C	0.327596	1.162562	0.327458
C94	C	-0.521927	0.957862	-0.346233
C95	C	-0.188594	1.291195	-0.012900
C96	C	0.144739	1.624528	0.320433
C97	C	-0.600157	0.954867	-0.349263
C98	C	-0.266824	1.288200	-0.015930
C99	C	0.066509	1.621534	0.317404
C100	C	-0.636901	0.996770	-0.307443
C101	C	-0.303568	1.330103	0.025891
C102	C	0.029766	1.663437	0.359224
C103	C	-0.710406	0.993957	-0.310296
C104	C	-0.377073	1.327291	0.023037
C105	C	-0.043740	1.660624	0.356370
C106	C	-0.747167	0.949238	-0.354968
C107	C	-0.413834	1.282571	-0.021634
C108	C	-0.080500	1.615905	0.311699
C109	C	-0.710418	0.907333	-0.396793
C110	C	-0.377085	1.240667	-0.063460
C111	C	-0.043752	1.574000	0.269874
C112	C	-0.636914	0.910150	-0.393942
C113	C	-0.303581	1.243483	-0.060609
C114	C	0.029753	1.576817	0.272725
C115	C	-0.967002	0.936174	-0.368135
C116	C	-0.633668	1.269507	-0.034801
C117	C	-0.300335	1.602840	0.298532
C118	C	-1.040511	0.933359	-0.370981
C119	C	-0.707178	1.266692	-0.037647
C120	C	-0.373844	1.600025	0.295686
C121	C	-1.040494	1.019984	-0.284485
C122	C	-0.707161	1.353317	0.048849
C123	C	-0.373828	1.686651	0.382182
C124	C	-0.966989	1.022794	-0.281635
C125	C	-0.633655	1.356127	0.051698
C126	C	-0.300322	1.689460	0.385032
C127	C	-0.930246	0.980892	-0.323463
C128	C	-0.596913	1.314225	0.009871
C129	C	-0.263580	1.647558	0.343204
N130	N	-0.822301	0.946361	-0.357884
N131	N	-0.488968	1.279694	-0.024551
N132	N	-0.155635	1.613027	0.308782
N133	N	-0.855113	0.983773	-0.320549
N134	N	-0.521780	1.317106	0.012784
N135	N	-0.188447	1.650440	0.346118
C136	C	-0.155485	0.972197	-0.332161
C137	C	0.177849	1.305531	0.001172
C138	C	0.511182	1.638864	0.334505
C139	C	-0.077255	0.975262	-0.329160
C140	C	0.256079	1.308595	0.004173
C141	C	0.589412	1.641928	0.337506
C142	C	-0.339019	0.965046	-0.515745
C143	C	-0.005685	1.298379	-0.182411
C144	C	0.327648	1.631713	0.150922
C145	C	-0.339000	0.965063	-0.590976
C146	C	-0.005667	1.298396	-0.257643
C147	C	0.327667	1.631730	0.075691
C148	C	-0.339077	1.141548	-0.339226
C149	C	-0.005744	1.474882	-0.005893
C150	C	0.327590	1.808215	0.327440
C151	C	-0.339083	1.216780	-0.339236
C152	C	-0.005750	1.550114	-0.005903
C153	C	0.327584	1.883447	0.327430
C154	C	-0.293985	1.010118	-0.624600
C155	C	0.039348	1.343451	-0.291267
C156	C	0.372681	1.676784	0.042067
C157	C	-0.293965	1.010125	-0.695288
C158	C	0.039368	1.343459	-0.361954
C159	C	0.372702	1.676792	-0.028621
C160	C	-0.338963	0.965081	-0.732350
C161	C	-0.005630	1.298414	-0.399017
C162	C	0.327704	1.631748	-0.065683
C163	C	-0.383980	0.920022	-0.698721
C164	C	-0.050646	1.253355	-0.365388
C165	C	0.282687	1.586688	-0.032055
C166	C	-0.383996	0.920011	-0.628035
C167	C	-0.050663	1.253344	-0.294701
C168	C	0.282671	1.586678	0.038632
C169	C	-0.383914	0.920062	-0.983792
C170	C	-0.050581	1.253396	-0.650459
C171	C	0.282753	1.586729	-0.317126
C172	C	-0.383896	0.920078	-1.054484
C173	C	-0.050562	1.253411	-0.721150
C174	C	0.282771	1.586744	-0.387817
C175	C	-0.293883	1.010177	-1.051045
C176	C	0.039450	1.343510	-0.717712
C177	C	0.372784	1.676843	-0.384378
C178	C	-0.293899	1.010166	-0.980358
C179	C	0.039434	1.343499	-0.647025
C180	C	0.372767	1.676833	-0.313692
C181	C	-0.338913	0.965104	-0.946736
C182	C	-0.005580	1.298438	-0.613402
C183	C	0.327754	1.631771	-0.280069
C184	C	-0.338934	0.965096	-0.870088
C185	C	-0.005600	1.298429	-0.536755
C186	C	0.327733	1.631762	-0.203421
C187	C	-0.338947	0.965093	-0.808997
C188	C	-0.005613	1.298426	-0.475663
C189	C	0.327720	1.631759	-0.142330
C190	C	-0.339056	0.965008	-0.163347
C191	C	-0.005723	1.298341	0.169986
C192	C	0.327610	1.631674	0.503319
C193	C	-0.338877	0.965130	-0.088109
C194	C	-0.005544	1.298463	0.245225
C195	C	0.327790	1.631796	0.578558
H196	H	-0.257309	0.226505	-0.257684
H197	H	0.076024	0.559839	0.075649
H198	H	0.409357	0.893172	0.408982
H199	H	-0.257311	1.046815	-0.722661
H200	H	0.076022	1.380148	-0.389328
H201	H	0.409355	1.713482	-0.055994
C202	C	-0.244395	1.059715	-0.939593
C203	C	0.088938	1.393049	-0.606260
C204	C	0.422271	1.726382	-0.272927
N205	N	-0.207104	1.097034	-0.908890
N206	N	0.126229	1.430368	-0.575556
N207	N	0.459562	1.763701	-0.242223
H208	H	-0.420644	0.883316	-0.600659
H209	H	-0.087311	1.216650	-0.267326
H210	H	0.246022	1.549983	0.066008
H211	H	-0.257228	1.046866	-1.078429
H212	H	0.076105	1.380199	-0.745096
H213	H	0.409438	1.713532	-0.411762
C214	C	-0.244420	0.365337	-0.244826
C215	C	0.088914	0.698670	0.088507
C216	C	0.422247	1.032004	0.421841
N217	N	-0.207071	0.396055	-0.207577
N218	N	0.126262	0.729389	0.125756
N219	N	0.459596	1.062722	0.459089
C220	C	-1.080917	1.066075	-0.238480
C221	C	-0.747583	1.399408	0.094854
C222	C	-0.414250	1.732742	0.428187
N223	N	-1.111363	1.100794	-0.203828
N224	N	-0.778030	1.434128	0.129505
N225	N	-0.444697	1.767461	0.462839
H226	H	-0.740354	0.870925	-0.433168
H227	H	-0.407021	1.204258	-0.099835
H228	H	-0.073688	1.537592	0.233498
H229	H	-0.420838	0.575957	-0.420749
H230	H	-0.087504	0.909291	-0.087416
H231	H	0.245829	1.242624	0.245918
H232	H	-0.937092	0.902054	-0.402191
H233	H	-0.603759	1.235387	-0.068858
H234	H	-0.270425	1.568721	0.264476
C235	C	-1.080946	0.884166	-0.420129
C236	C	-0.747613	1.217500	-0.086796
C237	C	-0.414280	1.550833	0.246537
N238	N	-1.111402	0.847117	-0.457147
N239	N	-0.778069	1.180450	-0.123813
N240	N	-0.444735	1.513784	0.209520
H241	H	-0.420540	0.883394	-1.084658
H242	H	-0.087207	1.216728	-0.751325
H243	H	0.246127	1.550061	-0.417992
C244	C	-0.596471	1.045963	-0.258298
C245	C	-0.263138	1.379297	0.075035
C246	C	0.070195	1.712630	0.408368
N247	N	-0.566021	1.083019	-0.221283
N248	N	-0.232688	1.416353	0.112050
N249	N	0.100645	1.749686	0.445384
C250	C	-0.433428	0.870491	-0.946816
C251	C	-0.100095	1.203824	-0.613483
C252	C	0.233239	1.537158	-0.280150
N253	N	-0.470723	0.833150	-0.918964
N254	N	-0.137390	1.166484	-0.585631
N255	N	0.195943	1.499817	-0.252297
C256	C	-0.433730	0.358034	-0.433611
C257	C	-0.100396	0.691368	-0.100277
C258	C	0.232937	1.024701	0.233056
N259	N	-0.471072	0.385872	-0.470852
N260	N	-0.137739	0.719206	-0.137519
N261	N	0.195594	1.052539	0.195814
H262	H	-0.420836	0.704191	-0.420734
H263	H	-0.087502	1.037525	-0.087401
H264	H	0.245831	1.370858	0.245933
C265	C	-0.433738	0.209590	-0.433627
C266	C	-0.100405	0.542923	-0.100293
C267	C	0.232929	0.876257	0.233040
N268	N	-0.471084	0.178864	-0.470871
N269	N	-0.137750	0.512197	-0.137538
N270	N	0.195583	0.845530	0.195796
C271	C	-0.596497	0.864054	-0.439949
C272	C	-0.263163	1.197387	-0.106615
C273	C	0.070170	1.530720	0.226718
N274	N	-0.566055	0.829334	-0.474604
N275	N	-0.232722	1.162668	-0.141271
N276	N	0.100612	1.496001	0.192063
C277	C	-0.244482	1.059670	-0.583837
C278	C	0.088851	1.393003	-0.250504
C279	C	0.422184	1.726337	0.082829
N280	N	-0.207193	1.096992	-0.553137
N281	N	0.126141	1.430326	-0.219803
N282	N	0.459474	1.763659	0.113530
H283	H	-0.257290	0.582264	-0.257661
H284	H	0.076043	0.915597	0.075672
H285	H	0.409376	1.248931	0.409006
C286	C	-0.244403	0.721108	-0.244797
C287	C	0.088931	1.054442	0.088536
C288	C	0.422264	1.387775	0.421870
N289	N	-0.207055	0.751831	-0.207551
N290	N	0.126278	1.085164	0.125782
N291	N	0.459612	1.418498	0.459115
C292	C	-0.750821	1.040050	-0.264286
C293	C	-0.417488	1.373383	0.069048
C294	C	-0.084154	1.706716	0.402381
N295	N	-0.781261	1.074768	-0.229627
N296	N	-0.447928	1.408101	0.103706
N297	N	-0.114594	1.741434	0.437039
C298	C	-0.433471	0.870466	-0.739493
C299	C	-0.100138	1.203799	-0.406159
C300	C	0.233196	1.537133	-0.072826
N301	N	-0.470749	0.833140	-0.770201
N302	N	-0.137416	1.166473	-0.436868
N303	N	0.195918	1.499806	-0.103534
H304	H	-0.937060	1.059207	-0.245260
H305	H	-0.603726	1.392541	0.088073
H306	H	-0.270393	1.725874	0.421407
