data_functionalizedCrystal
_audit_creation_method	'MofGen! by Chris Wilmer'
_symmetry_space_group_name_H-M	'P1'
_symmetry_Int_Tables_number	1
_symmetry_cell_setting	triclinic
loop_
_symmetry_equiv_pos_as_xyz
  x,y,z
_cell_length_a	11.804365
_cell_length_b	12.837943
_cell_length_c	12.837942
_cell_angle_alpha	85.171060
_cell_angle_beta	76.894514
_cell_angle_gamma	76.879533
loop_
_atom_site_label
_atom_site_type_symbol
_atom_site_fract_x
_atom_site_fract_y
_atom_site_fract_z
O1	O	0.099004	-1.421392	0.253097
O2	O	0.099011	-1.118260	0.239652
O3	O	0.099001	-1.263103	0.094809
O4	O	0.099015	-1.276549	0.397940
O5	O	-0.099053	-1.224967	0.132898
O6	O	-0.099042	-1.080124	0.277741
O7	O	-0.099049	-1.383256	0.291186
Cu8	Cu	-0.117129	-1.228208	0.287942
Cu9	Cu	0.117092	-1.273308	0.242897
O10	O	-0.099038	-1.238413	0.436029
C11	C	-0.000014	-1.060123	0.254155
C12	C	-0.000012	-0.943709	0.240610
N13	N	-0.281868	-1.196495	0.319624
C14	C	-0.000025	-1.239494	0.074784
C15	C	-0.000023	-1.225950	-0.041631
C16	C	-0.655830	-1.381182	0.135107
C17	C	-0.531170	-1.405172	0.111135
C18	C	-0.468838	-1.353004	0.163255
C19	C	-0.531179	-1.276844	0.239351
C20	C	-0.655851	-1.252858	0.263332
C21	C	-0.468859	-1.224680	0.291480
C22	C	-0.531200	-1.148520	0.367576
C23	C	-0.655859	-1.124537	0.391552
C24	C	-0.718191	-1.176705	0.339432
C25	C	-0.344187	-1.248666	0.267499
C26	C	-0.344208	-1.120341	0.395724
C27	C	-0.468868	-1.096352	0.419696
N28	N	0.281830	-1.305029	0.211207
C29	C	-0.000021	-1.441394	0.276683
C30	C	-0.000015	-1.557810	0.290226
C31	C	-0.000021	-0.718833	0.403441
C32	C	-0.000020	-0.609451	0.390720
C33	C	-0.000016	-0.615558	0.202448
C34	C	-0.000017	-0.724941	0.215170
C35	C	-0.000018	-0.776574	0.315669
C36	C	-0.000011	-0.885960	0.328388
C37	C	-0.000016	-0.892064	0.140119
C38	C	-0.000015	-0.782682	0.127397
C39	C	-0.000002	-1.388783	-0.266509
C40	C	0.000000	-1.376062	-0.375892
C41	C	-0.000008	-1.187790	-0.369783
C42	C	-0.000010	-1.200511	-0.260400
C43	C	-0.000009	-1.301010	-0.208767
C44	C	-0.000020	-1.313729	-0.099380
C45	C	-0.000019	-1.125459	-0.093275
C46	C	-0.000017	-1.112738	-0.202658
C47	C	-0.000010	-1.262023	0.456053
C48	C	-0.000004	-1.275568	0.572467
H49	H	-0.367334	-1.372540	0.143733
C50	C	-0.724437	-1.040772	0.475262
H51	H	-0.807609	-1.033966	0.482085
H52	H	-0.704023	-0.973711	0.453025
H53	H	-0.703998	-1.062976	0.542331
C54	C	-0.000031	-1.028900	-0.029761
H55	H	-0.000042	-0.967226	-0.076179
H56	H	0.069027	-1.043238	-0.000234
H57	H	-0.069112	-1.016655	0.026310
C58	C	-0.855318	-1.150322	0.365804
H59	H	-0.883506	-1.192302	0.323865
H60	H	-0.883536	-1.076572	0.350258
H61	H	-0.883512	-1.165839	0.439562
H62	H	-0.000014	-0.927998	0.410221
H63	H	0.000004	-1.105970	-0.411845
C64	C	-0.000018	-0.545934	0.487265
H65	H	-0.000026	-0.473393	0.465299
H66	H	0.069045	-0.575904	0.514751
H67	H	-0.069095	-0.549305	0.541306
H68	H	-0.000013	-1.030914	-0.244714
H69	H	-0.480417	-1.467182	0.049179
H70	H	-0.000006	-0.939091	0.068647
C71	C	-0.724395	-1.438559	0.077787
H72	H	-0.807568	-1.413361	0.102965
H73	H	-0.703951	-1.513480	0.092166
H74	H	-0.703978	-1.424217	0.002857
C75	C	-0.000012	-0.775635	0.513981
H76	H	-0.000015	-0.725579	0.564435
H77	H	0.069053	-0.831477	0.509571
H78	H	-0.069086	-0.804877	0.536142
H79	H	-0.519641	-1.034341	0.481656
C80	C	0.000001	-1.472611	-0.439404
H81	H	-0.000007	-1.534281	-0.392982
H82	H	0.069066	-1.484860	-0.495482
H83	H	-0.069074	-1.458263	-0.468917
H84	H	-0.000114	-0.573481	0.120645
C85	C	-0.000011	-1.499320	-0.209702
H86	H	-0.000022	-1.494323	-0.136286
H87	H	0.069051	-1.549218	-0.242159
H88	H	-0.069089	-1.522607	-0.215601
H89	H	-0.293458	-1.077864	0.438167
H90	H	-0.000028	-0.740624	0.045576
H91	H	-0.000023	-1.395560	-0.057341
H92	H	-0.293440	-1.310676	0.205542
