data_functionalizedCrystal
_audit_creation_method	'MofGen! by Chris Wilmer'
_symmetry_space_group_name_H-M	'P1'
_symmetry_Int_Tables_number	1
_symmetry_cell_setting	triclinic
loop_
_symmetry_equiv_pos_as_xyz
  x,y,z
_cell_length_a	14.519731
_cell_length_b	16.974959
_cell_length_c	15.455313
_cell_angle_alpha	96.307475
_cell_angle_beta	87.313475
_cell_angle_gamma	83.546093
loop_
_atom_site_label
_atom_site_type_symbol
_atom_site_fract_x
_atom_site_fract_y
_atom_site_fract_z
O1	O	1.227183	0.100611	-0.065080
O2	O	1.727183	0.600611	0.434920
O3	O	0.958623	0.112840	-0.064224
O4	O	1.458623	0.612840	0.435776
O5	O	1.100833	-0.008750	-0.072741
O6	O	1.600833	0.491250	0.427259
O7	O	1.084973	0.222202	-0.056562
O8	O	1.584973	0.722202	0.443438
O9	O	1.092701	-0.001826	0.072006
O10	O	1.592701	0.498174	0.572006
O11	O	0.950491	0.119765	0.080523
O12	O	1.450491	0.619765	0.580523
O13	O	1.219051	0.107536	0.079668
O14	O	1.719051	0.607536	0.579668
Cu15	Cu	1.084029	0.114282	0.093312
Cu16	Cu	1.584029	0.614282	0.593312
Cu17	Cu	1.093646	0.106094	-0.077868
Cu18	Cu	1.593646	0.606094	0.422132
O19	O	1.076841	0.229126	0.088185
O20	O	1.576841	0.729126	0.588185
C21	C	1.096312	-0.034846	-0.002440
C22	C	1.596312	0.465154	0.497560
C23	C	1.094943	-0.122918	-0.008615
C24	C	1.594943	0.377082	0.491385
C25	C	0.920202	0.115729	0.008110
C26	C	1.420202	0.615729	0.508110
C27	C	0.817834	0.114012	0.007989
C28	C	1.317834	0.614012	0.507989
C29	C	1.087804	-0.619089	-0.051940
C30	C	1.587804	-0.119089	0.448060
C31	C	1.089080	-0.536334	-0.046120
C32	C	1.589080	-0.036334	0.453880
C33	C	1.085278	-0.491197	0.035692
C34	C	1.585278	0.008803	0.535692
C35	C	1.080209	-0.528821	0.111689
C36	C	1.580209	-0.028821	0.611689
C37	C	1.078939	-0.611575	0.105868
C38	C	1.578939	-0.111575	0.605868
C39	C	1.088605	-0.243296	0.061561
C40	C	1.588605	0.256704	0.561561
C41	C	1.089872	-0.160536	0.067376
C42	C	1.589872	0.339464	0.567376
C43	C	1.098744	-0.168054	-0.090433
C44	C	1.598744	0.331946	0.409567
C45	C	1.097469	-0.250809	-0.096247
C46	C	1.597469	0.249191	0.403753
C47	C	1.092405	-0.288426	-0.020250
C48	C	1.592405	0.211574	0.479750
N49	N	1.086579	-0.406608	0.041643
N50	N	1.586579	0.093392	0.541643
N51	N	1.091110	-0.373015	-0.026202
N52	N	1.591110	0.126985	0.473798
C53	C	0.734700	0.112617	0.007888
C54	C	1.234700	0.612617	0.507888
C55	C	0.630403	0.110874	0.007765
C56	C	1.130403	0.610874	0.507765
C57	C	0.547274	0.109490	0.007668
C58	C	1.047274	0.609490	0.507668
C59	C	0.442971	0.107747	0.007544
C60	C	0.942971	0.607747	0.507544
C61	C	1.257473	0.104646	0.007332
C62	C	1.757473	0.604646	0.507332
C63	C	1.359841	0.106363	0.007447
C64	C	1.859841	0.606363	0.507447
C65	C	1.081363	0.255221	0.017882
C66	C	1.581363	0.755221	0.517882
C67	C	1.082732	0.343293	0.024051
C68	C	1.582732	0.843293	0.524051
N69	N	1.077271	0.120042	0.213711
N70	N	1.577271	0.620042	0.713711
N71	N	1.100411	0.100328	-0.198268
N72	N	1.600411	0.600328	0.301732
C73	C	1.137708	0.068405	0.255488
C74	C	1.637708	0.568405	0.755488
C75	C	1.132606	0.072767	0.346601
C76	C	1.632606	0.572767	0.846601
C77	C	1.067071	0.128771	0.395937
C78	C	1.567071	0.628771	0.895937
C79	C	1.006628	0.180411	0.354153
C80	C	1.506628	0.680411	0.854153
C81	C	1.011726	0.176043	0.263041
C82	C	1.511726	0.676043	0.763041
C83	C	1.045066	0.147600	0.668837
C84	C	1.545066	0.647600	1.168837
C85	C	1.039974	0.151965	0.759955
C86	C	1.539974	0.651965	1.259955
C87	C	1.165951	0.044320	0.752397
C88	C	1.665951	0.544320	1.252397
C89	C	1.171047	0.039961	0.661284
C90	C	1.671047	0.539961	1.161284
C91	C	1.110601	0.091598	0.619508
C92	C	1.610601	0.591598	1.119508
N93	N	1.061857	0.133234	0.489069
N94	N	1.561857	0.633234	0.989069
N95	N	1.115812	0.087131	0.526377
N96	N	1.615812	0.587131	1.026377
H97	H	1.090891	-0.655832	-0.118560
H98	H	1.590891	-0.155832	0.381440
H99	H	1.074809	-0.642202	0.167748
H100	H	1.574809	-0.142202	0.667748
C101	C	1.208895	0.007517	0.202079
C102	C	1.708895	0.507517	0.702079
C103	C	1.260712	-0.036784	0.258171
C104	C	1.760712	0.463216	0.758171
C105	C	1.326289	-0.092891	0.209005
C106	C	1.826289	0.407109	0.709005
H107	H	1.249214	0.034334	0.168519
H108	H	1.749214	0.534334	0.668519
H109	H	1.177903	-0.027320	0.164246
H110	H	1.677903	0.472680	0.664246
H111	H	1.291702	-0.001952	0.295989
H112	H	1.791702	0.498048	0.795989
H113	H	1.220419	-0.063618	0.291732
H114	H	1.720419	0.436382	0.791732
H115	H	1.295298	-0.127728	0.171171
H116	H	1.795298	0.372272	0.671171
H117	H	1.366601	-0.066067	0.175446
H118	H	1.866601	0.433933	0.675446
H119	H	1.361449	-0.122961	0.247055
H120	H	1.861449	0.377039	0.747055
H121	H	1.093211	-0.505709	-0.108000
H122	H	1.593211	-0.005709	0.392000
C123	C	1.104099	-0.127095	-0.172869
C124	C	1.604099	0.372905	0.327131
C125	C	1.025762	-0.070997	-0.173518
C126	C	1.525762	0.429003	0.326482
C127	C	1.030670	-0.033244	-0.249443
C128	C	1.530670	0.466756	0.250557
H129	H	1.106139	-0.165738	-0.222491
H130	H	1.606139	0.334262	0.277509
H131	H	1.158527	-0.100881	-0.174302
H132	H	1.658527	0.399119	0.325698
H133	H	0.971348	-0.097210	-0.172094
H134	H	1.471348	0.402790	0.327906
H135	H	1.023706	-0.032338	-0.123914
H136	H	1.523706	0.467662	0.376086
H137	H	1.085098	-0.007031	-0.250876
H138	H	1.585098	0.492969	0.249124
H139	H	1.032712	-0.071893	-0.299058
H140	H	1.532712	0.428107	0.200942
H141	H	0.977524	0.004827	-0.249889
H142	H	1.477524	0.504827	0.250111
H143	H	1.077119	-0.492065	0.178302
H144	H	1.577119	0.007935	0.678302
H145	H	0.995850	0.189646	0.634831
H146	H	1.495850	0.689646	1.134831
H147	H	1.215163	0.002280	0.786419
H148	H	1.715163	0.502280	1.286419
H149	H	1.224411	-0.005641	0.621117
H150	H	1.724411	0.494359	1.121117
H151	H	1.181818	0.030720	0.380616
H152	H	1.681818	0.530720	0.880616
H153	H	0.986605	0.197573	0.800121
H154	H	1.486605	0.697573	1.300121
C155	C	1.085751	-0.111668	0.156287
C156	C	1.585751	0.388332	0.656287
C157	C	1.081053	-0.162324	0.221597
C158	C	1.581053	0.337676	0.721597
C159	C	1.077249	-0.117335	0.303506
C160	C	1.577249	0.382665	0.803506
H161	H	1.032281	-0.073274	0.162353
H162	H	1.532281	0.426726	0.662353
H163	H	1.139841	-0.085192	0.161486
H164	H	1.639841	0.414808	0.661486
H165	H	1.026967	-0.188787	0.216400
H166	H	1.526967	0.311213	0.716400
H167	H	1.134516	-0.200718	0.215559
H168	H	1.634516	0.299282	0.715559
H169	H	1.131340	-0.090859	0.308705
H170	H	1.631340	0.409141	0.808705
H171	H	1.023779	-0.078943	0.309563
H172	H	1.523779	0.421057	0.809563
H173	H	1.074069	-0.151699	0.347829
H174	H	1.574069	0.348301	0.847829
C175	C	1.101715	-0.299686	-0.185154
C176	C	1.601715	0.200314	0.314846
C177	C	1.106480	-0.249034	-0.250461
C178	C	1.606480	0.250966	0.249539
C179	C	1.110428	-0.294034	-0.332374
C180	C	1.610428	0.205966	0.167626
H181	H	1.047670	-0.326195	-0.190452
H182	H	1.547670	0.173805	0.309548
H183	H	1.155220	-0.338055	-0.191127
H184	H	1.655220	0.161945	0.308873
H185	H	1.052980	-0.210678	-0.244491
H186	H	1.552980	0.289322	0.255509
H187	H	1.160523	-0.222523	-0.245193
H188	H	1.660523	0.277477	0.254807
H189	H	1.163933	-0.332404	-0.338347
H190	H	1.663933	0.167596	0.161653
H191	H	1.056382	-0.320542	-0.337662
H192	H	1.556382	0.179458	0.162338
H193	H	1.113670	-0.259675	-0.376695
H194	H	1.613670	0.240325	0.123305
C195	C	0.935570	0.241189	0.407869
C196	C	1.435570	0.741189	0.907869
C197	C	0.944057	0.233979	0.496605
C198	C	1.444057	0.733979	0.996605
C199	C	0.878622	0.289964	0.546112
C200	C	1.378622	0.789964	1.046112
H201	H	0.874856	0.231793	0.392450
H202	H	1.374856	0.731793	0.892450
H203	H	0.946152	0.293459	0.396688
H204	H	1.446152	0.793459	0.896688
H205	H	0.933467	0.181721	0.507782
H206	H	1.433467	0.681721	1.007782
H207	H	1.004756	0.243382	0.512050
H208	H	1.504756	0.743382	1.012050
H209	H	0.889205	0.342235	0.534931
H210	H	1.389205	0.842235	1.034931
H211	H	0.817913	0.280564	0.530686
H212	H	1.317913	0.780564	1.030686
H213	H	0.884377	0.285085	0.606325
H214	H	1.384377	0.785085	1.106325
H215	H	1.084482	-0.273914	0.123443
H216	H	1.584482	0.226086	0.623443
H217	H	0.962511	0.218091	0.229028
H218	H	1.462511	0.718091	0.729028
