data_functionalizedCrystal
_audit_creation_method	'MofGen! by Chris Wilmer'
_symmetry_space_group_name_H-M	'P1'
_symmetry_Int_Tables_number	1
_symmetry_cell_setting	triclinic
loop_
_symmetry_equiv_pos_as_xyz
  x,y,z
_cell_length_a	8.497365
_cell_length_b	19.077212
_cell_length_c	19.077068
_cell_angle_alpha	85.291979
_cell_angle_beta	87.757695
_cell_angle_gamma	87.662768
loop_
_atom_site_label
_atom_site_type_symbol
_atom_site_fract_x
_atom_site_fract_y
_atom_site_fract_z
Zn1	Zn	-1.009644	1.066586	0.237253
Zn2	Zn	-0.509644	1.566586	0.737253
Zn3	Zn	-0.755998	1.061725	0.355202
Zn4	Zn	-0.255998	1.561725	0.855202
Zn5	Zn	-0.735646	0.948660	0.242058
Zn6	Zn	-0.235646	1.448660	0.742058
Zn7	Zn	-1.009501	0.943922	0.359831
Zn8	Zn	-0.509501	1.443922	0.859831
O9	O	-0.877697	1.005223	0.298586
O10	O	-0.377697	1.505223	0.798586
O11	O	-0.984574	1.164595	0.248951
O12	O	-0.484574	1.664595	0.748951
O13	O	-0.532538	1.046676	0.340267
O14	O	-0.032538	1.546676	0.840267
O15	O	-0.763534	0.968321	0.142770
O16	O	-0.263534	1.468321	0.642770
O17	O	-0.798222	1.161023	0.335608
O18	O	-0.298222	1.661023	0.835608
O19	O	-0.964839	1.054960	0.139240
O20	O	-0.464839	1.554960	0.639240
O21	O	-0.517585	0.963607	0.257141
O22	O	-0.017585	1.463607	0.757141
O23	O	-0.763396	0.849378	0.261629
O24	O	-0.263396	1.349378	0.761629
O25	O	-1.230281	0.960245	0.343497
O26	O	-0.730281	1.460245	0.843497
O27	O	-0.964596	0.845897	0.348156
O28	O	-0.464596	1.345897	0.848156
O29	O	-1.230385	1.050366	0.253440
O30	O	-0.730385	1.550366	0.753440
O31	O	-0.798084	1.042081	0.454466
O32	O	-0.298084	1.542081	0.954466
O33	O	-0.984331	0.955532	0.457867
O34	O	-0.484331	1.455532	0.957867
C35	C	-0.861773	0.822058	0.305917
C36	C	-0.361773	1.322058	0.805917
C37	C	-0.854999	0.743698	0.309070
C38	C	-0.354999	1.243698	0.809070
C39	C	-0.893437	0.997784	0.481745
C40	C	-0.393437	1.497784	0.981745
C41	C	-0.900229	0.994666	0.560099
C42	C	-0.400229	1.494666	1.060099
C43	C	-0.806489	0.302417	0.331655
C44	C	-0.306489	0.802417	0.831655
C45	C	-0.812841	0.376044	0.328688
C46	C	-0.312841	0.876044	0.828688
C47	C	-0.913211	0.414716	0.282161
C48	C	-0.413211	0.914716	0.782161
C49	C	-1.007224	0.379757	0.238593
C50	C	-0.507224	0.879757	0.738593
C51	C	-1.000862	0.306132	0.241556
C52	C	-0.500862	0.806132	0.741556
C53	C	-0.942651	0.635114	0.268465
C54	C	-0.442651	1.135114	0.768465
C55	C	-0.949008	0.708745	0.265507
C56	C	-0.449008	1.208745	0.765507
C57	C	-0.754622	0.705026	0.355601
C58	C	-0.254622	1.205026	0.855601
C59	C	-0.748277	0.631399	0.358563
C60	C	-0.248277	1.131399	0.858563
C61	C	-0.842283	0.596447	0.314993
C62	C	-0.342283	1.096447	0.814993
N63	N	-0.919710	0.489975	0.279130
N64	N	-0.419710	0.989975	0.779130
N65	N	-0.835775	0.521189	0.318021
N66	N	-0.335775	1.021189	0.818021
C67	C	-0.467819	1.005169	0.298665
C68	C	0.032181	1.505169	0.798665
C69	C	-0.289172	1.005276	0.298516
C70	C	0.210828	1.505276	0.798516
C71	C	-0.893685	1.189104	0.291227
C72	C	-0.393685	1.689104	0.791227
C73	C	-0.900498	1.267463	0.288091
C74	C	-0.400498	1.767463	0.788091
C75	C	-0.861932	1.012711	0.114711
C76	C	-0.361932	1.512711	0.614711
C77	C	-0.855214	1.015902	0.036355
C78	C	-0.355214	1.515902	0.536355
C79	C	-0.806537	1.038298	0.595114
C80	C	-0.306537	1.538298	1.095114
C81	C	-0.812935	1.035369	0.668735
C82	C	-0.312935	1.535369	1.168735
C83	C	-0.913017	0.988805	0.707340
C84	C	-0.413017	1.488805	1.207340
C85	C	-1.006719	0.945171	0.672320
C86	C	-0.506719	1.445171	1.172320
C87	C	-1.000328	0.948104	0.598700
C88	C	-0.500328	1.448104	1.098700
C89	C	-0.942526	0.975201	0.927714
C90	C	-0.442526	1.475201	1.427714
C91	C	-0.948906	0.972270	1.001339
C92	C	-0.448906	1.472270	1.501339
C93	C	-0.755123	1.062470	0.997750
C94	C	-0.255123	1.562470	1.497750
C95	C	-0.748735	1.065395	0.924128
C96	C	-0.248735	1.565395	1.424128
C97	C	-0.842443	1.021764	0.889114
C98	C	-0.342443	1.521764	1.389114
N99	N	-0.919555	0.985808	0.782593
N100	N	-0.419555	1.485808	1.282593
N101	N	-0.835912	1.024764	0.813862
N102	N	-0.335912	1.524764	1.313862
H103	H	-0.736286	0.404500	0.364161
H104	H	-0.236286	0.904500	0.864161
H105	H	-0.666543	0.599917	0.396450
H106	H	-0.166543	1.099917	0.896450
N107	N	-0.654070	1.109536	1.035509
N108	N	-0.154070	1.609536	1.535509
H109	H	-0.539277	1.099111	1.023200
H110	H	-0.039277	1.599111	1.523200
H111	H	-0.673427	1.100597	1.087993
H112	H	-0.173427	1.600597	1.587993
N113	N	-0.653227	0.742724	0.402590
N114	N	-0.153227	1.242724	0.902590
H115	H	-0.672480	0.795234	0.393654
H116	H	-0.172480	1.295234	0.893654
H117	H	-0.538540	0.730262	0.392089
H118	H	-0.038540	1.230262	0.892089
H119	H	-0.724764	0.270935	0.369546
H120	H	-0.224764	0.770935	0.869546
N121	N	-1.115495	0.421470	0.188419
N122	N	-0.615495	0.921470	0.688419
H123	H	-1.085761	0.410698	0.138553
H124	H	-0.585761	0.910698	0.638553
H125	H	-1.105213	0.473399	0.193221
H126	H	-0.605213	0.973399	0.693221
N127	N	-1.101365	0.901035	0.560933
N128	N	-0.601365	1.401035	1.060933
H129	H	-1.082133	0.909959	0.508437
H130	H	-0.582133	1.409959	1.008437
H131	H	-1.216119	0.911480	0.573294
H132	H	-0.716119	1.411480	1.073294
N133	N	-1.102245	0.268428	0.194566
N134	N	-0.602245	0.768428	0.694566
H135	H	-1.166795	0.304097	0.164641
H136	H	-0.666795	0.804097	0.664641
H137	H	-1.174977	0.236737	0.224514
H138	H	-0.674977	0.736737	0.724514
N139	N	-0.698585	1.088519	0.553478
N140	N	-0.198585	1.588519	1.053478
H141	H	-0.640208	1.115716	0.586834
H142	H	-0.140208	1.615716	1.086834
H143	H	-0.763042	1.122353	0.521565
H144	H	-0.263042	1.622353	1.021565
H145	H	-1.019205	0.606665	0.232990
H146	H	-0.519205	1.106665	0.732990
N147	N	-1.057274	0.750458	0.215324
N148	N	-0.557274	1.250458	0.715324
H149	H	-1.115861	0.717145	0.188170
H150	H	-0.615861	1.217145	0.688170
H151	H	-0.993009	0.782311	0.181451
H152	H	-0.493009	1.282311	0.681451
H153	H	-0.736640	1.070898	0.697241
H154	H	-0.236640	1.570898	1.197241
N155	N	-0.640814	1.115628	0.882491
N156	N	-0.140814	1.615628	1.382491
H157	H	-0.582439	1.142830	0.915844
H158	H	-0.082439	1.642830	1.415844
H159	H	-0.705295	1.149458	0.850583
H160	H	-0.205295	1.649458	1.350583
H161	H	-1.030433	0.934360	1.032769
H162	H	-0.530433	1.434360	1.532769
H163	H	-1.018823	0.939674	0.899212
H164	H	-0.518823	1.439674	1.399212
N165	N	-1.114672	0.894949	0.713954
N166	N	-0.614672	1.394949	1.213954
H167	H	-1.104500	0.899709	0.765906
H168	H	-0.604500	1.399709	1.265906
H169	H	-1.084535	0.845115	0.703156
H170	H	-0.584535	1.345115	1.203156
