data_functionalizedCrystal
_audit_creation_method	'MofGen! by Chris Wilmer'
_symmetry_space_group_name_H-M	'P1'
_symmetry_Int_Tables_number	1
_symmetry_cell_setting	triclinic
loop_
_symmetry_equiv_pos_as_xyz
  x,y,z
_cell_length_a	15.995350
_cell_length_b	14.472310
_cell_length_c	15.995350
_cell_angle_alpha	90.001162
_cell_angle_beta	96.507625
_cell_angle_gamma	90.009379
loop_
_atom_site_label
_atom_site_type_symbol
_atom_site_fract_x
_atom_site_fract_y
_atom_site_fract_z
O1	O	1.110997	0.076758	-0.107921
O2	O	0.867221	0.076776	-0.121248
O3	O	0.995773	0.076766	0.007303
O4	O	0.982445	0.076769	-0.236472
O5	O	0.995740	-0.076916	0.007296
O6	O	0.867188	-0.076906	-0.121256
O7	O	1.110963	-0.076924	-0.107928
Cu8	Cu	0.989073	-0.090947	-0.114593
Cu9	Cu	0.989112	0.090800	-0.114584
O10	O	0.982412	-0.076913	-0.236480
C11	C	0.836010	-0.000062	-0.120701
C12	C	0.743060	-0.000055	-0.119049
N13	N	0.989051	-0.218778	-0.114598
C14	C	0.405312	-0.000074	-0.113117
C15	C	0.452746	-0.000418	-0.021565
C16	C	0.549436	-0.000065	-0.023217
C17	C	0.572873	-0.000065	-0.116060
C18	C	0.531804	0.087692	-0.161212
C19	C	0.435169	0.087759	-0.158912
C20	C	0.434792	-0.087007	-0.160812
C21	C	0.531737	-0.088160	-0.160790
C22	C	0.667570	-0.000057	-0.117727
C23	C	0.310614	-0.000076	-0.111452
C24	C	0.989111	-0.592869	-0.114581
C25	C	0.920095	-0.553698	-0.183135
C26	C	0.920254	-0.446610	-0.183385
C27	C	0.989081	-0.407278	-0.114590
C28	C	1.076445	-0.446122	-0.133671
C29	C	1.076057	-0.553243	-0.134159
C30	C	0.971542	-0.553398	-0.026741
C31	C	0.969538	-0.446270	-0.027327
C32	C	0.989069	-0.302390	-0.114593
C33	C	0.989128	-0.697757	-0.114579
C34	C	1.142175	-0.000083	-0.108476
C35	C	1.235125	-0.000084	-0.110127
C36	C	0.995205	-0.000073	0.038494
C37	C	0.993553	-0.000068	0.131444
N38	N	0.989140	0.218631	-0.114572
C39	C	0.982980	-0.000072	-0.267671
C40	C	0.984631	-0.000071	-0.360621
C41	C	0.987621	-0.000071	0.469192
C42	C	0.896069	0.000281	0.421758
C43	C	0.897721	-0.000066	0.325068
C44	C	0.990564	-0.000069	0.301631
C45	C	1.035701	-0.087831	0.342705
C46	C	1.033401	-0.087904	0.439340
C47	C	1.035330	0.086861	0.439707
C48	C	1.035309	0.088021	0.342762
C49	C	0.992231	-0.000071	0.206934
C50	C	0.985956	-0.000075	0.563890
H51	H	0.577852	-0.062973	0.012275
Cl52	Cl	1.137173	-0.094069	0.489132
Cl53	Cl	0.424123	-0.097584	0.034933
H54	H	0.433166	0.062168	0.014865
Cl55	Cl	1.042115	-0.404954	0.055129
Cl56	Cl	0.875302	-0.595148	0.001572
Cl57	Cl	0.989130	0.189561	0.471410
Cl58	Cl	0.842526	-0.097352	0.282035
Cl59	Cl	0.870315	-0.407076	-0.004965
H60	H	1.000459	-0.153505	0.457639
Cl61	Cl	0.575629	0.188529	-0.112785
Cl62	Cl	0.819977	-0.406061	-0.165888
Cl63	Cl	0.555450	-0.096343	-0.265325
H64	H	0.577308	0.062951	0.012521
Cl65	Cl	0.984776	0.188275	0.300207
H66	H	0.416874	0.153359	-0.125979
Cl67	Cl	1.049245	-0.592506	0.052025
Cl68	Cl	0.842938	0.097064	0.281187
H69	H	1.103014	0.093317	0.327400
H70	H	0.402921	0.091741	-0.226128
H71	H	0.545930	0.090955	-0.229421
Cl72	Cl	0.839589	0.097450	0.450372
H73	H	0.854945	-0.579481	-0.171953
H74	H	1.129029	-0.420643	-0.085068
Cl75	Cl	0.403071	-0.189706	-0.114603
Cl76	Cl	0.937186	-0.595223	-0.283213
Cl77	Cl	0.839646	-0.096052	0.452362
H78	H	1.102831	0.087449	0.471468
H79	H	1.092297	-0.419285	-0.197002
H80	H	1.004324	-0.153137	0.314320
Cl81	Cl	0.573786	-0.188395	-0.109818
Cl82	Cl	0.385756	-0.087924	-0.265027
H83	H	0.931473	-0.420976	-0.248569
H84	H	1.091540	-0.578220	-0.198219
H85	H	1.129018	-0.579154	-0.086196
Cl86	Cl	1.141010	-0.092879	0.320898
