data_functionalizedCrystal
_audit_creation_method	'MofGen! by Chris Wilmer'
_symmetry_space_group_name_H-M	'P1'
_symmetry_Int_Tables_number	1
_symmetry_cell_setting	triclinic
loop_
_symmetry_equiv_pos_as_xyz
  x,y,z
_cell_length_a	11.169417
_cell_length_b	18.215405
_cell_length_c	11.169409
_cell_angle_alpha	90.038667
_cell_angle_beta	90.019824
_cell_angle_gamma	90.024699
loop_
_atom_site_label
_atom_site_type_symbol
_atom_site_fract_x
_atom_site_fract_y
_atom_site_fract_z
Zn1	Zn	1.834850	-0.292907	0.678490
Zn2	Zn	2.334850	0.207093	1.178490
Zn3	Zn	1.834692	-0.415999	0.477785
Zn4	Zn	2.334692	0.084001	0.977785
Zn5	Zn	1.634136	-0.292952	0.477824
Zn6	Zn	2.134136	0.207048	0.977824
Zn7	Zn	1.634096	-0.415939	0.678430
Zn8	Zn	2.134096	0.084061	1.178430
O9	O	1.734443	-0.354449	0.578132
O10	O	2.234443	0.145551	1.078132
O11	O	2.002779	-0.309242	0.651875
O12	O	2.502779	0.190758	1.151875
O13	O	1.808038	-0.399720	0.309840
O14	O	2.308038	0.100280	0.809840
O15	O	1.660844	-0.189962	0.504485
O16	O	2.160844	0.310038	1.004485
O17	O	2.002663	-0.399677	0.504417
O18	O	2.502663	0.100323	1.004417
O19	O	1.808307	-0.189929	0.651913
O20	O	2.308307	0.310071	1.151913
O21	O	1.660691	-0.309318	0.309869
O22	O	2.160691	0.190682	0.809869
O23	O	1.466181	-0.309260	0.504426
O24	O	1.966181	0.190740	1.004426
O25	O	1.660776	-0.399574	0.846387
O26	O	2.160776	0.100426	1.346387
O27	O	1.466152	-0.399618	0.651810
O28	O	1.966152	0.100382	1.151810
O29	O	1.808269	-0.309184	0.846432
O30	O	2.308269	0.190816	1.346432
O31	O	1.808000	-0.518975	0.504359
O32	O	2.308000	-0.018975	1.004359
O33	O	1.660623	-0.518931	0.651772
O34	O	2.160623	-0.018931	1.151772
C35	C	1.422619	-0.354438	0.578117
C36	C	1.922619	0.145562	1.078117
C37	C	1.289219	-0.354451	0.578139
C38	C	1.789219	0.145549	1.078139
C39	C	1.734323	-0.545656	0.578081
C40	C	2.234323	-0.045656	1.078081
C41	C	1.734381	-0.627454	0.578099
C42	C	2.234381	-0.127454	1.078099
C43	C	1.811345	-0.892510	0.501503
C44	C	2.311345	-0.392510	1.001503
C45	C	1.811295	-0.815652	0.501475
C46	C	2.311295	-0.315652	1.001475
C47	C	1.657691	-0.815647	0.654843
C48	C	2.157691	-0.315647	1.154843
C49	C	1.657735	-0.892504	0.654863
C50	C	2.157735	-0.392504	1.154863
C51	C	1.734569	-0.930934	0.578195
C52	C	2.234569	-0.430934	1.078195
C53	C	1.734475	-0.777218	0.578147
C54	C	2.234475	-0.277218	1.078147
C55	C	1.734421	-0.693884	0.578118
C56	C	2.234421	-0.193884	1.078118
C57	C	1.734622	-1.014273	0.578222
C58	C	2.234622	-0.514273	1.078222
C59	C	2.047486	-0.354461	0.578148
C60	C	2.547486	0.145539	1.078148
C61	C	2.180886	-0.354466	0.578155
C62	C	2.680886	0.145534	1.078155
C63	C	1.734536	-0.354368	0.891175
C64	C	2.234536	0.145632	1.391175
C65	C	1.734575	-0.354333	1.024575
C66	C	2.234575	0.145667	1.524575
C67	C	1.734598	-0.162496	0.578210
C68	C	2.234598	0.337504	1.078210
C69	C	1.734663	-0.080697	0.578243
C70	C	2.234663	0.419303	1.078243
C71	C	1.734421	-0.354478	0.266307
C72	C	2.234421	0.145522	0.766307
C73	C	1.734614	-0.354305	0.132908
C74	C	2.234614	0.145695	0.632908
H75	H	1.873907	-0.923798	0.439074
H76	H	2.373907	-0.423798	0.939074
H77	H	1.595136	-0.784350	0.717266
H78	H	2.095136	-0.284350	1.217266
H79	H	1.873811	-0.784369	0.439024
H80	H	2.373811	-0.284369	0.939024
C81	C	1.573270	-0.934772	0.739234
C82	C	2.073270	-0.434772	1.239234
N83	N	1.509652	-0.966609	0.802777
N84	N	2.009652	-0.466609	1.302777
