data_functionalizedCrystal
_audit_creation_method	'MofGen! by Chris Wilmer'
_symmetry_space_group_name_H-M	'P1'
_symmetry_Int_Tables_number	1
_symmetry_cell_setting	triclinic
loop_
_symmetry_equiv_pos_as_xyz
  x,y,z
_cell_length_a	10.685661
_cell_length_b	10.686285
_cell_length_c	19.805399
_cell_angle_alpha	85.609337
_cell_angle_beta	85.620812
_cell_angle_gamma	80.943086
loop_
_atom_site_label
_atom_site_type_symbol
_atom_site_fract_x
_atom_site_fract_y
_atom_site_fract_z
Zn1	Zn	1.979429	-0.654293	-0.437071
Zn2	Zn	1.995636	-0.866554	-0.315839
Zn3	Zn	1.767176	-0.638041	-0.315856
Zn4	Zn	1.783447	-0.850194	-0.420954
O5	O	1.881422	-0.752271	-0.372430
O6	O	2.159209	-0.696098	-0.427727
O7	O	1.965304	-0.836286	-0.221122
O8	O	1.781740	-0.462579	-0.338687
O9	O	2.171117	-0.852045	-0.338659
O10	O	1.937681	-0.474519	-0.427743
O11	O	1.797456	-0.668399	-0.221134
O12	O	1.591704	-0.652536	-0.323059
O13	O	1.809470	-0.824163	-0.517811
O14	O	1.603658	-0.808404	-0.400274
O15	O	1.953457	-0.680235	-0.529652
O16	O	1.981081	-1.042002	-0.323031
O17	O	1.825186	-1.029983	-0.400258
C18	C	1.551623	-0.726932	-0.359920
C19	C	1.410537	-0.716123	-0.354583
C20	C	1.906692	-1.082049	-0.359910
C21	C	1.917619	-1.223139	-0.354581
C22	C	2.212508	-0.777709	-0.384989
C23	C	2.353597	-0.788549	-0.390341
C24	C	1.881471	-0.752187	-0.548978
C25	C	1.881492	-0.752151	-0.624212
C26	C	1.856087	-0.421207	-0.385015
C27	C	1.845291	-0.280127	-0.390377
C28	C	1.794115	-0.664726	-0.659563
C29	C	1.794131	-0.664703	-0.730254
C30	C	1.881530	-0.752099	-0.765592
C31	C	1.968910	-0.839533	-0.730236
C32	C	1.968888	-0.839562	-0.659546
C33	C	1.969002	-0.839422	-1.015317
C34	C	1.969020	-0.839385	-1.086012
C35	C	1.794245	-0.664564	-1.086025
C36	C	1.794222	-0.664592	-1.015335
C37	C	1.881598	-0.752030	-0.979985
C38	C	1.881578	-0.752056	-0.903335
C39	C	1.881556	-0.752069	-0.842241
C40	C	1.881439	-0.752268	-0.196575
C41	C	1.881637	-0.751965	-0.121364
H42	H	1.412784	-0.858819	-0.425043
H43	H	1.775010	-1.220980	-0.425102
O44	O	2.010741	-1.301480	-0.308589
H45	H	2.005014	-1.403723	-0.311484
O46	O	2.063139	-0.933843	-0.621413
H47	H	2.123929	-0.994601	-0.657861
H48	H	1.722952	-0.593551	-0.630797
H49	H	1.722976	-0.593518	-0.759033
H50	H	1.351342	-0.645838	-0.319885
O51	O	2.063178	-0.933806	-0.768343
H52	H	2.123435	-0.881950	-0.805154
O53	O	2.063271	-0.933706	-0.977204
H54	H	2.049152	-1.031649	-0.986165
O55	O	1.699967	-0.570316	-0.977223
H56	H	1.602009	-0.584423	-0.986177
O57	O	1.700007	-0.570241	-1.124152
H58	H	1.714697	-0.584901	-1.179243
H59	H	2.040194	-0.910559	-1.114782
