data_functionalizedCrystal
_audit_creation_method	'MofGen! by Chris Wilmer'
_symmetry_space_group_name_H-M	'P1'
_symmetry_Int_Tables_number	1
_symmetry_cell_setting	triclinic
loop_
_symmetry_equiv_pos_as_xyz
  x,y,z
_cell_length_a	18.050590
_cell_length_b	17.638032
_cell_length_c	17.640968
_cell_angle_alpha	109.664724
_cell_angle_beta	78.788466
_cell_angle_gamma	78.783591
loop_
_atom_site_label
_atom_site_type_symbol
_atom_site_fract_x
_atom_site_fract_y
_atom_site_fract_z
Zn1	Zn	1.166717	0.234264	-0.399198
Zn2	Zn	1.666717	0.734264	0.100802
Zn3	Zn	1.103677	0.399986	-0.233489
Zn4	Zn	1.603677	0.899986	0.266511
Zn5	Zn	1.011062	0.262121	-0.261434
Zn6	Zn	1.511062	0.762121	0.238566
Zn7	Zn	1.011035	0.372047	-0.371313
Zn8	Zn	1.511035	0.872047	0.128687
O9	O	1.073123	0.317105	-0.316358
O10	O	1.573123	0.817105	0.183642
O11	O	1.262268	0.256282	-0.377191
O12	O	1.762268	0.756282	0.122809
O13	O	1.065020	0.405049	-0.121861
O14	O	1.565020	0.905049	0.378139
O15	O	1.058103	0.143067	-0.303073
O16	O	1.558103	0.643067	0.196927
O17	O	1.215953	0.378037	-0.255446
O18	O	1.715953	0.878037	0.244554
O19	O	1.172462	0.122600	-0.404288
O20	O	1.672462	0.622600	0.095712
O21	O	0.996976	0.303761	-0.142392
O22	O	1.496976	0.803761	0.357608
O23	O	0.907145	0.276669	-0.276034
O24	O	1.407145	0.776669	0.223966
O25	O	1.058058	0.330418	-0.490347
O26	O	1.558058	0.830418	0.009653
O27	O	0.907125	0.357430	-0.356763
O28	O	1.407125	0.857430	0.143237
O29	O	1.172436	0.229190	-0.510834
O30	O	1.672436	0.729190	-0.010834
O31	O	1.064994	0.511639	-0.228407
O32	O	1.564994	1.011639	0.271593
O33	O	0.996930	0.491112	-0.329666
O34	O	1.496930	0.991112	0.170334
C35	C	0.880191	0.317041	-0.316405
C36	C	1.380191	0.817041	0.183595
C37	C	0.797654	0.317030	-0.316441
C38	C	1.297654	0.817030	0.183559
C39	C	0.598149	0.361132	-0.360178
C40	C	1.098149	0.861132	0.139822
C41	C	0.570545	0.281867	-0.395666
C42	C	1.070545	0.781867	0.104334
C43	C	0.646504	0.317084	-0.316391
C44	C	1.146504	0.817084	0.183609
C45	C	0.527017	0.396392	-0.280894
C46	C	1.027017	0.896392	0.219106
C47	C	0.500499	0.317143	-0.316344
C48	C	1.000499	0.817143	0.183656
C49	C	0.620006	0.237771	-0.351927
C50	C	1.120006	0.737771	0.148073
C51	C	0.576463	0.352354	-0.237109
C52	C	1.076463	0.852354	0.262891
C53	C	0.548886	0.273043	-0.272579
C54	C	1.048886	0.773043	0.227421
C55	C	0.730615	0.317051	-0.316421
C56	C	1.230615	0.817051	0.183579
C57	C	0.416393	0.317167	-0.316316
C58	C	0.916393	0.817167	0.183684
C59	C	1.024143	0.531284	-0.272996
C60	C	1.524143	1.031284	0.227004
C61	C	1.003263	0.622905	-0.254473
C62	C	1.503263	1.122905	0.245527
C63	C	1.232165	0.870606	-0.457310
C64	C	1.732165	1.370606	0.042690
C65	C	1.212518	0.956701	-0.439891
C66	C	1.712518	1.456701	0.060109
C67	C	1.093476	0.978141	-0.334394
C68	C	1.593476	1.478141	0.165606
C69	C	1.113114	0.892047	-0.351802
C70	C	1.613114	1.392047	0.148198
C71	C	1.182459	0.838286	-0.413261
C72	C	1.682459	1.338286	0.086739
C73	C	1.063409	0.859726	-0.307753
C74	C	1.563409	1.359726	0.192247
C75	C	1.083044	0.773639	-0.325162
C76	C	1.583044	1.273639	0.174838
C77	C	1.152384	0.719872	-0.386621
C78	C	1.652384	1.219872	0.113379
C79	C	1.202094	0.752198	-0.430671
C80	C	1.702094	1.252198	0.069329
C81	C	0.994062	0.913488	-0.246298
C82	C	1.494062	1.413488	0.253702
C83	C	0.944356	0.881168	-0.202249
C84	C	1.444356	1.381168	0.297751
C85	C	0.963993	0.795080	-0.219654
C86	C	1.463993	1.295080	0.280346
C87	C	1.033334	0.741313	-0.281112
C88	C	1.533334	1.241313	0.218888
C89	C	0.914284	0.762753	-0.175604
C90	C	1.414284	1.262753	0.324396
C91	C	0.933919	0.676666	-0.193014
C92	C	1.433919	1.176666	0.306986
C93	C	1.052969	0.655225	-0.298522
C94	C	1.552969	1.155225	0.201478
C95	C	1.266807	0.317169	-0.316312
C96	C	1.766807	0.817169	0.183688
C97	C	1.349344	0.317196	-0.316292
C98	C	1.849344	0.817196	0.183708
C99	C	1.122276	0.273580	-0.531331
C100	C	1.622276	0.773580	-0.031331
C101	C	1.143222	0.255033	-0.622940
C102	C	1.643222	0.755033	-0.122940
C103	C	1.122294	1.102087	-0.359903
C104	C	1.622294	1.602087	0.140097
C105	C	1.143187	1.010461	-0.378446
C106	C	1.643187	1.510461	0.121554
C107	C	0.914384	0.457560	-0.870896
C108	C	1.414384	0.957560	-0.370896
C109	C	0.934084	0.440121	-0.956979
C110	C	1.434084	0.940121	-0.456979
C111	C	1.053176	0.334721	-0.978299
C112	C	1.553176	0.834721	-0.478299
C113	C	1.033484	0.352148	-0.892218
C114	C	1.533484	0.852148	-0.392218
C115	C	0.964087	0.413569	-0.838522
C116	C	1.464087	0.913569	-0.338522
C117	C	1.083188	0.308157	-0.859844
C118	C	1.583188	0.808157	-0.359844
C119	C	1.063499	0.325586	-0.773769
C120	C	1.563499	0.825586	-0.273769
C121	C	0.994107	0.387006	-0.720068
C122	C	1.494107	0.887006	-0.220068
C123	C	0.944398	0.430998	-0.752447
C124	C	1.444398	0.930998	-0.252447
C125	C	1.152587	0.246741	-0.913539
C126	C	1.652587	0.746741	-0.413539
C127	C	1.202291	0.202750	-0.881165
C128	C	1.702291	0.702750	-0.381165
C129	C	1.182600	0.220175	-0.795090
C130	C	1.682600	0.720175	-0.295090
C131	C	1.113207	0.281594	-0.741389
C132	C	1.613207	0.781594	-0.241389
C133	C	1.232308	0.176183	-0.762710
C134	C	1.732308	0.676183	-0.262710
C135	C	1.212619	0.193612	-0.676635
C136	C	1.712619	0.693612	-0.176635
C137	C	1.093518	0.299023	-0.655314
C138	C	1.593518	0.799023	-0.155314
C139	C	1.024217	0.360400	-0.102234
C140	C	1.524217	0.860400	0.397766
C141	C	1.003467	0.378716	-0.010673
C142	C	1.503467	0.878716	0.489327
H143	H	0.567229	0.252057	-0.462695
H144	H	1.067229	0.752057	0.037305
H145	H	1.288636	0.826832	-0.507351
H146	H	1.788636	1.326832	-0.007351
C147	C	0.519849	0.222681	-0.222545
C148	C	1.019849	0.722681	0.277455
N149	N	0.497976	0.184746	-0.184864
N150	N	0.997976	0.684746	0.315136
H151	H	1.252992	0.983009	-0.475777
H152	H	1.752992	1.483009	0.024223
C153	C	1.017234	1.037298	-0.266738
C154	C	1.517234	1.537298	0.233262
N155	N	0.959821	1.081859	-0.215758
N156	N	1.459821	1.581859	0.284242
H157	H	0.978072	0.983584	-0.232132
H158	H	1.478072	1.483584	0.267868
H159	H	1.253092	0.157789	-0.650277
H160	H	1.753092	0.657789	-0.150277
C161	C	0.868114	0.940324	-0.134593
C162	C	1.368114	1.440324	0.365407
N163	N	0.810701	0.984885	-0.083613
N164	N	1.310701	1.484885	0.416387
C165	C	0.838035	0.821910	-0.107958
C166	C	1.338035	1.321910	0.392042
N167	N	0.780615	0.866470	-0.056990
N168	N	1.280615	1.366470	0.443010
H169	H	0.893442	0.650351	-0.157145
H170	H	1.393442	1.150351	0.342855
H171	H	0.619811	0.398290	-0.397276
H172	H	1.119811	0.898290	0.102724
H173	H	1.168370	0.649775	-0.400794
H174	H	1.668370	1.149775	0.099206
C175	C	1.017177	0.366589	-0.596244
C176	C	1.517177	0.866589	-0.096244
N177	N	0.959681	0.417479	-0.551753
N178	N	1.459681	0.917479	-0.051753
H179	H	1.168617	0.232554	-0.983626
H180	H	1.668617	0.732554	-0.483626
H181	H	0.486895	0.463437	-0.250894
H182	H	0.986895	0.963437	0.249106
C183	C	0.868057	0.498564	-0.693377
C184	C	1.368057	0.998564	-0.193377
N185	N	0.810561	0.549454	-0.648886
N186	N	1.310561	1.049454	-0.148886
C187	C	0.838042	0.525125	-0.811826
C188	C	1.338042	1.025125	-0.311826
N189	N	0.780546	0.576016	-0.767335
N190	N	1.280546	1.076016	-0.267335
H191	H	0.579793	0.382183	-0.170094
H192	H	1.079793	0.882183	0.329906
H193	H	0.660054	0.170692	-0.382004
H194	H	1.160054	0.670692	0.117996
H195	H	0.978079	0.401199	-0.649980
H196	H	1.478079	0.901199	-0.149980
C197	C	1.129251	0.596082	-0.366132
C198	C	1.629251	1.096082	0.133868
N199	N	1.186703	0.551536	-0.417057
N200	N	1.686703	1.051536	0.082943
H201	H	1.258566	0.708424	-0.480712
H202	H	1.758566	1.208424	0.019288
H203	H	0.893604	0.475949	-0.983333
H204	H	1.393604	0.975949	-0.483333
H205	H	1.109681	0.284715	-1.022029
H206	H	1.609681	0.784715	-0.522029
H207	H	1.258796	0.152744	-0.924895
H208	H	1.758796	0.652744	-0.424895
H209	H	1.288815	0.126180	-0.806440
H210	H	1.788815	0.626180	-0.306440
