data_functionalizedCrystal
_audit_creation_method	'MofGen! by Chris Wilmer'
_symmetry_space_group_name_H-M	'P1'
_symmetry_Int_Tables_number	1
_symmetry_cell_setting	triclinic
loop_
_symmetry_equiv_pos_as_xyz
  x,y,z
_cell_length_a	14.560438
_cell_length_b	14.560438
_cell_length_c	14.560438
_cell_angle_alpha	60.006739
_cell_angle_beta	90.000890
_cell_angle_gamma	60.000939
loop_
_atom_site_label
_atom_site_type_symbol
_atom_site_fract_x
_atom_site_fract_y
_atom_site_fract_z
Zr1	Zr	0.884795	1.005205	-0.120363
O2	O	0.738158	1.196785	-0.266983
O3	O	0.929741	0.813622	-0.075435
O4	O	0.929752	1.005204	-0.267008
O5	O	0.738145	1.005205	0.075729
O6	O	1.080890	1.005206	-0.267006
O7	O	0.738148	1.005203	-0.075410
O8	O	1.080871	0.662501	0.075684
O9	O	0.738164	1.347911	-0.266961
O10	O	1.061710	0.892426	-0.056249
O11	O	0.948915	0.892425	0.056543
O12	O	0.948928	1.117989	-0.169010
O13	O	0.836133	1.117988	-0.056219
Zr14	Zr	1.125839	1.005212	0.120690
Zr15	Zr	1.125843	1.005209	-0.120359
Zr16	Zr	0.884791	1.005208	0.120686
Zr17	Zr	0.884804	1.246233	-0.120327
Zr18	Zr	1.125829	0.764185	0.120654
O19	O	1.080892	1.196796	0.075762
O20	O	1.080898	1.196791	-0.266978
O21	O	0.738153	1.196790	0.075757
O22	O	1.272475	0.813632	0.267310
O23	O	1.272480	0.813627	-0.075430
O24	O	0.929736	0.813626	0.267305
O25	O	1.272488	1.005212	-0.075401
O26	O	1.080882	1.005213	0.267336
O27	O	0.929744	1.005211	0.267333
O28	O	1.272486	1.005214	0.075737
O29	O	0.929766	1.347914	-0.266958
O30	O	1.080868	0.662503	0.267285
O31	O	1.272469	0.662506	0.267288
O32	O	1.272472	0.662504	0.075687
O33	O	0.738162	1.347913	-0.075360
O34	O	0.929763	1.347917	-0.075357
O35	O	1.061706	0.892429	0.169337
O36	O	1.174501	0.892429	0.056546
O37	O	1.061719	1.117992	-0.056215
O38	O	0.948924	1.117992	0.056576
C39	C	1.005305	0.703720	0.000119
C40	C	1.005301	0.601397	0.000104
C41	C	0.922045	0.636521	-0.083117
C42	C	0.922063	0.540332	-0.083061
C43	C	1.088597	0.373896	0.083449
C44	C	1.088582	0.470084	0.083387
C45	C	0.825896	0.732611	-0.179248
C46	C	0.825914	0.636422	-0.179192
C47	C	0.703802	1.005203	0.000159
C48	C	0.601471	1.005202	0.000157
C49	C	0.612264	0.887462	0.059017
C50	C	0.516109	0.887469	0.059027
C51	C	0.398372	1.122964	-0.058692
C52	C	0.494526	1.122956	-0.058695
C53	C	0.719209	0.769708	0.117869
C54	C	0.730006	0.651959	0.176733
C55	C	0.633851	0.651965	0.176743
C56	C	0.526899	0.769720	0.117889
C57	C	1.306831	1.005214	0.000168
C58	C	1.409162	1.005216	0.000170
C59	C	1.005321	1.005205	-0.301351
C60	C	1.005323	1.005203	-0.403683
C61	C	1.005329	1.306697	0.000208
C62	C	1.005333	1.409020	0.000223
C63	C	0.922047	1.005214	-0.547916
C64	C	0.922055	1.005204	-0.451759
C65	C	1.088595	1.005200	-0.451762
C66	C	1.088591	1.005200	-0.547912
C67	C	0.825893	1.005222	-0.547916
C68	C	0.825901	1.005212	-0.451760
C69	C	1.005312	1.005212	0.301679
C70	C	1.005311	1.005214	0.404010
C71	C	1.306819	0.703725	0.000124
C72	C	1.409146	0.601404	0.000111
C73	C	1.005300	0.703724	0.301634
C74	C	1.005294	0.601402	0.403951
C75	C	1.306814	0.703729	0.301639
C76	C	1.409140	0.601409	0.403957
C77	C	0.703819	1.306688	-0.301312
C78	C	0.601494	1.409008	-0.403630
C79	C	0.703815	1.306692	0.000203
C80	C	0.601487	1.409013	0.000216
C81	C	1.005334	1.306694	-0.301307
C82	C	1.005339	1.409015	-0.403624
C83	C	1.398347	0.553328	-0.058770
C84	C	1.494498	0.457195	-0.058786
C85	C	1.612244	0.457217	0.058968
C86	C	1.516094	0.553356	0.058977
C87	C	1.330368	0.553310	-0.126750
C88	C	1.426519	0.457177	-0.126766
C89	C	1.064169	0.553329	0.510897
C90	C	1.064155	0.457192	0.607030
C91	C	0.946389	0.457208	0.489257
C92	C	0.946398	0.553349	0.393126
C93	C	1.132164	0.553315	0.578893
C94	C	1.132150	0.457178	0.675026
C95	C	1.516090	0.553335	0.393154
C96	C	1.612232	0.457202	0.489296
C97	C	1.494459	0.457220	0.607043
C98	C	1.398320	0.553359	0.510901
C99	C	1.584086	0.553320	0.325174
C100	C	1.680228	0.457186	0.421317
H101	H	0.834173	0.795585	-0.261379
Cl102	Cl	0.406020	0.769723	0.117913
Cl103	Cl	1.073788	0.692276	0.578932
H104	H	1.575359	0.517188	0.274254
Cl105	Cl	1.439998	0.512946	-0.261158
H106	H	1.426511	0.367162	-0.088959
Cl107	Cl	0.647426	0.503941	0.250755
Cl108	Cl	0.872361	0.613802	0.258679
H109	H	0.749426	0.792284	-0.162454
Cl110	Cl	1.758854	0.512958	0.434805
H111	H	1.156401	0.266973	0.151255
Cl112	Cl	0.263923	1.270988	-0.132678
Cl113	Cl	1.266556	0.497544	0.565402
Cl114	Cl	0.872352	0.396792	0.475660
H115	H	1.524896	0.592508	0.106911
Cl116	Cl	1.193260	0.425921	0.188003
Cl117	Cl	1.760820	0.318207	0.421302
Cl118	Cl	1.062905	0.512944	0.753663
H119	H	0.485734	1.218830	-0.106602
H120	H	0.743787	1.095601	-0.470849
H121	H	1.222172	0.367165	0.727212
H122	H	0.743803	0.647235	-0.170884
Cl123	Cl	1.263868	0.613811	0.524489
H124	H	1.584108	0.643323	0.272990
Cl125	Cl	0.851844	0.636364	-0.297232
Cl126	Cl	1.249779	0.692270	-0.265724
Cl127	Cl	1.193285	1.005182	-0.391315
Cl128	Cl	0.840093	0.769692	0.117854
H129	H	0.834168	0.914831	-0.528822
Cl130	Cl	1.480868	0.396809	0.741489
H131	H	1.156399	1.005184	-0.587045
H132	H	0.749428	1.098486	-0.624362
Cl133	Cl	0.864454	0.503933	0.250734
Cl134	Cl	0.851789	0.861241	-0.333739
Cl135	Cl	1.746696	0.396807	0.132967
Cl136	Cl	1.251754	0.497531	-0.057492
