data_functionalizedCrystal
_audit_creation_method	'MofGen! by Chris Wilmer'
_symmetry_space_group_name_H-M	'P1'
_symmetry_Int_Tables_number	1
_symmetry_cell_setting	triclinic
loop_
_symmetry_equiv_pos_as_xyz
  x,y,z
_cell_length_a	12.837943
_cell_length_b	12.837942
_cell_length_c	9.730223
_cell_angle_alpha	89.998888
_cell_angle_beta	90.000678
_cell_angle_gamma	94.828940
loop_
_atom_site_label
_atom_site_type_symbol
_atom_site_fract_x
_atom_site_fract_y
_atom_site_fract_z
O1	O	1.402329	0.272135	-0.114264
O2	O	1.099196	0.258692	-0.114272
O3	O	1.244041	0.113847	-0.114260
O4	O	1.257484	0.416980	-0.114276
O5	O	1.244039	0.113851	0.114320
O6	O	1.099194	0.258696	0.114308
O7	O	1.402328	0.272139	0.114316
Zn8	Zn	1.250761	0.265418	0.150604
Zn9	Zn	1.250763	0.265413	-0.150560
O10	O	1.257483	0.416984	0.114303
C11	C	1.060126	0.254153	0.000017
C12	C	0.943711	0.240608	0.000014
C13	C	1.239499	0.074780	0.000029
C14	C	1.225954	-0.041635	0.000027
C15	C	0.718837	0.403437	0.000025
C16	C	0.609454	0.390716	0.000023
C17	C	0.615562	0.202445	0.000018
C18	C	0.724944	0.215166	0.000020
C19	C	0.776578	0.315666	0.000021
C20	C	0.885962	0.328386	0.000013
C21	C	0.892067	0.140116	0.000018
C22	C	0.782685	0.127395	0.000017
C23	C	1.388784	-0.266510	0.000002
C24	C	1.376062	-0.375892	-0.000000
C25	C	1.187791	-0.369785	0.000009
C26	C	1.200513	-0.260402	0.000011
C27	C	1.301012	-0.208769	0.000010
C28	C	1.313732	-0.099384	0.000023
C29	C	1.125462	-0.093279	0.000022
C30	C	1.112741	-0.202661	0.000019
C31	C	1.441398	0.276679	0.000024
C32	C	1.557813	0.290223	0.000018
C33	C	1.262025	0.456052	0.000011
C34	C	1.275569	0.572467	0.000005
N35	N	1.250767	0.265422	0.356140
N36	N	1.250764	0.265402	-0.356097
C37	C	1.314925	0.201310	0.428072
C38	C	1.314921	0.201297	0.571955
C39	C	1.186599	0.329516	0.571962
C40	C	1.186598	0.329523	0.428082
C41	C	1.389014	0.127287	0.428069
C42	C	1.389010	0.127274	0.571952
H43	H	0.928000	0.410218	0.000016
H44	H	1.134353	0.381705	0.630552
H45	H	1.395564	-0.057346	0.000027
O46	O	0.732689	0.029701	0.000068
C47	C	0.750292	-0.155695	-0.000046
C48	C	0.807042	-0.045116	-0.000064
H49	H	0.810381	-0.216215	-0.000182
H50	H	0.699266	-0.166437	0.095635
H51	H	0.699205	-0.166293	-0.095686
H52	H	0.858184	-0.034441	0.095511
H53	H	0.858004	-0.034425	-0.095808
H54	H	0.573502	0.120623	0.000131
O55	O	1.486879	0.157354	0.618321
C56	C	1.665233	0.212035	0.558252
C57	C	1.554447	0.178013	0.505552
H58	H	1.719897	0.228727	0.467106
H59	H	1.663102	0.285682	0.623303
H60	H	1.694731	0.146804	0.623379
H61	H	1.524882	0.243174	0.440369
H62	H	1.556643	0.104337	0.440576
H63	H	1.470614	-0.224469	0.000015
H64	H	1.447536	-0.422901	-0.000011
H65	H	1.467255	0.159609	0.383443
O66	O	0.769165	0.500982	-0.000039
C67	C	0.934970	0.604016	0.000046
C68	C	0.878109	0.493486	0.000086
H69	H	1.023061	0.597993	0.000176
H70	H	0.912039	0.647958	-0.095640
H71	H	0.911895	0.647929	0.095681
H72	H	0.901155	0.449486	-0.095484
H73	H	0.901043	0.449623	0.095835
H74	H	0.939092	0.068646	0.000006
H75	H	0.562446	0.462189	0.000029
O76	O	1.124238	0.391890	0.358420
C77	C	0.996898	0.519003	0.373616
C78	C	1.067492	0.448441	0.452679
H79	H	0.950984	0.564726	0.449790
H80	H	1.047200	0.575868	0.306294
H81	H	0.940191	0.468588	0.306217
H82	H	1.124210	0.498772	0.520153
H83	H	1.017125	0.391570	0.519914
O84	O	1.358995	0.029406	0.381701
C85	C	1.304435	-0.148976	0.441772
C86	C	1.338393	-0.038176	0.494470
H87	H	1.287789	-0.203651	0.532919
H88	H	1.230774	-0.146890	0.376735
H89	H	1.369681	-0.178427	0.376633
H90	H	1.273218	-0.008658	0.559667
H91	H	1.412083	-0.040326	0.559433
H92	H	1.105969	-0.411844	-0.000005
O93	O	1.350370	0.033975	0.625242
C94	C	1.218433	-0.056997	0.767153
C95	C	1.262068	0.048726	0.706876
H96	H	1.147048	-0.045103	0.833190
H97	H	1.195074	-0.113504	0.679940
H98	H	1.280933	-0.090647	0.833031
H99	H	1.199620	0.082469	0.641013
H100	H	1.285456	0.105162	0.794154
H101	H	1.030917	-0.244717	0.000015
H102	H	1.053992	-0.046254	0.000040
