data_functionalizedCrystal
_audit_creation_method	'MofGen! by Chris Wilmer'
_symmetry_space_group_name_H-M	'P1'
_symmetry_Int_Tables_number	1
_symmetry_cell_setting	triclinic
loop_
_symmetry_equiv_pos_as_xyz
  x,y,z
_cell_length_a	25.639243
_cell_length_b	25.639240
_cell_length_c	16.959447
_cell_angle_alpha	90.028058
_cell_angle_beta	90.018010
_cell_angle_gamma	90.034783
loop_
_atom_site_label
_atom_site_type_symbol
_atom_site_fract_x
_atom_site_fract_y
_atom_site_fract_z
Zn1	Zn	0.799260	-0.208102	0.446999
Zn2	Zn	1.299260	0.291898	0.946999
Zn3	Zn	0.799190	-0.295543	0.314826
Zn4	Zn	1.299190	0.204457	0.814826
Zn5	Zn	0.711833	-0.208128	0.314828
Zn6	Zn	1.211833	0.291872	0.814828
Zn7	Zn	0.711791	-0.295513	0.446956
Zn8	Zn	1.211791	0.204487	0.946956
O9	O	0.755519	-0.251821	0.380902
O10	O	1.255519	0.248179	0.880902
O11	O	0.872416	-0.219704	0.429483
O12	O	1.372416	0.280296	0.929483
O13	O	0.787590	-0.283970	0.204215
O14	O	1.287590	0.216030	0.704215
O15	O	0.723477	-0.134959	0.332380
O16	O	1.223477	0.365041	0.832380
O17	O	0.872365	-0.283946	0.332376
O18	O	1.372365	0.216054	0.832376
O19	O	0.787709	-0.134941	0.429485
O20	O	1.287709	0.365059	0.929485
O21	O	0.723409	-0.219747	0.204217
O22	O	1.223409	0.280253	0.704217
O23	O	0.638662	-0.219717	0.332338
O24	O	1.138662	0.280283	0.832338
O25	O	0.723406	-0.283894	0.557572
O26	O	1.223406	0.216106	1.057572
O27	O	0.638632	-0.283919	0.429411
O28	O	1.138632	0.216081	0.929411
O29	O	0.787669	-0.219674	0.557604
O30	O	1.287669	0.280326	1.057604
O31	O	0.787550	-0.368704	0.332334
O32	O	1.287550	0.131296	0.832334
O33	O	0.723338	-0.368682	0.429409
O34	O	1.223338	0.131318	0.929409
C35	C	0.619676	-0.251818	0.380871
C36	C	1.119676	0.248182	0.880871
C37	C	0.561562	-0.251829	0.380876
C38	C	1.061562	0.248171	0.880876
C39	C	0.201220	-0.218423	0.431550
C40	C	0.701220	0.281577	0.931550
C41	C	0.146616	-0.218423	0.431555
C42	C	0.646616	0.281577	0.931555
O43	O	0.118397	-0.190010	0.474601
O44	O	0.618397	0.309990	0.974601
N45	N	0.119279	-0.251820	0.380924
N46	N	0.619279	0.248180	0.880924
C47	C	0.146550	-0.285216	0.330279
C48	C	0.646550	0.214784	0.830279
O49	O	0.118285	-0.313623	0.287213
O50	O	0.618285	0.186377	0.787213
C51	C	0.201154	-0.285214	0.330270
C52	C	0.701154	0.214786	0.830270
C53	C	0.228487	-0.251818	0.380911
C54	C	0.728487	0.248182	0.880911
C55	C	0.228553	-0.185030	0.482185
C56	C	0.728553	0.314970	0.982185
C57	C	0.283154	-0.185031	0.482181
C58	C	0.783154	0.314969	0.982181
C59	C	0.310421	-0.218426	0.431542
C60	C	0.810421	0.281574	0.931542
C61	C	0.283088	-0.251819	0.380906
C62	C	0.783088	0.248181	0.880906
C63	C	0.228424	-0.318607	0.279622
C64	C	0.728424	0.181393	0.779622
C65	C	0.283031	-0.318601	0.279618
C66	C	0.783031	0.181399	0.779618
C67	C	0.310364	-0.285205	0.330258
C68	C	0.810364	0.214795	0.830258
C69	C	0.364955	-0.285215	0.330263
C70	C	0.864955	0.214785	0.830263
N71	N	0.392292	-0.251818	0.380894
N72	N	0.892292	0.248182	0.880894
C73	C	0.365024	-0.218423	0.431534
C74	C	0.865024	0.281577	0.931534
C75	C	0.031880	-0.285218	0.330299
C76	C	0.531880	0.214782	0.830299
C77	C	-0.022722	-0.285224	0.330311
C78	C	0.477278	0.214776	0.830311
C79	C	-0.022654	-0.218430	0.431586
C80	C	0.477346	0.281570	0.931586
C81	C	0.031950	-0.218427	0.431578
C82	C	0.531950	0.281573	0.931578
C83	C	0.059216	-0.251821	0.380930
C84	C	0.559216	0.248179	0.880930
C85	C	0.479689	-0.218429	0.431522
C86	C	0.979689	0.281571	0.931522
C87	C	0.534295	-0.218434	0.431515
C88	C	1.034295	0.281566	0.931515
C89	C	0.534221	-0.285226	0.330237
C90	C	1.034221	0.214774	0.830237
C91	C	0.479621	-0.285223	0.330246
C92	C	0.979621	0.214777	0.830246
C93	C	0.452356	-0.251820	0.380891
C94	C	0.952356	0.248180	0.880891
O95	O	0.393209	-0.313612	0.287237
O96	O	0.893209	0.186388	0.787237
O97	O	0.393296	-0.190016	0.474585
O98	O	0.893296	0.309984	0.974585
C99	C	0.755446	-0.387664	0.380884
C100	C	1.255446	0.112336	0.880884
C101	C	0.755463	-0.445778	0.380902
C102	C	1.255463	0.054222	0.880902
C103	C	0.788961	-0.696911	0.431517
C104	C	1.288961	-0.196911	0.931517
C105	C	0.788946	-0.642306	0.431511
C106	C	1.288946	-0.142306	0.931511
O107	O	0.817367	-0.614018	0.474518
O108	O	1.317367	-0.114018	0.974518
N109	N	0.755520	-0.615052	0.380912
N110	N	1.255520	-0.115052	0.880912
C111	C	0.722113	-0.642405	0.330311
C112	C	1.222113	-0.142405	0.830311
O113	O	0.693681	-0.614209	0.287272
O114	O	1.193681	-0.114209	0.787272
C115	C	0.722131	-0.697008	0.330314
C116	C	1.222131	-0.197008	0.830314
C117	C	0.755555	-0.724260	0.380921
C118	C	1.255555	-0.224260	0.880921
C119	C	0.822382	-0.724162	0.482119
C120	C	1.322382	-0.224162	0.982119
C121	C	0.822397	-0.778763	0.482126
C122	C	1.322397	-0.278763	0.982126
C123	C	0.788991	-0.806112	0.431530
C124	C	1.288991	-0.306112	0.931530
C125	C	0.755570	-0.778860	0.380928
C126	C	1.255570	-0.278860	0.880928
C127	C	0.688727	-0.724360	0.279709
C128	C	1.188727	-0.224360	0.779709
C129	C	0.688749	-0.778967	0.279716
C130	C	1.188749	-0.278967	0.779716
C131	C	0.722172	-0.806218	0.330323
C132	C	1.222172	-0.306218	0.830323
C133	C	0.722178	-0.860810	0.330339
C134	C	1.222178	-0.360810	0.830339
N135	N	0.755603	-0.888064	0.380937
N136	N	1.255603	-0.388064	0.880937
C137	C	0.789010	-0.860715	0.431533
C138	C	1.289010	-0.360715	0.931533
C139	C	0.722077	-0.527734	0.330309
C140	C	1.222077	-0.027734	0.830309
C141	C	0.722055	-0.473132	0.330309
C142	C	1.222055	0.026868	0.830309
C143	C	0.788888	-0.473037	0.431508
C144	C	1.288888	0.026963	0.931508
C145	C	0.788907	-0.527640	0.431511
C146	C	1.288907	-0.027640	0.931511
C147	C	0.755502	-0.554988	0.380907
C148	C	1.255502	-0.054988	0.880907
C149	C	0.789038	-0.975380	0.431544
C150	C	1.289038	-0.475380	0.931544
C151	C	0.789049	-1.029985	0.431548
C152	C	1.289049	-0.529985	0.931548
C153	C	0.722217	-1.030075	0.330347
C154	C	1.222217	-0.530075	0.830347
C155	C	0.722205	-0.975475	0.330345
C156	C	1.222205	-0.475475	0.830345
C157	C	0.755619	-0.948128	0.380946
C158	C	1.255619	-0.448128	0.880946
O159	O	0.693773	-0.889133	0.287351
O160	O	1.193773	-0.389133	0.787351
O161	O	0.817442	-0.888918	0.474557
O162	O	1.317442	-0.388918	0.974557
C163	C	0.891892	-0.251825	0.380934
C164	C	1.391892	0.248175	0.880934
C165	C	0.950006	-0.251827	0.380948
C166	C	1.450006	0.248173	0.880948
C167	C	0.755540	-0.251778	0.587070
C168	C	1.255540	0.248222	1.087070
C169	C	0.755550	-0.251760	0.674927
C170	C	1.255550	0.248240	1.174927
C171	C	0.755605	-0.115448	0.380938
C172	C	1.255605	0.384552	0.880938
C173	C	0.755642	-0.057334	0.380953
C174	C	1.255642	0.442666	0.880953
C175	C	0.755527	-0.251827	0.175536
C176	C	1.255527	0.248173	0.675536
C177	C	0.755619	-0.251698	0.087680
C178	C	1.255619	0.248302	0.587680
C179	C	0.722153	-0.285141	1.046389
C180	C	1.222153	0.214859	1.546389
C181	C	0.789071	-0.218268	1.046417
C182	C	1.289071	0.281732	1.546417
C183	C	0.789057	-0.218279	0.963871
C184	C	1.289057	0.281721	1.463871
C185	C	0.755591	-0.251722	0.922580
C186	C	1.255591	0.248278	1.422580
C187	C	0.722140	-0.285154	0.963835
C188	C	1.222140	0.214846	1.463835
C189	C	0.822512	-0.184852	0.922610
C190	C	1.322512	0.315148	1.422610
C191	C	0.822499	-0.184862	0.840059
C192	C	1.322499	0.315138	1.340059
C193	C	0.789031	-0.218303	0.798766
C194	C	1.289031	0.281697	1.298766
C195	C	0.755577	-0.251736	0.840026
C196	C	1.255577	0.248264	1.340026
C197	C	0.722112	-0.285178	0.798736
C198	C	1.222112	0.214822	1.298736
C199	C	0.688655	-0.318609	0.839994
C200	C	1.188655	0.181391	1.339994
C201	C	0.688671	-0.318595	0.922543
C202	C	1.188671	0.181405	1.422543
C203	C	0.789015	-0.218317	0.716218
C204	C	1.289015	0.281683	1.216218
C205	C	0.722098	-0.285192	0.716182
C206	C	1.222098	0.214808	1.216182
H207	H	0.305228	-0.345794	0.238372
H208	H	0.805228	0.154206	0.738372
C209	C	0.418341	-0.148095	0.442715
C210	C	0.918341	0.351905	0.942715
C211	C	0.449727	-0.181714	0.487195
C212	C	0.949727	0.318286	0.987195
H213	H	0.399847	-0.125430	0.477089
H214	H	0.899847	0.374570	0.977089
H215	H	0.394244	-0.167980	0.412571
H216	H	0.894244	0.332020	0.912571
H217	H	0.439651	-0.128070	0.408327
H218	H	0.939651	0.371930	0.908327
H219	H	0.428416	-0.201742	0.521579
H220	H	0.928416	0.298258	1.021579
H221	H	0.473827	-0.161827	0.517352
H222	H	0.973827	0.338173	1.017352
C223	C	0.796242	-0.913936	0.537878
C224	C	1.296242	-0.413936	1.037878
C225	C	0.825764	-0.945324	0.487168
C226	C	1.325764	-0.445324	0.987168
H227	H	0.818913	-0.895379	0.572216
H228	H	1.318913	-0.395379	1.072216
H229	H	0.773457	-0.935248	0.568073
H230	H	1.273457	-0.435248	1.068073
H231	H	0.776340	-0.889889	0.507734
H232	H	1.276340	-0.389889	1.007734
H233	H	0.845662	-0.969374	0.517312
H234	H	1.345662	-0.469374	1.017312
H235	H	0.848558	-0.924010	0.456970
H236	H	1.348558	-0.424010	0.956970
C237	C	0.714776	-0.355536	0.623321
C238	C	1.214776	0.144464	1.123321
C239	C	0.685313	-0.321954	0.670793
C240	C	1.185313	0.178046	1.170793
H241	H	0.692066	-0.378228	0.595296
H242	H	1.192066	0.121772	1.095296
H243	H	0.737541	-0.375529	0.655523
H244	H	1.237541	0.124471	1.155523
H245	H	0.734697	-0.335623	0.586940
H246	H	1.234697	0.164377	1.086940
H247	H	0.665395	-0.341866	0.707178
H248	H	1.165395	0.158134	1.207178
H249	H	0.662539	-0.301958	0.638588
H250	H	1.162539	0.198042	1.138588
C251	C	0.859257	-0.588971	0.442610
C252	C	1.359257	-0.088971	0.942610
C253	C	0.825649	-0.557592	0.487136
C254	C	1.325649	-0.057592	0.987136
H255	H	0.881939	-0.607461	0.476954
H256	H	1.381939	-0.107461	0.976954
H257	H	0.879261	-0.567662	0.408205
H258	H	1.379261	-0.067662	0.908205
H259	H	0.839363	-0.613077	0.412483
H260	H	1.339363	-0.113077	0.912483
H261	H	0.845544	-0.533483	0.517259
H262	H	1.345544	-0.033483	1.017259
H263	H	0.805644	-0.578903	0.521555
H264	H	1.305644	-0.078903	1.021555
C265	C	0.277720	-0.119002	0.582273
C266	C	0.777720	0.380998	1.082273
C267	C	0.313194	-0.148313	0.537835
C268	C	0.813194	0.351687	1.037835
H269	H	0.296264	-0.096329	0.616626
H270	H	0.796264	0.403671	1.116626
H271	H	0.256422	-0.141807	0.612453
H272	H	0.756422	0.358193	1.112453
H273	H	0.256422	-0.098984	0.547873
H274	H	0.756422	0.401016	1.047873
H275	H	0.334489	-0.168334	0.572235
H276	H	0.834489	0.331666	1.072235
H277	H	0.334501	-0.125504	0.507653
H278	H	0.834501	0.374496	1.007653
H279	H	0.661410	-0.345841	0.806364
H280	H	1.161410	0.154159	1.306364
C281	C	0.656155	-1.024698	0.230312
C282	C	1.156155	-0.524698	0.730312
C283	C	0.685498	-1.060144	0.274734
C284	C	1.185498	-0.560144	0.774734
H285	H	0.633485	-1.043263	0.195980
H286	H	1.133485	-0.543263	0.695980
H287	H	0.678940	-1.003391	0.200109
H288	H	1.178940	-0.503391	0.700109
H289	H	0.636131	-1.003405	0.264723
H290	H	1.136131	-0.503405	0.764723
H291	H	0.705525	-1.081434	0.240323
H292	H	1.205525	-0.581434	0.740323
H293	H	0.662709	-1.081459	0.304938
H294	H	1.162709	-0.581459	0.804938
C295	C	0.859335	-0.211077	0.623397
C296	C	1.359335	0.288923	1.123397
C297	C	0.825789	-0.181575	0.670869
C298	C	1.325789	0.318425	1.170869
H299	H	0.882041	-0.188392	0.595406
H300	H	1.382041	0.311608	1.095406
H301	H	0.839400	-0.230987	0.586994
H302	H	1.339400	0.269013	1.086994
H303	H	0.879321	-0.233853	0.655602
H304	H	1.379321	0.266147	1.155602
H305	H	0.805801	-0.158801	0.638663
H306	H	1.305801	0.341199	1.138663
H307	H	0.845726	-0.161656	0.707276
H308	H	1.345726	0.338344	1.207276
C309	C	0.658984	-0.348269	1.049070
C310	C	1.158984	0.151731	1.549070
C311	C	0.651900	-0.355342	0.967896
C312	C	1.151900	0.144658	1.467896
H313	H	0.636286	-0.370958	1.077069
H314	H	1.136286	0.129042	1.577069
H315	H	0.651356	-0.313141	1.062606
H316	H	1.151356	0.186859	1.562606
H317	H	0.694113	-0.355921	1.062587
H318	H	1.194113	0.144079	1.562587
H319	H	0.616772	-0.347686	0.954377
H320	H	1.116772	0.152314	1.454377
H321	H	0.659524	-0.390477	0.954354
H322	H	1.159524	0.109523	1.454354
C323	C	0.485040	-0.351249	0.230143
C324	C	0.985040	0.148751	0.730143
C325	C	0.449573	-0.321935	0.274589
C326	C	0.949573	0.178065	0.774589
H327	H	0.466491	-0.373909	0.195776
H328	H	0.966491	0.126091	0.695776
H329	H	0.506329	-0.371276	0.264531
H330	H	1.006329	0.128724	0.764531
H331	H	0.506348	-0.328439	0.199970
H332	H	1.006348	0.171561	0.699970
H333	H	0.428267	-0.344744	0.304767
H334	H	0.928267	0.155256	0.804767
H335	H	0.428274	-0.301907	0.240196
H336	H	0.928274	0.198093	0.740196
C337	C	0.829776	-0.114536	0.747277
C338	C	1.329776	0.385464	1.247277
C339	C	0.859263	-0.148102	0.794718
C340	C	1.359263	0.351898	1.294718
H341	H	0.852471	-0.091841	0.719284
H342	H	1.352471	0.408159	1.219284
H343	H	0.807015	-0.094544	0.779496
H344	H	1.307015	0.405456	1.279496
H345	H	0.809851	-0.134460	0.710868
H346	H	1.309851	0.365540	1.210868
H347	H	0.879186	-0.128179	0.831131
H348	H	1.379186	0.371821	1.331131
H349	H	0.882034	-0.168096	0.762496
H350	H	1.382034	0.331904	1.262496
H351	H	0.816090	-0.450760	0.472705
H352	H	1.316090	0.049240	0.972705
H353	H	0.694913	-0.312358	1.079985
H354	H	1.194913	0.187642	1.579985
C355	C	0.617899	-0.314870	0.285262
C356	C	1.117899	0.185130	0.785262
C357	C	0.564201	-0.321930	0.274571
C358	C	1.064201	0.178070	0.774571
H359	H	0.636406	-0.337526	0.250889
H360	H	1.136406	0.162474	0.750889
H361	H	0.626852	-0.322571	0.338343
H362	H	1.126852	0.177429	0.838343
H363	H	0.626856	-0.279727	0.273793
H364	H	1.126856	0.220273	0.773793
H365	H	0.555243	-0.357072	0.286047
H366	H	1.055243	0.142928	0.786047
H367	H	0.555244	-0.314233	0.221479
H368	H	1.055244	0.185767	0.721479
C369	C	0.655996	-0.478724	0.230281
C370	C	1.155996	0.021276	0.730281
C371	C	0.685311	-0.443181	0.274686
C372	C	1.185311	0.056819	0.774686
H373	H	0.633315	-0.460233	0.195936
H374	H	1.133315	0.039767	0.695936
H375	H	0.635990	-0.500024	0.264696
H376	H	1.135990	-0.000024	0.764696
H377	H	0.678802	-0.500013	0.200087
H378	H	1.178802	-0.000013	0.700087
H379	H	0.662505	-0.421894	0.304885
H380	H	1.162505	0.078106	0.804885
H381	H	0.705318	-0.421872	0.240267
H382	H	1.205318	0.078128	0.740267
H383	H	0.816265	-1.052171	0.472764
H384	H	1.316265	-0.552171	0.972764
C385	C	0.600236	-0.795869	0.241079
C386	C	1.100236	-0.295869	0.741079
C387	C	0.652025	-0.809028	0.224094
C388	C	1.152025	-0.309028	0.724094
H389	H	0.577564	-0.814429	0.206745
H390	H	1.077564	-0.314429	0.706745
H391	H	0.595449	-0.759453	0.233832
H392	H	1.095449	-0.259453	0.733832
H393	H	0.592569	-0.804808	0.294179
H394	H	1.092569	-0.304808	0.794179
H395	H	0.659693	-0.800085	0.170996
H396	H	1.159693	-0.300085	0.670996
H397	H	0.656814	-0.845452	0.231334
H398	H	1.156814	-0.345452	0.731334
C399	C	0.888468	-0.773167	0.582133
C400	C	1.388468	-0.273167	1.082133
C401	C	0.859149	-0.808713	0.537738
C402	C	1.359149	-0.308713	1.037738
H403	H	0.911163	-0.791656	0.616459
H404	H	1.411163	-0.291656	1.116459
H405	H	0.865669	-0.751887	0.612340
H406	H	1.365669	-0.251887	1.112340
H407	H	0.908464	-0.751859	0.547704
H408	H	1.408464	-0.251859	1.047704
H409	H	0.839151	-0.830019	0.572167
H410	H	1.339151	-0.330019	1.072167
H411	H	0.881951	-0.830003	0.507529
H412	H	1.381951	-0.330003	1.007529
C413	C	0.167190	-0.177854	0.588547
C414	C	0.667190	0.322146	1.088547
C415	C	0.198586	-0.148321	0.537859
C416	C	0.698586	0.351679	1.037859
H417	H	0.148691	-0.155192	0.622919
H418	H	0.648691	0.344808	1.122919
H419	H	0.188489	-0.200658	0.618706
H420	H	0.688489	0.299342	1.118706
H421	H	0.143092	-0.197737	0.558388
H422	H	0.643092	0.302263	1.058388
H423	H	0.222687	-0.128441	0.568017
H424	H	0.722687	0.371559	1.068017
H425	H	0.177286	-0.125509	0.507696
H426	H	0.677286	0.374491	1.007696
C427	C	0.651861	-0.914130	0.319256
C428	C	1.151861	-0.414130	0.819256
C429	C	0.685462	-0.945514	0.274726
C430	C	1.185462	-0.445514	0.774726
H431	H	0.629179	-0.895638	0.284915
H432	H	1.129179	-0.395638	0.784915
H433	H	0.671758	-0.890029	0.349378
H434	H	1.171758	-0.390029	0.849378
H435	H	0.631854	-0.935439	0.353667
H436	H	1.131854	-0.435439	0.853667
H437	H	0.705472	-0.924204	0.240320
H438	H	1.205472	-0.424204	0.740320
H439	H	0.665563	-0.969618	0.244591
H440	H	1.165563	-0.469618	0.744591
C441	C	0.829581	-0.662722	0.588459
C442	C	1.329581	-0.162722	1.088459
C443	C	0.859104	-0.694105	0.537743
C444	C	1.359104	-0.194105	1.037743
H445	H	0.852252	-0.644167	0.622801
H446	H	1.352252	-0.144167	1.122801
H447	H	0.806796	-0.684036	0.618650
H448	H	1.306796	-0.184036	1.118650
H449	H	0.809680	-0.638672	0.558318
H450	H	1.309680	-0.138672	1.058318
H451	H	0.879003	-0.718157	0.567884
H452	H	1.379003	-0.218157	1.067884
H453	H	0.881898	-0.672789	0.507549
H454	H	1.381898	-0.172789	1.007549
H455	H	0.816320	-0.191043	1.080041
H456	H	1.316320	0.308957	1.580041
H457	H	0.694869	-0.549998	0.289103
H458	H	1.194869	-0.049998	0.789103
C459	C	0.093238	-0.355544	0.319125
C460	C	0.593238	0.144456	0.819125
C461	C	0.061850	-0.321935	0.274633
C462	C	0.561850	0.178065	0.774633
H463	H	0.111740	-0.378208	0.284757
H464	H	0.611740	0.121792	0.784757
H465	H	0.071934	-0.375567	0.353511
H466	H	0.571934	0.124433	0.853511
H467	H	0.117334	-0.335650	0.349270
H468	H	0.617334	0.164350	0.849270
H469	H	0.037751	-0.341829	0.244492
H470	H	0.537751	0.158171	0.744492
H471	H	0.083157	-0.301910	0.240233
H472	H	0.583157	0.198090	0.740233
H473	H	0.661511	-0.702179	0.238500
H474	H	1.161511	-0.202179	0.738500
C475	C	0.829838	-0.114513	1.015472
C476	C	1.329838	0.385487	1.515472
C477	C	0.859298	-0.148097	0.967999
C478	C	1.359298	0.351903	1.467999
H479	H	0.852550	-0.091820	1.043493
H480	H	1.352550	0.408180	1.543493
H481	H	0.809918	-0.134420	1.051848
H482	H	1.309918	0.365580	1.551848
H483	H	0.807072	-0.094514	0.983264
H484	H	1.307072	0.405486	1.483264
H485	H	0.882061	-0.168098	1.000207
H486	H	1.382061	0.331902	1.500207
H487	H	0.879227	-0.128188	0.931618
H488	H	1.379227	0.371812	1.431618
C489	C	0.551147	-0.193069	0.565431
C490	C	1.051147	0.306931	1.065431
C491	C	0.564338	-0.181721	0.487182
C492	C	1.064338	0.318279	0.987182
H493	H	0.569691	-0.170402	0.599793
H494	H	1.069691	0.329598	1.099793
H495	H	0.560081	-0.228203	0.576902
H496	H	1.060081	0.271797	1.076902
H497	H	0.514724	-0.188290	0.572666
H498	H	1.014724	0.311710	1.072666
H499	H	0.600761	-0.186504	0.479944
H500	H	1.100761	0.313496	0.979944
H501	H	0.555407	-0.146579	0.475706
H502	H	1.055407	0.353421	0.975706
C503	C	0.026520	-0.152407	0.531684
C504	C	0.526520	0.347593	1.031684
C505	C	0.061992	-0.181715	0.487238
C506	C	0.561992	0.318285	0.987238
H507	H	0.045066	-0.129739	0.566043
H508	H	0.545066	0.370261	1.066043
H509	H	0.005221	-0.175215	0.561859
H510	H	0.505221	0.324785	1.061859
H511	H	0.005223	-0.132383	0.497291
H512	H	0.505223	0.367617	0.997291
H513	H	0.083287	-0.201741	0.521631
H514	H	0.583287	0.298259	1.021631
H515	H	0.083300	-0.158904	0.457061
H516	H	0.583300	0.341096	0.957061
C517	C	-0.017292	-0.351246	0.230205
C518	C	0.482708	0.148754	0.730205
C519	C	-0.052763	-0.321937	0.274650
C520	C	0.447237	0.178063	0.774650
H521	H	-0.035838	-0.373907	0.195836
H522	H	0.464162	0.126093	0.695836
H523	H	0.003999	-0.371271	0.264592
H524	H	0.503999	0.128729	0.764592
H525	H	0.004013	-0.328434	0.200033
H526	H	0.504013	0.171566	0.700033
H527	H	-0.074066	-0.344749	0.304827
H528	H	0.425934	0.155251	0.804827
H529	H	-0.074064	-0.301910	0.240258
H530	H	0.425936	0.198090	0.740258
C531	C	-0.106331	-0.188773	0.476550
C532	C	0.393669	0.311227	0.976550
C533	C	-0.052633	-0.181717	0.487246
C534	C	0.447367	0.318283	0.987246
H535	H	-0.124839	-0.166108	0.510908
H536	H	0.375161	0.333892	1.010908
H537	H	-0.115292	-0.223908	0.488031
H538	H	0.384708	0.276092	0.988031
H539	H	-0.115280	-0.181080	0.423458
H540	H	0.384720	0.318920	0.923458
H541	H	-0.043683	-0.189414	0.540338
H542	H	0.456317	0.310586	1.040338
H543	H	-0.043668	-0.146574	0.475771
H544	H	0.456332	0.353426	0.975771
H545	H	0.206178	-0.345801	0.238384
H546	H	0.706178	0.154199	0.738384
