data_functionalizedCrystal
_audit_creation_method	'MofGen! by Chris Wilmer'
_symmetry_space_group_name_H-M	'P1'
_symmetry_Int_Tables_number	1
_symmetry_cell_setting	triclinic
loop_
_symmetry_equiv_pos_as_xyz
  x,y,z
_cell_length_a	14.519731
_cell_length_b	13.596369
_cell_length_c	9.065215
_cell_angle_alpha	90.005011
_cell_angle_beta	84.351775
_cell_angle_gamma	90.005416
loop_
_atom_site_label
_atom_site_type_symbol
_atom_site_fract_x
_atom_site_fract_y
_atom_site_fract_z
O1	O	1.225272	0.081791	0.193547
O2	O	1.475272	0.331791	0.443547
O3	O	1.725272	0.581791	0.693547
O4	O	1.975272	0.831791	0.943547
O5	O	0.956964	0.081793	0.216289
O6	O	1.206964	0.331793	0.466289
O7	O	1.456964	0.581793	0.716289
O8	O	1.706964	0.831793	0.966289
O9	O	1.096666	0.081788	-0.009828
O10	O	1.346666	0.331788	0.240172
O11	O	1.596666	0.581788	0.490172
O12	O	1.846666	0.831788	0.740172
O13	O	1.085571	0.081796	0.419664
O14	O	1.335571	0.331796	0.669664
O15	O	1.585571	0.581796	0.919664
O16	O	1.835571	0.831796	1.169664
O17	O	1.096651	-0.081795	-0.009840
O18	O	1.346651	0.168205	0.240160
O19	O	1.596651	0.418205	0.490160
O20	O	1.846651	0.668205	0.740160
O21	O	0.956950	-0.081790	0.216277
O22	O	1.206950	0.168210	0.466277
O23	O	1.456950	0.418210	0.716277
O24	O	1.706950	0.668210	0.966277
O25	O	1.225258	-0.081791	0.193535
O26	O	1.475258	0.168209	0.443535
O27	O	1.725258	0.418209	0.693535
O28	O	1.975258	0.668209	0.943535
Zn29	Zn	1.091102	-0.107763	0.204904
Zn30	Zn	1.341102	0.142237	0.454904
Zn31	Zn	1.591102	0.392237	0.704904
Zn32	Zn	1.841102	0.642237	0.954904
Zn33	Zn	1.091121	0.107764	0.204920
Zn34	Zn	1.341121	0.357764	0.454920
Zn35	Zn	1.591121	0.607764	0.704920
Zn36	Zn	1.841121	0.857764	0.954920
O37	O	1.085557	-0.081787	0.419652
O38	O	1.335557	0.168213	0.669652
O39	O	1.585557	0.418213	0.919652
O40	O	1.835557	0.668213	1.169652
C41	C	0.922590	0.000001	0.215217
C42	C	1.172590	0.250001	0.465217
C43	C	1.422590	0.500001	0.715217
C44	C	1.672590	0.750001	0.965217
C45	C	0.820186	0.000002	0.212024
C46	C	1.070186	0.250002	0.462024
C47	C	1.320186	0.500002	0.712024
C48	C	1.570186	0.750002	0.962024
C49	C	0.737023	0.000006	0.209429
C50	C	0.987023	0.250006	0.459429
C51	C	1.237023	0.500006	0.709429
C52	C	1.487023	0.750006	0.959429
C53	C	0.632691	0.000006	0.206187
C54	C	0.882691	0.250006	0.456187
C55	C	1.132691	0.500006	0.706187
C56	C	1.382691	0.750006	0.956187
C57	C	0.549533	0.000006	0.203614
C58	C	0.799533	0.250006	0.453614
C59	C	1.049533	0.500006	0.703614
C60	C	1.299533	0.750006	0.953614
C61	C	0.445194	0.000008	0.200373
C62	C	0.695194	0.250008	0.450373
C63	C	0.945194	0.500008	0.700373
C64	C	1.195194	0.750008	0.950373
N65	N	1.091096	-0.254855	0.204892
N66	N	1.341096	-0.004855	0.454892
N67	N	1.591096	0.245145	0.704892
N68	N	1.841096	0.495145	0.954892
C69	C	1.091119	-0.656146	0.204921
C70	C	1.341119	-0.406146	0.454921
C71	C	1.591119	-0.156146	0.704921
C72	C	1.841119	0.093854	0.954921
C73	C	1.091110	-0.544495	0.204918
C74	C	1.341110	-0.294495	0.454918
C75	C	1.591110	-0.044495	0.704918
C76	C	1.841110	0.205505	0.954918
C77	C	1.091108	-0.455504	0.204908
C78	C	1.341108	-0.205504	0.454908
C79	C	1.591108	0.044496	0.704908
C80	C	1.841108	0.294496	0.954908
C81	C	1.091098	-0.343846	0.204903
C82	C	1.341098	-0.093846	0.454903
C83	C	1.591098	0.156154	0.704903
C84	C	1.841098	0.406154	0.954903
C85	C	1.259632	0.000002	0.194607
C86	C	1.509632	0.250002	0.444607
C87	C	1.759632	0.500002	0.694607
C88	C	2.009632	0.750002	0.944607
C89	C	1.362036	0.000008	0.197800
C90	C	1.612036	0.250008	0.447800
C91	C	1.862036	0.500008	0.697800
C92	C	2.112036	0.750008	0.947800
C93	C	1.095593	-0.000003	-0.064801
C94	C	1.345593	0.249997	0.185199
C95	C	1.595593	0.499997	0.435199
C96	C	1.845593	0.749997	0.685199
C97	C	1.092407	0.000000	-0.228585
C98	C	1.342407	0.250000	0.021415
C99	C	1.592407	0.500000	0.271415
C100	C	1.842407	0.750000	0.521415
N101	N	1.091134	0.254856	0.204920
N102	N	1.341134	0.504856	0.454920
N103	N	1.591134	0.754856	0.704920
N104	N	1.841134	1.004856	0.954920
C105	C	1.086630	0.000006	0.474625
C106	C	1.336630	0.250006	0.724625
C107	C	1.586630	0.500006	0.974625
C108	C	1.836630	0.750006	1.224625
C109	C	1.089816	0.000009	0.638408
C110	C	1.339816	0.250009	0.888408
C111	C	1.589816	0.500009	1.138408
C112	C	1.839816	0.750009	1.388408
