data_functionalizedCrystal
_audit_creation_method	'MofGen! by Chris Wilmer'
_symmetry_space_group_name_H-M	'P1'
_symmetry_Int_Tables_number	1
_symmetry_cell_setting	triclinic
loop_
_symmetry_equiv_pos_as_xyz
  x,y,z
_cell_length_a	17.077404
_cell_length_b	17.640280
_cell_length_c	17.077396
_cell_angle_alpha	101.225604
_cell_angle_beta	90.019501
_cell_angle_gamma	78.800538
loop_
_atom_site_label
_atom_site_type_symbol
_atom_site_fract_x
_atom_site_fract_y
_atom_site_fract_z
Zn1	Zn	1.263288	-0.314659	0.380745
Zn2	Zn	1.763288	0.185341	0.880745
Zn3	Zn	1.289758	-0.446839	0.222973
Zn4	Zn	1.789758	0.053161	0.722973
Zn5	Zn	1.132026	-0.314687	0.249487
Zn6	Zn	1.632026	0.185313	0.749487
Zn7	Zn	1.158541	-0.446792	0.354206
Zn8	Zn	1.658541	0.053208	0.854206
O9	O	1.210903	-0.380744	0.301853
O10	O	1.710903	0.119256	0.801853
O11	O	1.376648	-0.332201	0.359827
O12	O	1.876648	0.167799	0.859827
O13	O	1.268815	-0.429340	0.116637
O14	O	1.768815	0.070660	0.616637
O15	O	1.127263	-0.204078	0.289102
O16	O	1.627263	0.295922	0.789102
O17	O	1.396095	-0.429313	0.243912
O18	O	1.896095	0.070687	0.743912
O19	O	1.223701	-0.204058	0.385536
O20	O	1.723701	0.295942	0.885536
O21	O	1.152930	-0.332248	0.136117
O22	O	1.652930	0.167752	0.636117
O23	O	1.025694	-0.332203	0.263368
O24	O	1.525694	0.167797	0.763368
O25	O	1.172456	-0.429233	0.467580
O26	O	1.672456	0.070767	0.967580
O27	O	1.045176	-0.429260	0.340305
O28	O	1.545176	0.070740	0.840305
O29	O	1.249413	-0.332155	0.487078
O30	O	1.749413	0.167845	0.987078
O31	O	1.294527	-0.557437	0.218179
O32	O	1.794527	-0.057437	0.718179
O33	O	1.198122	-0.557403	0.314595
O34	O	1.698122	-0.057403	0.814595
C35	C	1.006953	-0.380730	0.301834
C36	C	1.506953	0.119270	0.801834
C37	C	0.919705	-0.380743	0.301841
C38	C	1.419705	0.119257	0.801841
C39	C	0.888895	-0.431357	0.341806
C40	C	1.388895	0.068643	0.841806
C41	C	0.806915	-0.431359	0.341818
C42	C	1.306915	0.068641	0.841818
C43	C	0.755747	-0.380750	0.301860
C44	C	1.255747	0.119250	0.801860
C45	C	0.786562	-0.330130	0.261894
C46	C	1.286562	0.169870	0.761894
C47	C	0.868540	-0.330125	0.261887
C48	C	1.368540	0.169875	0.761887
C49	C	0.615696	-0.330146	0.261910
C50	C	1.115696	0.169854	0.761910
C51	C	0.533712	-0.330151	0.261915
C52	C	1.033712	0.169849	0.761915
C53	C	0.554070	-0.431379	0.341841
C54	C	1.054070	0.068621	0.841841
C55	C	0.636048	-0.431374	0.341834
C56	C	1.136048	0.068626	0.841834
C57	C	0.666858	-0.380755	0.301866
C58	C	1.166858	0.119245	0.801866
C59	C	1.252095	-0.586099	0.260647
C60	C	1.752095	-0.086099	0.760647
C61	C	1.269789	-0.673950	0.243045
C62	C	1.769789	-0.173950	0.743045
C63	C	1.076806	-0.962931	0.435857
C64	C	1.576806	-0.462931	0.935857
C65	C	1.093434	-1.045481	0.419293
C66	C	1.593434	-0.545481	0.919293
C67	C	1.193882	-1.045451	0.318996
C68	C	1.693882	-0.545451	0.818996
C69	C	1.177265	-0.962900	0.335555
C70	C	1.677265	-0.462900	0.835555
C71	C	1.118726	-0.921646	0.393986
C72	C	1.618726	-0.421646	0.893986
C73	C	1.219185	-0.921615	0.293683
C74	C	1.719185	-0.421615	0.793683
C75	C	1.202567	-0.839070	0.310238
C76	C	1.702567	-0.339070	0.810238
C77	C	1.144029	-0.797811	0.368665
C78	C	1.644029	-0.297811	0.868665
C79	C	1.102108	-0.839101	0.410541
C80	C	1.602108	-0.339101	0.910541
C81	C	1.277721	-0.962870	0.235249
C82	C	1.777721	-0.462870	0.735249
C83	C	1.319640	-0.921585	0.193377
C84	C	1.819640	-0.421585	0.693377
C85	C	1.303026	-0.839039	0.209936
C86	C	1.803026	-0.339039	0.709936
C87	C	1.244488	-0.797780	0.268362
C88	C	1.744488	-0.297780	0.768362
C89	C	1.344947	-0.797748	0.168060
C90	C	1.844947	-0.297748	0.668060
C91	C	1.328329	-0.715204	0.184615
C92	C	1.828329	-0.215204	0.684615
C93	C	1.227870	-0.715235	0.284917
C94	C	1.727870	-0.215235	0.784917
C95	C	1.415651	-0.380759	0.301872
C96	C	1.915651	0.119241	0.801872
C97	C	1.502902	-0.380765	0.301880
C98	C	2.002902	0.119235	0.801880
C99	C	1.210939	-0.380686	0.506609
C100	C	1.710939	0.119314	1.006609
C101	C	1.210954	-0.380661	0.593864
C102	C	1.710954	0.119339	1.093864
C103	C	1.169572	-0.174588	0.343237
C104	C	1.669572	0.325412	0.843237
C105	C	1.151959	-0.086736	0.360872
C106	C	1.651959	0.413264	0.860872
C107	C	1.210901	-0.380745	0.097905
C108	C	1.710901	0.119255	0.597905
C109	C	1.210993	-0.380547	0.010695
C110	C	1.710993	0.119453	0.510695
C111	C	1.251027	-0.330109	0.645009
C112	C	1.751027	0.169891	1.145009
C113	C	1.251031	-0.330082	0.726995
C114	C	1.751031	0.169918	1.226995
C115	C	1.210967	-0.380613	0.757833
C116	C	1.710967	0.119387	1.257833
C117	C	1.170889	-0.431168	0.706682
C118	C	1.670889	0.068832	1.206682
C119	C	1.170881	-0.431190	0.624699
C120	C	1.670881	0.068810	1.124699
C121	C	1.170911	-0.431120	0.877562
C122	C	1.670911	0.068880	1.377562
C123	C	1.170921	-0.431100	0.959550
C124	C	1.670921	0.068900	1.459550
C125	C	1.251062	-0.330013	0.979858
C126	C	1.751062	0.169987	1.479858
C127	C	1.251053	-0.330035	0.897874
C128	C	1.751053	0.169965	1.397874
C129	C	1.210977	-0.380591	0.846729
C130	C	1.710977	0.119409	1.346729
H131	H	0.744895	-0.288920	0.229364
H132	H	1.244895	0.211080	0.729364
O133	O	0.777070	-0.480496	0.380749
O134	O	1.277070	0.019504	0.880749
C135	C	0.793680	-0.463322	0.462460
C136	C	1.293680	0.036678	0.962460
H137	H	0.847102	-0.432930	0.470232
H138	H	1.347102	0.067070	0.970232
H139	H	0.807962	-0.520417	0.486097
H140	H	1.307962	-0.020417	0.986097
H141	H	0.739406	-0.422734	0.497125
H142	H	1.239406	0.077266	0.997125
O143	O	1.045190	-0.798938	0.467215
O144	O	1.545190	-0.298938	0.967215
C145	C	0.984901	-0.751265	0.432043
C146	C	1.484901	-0.251265	0.932043
H147	H	1.010127	-0.738905	0.375057
H148	H	1.510127	-0.238905	0.875057
H149	H	0.962679	-0.693214	0.475652
H150	H	1.462679	-0.193214	0.975652
H151	H	0.933148	-0.783127	0.416980
H152	H	1.433148	-0.283127	0.916980
O153	O	0.484087	-0.281024	0.223001
O154	O	0.984087	0.218976	0.723001
C155	C	0.507491	-0.298183	0.141280
C156	C	1.007491	0.201817	0.641280
H157	H	0.573110	-0.328546	0.133478
H158	H	1.073110	0.171454	0.633478
H159	H	0.498801	-0.241084	0.117647
H160	H	0.998801	0.258916	0.617647
H161	H	0.469488	-0.338791	0.106635
H162	H	0.969488	0.161209	0.606635
O163	O	1.289928	-0.280786	1.029469
O164	O	1.789928	0.219214	1.529469
C165	C	1.256966	-0.202016	1.025252
C166	C	1.756966	0.297984	1.525252
H167	H	1.226454	-0.200398	0.966050
H168	H	1.726454	0.299602	1.466050
H169	H	1.306514	-0.166582	1.029565
H170	H	1.806514	0.333418	1.529565
H171	H	1.211276	-0.175372	1.076731
H172	H	1.711276	0.324628	1.576731
H173	H	1.138262	-0.472276	0.835923
H174	H	1.638262	0.027724	1.335923
H175	H	0.893623	-0.288906	0.229348
H176	H	1.393623	0.211094	0.729348
H177	H	1.392604	-0.831350	0.120480
H178	H	1.892604	-0.331350	0.620480
H179	H	1.138265	-0.472308	0.731798
H180	H	1.638265	0.027692	1.231798
H181	H	0.930551	-0.472571	0.374341
H182	H	1.430551	0.027429	0.874341
H183	H	1.138240	-0.472347	0.583058
H184	H	1.638240	0.027653	1.083058
H185	H	0.677708	-0.472589	0.374366
H186	H	1.177708	0.027411	0.874366
H187	H	1.362464	-0.681589	0.150517
H188	H	1.862464	-0.181589	0.650517
O189	O	1.052633	-1.085619	0.459854
O190	O	1.552633	-0.585619	0.959854
C191	C	1.011601	-1.133441	0.405526
C192	C	1.511601	-0.633441	0.905526
H193	H	1.001790	-1.108601	0.348678
H194	H	1.501790	-0.608601	0.848678
H195	H	0.951368	-1.134408	0.433665
H196	H	1.451368	-0.634408	0.933665
H197	H	1.048462	-1.195983	0.390305
H198	H	1.548462	-0.695983	0.890305
H199	H	0.528981	-0.472593	0.374387
H200	H	1.028981	0.027407	0.874387
H201	H	1.180207	-0.681645	0.332503
H202	H	1.680207	-0.181645	0.832503
O203	O	1.376586	-0.961703	0.136720
O204	O	1.876586	-0.461703	0.636720
C205	C	1.436848	-1.009414	0.171882
C206	C	1.936848	-0.509414	0.671882
H207	H	1.436658	-0.984507	0.238706
H208	H	1.936658	-0.484507	0.738706
H209	H	1.497455	-1.010328	0.143357
H210	H	1.997455	-0.510328	0.643357
H211	H	1.425162	-1.071986	0.162016
H212	H	1.925162	-0.571986	0.662016
H213	H	0.640776	-0.288919	0.229372
H214	H	1.140776	0.211081	0.729372
O215	O	1.127879	-0.717627	0.384605
O216	O	1.627879	-0.217627	0.884605
C217	C	1.102202	-0.690097	0.314882
C218	C	1.602202	-0.190097	0.814882
H219	H	1.125221	-0.737673	0.260136
H220	H	1.625221	-0.237673	0.760136
H221	H	1.126492	-0.634850	0.312046
H222	H	1.626492	-0.134850	0.812046
H223	H	1.034133	-0.675505	0.316085
H224	H	1.534133	-0.175505	0.816085
O225	O	1.019902	-0.922972	0.492629
O226	O	1.519902	-0.422972	0.992629
C227	C	0.986484	-0.977109	0.526063
C228	C	1.486484	-0.477109	1.026063
H229	H	0.995619	-1.035967	0.482105
H230	H	1.495619	-0.535967	0.982105
H231	H	0.919843	-0.953296	0.539171
H232	H	1.419843	-0.453296	1.039171
H233	H	1.016967	-0.985841	0.583949
H234	H	1.516967	-0.485841	1.083949
H235	H	1.241543	-1.079051	0.271419
H236	H	1.741543	-0.579051	0.771419
H237	H	1.291251	-1.030083	0.221774
H238	H	1.791251	-0.530083	0.721774
H239	H	1.283655	-0.288963	0.619907
H240	H	1.783655	0.211037	1.119907
H241	H	1.283664	-0.288919	0.768634
H242	H	1.783664	0.211081	1.268634
O243	O	1.289844	-0.280897	0.867848
O244	O	1.789844	0.219103	1.367848
C245	C	1.234894	-0.229847	0.830695
C246	C	1.734894	0.270153	1.330695
H247	H	1.181002	-0.257736	0.812801
H248	H	1.681002	0.242264	1.312801
H249	H	1.264729	-0.219253	0.775180
H250	H	1.764729	0.280747	1.275180
H251	H	1.214517	-0.171273	0.874058
H252	H	1.714517	0.328727	1.374058
O253	O	1.131931	-0.480206	0.989383
O254	O	1.631931	0.019794	1.489383
C255	C	1.096567	-0.524842	0.926661
C256	C	1.596567	-0.024842	1.426661
H257	H	1.087351	-0.492486	0.874718
H258	H	1.587351	0.007514	1.374718
H259	H	1.036411	-0.533255	0.948653
H260	H	1.536411	-0.033255	1.448653
H261	H	1.137340	-0.584879	0.905895
H262	H	1.637340	-0.084879	1.405895
