data_functionalizedCrystal
_audit_creation_method	'MofGen! by Chris Wilmer'
_symmetry_space_group_name_H-M	'P1'
_symmetry_Int_Tables_number	1
_symmetry_cell_setting	triclinic
loop_
_symmetry_equiv_pos_as_xyz
  x,y,z
_cell_length_a	13.897449
_cell_length_b	21.295417
_cell_length_c	13.897441
_cell_angle_alpha	89.964549
_cell_angle_beta	89.981404
_cell_angle_gamma	90.031786
loop_
_atom_site_label
_atom_site_type_symbol
_atom_site_fract_x
_atom_site_fract_y
_atom_site_fract_z
Zn1	Zn	1.474596	-0.250574	-0.545342
Zn2	Zn	1.474460	-0.355851	-0.384027
Zn3	Zn	1.313292	-0.250602	-0.384060
Zn4	Zn	1.313231	-0.355811	-0.545280
O5	O	1.393895	-0.303209	-0.464677
O6	O	1.609560	-0.264544	-0.523955
O7	O	1.453049	-0.341918	-0.249050
O8	O	1.334771	-0.162509	-0.405495
O9	O	1.609460	-0.341890	-0.405438
O10	O	1.453281	-0.162488	-0.523988
O11	O	1.334639	-0.264592	-0.249074
O12	O	1.178302	-0.264553	-0.405434
O13	O	1.334668	-0.341823	-0.680270
O14	O	1.178258	-0.341850	-0.523881
O15	O	1.453223	-0.264505	-0.680316
O16	O	1.452991	-0.443935	-0.405378
O17	O	1.334536	-0.443906	-0.523849
C18	C	1.143281	-0.303201	-0.464655
C19	C	1.036067	-0.303213	-0.464669
C20	C	0.839771	-0.303215	-0.464694
C21	C	0.949004	-0.303212	-0.464677
C22	C	1.393768	-0.466761	-0.464624
C23	C	1.393803	-0.536729	-0.464633
C24	C	1.455537	-0.569590	-0.403008
C25	C	1.455582	-0.635333	-0.403030
C26	C	1.393876	-0.668212	-0.464667
C27	C	1.332137	-0.635343	-0.526304
C28	C	1.332101	-0.569602	-0.526287
N29	N	1.309494	-0.771478	-0.472013
N30	N	1.309532	-0.833930	-0.472023
C31	C	1.393984	-0.866286	-0.464722
N32	N	1.478398	-0.833832	-0.457392
N33	N	1.478360	-0.771375	-0.457376
C34	C	1.393909	-0.739497	-0.464692
C35	C	1.455772	-0.970433	-0.403117
C36	C	1.455819	-1.036176	-0.403146
C37	C	1.332366	-1.036185	-0.526414
C38	C	1.332328	-0.970443	-0.526391
C39	C	1.394029	-0.937571	-0.464737
C40	C	1.645488	-0.303218	-0.464700
C41	C	1.752702	-0.303222	-0.464710
C42	C	1.393954	-0.303157	-0.716270
C43	C	1.393979	-0.303134	-0.823484
C44	C	1.394048	-0.139019	-0.464752
C45	C	1.394113	-0.069051	-0.464784
C46	C	1.393999	-0.303116	-0.910554
C47	C	1.394026	-0.303088	-1.019787
C48	C	1.393892	-0.303217	-0.214063
C49	C	1.394053	-0.303062	-0.106850
H50	H	1.505780	-0.542827	-0.352809
C51	C	1.523655	-0.934268	-0.335316
C52	C	1.523616	-0.861955	-0.335292
C53	C	1.591502	-0.825792	-0.267493
C54	C	1.659427	-0.861942	-0.199719
C55	C	1.659468	-0.934259	-0.199740
C56	C	1.591582	-0.970422	-0.267539
H57	H	1.473331	-0.835191	-0.385465
H58	H	1.591471	-0.772258	-0.267478
H59	H	1.709680	-0.835172	-0.149530
H60	H	1.709753	-0.961023	-0.149567
H61	H	1.591614	-1.023956	-0.267554
C62	C	1.523731	-1.072328	-0.335356
C63	C	1.599468	-1.117453	-0.377231
C64	C	1.667381	-1.153607	-0.309440
C65	C	1.659557	-1.144635	-0.199775
C66	C	1.583816	-1.099508	-0.157894
C67	C	1.515904	-1.063355	-0.225685
H68	H	1.605263	-1.124096	-0.458417
H69	H	1.723449	-1.187013	-0.340444
H70	H	1.709830	-1.171398	-0.149592
H71	H	1.578022	-1.092865	-0.076708
H72	H	1.459836	-1.029949	-0.194681
H73	H	1.282128	-1.062955	-0.576604
H74	H	1.282054	-0.943686	-0.576567
H75	H	1.505856	-0.662093	-0.352848
C76	C	1.264260	-0.671507	-0.594105
C77	C	1.264293	-0.743819	-0.594123
C78	C	1.196417	-0.779982	-0.661931
C79	C	1.128508	-0.743833	-0.729722
C80	C	1.128472	-0.671516	-0.729706
C81	C	1.196348	-0.635353	-0.661898
H82	H	1.314566	-0.770583	-0.543938
H83	H	1.196444	-0.833516	-0.661942
H84	H	1.078262	-0.770602	-0.779917
H85	H	1.078199	-0.644752	-0.779891
H86	H	1.196321	-0.581819	-0.661887
H87	H	1.281829	-0.542846	-0.576471
