data_functionalizedCrystal
_audit_creation_method	'MofGen! by Chris Wilmer'
_symmetry_space_group_name_H-M	'P1'
_symmetry_Int_Tables_number	1
_symmetry_cell_setting	triclinic
loop_
_symmetry_equiv_pos_as_xyz
  x,y,z
_cell_length_a	10.654541
_cell_length_b	11.026607
_cell_length_c	10.065875
_cell_angle_alpha	100.697662
_cell_angle_beta	98.874761
_cell_angle_gamma	83.465027
loop_
_atom_site_label
_atom_site_type_symbol
_atom_site_fract_x
_atom_site_fract_y
_atom_site_fract_z
O1	O	0.512405	-1.632228	-0.113500
O2	O	0.452409	-1.278417	-0.113501
O3	O	0.301435	-1.463458	-0.113493
O4	O	0.663380	-1.447188	-0.113509
O5	O	0.330372	-1.428174	0.113494
O6	O	0.481346	-1.243134	0.113486
O7	O	0.541342	-1.596944	0.113487
Zn8	Zn	0.515938	-1.414437	0.149525
Zn9	Zn	0.477813	-1.460925	-0.149540
O10	O	0.692316	-1.411904	0.113478
C11	C	0.455810	-1.215472	-0.000008
C12	C	0.422815	-1.080480	-0.000008
C13	C	0.268846	-1.444622	0.000000
C14	C	0.128627	-1.441049	-0.000002
C15	C	0.537941	-1.659891	-0.000010
C16	C	0.570935	-1.794883	-0.000019
C17	C	0.148689	-1.662314	0.000016
C18	C	0.092846	-1.771262	0.000027
C19	C	-0.038903	-1.767898	0.000023
C20	C	-0.114814	-1.655575	0.000003
C21	C	-0.058971	-1.546627	-0.000009
C22	C	0.072783	-1.550002	-0.000000
C23	C	-0.079034	-1.325366	-0.000036
C24	C	0.052716	-1.328726	-0.000022
C25	C	-0.154944	-1.213042	-0.000056
C26	C	-0.099100	-1.104090	-0.000058
C27	C	0.032657	-1.107458	-0.000053
C28	C	0.108559	-1.219777	-0.000034
C29	C	0.724905	-1.430740	-0.000018
C30	C	0.865123	-1.434314	-0.000025
N31	N	0.541959	-1.382720	0.353629
C32	C	0.513918	-1.007442	-0.000013
C33	C	0.479819	-0.867921	-0.000014
N34	N	0.451785	-1.492652	-0.353644
C35	C	0.486857	-1.449881	0.421411
C36	C	0.506895	-1.425480	0.578577
H37	H	0.255969	-1.665061	0.000038
O38	O	0.343052	-0.813954	0.000001
H39	H	0.311872	-0.771186	-0.092518
H40	H	0.674184	-0.835635	-0.000014
H41	H	0.568903	-1.349906	0.636895
H42	H	0.319570	-1.039726	-0.000038
O43	O	0.092877	-0.989942	-0.000065
H44	H	0.197244	-1.011147	-0.000064
H45	H	0.424841	-1.525442	0.363091
O46	O	0.369629	-1.592750	0.569128
H47	H	0.366782	-1.596212	0.457803
H48	H	0.603963	-1.307150	0.411952
H49	H	-0.084371	-1.856615	0.000022
H50	H	-0.222092	-1.652848	-0.000017
O51	O	0.174716	-1.892410	0.000052
H52	H	0.275714	-1.876450	0.000065
O53	O	0.650680	-1.061411	-0.000010
H54	H	0.658271	-1.132943	-0.092530
H55	H	-0.160918	-1.012646	-0.000084
O56	O	-0.297043	-1.209410	-0.000046
H57	H	-0.339246	-1.270680	-0.092546
O58	O	0.250660	-1.223407	-0.000032
H59	H	0.294056	-1.319814	-0.000027
