data_functionalizedCrystal
_audit_creation_method	'MofGen! by Chris Wilmer'
_symmetry_space_group_name_H-M	'P1'
_symmetry_Int_Tables_number	1
_symmetry_cell_setting	triclinic
loop_
_symmetry_equiv_pos_as_xyz
  x,y,z
_cell_length_a	13.897449
_cell_length_b	29.839131
_cell_length_c	13.897441
_cell_angle_alpha	90.035143
_cell_angle_beta	90.020733
_cell_angle_gamma	90.042700
loop_
_atom_site_label
_atom_site_type_symbol
_atom_site_fract_x
_atom_site_fract_y
_atom_site_fract_z
Zn1	Zn	1.474544	-0.178824	0.545351
Zn2	Zn	1.807877	0.154510	0.878684
Zn3	Zn	2.141210	0.487843	1.212017
Zn4	Zn	1.474371	-0.253959	0.384039
Zn5	Zn	1.807704	0.079375	0.717373
Zn6	Zn	2.141037	0.412708	1.050706
Zn7	Zn	1.313233	-0.178845	0.384069
Zn8	Zn	1.646566	0.154488	0.717402
Zn9	Zn	1.979899	0.487822	1.050736
Zn10	Zn	1.313148	-0.253929	0.545292
Zn11	Zn	1.646481	0.079404	0.878625
Zn12	Zn	1.979814	0.412738	1.211959
O13	O	1.393824	-0.216389	0.464688
O14	O	1.727157	0.116944	0.798021
O15	O	2.060490	0.450278	1.131354
O16	O	1.609502	-0.188794	0.523965
O17	O	1.942836	0.144539	0.857298
O18	O	2.276169	0.477873	1.190631
O19	O	1.452959	-0.244016	0.249061
O20	O	1.786292	0.089317	0.582395
O21	O	2.119625	0.422651	0.915728
O22	O	1.334739	-0.115975	0.405500
O23	O	1.668072	0.217358	0.738834
O24	O	2.001406	0.550692	1.072167
O25	O	1.609375	-0.243995	0.405450
O26	O	1.942709	0.089338	0.738783
O27	O	2.276042	0.422671	1.072116
O28	O	1.453253	-0.115959	0.523993
O29	O	1.786587	0.217374	0.857327
O30	O	2.119920	0.550707	1.190660
O31	O	1.334571	-0.188830	0.249083
O32	O	1.667905	0.144503	0.582417
O33	O	2.001238	0.477836	0.915750
O34	O	1.178240	-0.188802	0.405443
O35	O	1.511573	0.144532	0.738777
O36	O	1.844906	0.477865	1.072110
O37	O	1.334594	-0.243945	0.680281
O38	O	1.667927	0.089388	1.013615
O39	O	2.001261	0.422722	1.346948
O40	O	1.178177	-0.243966	0.523893
O41	O	1.511511	0.089368	0.857226
O42	O	1.844844	0.422701	1.190560
O43	O	1.453171	-0.188765	0.680325
O44	O	1.786504	0.144568	1.013658
O45	O	2.119837	0.477901	1.346991
O46	O	1.452876	-0.316822	0.405393
O47	O	1.786210	0.016512	0.738726
O48	O	2.119543	0.349845	1.072059
O49	O	1.334426	-0.316800	0.523864
O50	O	1.667760	0.016533	0.857198
O51	O	2.001093	0.349867	1.190531
C52	C	1.143209	-0.216383	0.464666
C53	C	1.476543	0.116950	0.797999
C54	C	1.809876	0.450284	1.131332
C55	C	1.035995	-0.216391	0.464679
C56	C	1.369329	0.116942	0.798013
C57	C	1.702662	0.450275	1.131346
C58	C	0.839700	-0.216393	0.464704
C59	C	1.173034	0.116940	0.798038
C60	C	1.506367	0.450274	1.131371
C61	C	0.948933	-0.216391	0.464688
C62	C	1.282266	0.116943	0.798021
C63	C	1.615599	0.450276	1.131354
C64	C	1.393649	-0.333112	0.464640
C65	C	1.726983	0.000222	0.797973
C66	C	2.060316	0.333555	1.131307
C67	C	1.393663	-0.383046	0.464652
C68	C	1.726997	-0.049713	0.797985
C69	C	2.060330	0.283621	1.131318
C70	C	1.455613	-0.692688	0.403090
C71	C	1.788946	-0.359355	0.736423
C72	C	2.122279	-0.026021	1.069756
C73	C	1.455732	-0.880361	0.403127
C74	C	1.789065	-0.547028	0.736460
C75	C	2.122398	-0.213694	1.069794
O76	O	1.508265	-0.904625	0.350748
O77	O	1.841599	-0.571291	0.684081
O78	O	2.174932	-0.237958	1.017415
N79	N	1.394024	-0.903831	0.464760
N80	N	1.727357	-0.570498	0.798094
N81	N	2.060690	-0.237164	1.131427
C82	C	1.332286	-0.880380	0.526393
C83	C	1.665619	-0.547047	0.859727
C84	C	1.998953	-0.213713	1.193060
O85	O	1.279809	-0.904649	0.578824
O86	O	1.613142	-0.571316	0.912157
O87	O	1.946476	-0.237982	1.245491
C88	C	1.332172	-0.692708	0.526360
C89	C	1.665506	-0.359374	0.859693
C90	C	1.998839	-0.026041	1.193027
C91	C	1.393878	-0.669240	0.464716
C92	C	1.727211	-0.335907	0.798049
C93	C	2.060544	-0.002574	1.131382
C94	C	1.517314	-0.669221	0.341451
C95	C	1.850647	-0.335887	0.674785
C96	C	2.183980	-0.002554	1.008118
C97	C	1.517280	-0.622305	0.341439
C98	C	1.850613	-0.288972	0.674772
C99	C	2.183946	0.044362	1.008105
C100	C	1.455545	-0.598857	0.403065
C101	C	1.788878	-0.265524	0.736398
C102	C	2.122211	0.067809	1.069731
C103	C	1.393844	-0.622325	0.464703
C104	C	1.727177	-0.288991	0.798037
C105	C	2.060510	0.044342	1.131370
C106	C	1.270440	-0.669258	0.587997
C107	C	1.603774	-0.335924	0.921330
C108	C	1.937107	-0.002591	1.254664
C109	C	1.270419	-0.622336	0.587985
C110	C	1.603752	-0.289003	0.921318
C111	C	1.937086	0.044330	1.254652
C112	C	1.332124	-0.598869	0.526341
C113	C	1.665458	-0.265536	0.859674
C114	C	1.998791	0.067798	1.193007
C115	C	1.332074	-0.551962	0.526317
C116	C	1.665408	-0.218628	0.859650
C117	C	1.998741	0.114705	1.192984
N118	N	1.393782	-0.528492	0.464684
N119	N	1.727116	-0.195158	0.798017
N120	N	2.060449	0.138175	1.131350
C121	C	1.455518	-0.551939	0.403057
C122	C	1.788851	-0.218606	0.736391
C123	C	2.122184	0.114727	1.069724
C124	C	1.332349	-0.978911	0.526405
C125	C	1.665682	-0.645577	0.859738
C126	C	1.999015	-0.312244	1.193072
C127	C	1.332375	-1.025828	0.526412
C128	C	1.665709	-0.692495	0.859746
C129	C	1.999042	-0.359162	1.193079
C130	C	1.455823	-1.025806	0.403147
C131	C	1.789156	-0.692473	0.736481
C132	C	2.122490	-0.359140	1.069814
C133	C	1.455790	-0.978888	0.403136
C134	C	1.789124	-0.645554	0.736469
C135	C	2.122457	-0.312221	1.069802
C136	C	1.394057	-0.955441	0.464772
C137	C	1.727390	-0.622107	0.798105
C138	C	2.060723	-0.288774	1.131438
C139	C	1.455441	-0.453414	0.403035
C140	C	1.788774	-0.120080	0.736369
C141	C	2.122107	0.213253	1.069702
C142	C	1.455398	-0.406494	0.403026
C143	C	1.788732	-0.073161	0.736359
C144	C	2.122065	0.260173	1.069692
C145	C	1.331955	-0.406520	0.526294
C146	C	1.665288	-0.073187	0.859627
C147	C	1.998622	0.260147	1.192961
C148	C	1.331993	-0.453436	0.526301
C149	C	1.665327	-0.120102	0.859634
C150	C	1.998660	0.213231	1.192967
C151	C	1.393744	-0.476881	0.464668
C152	C	1.727077	-0.143548	0.798001
C153	C	2.060411	0.189785	1.131335
O154	O	1.279576	-0.527669	0.578676
O155	O	1.612909	-0.194336	0.912009
O156	O	1.946243	0.138998	1.245343
O157	O	1.508002	-0.527662	0.350650
O158	O	1.841335	-0.194329	0.683983
O159	O	2.174668	0.139004	1.017316
C160	C	1.455647	-0.739604	0.403102
C161	C	1.788980	-0.406270	0.736435
C162	C	2.122313	-0.072937	1.069769
C163	C	1.393946	-0.763071	0.464741
C164	C	1.727279	-0.429738	0.798074
C165	C	2.060613	-0.096404	1.131407
C166	C	1.332211	-0.739623	0.526367
C167	C	1.665544	-0.406290	0.859700
C168	C	1.998877	-0.072957	1.193033
C169	C	1.393973	-0.809989	0.464748
C170	C	1.727306	-0.476656	0.798081
C171	C	2.060639	-0.143322	1.131415
C172	C	1.455708	-0.833437	0.403122
C173	C	1.789041	-0.500103	0.736455
C174	C	2.122375	-0.166770	1.069789
C175	C	1.517416	-0.809967	0.341489
C176	C	1.850749	-0.476634	0.674822
C177	C	2.184083	-0.143300	1.008155
C178	C	1.517382	-0.763051	0.341476
C179	C	1.850715	-0.429718	0.674809
C180	C	2.184049	-0.096385	1.008143
C181	C	1.270503	-0.763093	0.588000
C182	C	1.603836	-0.429760	0.921333
C183	C	1.937169	-0.096427	1.254667
C184	C	1.270541	-0.810009	0.588007
C185	C	1.603874	-0.476675	0.921340
C186	C	1.937208	-0.143342	1.254673
C187	C	1.332276	-0.833457	0.526381
C188	C	1.665609	-0.500123	0.859714
C189	C	1.998943	-0.166790	1.193047
C190	C	1.645417	-0.216395	0.464710
C191	C	1.978750	0.116938	0.798044
C192	C	2.312083	0.450271	1.131377
C193	C	1.752631	-0.216398	0.464720
C194	C	2.085964	0.116935	0.798053
C195	C	2.419297	0.450269	1.131387
C196	C	1.393892	-0.216349	0.716281
C197	C	1.727225	0.116984	1.049614
C198	C	2.060559	0.450317	1.382947
C199	C	1.393921	-0.216332	0.823495
C200	C	1.727255	0.117001	1.156828
C201	C	2.060588	0.450334	1.490161
C202	C	1.394025	-0.099211	0.464757
C203	C	1.727358	0.234123	0.798090
C204	C	2.060691	0.567456	1.131423
C205	C	1.394111	-0.049276	0.464786
C206	C	1.727444	0.284057	0.798120
C207	C	2.060777	0.617390	1.131453
C208	C	1.393811	-0.216396	0.214073
C209	C	1.727144	0.116937	0.547407
C210	C	2.060478	0.450270	0.880740
C211	C	1.393969	-0.216287	0.106860
C212	C	1.727302	0.117047	0.440193
C213	C	2.060635	0.450380	0.773527
C214	C	1.393948	-0.216302	1.019790
C215	C	1.727281	0.117031	1.353123
C216	C	2.060614	0.450365	1.686457
C217	C	1.393930	-0.216320	0.910558
C218	C	1.727263	0.117013	1.243891
C219	C	2.060597	0.450346	1.577224
H220	H	1.505646	-0.387388	0.352824
H221	H	1.838979	-0.054055	0.686157
H222	H	2.172313	0.279279	1.019491
H223	H	1.281688	-0.387422	0.576466
H224	H	1.615021	-0.054088	0.909800
H225	H	1.948355	0.279245	1.243133
O226	O	1.522033	-0.478699	0.336555
O227	O	1.855366	-0.145365	0.669888
O228	O	2.188699	0.187968	1.003222
H229	H	1.564919	-0.454492	0.293690
H230	H	1.898252	-0.121158	0.627023
H231	H	2.231585	0.212175	0.960356
H232	H	1.506090	-1.044906	0.352969
H233	H	1.839424	-0.711572	0.686302
H234	H	2.172757	-0.378239	1.019636
O235	O	1.583851	-0.596998	0.274964
O236	O	1.917184	-0.263665	0.608298
O237	O	2.250517	0.069668	0.941631
H238	H	1.567367	-0.606041	0.199246
H239	H	1.900700	-0.272708	0.532580
H240	H	2.234033	0.060626	0.865913
H241	H	1.282120	-1.044932	0.576600
H242	H	1.615453	-0.711598	0.909934
H243	H	1.948787	-0.378265	1.243267
H244	H	1.282075	-0.959823	0.576598
H245	H	1.615408	-0.626490	0.909931
H246	H	1.948742	-0.293156	1.243264
H247	H	1.567628	-0.743947	0.291280
H248	H	1.900962	-0.410614	0.624613
H249	H	2.234295	-0.077281	0.957946
O250	O	1.203912	-0.737804	0.654466
O251	O	1.537245	-0.404470	0.987799
O252	O	1.870579	-0.071137	1.321132
H253	H	1.154852	-0.716466	0.611236
H254	H	1.488186	-0.383133	0.944570
H255	H	1.821519	-0.049800	1.277903
O256	O	1.203892	-0.694563	0.654491
O257	O	1.537226	-0.361229	0.987825
O258	O	1.870559	-0.027896	1.321158
H259	H	1.160977	-0.670368	0.697345
H260	H	1.494310	-0.337035	1.030679
H261	H	1.827643	-0.003702	1.364012
O262	O	1.203822	-0.597046	0.654453
O263	O	1.537155	-0.263713	0.987786
O264	O	1.870488	0.069621	1.321120
H265	H	1.160916	-0.621250	0.697306
H266	H	1.494249	-0.287917	1.030639
H267	H	1.827583	0.045417	1.363972
H268	H	1.567591	-0.688307	0.291268
H269	H	1.900924	-0.354973	0.624601
H270	H	2.234258	-0.021640	0.957934
O271	O	1.265425	-0.478745	0.592780
O272	O	1.598758	-0.145412	0.926113
O273	O	1.932092	0.187922	1.259446
H274	H	1.216383	-0.500157	0.549568
H275	H	1.549716	-0.166824	0.882901
H276	H	1.883049	0.166509	1.216234
O277	O	1.584024	-0.835261	0.275037
O278	O	1.917357	-0.501927	0.608371
O279	O	2.250691	-0.168594	0.941704
H280	H	1.573684	-0.871827	0.285421
H281	H	1.907017	-0.538494	0.618754
H282	H	2.240351	-0.205161	0.952088
O283	O	1.203985	-0.835319	0.654500
O284	O	1.537318	-0.501986	0.987833
O285	O	1.870651	-0.168652	1.321166
H286	H	1.161062	-0.811127	0.697353
H287	H	1.494395	-0.477794	1.030687
H288	H	1.827728	-0.144460	1.364020
H289	H	1.506036	-0.959783	0.352940
H290	H	1.839370	-0.626450	0.686274
H291	H	2.172703	-0.293116	1.019607
