data_functionalizedCrystal
_audit_creation_method	'MofGen! by Chris Wilmer'
_symmetry_space_group_name_H-M	'P1'
_symmetry_Int_Tables_number	1
_symmetry_cell_setting	triclinic
loop_
_symmetry_equiv_pos_as_xyz
  x,y,z
_cell_length_a	13.262522
_cell_length_b	8.559649
_cell_length_c	7.088929
_cell_angle_alpha	95.344185
_cell_angle_beta	80.435876
_cell_angle_gamma	102.605551
loop_
_atom_site_label
_atom_site_type_symbol
_atom_site_fract_x
_atom_site_fract_y
_atom_site_fract_z
O1	O	1.311389	-0.301531	-0.840839
O2	O	1.015615	-0.309114	-0.687053
O3	O	1.189560	-0.074293	-0.777492
O4	O	1.137444	-0.536352	-0.750399
O5	O	1.212812	-0.042838	-0.471607
O6	O	1.038866	-0.277659	-0.381167
O7	O	1.334641	-0.270076	-0.534953
Cu8	Cu	1.188877	-0.270995	-0.430130
Cu9	Cu	1.161379	-0.308195	-0.791876
O10	O	1.160695	-0.504897	-0.444513
C11	C	0.989725	-0.290071	-0.514604
C12	C	0.877944	-0.280172	-0.456484
C13	C	0.838111	-0.258377	-0.262431
C14	C	0.733091	-0.249060	-0.207811
C15	C	0.667890	-0.261550	-0.347238
C16	C	0.707721	-0.283357	-0.541294
C17	C	0.812754	-0.292662	-0.595921
C18	C	0.642533	-0.295835	-0.680728
C19	C	0.682364	-0.317642	-0.874784
C20	C	0.787386	-0.326947	-0.929401
C21	C	0.852587	-0.314457	-0.789974
C22	C	0.537500	-0.286530	-0.626101
C23	C	0.512143	-0.320815	-0.959591
C24	C	0.617163	-0.330132	-1.014211
C25	C	1.205135	0.000726	-0.626607
C26	C	1.216890	0.177395	-0.632729
C27	C	1.360529	-0.289120	-0.707405
C28	C	1.472310	-0.299019	-0.765537
C29	C	1.145120	-0.579916	-0.595403
C30	C	1.133364	-0.756587	-0.589292
N31	N	1.208225	-0.244831	-0.175702
N32	N	1.142040	-0.334347	-1.046309
H33	H	0.582378	-0.253965	-0.302754
C34	C	1.024604	0.137188	-0.532762
H35	H	1.030702	0.028395	-0.535958
H36	H	0.996110	0.169765	-0.407065
H37	H	0.979905	0.147843	-0.620423
H38	H	1.297402	0.256044	-0.674575
H39	H	0.649609	-0.347887	-1.172215
H40	H	1.073447	-0.427112	-0.092291
C41	C	1.300899	-0.119510	-0.113599
H42	H	1.340332	-0.066185	-0.222253
H43	H	1.275364	-0.043504	-0.022216
H44	H	1.344187	-0.171543	-0.058041
C45	C	0.493657	-0.262760	-0.412641
H46	H	0.421762	-0.259057	-0.400064
H47	H	0.501196	-0.349542	-0.345506
H48	H	0.530950	-0.165052	-0.360657
H49	H	0.700672	-0.231284	-0.049812
H50	H	0.891208	-0.248197	-0.148932
C51	C	0.440432	-0.334563	-1.112968
H52	H	0.372175	-0.325916	-1.052642
H53	H	0.467343	-0.250913	-1.198185
H54	H	0.437520	-0.435364	-1.182675
C55	C	0.968113	-0.324688	-0.850063
H56	H	0.982500	-0.339461	-0.985603
H57	H	1.011466	-0.228243	-0.808579
H58	H	0.981641	-0.412696	-0.793096
H59	H	0.819816	-0.344682	-1.087416
