data_functionalizedCrystal
_audit_creation_method	'MofGen! by Chris Wilmer'
_symmetry_space_group_name_H-M	'P1'
_symmetry_Int_Tables_number	1
_symmetry_cell_setting	triclinic
loop_
_symmetry_equiv_pos_as_xyz
  x,y,z
_cell_length_a	15.995350
_cell_length_b	23.532407
_cell_length_c	14.472310
_cell_angle_alpha	89.994233
_cell_angle_beta	89.990621
_cell_angle_gamma	83.170526
loop_
_atom_site_label
_atom_site_type_symbol
_atom_site_fract_x
_atom_site_fract_y
_atom_site_fract_z
O1	O	1.110386	0.073404	-0.076772
O2	O	0.866535	0.082469	-0.076793
O3	O	0.995814	-0.004967	-0.076765
O4	O	0.981107	0.160840	-0.076800
O5	O	0.995781	-0.004962	0.076917
O6	O	0.866502	0.082474	0.076889
O7	O	1.110353	0.073409	0.076910
Cu8	Cu	0.988424	0.077942	0.090932
Cu9	Cu	0.988464	0.077936	-0.090815
O10	O	0.981074	0.160845	0.076882
C11	C	0.835327	0.082096	0.000046
C12	C	0.742386	0.080973	0.000039
C13	C	0.404672	0.076938	0.000059
C14	C	0.452624	0.014668	0.000415
C15	C	0.549305	0.015792	0.000062
C16	C	0.572216	0.078939	0.000050
C17	C	0.530892	0.109650	-0.087713
C18	C	0.434270	0.108086	-0.087780
C19	C	0.433882	0.109378	0.086985
C20	C	0.530828	0.109364	0.088139
C21	C	0.666904	0.080074	0.000041
C22	C	0.309984	0.075805	0.000061
C23	C	0.995423	-0.026182	0.000078
C24	C	0.994297	-0.089404	0.000085
C25	C	1.063739	-0.488239	0.000041
C26	C	1.062693	-0.547644	0.000033
O27	O	1.127067	-0.584141	0.000005
N28	N	0.985837	-0.570566	0.000028
C29	C	0.910022	-0.534080	0.000020
O30	O	0.844554	-0.559031	0.000013
C31	C	0.911069	-0.474677	0.000020
C32	C	0.987930	-0.451758	0.000035
C33	C	1.140594	-0.465320	0.000055
C34	C	1.141640	-0.405920	0.000063
C35	C	1.065830	-0.369439	0.000058
C36	C	0.988975	-0.392358	0.000044
C37	C	0.835255	-0.438192	0.000006
C38	C	0.836308	-0.378785	0.000005
C39	C	0.913169	-0.355867	0.000020
C40	C	0.914212	-0.296477	0.000048
N41	N	0.991068	-0.273555	0.000053
C42	C	1.066877	-0.310036	0.000059
C43	C	0.907829	-0.658831	0.000017
C44	C	0.906781	-0.718233	0.000023
C45	C	1.059453	-0.731793	0.000035
C46	C	1.060500	-0.672389	0.000036
C47	C	0.984685	-0.635909	0.000023
C48	C	1.069067	-0.185291	0.000078
C49	C	1.070106	-0.125885	0.000091
C50	C	0.917435	-0.112330	0.000074
C51	C	0.916396	-0.171731	0.000066
C52	C	0.992219	-0.208210	0.000065
O53	O	0.849872	-0.259945	0.000073
O54	O	1.132335	-0.285076	0.000053
C55	C	1.141561	0.073781	0.000069
C56	C	1.234502	0.074905	0.000070
C57	C	0.981465	0.182060	0.000037
C58	C	0.982591	0.245281	0.000024
N59	N	0.988403	0.077946	0.218763
N60	N	0.988492	0.077927	-0.218646
C61	C	0.988463	0.077933	0.592854
C62	C	0.919059	0.124562	0.553673
C63	C	0.919217	0.124732	0.446585
C64	C	0.988432	0.077939	0.407263
C65	C	1.075689	0.090918	0.446104
C66	C	1.075298	0.091250	0.553226
C67	C	0.971390	0.018188	0.553394
C68	C	0.969383	0.018587	0.446267
C69	C	0.988421	0.077942	0.302375
C70	C	0.988480	0.077932	0.697742
H71	H	0.544632	0.156043	-0.090985
H72	H	0.929756	0.168648	0.580575
H73	H	1.130810	-0.214986	0.000074
C74	C	1.147122	0.047116	0.588242
H75	H	1.176415	0.029068	0.536997
H76	H	1.124333	0.019131	0.624729
H77	H	1.184941	0.065929	0.624591
C78	C	0.390188	0.169842	-0.093196
H79	H	0.431357	0.195774	-0.095353
H80	H	0.355595	0.177706	-0.040283
H81	H	0.356429	0.174147	-0.147319
C82	C	0.887323	0.001336	0.589920
H83	H	0.878226	-0.034840	0.565280
H84	H	0.842663	0.029312	0.571576
H85	H	0.889220	-0.000868	0.655445
H86	H	0.905199	0.008737	0.420881
H87	H	1.123087	-0.653734	0.000047
H88	H	0.559458	0.088316	-0.153019
C89	C	0.822235	-0.743437	0.000014
H90	H	0.777240	-0.713197	0.000005
H91	H	0.818635	-0.766334	0.053601
H92	H	0.818663	-0.766320	-0.053590
H93	H	1.016688	-0.017738	0.419504
H94	H	0.853809	-0.190392	0.000079
C95	C	1.039763	-0.028689	0.587628
H96	H	1.078530	-0.011964	0.625785
H97	H	1.068696	-0.046672	0.536118
H98	H	1.014241	-0.056345	0.622125
C99	C	0.551052	0.171575	0.095291
H100	H	0.525270	0.188888	0.149103
H101	H	0.530072	0.192342	0.042219
H102	H	0.610296	0.171875	0.098975
C103	C	0.750706	-0.463389	-0.000019
H104	H	0.705715	-0.433147	-0.000034
H105	H	0.747097	-0.486285	0.053568
H106	H	0.747137	-0.486273	-0.053623
H107	H	0.413502	0.089023	0.153507
C108	C	1.226187	-0.380717	0.000062
H109	H	1.271180	-0.410959	0.000054
H110	H	1.229772	-0.357828	0.053652
H111	H	1.229778	-0.357827	-0.053539
C112	C	1.147101	0.046265	0.411690
H113	H	1.124282	0.019248	0.373232
H114	H	1.174484	0.027092	0.463116
H115	H	1.186590	0.064911	0.377470
C116	C	1.223992	-0.505441	0.000068
H117	H	1.269906	-0.483275	0.000083
H118	H	1.226783	-0.528898	-0.053520
H119	H	1.226746	-0.528895	0.053671
C120	C	1.096622	0.149109	0.409849
H121	H	1.052304	0.165569	0.371053
H122	H	1.147626	0.143742	0.375615
H123	H	1.102830	0.173923	0.460520
C124	C	1.095713	0.150112	0.586960
H125	H	1.104162	0.173598	0.535197
H126	H	1.145380	0.145313	0.623503
H127	H	1.050175	0.167745	0.622979
C128	C	0.409798	0.077825	-0.176388
H129	H	0.350649	0.076606	-0.177212
H130	H	0.437913	0.039932	-0.177749
H131	H	0.425729	0.098275	-0.228873
C132	C	1.142843	-0.771929	0.000024
H133	H	1.131205	-0.810589	0.000009
H134	H	1.174379	-0.764991	0.053614
H135	H	1.174382	-0.764976	-0.053577
H136	H	0.846088	-0.629131	0.000015
C137	C	0.567955	0.079078	0.175851
H138	H	0.608513	0.048023	0.158869
H139	H	0.524170	0.065090	0.210320
H140	H	0.594107	0.105438	0.212470
H141	H	0.577921	-0.008349	0.062975
H142	H	0.774569	-0.349085	-0.000006
H143	H	0.855713	-0.082617	0.000073
C144	C	0.390465	0.171400	0.087777
H145	H	0.354704	0.177518	0.035422
H146	H	0.431920	0.197124	0.085842
H147	H	0.357969	0.177816	0.142547
H148	H	0.854341	0.116999	0.420326
C149	C	1.154657	-0.100678	0.000102
H150	H	1.199654	-0.130916	0.000094
H151	H	1.158231	-0.077791	0.053696
H152	H	1.158249	-0.077783	-0.053495
H153	H	0.853972	0.116956	0.579458
H154	H	0.930067	0.169068	0.420943
H155	H	0.434295	-0.010221	0.063354
H156	H	0.433250	-0.010111	-0.062166
H157	H	0.577379	-0.008516	-0.062950
