data_functionalizedCrystal
_audit_creation_method	'MofGen! by Chris Wilmer'
_symmetry_space_group_name_H-M	'P1'
_symmetry_Int_Tables_number	1
_symmetry_cell_setting	triclinic
loop_
_symmetry_equiv_pos_as_xyz
  x,y,z
_cell_length_a	14.908571
_cell_length_b	12.645330
_cell_length_c	14.908308
_cell_angle_alpha	93.270481
_cell_angle_beta	90.175053
_cell_angle_gamma	86.714080
loop_
_atom_site_label
_atom_site_type_symbol
_atom_site_fract_x
_atom_site_fract_y
_atom_site_fract_z
Zn1	Zn	1.345316	-0.553227	-0.587609
Zn2	Zn	1.353903	-0.720906	-0.437258
Zn3	Zn	1.203631	-0.532865	-0.428606
Zn4	Zn	1.194931	-0.719646	-0.578909
O5	O	1.274445	-0.631661	-0.508096
O6	O	1.472282	-0.584518	-0.574926
O7	O	1.341204	-0.687967	-0.310285
O8	O	1.222473	-0.387223	-0.449718
O9	O	1.478590	-0.707711	-0.464464
O10	O	1.326569	-0.402183	-0.566537
O11	O	1.230799	-0.549815	-0.303929
O12	O	1.076650	-0.548593	-0.441282
O13	O	1.207645	-0.705565	-0.705889
O14	O	1.070259	-0.685821	-0.551710
O15	O	1.318133	-0.583297	-0.712280
O16	O	1.332768	-0.869081	-0.456028
O17	O	1.215971	-0.868156	-0.560099
C18	C	1.040829	-0.614862	-0.494614
C19	C	0.940886	-0.607702	-0.488867
C20	C	0.746483	-0.737343	-0.592903
C21	C	0.652577	-0.730619	-0.587507
C22	C	0.659166	-0.587526	-0.472684
C23	C	0.753072	-0.594249	-0.478080
C24	C	0.796727	-0.669162	-0.538191
C25	C	0.890635	-0.675890	-0.543582
C26	C	0.897222	-0.532792	-0.428764
C27	C	0.803316	-0.526068	-0.423368
C28	C	1.274380	-0.907085	-0.508079
C29	C	1.274433	-1.024921	-0.508107
C30	C	1.201231	-1.191981	-0.573809
C31	C	1.200890	-1.069382	-0.573564
C32	C	1.254254	-1.061620	-0.411871
C33	C	1.253808	-1.184216	-0.412269
C34	C	1.368282	-1.200403	-0.537898
C35	C	1.367579	-1.077886	-0.539936
C36	C	1.508974	-0.648527	-0.521631
C37	C	1.608916	-0.655714	-0.527399
C38	C	1.260961	-0.646562	-0.742622
C39	C	1.255214	-0.652912	-0.842563
C40	C	1.274534	-0.355164	-0.508133
C41	C	1.274571	-0.237338	-0.508149
C42	C	1.359465	-0.537502	-1.037020
C43	C	1.354068	-0.543464	-1.130923
C44	C	1.239021	-0.670794	-1.124275
C45	C	1.244418	-0.664831	-1.030371
C46	C	1.304642	-0.598184	-0.986747
C47	C	1.310043	-0.592227	-0.892842
C48	C	1.194992	-0.719550	-0.886195
C49	C	1.189595	-0.725513	-0.980099
C50	C	1.287929	-0.616745	-0.274485
C51	C	1.293850	-0.610109	-0.174555
H52	H	1.212881	-1.044868	-0.644752
H53	H	1.213061	-1.227037	-0.645218
C54	C	0.611699	-0.506341	-0.407347
C55	C	0.561075	-0.558704	-0.346521
C56	C	0.517337	-0.483942	-0.286327
H57	H	0.573046	-0.459770	-0.439632
H58	H	0.655031	-0.466686	-0.375476
H59	H	0.517748	-0.598340	-0.378389
H60	H	0.599707	-0.605269	-0.314216
H61	H	0.560669	-0.444288	-0.254456
H62	H	0.478688	-0.437375	-0.318619
H63	H	0.482990	-0.519460	-0.245044
H64	H	0.767759	-0.465075	-0.374431
H65	H	0.938141	-0.477276	-0.384212
H66	H	1.359082	-0.537961	-0.857325
H67	H	1.132076	-1.216836	-0.553899
H68	H	1.150354	-0.768965	-0.845253
C69	C	1.323506	-1.023073	-0.344411
C70	C	1.303481	-1.057246	-0.259434
C71	C	1.367276	-1.021788	-0.197277
H72	H	1.322291	-0.947777	-0.341951
H73	H	1.381583	-1.051156	-0.362344
H74	H	1.245419	-1.029158	-0.241505
H75	H	1.304703	-1.132537	-0.261865
H76	H	1.425352	-1.049872	-0.215210
H77	H	1.366056	-0.946493	-0.194825
H78	H	1.353703	-1.044978	-0.139615
H79	H	1.131307	-1.034056	-0.553424
H80	H	0.926177	-0.736889	-0.592525
C81	C	1.424876	-0.465048	-0.989814
C82	C	1.471723	-0.413165	-1.053940
C83	C	1.531980	-0.346401	-1.010489
H84	H	1.466224	-0.505979	-0.955438
H85	H	1.392619	-0.414005	-0.951224
H86	H	1.503979	-0.464200	-1.092515
H87	H	1.430398	-0.372214	-1.088319
H88	H	1.499722	-0.295359	-0.971899
H89	H	1.573322	-0.387341	-0.976115
H90	H	1.563766	-0.311183	-1.053991
C91	C	1.173713	-0.743105	-1.171815
C92	C	1.180731	-0.735342	-1.264812
C93	C	1.120585	-0.801943	-1.308635
H94	H	1.114149	-0.722332	-1.153042
H95	H	1.187729	-0.814333	-1.157243
H96	H	1.166709	-0.664129	-1.279378
H97	H	1.240281	-0.756124	-1.283612
H98	H	1.134602	-0.873172	-1.294062
H99	H	1.061026	-0.781164	-1.289854
H100	H	1.125345	-0.796692	-1.371737
H101	H	1.185468	-1.206601	-0.387705
H102	H	0.782028	-0.798344	-0.641842
H103	H	1.186661	-1.024731	-0.386976
C104	C	0.598186	-0.804773	-0.646953
C105	C	0.656522	-0.871829	-0.700732
C106	C	0.606449	-0.940163	-0.755502
H107	H	0.559305	-0.764281	-0.684160
H108	H	0.563538	-0.846151	-0.610411
H109	H	0.691154	-0.830455	-0.737271
H110	H	0.695403	-0.912344	-0.663549
H111	H	0.571801	-0.981541	-0.718960
H112	H	0.567570	-0.899662	-0.792703
H113	H	0.646022	-0.985674	-0.791991
H114	H	1.305205	-1.213914	-0.361385
C115	C	1.394126	-1.249404	-0.630346
C116	C	1.329144	-1.218137	-0.693011
C117	C	1.352916	-1.263245	-0.778187
H118	H	1.397613	-1.324528	-0.628890
H119	H	1.450843	-1.226069	-0.647081
H120	H	1.272442	-1.241479	-0.676280
H121	H	1.325647	-1.143021	-0.694496
H122	H	1.409634	-1.239910	-0.794923
H123	H	1.356404	-1.338367	-0.776722
H124	H	1.308835	-1.242029	-0.820717
H125	H	1.382895	-1.054579	-0.610788
C126	C	1.443765	-1.038441	-0.481378
C127	C	1.487633	-1.124330	-0.441006
C128	C	1.557824	-1.088036	-0.387055
H129	H	1.420171	-0.988647	-0.436159
H130	H	1.485227	-1.005367	-0.517394
H131	H	1.446178	-1.157387	-0.404992
H132	H	1.511248	-1.174132	-0.486203
H133	H	1.599287	-1.054963	-0.423071
H134	H	1.534222	-1.038242	-0.341842
H135	H	1.587603	-1.146307	-0.359663
C136	C	1.124273	-0.798040	-1.027356
C137	C	1.145127	-0.902877	-1.005617
C138	C	1.084966	-0.969719	-1.049122
H139	H	1.128851	-0.793040	-1.090492
H140	H	1.064732	-0.777274	-1.008463
H141	H	1.204653	-0.923637	-1.024516
H142	H	1.140543	-0.907910	-0.942489
H143	H	1.025425	-0.948953	-1.030229
H144	H	1.089549	-0.964711	-1.112256
H145	H	1.099102	-1.040857	-1.034372
H146	H	1.422855	-1.229860	-0.490142
H147	H	1.398708	-0.494048	-1.171852
