data_functionalizedCrystal
_audit_creation_method	'MofGen! by Chris Wilmer'
_symmetry_space_group_name_H-M	'P1'
_symmetry_Int_Tables_number	1
_symmetry_cell_setting	triclinic
loop_
_symmetry_equiv_pos_as_xyz
  x,y,z
_cell_length_a	19.288856
_cell_length_b	19.288865
_cell_length_c	18.366186
_cell_angle_alpha	90.011479
_cell_angle_beta	89.988961
_cell_angle_gamma	96.865496
loop_
_atom_site_label
_atom_site_type_symbol
_atom_site_fract_x
_atom_site_fract_y
_atom_site_fract_z
O1	O	-0.921356	0.086620	0.060591
O2	O	-0.719095	0.098315	0.060586
O3	O	-0.826070	-0.008663	0.060575
O4	O	-0.814381	0.193598	0.060603
O5	O	-0.826052	-0.008668	-0.060525
O6	O	-0.719077	0.098310	-0.060513
O7	O	-0.921338	0.086615	-0.060508
Zn8	Zn	-0.820205	0.092462	-0.079738
Zn9	Zn	-0.820229	0.092469	0.079816
O10	O	-0.814363	0.193593	-0.060496
C11	C	-0.693209	0.097937	0.000036
C12	C	-0.616106	0.096811	0.000034
C13	C	-0.052064	0.151959	0.000031
C14	C	-0.124511	0.153024	0.000036
C15	C	-0.169218	0.090254	0.000027
C16	C	-0.141472	0.026415	0.000031
C17	C	-0.069027	0.025352	0.000033
C18	C	-0.290482	0.043438	-0.042406
C19	C	-0.362925	0.044504	-0.042413
C20	C	-0.392664	0.093530	0.000025
C21	C	-0.349948	0.141502	0.042459
C22	C	-0.277502	0.140439	0.042461
C23	C	-0.247773	0.091399	0.000025
C24	C	-0.498955	0.158519	0.000032
C25	C	-0.571404	0.159581	0.000042
C26	C	-0.588364	0.032971	0.000029
C27	C	-0.515917	0.031910	0.000026
C28	C	-0.471217	0.094687	0.000024
C29	C	-0.825685	-0.034542	0.000023
C30	C	-0.824556	-0.111645	0.000016
C31	C	-0.887324	-0.156343	0.000014
C32	C	-0.886263	-0.228790	0.000026
C33	C	-0.822431	-0.256536	0.000025
C34	C	-0.759655	-0.211828	0.000031
C35	C	-0.760717	-0.139383	0.000027
C36	C	-0.772245	-0.364824	-0.042395
C37	C	-0.771185	-0.437268	-0.042395
C38	C	-0.819151	-0.479982	0.000041
C39	C	-0.868189	-0.450243	0.042468
C40	C	-0.869252	-0.377798	0.042464
C41	C	-0.821272	-0.335090	0.000030
C42	C	-0.880774	-0.603236	0.000052
C43	C	-0.879710	-0.675684	0.000068
C44	C	-0.753100	-0.658720	0.000066
C45	C	-0.754165	-0.586273	0.000057
C46	C	-0.818004	-0.558536	0.000047
C47	C	0.052776	0.086995	0.000039
C48	C	-0.024327	0.088128	0.000031
C49	C	-0.814748	0.219472	0.000057
C50	C	-0.815877	0.296576	0.000068
N51	N	-0.820194	0.092457	-0.188629
C52	C	-0.867578	0.045110	-0.226734
C53	C	-0.867582	0.045107	-0.302962
C54	C	-0.820209	0.092462	-0.341082
C55	C	-0.772816	0.139813	-0.302967
C56	C	-0.772808	0.139810	-0.226740
C57	C	-0.810911	0.155751	-0.461833
C58	C	-0.810923	0.155754	-0.538058
C59	C	-0.820229	0.092471	-0.576189
C60	C	-0.829536	0.029181	-0.538086
C61	C	-0.829529	0.029178	-0.461859
C62	C	-0.820212	0.092471	-0.423736
C63	C	-0.867620	0.045117	-0.696950
C64	C	-0.867620	0.045113	-0.773179
C65	C	-0.772857	0.139825	-0.773182
C66	C	-0.772854	0.139823	-0.696954
C67	C	-0.820239	0.092470	-0.658843
N68	N	-0.820245	0.092468	0.188707
H69	H	-0.266276	0.003512	-0.076965
H70	H	-0.374158	0.181425	0.077013
N71	N	-0.687895	-0.687052	0.000051
N72	N	-0.645622	-0.673295	-0.050998
H73	H	-0.599569	-0.693307	-0.051007
N74	N	-0.950376	-0.274469	0.000011
N75	N	-0.949415	-0.339150	0.000010
H76	H	-0.994694	-0.371411	-0.000002
H77	H	-0.709602	-0.102988	0.000028
H78	H	-0.731253	-0.461475	-0.076938
N79	N	-0.724464	0.188187	-0.812121
N80	N	-0.724472	0.188181	-0.880180
H81	H	-0.690291	0.222335	-0.907685
N82	N	-0.599752	0.224779	0.000048
N83	N	-0.638294	0.239504	0.051096
H84	H	-0.658318	0.285550	0.051100
N85	N	-0.945979	-0.574895	0.000034
N86	N	-0.988237	-0.588677	-0.051013
H87	H	-1.034288	-0.568662	-0.051028
N88	N	-0.724398	0.188179	-0.187824
N89	N	-0.682098	0.230454	-0.221863
H90	H	-0.647908	0.264616	-0.194377
N91	N	-0.916005	-0.003263	-0.812117
N92	N	-0.915992	-0.003269	-0.880175
H93	H	-0.950158	-0.037442	-0.907677
N94	N	-0.916041	-0.003205	-0.187817
N95	N	-0.958385	-0.045437	-0.221856
H96	H	-0.992635	-0.079539	-0.194370
H97	H	-0.703052	-0.549879	0.000055
H98	H	-0.906169	0.006550	-0.333994
H99	H	-0.930826	-0.712077	0.000071
N100	N	-0.406557	-0.004504	-0.085744
N101	N	-0.452653	-0.046188	-0.056105
H102	H	-0.483468	-0.080802	-0.086708
H103	H	-0.015673	0.203076	0.000033
N104	N	-0.187146	-0.037697	0.000027
N105	N	-0.251827	-0.036740	0.000025
H106	H	-0.284085	-0.082020	0.000026
H107	H	-0.733183	-0.330052	-0.076956
N108	N	-0.839035	-0.035471	-0.422949
N109	N	-0.847345	-0.091972	-0.456995
H110	H	-0.854057	-0.137632	-0.429515
H111	H	-0.147099	0.205004	0.000030
H112	H	-0.046445	-0.026628	0.000033
H113	H	-0.909179	-0.353588	0.077011
N114	N	-0.917193	-0.493875	0.085806
N115	N	-0.916241	-0.558557	0.085805
H116	H	-0.950851	-0.589376	0.116407
H117	H	-0.939307	-0.133765	0.000008
N118	N	-0.724416	0.188176	-0.341902
N119	N	-0.681380	0.166245	-0.384456
H120	H	-0.647193	0.200400	-0.411954
H121	H	-0.707682	-0.234423	0.000032
H122	H	-0.734272	0.178380	-0.665926
H123	H	-0.837113	-0.022350	-0.569130
N124	N	-0.915929	-0.003309	-0.657975
N125	N	-0.915079	-0.067495	-0.666506
H126	H	-0.949165	-0.101715	-0.638964
N127	N	-0.233880	0.189442	0.085806
N128	N	-0.260432	0.233215	0.123693
H129	H	-0.229624	0.267824	0.154309
N130	N	-0.801425	0.220406	-0.576964
N131	N	-0.793110	0.276904	-0.542913
H132	H	-0.786403	0.322567	-0.570389
N133	N	-0.801412	0.220404	-0.422899
N134	N	-0.793118	0.276905	-0.456925
H135	H	-0.786414	0.322566	-0.429429
H136	H	-0.624764	-0.018138	0.000027
N137	N	-0.453300	0.222646	0.000030
N138	N	-0.478079	0.279636	0.000036
H139	H	-0.445837	0.324927	0.000034
N140	N	-0.487592	-0.033298	0.000025
N141	N	-0.527513	-0.089339	0.000021
H142	H	-0.507509	-0.135397	0.000023
