data_functionalizedCrystal
_audit_creation_method	'MofGen! by Chris Wilmer'
_symmetry_space_group_name_H-M	'P1'
_symmetry_Int_Tables_number	1
_symmetry_cell_setting	triclinic
loop_
_symmetry_equiv_pos_as_xyz
  x,y,z
_cell_length_a	12.827893
_cell_length_b	12.645330
_cell_length_c	12.827885
_cell_angle_alpha	89.968887
_cell_angle_beta	89.980728
_cell_angle_gamma	90.012807
loop_
_atom_site_label
_atom_site_type_symbol
_atom_site_fract_x
_atom_site_fract_y
_atom_site_fract_z
Zn1	Zn	1.597690	-0.421983	-0.590839
Zn2	Zn	2.097690	0.078017	-0.090839
Zn3	Zn	1.597592	-0.599284	-0.416095
Zn4	Zn	2.097592	-0.099284	0.083905
Zn5	Zn	1.422931	-0.422036	-0.416113
Zn6	Zn	1.922931	0.077964	0.083887
Zn7	Zn	1.422925	-0.599206	-0.590795
Zn8	Zn	1.922925	-0.099206	-0.090795
O9	O	1.510284	-0.510627	-0.503461
O10	O	2.010284	-0.010627	-0.003461
O11	O	1.743913	-0.445514	-0.567670
O12	O	2.243913	0.054486	-0.067670
O13	O	1.574385	-0.575826	-0.269861
O14	O	2.074385	-0.075826	0.230139
O15	O	1.446157	-0.273681	-0.439316
O16	O	1.946157	0.226319	0.060684
O17	O	1.743841	-0.575776	-0.439286
O18	O	2.243841	-0.075776	0.060714
O19	O	1.574551	-0.273643	-0.567687
O20	O	2.074551	0.226357	-0.067687
O21	O	1.446062	-0.445603	-0.269874
O22	O	1.946062	0.054397	0.230126
O23	O	1.276694	-0.445527	-0.439274
O24	O	1.776694	0.054473	0.060726
O25	O	1.446146	-0.575642	-0.737037
O26	O	1.946146	-0.075642	-0.237037
O27	O	1.276689	-0.575693	-0.567612
O28	O	1.776689	-0.075693	-0.067612
O29	O	1.574545	-0.445438	-0.737069
O30	O	2.074545	0.054562	-0.237069
O31	O	1.574379	-0.747621	-0.439244
O32	O	2.074379	-0.247621	0.060756
O33	O	1.446051	-0.747563	-0.567595
O34	O	1.946051	-0.247563	-0.067595
C35	C	1.238774	-0.510608	-0.503441
C36	C	1.738774	-0.010608	-0.003441
C37	C	1.122621	-0.510625	-0.503457
C38	C	1.622621	-0.010625	-0.003457
C39	C	1.070872	-0.446281	-0.567084
C40	C	1.570872	0.053719	-0.067084
C41	C	0.950821	-0.446298	-0.567102
C42	C	1.450821	0.053702	-0.067102
C43	C	1.510232	-0.786057	-0.503436
C44	C	2.010232	-0.286057	-0.003436
C45	C	1.510305	-0.903887	-0.503460
C46	C	2.010305	-0.403887	-0.003460
C47	C	1.590906	-1.071443	-0.422551
C48	C	2.090906	-0.571443	0.077449
C49	C	1.591169	-0.948883	-0.422749
C50	C	2.091169	-0.448883	0.077251
C51	C	1.540172	-0.948261	-0.613614
C52	C	2.040172	-0.448261	-0.113614
C53	C	1.540811	-1.070859	-0.613184
C54	C	2.040811	-0.570859	-0.113184
C55	C	1.399806	-1.071217	-0.475302
C56	C	1.899806	-0.571217	0.024698
C57	C	1.400335	-0.948613	-0.472832
C58	C	1.900335	-0.448613	0.027168
C59	C	1.782854	-0.510648	-0.503481
C60	C	2.282854	-0.010648	-0.003481
C61	C	1.899007	-0.510656	-0.503490
C62	C	2.399007	-0.010656	-0.003490
C63	C	1.510355	-0.510525	-0.776031
C64	C	2.010355	-0.010525	-0.276031
C65	C	1.510386	-0.510482	-0.892184
C66	C	2.010386	-0.010482	-0.392184
C67	C	1.510365	-0.234122	-0.503508
C68	C	2.010365	0.265878	-0.003508
C69	C	1.510400	-0.116292	-0.503529
C70	C	2.010400	0.383708	-0.003529
C71	C	1.573929	-0.446040	-0.943985
C72	C	2.073929	0.053960	-0.443985
C73	C	1.573961	-0.445994	-1.064035
C74	C	2.073961	0.054006	-0.564035
C75	C	1.510274	-0.510652	-0.231951
C76	C	2.010274	-0.010652	0.268049
C77	C	1.510446	-0.510397	-0.115798
C78	C	2.010446	-0.010397	0.384202
H79	H	0.943504	-0.565752	-0.449019
H80	H	1.443504	-0.065752	0.050981
C81	C	1.436961	-0.584951	-1.055638
C82	C	1.936961	-0.084951	-0.555638
H83	H	1.397126	-0.625360	-1.103688
H84	H	1.897126	-0.125360	-0.603688
H85	H	1.391464	-0.544389	-1.013053
H86	H	1.891464	-0.044389	-0.513053
H87	H	1.476971	-0.631122	-1.013066
H88	H	1.976971	-0.131122	-0.513066
H89	H	1.078049	-0.565721	-0.448995
H90	H	1.578049	-0.065721	0.051005
C91	C	1.650018	-1.109381	-0.645470
C92	C	2.150018	-0.609381	-0.145470
H93	H	1.693576	-1.050104	-0.658719
H94	H	2.193576	-0.550104	-0.158719
H95	H	1.644714	-1.151173	-0.706752
H96	H	2.144714	-0.651173	-0.206752
H97	H	1.679148	-1.150615	-0.590838
H98	H	2.179148	-0.650615	-0.090838
H99	H	1.456002	-0.565612	-0.936712
H100	H	1.956002	-0.065612	-0.436712
H101	H	1.572454	-1.101002	-0.340634
H102	H	2.072454	-0.601002	0.159366
H103	H	1.115444	-0.391179	-0.621540
H104	H	1.615444	0.108821	-0.121540
C105	C	1.565939	-0.908353	-0.312410
C106	C	2.065939	-0.408353	0.187590
H107	H	1.555440	-0.966817	-0.267059
H108	H	2.055440	-0.466817	0.232941
H109	H	1.504480	-0.866517	-0.314535
H110	H	2.004480	-0.366517	0.185465
H111	H	1.622354	-0.866738	-0.287552
H112	H	2.122354	-0.366738	0.212448
H113	H	1.628302	-0.390900	-0.899456
H114	H	2.128302	0.109100	-0.399456
C115	C	1.700974	-1.112938	-0.447491
C116	C	2.200974	-0.612938	0.052509
H117	H	1.698078	-1.157473	-0.507042
H118	H	2.198078	-0.657473	-0.007042
H119	H	1.726683	-1.151977	-0.389675
H120	H	2.226683	-0.651977	0.110325
H121	H	1.746062	-1.054955	-0.461167
H122	H	2.246062	-0.554955	0.038833
H123	H	1.673082	-0.919473	-0.441418
H124	H	2.173082	-0.419473	0.058582
H125	H	0.906318	-0.391214	-0.621579
H126	H	1.406318	0.108786	-0.121579
C127	C	1.647460	-0.371459	-1.124202
C128	C	2.147460	0.128541	-0.624202
H129	H	1.687309	-0.331066	-1.076153
H130	H	2.187309	0.168934	-0.576153
H131	H	1.607475	-0.325290	-1.166789
H132	H	2.107475	0.174710	-0.666789
H133	H	1.692958	-0.412047	-1.166773
H134	H	2.192958	0.087953	-0.666773
C135	C	1.314924	-0.907263	-0.546665
C136	C	1.814924	-0.407263	-0.046665
H137	H	1.249375	-0.935538	-0.526329
H138	H	1.749375	-0.435538	-0.026329
H139	H	1.330223	-0.928471	-0.616030
H140	H	1.830223	-0.428471	-0.116030
H141	H	1.312473	-0.832263	-0.543175
H142	H	1.812473	-0.332263	-0.043175
H143	H	1.484742	-1.100522	-0.675598
H144	H	1.984742	-0.600522	-0.175598
H145	H	1.483320	-0.919111	-0.675565
H146	H	1.983320	-0.419111	-0.175565
H147	H	1.620097	-0.917471	-0.637922
H148	H	2.120097	-0.417471	-0.137922
H149	H	1.377816	-0.919622	-0.391768
H150	H	1.877816	-0.419622	0.108232
C151	C	1.363117	-1.113102	-0.368678
C152	C	1.863117	-0.613102	0.131322
H153	H	1.414913	-1.158475	-0.340376
H154	H	1.914913	-0.658475	0.159624
H155	H	1.299934	-1.151329	-0.377158
H156	H	1.799934	-0.651329	0.122842
H157	H	1.351898	-1.055335	-0.322709
H158	H	1.851898	-0.555335	0.177291
H159	H	1.339822	-1.100220	-0.534282
H160	H	1.839822	-0.600220	-0.034282
