data_functionalizedCrystal
_audit_creation_method	'MofGen! by Chris Wilmer'
_symmetry_space_group_name_H-M	'P1'
_symmetry_Int_Tables_number	1
_symmetry_cell_setting	triclinic
loop_
_symmetry_equiv_pos_as_xyz
  x,y,z
_cell_length_a	18.215407
_cell_length_b	12.759387
_cell_length_c	18.215405
_cell_angle_alpha	89.967142
_cell_angle_beta	90.019465
_cell_angle_gamma	89.979423
loop_
_atom_site_label
_atom_site_type_symbol
_atom_site_fract_x
_atom_site_fract_y
_atom_site_fract_z
Zn1	Zn	1.125110	-0.593992	-0.292996
Zn2	Zn	1.625110	-0.093992	0.207004
Zn3	Zn	1.125018	-0.418306	-0.416081
Zn4	Zn	1.625018	0.081694	0.083919
Zn5	Zn	1.002036	-0.418329	-0.293027
Zn6	Zn	1.502036	0.081671	0.206973
Zn7	Zn	1.002014	-0.593945	-0.416019
Zn8	Zn	1.502014	-0.093945	0.083981
O9	O	1.063544	-0.506143	-0.354531
O10	O	1.563544	-0.006143	0.145469
O11	O	1.228082	-0.570697	-0.309336
O12	O	1.728082	-0.070697	0.190664
O13	O	1.108674	-0.271288	-0.399796
O14	O	1.608674	0.228712	0.100204
O15	O	1.018409	-0.441660	-0.190039
O16	O	1.518409	0.058340	0.309961
O17	O	1.228014	-0.441621	-0.399766
O18	O	1.728014	0.058379	0.100234
O19	O	1.108831	-0.570719	-0.190016
O20	O	1.608831	-0.070719	0.309984
O21	O	1.018320	-0.271304	-0.309389
O22	O	1.518320	0.228696	0.190611
O23	O	0.899049	-0.441614	-0.309330
O24	O	1.399049	0.058386	0.190670
O25	O	1.018373	-0.740972	-0.399661
O26	O	1.518373	-0.240972	0.100339
O27	O	0.899033	-0.570639	-0.399692
O28	O	1.399033	-0.070639	0.100308
O29	O	1.108811	-0.741007	-0.309276
O30	O	1.608811	-0.241007	0.190724
O31	O	1.108653	-0.441576	-0.519057
O32	O	1.608653	0.058424	-0.019057
O33	O	1.018284	-0.570617	-0.519012
O34	O	1.518284	-0.070617	-0.019012
C35	C	0.872338	-0.506124	-0.354508
C36	C	1.372338	-0.006124	0.145492
C37	C	0.790539	-0.506141	-0.354516
C38	C	1.290539	-0.006141	0.145484
C39	C	0.602380	-0.573457	-0.307526
C40	C	1.102380	-0.073457	0.192474
C41	C	0.525521	-0.573461	-0.307532
C42	C	1.025521	-0.073461	0.192468
C43	C	0.525461	-0.438847	-0.401556
C44	C	1.025461	0.061153	0.098444
C45	C	0.602318	-0.438839	-0.401545
C46	C	1.102318	0.061161	0.098455
C47	C	0.640776	-0.506150	-0.354532
C48	C	1.140776	-0.006150	0.145468
C49	C	0.487060	-0.506162	-0.354548
C50	C	0.987060	-0.006162	0.145452
C51	C	0.403726	-0.506165	-0.354556
C52	C	0.903726	-0.006165	0.145444
C53	C	0.724115	-0.506146	-0.354523
C54	C	1.224115	-0.006146	0.145477
C55	C	1.063600	-0.780176	-0.354459
C56	C	1.563600	-0.280176	0.145541
C57	C	1.063624	-0.896953	-0.354428
C58	C	1.563624	-0.396953	0.145572
C59	C	1.157803	-0.897009	-0.260316
C60	C	1.657803	-0.397009	0.239684
C61	C	1.204903	-0.951898	-0.213249
C62	C	1.704903	-0.451898	0.286751
C63	C	1.204920	-1.061619	-0.213222
C64	C	1.704920	-0.561619	0.286778
C65	C	1.157832	-1.116455	-0.260266
C66	C	1.657832	-0.616455	0.239734
C67	C	1.110732	-1.061566	-0.307333
C68	C	1.610732	-0.561566	0.192667
C69	C	1.110721	-0.951842	-0.307356
C70	C	1.610721	-0.451842	0.192644
C71	C	1.016550	-1.061510	-0.401440
C72	C	1.516550	-0.561510	0.098560
C73	C	1.016535	-0.951789	-0.401471
C74	C	1.516535	-0.451789	0.098529
C75	C	0.969462	-1.116346	-0.448483
C76	C	1.469462	-0.616346	0.051517
C77	C	0.922365	-1.061457	-0.495555
C78	C	1.422365	-0.561457	0.004445
C79	C	0.922349	-0.951729	-0.495581
C80	C	1.422349	-0.451729	0.004419
C81	C	0.969435	-0.896900	-0.448538
C82	C	1.469435	-0.396900	0.051462
C83	C	1.255497	-0.506162	-0.354554
C84	C	1.755497	-0.006162	0.145446
C85	C	1.337296	-0.506170	-0.354564
C86	C	1.837296	-0.006170	0.145436
C87	C	1.063476	-0.506112	-0.545737
C88	C	1.563476	-0.006112	-0.045737
C89	C	1.063514	-0.506134	-0.627536
C90	C	1.563514	-0.006134	-0.127536
C91	C	1.063531	-0.233175	-0.354549
C92	C	1.563531	0.266825	0.145451
C93	C	1.063650	-0.116399	-0.354373
C94	C	1.563650	0.383601	0.145627
C95	C	1.110641	-0.573437	-0.892524
C96	C	1.610641	-0.073437	-0.392524
C97	C	1.110616	-0.573421	-0.815665
C98	C	1.610616	-0.073421	-0.315665
C99	C	1.016542	-0.438909	-0.815796
C100	C	1.516542	0.061091	-0.315796
C101	C	1.016571	-0.438921	-0.892654
C102	C	1.516571	0.061079	-0.392654
C103	C	1.063619	-0.506191	-0.931015
C104	C	1.563619	-0.006191	-0.431015
C105	C	1.063566	-0.506163	-0.777299
C106	C	1.563566	-0.006163	-0.277299
C107	C	1.063539	-0.506145	-0.693966
C108	C	1.563539	-0.006145	-0.193966
C109	C	1.063648	-0.506207	-1.014354
C110	C	1.563648	-0.006207	-0.514354
C111	C	1.063633	-0.506197	-0.162578
C112	C	1.563633	-0.006197	0.337422
C113	C	1.063671	-0.506220	-0.080779
C114	C	1.563671	-0.006220	0.419221
H115	H	0.633581	-0.384023	-0.439824
H116	H	1.133581	0.115977	0.060176
H117	H	0.494140	-0.384045	-0.439834
H118	H	0.994140	0.115955	0.060166
C119	C	1.161646	-0.646423	-0.934307
C120	C	1.661646	-0.146423	-0.434307
C121	C	1.151596	-0.632064	-1.009855
C122	C	1.651596	-0.132064	-0.509855
C123	C	1.198565	-0.699289	-1.048366
C124	C	1.698565	-0.199289	-0.548366
H125	H	1.211124	-0.631176	-0.921772
H126	H	1.711124	-0.131176	-0.421772
H127	H	1.150836	-0.717020	-0.921727
H128	H	1.650836	-0.217020	-0.421727
H129	H	1.162411	-0.561482	-1.022430
H130	H	1.662411	-0.061482	-0.522430
H131	H	1.102128	-0.647318	-1.022412
H132	H	1.602128	-0.147318	-0.522412
H133	H	1.187755	-0.769886	-1.035786
H134	H	1.687755	-0.269886	-0.535786
H135	H	1.248040	-0.684036	-1.035825
H136	H	1.748040	-0.184036	-0.535825
H137	H	1.191747	-0.689562	-1.099629
H138	H	1.691747	-0.189562	-0.599629
C139	C	0.969341	-1.235473	-0.448383
C140	C	1.469341	-0.735473	0.051617
C141	C	0.899297	-1.271770	-0.429566
C142	C	1.399297	-0.771770	0.070434
C143	C	0.899160	-1.381503	-0.429460
C144	C	1.399160	-0.881503	0.070540
H145	H	0.981995	-1.260407	-0.495848
H146	H	1.481995	-0.760407	0.004152
H147	H	1.004101	-1.260356	-0.413595
H148	H	1.504101	-0.760356	0.086405
H149	H	0.864547	-1.246898	-0.464352
H150	H	1.364547	-0.746898	0.035648
H151	H	0.886628	-1.246864	-0.382100
H152	H	1.386628	-0.746864	0.117900
H153	H	0.933921	-1.406386	-0.394673
H154	H	1.433921	-0.906386	0.105327
H155	H	0.911817	-1.406427	-0.476927
H156	H	1.411817	-0.906427	0.023073
H157	H	0.851639	-1.406145	-0.416687
H158	H	1.351639	-0.906145	0.083313
H159	H	1.157800	-0.807668	-0.260340
H160	H	1.657800	-0.307668	0.239660
H161	H	0.978235	-0.384141	-0.784555
H162	H	1.478235	0.115859	-0.284555
H163	H	0.884025	-1.106113	-0.533850
H164	H	1.384025	-0.606113	-0.033850
H165	H	1.148907	-0.628178	-0.784327
H166	H	1.648907	-0.128178	-0.284327
H167	H	0.883987	-0.907045	-0.533900
H168	H	1.383987	-0.407045	-0.033900
C169	C	0.483966	-0.646657	-0.256471
C170	C	0.983966	-0.146657	0.243529
C171	C	0.534099	-0.705617	-0.215312
C172	C	1.034099	-0.205617	0.284688
C173	C	0.495847	-0.773067	-0.168272
C174	C	0.995847	-0.273067	0.331728
H175	H	0.453978	-0.606668	-0.224310
H176	H	0.953978	-0.106668	0.275690
H177	H	0.454007	-0.692422	-0.284648
H178	H	0.954007	-0.192422	0.215352
H179	H	0.564046	-0.659857	-0.187138
H180	H	1.064046	-0.159857	0.312862
H181	H	0.564089	-0.745627	-0.247454
H182	H	1.064089	-0.245627	0.252546
H183	H	0.465887	-0.818833	-0.196448
H184	H	0.965887	-0.318833	0.303552
H185	H	0.465859	-0.733070	-0.136116
H186	H	0.965859	-0.233070	0.363884
H187	H	0.529856	-0.813086	-0.140345
H188	H	1.029856	-0.313086	0.359655
C189	C	0.644267	-0.646488	-0.256559
C190	C	1.144267	-0.146488	0.243441
C191	C	0.719794	-0.632099	-0.266622
C192	C	1.219794	-0.132099	0.233378
C193	C	0.758401	-0.699365	-0.219688
C194	C	1.258401	-0.199365	0.280312
H195	H	0.631765	-0.631298	-0.207072
H196	H	1.131765	-0.131298	0.292928
H197	H	0.631731	-0.717076	-0.267393
H198	H	1.131731	-0.217076	0.232607
H199	H	0.732324	-0.561526	-0.255783
H200	H	1.232324	-0.061526	0.244217
H201	H	0.732318	-0.647296	-0.316099
H202	H	1.232318	-0.147296	0.183901
H203	H	0.745865	-0.769954	-0.230522
H204	H	1.245865	-0.269954	0.269478
H205	H	0.745893	-0.684170	-0.170204
H206	H	1.245893	-0.184170	0.329796
H207	H	0.809650	-0.689618	-0.226514
H208	H	1.309650	-0.189618	0.273486
H209	H	0.978279	-0.384155	-0.923994
H210	H	1.478279	0.115845	-0.423994
H211	H	1.243240	-0.907238	-0.174946
H212	H	1.743240	-0.407238	0.325054
C213	C	1.256136	-1.121030	-0.162094
C214	C	1.756136	-0.621030	0.337906
C215	C	1.297382	-1.049531	-0.120911
C216	C	1.797382	-0.549531	0.379089
C217	C	1.344575	-1.104221	-0.073811
C218	C	1.844575	-0.604221	0.426189
H219	H	1.228089	-1.163843	-0.129950
H220	H	1.728089	-0.663843	0.370050
H221	H	1.288231	-1.163806	-0.190228
H222	H	1.788231	-0.663806	0.309772
H223	H	1.265291	-1.006772	-0.092778
H224	H	1.765291	-0.506772	0.407222
H225	H	1.325444	-1.006715	-0.153036
H226	H	1.825444	-0.506715	0.346964
H227	H	1.376670	-1.146997	-0.101946
H228	H	1.876670	-0.646997	0.398054
H229	H	1.316522	-1.147032	-0.041672
H230	H	1.816522	-0.647032	0.458328
H231	H	1.372571	-1.055717	-0.045869
H232	H	1.872571	-0.555717	0.454131
H233	H	1.157844	-1.205796	-0.260234
H234	H	1.657844	-0.705796	0.239766
H235	H	0.969430	-0.807559	-0.448558
H236	H	1.469430	-0.307559	0.051442
