data_functionalizedCrystal
_audit_creation_method	'MofGen! by Chris Wilmer'
_symmetry_space_group_name_H-M	'P1'
_symmetry_Int_Tables_number	1
_symmetry_cell_setting	triclinic
loop_
_symmetry_equiv_pos_as_xyz
  x,y,z
_cell_length_a	10.685980
_cell_length_b	10.686285
_cell_length_c	12.759393
_cell_angle_alpha	94.398003
_cell_angle_beta	94.395466
_cell_angle_gamma	89.665709
loop_
_atom_site_label
_atom_site_type_symbol
_atom_site_fract_x
_atom_site_fract_y
_atom_site_fract_z
Zn1	Zn	1.956334	-0.352362	0.696632
Zn2	Zn	1.972332	-0.562180	0.508600
Zn3	Zn	1.746546	-0.368504	0.506526
Zn4	Zn	1.762643	-0.578151	0.669814
O5	O	1.859464	-0.465299	0.595393
O6	O	2.134009	-0.366756	0.683781
O7	O	1.942339	-0.536560	0.361297
O8	O	1.760943	-0.190815	0.542100
O9	O	2.145762	-0.520908	0.545635
O10	O	1.915073	-0.178956	0.681770
O11	O	1.776455	-0.394267	0.359773
O12	O	1.573129	-0.409753	0.516095
O13	O	1.788379	-0.548128	0.820400
O14	O	1.584956	-0.563780	0.636062
O15	O	1.930683	-0.382242	0.840103
O16	O	1.957948	-0.739846	0.519630
O17	O	1.803891	-0.751580	0.638073
C18	C	1.533523	-0.490252	0.572944
C19	C	1.394087	-0.500957	0.563363
C20	C	1.884436	-0.791228	0.576192
C21	C	1.895234	-0.930653	0.568020
C22	C	2.186677	-0.440250	0.617931
C23	C	2.326116	-0.429576	0.627535
C24	C	1.859542	-0.465166	0.869440
C25	C	1.859575	-0.465109	0.986223
C26	C	1.834428	-0.138095	0.614695
C27	C	1.823759	0.001339	0.622920
C28	C	1.859451	-0.465336	0.322423
C29	C	1.859634	-0.465021	0.205678
C30	C	1.933683	-0.378724	1.051347
C31	C	1.933710	-0.378676	1.161076
C32	C	1.785517	-0.551410	1.140545
C33	C	1.785485	-0.551451	1.030818
C34	C	2.019245	-0.279001	1.063201
C35	C	2.019272	-0.278953	1.172930
H36	H	1.374595	-0.360266	0.689804
C37	C	1.989060	-0.996097	0.496061
N38	N	2.059728	-1.045390	0.441863
H39	H	1.345601	-0.570263	0.501083
C40	C	1.729936	-0.933222	0.694873
N41	N	1.659269	-0.883925	0.749071
H42	H	1.725192	-0.621704	1.176869
C43	C	1.974035	-0.150454	1.028300
N44	N	1.939979	-0.053636	1.002013
C45	C	2.147518	-0.316463	1.023030
N46	N	2.244137	-0.344672	0.992774
C47	C	1.703940	-0.646464	0.959184
N48	N	1.642514	-0.718029	0.905229
C49	C	1.962783	-0.157826	1.223042
N50	N	1.920249	-0.066588	1.260788
H51	H	2.118432	-0.297528	1.207866
