data_functionalizedCrystal
_audit_creation_method	'MofGen! by Chris Wilmer'
_symmetry_space_group_name_H-M	'P1'
_symmetry_Int_Tables_number	1
_symmetry_cell_setting	triclinic
loop_
_symmetry_equiv_pos_as_xyz
  x,y,z
_cell_length_a	23.532407
_cell_length_b	22.610064
_cell_length_c	23.532407
_cell_angle_alpha	89.999397
_cell_angle_beta	97.151322
_cell_angle_gamma	90.002839
loop_
_atom_site_label
_atom_site_type_symbol
_atom_site_fract_x
_atom_site_fract_y
_atom_site_fract_z
O1	O	0.755263	0.049117	-0.069127
O2	O	0.589400	0.049135	-0.079130
O3	O	0.677333	0.049114	0.008803
O4	O	0.667330	0.049137	-0.157060
O5	O	0.677318	-0.049255	0.008790
O6	O	0.589385	-0.049234	-0.079143
O7	O	0.755248	-0.049252	-0.069140
Zn8	Zn	0.672314	-0.064862	-0.074144
Zn9	Zn	0.672334	0.064744	-0.074127
O10	O	0.667315	-0.049232	-0.157073
C11	C	0.568176	-0.000048	-0.078882
C12	C	0.504959	-0.000041	-0.078116
C13	C	0.105856	-0.000061	-0.125350
C14	C	0.046456	-0.000065	-0.124638
O15	O	0.009711	-0.000081	-0.168424
N16	N	0.023830	-0.000071	-0.072362
C17	C	0.060607	-0.000080	-0.020794
O18	O	0.035908	-0.000086	0.023737
C19	C	0.120006	-0.000080	-0.021506
C20	C	0.142629	-0.000068	-0.073785
C21	C	0.128479	-0.000050	-0.177625
C22	C	0.187876	-0.000045	-0.178336
C23	C	0.224649	-0.000052	-0.126772
C24	C	0.202025	-0.000063	-0.074497
C25	C	0.156783	-0.000093	0.030062
C26	C	0.216185	-0.000094	0.029345
C27	C	0.238808	-0.000082	-0.022934
C28	C	0.298194	-0.000065	-0.023643
N29	N	0.320820	-0.000059	-0.075920
C30	C	0.284048	-0.000052	-0.127484
C31	C	-0.064135	-0.000080	-0.019302
C32	C	-0.123533	-0.000075	-0.018589
C33	C	-0.137680	-0.000061	-0.122434
C34	C	-0.078281	-0.000062	-0.123146
C35	C	-0.041509	-0.000074	-0.071578
C36	C	0.408784	-0.000042	-0.128974
C37	C	0.468186	-0.000034	-0.129680
C38	C	0.482329	-0.000051	-0.025836
C39	C	0.422932	-0.000055	-0.025129
C40	C	0.386160	-0.000052	-0.076702
O41	O	0.334974	-0.000052	0.020119
O42	O	0.308755	-0.000054	-0.172007
N43	N	0.672304	-0.153314	-0.074155
C44	C	0.711273	-0.561965	-0.035196
C45	C	0.711276	-0.623884	-0.035192
O46	O	0.744384	-0.655911	-0.002076
N47	N	0.672334	-0.654851	-0.074115
C48	C	0.633383	-0.623895	-0.113041
O49	O	0.600259	-0.655920	-0.146147
C50	C	0.633377	-0.561976	-0.113042
C51	C	0.672326	-0.531013	-0.074120
C52	C	0.750218	-0.531001	0.003724
C53	C	0.750215	-0.469085	0.003719
C54	C	0.711268	-0.438133	-0.035206
C55	C	0.672323	-0.469097	-0.074125
C56	C	0.594424	-0.531021	-0.151965
C57	C	0.594422	-0.469098	-0.151962
C58	C	0.633370	-0.438134	-0.113040
C59	C	0.633374	-0.376229	-0.113054
N60	N	0.672316	-0.345262	-0.074131
C61	C	0.711263	-0.376214	-0.035207
C62	C	0.633396	-0.753928	-0.113035
C63	C	0.633403	-0.815846	-0.113037
C64	C	0.711296	-0.815831	-0.035187
C65	C	0.711291	-0.753913	-0.035188
C66	C	0.672338	-0.722962	-0.074112
C67	C	0.711255	-0.246187	-0.035220
C68	C	0.711251	-0.184266	-0.035230
C69	C	0.633357	-0.184286	-0.113078
C70	C	0.633363	-0.246202	-0.113071
C71	C	0.672314	-0.277151	-0.074137
O72	O	0.600281	-0.344163	-0.146152
O73	O	0.744376	-0.344182	-0.002101
C74	C	0.776472	-0.000069	-0.069388
C75	C	0.839689	-0.000071	-0.070154
C76	C	0.677071	-0.000072	0.030013
C77	C	0.676305	-0.000076	0.093230
N78	N	0.672349	0.153196	-0.074111
C79	C	0.667577	-0.000045	-0.178283
C80	C	0.668343	-0.000036	-0.241500
C81	C	0.723539	-0.000049	0.492333
C82	C	0.722827	-0.000044	0.551733
O83	O	0.766613	-0.000027	0.588478
N84	N	0.670551	-0.000039	0.574359
C85	C	0.618983	-0.000032	0.537582
O86	O	0.574452	-0.000027	0.562281
C87	C	0.619695	-0.000033	0.478182
C88	C	0.671974	-0.000044	0.455560
C89	C	0.775814	-0.000060	0.469710
C90	C	0.776525	-0.000065	0.410313
C91	C	0.724961	-0.000060	0.373540
C92	C	0.672685	-0.000050	0.396164
C93	C	0.568127	-0.000022	0.441406
C94	C	0.568844	-0.000021	0.382004
C95	C	0.621123	-0.000033	0.359381
C96	C	0.621832	-0.000050	0.299995
N97	N	0.674109	-0.000056	0.277368
C98	C	0.725673	-0.000061	0.314141
C99	C	0.617491	-0.000031	0.662324
C100	C	0.616778	-0.000034	0.721722
C101	C	0.720623	-0.000045	0.735869
C102	C	0.721335	-0.000046	0.676470
C103	C	0.669767	-0.000036	0.639698
C104	C	0.727163	-0.000073	0.189405
C105	C	0.727869	-0.000081	0.130003
C106	C	0.624025	-0.000067	0.115860
C107	C	0.623318	-0.000062	0.175257
C108	C	0.674891	-0.000063	0.212029
O109	O	0.578070	-0.000065	0.263215
O110	O	0.770196	-0.000058	0.289433
H111	H	0.098544	-0.000046	-0.219617
C112	C	0.591044	-0.720295	-0.155215
C113	C	0.556337	-0.684761	-0.125064
C114	C	0.517312	-0.653780	-0.163900
H115	H	0.611326	-0.696091	-0.178836
H116	H	0.567823	-0.747591	-0.178387
H117	H	0.579555	-0.657469	-0.101901
H118	H	0.536042	-0.708950	-0.101445
H119	H	0.494091	-0.681075	-0.187072
H120	H	0.537600	-0.629579	-0.187519
H121	H	0.493756	-0.629671	-0.143448
H122	H	-0.141947	-0.000076	0.023982
H123	H	-0.034198	-0.000084	0.022693
H124	H	0.404512	-0.000056	0.017441
H125	H	0.781933	-0.556197	0.035423
C126	C	0.776653	0.000048	0.775734
C127	C	0.808163	0.050646	0.765543
C128	C	0.859781	0.050748	0.802250
H129	H	0.768820	0.000082	0.814369
H130	H	0.798133	-0.034240	0.768903
H131	H	0.786688	0.084925	0.772378
H132	H	0.816012	0.050622	0.726916
H133	H	0.881261	0.016460	0.795420
H134	H	0.851942	0.050781	0.840883
H135	H	0.881169	0.085075	0.795337
C136	C	0.256204	-0.000134	0.085275
C137	C	0.313067	-0.000143	0.073469
C138	C	0.349945	-0.000185	0.124976
H139	H	0.249449	0.034156	0.106772
H140	H	0.249407	-0.034456	0.106723
H141	H	0.319860	0.034176	0.052030
H142	H	0.319840	-0.034430	0.051980
H143	H	0.343149	-0.034507	0.146423
H144	H	0.343186	0.034105	0.146469
H145	H	0.388531	-0.000197	0.116972
H146	H	0.580748	-0.000069	0.193677
C147	C	0.591053	-0.279902	-0.155239
C148	C	0.556376	-0.315457	-0.125070
C149	C	0.517396	-0.346512	-0.163892
H150	H	0.567802	-0.252668	-0.178440
H151	H	0.611388	-0.304094	-0.178832
H152	H	0.536043	-0.291267	-0.101487
H153	H	0.579612	-0.342702	-0.101870
H154	H	0.537730	-0.370704	-0.187484
H155	H	0.494149	-0.319274	-0.187091
H156	H	0.493866	-0.370644	-0.143428
C157	C	0.753575	-0.279857	0.006958
C158	C	0.788259	-0.315413	-0.023198
C159	C	0.827247	-0.346443	0.015635
H160	H	0.776821	-0.252608	0.030149
H161	H	0.733246	-0.304046	0.030561
H162	H	0.808586	-0.291226	-0.046791
H163	H	0.765029	-0.342673	-0.046386
H164	H	0.806918	-0.370632	0.039238
H165	H	0.850489	-0.319189	0.038824
H166	H	0.850781	-0.370575	-0.004820
C167	C	0.783217	-0.000107	0.229227
C168	C	0.829144	-0.000134	0.196691
C169	C	0.880790	-0.000177	0.233355
H170	H	0.785192	0.034188	0.252706
H171	H	0.785126	-0.034424	0.252686
H172	H	0.827237	0.034179	0.173242
H173	H	0.827189	-0.034426	0.173214
H174	H	0.882698	-0.034494	0.256814
H175	H	0.882758	0.034118	0.256832
H176	H	0.911957	-0.000201	0.211285
H177	H	0.770443	-0.000092	0.111587
C178	C	0.552224	-0.564661	-0.194285
C179	C	0.582350	-0.600197	-0.229012
C180	C	0.543491	-0.631188	-0.268010
H181	H	0.528621	-0.588863	-0.173981
H182	H	0.529036	-0.537371	-0.217494
H183	H	0.605528	-0.627484	-0.205806
H184	H	0.605950	-0.576009	-0.249329
H185	H	0.520303	-0.603898	-0.291219
H186	H	0.519890	-0.655387	-0.247701
H187	H	0.563925	-0.655299	-0.291580
C188	C	0.559958	0.000001	0.746169
C189	C	0.514957	0.000019	0.701244
C190	C	0.462605	0.000063	0.723740
H191	H	0.557432	-0.034290	0.769040
H192	H	0.557494	0.034321	0.769027
H193	H	0.517420	-0.034298	0.678396
H194	H	0.517464	0.034308	0.678370
H195	H	0.460141	0.034383	0.746598
H196	H	0.460085	-0.034229	0.746611
H197	H	0.432065	0.000081	0.693263
C198	C	0.132343	-0.000143	0.086883
C199	C	0.177271	-0.000170	0.131881
C200	C	0.154780	-0.000226	0.184236
H201	H	0.109475	0.034148	0.089417
H202	H	0.109483	-0.034464	0.089344
H203	H	0.200121	0.034147	0.129421
H204	H	0.200142	-0.034458	0.129366
H205	H	0.131921	-0.034547	0.186697
H206	H	0.131912	0.034065	0.186763
H207	H	0.185260	-0.000250	0.214773
C208	C	0.512792	-0.000041	0.342174
C209	C	0.466861	-0.000045	0.374706
C210	C	0.415219	-0.000072	0.338036
H211	H	0.510836	0.034252	0.318694
H212	H	0.510870	-0.034360	0.318718
H213	H	0.468782	0.034270	0.398152
H214	H	0.468798	-0.034336	0.398185
H215	H	0.413297	-0.034391	0.314580
H216	H	0.413269	0.034221	0.314557
H217	H	0.384049	-0.000080	0.360103
H218	H	0.601648	-0.159075	-0.144772
H219	H	0.819097	-0.000072	0.391900
H220	H	0.525555	-0.000009	0.459814
C221	C	0.368962	-0.000003	-0.185028
C222	C	0.401498	0.000025	-0.230955
C223	C	0.364834	0.000073	-0.282601
H224	H	0.345480	-0.034297	-0.187003
H225	H	0.345506	0.034314	-0.186936
H226	H	0.424944	-0.034289	-0.229048
H227	H	0.424978	0.034316	-0.229000
H228	H	0.341378	0.034391	-0.284509
H229	H	0.341354	-0.034221	-0.284569
H230	H	0.386904	0.000098	-0.313768
C231	C	0.212321	-0.000070	-0.235157
C232	C	0.167395	-0.000083	-0.280156
C233	C	0.189887	-0.000117	-0.332510
H234	H	0.235192	0.034223	-0.237678
H235	H	0.235179	-0.034388	-0.237629
H236	H	0.144547	0.034231	-0.277685
H237	H	0.144520	-0.034374	-0.277654
H238	H	0.212744	-0.034435	-0.334982
H239	H	0.212757	0.034177	-0.335025
H240	H	0.159408	-0.000132	-0.363048
C241	C	0.522234	0.000063	0.030163
C242	C	0.512073	0.050672	0.061667
C243	C	0.548830	0.050798	0.113253
H244	H	0.515443	-0.034205	0.051676
H245	H	0.560857	0.000098	0.022270
H246	H	0.473459	0.050632	0.069562
H247	H	0.518868	0.084949	0.040172
H248	H	0.587453	0.050832	0.105359
H249	H	0.542035	0.016527	0.134761
H250	H	0.541944	0.085137	0.134632
H251	H	0.781929	-0.443878	0.035414
H252	H	0.742969	-0.159057	-0.003535
C253	C	0.591029	-0.849428	-0.155235
C254	C	0.535121	-0.834378	-0.146272
C255	C	0.496067	-0.865306	-0.185127
H256	H	0.596919	-0.839306	-0.193240
H257	H	0.596565	-0.890745	-0.149660
H258	H	0.529587	-0.793071	-0.151852
H259	H	0.529212	-0.844502	-0.108275
H260	H	0.501604	-0.906622	-0.179552
H261	H	0.501963	-0.855180	-0.223129
H262	H	0.458129	-0.855102	-0.179048
H263	H	0.743005	-0.728706	-0.003494
C264	C	0.778080	-0.000174	0.651880
C265	C	0.781526	-0.050788	0.618202
C266	C	0.833796	-0.050928	0.595551
H267	H	0.780580	0.034091	0.628966
H268	H	0.808701	-0.000209	0.682277
H269	H	0.750913	-0.050747	0.587809
H270	H	0.779036	-0.085061	0.641104
H271	H	0.864417	-0.050964	0.625948
H272	H	0.836292	-0.016662	0.572640
H273	H	0.836144	-0.085272	0.572703
C274	C	0.753488	-0.849475	0.007144
C275	C	0.723347	-0.885012	0.041861
C276	C	0.762192	-0.916007	0.080865
H277	H	0.777093	-0.873677	-0.013154
H278	H	0.776675	-0.822187	0.030360
H279	H	0.700170	-0.912296	0.018647
H280	H	0.699744	-0.860824	0.062172
H281	H	0.785379	-0.888720	0.104081
H282	H	0.785796	-0.940206	0.060562
H283	H	0.741747	-0.940119	0.104428
H284	H	0.562700	-0.443901	-0.183658
C285	C	0.831865	-0.000098	0.509534
C286	C	0.877790	-0.000122	0.476996
C287	C	0.929437	-0.000171	0.513658
H288	H	0.833842	0.034194	0.533016
H289	H	0.833773	-0.034417	0.532990
H290	H	0.875883	0.034194	0.453550
H291	H	0.875833	-0.034412	0.453515
H292	H	0.931345	-0.034490	0.537113
H293	H	0.931408	0.034122	0.537138
H294	H	0.960603	-0.000193	0.491586
C295	C	0.561542	-0.000121	0.622335
C296	C	0.558912	-0.050723	0.587811
C297	C	0.507385	-0.050821	0.550964
H298	H	0.530262	-0.000149	0.644249
H299	H	0.559657	0.034164	0.598834
H300	H	0.560791	-0.084999	0.611308
H301	H	0.590180	-0.050706	0.565884
H302	H	0.505500	-0.016536	0.527464
H303	H	0.476109	-0.050847	0.572883
H304	H	0.505597	-0.085151	0.527532
H305	H	0.486602	-0.000024	-0.172255
H306	H	-0.059867	-0.000055	-0.165717
H307	H	0.582043	-0.000065	0.085909
H308	H	-0.167632	-0.000059	-0.164421
