data_functionalizedCrystal
_audit_creation_method	'MofGen! by Chris Wilmer'
_symmetry_space_group_name_H-M	'P1'
_symmetry_Int_Tables_number	1
_symmetry_cell_setting	triclinic
loop_
_symmetry_equiv_pos_as_xyz
  x,y,z
_cell_length_a	17.699097
_cell_length_b	16.176319
_cell_length_c	17.699083
_cell_angle_alpha	89.992304
_cell_angle_beta	83.285707
_cell_angle_gamma	89.988305
loop_
_atom_site_label
_atom_site_type_symbol
_atom_site_fract_x
_atom_site_fract_y
_atom_site_fract_z
O1	O	-1.004072	0.068830	-0.095761
O2	O	-0.504072	0.568830	0.404239
O3	O	-0.783695	0.068814	-0.108203
O4	O	-0.283695	0.568814	0.391797
O5	O	-0.900110	0.068815	0.008207
O6	O	-0.400110	0.568815	0.508207
O7	O	-0.887658	0.068829	-0.212171
O8	O	-0.387658	0.568829	0.287829
O9	O	-0.900094	-0.068678	0.008215
O10	O	-0.400094	0.431322	0.508215
O11	O	-0.783679	-0.068679	-0.108195
O12	O	-0.283679	0.431321	0.391805
O13	O	-1.004057	-0.068663	-0.095753
O14	O	-0.504057	0.431337	0.404247
Cu15	Cu	-0.893867	-0.081226	-0.101974
Cu16	Cu	-0.393867	0.418774	0.398026
Cu17	Cu	-0.893885	0.081376	-0.101982
Cu18	Cu	-0.393885	0.581376	0.398018
O19	O	-0.887642	-0.068664	-0.212163
O20	O	-0.387642	0.431336	0.287837
C21	C	-0.755491	0.000065	-0.107751
C22	C	-0.255491	0.500065	0.392249
C23	C	-0.671473	0.000059	-0.106409
C24	C	-0.171473	0.500059	0.393591
C25	C	-0.155764	0.075032	-0.098184
C26	C	0.344236	0.575032	0.401816
C27	C	-0.234708	0.075029	-0.099440
C28	C	0.265292	0.575029	0.400560
C29	C	-0.274165	0.000079	-0.100065
C30	C	0.225835	0.500079	0.399935
C31	C	-0.234675	-0.074873	-0.099427
C32	C	0.265325	0.425127	0.400573
C33	C	-0.155733	-0.074869	-0.098165
C34	C	0.344267	0.425131	0.401835
C35	C	-0.553039	-0.074890	-0.104514
C36	C	-0.053039	0.425110	0.395486
C37	C	-0.631986	-0.074889	-0.105778
C38	C	-0.131986	0.425111	0.394222
C39	C	-0.632014	0.075008	-0.105789
C40	C	-0.132014	0.575008	0.394211
C41	C	-0.553072	0.075012	-0.104527
C42	C	-0.053072	0.575012	0.395473
C43	C	-0.513589	0.000060	-0.103885
C44	C	-0.013589	0.500060	0.396115
C45	C	-0.427989	0.000065	-0.102521
C46	C	0.072011	0.500065	0.397479
C47	C	-0.359763	0.000074	-0.101434
C48	C	0.140237	0.500074	0.398566
N49	N	-0.893859	-0.195591	-0.101967
N50	N	-0.393859	0.304409	0.398033
C51	C	-0.945423	-0.238854	-0.050442
C52	C	-0.445423	0.261146	0.449558
C53	C	-0.945427	-0.325402	-0.050441
C54	C	-0.445427	0.174598	0.449559
C55	C	-0.893869	-0.368683	-0.101970
C56	C	-0.393869	0.131317	0.398030
C57	C	-0.842300	-0.325414	-0.153497
C58	C	-0.342300	0.174586	0.346503
C59	C	-0.842293	-0.238868	-0.153494
C60	C	-0.342293	0.261132	0.346506
C61	C	-0.842326	-0.674442	-0.153512
C62	C	-0.342326	-0.174442	0.346488
C63	C	-0.842338	-0.760993	-0.153512
C64	C	-0.342338	-0.260993	0.346488
C65	C	-0.945459	-0.760975	-0.050458
C66	C	-0.445459	-0.260975	0.449542
C67	C	-0.945452	-0.674430	-0.050455
C68	C	-0.445452	-0.174430	0.449545
C69	C	-0.893881	-0.631168	-0.101980
C70	C	-0.393881	-0.131168	0.398020
C71	C	-0.893876	-0.537323	-0.101979
C72	C	-0.393876	-0.037323	0.398021
C73	C	-0.893877	-0.462526	-0.101974
C74	C	-0.393877	0.037474	0.398026
C75	C	-0.032261	0.000084	-0.096205
C76	C	0.467739	0.500084	0.403795
C77	C	-0.116279	0.000086	-0.097547
C78	C	0.383721	0.500086	0.402453
C79	C	-0.899656	0.000068	0.036408
C80	C	-0.399656	0.500068	0.536408
C81	C	-0.898317	0.000068	0.120426
C82	C	-0.398317	0.500068	0.620426
N83	N	-0.893899	0.195741	-0.101983
N84	N	-0.393899	0.695741	0.398017
C85	C	-0.888096	0.000084	-0.240364
C86	C	-0.388096	0.500084	0.259636
C87	C	-0.889435	0.000090	-0.324382
C88	C	-0.389435	0.500090	0.175618
C89	C	-0.966650	0.000072	0.169044
C90	C	-0.466650	0.500072	0.669044
C91	C	-0.965388	0.000079	0.247987
C92	C	-0.465388	0.500079	0.747987
C93	C	-0.895792	0.000076	0.278311
C94	C	-0.395792	0.500076	0.778311
C95	C	-0.827454	0.000075	0.229687
C96	C	-0.327454	0.500075	0.729687
C97	C	-0.828717	0.000074	0.150746
C98	C	-0.328717	0.500074	0.650746
C99	C	-0.822359	0.000081	0.548051
C100	C	-0.322359	0.500081	1.048051
C101	C	-0.821101	0.000080	0.626999
C102	C	-0.321101	0.500080	1.126999
C103	C	-0.959030	0.000087	0.645292
C104	C	-0.459030	0.500087	1.145292
C105	C	-0.960293	0.000085	0.566350
C106	C	-0.460293	0.500085	1.066350
C107	C	-0.891955	0.000088	0.517734
C108	C	-0.391955	0.500088	1.017734
C109	C	-0.893325	0.000082	0.432134
C110	C	-0.393325	0.500082	0.932134
C111	C	-0.894422	0.000077	0.363909
C112	C	-0.394422	0.500077	0.863909
H113	H	-0.266808	-0.135899	-0.099931
H114	H	0.233192	0.364101	0.400069
H115	H	-0.987409	-0.203620	-0.008484
H116	H	-0.487409	0.296380	0.491516
C117	C	-1.048090	-0.070607	0.090898
C118	C	-0.548090	0.429393	0.590898
C119	C	-1.043155	0.000074	0.135718
C120	C	-0.543155	0.500074	0.635718
H121	H	-1.095325	-0.070604	0.070331
H122	H	-0.595325	0.429396	0.570331
H123	H	-1.007582	-0.070606	0.050646
H124	H	-0.507582	0.429394	0.550646
H125	H	-1.044724	-0.118548	0.121328
H126	H	-0.544724	0.381452	0.621328
H127	H	-1.046516	0.048015	0.105287
H128	H	-0.546516	0.548015	0.605287
H129	H	-1.083675	0.000080	0.175976
H130	H	-0.583675	0.500080	0.675976
H131	H	-1.021032	0.000080	0.287569
H132	H	-0.521032	0.500080	0.787569
H133	H	-0.664110	-0.135926	-0.106287
H134	H	-0.164110	0.364074	0.393713
C135	C	-1.096508	0.000102	0.592365
C136	C	-0.596508	0.500102	1.092365
C137	C	-1.036795	0.000092	0.533019
C138	C	-0.536795	0.500092	1.033019
H139	H	-1.143737	0.000114	0.571787
H140	H	-0.643737	0.500114	1.071787
H141	H	-1.093145	-0.047843	0.622778
H142	H	-0.593145	0.452157	1.122778
H143	H	-1.093145	0.048051	0.622771
H144	H	-0.593145	0.548051	1.122771
H145	H	-1.040155	-0.047861	0.502617
H146	H	-0.540155	0.452139	1.002617
H147	H	-1.040160	0.048042	0.502594
H148	H	-0.540160	0.548042	1.002594
H149	H	-0.800336	-0.639225	-0.195466
H150	H	-0.300336	-0.139225	0.304534
C151	C	-1.018351	0.000105	0.774430
C152	C	-0.518351	0.500105	1.274430
C153	C	-1.034151	0.000096	0.698735
C154	C	-0.534151	0.500096	1.198735
H155	H	-1.064727	0.000114	0.807420
H156	H	-0.564727	0.500114	1.307420
H157	H	-0.989807	-0.047840	0.783614
H158	H	-0.489807	0.452160	1.283614
H159	H	-0.989814	0.048054	0.783593
H160	H	-0.489814	0.548054	1.283593
H161	H	-1.062683	-0.047857	0.689570
H162	H	-0.562683	0.452143	1.189570
H163	H	-1.062707	0.048046	0.689548
H164	H	-0.562707	0.548046	1.189548
H165	H	-0.123585	-0.135898	-0.097655
H166	H	0.376415	0.364102	0.402345
H167	H	-0.800352	-0.796232	-0.195475
H168	H	-0.300352	-0.296232	0.304525
C169	C	-0.560951	-0.223060	-0.104643
C170	C	-0.060951	0.276940	0.395357
C171	C	-0.509645	-0.157276	-0.103820
C172	C	-0.009645	0.342724	0.396180
H173	H	-0.534156	-0.273923	-0.104221
H174	H	-0.034156	0.226077	0.395779
H175	H	-0.597591	-0.219947	-0.061019
H176	H	-0.097591	0.280053	0.438981
H177	H	-0.585890	-0.219928	-0.149257
H178	H	-0.085890	0.280072	0.350743
H179	H	-0.484709	-0.160404	-0.059203
H180	H	0.015291	0.339596	0.440797
H181	H	-0.472991	-0.160390	-0.147448
H182	H	0.027009	0.339610	0.352552
C183	C	-1.047380	-0.316691	0.051405
C184	C	-0.547380	0.183309	0.551405
C185	C	-1.002119	-0.372957	0.006186
C186	C	-0.502119	0.127043	0.506186
H187	H	-1.082385	-0.346051	0.086360
H188	H	-0.582385	0.153949	0.586360
H189	H	-1.015932	-0.282956	0.078603
H190	H	-0.515932	0.217044	0.578603
H191	H	-1.074527	-0.282914	0.019918
H192	H	-0.574527	0.217086	0.519918
H193	H	-0.974967	-0.406729	0.037673
H194	H	-0.474967	0.093271	0.537673
H195	H	-1.033571	-0.406705	-0.021014
H196	H	-0.533571	0.093295	0.478986
C197	C	-0.743755	0.070763	0.448670
C198	C	-0.243755	0.570763	0.948670
C199	C	-0.747240	0.000081	0.494622
C200	C	-0.247240	0.500081	0.994622
H201	H	-0.697375	0.070764	0.415687
H202	H	-0.197375	0.570764	0.915687
H203	H	-0.785374	0.070760	0.419309
H204	H	-0.285374	0.570760	0.919309
H205	H	-0.746142	0.118703	0.479851
H206	H	-0.246142	0.618703	0.979851
H207	H	-0.744859	-0.047859	0.463440
H208	H	-0.244859	0.452141	0.963440
H209	H	-0.705610	0.000076	0.523985
H210	H	-0.205610	0.500076	1.023985
H211	H	-0.764424	0.000077	0.651685
H212	H	-0.264424	0.500077	1.151685
H213	H	-0.987437	-0.639192	-0.008498
H214	H	-0.487437	-0.139192	0.491502
C215	C	-0.990156	-0.787624	0.080628
C216	C	-0.490156	-0.287624	0.580628
C217	C	-1.002141	-0.808532	0.006189
C218	C	-0.502141	-0.308532	0.506189
H219	H	-1.025152	-0.816979	0.115596
H220	H	-0.525152	-0.316979	0.615596
H221	H	-0.939669	-0.801827	0.088781
H222	H	-0.439669	-0.301827	0.588781
H223	H	-0.997533	-0.729885	0.087991
H224	H	-0.497533	-0.229885	0.587991
H225	H	-0.994758	-0.866270	-0.001176
H226	H	-0.494758	-0.366270	0.498824
H227	H	-1.052640	-0.794334	-0.001967
H228	H	-0.552640	-0.294334	0.498033
H229	H	-0.770787	0.000078	0.254383
H230	H	-0.270787	0.500078	0.754383
C231	C	-0.796526	-0.458088	-0.199269
C232	C	-0.296526	0.041912	0.300731
C233	C	-0.785629	-0.372987	-0.210141
C234	C	-0.285629	0.127013	0.289859
H235	H	-0.761542	-0.487455	-0.234244
H236	H	-0.261542	0.012545	0.265756
H237	H	-0.788401	-0.472282	-0.148772
H238	H	-0.288401	0.027718	0.351228
H239	H	-0.847024	-0.472242	-0.207429
H240	H	-0.347024	0.027758	0.292571
H241	H	-0.735132	-0.358832	-0.201975
H242	H	-0.235132	0.141168	0.298025
H243	H	-0.793748	-0.358788	-0.260650
H244	H	-0.293748	0.141212	0.239350
C245	C	-0.797603	-0.212203	-0.284575
C246	C	-0.297603	0.287797	0.215425
C247	C	-0.785617	-0.191307	-0.210134
C248	C	-0.285617	0.308693	0.289866
H249	H	-0.762613	-0.182836	-0.319541
H250	H	-0.262613	0.317164	0.180459
H251	H	-0.790226	-0.269932	-0.291948
H252	H	-0.290226	0.230068	0.208052
H253	H	-0.848099	-0.197996	-0.292724
H254	H	-0.348099	0.302004	0.207276
H255	H	-0.735123	-0.205519	-0.201984
H256	H	-0.235123	0.294481	0.298016
H257	H	-0.792988	-0.133565	-0.202758
H258	H	-0.292988	0.366435	0.297242
C259	C	-0.163729	0.223203	-0.098318
C260	C	0.336271	0.723203	0.401682
C261	C	-0.112396	0.157422	-0.097497
C262	C	0.387604	0.657422	0.402503
H263	H	-0.136956	0.274067	-0.097889
H264	H	0.363044	0.774067	0.402111
H265	H	-0.188665	0.220086	-0.142926
H266	H	0.311335	0.720086	0.357074
H267	H	-0.200372	0.220075	-0.054688
H268	H	0.299628	0.720075	0.445312
H269	H	-0.075756	0.160547	-0.141131
H270	H	0.424244	0.660547	0.358869
H271	H	-0.087447	0.160541	-0.052885
H272	H	0.412553	0.660541	0.447115
C273	C	-0.314875	0.161989	-0.165904
C274	C	0.185125	0.661989	0.334096
C275	C	-0.278107	0.157414	-0.100144
C276	C	0.221893	0.657414	0.399856
H277	H	-0.341670	0.212851	-0.166334
H278	H	0.158330	0.712851	0.333666
H279	H	-0.278228	0.158875	-0.209522
H280	H	0.221772	0.658875	0.290478
H281	H	-0.349673	0.117350	-0.166444
H282	H	0.150327	0.617350	0.333556
H283	H	-0.243306	0.202050	-0.099606
H284	H	0.256694	0.702050	0.400394
H285	H	-0.314759	0.160537	-0.056514
H286	H	0.185241	0.660537	0.443486
C287	C	-0.711548	0.070746	0.110839
C288	C	-0.211548	0.570746	0.610839
C289	C	-0.753603	0.000069	0.097302
C290	C	-0.253603	0.500069	0.597302
H291	H	-0.665173	0.070741	0.077848
H292	H	-0.165173	0.570741	0.577848
H293	H	-0.740099	0.118684	0.101653
H294	H	-0.240099	0.618684	0.601653
H295	H	-0.700841	0.070735	0.162195
H296	H	-0.200841	0.570735	0.662195
H297	H	-0.764315	0.000082	0.045947
H298	H	-0.264315	0.500082	0.545947
H299	H	-0.725046	-0.047882	0.106482
H300	H	-0.225046	0.452118	0.606482
C301	C	-0.561032	0.223184	-0.104655
C302	C	-0.061032	0.723184	0.395345
C303	C	-0.509702	0.157400	-0.103836
C304	C	-0.009702	0.657400	0.396164
H305	H	-0.534257	0.274047	-0.104221
H306	H	-0.034257	0.774047	0.395779
H307	H	-0.585965	0.220072	-0.149264
H308	H	-0.085965	0.720072	0.350736
H309	H	-0.597677	0.220054	-0.061026
H310	H	-0.097677	0.720054	0.438974
H311	H	-0.473060	0.160526	-0.147468
H312	H	0.026940	0.660526	0.352532
H313	H	-0.484756	0.160514	-0.059222
H314	H	0.015244	0.660514	0.440778
H315	H	-0.664170	0.136038	-0.106309
H316	H	-0.164170	0.636038	0.393691
