data_functionalizedCrystal
_audit_creation_method	'MofGen! by Chris Wilmer'
_symmetry_space_group_name_H-M	'P1'
_symmetry_Int_Tables_number	1
_symmetry_cell_setting	triclinic
loop_
_symmetry_equiv_pos_as_xyz
  x,y,z
_cell_length_a	16.120490
_cell_length_b	16.120484
_cell_length_c	13.897441
_cell_angle_alpha	92.865635
_cell_angle_beta	87.082329
_cell_angle_gamma	90.164100
loop_
_atom_site_label
_atom_site_type_symbol
_atom_site_fract_x
_atom_site_fract_y
_atom_site_fract_z
Zn1	Zn	1.254497	-0.395643	-0.642066
Zn2	Zn	1.754497	0.104357	-0.142066
Zn3	Zn	1.247335	-0.534710	-0.488495
Zn4	Zn	1.747335	-0.034710	0.011505
Zn5	Zn	1.115431	-0.388611	-0.472224
Zn6	Zn	1.615431	0.111389	0.027776
Zn7	Zn	1.108349	-0.527588	-0.641187
Zn8	Zn	1.608349	-0.027588	-0.141187
O9	O	1.181403	-0.461638	-0.560993
O10	O	1.681403	0.038362	-0.060993
O11	O	1.369913	-0.420014	-0.628872
O12	O	1.869913	0.079986	-0.128872
O13	O	1.229804	-0.515368	-0.351355
O14	O	1.729804	-0.015368	0.148645
O15	O	1.139839	-0.273181	-0.488312
O16	O	1.639839	0.226819	0.011688
O17	O	1.364651	-0.522186	-0.516044
O18	O	1.864651	-0.022186	-0.016044
O19	O	1.242011	-0.278348	-0.613094
O20	O	1.742011	0.221652	-0.113094
O21	O	1.132894	-0.408029	-0.339401
O22	O	1.632894	0.091971	0.160599
O23	O	0.998125	-0.401123	-0.487460
O24	O	1.498125	0.098877	0.012540
O25	O	1.127770	-0.510047	-0.776285
O26	O	1.627770	-0.010047	-0.276285
O27	O	0.992923	-0.503229	-0.611596
O28	O	1.492923	-0.003229	-0.111596
O29	O	1.235144	-0.413108	-0.776931
O30	O	1.735144	0.086892	-0.276931
O31	O	1.222937	-0.650128	-0.515192
O32	O	1.722937	-0.150128	-0.015192
O33	O	1.120825	-0.644895	-0.627374
O34	O	1.620825	-0.144895	-0.127374
C35	C	0.965352	-0.450641	-0.547667
C36	C	1.465352	0.049359	-0.047667
C37	C	0.872923	-0.445956	-0.541991
C38	C	1.372923	0.054044	-0.041991
C39	C	1.170358	-0.677684	-0.572975
C40	C	1.670358	-0.177684	-0.072975
C41	C	1.165709	-0.770114	-0.578139
C42	C	1.665709	-0.270114	-0.078139
C43	C	0.659955	-0.485932	-0.590440
C44	C	1.159955	0.014068	-0.090440
C45	C	0.703699	-0.437411	-0.531626
C46	C	1.203699	0.062589	-0.031626
C47	C	0.797864	-0.442167	-0.537395
C48	C	1.297864	0.057833	-0.037395
C49	C	0.565781	-0.481177	-0.584672
C50	C	1.065781	0.018823	-0.084672
C51	C	1.157226	-0.939344	-0.587585
C52	C	1.657226	-0.439344	-0.087585
C53	C	1.205729	-0.983100	-0.534426
C54	C	1.705729	-0.483100	-0.034426
C55	C	1.201009	-1.077265	-0.539682
C56	C	1.701009	-0.577265	-0.039682
C57	C	1.161945	-0.845170	-0.582330
C58	C	1.661945	-0.345170	-0.082330
C59	C	1.398298	-0.472679	-0.574371
C60	C	1.898298	0.027321	-0.074371
C61	C	1.490726	-0.477384	-0.580072
C62	C	1.990726	0.022616	-0.080072
C63	C	1.181466	-0.461568	-0.812586
C64	C	1.681466	0.038432	-0.312586
C65	C	1.181492	-0.461538	-0.919799
C66	C	1.681492	0.038462	-0.419799
C67	C	1.192514	-0.244749	-0.548986
C68	C	1.692514	0.255251	-0.048986
C69	C	1.197249	-0.152324	-0.543869
C70	C	1.697249	0.347676	-0.043869
C71	C	1.181518	-0.461482	-1.116093
C72	C	1.681518	0.038518	-0.616093
C73	C	1.181501	-0.461515	-1.006861
C74	C	1.681501	0.038485	-0.506861
C75	C	1.181391	-0.461651	-0.310379
C76	C	1.681391	0.038349	0.189621
C77	C	1.181538	-0.461455	-0.203162
C78	C	1.681538	0.038545	0.296838
H79	H	0.670430	-0.392299	-0.476941
H80	H	1.170430	0.107701	0.023059
H81	H	0.693222	-0.531041	-0.645120
H82	H	1.193222	-0.031041	-0.145120
H83	H	1.250798	-0.949840	-0.484966
H84	H	1.750798	-0.449840	0.015034
H85	H	1.112159	-0.972601	-0.637039
H86	H	1.612159	-0.472601	-0.137039
