data_functionalizedCrystal
_audit_creation_method	'MofGen! by Chris Wilmer'
_symmetry_space_group_name_H-M	'P1'
_symmetry_Int_Tables_number	1
_symmetry_cell_setting	triclinic
loop_
_symmetry_equiv_pos_as_xyz
  x,y,z
_cell_length_a	16.109301
_cell_length_b	15.625429
_cell_length_c	14.586319
_cell_angle_alpha	71.919058
_cell_angle_beta	89.998857
_cell_angle_gamma	83.866959
loop_
_atom_site_label
_atom_site_type_symbol
_atom_site_fract_x
_atom_site_fract_y
_atom_site_fract_z
O1	O	1.103292	0.115880	-0.114709
O2	O	0.861250	0.130301	-0.119515
O3	O	0.988738	-0.008148	-0.073482
O4	O	0.975804	0.254329	-0.160742
O5	O	0.988729	-0.008150	0.079000
O6	O	0.861241	0.130299	0.032966
O7	O	1.103283	0.115878	0.037773
Cu8	Cu	0.982261	0.123088	0.049292
Cu9	Cu	0.982272	0.123090	-0.131035
O10	O	0.975795	0.254327	-0.008261
C11	C	0.830270	0.129715	-0.043082
C12	C	0.737972	0.127964	-0.042504
C13	C	0.429080	0.204391	-0.067897
C14	C	0.515803	0.206045	-0.068452
C15	C	0.535447	0.041781	-0.013854
C16	C	0.448726	0.040128	-0.013306
C17	C	0.395545	0.121436	-0.040323
C18	C	0.568988	0.124743	-0.041427
C19	C	0.663017	0.126536	-0.042029
C20	C	0.301510	0.119643	-0.039723
C21	C	0.988148	-0.041736	0.013923
C22	C	0.986394	-0.141815	0.047188
C23	C	0.980624	-0.470959	-0.258961
C24	C	0.978972	-0.564998	-0.227675
C25	C	0.978963	-0.564987	-0.061450
C26	C	0.980619	-0.470946	-0.092722
C27	C	0.981449	-0.423940	-0.191478
C28	C	0.981444	-0.423927	-0.025240
C29	C	0.983095	-0.329894	-0.056510
C30	C	0.983923	-0.282880	-0.155262
C31	C	0.983101	-0.329907	-0.222749
C32	C	0.980608	-0.470934	0.073516
C33	C	0.981432	-0.423915	0.140998
C34	C	0.983090	-0.329881	0.109729
C35	C	0.983917	-0.282868	0.010976
C36	C	0.983912	-0.282855	0.177215
C37	C	0.985564	-0.188822	0.145945
C38	C	0.985569	-0.188835	-0.020294
C39	C	1.134263	0.116463	-0.038663
C40	C	1.226561	0.118214	-0.039246
C41	C	0.976385	0.287915	-0.095668
C42	C	0.978139	0.387994	-0.128939
N43	N	0.982260	0.123086	0.176125
N44	N	0.982280	0.123086	-0.257865
C45	C	1.038730	0.061801	0.431508
C46	C	1.038733	0.061799	0.527490
C47	C	0.925803	0.184373	0.486744
C48	C	0.925797	0.184370	0.390766
C49	C	0.982266	0.123085	0.363150
C50	C	0.982274	0.123086	0.555110
C51	C	0.982276	0.123084	0.659178
C52	C	0.982263	0.123086	0.259076
H53	H	0.385782	0.270598	-0.089897
H54	H	0.978293	-0.603277	-0.282635
C55	C	0.411836	-0.051135	0.017034
N56	N	0.384050	-0.119871	0.039886
H57	H	0.986252	-0.150560	-0.100711
C58	C	1.100840	-0.005621	0.401137
N59	N	1.147621	-0.056408	0.378266
C60	C	0.863717	0.251832	0.315552
N61	N	0.816972	0.302655	0.258897
H62	H	0.543103	0.273596	-0.090906
C63	C	0.984017	-0.278195	-0.331386
N64	N	0.984706	-0.239245	-0.413209
C65	C	0.593955	-0.047653	0.015879
N66	N	0.638022	-0.115017	0.038282
C67	C	0.985741	-0.179441	-0.189660
N68	N	0.987113	-0.101530	-0.215568
H69	H	0.981308	-0.432684	-0.339378
H70	H	0.979254	-0.547500	0.098973
C71	C	0.978047	-0.616704	0.047180
N72	N	0.977358	-0.655657	0.129001
C73	C	0.980516	-0.475632	0.249628
N74	N	0.979828	-0.514585	0.331449
H75	H	0.983228	-0.321141	0.257622
H76	H	0.986218	-0.150535	0.200895
H77	H	1.084710	0.011895	0.583147
C78	C	0.863690	0.251781	0.517133
N79	N	0.816905	0.302554	0.540020
