data_functionalizedCrystal
_audit_creation_method	'MofGen! by Chris Wilmer'
_symmetry_space_group_name_H-M	'P1'
_symmetry_Int_Tables_number	1
_symmetry_cell_setting	triclinic
loop_
_symmetry_equiv_pos_as_xyz
  x,y,z
_cell_length_a	15.995350
_cell_length_b	17.038272
_cell_length_c	14.472310
_cell_angle_alpha	89.999298
_cell_angle_beta	89.990621
_cell_angle_gamma	87.301966
loop_
_atom_site_label
_atom_site_type_symbol
_atom_site_fract_x
_atom_site_fract_y
_atom_site_fract_z
O1	O	1.118175	0.100774	-0.076763
O2	O	0.875286	0.113219	-0.076782
O3	O	0.995287	-0.006819	-0.076766
O4	O	0.998174	0.220812	-0.076780
O5	O	0.995254	-0.006812	0.076916
O6	O	0.875253	0.113226	0.076900
O7	O	1.118142	0.100781	0.076919
Cu8	Cu	0.996695	0.107004	0.090942
Cu9	Cu	0.996733	0.106996	-0.090805
O10	O	0.998141	0.220819	0.076902
C11	C	0.844038	0.112708	0.000056
C12	C	0.750978	0.111165	0.000049
C13	C	0.412836	0.105626	0.000069
C14	C	0.454180	0.020137	0.000417
C15	C	0.550981	0.021680	0.000064
C16	C	0.580592	0.108374	0.000060
C17	C	0.542527	0.150536	-0.087699
C18	C	0.445739	0.148388	-0.087766
C19	C	0.445488	0.150162	0.086999
C20	C	0.542432	0.150142	0.088152
C21	C	0.675401	0.109931	0.000051
C22	C	0.318027	0.104071	0.000071
C23	C	0.992645	-0.035945	0.000075
C24	C	0.984810	-0.122740	0.000074
C25	C	1.056739	-0.172836	0.000081
C26	C	1.049373	-0.254389	0.000072
C27	C	0.970077	-0.285843	0.000062
C28	C	0.898143	-0.235740	0.000053
C29	C	0.905510	-0.154189	0.000056
C30	C	0.944051	-0.531607	0.000047
C31	C	0.936689	-0.613164	0.000048
C32	C	1.087920	-0.631807	0.000065
C33	C	1.095280	-0.550254	0.000073
C34	C	1.023346	-0.500158	0.000059
C35	C	0.962546	-0.369202	0.000056
C36	C	1.030878	-0.416801	0.000059
C37	C	1.149390	0.101292	0.000078
C38	C	1.242450	0.102834	0.000079
C39	C	1.000784	0.249944	0.000059
C40	C	1.008618	0.336739	0.000054
N41	N	0.996674	0.107009	0.218773
N42	N	0.996761	0.106984	-0.218636
C43	C	0.996732	0.106993	0.592864
C44	C	0.932276	0.171007	0.553689
C45	C	0.932452	0.171241	0.446601
C46	C	0.996702	0.107001	0.407273
C47	C	1.085336	0.124819	0.446115
C48	C	1.084981	0.125274	0.553237
C49	C	0.973320	0.024970	0.553397
C50	C	0.971356	0.025517	0.446269
C51	C	0.996691	0.107004	0.302385
C52	C	0.996749	0.106991	0.697752
H53	H	0.417962	0.211153	-0.091752
H54	H	1.146484	-0.672604	0.000074
C55	C	0.567740	0.236578	-0.092122
C56	C	0.617876	0.265434	-0.175320
C57	C	0.643091	0.351476	-0.179741
C58	C	0.618170	0.408663	-0.100963
C59	C	0.568032	0.379808	-0.017759
C60	C	0.542817	0.293766	-0.013339
H61	H	0.636326	0.223100	-0.233642
H62	H	0.680207	0.372836	-0.241334
H63	H	0.636836	0.472356	-0.104236
H64	H	0.549581	0.422142	0.040562
H65	H	0.505701	0.272406	0.048255
C66	C	0.883244	0.007233	0.411956
C67	C	0.843870	-0.069813	0.440758
C68	C	0.755763	-0.088100	0.406429
C69	C	0.707031	-0.029341	0.343299
C70	C	0.746405	0.047710	0.314494
C71	C	0.834512	0.065997	0.348823
H72	H	0.879945	-0.113315	0.487493
H73	H	0.726616	-0.145139	0.427752
H74	H	0.641809	-0.042878	0.317887
H75	H	0.710330	0.091212	0.267759
H76	H	0.863658	0.123035	0.327499
C77	C	0.953472	0.253465	0.411957
C78	C	0.957815	0.270039	0.307507
C79	C	0.978841	0.352266	0.272864
C80	C	0.995525	0.417920	0.342671
C81	C	0.991182	0.401348	0.447127
C82	C	0.970156	0.319121	0.481770
H83	H	0.945464	0.221436	0.255827
H84	H	0.982055	0.364533	0.195539
H85	H	1.011089	0.478790	0.317026
H86	H	1.003533	0.449951	0.498808
H87	H	0.966942	0.306854	0.559096
H88	H	1.121310	-0.147233	0.000094
H89	H	0.872114	-0.638770	0.000055
C90	C	1.111647	0.206084	0.586982
C91	C	1.116842	0.223227	0.691245
C92	C	1.143508	0.304040	0.724985
C93	C	1.164978	0.367710	0.654462
C94	C	1.159784	0.350568	0.550193
C95	C	1.133118	0.269756	0.516453
H96	H	1.100948	0.176093	0.743456
H97	H	1.147353	0.316728	0.802172
H98	H	1.184718	0.427532	0.679438
H99	H	1.175678	0.397702	0.497982
H100	H	1.129273	0.257067	0.439266
C101	C	0.843702	0.156911	0.411112
C102	C	0.797367	0.218922	0.350114
C103	C	0.708613	0.204596	0.314629
C104	C	0.666194	0.128259	0.340141
C105	C	0.712529	0.066242	0.401142
C106	C	0.801283	0.080568	0.436627
H107	H	0.828768	0.275436	0.331226
H108	H	0.674313	0.250505	0.269472
H109	H	0.600493	0.117654	0.313873
H110	H	0.681128	0.009728	0.420030
H111	H	0.835583	0.034659	0.481784
C112	C	0.585426	-0.023394	-0.085071
C113	C	0.567771	-0.110811	-0.097737
C114	C	0.602215	-0.155886	-0.182878
C115	C	0.654313	-0.113543	-0.255353
C116	C	0.671971	-0.026122	-0.242689
C117	C	0.637528	0.018953	-0.157548
H118	H	0.529202	-0.142160	-0.044084
H119	H	0.589143	-0.220602	-0.192252
H120	H	0.679811	-0.146910	-0.318380
H121	H	0.710541	0.005227	-0.296342
H122	H	0.650600	0.083668	-0.148174
H123	H	0.866382	0.160566	0.579472
C124	C	0.864922	-0.476513	0.000049
C125	C	0.801538	-0.480039	-0.079751
C126	C	0.722404	-0.424942	-0.079745
C127	C	0.706654	-0.366318	0.000061
C128	C	0.770039	-0.362789	0.079867
C129	C	0.849174	-0.417886	0.079861
H130	H	0.813196	-0.523438	-0.138834
H131	H	0.675482	-0.427555	-0.138823
H132	H	0.648074	-0.325532	0.000065
H133	H	0.758382	-0.319390	0.138949
H134	H	0.896096	-0.415273	0.138939
H135	H	1.095440	-0.391187	0.000046
C136	C	0.415048	0.112409	0.176866
C137	C	0.360141	0.040650	0.172460
C138	C	0.329701	0.002886	0.262320
C139	C	0.354168	0.036882	0.356586
C140	C	0.409078	0.108645	0.360996
C141	C	0.439518	0.146408	0.271136
H142	H	0.342027	0.015481	0.102675
H143	H	0.289053	-0.050237	0.259055
H144	H	0.331635	0.008927	0.423107
H145	H	0.427193	0.133814	0.430781
H146	H	0.480167	0.199532	0.274401
H147	H	1.020257	-0.022668	0.578729
C148	C	1.030052	-0.041858	0.410113
C149	C	1.102351	-0.023985	0.344253
C150	C	1.161055	-0.091358	0.308097
C151	C	1.147460	-0.176604	0.337801
C152	C	1.075157	-0.194481	0.403665
C153	C	1.016453	-0.127108	0.439820
H154	H	1.112418	0.039123	0.322261
H155	H	1.214578	-0.078123	0.259341
H156	H	1.190916	-0.226477	0.311037
H157	H	1.065090	-0.257589	0.425657
H158	H	0.962930	-0.140342	0.488577
C159	C	1.152131	0.064690	0.588252
C160	C	1.205909	0.016052	0.518739
C161	C	1.273062	-0.044525	0.553749
C162	C	1.286437	-0.056466	0.658272
C163	C	1.232657	-0.007826	0.727791
C164	C	1.165504	0.052751	0.692781
H165	H	1.196009	0.024890	0.441359
H166	H	1.312873	-0.080531	0.502285
H167	H	1.336148	-0.101309	0.684188
H168	H	1.242557	-0.016664	0.805171
H169	H	1.125693	0.088757	0.744245
H170	H	0.577035	-0.011462	0.062974
H171	H	0.425254	0.117636	-0.153365
C172	C	0.569256	0.235555	0.095307
C173	C	0.626534	0.269020	0.020951
C174	C	0.653354	0.354437	0.028095
C175	C	0.622894	0.406389	0.109597
C176	C	0.565613	0.372925	0.183960
C177	C	0.538793	0.287507	0.176815
H178	H	0.649085	0.230562	-0.039387
H179	H	0.695757	0.379210	-0.026953
H180	H	0.642748	0.469620	0.114886
H181	H	0.543062	0.411383	0.244297
H182	H	0.496389	0.262735	0.231863
H183	H	0.833579	-0.261356	0.000039
H184	H	0.433211	-0.014032	0.063353
C185	C	1.128498	-0.309492	0.000082
C186	C	1.191868	-0.305972	0.079896
C187	C	1.270999	-0.361074	0.079904
C188	C	1.286759	-0.419695	0.000098
C189	C	1.223388	-0.423218	-0.079722
C190	C	1.144257	-0.368116	-0.079730
H191	H	1.180203	-0.262574	0.138978
H192	H	1.317911	-0.358466	0.138993
H193	H	1.345337	-0.460485	0.000104
H194	H	1.235053	-0.466615	-0.138805
H195	H	1.097345	-0.370724	-0.138819
C196	C	0.408647	0.235312	0.087806
C197	C	0.426305	0.290845	0.006891
C198	C	0.389460	0.375991	0.007690
C199	C	0.334957	0.405603	0.089404
C200	C	0.317296	0.350068	0.170326
C201	C	0.354141	0.264923	0.169526
H202	H	0.466654	0.268925	-0.053604
H203	H	0.402534	0.417101	-0.052213
H204	H	0.307682	0.468633	0.089996
H205	H	0.276947	0.371988	0.230821
H206	H	0.341067	0.223813	0.229430
H207	H	1.159850	-0.524651	0.000081
C208	C	0.826388	-0.099079	0.000050
C209	C	0.763014	-0.102600	-0.079760
C210	C	0.683890	-0.047490	-0.079772
C211	C	0.668140	0.011141	0.000027
C212	C	0.731516	0.014665	0.079843
C213	C	0.810640	-0.040445	0.079854
H214	H	0.774672	-0.146005	-0.138837
H215	H	0.636975	-0.050099	-0.138857
H216	H	0.609567	0.051937	0.000019
H217	H	0.719858	0.058070	0.138920
H218	H	0.857555	-0.037836	0.138940
C219	C	0.887460	0.001835	0.589919
C220	C	0.880311	-0.074003	0.646680
C221	C	0.794447	-0.097128	0.683202
C222	C	0.715732	-0.044414	0.662962
C223	C	0.722878	0.031429	0.606198
C224	C	0.808742	0.054554	0.569677
H225	H	0.938583	-0.113029	0.661665
H226	H	0.789158	-0.153272	0.725222
H227	H	0.652171	-0.061532	0.689998
H228	H	0.664606	0.070455	0.591214
H229	H	0.814032	0.110698	0.527656
H230	H	0.897983	-0.394821	0.000050
H231	H	0.568829	0.121246	-0.153008
H232	H	0.432177	-0.013880	-0.062167
H233	H	0.947652	0.231532	0.580596
H234	H	0.567542	0.119364	0.153076
H235	H	1.134688	0.079434	0.420639
H236	H	1.105401	0.183955	0.419276
