data_functionalizedCrystal
_audit_creation_method	'MofGen! by Chris Wilmer'
_symmetry_space_group_name_H-M	'P1'
_symmetry_Int_Tables_number	1
_symmetry_cell_setting	triclinic
loop_
_symmetry_equiv_pos_as_xyz
  x,y,z
_cell_length_a	13.897449
_cell_length_b	18.050589
_cell_length_c	13.897441
_cell_angle_alpha	89.972127
_cell_angle_beta	89.979267
_cell_angle_gamma	90.029500
loop_
_atom_site_label
_atom_site_type_symbol
_atom_site_fract_x
_atom_site_fract_y
_atom_site_fract_z
Zn1	Zn	1.474632	-0.295610	-0.545399
Zn2	Zn	1.807965	0.037723	-0.212066
Zn3	Zn	2.141299	0.371056	0.121267
Zn4	Zn	1.474496	-0.419815	-0.384108
Zn5	Zn	1.807830	-0.086481	-0.050775
Zn6	Zn	2.141163	0.246852	0.282558
Zn7	Zn	1.313321	-0.295646	-0.384118
Zn8	Zn	1.646655	0.037688	-0.050784
Zn9	Zn	1.979988	0.371021	0.282549
Zn10	Zn	1.313273	-0.419766	-0.545361
Zn11	Zn	1.646607	-0.086433	-0.212028
Zn12	Zn	1.979940	0.246901	0.121306
O13	O	1.393931	-0.357709	-0.464747
O14	O	1.727264	-0.024376	-0.131413
O15	O	2.060597	0.308957	0.201920
O16	O	1.609596	-0.312092	-0.524016
O17	O	1.942929	0.021241	-0.190683
O18	O	2.276262	0.354575	0.142651
O19	O	1.453079	-0.403379	-0.249128
O20	O	1.786413	-0.070045	0.084205
O21	O	2.119746	0.263288	0.417539
O22	O	1.334796	-0.191716	-0.405532
O23	O	1.668130	0.141617	-0.072199
O24	O	2.001463	0.474950	0.261135
O25	O	1.609496	-0.403344	-0.405516
O26	O	1.942829	-0.070011	-0.072183
O27	O	2.276163	0.263322	0.261150
O28	O	1.453311	-0.191690	-0.524025
O29	O	1.786644	0.141643	-0.190692
O30	O	2.119977	0.474976	0.142642
O31	O	1.334665	-0.312152	-0.249135
O32	O	1.667998	0.021181	0.084198
O33	O	2.001331	0.354514	0.417532
O34	O	1.178333	-0.312105	-0.405495
O35	O	1.511667	0.021228	-0.072162
O36	O	1.845000	0.354562	0.261172
O37	O	1.334715	-0.403261	-0.680348
O38	O	1.668048	-0.069928	-0.347015
O39	O	2.001381	0.263405	-0.013681
O40	O	1.178298	-0.403295	-0.523960
O41	O	1.511631	-0.069962	-0.190626
O42	O	1.844965	0.263371	0.142707
O43	O	1.453264	-0.312045	-0.680376
O44	O	1.786598	0.021289	-0.347043
O45	O	2.119931	0.354622	-0.013709
O46	O	1.453033	-0.523733	-0.405479
O47	O	1.786366	-0.190399	-0.072146
O48	O	2.119700	0.142934	0.261188
O49	O	1.334583	-0.523697	-0.523951
O50	O	1.667916	-0.190364	-0.190617
O51	O	2.001250	0.142970	0.142716
C52	C	1.143316	-0.357699	-0.464725
C53	C	1.476650	-0.024366	-0.131391
C54	C	1.809983	0.308967	0.201942
C55	C	1.036102	-0.357713	-0.464738
C56	C	1.369436	-0.024380	-0.131405
C57	C	1.702769	0.308954	0.201928
C58	C	1.393814	-0.550661	-0.464731
C59	C	1.727148	-0.217328	-0.131397
C60	C	2.060481	0.116005	0.201936
C61	C	1.393853	-0.633207	-0.464756
C62	C	1.727186	-0.299874	-0.131423
C63	C	2.060519	0.033460	0.201911
C64	C	0.839807	-0.357716	-0.464763
C65	C	1.173141	-0.024382	-0.131430
C66	C	1.506474	0.308951	0.201903
C67	C	0.949040	-0.357712	-0.464747
C68	C	1.282373	-0.024378	-0.131413
C69	C	1.615707	0.308955	0.201920
C70	C	1.329503	-0.832665	-0.529158
C71	C	1.662836	-0.499332	-0.195825
C72	C	1.996170	-0.165999	0.137508
C73	C	1.305986	-0.882111	-0.441140
C74	C	1.639319	-0.548778	-0.107807
C75	C	1.972653	-0.215444	0.225527
C76	C	1.393947	-0.784337	-0.464769
C77	C	1.727281	-0.451004	-0.131435
C78	C	2.060614	-0.117671	0.201898
C79	C	1.417512	-0.881973	-0.552797
C80	C	1.750845	-0.548640	-0.219464
C81	C	2.084178	-0.215307	0.113869
C82	C	1.394037	-0.930323	-0.464789
C83	C	1.727371	-0.596989	-0.131455
C84	C	2.060704	-0.263656	0.201878
C85	C	1.370384	-0.832696	-0.376703
C86	C	1.703718	-0.499363	-0.043370
C87	C	2.037051	-0.166029	0.289963
C88	C	1.481951	-0.832554	-0.488420
C89	C	1.815284	-0.499221	-0.155087
C90	C	2.148618	-0.165887	0.178246
C91	C	1.458467	-0.881977	-0.400341
C92	C	1.791801	-0.548644	-0.067008
C93	C	2.125134	-0.215311	0.266326
C94	C	1.393893	-0.700239	-0.464758
C95	C	1.727227	-0.366906	-0.131425
C96	C	2.060560	-0.033573	0.201908
C97	C	1.394092	-1.014419	-0.464789
C98	C	1.727425	-0.681086	-0.131456
C99	C	2.060758	-0.347752	0.201878
C100	C	1.645524	-0.357720	-0.464769
C101	C	1.978857	-0.024386	-0.131436
C102	C	2.312190	0.308947	0.201897
C103	C	1.752738	-0.357724	-0.464779
C104	C	2.086071	-0.024391	-0.131446
C105	C	2.419404	0.308943	0.201888
C106	C	1.393999	-0.357644	-0.716340
C107	C	1.727333	-0.024310	-0.383006
C108	C	2.060666	0.309023	-0.049673
C109	C	1.394028	-0.357616	-0.823554
C110	C	1.727362	-0.024282	-0.490220
C111	C	2.060695	0.309051	-0.156887
C112	C	1.394074	-0.164004	-0.464784
C113	C	1.727407	0.169330	-0.131451
C114	C	2.060741	0.502663	0.201883
C115	C	1.394135	-0.081458	-0.464800
C116	C	1.727468	0.251876	-0.131466
C117	C	2.060802	0.585209	0.201867
C118	C	1.394055	-0.357565	-1.019849
C119	C	1.727388	-0.024232	-0.686516
C120	C	2.060721	0.309101	-0.353182
C121	C	1.394037	-0.357595	-0.910616
C122	C	1.727370	-0.024262	-0.577283
C123	C	2.060704	0.309071	-0.243950
C124	C	1.393918	-0.357721	-0.214132
C125	C	1.727251	-0.024388	0.119201
C126	C	2.060585	0.308946	0.452534
C127	C	1.394076	-0.357540	-0.106919
C128	C	1.727409	-0.024206	0.226414
C129	C	2.060742	0.309127	0.559748
H130	H	1.231606	-0.903895	-0.421153
H131	H	1.564940	-0.570562	-0.087820
H132	H	1.898273	-0.237228	0.245513
O133	O	1.441309	-0.907673	-0.641643
O134	O	1.774642	-0.574339	-0.308310
O135	O	2.107976	-0.241006	0.025024
C136	C	1.483905	-0.876577	-0.804835
C137	C	1.817238	-0.543244	-0.471502
C138	C	2.150571	-0.209910	-0.138168
C139	C	1.456998	-0.847376	-0.704258
C140	C	1.790331	-0.514043	-0.370924
C141	C	2.123665	-0.180709	-0.037591
H142	H	1.496577	-0.827842	-0.855492
H143	H	1.829911	-0.494509	-0.522159
H144	H	2.163244	-0.161176	-0.188825
H145	H	1.552264	-0.911242	-0.799741
H146	H	1.885597	-0.577909	-0.466408
H147	H	2.218930	-0.244575	-0.133074
H148	H	1.422719	-0.912275	-0.833747
H149	H	1.756052	-0.578941	-0.500414
H150	H	2.089385	-0.245608	-0.167080
H151	H	1.518121	-0.811648	-0.675287
H152	H	1.851455	-0.478314	-0.341954
H153	H	2.184788	-0.144981	-0.008621
H154	H	1.388610	-0.812752	-0.709412
H155	H	1.721943	-0.479419	-0.376078
H156	H	2.055276	-0.146085	-0.042745
H157	H	1.350403	-0.811140	-0.302246
H158	H	1.683736	-0.477806	0.031087
H159	H	2.017070	-0.144473	0.364420
O160	O	1.523421	-0.907618	-0.335189
O161	O	1.856754	-0.574285	-0.001856
O162	O	2.190088	-0.240952	0.331477
C163	C	1.572019	-0.911429	-0.168839
C164	C	1.905352	-0.578096	0.164495
C165	C	2.238686	-0.244762	0.497828
C166	C	1.498385	-0.882354	-0.242520
C167	C	1.831718	-0.549021	0.090814
C168	C	2.165051	-0.215687	0.424147
H169	H	1.551815	-0.891002	-0.093902
H170	H	1.885148	-0.557669	0.239431
H171	H	2.218482	-0.224335	0.572765
H172	H	1.572028	-0.974583	-0.169684
H173	H	1.905361	-0.641250	0.163650
H174	H	2.238695	-0.307917	0.496983
H175	H	1.646775	-0.890183	-0.188403
H176	H	1.980109	-0.556850	0.144930
H177	H	2.313442	-0.223517	0.478264
H178	H	1.423592	-0.903545	-0.223007
H179	H	1.756926	-0.570212	0.110327
H180	H	2.090259	-0.236878	0.443660
H181	H	1.498460	-0.819200	-0.241661
H182	H	1.831793	-0.485867	0.091672
H183	H	2.165126	-0.152534	0.425006
H184	H	1.556314	-0.810772	-0.508449
H185	H	1.889647	-0.477439	-0.175116
H186	H	2.222981	-0.144105	0.158218
H187	H	1.274924	-0.811012	-0.583534
H188	H	1.608258	-0.477679	-0.250200
H189	H	1.941591	-0.144345	0.083133
