data_functionalizedCrystal
_audit_creation_method	'MofGen! by Chris Wilmer'
_symmetry_space_group_name_H-M	'P1'
_symmetry_Int_Tables_number	1
_symmetry_cell_setting	triclinic
loop_
_symmetry_equiv_pos_as_xyz
  x,y,z
_cell_length_a	6.817900
_cell_length_b	11.102188
_cell_length_c	10.773894
_cell_angle_alpha	95.423105
_cell_angle_beta	96.645922
_cell_angle_gamma	108.603875
loop_
_atom_site_label
_atom_site_type_symbol
_atom_site_fract_x
_atom_site_fract_y
_atom_site_fract_z
V1	V	-3.974351	-0.171169	-0.388944
O2	O	-3.936005	0.013031	-0.381540
O3	O	-3.952057	-0.344021	-0.386284
O4	O	-3.891308	-0.166427	-0.558576
O5	O	-3.997174	-0.165792	-0.208056
V6	V	-4.459085	-0.149385	-0.367308
O7	O	-4.232953	-0.218952	-0.436404
O8	O	-4.650681	-0.101602	-0.319849
O9	O	-4.258173	0.023467	-0.369968
O10	O	-4.614828	-0.333585	-0.374713
O11	O	-4.553659	-0.154762	-0.548197
O12	O	-4.318922	-0.154127	-0.197677
C13	C	-3.804529	-0.386224	-0.380149
C14	C	-3.867357	-0.527519	-0.379104
C15	C	-3.876993	-0.577122	-0.264377
C16	C	-3.936049	-0.709886	-0.263401
C17	C	-3.975821	-0.743432	-0.491889
C18	C	-3.916780	-0.610671	-0.492865
C19	C	-4.109707	-0.875279	-0.128819
C20	C	-4.119309	-0.924884	-0.014084
C21	C	-3.965713	-0.862878	0.090465
C22	C	-3.802466	-0.751266	0.080285
C23	C	-3.792849	-0.701667	-0.034451
C24	C	-3.946490	-0.763672	-0.138996
C25	C	-3.743103	-0.445274	-0.627439
C26	C	-3.733471	-0.395672	-0.742175
C27	C	-3.887055	-0.457677	-0.846734
C28	C	-4.050276	-0.569294	-0.836566
C29	C	-4.059909	-0.618896	-0.721829
C30	C	-3.906324	-0.556882	-0.617270
C31	C	-3.727037	-0.159684	-0.599922
C32	C	-3.740597	-0.156951	-0.738597
C33	C	-3.919387	-0.161688	-0.806460
C34	C	-3.933405	-0.158863	-0.949788
C35	C	-4.069044	0.065663	-0.376101
C36	C	-3.985453	0.206957	-0.377153
C37	C	-4.146537	-0.160874	-0.156324
C38	C	-4.112215	-0.163601	-0.017648
H39	H	-3.600543	-0.304795	-0.750452
H40	H	-3.618033	-0.394775	-0.542301
H41	H	-4.252239	-1.015761	-0.005804
H42	H	-4.254923	-0.169752	-0.969645
H43	H	-3.790697	-0.152708	-0.997792
H44	H	-3.659931	-0.610798	-0.042741
H45	H	-4.062073	-0.167826	-0.758448
C46	C	-3.547795	-0.148596	-0.803443
N47	N	-3.402564	-0.142286	-0.852281
C48	C	-4.278608	-0.943544	-0.243845
N49	N	-4.405795	-0.994988	-0.330495
H50	H	-4.016064	-0.811150	-0.584509
C51	C	-3.876445	-0.403110	-0.972949
N52	N	-3.868462	-0.362012	-1.068011
H53	H	-3.836752	-0.509423	-0.171746
H54	H	-3.973537	-0.903277	0.183884
C55	C	-3.633492	-0.683072	0.195297
N56	N	-3.506221	-0.631705	0.281928
H57	H	-4.175331	-0.619785	-0.921708
C58	C	-4.239471	-0.741675	-0.710644
N59	N	-4.374717	-0.834149	-0.702219
