data_functionalizedCrystal
_audit_creation_method	'MofGen! by Chris Wilmer'
_symmetry_space_group_name_H-M	'P1'
_symmetry_Int_Tables_number	1
_symmetry_cell_setting	triclinic
loop_
_symmetry_equiv_pos_as_xyz
  x,y,z
_cell_length_a	17.077404
_cell_length_b	18.215399
_cell_length_c	17.077402
_cell_angle_alpha	90.028745
_cell_angle_beta	89.979147
_cell_angle_gamma	89.981547
loop_
_atom_site_label
_atom_site_type_symbol
_atom_site_fract_x
_atom_site_fract_y
_atom_site_fract_z
Zn1	Zn	1.200055	-0.416085	0.312559
Zn2	Zn	1.700055	0.083915	0.812559
Zn3	Zn	1.199962	-0.293017	0.443831
Zn4	Zn	1.699962	0.206983	0.943831
Zn5	Zn	1.068787	-0.293035	0.312579
Zn6	Zn	1.568787	0.206965	0.812579
Zn7	Zn	1.068755	-0.416045	0.443782
Zn8	Zn	1.568755	0.083955	0.943782
O9	O	1.134390	-0.354545	0.378188
O10	O	1.634390	0.145455	0.878188
O11	O	1.309890	-0.399769	0.329985
O12	O	1.809890	0.100231	0.829985
O13	O	1.182536	-0.190035	0.426449
O14	O	1.682536	0.309965	0.926449
O15	O	1.086252	-0.309382	0.202729
O16	O	1.586252	0.190618	0.702729
O17	O	1.309821	-0.309351	0.426430
O18	O	1.809821	0.190649	0.926430
O19	O	1.182695	-0.399786	0.202714
O20	O	1.682695	0.100214	0.702714
O21	O	1.086162	-0.190048	0.330019
O22	O	1.586162	0.309952	0.830019
O23	O	0.958936	-0.309343	0.329971
O24	O	1.458936	0.190657	0.829971
O25	O	1.086198	-0.519034	0.426346
O26	O	1.586198	-0.019034	0.926346
O27	O	0.958912	-0.399718	0.426365
O28	O	1.458912	0.100282	0.926365
O29	O	1.182664	-0.519064	0.329937
O30	O	1.682664	-0.019064	0.829937
O31	O	1.182505	-0.309312	0.553672
O32	O	1.682505	0.190688	1.053672
O33	O	1.086108	-0.399700	0.553635
O34	O	1.586108	0.100300	1.053635
C35	C	0.930442	-0.354529	0.378165
C36	C	1.430442	0.145471	0.878165
C37	C	0.843192	-0.354539	0.378175
C38	C	1.343192	0.145461	0.878175
C39	C	0.802238	-0.401691	0.328045
C40	C	1.302238	0.098309	0.828045
C41	C	0.720258	-0.401695	0.328050
C42	C	1.220258	0.098305	0.828050
C43	C	0.679233	-0.354549	0.378189
C44	C	1.179233	0.145451	0.878189
C45	C	0.720192	-0.307392	0.428321
C46	C	1.220192	0.192608	0.928321
C47	C	0.802171	-0.307385	0.428312
C48	C	1.302171	0.192615	0.928312
C49	C	0.549322	-0.307410	0.428339
C50	C	1.049322	0.192590	0.928339
C51	C	0.467338	-0.307417	0.428350
C52	C	0.967338	0.192583	0.928350
C53	C	0.467409	-0.401720	0.328077
C54	C	0.967409	0.098280	0.828077
C55	C	0.549388	-0.401713	0.328068
C56	C	1.049388	0.098287	0.828068
C57	C	0.590342	-0.354556	0.378201
C58	C	1.090342	0.145444	0.878201
C59	C	1.134438	-0.546498	0.378133
C60	C	1.634438	-0.046498	0.878133
C61	C	1.134458	-0.628297	0.378110
C62	C	1.634458	-0.128297	0.878110
C63	C	1.184706	-0.816508	0.327863
C64	C	1.684706	-0.316508	0.827863
C65	C	1.184715	-0.893367	0.327840
C66	C	1.684715	-0.393367	0.827840
C67	C	1.084266	-0.893325	0.428236
C68	C	1.584266	-0.393325	0.928236
C69	C	1.084253	-0.816467	0.428255
C70	C	1.584253	-0.316467	0.928255
C71	C	1.134478	-0.778061	0.378069
C72	C	1.634478	-0.278061	0.878069
C73	C	1.134500	-0.931777	0.378028
C74	C	1.634500	-0.431777	0.878028
C75	C	1.134509	-1.015111	0.378004
C76	C	1.634509	-0.515111	0.878004
C77	C	1.134467	-0.694722	0.378092
C78	C	1.634467	-0.194722	0.878092
C79	C	1.339134	-0.354562	0.378211
C80	C	1.839134	0.145438	0.878211
C81	C	1.426384	-0.354569	0.378220
C82	C	1.926384	0.145431	0.878220
C83	C	1.134314	-0.354516	0.582136
C84	C	1.634314	0.145484	1.082136
C85	C	1.134354	-0.354528	0.669385
C86	C	1.634354	0.145472	1.169385
C87	C	1.134387	-0.163339	0.378185
C88	C	1.634387	0.336661	0.878185
C89	C	1.134519	-0.081541	0.377987
C90	C	1.634519	0.418459	0.877987
C91	C	1.134487	-0.354591	0.173443
C92	C	1.634487	0.145409	0.673443
C93	C	1.134529	-0.354610	0.086194
C94	C	1.634529	0.145390	0.586194
C95	C	1.184599	-0.307513	0.710368
C96	C	1.684599	0.192487	1.210368
C97	C	1.184637	-0.307532	0.792349
C98	C	1.684637	0.192468	1.292349
C99	C	1.134426	-0.354562	0.833345
C100	C	1.634426	0.145438	1.333345
C101	C	1.084178	-0.401582	0.792356
C102	C	1.584178	0.098418	1.292356
C103	C	1.084144	-0.401566	0.710377
C104	C	1.584144	0.098434	1.210377
C105	C	1.084251	-0.401610	0.963226
C106	C	1.584251	0.098390	1.463226
C107	C	1.084284	-0.401625	1.045211
C108	C	1.584284	0.098375	1.545211
C109	C	1.184744	-0.307576	1.045198
C110	C	1.684744	0.192424	1.545198
C111	C	1.184710	-0.307560	0.963219
C112	C	1.684710	0.192440	1.463219
C113	C	1.134461	-0.354579	0.922236
C114	C	1.634461	0.145421	1.422236
H115	H	0.582664	-0.269008	0.469161
H116	H	1.082664	0.230992	0.969161
H117	H	1.225600	-0.785239	0.286997
H118	H	1.725600	-0.285239	0.786997
H119	H	1.043346	-0.785163	0.469138
H120	H	1.543346	-0.285163	0.969138
O121	O	1.035553	-0.447361	0.923376
O122	O	1.535553	0.052639	1.423376
C123	C	1.024893	-0.546660	0.830711
C124	C	1.524893	-0.046660	1.330711
C125	C	1.080132	-0.494910	0.875808
C126	C	1.580132	0.005090	1.375808
H127	H	1.060912	-0.585106	0.792229
H128	H	1.560912	-0.085106	1.292229
H129	H	0.989020	-0.580331	0.874053
H130	H	1.489020	-0.080331	1.374053
H131	H	0.983840	-0.512812	0.792423
H132	H	1.483840	-0.012812	1.292423
H133	H	1.121232	-0.528702	0.914097
H134	H	1.621232	-0.028702	1.414097
H135	H	1.115950	-0.461237	0.832423
H136	H	1.615950	0.038763	1.332423
H137	H	1.225483	-0.269213	0.676995
H138	H	1.725483	0.230787	1.176995
H139	H	1.225551	-0.269248	0.825713
H140	H	1.725551	0.230752	1.325713
H141	H	0.835515	-0.268988	0.469132
H142	H	1.335515	0.231012	0.969132
H143	H	1.225615	-0.924667	0.286956
H144	H	1.725615	-0.424667	0.786956
H145	H	1.225592	-0.269261	0.929840
H146	H	1.725592	0.230739	1.429840
H147	H	1.043377	-0.924604	0.469097
H148	H	1.543377	-0.424604	0.969097
H149	H	0.433937	-0.269028	0.469179
H150	H	0.933937	0.230972	0.969179
O151	O	0.427546	-0.447564	0.279484
O152	O	0.927546	0.052436	0.779484
C153	C	0.335076	-0.546982	0.269077
C154	C	0.835076	-0.046982	0.769077
C155	C	0.380160	-0.495096	0.324190
C156	C	0.880160	0.004904	0.824190
H157	H	0.296766	-0.585435	0.305200
H158	H	0.796766	-0.085435	0.805200
H159	H	0.296640	-0.513311	0.227996
H160	H	0.796640	-0.013311	0.727996
H161	H	0.378497	-0.580645	0.233227
H162	H	0.878497	-0.080645	0.733227
H163	H	0.336796	-0.461422	0.360090
H164	H	0.836796	0.038578	0.860090
H165	H	0.418608	-0.528809	0.365219
H166	H	0.918608	-0.028809	0.865219
H167	H	1.225661	-0.269294	1.078570
H168	H	1.725661	0.230706	1.578570
O169	O	0.680597	-0.447568	0.279329
O170	O	1.180597	0.052432	0.779329
C171	C	0.689319	-0.541072	0.179839
C172	C	1.189319	-0.041072	0.679839
C173	C	0.734332	-0.489169	0.234993
C174	C	1.234332	0.010831	0.734993
H175	H	0.732744	-0.574709	0.143967
H176	H	1.232744	-0.074709	0.643967
H177	H	0.650965	-0.579543	0.215896
H178	H	1.150965	-0.079543	0.715896
H179	H	0.650916	-0.507344	0.138783
H180	H	1.150916	-0.007344	0.638783
H181	H	0.772777	-0.522838	0.276060
H182	H	1.272777	-0.022838	0.776060
H183	H	0.772637	-0.450697	0.198887
H184	H	1.272637	0.049303	0.698887
H185	H	1.043412	-0.439935	1.078587
H186	H	1.543412	0.060065	1.578587
H187	H	1.043299	-0.439878	0.825741
H188	H	1.543299	0.060122	1.325741
H189	H	0.686783	-0.269001	0.469142
H190	H	1.186783	0.230999	0.969142
H191	H	0.582788	-0.440108	0.287244
H192	H	1.082788	0.059892	0.787244
O193	O	1.035448	-0.447313	0.670526
O194	O	1.535448	0.052687	1.170526
C195	C	1.024797	-0.546616	0.577866
C196	C	1.524797	-0.046616	1.077866
C197	C	1.080032	-0.494861	0.622961
C198	C	1.580032	0.005139	1.122961
H199	H	1.060820	-0.585062	0.539387
H200	H	1.560820	-0.085062	1.039387
H201	H	0.988926	-0.580288	0.621210
H202	H	1.488926	-0.080288	1.121210
H203	H	0.983742	-0.512773	0.539576
H204	H	1.483742	-0.012773	1.039576
H205	H	1.121134	-0.528648	0.661253
H206	H	1.621134	-0.028648	1.161253
H207	H	1.115847	-0.461187	0.579576
H208	H	1.615847	0.038813	1.079576
O209	O	0.842123	-0.447568	0.279452
O210	O	1.342123	0.052432	0.779452
C211	C	0.934760	-0.546909	0.269014
C212	C	1.434760	-0.046909	0.769014
C213	C	0.889629	-0.495012	0.324138
C214	C	1.389629	0.004988	0.824138
H215	H	0.973191	-0.585270	0.305120
H216	H	1.473191	-0.085270	0.805120
H217	H	0.891439	-0.580664	0.233198
H218	H	1.391439	-0.080664	0.733198
H219	H	0.973101	-0.513172	0.227903
H220	H	1.473101	-0.013172	0.727903
H221	H	0.851286	-0.528692	0.365297
H222	H	1.351286	-0.028692	0.865297
H223	H	0.932991	-0.461255	0.359899
H224	H	1.432991	0.038745	0.859899
