data_functionalizedCrystal
_audit_creation_method	'MofGen! by Chris Wilmer'
_symmetry_space_group_name_H-M	'P1'
_symmetry_Int_Tables_number	1
_symmetry_cell_setting	triclinic
loop_
_symmetry_equiv_pos_as_xyz
  x,y,z
_cell_length_a	10.654550
_cell_length_b	17.038272
_cell_length_c	9.130313
_cell_angle_alpha	89.998262
_cell_angle_beta	89.996220
_cell_angle_gamma	87.798229
loop_
_atom_site_label
_atom_site_type_symbol
_atom_site_fract_x
_atom_site_fract_y
_atom_site_fract_z
O1	O	1.678036	0.109874	-0.121922
O2	O	1.313530	0.120343	-0.121899
O3	O	1.493617	0.001281	-0.121899
O4	O	1.497950	0.228936	-0.121923
O5	O	1.493615	0.001284	0.121700
O6	O	1.313528	0.120346	0.121700
O7	O	1.678034	0.109878	0.121676
Cu8	Cu	1.495781	0.115112	0.143931
Cu9	Cu	1.495783	0.115108	-0.144153
O10	O	1.497948	0.228939	0.121676
C11	C	1.266660	0.119576	-0.000097
C12	C	1.127003	0.117276	-0.000087
C13	C	1.054026	0.187378	-0.000116
C14	C	0.922804	0.185212	-0.000141
C15	C	0.937548	0.042837	-0.000115
C16	C	1.068767	0.045004	-0.000080
C17	C	1.045513	0.269577	-0.000137
C18	C	0.914292	0.267411	-0.000162
C19	C	1.489675	-0.027867	-0.000100
C20	C	1.477918	-0.114726	-0.000099
C21	C	1.585862	-0.164237	-0.000105
C22	C	1.574808	-0.245850	-0.000118
C23	C	1.455808	-0.277949	-0.000115
C24	C	1.347856	-0.228431	-0.000114
C25	C	1.358911	-0.146821	-0.000111
C26	C	1.416750	-0.523925	-0.000133
C27	C	1.405702	-0.605542	-0.000131
C28	C	1.632656	-0.622955	-0.000137
C29	C	1.643701	-0.541342	-0.000126
C30	C	1.535749	-0.491831	-0.000133
C31	C	1.444505	-0.361370	-0.000124
C32	C	1.547052	-0.408412	-0.000134
C33	C	1.724905	0.110645	-0.000129
C34	C	1.864562	0.112944	-0.000148
C35	C	1.501889	0.258088	-0.000126
C36	C	1.513646	0.344947	-0.000136
N37	N	1.495788	0.115114	0.346553
N38	N	1.495785	0.115100	-0.346776
C39	C	1.575554	0.062412	0.423205
C40	C	1.575550	0.062403	0.576542
C41	C	1.416010	0.167805	0.576561
C42	C	1.416009	0.167810	0.423227
C43	C	1.667667	0.001561	0.423195
C44	C	1.667663	0.001552	0.576532
H45	H	0.875436	0.298381	-0.102119
C46	C	1.048363	0.381934	-0.158667
C47	C	1.096942	0.304914	-0.142108
H48	H	1.080120	0.403748	-0.246311
H49	H	0.959333	0.381631	-0.163527
H50	H	1.072709	0.412659	-0.077399
H51	H	1.072588	0.274187	-0.223371
H52	H	1.185991	0.305212	-0.137259
C53	C	1.258302	0.271984	0.561178
C54	C	1.328318	0.225726	0.660845
H55	H	1.204158	0.307738	0.613212
H56	H	1.313607	0.300434	0.501381
H57	H	1.209638	0.239150	0.501363
H58	H	1.376989	0.258560	0.720653
H59	H	1.273006	0.197274	0.720667
H60	H	1.640641	-0.058569	0.381583
C61	C	1.800247	-0.254863	-0.000089
C62	C	1.693464	-0.300273	-0.000107
H63	H	1.873502	-0.288464	-0.000073
H64	H	1.799849	-0.222670	-0.085032
H65	H	1.799817	-0.222669	0.084866
H66	H	1.693889	-0.332463	-0.085068
H67	H	1.693862	-0.332479	0.084844
C68	C	1.230135	-0.345802	-0.000098
C69	C	1.217047	-0.263713	-0.000106
H70	H	1.149376	-0.367580	-0.000080
H71	H	1.274938	-0.362749	-0.085045
H72	H	1.274951	-0.362747	0.084853
H73	H	1.172239	-0.246768	-0.085063
H74	H	1.172225	-0.246759	0.084849
H75	H	0.870926	0.292254	0.105003
C76	C	0.798566	-0.042200	-0.125364
C77	C	0.873533	-0.036603	-0.000121
H78	H	0.759056	-0.091246	-0.125371
H79	H	0.736327	-0.000765	-0.125371
H80	H	0.849483	-0.038396	-0.210291
H81	H	0.822614	-0.040401	0.084806
H82	H	0.935780	-0.078049	-0.000101
C83	C	1.224920	-0.035165	-0.125235
C84	C	1.148985	-0.032054	-0.000035
H85	H	1.274446	-0.082738	-0.125199
H86	H	1.173445	-0.033060	-0.210182
H87	H	1.278381	0.008188	-0.125217
H88	H	1.095517	-0.075404	-0.000059
H89	H	1.200465	-0.034166	0.084934
H90	H	1.328847	-0.483623	-0.000138
H91	H	1.077829	0.301726	0.101811
C92	C	1.168878	-0.106849	-0.125325
C93	C	1.240255	-0.092395	-0.000104
H94	H	1.095619	-0.073252	-0.125318
H95	H	1.217318	-0.097048	-0.210257
H96	H	1.145272	-0.160049	-0.125306
H97	H	1.263869	-0.039196	-0.000128
H98	H	1.191805	-0.102190	0.084851
C99	C	1.875560	0.044159	0.473178
C100	C	1.793149	0.027275	0.358967
H101	H	1.953028	0.060030	0.433521
H102	H	1.839721	0.085291	0.531727
H103	H	1.889838	-0.001401	0.531727
H104	H	1.778865	0.072837	0.300423
H105	H	1.828996	-0.013860	0.300393
C106	C	1.587704	-0.125541	0.526526
C107	C	1.619405	-0.075167	0.640745
H108	H	1.557931	-0.172906	0.566174
H109	H	1.523909	-0.100881	0.468003
H110	H	1.659785	-0.137009	0.467953
H111	H	1.547322	-0.063694	0.699313
H112	H	1.683205	-0.099832	0.699293
H113	H	1.682764	-0.138109	-0.000098
C114	C	1.866925	-0.566754	-0.000134
C115	C	1.774510	-0.506061	-0.000127
H116	H	1.947680	-0.544971	-0.000136
H117	H	1.857886	-0.598226	0.084804
H118	H	1.857892	-0.598220	-0.085093
H119	H	1.783536	-0.474598	0.084838
H120	H	1.783552	-0.474576	-0.085074
H121	H	1.765419	0.014955	0.618141
H122	H	1.308794	-0.631674	-0.000105
C123	C	1.751888	-0.724826	-0.125382
C124	C	1.751313	-0.677377	-0.000151
H125	H	1.825150	-0.758419	-0.125396
H126	H	1.679445	-0.755620	-0.125365
H127	H	1.751479	-0.692614	-0.210317
H128	H	1.751712	-0.709589	0.084785
H129	H	1.823775	-0.646579	-0.000154
H130	H	1.643941	-0.382273	-0.000169
H131	H	1.347615	-0.387514	-0.000119
H132	H	1.351046	0.210718	0.360818
