data_functionalizedCrystal
_audit_creation_method	'MofGen! by Chris Wilmer'
_symmetry_space_group_name_H-M	'P1'
_symmetry_Int_Tables_number	1
_symmetry_cell_setting	triclinic
loop_
_symmetry_equiv_pos_as_xyz
  x,y,z
_cell_length_a	6.817900
_cell_length_b	14.858565
_cell_length_c	10.943624
_cell_angle_alpha	93.396226
_cell_angle_beta	108.838799
_cell_angle_gamma	104.523916
loop_
_atom_site_label
_atom_site_type_symbol
_atom_site_fract_x
_atom_site_fract_y
_atom_site_fract_z
V1	V	-4.093440	-0.128646	-0.402911
O2	O	-4.074268	0.006207	-0.394871
O3	O	-4.049710	-0.255107	-0.400512
O4	O	-4.071744	-0.126656	-0.578472
O5	O	-4.052082	-0.123133	-0.215679
V6	V	-4.573003	-0.112517	-0.380473
O7	O	-4.363386	-0.164025	-0.452130
O8	O	-4.753254	-0.077137	-0.331254
O9	O	-4.393526	0.013944	-0.382873
O10	O	-4.709572	-0.247370	-0.388514
O11	O	-4.731758	-0.118029	-0.567706
O12	O	-4.371493	-0.114507	-0.204912
C13	C	-3.894983	-0.285936	-0.394248
C14	C	-3.940693	-0.389319	-0.393456
C15	C	-4.108001	-0.767890	-0.390576
C16	C	-4.061442	-0.662560	-0.391376
C17	C	-4.024347	-0.578608	-0.392015
C18	C	-3.977788	-0.473271	-0.392818
C19	C	-3.923088	-0.122082	-0.621252
C20	C	-3.986663	-0.121292	-0.764776
C21	C	-3.832405	-0.115971	-0.841909
C22	C	-4.008224	-0.194950	-0.948120
C23	C	-3.924150	-0.040915	-0.914302
C24	C	-4.161680	-0.200345	-0.869111
C25	C	-4.077537	-0.046240	-0.835269
C26	C	-4.253489	-0.125241	-0.941451
C27	C	-4.211595	0.044768	-0.389133
C28	C	-4.145124	0.148151	-0.389933
C29	C	-4.183490	-0.119083	-0.162126
C30	C	-4.099153	-0.119869	-0.018600
H31	H	-3.653858	-0.112158	-0.798450
O32	O	-4.111285	0.028866	-0.776639
C33	C	-4.023518	0.197772	-0.732479
C34	C	-3.985090	0.112790	-0.798919
H35	H	-3.921548	0.265645	-0.750491
H36	H	-3.975721	0.196095	-0.622917
H37	H	-4.201881	0.194483	-0.774921
H38	H	-3.806757	0.116024	-0.756582
H39	H	-4.033031	0.114497	-0.908477
O40	O	-3.805219	0.039406	-0.939020
C41	C	-3.733858	0.130578	-1.102843
C42	C	-3.868679	0.039571	-1.075041
H43	H	-3.785147	0.130750	-1.212812
H44	H	-3.555043	0.134415	-1.061857
H45	H	-3.761674	0.193981	-1.054421
H46	H	-3.841047	-0.023883	-1.123458
H47	H	-4.047447	0.035817	-1.115998
O48	O	-3.973679	-0.269872	-1.006651
C49	C	-3.713567	-0.349754	-1.021999
C50	C	-3.752396	-0.264854	-0.955641
H51	H	-3.534674	-0.345736	-0.980764
H52	H	-3.764085	-0.348804	-1.131792
H53	H	-3.813251	-0.417620	-1.002504
H54	H	-3.652729	-0.196945	-0.975034
H55	H	-3.701942	-0.265887	-0.845869
H56	H	-4.261498	-0.267798	-0.848755
H57	H	-4.432128	-0.129179	-0.984706
