data_functionalizedCrystal
_audit_creation_method	'MofGen! by Chris Wilmer'
_symmetry_space_group_name_H-M	'P1'
_symmetry_Int_Tables_number	1
_symmetry_cell_setting	triclinic
loop_
_symmetry_equiv_pos_as_xyz
  x,y,z
_cell_length_a	17.019383
_cell_length_b	17.019294
_cell_length_c	13.596369
_cell_angle_alpha	86.115041
_cell_angle_beta	86.118699
_cell_angle_gamma	83.133350
loop_
_atom_site_label
_atom_site_type_symbol
_atom_site_fract_x
_atom_site_fract_y
_atom_site_fract_z
O1	O	1.046555	0.100560	-0.178861
O2	O	0.816878	0.113362	-0.160513
O3	O	0.938124	-0.007879	-0.160498
O4	O	0.925309	0.221801	-0.178876
O5	O	0.938112	-0.007885	0.003087
O6	O	0.816866	0.113356	0.003072
O7	O	1.046543	0.100553	-0.015276
Zn8	Zn	0.931703	0.106953	0.019870
Zn9	Zn	0.931718	0.106962	-0.195659
O10	O	0.925297	0.221794	-0.015291
C11	C	0.787484	0.112871	-0.076193
C12	C	0.699916	0.111409	-0.068660
C13	C	0.937632	-0.037271	-0.076176
C14	C	0.936174	-0.124840	-0.068639
C15	C	0.658776	0.110727	-0.154284
C16	C	0.576495	0.109366	-0.147193
C17	C	0.535357	0.108680	-0.054476
C18	C	0.576503	0.109364	0.031154
C19	C	0.658781	0.110732	0.024061
C20	C	0.286929	0.104558	-0.028600
C21	C	0.204645	0.103188	-0.021514
C22	C	0.204643	0.103191	-0.199861
C23	C	0.286924	0.104553	-0.206946
C24	C	0.328062	0.105242	-0.121316
C25	C	0.451253	0.107286	-0.047225
C26	C	0.412163	0.106641	-0.128568
C27	C	0.935497	-0.165972	-0.154267
C28	C	0.934123	-0.248252	-0.147182
C29	C	0.933430	-0.289399	-0.054467
C30	C	0.934104	-0.248260	0.031168
C31	C	0.935473	-0.165981	0.024082
C32	C	0.929291	-0.537828	-0.028610
C33	C	0.927924	-0.620113	-0.021531
C34	C	0.927941	-0.620098	-0.199881
C35	C	0.929315	-0.537818	-0.206959
C36	C	0.929985	-0.496687	-0.121324
C37	C	0.932027	-0.373502	-0.047223
C38	C	0.931382	-0.412584	-0.128569
C39	C	1.075937	0.101044	-0.099599
C40	C	1.163505	0.102507	-0.107138
C41	C	0.925789	0.251186	-0.099615
C42	C	0.927247	0.338755	-0.107159
N43	N	0.931697	0.106947	0.166963
N44	N	0.931730	0.106962	-0.342752
C45	C	0.931717	0.106963	0.568251
C46	C	0.931710	0.106961	0.456600
C47	C	0.931708	0.106956	0.367610
C48	C	0.931699	0.106953	0.255953
H49	H	0.692265	0.111283	-0.229784
Cl50	Cl	0.524785	0.108509	0.147712
Cl51	Cl	0.524780	0.108510	-0.254840
Cl52	Cl	0.399530	0.106423	0.069329
H53	H	0.320414	0.105106	-0.282445
Cl54	Cl	0.936373	-0.114253	-0.270829
Cl55	Cl	0.927058	-0.671840	0.095033
H56	H	0.927394	-0.653596	-0.269600
H57	H	0.936013	-0.132491	0.093810
H58	H	0.931466	-0.407013	0.028266
H59	H	0.171139	0.102633	-0.269576
Cl60	Cl	0.933274	-0.299958	-0.254834
H61	H	0.320414	0.105113	0.041126
Cl62	Cl	0.152931	0.102310	0.095054
Cl63	Cl	0.930187	-0.486097	-0.323519
H64	H	0.929852	-0.504350	0.041119
Cl65	Cl	0.932257	-0.360856	-0.245121
H66	H	0.692276	0.111290	0.093785
Cl67	Cl	0.463881	0.107505	-0.245122
Cl68	Cl	0.933224	-0.299987	0.147725
