data_functionalizedCrystal
_audit_creation_method	'MofGen! by Chris Wilmer'
_symmetry_space_group_name_H-M	'P1'
_symmetry_Int_Tables_number	1
_symmetry_cell_setting	triclinic
loop_
_symmetry_equiv_pos_as_xyz
  x,y,z
_cell_length_a	27.732048
_cell_length_b	27.732048
_cell_length_c	26.210047
_cell_angle_alpha	90.000479
_cell_angle_beta	90.003465
_cell_angle_gamma	82.642655
loop_
_atom_site_label
_atom_site_type_symbol
_atom_site_fract_x
_atom_site_fract_y
_atom_site_fract_z
O1	O	-0.640931	-0.057510	-0.042369
O2	O	-0.140931	0.442490	0.457631
O3	O	-0.500138	-0.066256	-0.042385
O4	O	-0.000138	0.433744	0.457615
O5	O	-0.574907	0.008514	-0.042367
O6	O	-0.074907	0.508514	0.457633
O7	O	-0.566162	-0.132279	-0.042387
O8	O	-0.066162	0.367721	0.457613
O9	O	-0.574893	0.008502	0.042491
O10	O	-0.074893	0.508502	0.542491
O11	O	-0.500123	-0.066267	0.042473
O12	O	-0.000123	0.433733	0.542473
O13	O	-0.640917	-0.057522	0.042489
O14	O	-0.140917	0.442478	0.542489
Cu15	Cu	-0.570519	-0.061896	0.050229
Cu16	Cu	-0.070519	0.438104	0.550229
Cu17	Cu	-0.570536	-0.061882	-0.050125
Cu18	Cu	-0.070536	0.438118	0.449875
O19	O	-0.566147	-0.132291	0.042471
O20	O	-0.066147	0.367709	0.542471
C21	C	-0.574716	0.026515	0.000064
C22	C	-0.074716	0.526515	0.500064
C23	C	-0.574164	0.080170	0.000068
C24	C	-0.074164	0.580170	0.500068
C25	C	-0.482124	-0.066078	0.000042
C26	C	0.017876	0.433922	0.500042
C27	C	-0.428469	-0.065525	0.000036
C28	C	0.071531	0.434475	0.500036
C29	C	-0.658931	-0.057699	0.000061
C30	C	-0.158931	0.442301	0.500061
C31	C	-0.712586	-0.058252	0.000064
C32	C	-0.212586	0.441748	0.500064
C33	C	-0.089654	-0.106229	0.000053
C34	C	0.410346	0.393771	0.500053
C35	C	0.112006	-0.104178	0.000057
C36	C	0.612006	0.395822	0.500057
O37	O	0.143262	-0.141398	0.000074
O38	O	0.643262	0.358602	0.500074
N39	N	0.131130	-0.059843	0.000063
N40	N	0.631130	0.440157	0.500063
C41	C	0.099835	-0.016017	0.000071
C42	C	0.599835	0.483983	0.500071
O43	O	0.120728	0.021740	0.000081
O44	O	0.620728	0.521740	0.500081
C45	C	-0.101824	-0.018068	0.000069
C46	C	0.398176	0.481932	0.500069
C47	C	-0.120944	-0.062407	0.000059
C48	C	0.379056	0.437593	0.500059
C49	C	-0.108775	-0.150563	0.000043
C50	C	0.391225	0.349437	0.500043
C51	C	-0.159187	-0.151076	0.000039
C52	C	0.340813	0.348924	0.500039
C53	C	-0.190477	-0.107253	0.000045
C54	C	0.309523	0.392747	0.500045
C55	C	-0.171356	-0.062919	0.000055
C56	C	0.328644	0.437081	0.500055
C57	C	-0.133117	0.025757	0.000081
C58	C	0.366883	0.525757	0.500081
C59	C	-0.183535	0.025240	0.000082
C60	C	0.316465	0.525240	0.500082
C61	C	-0.202655	-0.019098	0.000071
C62	C	0.297345	0.480902	0.500071
C63	C	-0.253059	-0.019609	0.000057
C64	C	0.246941	0.480391	0.500057
N65	N	-0.272183	-0.063944	0.000051
N66	N	0.227817	0.436056	0.500051
C67	C	-0.240892	-0.107766	0.000045
C68	C	0.259108	0.392234	0.500045
C69	C	0.205709	-0.014943	0.000070
C70	C	0.705709	0.485057	0.500070
C71	C	0.256124	-0.014430	0.000070
C72	C	0.756124	0.485570	0.500070
C73	C	0.268291	-0.102591	0.000057
C74	C	0.768291	0.397409	0.500057
C75	C	0.217876	-0.103104	0.000054
C76	C	0.717876	0.396896	0.500054
C77	C	0.186585	-0.059278	0.000065
C78	C	0.686585	0.440722	0.500065
C79	C	-0.346761	-0.108839	0.000036
C80	C	0.153239	0.391161	0.500036
C81	C	-0.397178	-0.109347	0.000030
C82	C	0.102822	0.390653	0.500030
C83	C	-0.409341	-0.021186	0.000045
C84	C	0.090659	0.478814	0.500045
C85	C	-0.358929	-0.020678	0.000049
C86	C	0.141071	0.479322	0.500049
C87	C	-0.327639	-0.064508	0.000046
C88	C	0.172361	0.435492	0.500046
O89	O	-0.284343	0.017592	0.000046
O90	O	0.215657	0.517592	0.500046
O91	O	-0.261794	-0.145518	0.000047
O92	O	0.238206	0.354482	0.500047
C93	C	-0.039242	-0.105716	0.000057
C94	C	0.460758	0.394284	0.500057
C95	C	-0.020120	-0.061382	0.000067
C96	C	0.479880	0.438618	0.500067
C97	C	-0.051411	-0.017560	0.000073
C98	C	0.448589	0.482440	0.500073
C99	C	0.030294	-0.060869	0.000066
C100	C	0.530294	0.439131	0.500066
C101	C	0.061585	-0.104691	0.000060
C102	C	0.561585	0.395309	0.500060
C103	C	0.042461	-0.149026	0.000054
C104	C	0.542461	0.350974	0.500054
C105	C	-0.007951	-0.149539	0.000050
C106	C	0.492049	0.350461	0.500050
C107	C	-0.032287	0.026775	0.000078
C108	C	0.467713	0.526775	0.500078
C109	C	0.018125	0.027284	0.000082
C110	C	0.518125	0.527284	0.500082
C111	C	0.049416	-0.016538	0.000076
C112	C	0.549416	0.483462	0.500076
C113	C	-0.566338	-0.150292	0.000040
C114	C	-0.066338	0.349708	0.500040
C115	C	-0.566891	-0.203947	0.000032
C116	C	-0.066891	0.296053	0.500032
N117	N	-0.570510	-0.061905	0.120813
N118	N	-0.070510	0.438095	0.620813
C119	C	-0.614867	0.418985	0.000046
C120	C	-0.114867	0.918985	0.500046
C121	C	-0.612816	0.620645	0.000039
C122	C	-0.112816	1.120645	0.500039
O123	O	-0.650037	0.651900	0.000021
O124	O	-0.150037	1.151900	0.500021
N125	N	-0.568481	0.639768	0.000034
N126	N	-0.068481	1.139768	0.500034
C127	C	-0.524656	0.608474	0.000028
C128	C	-0.024656	1.108474	0.500028
O129	O	-0.486899	0.629367	0.000019
O130	O	0.013101	1.129367	0.500019
C131	C	-0.526707	0.406815	0.000032
C132	C	-0.026707	0.906815	0.500032
C133	C	-0.571045	0.387694	0.000042
C134	C	-0.071045	0.887694	0.500042
C135	C	-0.659202	0.399864	0.000056
C136	C	-0.159202	0.899864	0.500056
C137	C	-0.659714	0.349452	0.000060
C138	C	-0.159714	0.849452	0.500060
C139	C	-0.615892	0.318161	0.000056
C140	C	-0.115892	0.818161	0.500056
C141	C	-0.571557	0.337282	0.000046
C142	C	-0.071557	0.837282	0.500046
C143	C	-0.482882	0.375521	0.000022
C144	C	0.017118	0.875521	0.500022
C145	C	-0.483399	0.325104	0.000022
C146	C	0.016601	0.825104	0.500022
C147	C	-0.527737	0.305983	0.000032
C148	C	-0.027737	0.805983	0.500032
C149	C	-0.528247	0.255580	0.000046
C150	C	-0.028247	0.755580	0.500046
N151	N	-0.572583	0.236456	0.000051
N152	N	-0.072583	0.736456	0.500051
C153	C	-0.616405	0.267747	0.000056
C154	C	-0.116405	0.767747	0.500056
C155	C	-0.523582	0.714348	0.000027
C156	C	-0.023582	1.214348	0.500027
C157	C	-0.523069	0.764762	0.000027
C158	C	-0.023069	1.264762	0.500027
C159	C	-0.611230	0.776930	0.000037
C160	C	-0.111230	1.276930	0.500037
C161	C	-0.611742	0.726514	0.000041
C162	C	-0.111742	1.226514	0.500041
C163	C	-0.567917	0.695224	0.000032
C164	C	-0.067917	1.195224	0.500032
C165	C	-0.617477	0.161878	0.000066
C166	C	-0.117477	0.661878	0.500066
C167	C	-0.617986	0.111461	0.000073
C168	C	-0.117986	0.611461	0.500073
C169	C	-0.529825	0.099298	0.000060
C170	C	-0.029825	0.599298	0.500060
C171	C	-0.529316	0.149710	0.000056
C172	C	-0.029316	0.649710	0.500056
C173	C	-0.573147	0.180999	0.000057
C174	C	-0.073147	0.680999	0.500057
O175	O	-0.491047	0.224296	0.000059
O176	O	0.008953	0.724296	0.500059
O177	O	-0.654156	0.246844	0.000054
O178	O	-0.154156	0.746844	0.500054
C179	C	-0.614355	0.469397	0.000042
C180	C	-0.114355	0.969397	0.500042
C181	C	-0.570021	0.488518	0.000033
C182	C	-0.070021	0.988518	0.500033
C183	C	-0.526198	0.457228	0.000028
C184	C	-0.026198	0.957228	0.500028
C185	C	-0.569508	0.538933	0.000033
C186	C	-0.069508	1.038933	0.500033
C187	C	-0.613330	0.570223	0.000037
C188	C	-0.113330	1.070223	0.500037
C189	C	-0.657665	0.551100	0.000042
C190	C	-0.157665	1.051100	0.500042
C191	C	-0.658177	0.500688	0.000046
C192	C	-0.158177	1.000688	0.500046
C193	C	-0.481863	0.476351	0.000023
C194	C	0.018137	0.976351	0.500023
C195	C	-0.481355	0.526764	0.000019
C196	C	0.018645	1.026764	0.500019
C197	C	-0.525177	0.558054	0.000024
C198	C	-0.025177	1.058054	0.500024
N199	N	-0.570548	-0.061868	-0.120709
N200	N	-0.070548	0.438132	0.379291
C201	C	-0.603640	-0.028781	0.473336
C202	C	-0.103640	0.471219	0.973336
C203	C	-0.603651	-0.028774	0.686994
C204	C	-0.103651	0.471226	1.186994
O205	O	-0.631801	-0.000614	0.714623
O206	O	-0.131801	0.499386	1.214623
N207	N	-0.570538	-0.061871	0.713707
N208	N	-0.070538	0.438129	1.213707
C209	C	-0.537419	-0.094970	0.687003
C210	C	-0.037419	0.405030	1.187003
O211	O	-0.509251	-0.123117	0.714626
O212	O	-0.009251	0.376883	1.214626
C213	C	-0.537406	-0.094974	0.473345
C214	C	-0.037406	0.405026	0.973345
C215	C	-0.570524	-0.061878	0.446635
C216	C	-0.070524	0.438122	0.946635
C217	C	-0.636755	0.004312	0.446625
C218	C	-0.136755	0.504312	0.946625
C219	C	-0.636754	0.004308	0.393214
C220	C	-0.136754	0.504308	0.893214
C221	C	-0.603638	-0.028789	0.366513
C222	C	-0.103638	0.471211	0.866513
C223	C	-0.570523	-0.061882	0.393223
C224	C	-0.070523	0.438118	0.893223
C225	C	-0.504284	-0.128070	0.446641
C226	C	-0.004284	0.371930	0.946641
C227	C	-0.504283	-0.128067	0.393223
C228	C	-0.004283	0.371933	0.893223
C229	C	-0.537401	-0.094971	0.366513
C230	C	-0.037401	0.405029	0.866513
C231	C	-0.537405	-0.094983	0.313111
C232	C	-0.037405	0.405017	0.813111
N233	N	-0.570518	-0.061886	0.286397
N234	N	-0.070518	0.438114	0.786397
C235	C	-0.603634	-0.028789	0.313098
C236	C	-0.103634	0.471211	0.813098
C237	C	-0.537428	-0.094966	0.799176
C238	C	-0.037428	0.405034	1.299176
C239	C	-0.537432	-0.094965	0.852590
C240	C	-0.037432	0.405035	1.352590
C241	C	-0.603664	-0.028769	0.852578
C242	C	-0.103664	0.471231	1.352578
C243	C	-0.603662	-0.028773	0.799163
C244	C	-0.103662	0.471227	1.299163
C245	C	-0.570541	-0.061869	0.772463
C246	C	-0.070541	0.438131	1.272463
C247	C	-0.603629	-0.028800	0.200931
C248	C	-0.103629	0.471200	0.700931
C249	C	-0.603626	-0.028808	0.147514
C250	C	-0.103626	0.471192	0.647514
C251	C	-0.537393	-0.095002	0.147531
C252	C	-0.037393	0.404998	0.647531
C253	C	-0.537397	-0.094996	0.200943
C254	C	-0.037397	0.405004	0.700943
C255	C	-0.570517	-0.061891	0.227641
C256	C	-0.070517	0.438109	0.727641
O257	O	-0.509267	-0.123125	0.285449
O258	O	-0.009267	0.376875	0.785449
O259	O	-0.631790	-0.000639	0.285466
O260	O	-0.131790	0.499361	0.785466
C261	C	-0.603641	-0.028777	0.526747
C262	C	-0.103641	0.471223	1.026747
C263	C	-0.570527	-0.061871	0.553457
C264	C	-0.070527	0.438129	1.053457
C265	C	-0.537410	-0.094968	0.526756
C266	C	-0.037410	0.405032	1.026756
C267	C	-0.570530	-0.061870	0.606872
C268	C	-0.070530	0.438130	1.106872
C269	C	-0.603646	-0.028773	0.633573
C270	C	-0.103646	0.471227	1.133573
C271	C	-0.636759	0.004323	0.606859
C272	C	-0.136759	0.504323	1.106859
C273	C	-0.636758	0.004320	0.553448
C274	C	-0.136758	0.504320	1.053448
C275	C	-0.504298	-0.128064	0.553470
C276	C	-0.004298	0.371936	1.053470
C277	C	-0.504302	-0.128058	0.606881
C278	C	-0.004302	0.371942	1.106881
C279	C	-0.537418	-0.094961	0.633582
C280	C	-0.037418	0.405039	1.133582
H281	H	-0.412743	-0.145454	0.000021
H282	H	0.087257	0.354546	0.500021
O283	O	-0.660097	0.192199	0.000092
O284	O	-0.160097	0.692199	0.500092
C285	C	-0.699333	0.164502	0.000088
C286	C	-0.199333	0.664502	0.500088
H287	H	-0.686766	0.126783	0.016153
H288	H	-0.186766	0.626783	0.516153
H289	H	-0.730011	0.183320	0.024730
H290	H	-0.230011	0.683320	0.524730
H291	H	-0.712949	0.161008	-0.040620
H292	H	-0.212949	0.661008	0.459380
O293	O	-0.439260	0.446009	-0.000046
O294	O	0.060740	0.946009	0.499954
C295	C	-0.412330	0.454618	-0.044004
C296	C	0.087670	0.954618	0.455996
H297	H	-0.424500	0.492949	-0.058661
H298	H	0.075500	0.992949	0.441339
H299	H	-0.371987	0.450785	-0.034120
H300	H	0.128013	0.950785	0.465880
H301	H	-0.418726	0.427082	-0.074774
H302	H	0.081274	0.927082	0.425226
H303	H	-0.663722	0.031266	0.468360
H304	H	-0.163722	0.531266	0.968360
H305	H	-0.630597	-0.001858	0.125768
H306	H	-0.130597	0.498142	0.625768
O307	O	-0.440857	0.294661	0.000082
O308	O	0.059143	0.794661	0.500082
C309	C	-0.438497	0.265145	0.044039
C310	C	0.061503	0.765145	0.544039
H311	H	-0.476841	0.262873	0.058699
H312	H	0.023159	0.762873	0.558699
H313	H	-0.420201	0.227119	0.034154
H314	H	0.079799	0.727119	0.534154
H315	H	-0.416541	0.281575	0.074808
H316	H	0.083459	0.781575	0.574808
O317	O	-0.635898	0.003336	0.878497
O318	O	-0.135898	0.503336	1.378497
C319	C	-0.683690	-0.004175	0.865436
C320	C	-0.183690	0.495825	1.365436
H321	H	-0.683643	-0.042874	0.850749
H322	H	-0.183643	0.457126	1.350749
H323	H	-0.707987	0.001554	0.900563
H324	H	-0.207987	0.501554	1.400563
H325	H	-0.698087	0.022720	0.834433
H326	H	-0.198087	0.522720	1.334433
O327	O	0.072793	-0.191640	0.000026
O328	O	0.572793	0.308360	0.500026
C329	C	0.045112	-0.230887	0.000033
C330	C	0.545112	0.269113	0.500033
H331	H	0.007389	-0.218335	-0.016034
H332	H	0.507389	0.281665	0.483966
H333	H	0.063939	-0.261564	-0.024606
H334	H	0.563939	0.238436	0.475394
H335	H	0.041624	-0.244500	0.040742
H336	H	0.541624	0.255500	0.540742
H337	H	-0.083302	-0.186251	0.000039
H338	H	0.416698	0.313749	0.500039
H339	H	0.033688	0.063392	0.000086
H340	H	0.533688	0.563392	0.500086
H341	H	-0.477330	-0.155015	0.531734
H342	H	0.022670	0.344985	1.031734
O343	O	-0.668829	0.036553	0.527487
O344	O	-0.168829	0.536553	1.027487
C345	C	-0.643110	0.066201	0.496657
C346	C	-0.143110	0.566201	0.996657
H347	H	-0.605173	0.046630	0.488616
H348	H	-0.105173	0.546630	0.988616
H349	H	-0.663343	0.074092	0.459111
H350	H	-0.163343	0.574092	0.959111
H351	H	-0.640016	0.101853	0.517311
H352	H	-0.140016	0.601853	1.017311
H353	H	-0.695819	0.333889	0.000066
H354	H	-0.195819	0.833889	0.500066
O355	O	-0.472157	-0.160286	0.367311
O356	O	0.027843	0.339714	0.867311
C357	C	-0.479646	-0.208083	0.380377
C358	C	0.020354	0.291917	0.880377
H359	H	-0.518344	-0.208053	0.395055
H360	H	-0.018344	0.291947	0.895055
H361	H	-0.473900	-0.232386	0.345253
H362	H	0.026100	0.267614	0.845253
H363	H	-0.452749	-0.222461	0.411387
H364	H	0.047251	0.277539	0.911387
H365	H	-0.493213	0.165279	0.000062
H366	H	0.006787	0.665279	0.500062
O367	O	-0.701819	0.430187	0.000085
O368	O	-0.201819	0.930187	0.500085
C369	C	-0.741053	0.402488	0.000079
C370	C	-0.241053	0.902488	0.500079
H371	H	-0.728484	0.364768	0.016140
H372	H	-0.228484	0.864768	0.516140
H373	H	-0.771731	0.421302	0.024723
H374	H	-0.271731	0.921302	0.524723
H375	H	-0.754671	0.398998	-0.040629
H376	H	-0.254671	0.898998	0.459371
O377	O	-0.340432	0.022434	0.000075
O378	O	0.159568	0.522434	0.500075
C379	C	-0.378864	0.061002	0.000062
C380	C	0.121136	0.561002	0.500062
H381	H	-0.413017	0.047711	0.016121
H382	H	0.086983	0.547711	0.516121
H383	H	-0.368555	0.091977	0.024703
H384	H	0.131445	0.591977	0.524703
H385	H	-0.386095	0.074504	-0.040648
H386	H	0.113905	0.574504	0.459352
H387	H	-0.510456	-0.121918	0.777440
H388	H	-0.010456	0.378082	1.277440
O389	O	-0.439769	0.394007	-0.000012
O390	O	0.060231	0.894007	0.499988
C391	C	-0.401207	0.355569	-0.000007
C392	C	0.098793	0.855569	0.499993
H393	H	-0.414507	0.321419	-0.016066
H394	H	0.085493	0.821419	0.483934
H395	H	-0.370234	0.365871	-0.024652
H396	H	0.129766	0.865871	0.475348
H397	H	-0.387697	0.348335	0.040701
H398	H	0.112303	0.848335	0.540701
H399	H	-0.630598	-0.001842	0.222662
H400	H	-0.130598	0.498158	0.722662
H401	H	-0.477317	-0.155019	0.468381
H402	H	0.022683	0.344981	0.968381
O403	O	-0.654854	0.708023	0.000023
O404	O	-0.154854	1.208023	0.500023
C405	C	-0.693419	0.746458	0.000041
C406	C	-0.193419	1.246458	0.500041
H407	H	-0.680129	0.780610	-0.016023
H408	H	-0.180129	1.280610	0.483977
H409	H	-0.724402	0.736153	-0.024594
H410	H	-0.224402	1.236153	0.475406
H411	H	-0.706912	0.753689	0.040753
H412	H	-0.206912	1.253689	0.540753
O413	O	-0.505198	-0.127070	0.878511
O414	O	-0.005198	0.372930	1.378511
C415	C	-0.457410	-0.119547	0.865451
C416	C	0.042590	0.380453	1.365451
H417	H	-0.457467	-0.080845	0.850770
H418	H	0.042533	0.419155	1.350770
H419	H	-0.433108	-0.125275	0.900578
H420	H	0.066892	0.374725	1.400578
H421	H	-0.443011	-0.146436	0.834445
H422	H	0.056989	0.353564	1.334445
O423	O	-0.479956	0.783252	0.000001
O424	O	0.020044	1.283252	0.500001
C425	C	-0.441391	0.744818	0.000009
C426	C	0.058609	1.244818	0.500009
H427	H	-0.454686	0.710667	-0.016054
H428	H	0.045314	1.210667	0.483946
H429	H	-0.410417	0.755124	-0.024633
H430	H	0.089583	1.255124	0.475367
H431	H	-0.427885	0.737584	0.040717
H432	H	0.072115	1.237584	0.540717
O433	O	-0.505181	-0.127162	0.226813
O434	O	-0.005181	0.372838	0.726813
C435	C	-0.475960	-0.156383	0.191789
C436	C	0.024040	0.343617	0.691789
H437	H	-0.475570	-0.136573	0.153710
H438	H	0.024430	0.363427	0.653710
H439	H	-0.437301	-0.164016	0.207221
H440	H	0.062699	0.335984	0.707221
H441	H	-0.491380	-0.192189	0.186116
H442	H	0.008620	0.307811	0.686116
H443	H	0.202311	-0.139207	0.000049
H444	H	0.702311	0.360793	0.500049
O445	O	-0.505290	-0.127169	0.121531
O446	O	-0.005290	0.372831	0.621531
C447	C	-0.530949	-0.156822	0.090640
C448	C	-0.030949	0.343178	0.590640
H449	H	-0.568920	-0.137313	0.082639
H450	H	-0.068920	0.362687	0.582639
H451	H	-0.510717	-0.164601	0.053079
H452	H	-0.010717	0.335399	0.553079
H453	H	-0.533957	-0.192530	0.111221
H454	H	-0.033957	0.307470	0.611221
O455	O	0.298760	-0.145116	0.000075
O456	O	0.798760	0.354884	0.500075
C457	C	0.347355	-0.135150	0.000063
C458	C	0.847355	0.364850	0.500063
H459	H	0.349006	-0.097197	0.016130
H460	H	0.849006	0.402803	0.516130
H461	H	0.370407	-0.163105	0.024699
H462	H	0.870407	0.336895	0.524699
H463	H	0.361948	-0.137091	-0.040647
H464	H	0.861948	0.362909	0.459353
H465	H	-0.646911	0.802415	0.000041
H466	H	-0.146911	1.302415	0.500041
O467	O	0.274614	0.028683	0.000097
O468	O	0.774614	0.528683	0.500097
C469	C	0.236179	0.067248	0.000090
C470	C	0.736179	0.567248	0.500090
H471	H	0.202029	0.053953	0.016153
H472	H	0.702029	0.553953	0.516153
H473	H	0.246488	0.098223	0.024732
H474	H	0.746488	0.598223	0.524732
H475	H	0.228942	0.080752	-0.040618
H476	H	0.728942	0.580752	0.459382
H477	H	-0.434827	0.014492	0.000048
H478	H	0.065173	0.514492	0.500048
H479	H	-0.023514	-0.185643	0.000042
H480	H	0.476486	0.314357	0.500042
H481	H	-0.663725	0.031271	0.628608
H482	H	-0.163725	0.531271	1.128608
O483	O	-0.177676	-0.194189	0.000057
O484	O	0.322324	0.305811	0.500057
C485	C	-0.139240	-0.232752	0.000041
C486	C	0.360760	0.267248	0.500041
H487	H	-0.105088	-0.219458	0.016106
H488	H	0.394912	0.280542	0.516106
H489	H	-0.149542	-0.263733	0.024677
H490	H	0.350458	0.236267	0.524677
H491	H	-0.132009	-0.246248	-0.040670
H492	H	0.367991	0.253752	0.459330
O493	O	-0.635782	0.003457	0.773256
O494	O	-0.135782	0.503457	1.273256
C495	C	-0.628277	0.051244	0.786347
C496	C	-0.128277	0.551244	1.286347
H497	H	-0.589574	0.051196	0.801024
H498	H	-0.089574	0.551196	1.301024
H499	H	-0.634022	0.075564	0.751235
H500	H	-0.134022	0.575564	1.251235
H501	H	-0.655164	0.065616	0.817364
H502	H	-0.155164	0.565616	1.317364
O503	O	-0.472082	-0.160229	0.632745
O504	O	0.027918	0.339771	1.132745
C505	C	-0.442863	-0.189446	0.597718
C506	C	0.057137	0.310554	1.097718
H507	H	-0.442472	-0.169631	0.559642
H508	H	0.057528	0.330369	1.059642
H509	H	-0.404204	-0.197082	0.613148
H510	H	0.095796	0.302918	1.113148
H511	H	-0.458284	-0.225251	0.592039
H512	H	0.041716	0.274749	1.092039
H513	H	-0.057760	0.062462	0.000085
H514	H	0.442240	0.562462	0.500085
H515	H	-0.321291	-0.144530	0.000036
H516	H	0.178709	0.355470	0.500036
O517	O	-0.661028	0.092830	0.000012
O518	O	-0.161028	0.592830	0.500012
C519	C	-0.663976	0.064040	-0.043941
C520	C	-0.163976	0.564040	0.456059
H521	H	-0.625784	0.051201	-0.058596
H522	H	-0.125784	0.551201	0.441404
H523	H	-0.682993	0.031166	-0.034052
H524	H	-0.182993	0.531166	0.465948
H525	H	-0.685534	0.086472	-0.074715
H526	H	-0.185534	0.586472	0.425285
H527	H	-0.445246	0.542327	0.000016
H528	H	0.054754	1.042327	0.500016
O529	O	-0.487302	0.068828	0.000032
O530	O	0.012698	0.568828	0.500032
C531	C	-0.497268	0.020233	0.000048
C532	C	0.002732	0.520233	0.500048
H533	H	-0.535226	0.018582	-0.016008
H534	H	-0.035226	0.518582	0.483992
H535	H	-0.469321	-0.002817	-0.024594
H536	H	0.030679	0.497183	0.475406
H537	H	-0.495315	0.005638	0.040759
H538	H	0.004685	0.505638	0.540759
O539	O	0.175269	0.027601	0.000007
O540	O	0.675269	0.527601	0.500007
C541	C	0.145749	0.029956	-0.043949
C542	C	0.645749	0.529956	0.456051
H543	H	0.143471	-0.008390	-0.058603
H544	H	0.643471	0.491610	0.441397
H545	H	0.107726	0.048258	-0.034064
H546	H	0.607726	0.548258	0.465936
H547	H	0.162180	0.051904	-0.074722
H548	H	0.662180	0.551904	0.425278
H549	H	-0.117558	0.061861	0.000090
H550	H	0.382442	0.561861	0.500090
O551	O	-0.481039	0.683906	0.000090
O552	O	0.018961	1.183906	0.500090
C553	C	-0.478682	0.654388	0.044045
C554	C	0.021318	1.154388	0.544045
H555	H	-0.517027	0.652113	0.058700
H556	H	-0.017027	1.152113	0.558700
H557	H	-0.460382	0.616363	0.034159
H558	H	0.039618	1.116363	0.534159
H559	H	-0.456730	0.670818	0.074818
H560	H	0.043270	1.170818	0.574818
O561	O	-0.701290	0.482198	0.000030
O562	O	-0.201290	0.982198	0.500030
C563	C	-0.739853	0.520634	0.000045
C564	C	-0.239853	1.020634	0.500045
H565	H	-0.726561	0.554784	-0.016022
H566	H	-0.226561	1.054784	0.483978
H567	H	-0.770837	0.510330	-0.024588
H568	H	-0.270837	1.010330	0.475412
H569	H	-0.753345	0.527870	0.040757
H570	H	-0.253345	1.027870	0.540757
H571	H	-0.209009	0.060929	0.000091
H572	H	0.290991	0.560929	0.500091
H573	H	-0.693347	0.576585	0.000048
H574	H	-0.193347	1.076585	0.500048
O575	O	-0.668873	0.036587	0.367365
O576	O	-0.168873	0.536587	0.867365
C577	C	-0.661300	0.084335	0.380536
C578	C	-0.161300	0.584335	0.880536
H579	H	-0.622575	0.084218	0.395175
H580	H	-0.122575	0.584218	0.895175
H581	H	-0.667059	0.108721	0.345476
H582	H	-0.167059	0.608721	0.845476
H583	H	-0.688140	0.098678	0.411607
H584	H	-0.188140	0.598678	0.911607
