data_functionalizedCrystal
_audit_creation_method	'MofGen! by Chris Wilmer'
_symmetry_space_group_name_H-M	'P1'
_symmetry_Int_Tables_number	1
_symmetry_cell_setting	triclinic
loop_
_symmetry_equiv_pos_as_xyz
  x,y,z
_cell_length_a	18.050591
_cell_length_b	19.121063
_cell_length_c	18.050582
_cell_angle_alpha	92.415032
_cell_angle_beta	89.979078
_cell_angle_gamma	92.465257
loop_
_atom_site_label
_atom_site_type_symbol
_atom_site_fract_x
_atom_site_fract_y
_atom_site_fract_z
Zn1	Zn	1.122676	-0.279734	-0.432630
Zn2	Zn	1.622676	0.220266	0.067370
Zn3	Zn	1.117290	-0.397178	-0.313729
Zn4	Zn	1.617290	0.102822	0.186271
Zn5	Zn	0.998495	-0.279737	-0.308441
Zn6	Zn	1.498495	0.220263	0.191559
Zn7	Zn	0.993148	-0.397141	-0.437863
Zn8	Zn	1.493148	0.102859	0.062137
O9	O	1.057903	-0.338447	-0.373166
O10	O	1.557903	0.161553	0.126834
O11	O	1.225886	-0.295327	-0.416880
O12	O	1.725886	0.204673	0.083120
O13	O	1.101515	-0.381616	-0.209104
O14	O	1.601515	0.118384	0.290896
O15	O	1.019460	-0.181452	-0.320512
O16	O	1.519460	0.318548	0.179488
O17	O	1.221929	-0.381613	-0.329524
O18	O	1.721929	0.118387	0.170476
O19	O	1.110695	-0.181449	-0.411753
O20	O	1.610695	0.318551	0.088247
O21	O	1.014237	-0.295332	-0.205219
O22	O	1.514237	0.204668	0.294781
O23	O	0.893862	-0.295296	-0.325586
O24	O	1.393862	0.204704	0.174414
O25	O	1.010347	-0.381550	-0.541093
O26	O	1.510347	0.118450	-0.041093
O27	O	0.889934	-0.381552	-0.420672
O28	O	1.389934	0.118448	0.079328
O29	O	1.105510	-0.295291	-0.537248
O30	O	1.605510	0.204709	-0.037248
O31	O	1.096331	-0.495458	-0.334599
O32	O	1.596331	0.004542	0.165401
O33	O	1.005124	-0.495430	-0.425799
O34	O	1.505124	0.004570	0.074201
C35	C	0.864952	-0.338421	-0.373123
C36	C	1.364952	0.161579	0.126877
C37	C	0.782406	-0.338427	-0.373124
C38	C	1.282406	0.161573	0.126876
C39	C	0.585072	-0.291466	-0.321528
C40	C	1.085072	0.208534	0.178472
C41	C	0.532763	-0.355526	-0.306137
C42	C	1.032763	0.144474	0.193863
C43	C	0.631274	-0.338448	-0.373158
C44	C	1.131274	0.161552	0.126842
C45	C	0.536500	-0.274410	-0.388548
C46	C	1.036500	0.225590	0.111452
C47	C	0.485288	-0.338463	-0.373190
C48	C	0.985288	0.161537	0.126810
C49	C	0.580051	-0.402542	-0.357733
C50	C	1.080051	0.097458	0.142267
C51	C	0.583794	-0.321383	-0.440174
C52	C	1.083794	0.178617	0.059826
C53	C	0.531506	-0.385487	-0.424811
C54	C	1.031506	0.114513	0.075189
C55	C	0.715373	-0.338439	-0.373138
C56	C	1.215373	0.161561	0.126862
C57	C	0.401191	-0.338480	-0.373211
C58	C	0.901191	0.161520	0.126789
C59	C	1.049583	-0.520928	-0.381357
C60	C	1.549583	-0.020928	0.118643
C61	C	1.046092	-0.598994	-0.384886
C62	C	1.546092	-0.098994	0.115114
C63	C	1.091975	-0.635661	-0.339100
C64	C	1.591975	-0.135661	0.160900
C65	C	1.088695	-0.709012	-0.342424
C66	C	1.588695	-0.209012	0.157576
C67	C	1.039529	-0.745696	-0.391530
C68	C	1.539529	-0.245696	0.108470
C69	C	0.993644	-0.709024	-0.437321
C70	C	1.493644	-0.209024	0.062679
C71	C	0.996928	-0.635674	-0.434001
C72	C	1.496928	-0.135674	0.065999
C73	C	1.027241	-0.967166	-0.403932
C74	C	1.527241	-0.467166	0.096068
C75	C	1.023960	-1.040521	-0.407247
C76	C	1.523960	-0.540521	0.092753
C77	C	1.119012	-1.040504	-0.312351
C78	C	1.619012	-0.540504	0.187649
C79	C	1.122288	-0.967153	-0.309032
C80	C	1.622288	-0.467153	0.190968
C81	C	1.076406	-0.930487	-0.354825
C82	C	1.576406	-0.430487	0.145175
C83	C	1.036174	-0.820673	-0.394927
C84	C	1.536174	-0.320673	0.105073
C85	C	1.079765	-0.855512	-0.351432
C86	C	1.579765	-0.355512	0.148568
C87	C	1.251607	-0.338474	-0.373208
C88	C	1.751607	0.161526	0.126792
C89	C	1.334152	-0.338485	-0.373227
C90	C	1.834152	0.161515	0.126773
C91	C	1.057933	-0.338416	-0.566870
C92	C	1.557933	0.161584	-0.066870
C93	C	1.057946	-0.338403	-0.649415
C94	C	1.557946	0.161597	-0.149415
C95	C	1.066275	-0.155254	-0.364959
C96	C	1.566275	0.344746	0.135041
C97	C	1.069843	-0.077188	-0.361461
C98	C	1.569843	0.422812	0.138539
C99	C	1.006237	-0.385246	-0.850954
C100	C	1.506237	0.114754	-0.350954
C101	C	1.073218	-0.402419	-0.901126
C102	C	1.573218	0.097581	-0.401126
C103	C	1.057985	-0.338349	-0.800543
C104	C	1.557985	0.161651	-0.300543
C105	C	0.991042	-0.321157	-0.897452
C106	C	1.491042	0.178843	-0.397452
C107	C	1.058017	-0.338299	-0.946526
C108	C	1.558017	0.161701	-0.446526
C109	C	1.125000	-0.355556	-0.849629
C110	C	1.625000	0.144444	-0.349629
C111	C	1.042780	-0.274264	-0.845950
C112	C	1.542780	0.225736	-0.345950
C113	C	1.109809	-0.291412	-0.896099
C114	C	1.609809	0.208588	-0.396099
C115	C	1.057966	-0.338380	-0.716446
C116	C	1.557966	0.161620	-0.216446
C117	C	1.058044	-0.338268	-1.030621
C118	C	1.558044	0.161732	-0.530621
C119	C	1.057917	-0.338428	-0.180213
C120	C	1.557917	0.161572	0.319787
C121	C	1.058057	-0.338243	-0.097659
C122	C	1.558057	0.161757	0.402341
H123	H	0.608520	-0.251778	-0.277822
H124	H	1.108520	0.248222	0.222178
N125	N	0.951398	-0.435071	-0.825996
N126	N	1.451398	0.064929	-0.325996
N127	N	0.970130	-0.484375	-0.787738
N128	N	1.470130	0.015625	-0.287738
H129	H	0.931405	-0.519567	-0.770111
H130	H	1.431405	-0.019567	-0.270111
N131	N	1.165888	-1.077946	-0.265578
N132	N	1.665888	-0.577946	0.234422
N133	N	1.209784	-1.045185	-0.221737
N134	N	1.709784	-0.545185	0.278263
H135	H	1.242893	-1.071627	-0.188702
H136	H	1.742893	-0.571627	0.311298
H137	H	0.606202	-0.306918	-0.496817
H138	H	1.106202	0.193082	0.003183
H139	H	0.599186	-0.456720	-0.344666
H140	H	1.099186	0.043280	0.155334
H141	H	0.517235	-0.220255	-0.401527
H142	H	1.017235	0.279745	0.098473
H143	H	1.132008	-0.605798	-0.299109
H144	H	1.632008	-0.105798	0.200891
H145	H	1.086097	-0.456593	-0.925266
H146	H	1.586097	0.043407	-0.425266
H147	H	0.983931	-1.070387	-0.447248
H148	H	1.483931	-0.570387	0.052752
N149	N	1.026607	-0.206318	-0.815651
N150	N	1.526607	0.293682	-0.315651
N151	N	1.014514	-0.157906	-0.857876
N152	N	1.514514	0.342094	-0.357876
H153	H	1.003086	-0.109918	-0.836478
H154	H	1.503086	0.390082	-0.336478
N155	N	0.943432	-0.746504	-0.487485
N156	N	1.443432	-0.246504	0.012515
N157	N	0.940506	-0.811994	-0.490444
N158	N	1.440506	-0.311994	0.009556
H159	H	0.905043	-0.838464	-0.525872
H160	H	1.405043	-0.338464	-0.025872
N161	N	1.135580	-0.746455	-0.295660
N162	N	1.635580	-0.246455	0.204340
N163	N	1.179479	-0.713694	-0.251822
N164	N	1.679479	-0.213694	0.248178
H165	H	1.212598	-0.740137	-0.218796
H166	H	1.712598	-0.240137	0.281204
N167	N	1.172513	-0.929695	-0.258863
N168	N	1.672513	-0.429695	0.241137
N169	N	1.213476	-0.962442	-0.217985
N170	N	1.713476	-0.462442	0.282015
H171	H	1.248946	-0.935987	-0.182551
H172	H	1.748946	-0.435987	0.317449
N173	N	0.504685	-0.373646	-0.235054
N174	N	1.004685	0.126354	0.264946
N175	N	0.522166	-0.336313	-0.178731
N176	N	1.022166	0.163687	0.321269
H177	H	0.502340	-0.349106	-0.128526
H178	H	1.002340	0.150894	0.371474
N179	N	0.502262	-0.435398	-0.479603
N180	N	1.002262	0.064602	0.020397
N181	N	0.515364	-0.498784	-0.475537
N182	N	1.015364	0.001216	0.024463
H183	H	0.494711	-0.534035	-0.514232
H184	H	0.994711	-0.034035	-0.014232
H185	H	0.989881	-0.937319	-0.441218
H186	H	1.489881	-0.437319	0.058782
H187	H	0.959566	-0.605821	-0.471285
H188	H	1.459566	-0.105821	0.028715
N189	N	1.129974	-0.818034	-0.301269
N190	N	1.629974	-0.318034	0.198731
N191	N	1.105695	-0.777148	-0.252075
N192	N	1.605695	-0.277148	0.247925
H193	H	1.141153	-0.750672	-0.216645
H194	H	1.641153	-0.250672	0.283355
N195	N	0.985949	-0.858159	-0.445072
N196	N	1.485949	-0.358159	0.054928
N197	N	0.936817	-0.899142	-0.420740
N198	N	1.436817	-0.399142	0.079260
H199	H	0.901346	-0.925620	-0.456155
H200	H	1.401346	-0.425620	0.043845
H201	H	1.181639	-0.370137	-0.828690
H202	H	1.681639	0.129863	-0.328690
H203	H	1.153633	-0.251732	-0.915852
H204	H	1.653633	0.248268	-0.415852
H205	H	0.934417	-0.306637	-0.918486
H206	H	1.434417	0.193363	-0.418486
