data_functionalizedCrystal
_audit_creation_method	'MofGen! by Chris Wilmer'
_symmetry_space_group_name_H-M	'P1'
_symmetry_Int_Tables_number	1
_symmetry_cell_setting	triclinic
loop_
_symmetry_equiv_pos_as_xyz
  x,y,z
_cell_length_a	15.944551
_cell_length_b	15.944551
_cell_length_c	14.421503
_cell_angle_alpha	90.003340
_cell_angle_beta	89.996859
_cell_angle_gamma	83.498738
loop_
_atom_site_label
_atom_site_type_symbol
_atom_site_fract_x
_atom_site_fract_y
_atom_site_fract_z
O1	O	1.114529	0.108320	-0.077017
O2	O	0.869980	0.121677	-0.077040
O3	O	0.998933	-0.007276	-0.077020
O4	O	0.985576	0.237273	-0.077038
O5	O	0.998911	-0.007257	0.077204
O6	O	0.869958	0.121696	0.077183
O7	O	1.114508	0.108340	0.077206
Cu8	Cu	0.992231	0.115020	0.091277
Cu9	Cu	0.992256	0.114997	-0.091110
O10	O	0.985555	0.237293	0.077186
C11	C	0.838675	0.121132	0.000069
C12	C	0.745429	0.119470	0.000060
C13	C	0.530572	0.035565	0.000084
C14	C	0.469563	0.074518	-0.075959
C15	C	0.574703	0.116462	0.000071
C16	C	0.469564	0.074556	0.076093
C17	C	0.409790	0.113551	0.000086
C18	C	0.514922	0.155437	-0.076035
C19	C	0.514929	0.155464	0.076086
C20	C	0.453937	0.194476	0.000024
C21	C	0.669705	0.118137	0.000062
C22	C	0.314789	0.111883	0.000089
C23	C	0.998367	-0.038561	0.000092
C24	C	0.996705	-0.131807	0.000093
C25	C	0.912801	-0.346663	0.000072
C26	C	0.951753	-0.407671	0.076117
C27	C	0.993698	-0.302533	0.000085
C28	C	0.951793	-0.407674	-0.075935
C29	C	0.990787	-0.467445	0.000074
C30	C	1.032672	-0.362312	0.076193
C31	C	1.032701	-0.362308	-0.075927
C32	C	1.071711	-0.423298	0.000136
C33	C	0.995372	-0.207530	0.000092
C34	C	0.989119	-0.562446	0.000073
C35	C	1.145813	0.108885	0.000096
C36	C	1.239059	0.110547	0.000098
C37	C	0.986120	0.268577	0.000072
C38	C	0.987782	0.361823	0.000066
N39	N	0.992219	0.115035	0.219558
N40	N	0.992275	0.114975	-0.219392
C41	C	0.932581	0.174636	0.469202
C42	C	1.008481	0.190943	0.531011
C43	C	0.992240	0.115015	0.408719
C44	C	0.916359	0.098727	0.531005
C45	C	0.992253	0.114997	0.591441
C46	C	1.068178	0.131360	0.469167
C47	C	0.976007	0.039111	0.469156
C48	C	1.051961	0.055386	0.530936
C49	C	0.992231	0.115027	0.303458
C50	C	0.992270	0.114985	0.696700
H51	H	0.420779	0.261683	-0.000023
C52	C	0.812138	0.001253	0.535107
C53	C	0.829728	0.080127	0.567674
H54	H	0.758657	-0.010226	0.557749
H55	H	0.811356	0.001645	0.469252
H56	H	0.854468	-0.041155	0.556249
H57	H	0.787401	0.122536	0.546526
H58	H	0.830504	0.079742	0.633542
H59	H	0.917575	-0.427758	-0.140230
C60	C	1.100832	0.267767	0.621106
C61	C	1.027032	0.277582	0.567704
H62	H	1.112280	0.321257	0.643753
H63	H	1.093576	0.231318	0.671860
H64	H	1.146694	0.244083	0.583915
H65	H	0.981169	0.301260	0.604897
H66	H	1.034283	0.314045	0.516943
H67	H	1.066897	-0.342186	-0.140214
C68	C	0.470589	0.228454	-0.216371
C69	C	0.541908	0.201578	-0.162923
H70	H	0.487252	0.256941	-0.270008
H71	H	0.443598	0.180917	-0.234535
H72	H	0.432555	0.265742	-0.180820
H73	H	0.579939	0.164285	-0.198472
H74	H	0.568911	0.249122	-0.144760
C75	C	1.144851	0.223542	0.378692
C76	C	1.154827	0.150109	0.432694
H77	H	1.198343	0.235135	0.356189
H78	H	1.108682	0.215746	0.327838
H79	H	1.120776	0.269549	0.415433
H80	H	1.178898	0.104100	0.395951
H81	H	1.191010	0.157900	0.483555
H82	H	1.138919	-0.456457	0.000186
C83	C	0.519479	0.159148	0.242427
C84	C	0.542109	0.201624	0.162868
H85	H	0.536267	0.187639	0.296007
H86	H	0.460058	0.157988	0.243361
H87	H	0.546779	0.103014	0.241873
H88	H	0.514804	0.257756	0.163418
H89	H	0.601542	0.202794	0.161934
C90	C	0.481483	-0.054879	-0.162595
C91	C	0.442416	0.028320	-0.162737
H92	H	0.464721	-0.083403	-0.216163
H93	H	0.541020	-0.054604	-0.162939
H94	H	0.465188	-0.083058	-0.108590
H95	H	0.458715	0.056501	-0.216739
H96	H	0.382866	0.028048	-0.162401
C97	C	1.025693	-0.083106	0.379011
C98	C	0.957426	-0.047504	0.432438
H99	H	1.014215	-0.136580	0.356346
H100	H	1.033987	-0.046975	0.328269
H101	H	1.075174	-0.089921	0.416191
H102	H	0.907946	-0.040684	0.395255
H103	H	0.949122	-0.083644	0.483187
C104	C	0.663047	-0.052585	0.000815
C105	C	0.575548	-0.055077	-0.000002
H106	H	0.690813	-0.108543	0.000765
H107	H	0.679218	-0.023574	-0.052658
H108	H	0.678450	-0.023960	0.054900
H109	H	0.560143	-0.083697	-0.054091
H110	H	0.559370	-0.084101	0.053476
C111	C	0.881766	0.322176	0.463821
C112	C	0.864547	0.242750	0.432594
H113	H	0.839770	0.364227	0.441214
H114	H	0.881634	0.322971	0.529677
H115	H	0.935569	0.333201	0.441735
H116	H	0.810747	0.231723	0.454686
H117	H	0.864670	0.241954	0.366725
H118	H	1.102474	0.004956	0.557872
C119	C	0.401966	-0.041224	0.135923
C120	C	0.442435	0.028362	0.162880
H121	H	0.385224	-0.069748	0.189499
H122	H	0.353591	-0.022480	0.099888
H123	H	0.439643	-0.078644	0.100110
H124	H	0.404755	0.065786	0.198687
H125	H	0.490816	0.009619	0.198930
C126	C	0.779985	-0.324421	0.079889
C127	C	0.822157	-0.301691	0.000162
H128	H	0.724029	-0.296651	0.079948
H129	H	0.778309	-0.383776	0.080433
H130	H	0.809011	-0.308237	0.133356
H131	H	0.793135	-0.317880	-0.053306
H132	H	0.823829	-0.242323	-0.000391
C133	C	0.905166	-0.522589	0.162382
C134	C	0.905554	-0.434815	0.162896
H135	H	0.876646	-0.539342	0.215956
H136	H	0.876979	-0.538870	0.108388
H137	H	0.961615	-0.549079	0.162469
H138	H	0.849106	-0.408325	0.162802
H139	H	0.933740	-0.418525	0.216904
H140	H	1.066850	-0.342314	0.140554
