data_functionalizedCrystal
_audit_creation_method	'MofGen! by Chris Wilmer'
_symmetry_space_group_name_H-M	'P1'
_symmetry_Int_Tables_number	1
_symmetry_cell_setting	triclinic
loop_
_symmetry_equiv_pos_as_xyz
  x,y,z
_cell_length_a	16.959455
_cell_length_b	21.295417
_cell_length_c	16.959447
_cell_angle_alpha	89.964807
_cell_angle_beta	89.985678
_cell_angle_gamma	90.027454
loop_
_atom_site_label
_atom_site_type_symbol
_atom_site_fract_x
_atom_site_fract_y
_atom_site_fract_z
Zn1	Zn	1.208326	-0.250648	-0.446882
Zn2	Zn	1.208225	-0.355925	-0.314692
Zn3	Zn	1.076155	-0.250668	-0.314719
Zn4	Zn	1.076096	-0.355878	-0.446831
O5	O	1.142200	-0.303280	-0.380781
O6	O	1.318924	-0.264625	-0.429357
O7	O	1.190688	-0.341990	-0.204085
O8	O	1.093755	-0.162576	-0.332284
O9	O	1.318849	-0.341971	-0.332237
O10	O	1.190861	-0.162561	-0.429383
O11	O	1.093657	-0.264658	-0.204105
O12	O	0.965536	-0.264613	-0.332234
O13	O	1.093654	-0.341891	-0.557448
O14	O	0.965493	-0.341910	-0.429296
O15	O	1.190803	-0.264579	-0.557486
O16	O	1.190630	-0.444008	-0.332188
O17	O	1.093555	-0.443973	-0.429269
C18	C	0.936834	-0.303259	-0.380763
C19	C	0.848978	-0.303265	-0.380774
C20	C	0.477500	-0.262998	-0.330347
C21	C	0.477504	-0.343613	-0.431261
C22	C	0.560050	-0.343604	-0.431256
C23	C	0.601325	-0.303292	-0.380795
C24	C	0.560054	-0.262989	-0.330339
C25	C	0.601327	-0.383911	-0.481705
C26	C	0.683877	-0.383904	-0.481702
C27	C	0.725154	-0.343588	-0.431244
C28	C	0.683878	-0.303283	-0.380787
C29	C	0.725153	-0.262971	-0.330326
C30	C	0.683879	-0.222662	-0.279871
C31	C	0.601330	-0.222673	-0.279881
C32	C	0.807702	-0.343577	-0.431235
C33	C	0.807707	-0.262962	-0.330318
C34	C	1.142097	-0.466831	-0.380737
C35	C	1.142125	-0.536799	-0.380745
C36	C	1.192717	-0.569663	-0.330246
C37	C	1.192754	-0.635406	-0.330264
C38	C	1.142185	-0.668282	-0.380772
C39	C	1.091589	-0.635410	-0.431281
C40	C	1.091559	-0.569669	-0.431267
N41	N	1.073038	-0.771544	-0.386792
N42	N	1.073069	-0.833996	-0.386800
C43	C	1.142273	-0.866357	-0.380818
N44	N	1.211448	-0.833907	-0.374811
N45	N	1.211416	-0.771449	-0.374798
C46	C	1.142212	-0.739567	-0.380793
C47	C	1.192910	-0.970506	-0.330335
C48	C	1.192948	-1.036249	-0.330359
C49	C	1.091777	-1.036253	-0.431371
C50	C	1.091745	-0.970510	-0.431352
C51	C	1.142311	-0.937641	-0.380830
C52	C	1.348369	-0.303301	-0.380800
C53	C	1.436225	-0.303310	-0.380808
C54	C	1.142233	-0.303228	-0.586949
C55	C	1.142247	-0.303205	-0.674806
C56	C	1.142326	-0.139089	-0.380842
C57	C	1.142379	-0.069121	-0.380868
C58	C	1.091760	-0.343392	-1.046265
C59	C	1.192923	-0.262886	-1.046299
C60	C	1.192902	-0.262900	-0.963753
C61	C	1.142310	-0.303160	-0.922459
C62	C	1.091740	-0.343407	-0.963711
C63	C	1.243478	-0.222658	-0.922495
C64	C	1.243459	-0.222670	-0.839944
C65	C	1.192863	-0.262928	-0.798648
C66	C	1.142289	-0.303176	-0.839906
C67	C	1.091698	-0.343437	-0.798612
C68	C	1.041120	-0.383682	-0.839867
C69	C	1.041143	-0.383665	-0.922416
C70	C	1.192839	-0.262945	-0.716100
C71	C	1.091677	-0.343453	-0.716058
C72	C	1.142213	-0.303286	-0.175415
C73	C	1.142352	-0.303131	-0.087559
H74	H	0.841307	-0.230131	-0.289230
C75	C	1.292917	-0.977103	-0.230493
C76	C	1.248494	-0.934370	-0.274809
H77	H	1.327234	-0.954795	-0.196216
H78	H	1.258511	-1.002788	-0.200236
H79	H	1.323142	-1.002701	-0.264974
H80	H	1.218264	-0.908775	-0.240327
H81	H	1.282904	-0.908675	-0.305068
C82	C	0.709317	-0.414691	-0.615476
C83	C	0.729242	-0.428204	-0.537167
H84	H	0.737328	-0.442036	-0.649719
H85	H	0.654253	-0.420469	-0.622693
H86	H	0.722869	-0.372403	-0.627129
H87	H	0.715685	-0.470490	-0.525513
H88	H	0.784318	-0.422431	-0.529947
H89	H	0.567717	-0.189857	-0.238803
C90	C	0.907280	-0.414312	-0.947825
C91	C	0.985555	-0.427904	-0.967763
H92	H	0.872965	-0.441623	-0.975827
H93	H	0.900029	-0.420085	-0.892759
H94	H	0.895757	-0.372013	-0.961380
H95	H	0.997080	-0.470203	-0.954203
H96	H	0.992809	-0.422137	-1.022841
C97	C	0.991591	-0.628812	-0.531128
C98	C	1.036004	-0.671544	-0.486803
H99	H	0.957281	-0.651120	-0.565411
H100	H	0.961367	-0.603213	-0.496659
H101	H	1.026009	-0.603127	-0.561386
H102	H	1.001586	-0.697226	-0.456541
H103	H	1.066231	-0.697154	-0.521276
C104	C	1.349753	-0.213928	-0.747097
C105	C	1.299032	-0.178422	-0.794592
H106	H	1.384058	-0.186607	-0.719100
H107	H	1.319619	-0.237906	-0.710700
H108	H	1.379990	-0.241344	-0.779287
H109	H	1.268790	-0.151009	-0.762401
H110	H	1.329169	-0.154433	-0.830993
H111	H	1.050545	-0.943751	-0.472469
C112	C	0.833154	-0.374372	-0.565002
C113	C	0.853074	-0.387878	-0.486689
H114	H	0.861169	-0.401720	-0.599238
H115	H	0.778091	-0.380152	-0.572221
H116	H	0.846706	-0.332085	-0.576659
H117	H	0.839517	-0.430163	-0.475030
H118	H	0.908149	-0.382103	-0.479466
C119	C	0.350963	-0.227209	-0.285548
C120	C	0.432136	-0.218693	-0.274888
H121	H	0.322959	-0.199858	-0.251306
H122	H	0.337463	-0.218048	-0.338673
H123	H	0.337416	-0.269495	-0.273881
H124	H	0.445684	-0.176407	-0.286561
H125	H	0.445642	-0.227849	-0.221750
C126	C	1.080475	-0.495679	-0.537565
C127	C	1.035942	-0.533541	-0.486777
H128	H	1.046137	-0.473378	-0.571836
H129	H	1.110577	-0.466696	-0.507478
H130	H	1.114904	-0.521289	-0.567835
H131	H	1.001517	-0.507931	-0.456503
H132	H	1.005826	-0.562528	-0.516867
H133	H	1.234151	-1.063006	-0.289238
C134	C	0.957915	-1.056556	-0.469762
C135	C	1.036191	-1.072382	-0.486894
H136	H	0.923601	-1.078861	-0.504046
H137	H	0.946392	-1.067376	-0.416653
H138	H	0.950665	-1.012698	-0.476981
H139	H	1.043443	-1.116240	-0.479669
H140	H	1.047718	-1.061567	-0.540016
C141	C	1.299011	-0.495668	-0.319343
C142	C	1.248301	-0.533530	-0.274721
H143	H	1.333323	-0.473357	-0.285063
H144	H	1.329235	-0.521274	-0.353804
H145	H	1.268865	-0.466688	-0.349413
H146	H	1.278448	-0.562513	-0.244654
H147	H	1.218075	-0.507921	-0.240246
C148	C	0.350964	-0.379420	-0.476077
C149	C	0.432136	-0.387922	-0.486725
H150	H	0.322956	-0.406773	-0.510325
H151	H	0.337421	-0.388585	-0.422954
H152	H	0.337465	-0.337135	-0.487742
H153	H	0.445636	-0.430206	-0.475054
H154	H	0.445685	-0.378761	-0.539860
H155	H	1.050471	-0.376232	-0.682442
H156	H	0.567714	-0.416735	-0.522782
H157	H	1.233954	-0.662168	-0.289142
C158	C	0.996179	-0.419449	-0.713305
C159	C	0.985509	-0.427936	-0.794471
H160	H	0.961845	-0.446766	-0.685279
H161	H	1.049272	-0.428672	-0.699784
H162	H	0.984643	-0.377152	-0.699805
H163	H	0.997051	-0.470232	-0.807972
H164	H	0.932404	-0.418717	-0.807997
C165	C	1.046865	-0.379117	-1.172785
C166	C	1.036169	-0.387630	-1.091608
H167	H	1.012548	-0.406432	-1.200777
H168	H	1.035330	-0.336823	-1.186328
H169	H	1.099972	-0.388334	-1.186305
H170	H	0.983063	-0.378409	-1.078088
H171	H	1.047698	-0.429934	-1.078060
H172	H	1.234117	-0.230111	-1.079925
C173	C	1.288426	-0.186895	-1.049052
C174	C	1.299092	-0.178411	-0.967885
H175	H	1.322760	-0.159576	-1.077075
H176	H	1.299958	-0.229186	-1.062553
H177	H	1.235327	-0.177667	-1.062576
H178	H	1.352190	-0.187644	-0.954361
H179	H	1.287566	-0.136110	-0.954378
H180	H	1.234021	-0.230179	-0.682513
H181	H	0.717496	-0.189843	-0.238783
