data_functionalizedCrystal
_audit_creation_method	'MofGen! by Chris Wilmer'
_symmetry_space_group_name_H-M	'P1'
_symmetry_Int_Tables_number	1
_symmetry_cell_setting	triclinic
loop_
_symmetry_equiv_pos_as_xyz
  x,y,z
_cell_length_a	16.053802
_cell_length_b	16.992697
_cell_length_c	16.992695
_cell_angle_alpha	89.331663
_cell_angle_beta	92.741074
_cell_angle_gamma	92.750118
loop_
_atom_site_label
_atom_site_type_symbol
_atom_site_fract_x
_atom_site_fract_y
_atom_site_fract_z
O1	O	-0.069309	-1.053958	0.163818
O2	O	0.430691	-0.553958	0.663818
O3	O	-0.069337	-0.825560	0.161985
O4	O	0.430663	-0.325560	0.661985
O5	O	-0.069316	-0.938843	0.048702
O6	O	0.430684	-0.438843	0.548702
O7	O	-0.069329	-0.940675	0.277101
O8	O	0.430671	-0.440675	0.777101
O9	O	0.069542	-0.932606	0.054910
O10	O	0.569542	-0.432606	0.554910
O11	O	0.069521	-0.819322	0.168193
O12	O	0.569521	-0.319322	0.668193
O13	O	0.069549	-1.047721	0.170026
O14	O	0.569549	-0.547721	0.670026
Zn15	Zn	0.091582	-0.932531	0.170095
Zn16	Zn	0.591582	-0.432531	0.670095
Zn17	Zn	-0.091369	-0.940749	0.161916
Zn18	Zn	0.408631	-0.440749	0.661916
O19	O	0.069529	-0.934438	0.283309
O20	O	0.569529	-0.434438	0.783309
C21	C	0.000089	-0.793081	0.162733
C22	C	0.500089	-0.293081	0.662733
C23	C	0.000078	-0.705597	0.155704
C24	C	0.500078	-0.205597	0.655704
N25	N	0.216441	-0.926929	0.175677
N26	N	0.716441	-0.426929	0.675677
C27	C	0.000112	-0.933369	0.022445
C28	C	0.500112	-0.433369	0.522445
C29	C	0.000111	-0.926340	-0.065039
C30	C	0.500111	-0.426340	0.434961
N31	N	-0.216229	-0.946358	0.156328
N32	N	0.283771	-0.446358	0.656328
C33	C	0.260144	-0.975151	0.127494
C34	C	0.760144	-0.475151	0.627494
C35	C	0.347550	-0.971240	0.131407
C36	C	0.847550	-0.471240	0.631407
C37	C	0.391252	-0.919110	0.183507
C38	C	0.891252	-0.419110	0.683507
C39	C	0.347543	-0.870882	0.231692
C40	C	0.847543	-0.370882	0.731692
C41	C	0.260138	-0.874790	0.227774
C42	C	0.760138	-0.374790	0.727774
C43	C	0.652658	-0.902038	0.200595
C44	C	1.152658	-0.402038	0.700595
C45	C	0.740069	-0.898136	0.204511
C46	C	1.240069	-0.398136	0.704511
C47	C	0.740070	-0.998492	0.104224
C48	C	1.240070	-0.498492	0.604224
C49	C	0.652664	-1.002399	0.100315
C50	C	1.152664	-0.502399	0.600315
C51	C	0.608962	-0.954169	0.148497
C52	C	1.108962	-0.454169	0.648497
N53	N	0.480595	-0.915112	0.187509
N54	N	0.980595	-0.415112	0.687509
N55	N	0.519621	-0.958163	0.144490
N56	N	1.019621	-0.458163	0.644490
C57	C	0.000074	-0.659606	0.223521
C58	C	0.500074	-0.159606	0.723521
C59	C	0.000085	-0.577405	0.216913
C60	C	0.500085	-0.077405	0.716913
C61	C	0.000093	-0.541196	0.142485
C62	C	0.500093	-0.041196	0.642485
C63	C	0.000100	-0.587193	0.074663
C64	C	0.500100	-0.087193	0.574663
C65	C	0.000095	-0.669392	0.081272
C66	C	0.500095	-0.169392	0.581272
C67	C	0.000113	-0.295881	0.115091
C68	C	0.500113	0.204119	0.615091
C69	C	0.000115	-0.213676	0.108487
C70	C	0.500115	0.286324	0.608487
C71	C	0.000102	-0.203893	0.250737
C72	C	0.500102	0.296107	0.750737
C73	C	0.000092	-0.286095	0.257340
C74	C	0.500092	0.213905	0.757340
C75	C	0.000103	-0.332084	0.189518
C76	C	0.500103	0.167916	0.689518
N77	N	0.000101	-0.457174	0.135728
N78	N	0.500101	0.042826	0.635728
N79	N	0.000101	-0.416105	0.196276
N80	N	0.500101	0.083895	0.696276
C81	C	0.000118	-0.080200	0.169277
C82	C	0.500118	0.419800	0.669277
C83	C	0.000112	-0.167685	0.176304
C84	C	0.500112	0.332315	0.676304
C85	C	0.000120	-0.994158	-0.111029
C86	C	0.500120	-0.494158	0.388971
C87	C	0.000112	-0.987549	-0.193231
C88	C	0.500112	-0.487549	0.306769
C89	C	0.000100	-0.913122	-0.229440
C90	C	0.500100	-0.413122	0.270560
C91	C	0.000088	-0.845299	-0.183443
C92	C	0.500088	-0.345299	0.316557
C93	C	0.000091	-0.851909	-0.101244
C94	C	0.500091	-0.351909	0.398756
C95	C	0.000085	-0.885728	-0.474755
C96	C	0.500085	-0.385728	0.025245
C97	C	0.000085	-0.879123	-0.556960
C98	C	0.500085	-0.379123	-0.056960
C99	C	0.000107	-1.021374	-0.566742
C100	C	0.500107	-0.521374	-0.066742
C101	C	0.000115	-1.027977	-0.484540
C102	C	0.500115	-0.527977	0.015460
C103	C	0.000098	-0.960154	-0.438551
C104	C	0.500098	-0.460154	0.061449
N105	N	0.000093	-0.906365	-0.313462
N106	N	0.500093	-0.406365	0.186538
N107	N	0.000099	-0.966912	-0.354531
N108	N	0.500099	-0.466912	0.145469
C109	C	0.000098	-0.939912	0.309565
C110	C	0.500098	-0.439912	0.809565
C111	C	0.000094	-0.946941	0.397050
C112	C	0.500094	-0.446941	0.897050
H113	H	0.224567	-1.017604	0.085073
H114	H	0.724567	-0.517604	0.585073
H115	H	0.000122	-0.184198	0.047876
H116	H	0.500122	0.315802	0.547876
Cl117	Cl	0.402492	-1.031862	0.070833
Cl118	Cl	0.902492	-0.531862	0.570833
H119	H	0.383130	-0.828433	0.274110
H120	H	0.883130	-0.328433	0.774110
H121	H	0.224556	-0.835521	0.267009
H122	H	0.724556	-0.335521	0.767009
Cl123	Cl	0.597724	-1.067936	0.034819
Cl124	Cl	1.097724	-0.567936	0.534819
Cl125	Cl	0.795012	-1.059118	0.043654
Cl126	Cl	1.295012	-0.559118	0.543654
H127	H	0.000095	-0.166440	0.305954
H128	H	0.500095	0.333560	0.805954
H129	H	0.000118	-1.076591	-0.604195
H130	H	0.500118	-0.576591	-0.104195
H131	H	0.000066	-0.689081	0.284128
H132	H	0.500066	-0.189081	0.784128
H133	H	0.000135	-1.054764	-0.081554
H134	H	0.500135	-0.554764	0.418446
H135	H	0.000123	-0.333316	0.059865
H136	H	0.500123	0.166684	0.559865
H137	H	0.000072	-0.830502	-0.437320
H138	H	0.500072	-0.330502	0.062680
H139	H	0.000088	-0.818512	-0.586438
H140	H	0.500088	-0.318512	-0.086438
Cl141	Cl	0.000063	-0.751734	-0.228964
Cl142	Cl	0.500063	-0.251734	0.271036
H143	H	0.000121	-1.042773	-0.230673
H144	H	0.500121	-0.542773	0.269327
Cl145	Cl	0.000075	-0.519591	0.302174
Cl146	Cl	0.500075	-0.019591	0.802174
H147	H	0.000124	-1.088583	-0.455065
H148	H	0.500124	-0.588583	0.044935
H149	H	0.775647	-0.855683	0.246940
H150	H	1.275647	-0.355683	0.746940
Cl151	Cl	0.597725	-0.841410	0.261168
Cl152	Cl	1.097725	-0.341410	0.761168
H153	H	0.000083	-0.796684	-0.063799
H154	H	0.500083	-0.296684	0.436201
Cl155	Cl	0.000076	-0.331608	0.350910
Cl156	Cl	0.500076	0.168392	0.850910
H157	H	0.000119	-0.557705	0.014063
H158	H	0.500119	-0.057705	0.514063
Cl159	Cl	0.000104	-0.727210	-0.003988
Cl160	Cl	0.500104	-0.227210	0.496012
