data_functionalizedCrystal
_audit_creation_method	'MofGen! by Chris Wilmer'
_symmetry_space_group_name_H-M	'P1'
_symmetry_Int_Tables_number	1
_symmetry_cell_setting	triclinic
loop_
_symmetry_equiv_pos_as_xyz
  x,y,z
_cell_length_a	17.699083
_cell_length_b	16.109301
_cell_length_c	14.586319
_cell_angle_alpha	89.998390
_cell_angle_beta	90.000185
_cell_angle_gamma	83.372248
loop_
_atom_site_label
_atom_site_type_symbol
_atom_site_fract_x
_atom_site_fract_y
_atom_site_fract_z
O1	O	-1.004228	-0.105132	0.076115
O2	O	-0.504228	0.394868	0.576115
O3	O	-0.783869	-0.118811	0.076145
O4	O	-0.283869	0.381189	0.576145
O5	O	-0.900102	0.009070	0.076120
O6	O	-0.400102	0.509070	0.576120
O7	O	-0.887995	-0.233013	0.076140
O8	O	-0.387995	0.266987	0.576140
O9	O	-0.900088	0.009063	-0.076361
O10	O	-0.400088	0.509063	0.423639
O11	O	-0.783855	-0.118818	-0.076336
O12	O	-0.283855	0.381182	0.423664
O13	O	-1.004214	-0.105139	-0.076366
O14	O	-0.504214	0.394861	0.423634
Cu15	Cu	-0.894033	-0.111979	-0.090274
Cu16	Cu	-0.394033	0.388021	0.409726
Cu17	Cu	-0.894050	-0.111971	0.090053
Cu18	Cu	-0.394050	0.388029	0.590053
O19	O	-0.887981	-0.233020	-0.076341
O20	O	-0.387981	0.266980	0.423659
C21	C	-0.755664	-0.118324	-0.000091
C22	C	-0.255664	0.381676	0.499909
C23	C	-0.671644	-0.116854	-0.000080
C24	C	-0.171644	0.383146	0.499920
C25	C	-0.899604	0.040040	-0.000121
C26	C	-0.399604	0.540040	0.499879
C27	C	-0.898134	0.132333	-0.000122
C28	C	-0.398134	0.632333	0.499878
C29	C	-1.032419	-0.105626	-0.000127
C30	C	-0.532419	0.394374	0.499873
C31	C	-1.116439	-0.107096	-0.000133
C32	C	-0.616439	0.392904	0.499867
C33	C	-0.623130	-0.191917	-0.000074
C34	C	-0.123130	0.308083	0.499926
C35	C	-0.544185	-0.190531	-0.000086
C36	C	-0.044185	0.309469	0.499914
C37	C	-0.513755	-0.114080	-0.000098
C38	C	-0.013755	0.385920	0.499902
C39	C	-0.562275	-0.039011	-0.000106
C40	C	-0.062275	0.460989	0.499894
C41	C	-0.641219	-0.040398	-0.000101
C42	C	-0.141219	0.459602	0.499899
C43	C	-0.243904	-0.033414	-0.000130
C44	C	0.256096	0.466586	0.499870
C45	C	-0.164954	-0.032032	-0.000132
C46	C	0.335046	0.467968	0.499868
C47	C	-0.146870	-0.183546	-0.000115
C48	C	0.353130	0.316454	0.499885
C49	C	-0.225814	-0.184934	-0.000109
C50	C	0.274186	0.315066	0.499891
C51	C	-0.274327	-0.109865	-0.000123
C52	C	0.225673	0.390135	0.499877
C53	C	-0.359928	-0.111369	-0.000112
C54	C	0.140072	0.388631	0.499888
C55	C	-0.428155	-0.112575	-0.000102
C56	C	0.071845	0.387425	0.499898
C57	C	-0.888478	-0.263990	-0.000098
C58	C	-0.388478	0.236010	0.499902
C59	C	-0.889949	-0.356283	-0.000091
C60	C	-0.389949	0.143717	0.499909
N61	N	-0.894027	-0.111985	-0.217105
N62	N	-0.394027	0.388015	0.282895
C63	C	-0.963686	0.354719	-0.000117
C64	C	-0.463686	0.854719	0.499883
C65	C	-0.962298	0.441437	-0.000109
C66	C	-0.462298	0.941437	0.499891
C67	C	-0.824392	0.421325	-0.000093
C68	C	-0.324392	0.921325	0.499907
C69	C	-0.825780	0.334608	-0.000095
C70	C	-0.325780	0.834608	0.499905
C71	C	-0.895429	0.301308	-0.000111
C72	C	-0.395429	0.801308	0.499889
C73	C	-0.892654	0.474742	-0.000102
C74	C	-0.392654	0.974742	0.499898
C75	C	-0.891149	0.568766	-0.000094
C76	C	-0.391149	1.068766	0.499906
C77	C	-0.896934	0.207278	-0.000118
C78	C	-0.396934	0.707278	0.499882
C79	C	-0.939929	-0.162335	-0.452114
C80	C	-0.439929	0.337665	0.047886
C81	C	-0.939937	-0.162329	-0.548095
C82	C	-0.439937	0.337671	-0.048095
C83	C	-0.848158	-0.061603	-0.548100
C84	C	-0.348158	0.438397	-0.048100
C85	C	-0.848155	-0.061605	-0.452121
C86	C	-0.348155	0.438395	0.047879
C87	C	-0.894039	-0.111976	-0.404130
C88	C	-0.394039	0.388024	0.095870
C89	C	-0.894050	-0.111968	-0.596091
C90	C	-0.394050	0.388032	-0.096091
C91	C	-0.894058	-0.111961	-0.700158
C92	C	-0.394058	0.388039	-0.200158
C93	C	-0.894032	-0.111981	-0.300056
C94	C	-0.394032	0.388019	0.199944
N95	N	-0.894062	-0.111958	0.216884
N96	N	-0.394062	0.388042	0.716884
H97	H	-0.647900	-0.254172	-0.000064
H98	H	-0.147900	0.245828	0.499936
Cl99	Cl	-0.264064	-0.281047	-0.000090
Cl100	Cl	0.235936	0.218953	0.499910
H101	H	-0.810800	-0.020594	-0.587186
H102	H	-0.310800	0.479406	-0.087186
H103	H	-0.680719	0.020726	-0.000105
H104	H	-0.180719	0.520726	0.499895
H105	H	-0.504688	-0.251655	-0.000080
H106	H	-0.004688	0.248345	0.499920
H107	H	-0.107361	-0.244671	-0.000109
H108	H	0.392639	0.255329	0.499891
H109	H	-1.020398	0.327608	-0.000128
H110	H	-0.520398	0.827608	0.499872
Cl111	Cl	-0.997617	-0.225651	-0.391786
Cl112	Cl	-0.497617	0.274349	0.108214
Cl113	Cl	-0.739965	0.267458	-0.000079
Cl114	Cl	-0.239965	0.767458	0.499921
Cl115	Cl	-0.997631	-0.225640	-0.608414
Cl116	Cl	-0.497631	0.274360	-0.108414
H117	H	-0.140182	0.030227	-0.000143
H118	H	0.359818	0.530227	0.499857
Cl119	Cl	-1.048111	0.508578	-0.000114
Cl120	Cl	-0.548111	1.008578	0.499886
H121	H	-0.767686	0.448449	-0.000082
H122	H	-0.267686	0.948449	0.499918
H123	H	-0.810785	-0.020592	-0.413051
H124	H	-0.310785	0.479408	0.086949
H125	H	-0.283394	0.027712	-0.000141
H126	H	0.216606	0.527712	0.499859
Cl127	Cl	-0.524020	0.057100	-0.000127
Cl128	Cl	-0.024020	0.557100	0.499873
