data_functionalizedCrystal
_audit_creation_method	'MofGen! by Chris Wilmer'
_symmetry_space_group_name_H-M	'P1'
_symmetry_Int_Tables_number	1
_symmetry_cell_setting	triclinic
loop_
_symmetry_equiv_pos_as_xyz
  x,y,z
_cell_length_a	8.559649
_cell_length_b	14.044190
_cell_length_c	13.101018
_cell_angle_alpha	93.660631
_cell_angle_beta	87.112224
_cell_angle_gamma	81.485221
loop_
_atom_site_label
_atom_site_type_symbol
_atom_site_fract_x
_atom_site_fract_y
_atom_site_fract_z
O1	O	2.123561	-0.037633	-0.085194
O2	O	2.456894	0.295701	0.248139
O3	O	2.790227	0.629034	0.581473
O4	O	1.665265	0.010816	-0.085204
O5	O	1.998599	0.344150	0.248129
O6	O	2.331932	0.677483	0.581462
O7	O	1.887526	-0.150890	-0.085179
O8	O	2.220860	0.182443	0.248154
O9	O	2.554193	0.515776	0.581488
O10	O	1.901300	0.124074	-0.085219
O11	O	2.234633	0.457407	0.248114
O12	O	2.567966	0.790741	0.581448
O13	O	1.871561	-0.139278	0.085249
O14	O	2.204894	0.194056	0.418583
O15	O	2.538227	0.527389	0.751916
O16	O	1.649300	0.022429	0.085224
O17	O	1.982633	0.355762	0.418558
O18	O	2.315966	0.689096	0.751891
O19	O	2.107595	-0.026020	0.085235
O20	O	2.440928	0.307314	0.418568
O21	O	2.774262	0.640647	0.751901
Zn22	Zn	1.875912	0.000048	0.112289
Zn23	Zn	2.209246	0.333382	0.445622
Zn24	Zn	2.542579	0.666715	0.778955
Zn25	Zn	1.896948	-0.015252	-0.112258
Zn26	Zn	2.230281	0.318081	0.221075
Zn27	Zn	2.563615	0.651415	0.554408
O28	O	1.885334	0.135687	0.085209
O29	O	2.218667	0.469020	0.418543
O30	O	2.552001	0.802354	0.751876
C31	C	1.598276	0.020294	0.000009
C32	C	1.931610	0.353628	0.333342
C33	C	2.264943	0.686961	0.666676
C34	C	1.422455	0.031223	0.000006
C35	C	1.755788	0.364557	0.333339
C36	C	2.089121	0.697890	0.666672
C37	C	1.873519	-0.179960	0.000038
C38	C	2.206853	0.153374	0.333371
C39	C	2.540186	0.486707	0.666705
C40	C	1.855550	-0.283877	0.000047
C41	C	2.188884	0.049456	0.333380
C42	C	2.522217	0.382790	0.666713
C43	C	1.950139	-0.541052	0.000009
C44	C	2.283472	-0.207718	0.333342
C45	C	2.616805	0.125615	0.666675
C46	C	1.822729	-0.474147	0.000013
C47	C	2.156063	-0.140814	0.333346
C48	C	2.489396	0.192519	0.666679
C49	C	1.840995	-0.368272	0.000032
C50	C	2.174329	-0.034938	0.333365
C51	C	2.507662	0.298395	0.666698
C52	C	1.931875	-0.646938	-0.000010
C53	C	2.265208	-0.313604	0.333323
C54	C	2.598542	0.019729	0.666656
C55	C	2.174584	-0.035498	0.000019
C56	C	2.507918	0.297835	0.333353
C57	C	2.841251	0.631169	0.666686
C58	C	2.350406	-0.046427	0.000016
C59	C	2.683740	0.286906	0.333349
C60	C	3.017073	0.620239	0.666682
C61	C	1.899341	0.164756	-0.000010
C62	C	2.232674	0.498090	0.333323
C63	C	2.566008	0.831423	0.666657
C64	C	1.917311	0.268673	-0.000025
C65	C	2.250644	0.602006	0.333308
C66	C	2.583977	0.935340	0.666641
N67	N	1.861568	0.010489	0.265536
N68	N	2.194901	0.343822	0.598869
N69	N	2.528234	0.677156	0.932203
N70	N	1.911304	-0.025701	-0.265506
N71	N	2.244637	0.307632	0.067828
N72	N	2.577971	0.640966	0.401161
C73	C	1.930812	-0.039909	0.525453
C74	C	2.264145	0.293424	0.858787
C75	C	2.597479	0.626758	1.192120
C76	C	1.842065	0.024694	0.474570
C77	C	2.175398	0.358027	0.807904
C78	C	2.508731	0.691360	1.141237
C79	C	1.852919	0.016788	0.358253
C80	C	2.186252	0.350121	0.691586
C81	C	2.519586	0.683455	1.024920
C82	C	1.919959	-0.032005	0.641781
C83	C	2.253293	0.301329	0.975115
C84	C	2.586626	0.634662	1.308448
H85	H	1.423232	-0.121269	0.000021
H86	H	1.756566	0.212065	0.333355
H87	H	2.089899	0.545398	0.666688
F88	F	1.662223	-0.503209	0.000006
F89	F	1.995556	-0.169876	0.333340
F90	F	2.328890	0.163457	0.666673
H91	H	1.349621	0.106069	-0.000011
H92	H	1.682955	0.439402	0.333323
H93	H	2.016288	0.772736	0.666656
F94	F	2.110633	-0.511988	0.000025
F95	F	2.443966	-0.178655	0.333358
F96	F	2.777299	0.154679	0.666691
H97	H	1.757935	0.085939	0.518366
H98	H	2.091268	0.419273	0.851699
H99	H	2.424602	0.752606	1.185033
H100	H	2.014938	-0.101149	0.481663
H101	H	2.348272	0.232184	0.814996
H102	H	2.681605	0.565517	1.148330
