data_functionalizedCrystal
_audit_creation_method	'MofGen! by Chris Wilmer'
_symmetry_space_group_name_H-M	'P1'
_symmetry_Int_Tables_number	1
_symmetry_cell_setting	triclinic
loop_
_symmetry_equiv_pos_as_xyz
  x,y,z
_cell_length_a	18.101395
_cell_length_b	16.625547
_cell_length_c	16.625539
_cell_angle_alpha	90.027058
_cell_angle_beta	89.972352
_cell_angle_gamma	89.969710
loop_
_atom_site_label
_atom_site_type_symbol
_atom_site_fract_x
_atom_site_fract_y
_atom_site_fract_z
Zn1	Zn	-0.294844	-1.232632	-0.456053
Zn2	Zn	0.205156	-0.732632	0.043947
Zn3	Zn	-0.418693	-1.232515	-0.321221
Zn4	Zn	0.081307	-0.732515	0.178779
Zn5	Zn	-0.294868	-1.097794	-0.321218
Zn6	Zn	0.205132	-0.597794	0.178782
Zn7	Zn	-0.418647	-1.097744	-0.455996
Zn8	Zn	0.081353	-0.597744	0.044004
O9	O	-0.356763	-1.165171	-0.388622
O10	O	0.143237	-0.665171	0.111378
O11	O	-0.311283	-1.345449	-0.438192
O12	O	0.188717	-0.845449	0.061808
O13	O	-0.402297	-1.214616	-0.208388
O14	O	0.097703	-0.714616	0.291612
O15	O	-0.191232	-1.115750	-0.339126
O16	O	0.308768	-0.615750	0.160874
O17	O	-0.402274	-1.345363	-0.339132
O18	O	0.097726	-0.845363	0.160868
O19	O	-0.191215	-1.214815	-0.438189
O20	O	0.308785	-0.714815	0.061811
O21	O	-0.311324	-1.115637	-0.208386
O22	O	0.188676	-0.615637	0.291614
O23	O	-0.311279	-0.984955	-0.339071
O24	O	0.188721	-0.484955	0.160929
O25	O	-0.402195	-1.115665	-0.568836
O26	O	0.097805	-0.615665	-0.068836
O27	O	-0.402218	-0.984918	-0.438092
O28	O	0.097782	-0.484918	0.061908
O29	O	-0.311237	-1.214767	-0.568878
O30	O	0.188763	-0.714767	-0.068878
O31	O	-0.522320	-1.214567	-0.339077
O32	O	-0.022320	-0.714567	0.160923
O33	O	-0.522286	-1.115552	-0.438096
O34	O	-0.022286	-0.615552	0.061904
C35	C	-0.356746	-0.955680	-0.388576
C36	C	0.143254	-0.455680	0.111424
C37	C	-0.356757	-0.866059	-0.388575
C38	C	0.143243	-0.366059	0.111425
C39	C	-0.356757	-0.793277	-0.388582
C40	C	0.143243	-0.293277	0.111418
C41	C	-0.356760	-0.701968	-0.388599
C42	C	0.143240	-0.201968	0.111401
C43	C	-0.356766	-0.629192	-0.388616
C44	C	0.143234	-0.129192	0.111384
C45	C	-0.356770	-0.537878	-0.388632
C46	C	0.143230	-0.037878	0.111368
C47	C	-0.549174	-1.165063	-0.388598
C48	C	-0.049174	-0.665063	0.111402
C49	C	-0.631488	-1.165091	-0.388615
C50	C	-0.131488	-0.665091	0.111385
C51	C	-0.930579	-1.165268	-0.388659
C52	C	-0.430579	-0.665268	0.111341
C53	C	-0.899263	-1.103114	-0.451113
C54	C	-0.399263	-0.603114	0.048887
C55	C	-0.813645	-1.102819	-0.450917
C56	C	-0.313645	-0.602819	0.049083
C57	C	-0.782196	-1.165180	-0.388638
C58	C	-0.282196	-0.665180	0.111362
C59	C	-0.813348	-1.142173	-0.303657
C60	C	-0.313348	-0.642173	0.196343
C61	C	-0.898993	-1.141772	-0.304031
C62	C	-0.398993	-0.641772	0.195969
C63	C	-0.898923	-1.250565	-0.410437
C64	C	-0.398923	-0.750565	0.089563
C65	C	-0.813272	-1.250063	-0.412300
C66	C	-0.313272	-0.750063	0.087700
C67	C	-0.698337	-1.165132	-0.388621
C68	C	-0.198337	-0.665132	0.111379
C69	C	-1.014438	-1.165314	-0.388670
C70	C	-0.514438	-0.665314	0.111330
C71	C	-0.163601	-1.165302	-0.388663
C72	C	0.336399	-0.665302	0.111337
C73	C	-0.081287	-1.165357	-0.388681
C74	C	0.418713	-0.665357	0.111319
C75	C	-0.356708	-1.165224	-0.598931
C76	C	0.143292	-0.665224	-0.098931
C77	C	-0.356685	-1.165246	-0.688552
C78	C	0.143315	-0.665246	-0.188552
C79	C	-0.356778	-0.375480	-0.388659
C80	C	0.143222	0.124520	0.111341
C81	C	-0.356776	-0.465101	-0.388650
C82	C	0.143224	0.034899	0.111350
C83	C	-0.356602	-1.165283	-1.016728
C84	C	0.143398	-0.665283	-0.516728
C85	C	-0.356627	-1.165271	-0.925419
C86	C	0.143373	-0.665271	-0.425419
C87	C	-0.356644	-1.165265	-0.852643
C88	C	0.143356	-0.665265	-0.352643
C89	C	-0.356668	-1.165252	-0.761329
C90	C	0.143332	-0.665252	-0.261329
C91	C	-0.356765	-1.165165	-0.179131
C92	C	0.143235	-0.665165	0.320869
C93	C	-0.356580	-1.165299	-0.089510
C94	C	0.143420	-0.665299	0.410490
H95	H	-0.792581	-1.117214	-0.513929
H96	H	-0.292581	-0.617214	-0.013929
Cl97	Cl	-0.932605	-1.006097	-0.429138
Cl98	Cl	-0.432605	-0.506097	0.070862
H99	H	-0.791861	-1.298821	-0.370128
H100	H	-0.291861	-0.798821	0.129872
H101	H	-0.791962	-1.080482	-0.284879
H102	H	-0.291962	-0.580482	0.215121
Cl103	Cl	-0.782106	-1.005205	-0.428647
Cl104	Cl	-0.282106	-0.505205	0.071353
Cl105	Cl	-0.929940	-1.045507	-0.275551
Cl106	Cl	-0.429940	-0.545507	0.224449
Cl107	Cl	-0.930989	-1.125112	-0.548717
Cl108	Cl	-0.430989	-0.625112	-0.048717
H109	H	-0.919174	-1.296871	-0.364949
H110	H	-0.419174	-0.796871	0.135051
Cl111	Cl	-0.930984	-1.208623	-0.229731
Cl112	Cl	-0.430984	-0.708623	0.270269
Cl113	Cl	-0.932190	-1.282949	-0.504482
Cl114	Cl	-0.432190	-0.782949	-0.004482
H115	H	-0.792909	-1.267413	-0.474841
H116	H	-0.292909	-0.767413	0.025159
Cl117	Cl	-0.781901	-1.209864	-0.229850
Cl118	Cl	-0.281901	-0.709864	0.270150
