data_functionalizedCrystal
_audit_creation_method	'MofGen! by Chris Wilmer'
_symmetry_space_group_name_H-M	'P1'
_symmetry_Int_Tables_number	1
_symmetry_cell_setting	triclinic
loop_
_symmetry_equiv_pos_as_xyz
  x,y,z
_cell_length_a	9.730217
_cell_length_b	17.699083
_cell_length_c	17.699083
_cell_angle_alpha	83.283015
_cell_angle_beta	89.995866
_cell_angle_gamma	90.004622
loop_
_atom_site_label
_atom_site_type_symbol
_atom_site_fract_x
_atom_site_fract_y
_atom_site_fract_z
O1	O	0.114100	-1.004073	-0.095710
O2	O	0.114145	-0.783694	-0.108162
O3	O	0.114109	-0.900110	0.008253
O4	O	0.114136	-0.887657	-0.212125
O5	O	-0.114471	-0.900106	0.008254
O6	O	-0.114435	-0.783691	-0.108161
O7	O	-0.114480	-1.004069	-0.095709
Zn8	Zn	-0.150749	-0.893879	-0.101935
Zn9	Zn	0.150415	-0.893884	-0.101936
O10	O	-0.114444	-0.887654	-0.212124
C11	C	-0.000139	-0.755495	-0.107716
C12	C	-0.000122	-0.671477	-0.106377
C13	C	-0.000193	-1.032268	-0.096156
C14	C	-0.000201	-1.116286	-0.097494
N15	N	-0.356286	-0.893882	-0.101934
C16	C	-0.356309	-0.997009	0.001123
C17	C	-0.428260	-1.048578	0.052649
C18	C	-0.572139	-1.048586	0.052649
C19	C	-0.644071	-0.997018	0.001120
C20	C	-0.572120	-0.945449	-0.050406
C21	C	-0.428237	-0.945448	-0.050403
C22	C	-0.572098	-0.842319	-0.153458
C23	C	-0.428218	-0.842313	-0.153463
C24	C	-0.644029	-0.790751	-0.204987
C25	C	-0.572078	-0.739184	-0.256518
C26	C	-0.428190	-0.739179	-0.256517
C27	C	-0.356267	-0.790745	-0.204989
N28	N	0.355951	-0.893888	-0.101932
C29	C	-0.000181	-0.899662	0.036451
C30	C	-0.000181	-0.898323	0.120469
C31	C	-0.000114	-0.622856	-0.174710
C32	C	-0.000132	-0.543913	-0.173448
C33	C	-0.000148	-0.513592	-0.103852
C34	C	-0.000160	-0.562219	-0.035513
C35	C	-0.000152	-0.641161	-0.036776
C36	C	-0.000195	-0.243856	-0.030418
C37	C	-0.000199	-0.164908	-0.029160
C38	C	-0.000175	-0.146608	-0.167090
C39	C	-0.000167	-0.225550	-0.168353
C40	C	-0.000186	-0.274170	-0.100015
C41	C	-0.000169	-0.359769	-0.101384
C42	C	-0.000155	-0.427995	-0.102481
C43	C	-0.000151	-0.888102	-0.240322
C44	C	-0.000142	-0.889440	-0.324340
C45	C	-0.000197	-0.966656	0.169090
C46	C	-0.000185	-0.965394	0.248033
C47	C	-0.000166	-0.895798	0.278354
C48	C	-0.000146	-0.827459	0.229727
C49	C	-0.000149	-0.828722	0.150785
C50	C	-0.000134	-0.822364	0.548090
C51	C	-0.000135	-0.821106	0.627038
C52	C	-0.000170	-0.959036	0.645338
C53	C	-0.000173	-0.960299	0.566396
C54	C	-0.000145	-0.891961	0.517776
C55	C	-0.000156	-0.893330	0.432177
C56	C	-0.000165	-0.894427	0.363951
H57	H	-0.239154	-0.997014	0.001121
H58	H	-0.000185	-1.014680	0.684934
C59	C	-0.000104	-0.744541	0.660388
N60	N	-0.000079	-0.686875	0.685507
C61	C	-0.000096	-0.747189	0.494617
N62	N	-0.000064	-0.690564	0.454339
H63	H	-0.369615	-0.697183	-0.298473
C64	C	-0.000137	-0.750902	0.263082
N65	N	-0.000141	-0.693238	0.288205
H66	H	-0.000135	-0.773078	0.111198
C67	C	-0.349124	-1.105289	0.109340
N68	N	-0.289523	-1.147998	0.152045
C69	C	-0.651288	-1.105313	0.109330
N70	N	-0.710902	-1.148041	0.152022
H71	H	-0.000212	-0.283434	0.025228
H72	H	-0.761226	-0.997021	0.001130
H73	H	-0.000124	-0.504328	-0.229092
H74	H	-0.000201	-1.021038	0.287618
C75	C	-0.000218	-1.043219	0.135745
N76	N	-0.000227	-1.100889	0.110632
C77	C	-0.802301	-0.790751	-0.204976
N78	N	-0.921513	-0.790749	-0.204967
C79	C	-0.651212	-0.682460	-0.313188
N80	N	-0.710821	-0.639733	-0.355873
H81	H	-0.239112	-0.790748	-0.204986
H82	H	-0.000100	-0.647537	-0.231384
H83	H	-0.000147	-0.250232	-0.225025
H84	H	-0.000166	-0.107012	-0.222734
H85	H	-0.000214	-0.140225	0.027517
C86	C	-0.000180	-0.528864	0.041044
N87	N	-0.000190	-0.503741	0.098708
H88	H	-0.000158	-0.680748	0.018868
C89	C	-0.000193	-1.036860	0.533048
N90	N	-0.000202	-1.094528	0.507932
