data_functionalizedCrystal
_audit_creation_method	'MofGen! by Chris Wilmer'
_symmetry_space_group_name_H-M	'P1'
_symmetry_Int_Tables_number	1
_symmetry_cell_setting	triclinic
loop_
_symmetry_equiv_pos_as_xyz
  x,y,z
_cell_length_a	12.837943
_cell_length_b	12.837942
_cell_length_c	11.295483
_cell_angle_alpha	94.530417
_cell_angle_beta	85.461227
_cell_angle_gamma	94.828940
loop_
_atom_site_label
_atom_site_type_symbol
_atom_site_fract_x
_atom_site_fract_y
_atom_site_fract_z
O1	O	1.408689	0.265788	-0.099003
O2	O	1.105556	0.252345	-0.099010
O3	O	1.250401	0.107500	-0.098999
O4	O	1.263845	0.410633	-0.099013
O5	O	1.237676	0.120201	0.099051
O6	O	1.092832	0.265045	0.099040
O7	O	1.395965	0.278489	0.099047
Cu8	Cu	1.243237	0.272927	0.117127
Cu9	Cu	1.258285	0.257907	-0.117090
O10	O	1.251121	0.423333	0.099037
C11	C	1.060125	0.254153	0.000014
C12	C	0.943710	0.240609	0.000012
C13	C	0.718835	0.403439	0.000021
C14	C	0.609453	0.390717	0.000020
C15	C	0.615561	0.202446	0.000016
C16	C	0.724943	0.215167	0.000017
C17	C	0.776576	0.315667	0.000018
C18	C	0.885961	0.328387	0.000011
C19	C	0.892066	0.140117	0.000016
C20	C	0.782684	0.127396	0.000015
C21	C	1.239497	0.074781	0.000025
C22	C	1.225953	-0.041634	0.000023
C23	C	1.388784	-0.266509	0.000002
C24	C	1.376062	-0.375892	-0.000000
C25	C	1.187791	-0.369784	0.000008
C26	C	1.200512	-0.260402	0.000010
C27	C	1.301011	-0.208768	0.000009
C28	C	1.313731	-0.099383	0.000020
C29	C	1.125461	-0.093278	0.000019
C30	C	1.112740	-0.202660	0.000017
C31	C	1.441396	0.276680	0.000021
C32	C	1.557812	0.290224	0.000015
C33	C	1.262024	0.456052	0.000010
C34	C	1.275569	0.572467	0.000004
N35	N	1.232661	0.283491	0.281863
N36	N	1.268868	0.247335	-0.281825
C37	C	1.344996	0.171231	0.531161
C38	C	1.337012	0.179223	0.655824
C39	C	1.208702	0.307459	0.655854
C40	C	1.216687	0.299467	0.531191
C41	C	1.284837	0.231353	0.468849
C42	C	1.292826	0.223367	0.344183
C43	C	1.164512	0.351597	0.344216
C44	C	1.156528	0.359589	0.468879
H45	H	0.928000	0.410219	0.000014
C46	C	1.098348	0.417746	0.275671
H47	H	1.112862	0.403234	0.192497
H48	H	1.115320	0.490047	0.296109
H49	H	1.026041	0.400755	0.296107
C50	C	0.725882	0.016855	0.000007
H51	H	0.652468	0.021847	-0.000001
H52	H	0.740627	-0.015320	0.069066
H53	H	0.749500	-0.024156	-0.069071
H54	H	0.760876	0.485269	0.000020
C55	C	0.558751	0.091910	0.000028
H56	H	0.485337	0.096909	0.000025
H57	H	0.573498	0.059744	0.069092
H58	H	0.582358	0.050886	-0.069046
C59	C	1.472608	-0.439409	-0.000010
H60	H	1.450642	-0.511950	-0.000021
H61	H	1.508942	-0.418314	0.069050
H62	H	1.517799	-0.427161	-0.069087
H63	H	0.939091	0.068646	0.000006
C64	C	1.002198	-0.259458	0.000013
H65	H	0.951747	-0.209401	0.000009
H66	H	0.988885	-0.297582	0.069072
H67	H	0.997760	-0.306421	-0.069066
H68	H	1.395563	-0.057344	0.000023
C69	C	1.133674	0.382308	0.724439
H70	H	1.098961	0.416948	0.669476
H71	H	1.172458	0.432759	0.773106
H72	H	1.083280	0.343365	0.773035
H73	H	1.400494	0.115777	0.480401
C74	C	1.028908	-0.029761	0.000017
H75	H	1.050876	0.042779	0.000010
H76	H	0.983707	-0.042008	0.069078
H77	H	0.992587	-0.050859	-0.069059
H78	H	0.562444	0.462191	0.000025
C79	C	1.499324	-0.209709	0.000010
H80	H	1.549778	-0.259765	0.000003
H81	H	1.503760	-0.162739	0.069075
H82	H	1.512638	-0.171593	-0.069062
H83	H	1.348320	0.167908	0.293425
C84	C	1.077254	-0.426593	0.000008
H85	H	1.082253	-0.500007	0.000011
H86	H	1.045089	-0.411838	-0.069051
H87	H	1.036228	-0.402993	0.069086
H88	H	1.385998	0.130265	0.706555
H89	H	1.101038	0.415044	0.519653
