data_functionalizedCrystal
_audit_creation_method	'MofGen! by Chris Wilmer'
_symmetry_space_group_name_H-M	'P1'
_symmetry_Int_Tables_number	1
_symmetry_cell_setting	triclinic
loop_
_symmetry_equiv_pos_as_xyz
  x,y,z
_cell_length_a	11.169417
_cell_length_b	12.759400
_cell_length_c	11.169409
_cell_angle_alpha	89.967381
_cell_angle_beta	89.979747
_cell_angle_gamma	90.014415
loop_
_atom_site_label
_atom_site_type_symbol
_atom_site_fract_x
_atom_site_fract_y
_atom_site_fract_z
Zn1	Zn	1.834948	-0.418147	-0.678530
Zn2	Zn	1.834824	-0.593872	-0.477846
Zn3	Zn	1.634231	-0.418212	-0.477865
Zn4	Zn	1.634231	-0.593788	-0.678492
O5	O	1.734558	-0.506005	-0.578183
O6	O	2.002881	-0.441465	-0.651917
O7	O	1.808164	-0.570633	-0.309898
O8	O	1.660908	-0.271182	-0.504508
O9	O	2.002790	-0.570570	-0.504475
O10	O	1.808373	-0.271134	-0.651936
O11	O	1.660788	-0.441576	-0.309913
O12	O	1.466281	-0.441494	-0.504471
O13	O	1.660908	-0.570426	-0.846447
O14	O	1.466281	-0.570489	-0.651870
O15	O	1.808374	-0.441384	-0.846475
O16	O	1.808164	-0.740882	-0.504437
O17	O	1.660789	-0.740820	-0.651851
C18	C	1.422734	-0.505991	-0.578169
C19	C	1.289334	-0.506010	-0.578192
C20	C	1.734495	-0.778972	-0.578164
C21	C	1.734578	-0.895749	-0.578196
C22	C	1.811325	-0.950506	-0.655025
C23	C	1.811381	-1.060230	-0.655054
C24	C	1.657940	-1.060430	-0.501416
C25	C	1.657879	-0.950708	-0.501394
C26	C	1.888025	-0.895547	-0.731827
C27	C	1.964779	-0.950305	-0.808661
C28	C	1.964835	-1.060029	-0.808690
C29	C	1.888137	-1.114995	-0.731885
C30	C	2.047601	-0.506020	-0.578198
C31	C	2.181001	-0.506026	-0.578204
C32	C	1.734655	-0.505888	-0.891226
C33	C	1.734696	-0.505839	-1.024626
C34	C	1.734654	-0.231971	-0.578228
C35	C	1.734695	-0.115195	-0.578248
C36	C	1.734532	-0.506045	-0.266358
C37	C	1.734723	-0.505799	-0.132959
H38	H	2.027218	-0.905545	-0.871199
O39	O	2.039213	-1.113269	-0.883453
C40	C	2.055360	-1.237073	-1.045487
C41	C	1.970982	-1.176829	-0.960915
H42	H	2.000230	-1.288492	-1.108120
H43	H	2.110143	-1.178988	-1.100461
H44	H	2.118190	-1.288394	-0.990423
H45	H	1.908079	-1.125507	-1.015887
H46	H	1.916283	-1.234970	-0.905938
H47	H	1.888174	-1.204340	-0.731929
O48	O	1.887864	-0.788963	-0.731998
C49	C	1.856979	-0.631446	-0.847017
C50	C	1.857089	-0.752150	-0.846986
H51	H	1.832125	-0.601647	-0.939982
H52	H	1.788910	-0.601687	-0.778985
H53	H	1.949917	-0.601644	-0.822116
H54	H	1.764201	-0.782041	-0.871917
H55	H	1.925221	-0.781838	-0.914993
O56	O	1.583559	-1.113983	-0.426846
C57	C	1.515606	-1.283107	-0.358840
C58	C	1.599920	-1.222591	-0.443336
H59	H	1.528787	-1.370926	-0.372161
H60	H	1.536719	-1.261662	-0.262051
H61	H	1.418821	-1.261522	-0.379816
H62	H	1.696734	-1.244143	-0.422468
H63	H	1.578704	-1.244041	-0.540099
O64	O	1.583286	-0.897672	-0.426655
C65	C	1.431032	-0.909439	-0.274337
C66	C	1.515477	-0.969633	-0.358888
H67	H	1.376169	-0.967593	-0.219543
H68	H	1.486068	-0.858098	-0.211535
H69	H	1.368279	-0.858052	-0.329410
H70	H	1.578247	-1.021077	-0.303912
H71	H	1.460366	-1.020908	-0.421693
