data_functionalizedCrystal
_audit_creation_method	'MofGen! by Chris Wilmer'
_symmetry_space_group_name_H-M	'P1'
_symmetry_Int_Tables_number	1
_symmetry_cell_setting	triclinic
loop_
_symmetry_equiv_pos_as_xyz
  x,y,z
_cell_length_a	15.944493
_cell_length_b	15.944551
_cell_length_c	9.730223
_cell_angle_alpha	89.997716
_cell_angle_beta	90.000362
_cell_angle_gamma	83.486891
loop_
_atom_site_label
_atom_site_type_symbol
_atom_site_fract_x
_atom_site_fract_y
_atom_site_fract_z
O1	O	1.114550	0.108096	-0.114275
O2	O	0.869993	0.121504	-0.114282
O3	O	0.998950	-0.007476	-0.114266
O4	O	0.985593	0.237076	-0.114291
O5	O	0.998948	-0.007473	0.114314
O6	O	0.869992	0.121507	0.114298
O7	O	1.114548	0.108100	0.114305
Zn8	Zn	0.992270	0.114804	0.150594
Zn9	Zn	0.992272	0.114800	-0.150570
O10	O	0.985592	0.237080	0.114289
C11	C	0.838698	0.120957	0.000007
C12	C	0.745449	0.119314	0.000005
C13	C	0.509689	0.195235	-0.000004
C14	C	0.459130	0.154296	0.112708
C15	C	0.574728	0.116270	0.000008
C16	C	0.459136	0.154274	-0.112654
C17	C	0.409819	0.113336	0.000005
C18	C	0.525397	0.075352	0.112813
C19	C	0.525407	0.075342	-0.112650
C20	C	0.474880	0.034345	0.000089
C21	C	0.669728	0.117963	0.000011
C22	C	0.314821	0.111637	0.000012
C23	C	0.998395	-0.038768	0.000025
C24	C	0.996732	-0.132014	0.000025
C25	C	0.912826	-0.346853	0.000004
C26	C	0.951788	-0.407877	0.112709
C27	C	0.993725	-0.302739	0.000015
C28	C	0.951809	-0.407864	-0.112653
C29	C	0.990814	-0.467651	-0.000002
C30	C	1.032710	-0.362535	0.112813
C31	C	1.032719	-0.362515	-0.112651
C32	C	1.071741	-0.423521	0.000082
C33	C	0.995399	-0.207737	0.000025
C34	C	0.989146	-0.562652	-0.000002
C35	C	1.145844	0.108646	0.000013
C36	C	1.239092	0.110289	0.000006
C37	C	0.986147	0.268372	-0.000004
C38	C	0.987809	0.361617	-0.000014
N39	N	0.992275	0.114806	0.356130
N40	N	0.992274	0.114790	-0.356107
C41	C	1.049391	0.057713	0.428063
C42	C	1.049389	0.057703	0.571946
C43	C	0.935151	0.171886	0.571950
C44	C	0.935150	0.171892	0.428070
C45	C	1.106516	0.000628	0.356124
C46	C	1.163637	-0.056469	0.428057
C47	C	1.163635	-0.056480	0.571940
C48	C	1.106511	0.000607	0.643890
H49	H	0.554353	0.042018	-0.207936
O50	O	0.873559	0.233474	0.649543
H51	H	0.808076	0.222752	0.621947
O52	O	1.225243	-0.118048	0.350472
H53	H	1.214527	-0.183531	0.378086
O54	O	1.106522	0.000635	0.200937
H55	H	1.057211	0.049930	0.163002
H56	H	0.459415	-0.033726	0.000161
O57	O	0.530404	0.285327	0.000136
H58	H	0.567205	0.296786	-0.093493
O59	O	0.906466	-0.434471	-0.238855
H60	H	0.950234	-0.478495	-0.300805
H61	H	1.210140	-0.102976	0.630507
O62	O	1.106506	0.000601	0.799079
H63	H	1.155822	-0.048688	0.837016
H64	H	0.430198	0.187636	-0.207929
O65	O	0.873549	0.233461	0.350452
H66	H	0.884247	0.298952	0.378039
O67	O	0.420791	0.198462	0.238920
H68	H	0.434424	0.265198	0.238682
H69	H	1.138950	-0.456694	0.000147
O70	O	0.823884	-0.302702	0.000140
H71	H	0.790502	-0.320743	0.093839
O72	O	1.078007	-0.335847	-0.238859
H73	H	1.044295	-0.353787	-0.332282
H74	H	0.917570	-0.427977	0.207990
O75	O	0.563569	0.031219	0.239178
H76	H	0.632977	0.032837	0.238216
H77	H	1.066898	-0.342550	0.208200
