data_functionalizedCrystal
_audit_creation_method	'MofGen! by Chris Wilmer'
_symmetry_space_group_name_H-M	'P1'
_symmetry_Int_Tables_number	1
_symmetry_cell_setting	triclinic
loop_
_symmetry_equiv_pos_as_xyz
  x,y,z
_cell_length_a	10.654550
_cell_length_b	9.065218
_cell_length_c	9.730223
_cell_angle_alpha	89.997438
_cell_angle_beta	89.999957
_cell_angle_gamma	84.750408
loop_
_atom_site_label
_atom_site_type_symbol
_atom_site_fract_x
_atom_site_fract_y
_atom_site_fract_z
O1	O	1.668660	0.207235	-0.114181
O2	O	1.303260	0.226979	-0.114206
O3	O	1.493512	0.002423	-0.114190
O4	O	1.478407	0.431790	-0.114197
O5	O	1.493500	0.002417	0.114390
O6	O	1.303247	0.226972	0.114374
O7	O	1.668647	0.207228	0.114399
Zn8	Zn	1.485945	0.217099	0.150678
Zn9	Zn	1.485962	0.217108	-0.150486
O10	O	1.478395	0.431784	0.114383
C11	C	1.256450	0.225526	0.000081
C12	C	1.116989	0.221188	0.000071
C13	C	1.038027	0.353403	0.000073
C14	C	0.906990	0.349319	0.000097
C15	C	0.933890	0.080794	0.000112
C16	C	1.064924	0.084879	0.000098
C17	C	1.492055	-0.052559	0.000097
C18	C	1.487714	-0.216378	0.000091
C19	C	1.715457	0.208681	0.000109
C20	C	1.854918	0.213019	0.000109
C21	C	1.479852	0.486766	0.000092
C22	C	1.484193	0.650585	0.000090
N23	N	1.485943	0.217093	0.356215
N24	N	1.485973	0.217102	-0.356022
C25	C	1.570217	0.117702	0.428148
C26	C	1.570229	0.117703	0.572031
C27	C	1.401691	0.316498	0.572035
C28	C	1.401674	0.316489	0.428155
H29	H	1.638832	0.036766	0.369577
H30	H	1.638850	0.036768	0.630594
C31	C	1.310269	0.424653	0.649965
C32	C	1.332245	0.569865	0.614917
C33	C	1.248039	0.669540	0.686659
H34	H	1.322257	0.410637	0.745979
H35	H	1.226243	0.407793	0.626367
H36	H	1.416251	0.586719	0.638524
H37	H	1.320247	0.583929	0.518915
H38	H	1.164013	0.652680	0.663061
H39	H	1.260034	0.655510	0.782670
H40	H	1.262930	0.768077	0.662879
C41	C	0.877431	-0.067237	0.000405
C42	C	0.917400	-0.147233	0.118020
C43	C	0.865407	-0.283601	0.118339
H44	H	0.904393	-0.121907	-0.079214
H45	H	0.788077	-0.050802	0.000482
H46	H	1.006736	-0.163673	0.117930
H47	H	0.890439	-0.092608	0.197657
H48	H	0.776053	-0.267165	0.118417
H49	H	0.892373	-0.338257	0.038716
H50	H	0.892509	-0.337889	0.198145
H51	H	1.129219	-0.022793	0.000100
C52	C	1.310375	0.424487	0.349872
C53	C	1.378291	0.515508	0.267224
C54	C	1.294232	0.614993	0.195077
H55	H	1.260164	0.483835	0.413165
H56	H	1.257507	0.370873	0.293678
H57	H	1.431137	0.569118	0.323413
H58	H	1.428498	0.456202	0.203905
H59	H	1.241363	0.561378	0.138884
H60	H	1.244024	0.674330	0.258380
H61	H	1.340300	0.676753	0.138983
H62	H	0.842704	0.456982	0.000102
C63	C	1.094383	0.501497	-0.000156
C64	C	1.054354	0.581521	-0.117734
C65	C	1.106224	0.717963	-0.117978
H66	H	1.183730	0.485213	-0.000238
H67	H	1.067353	0.556068	0.079516
H68	H	1.081391	0.526962	-0.197385
H69	H	0.965014	0.597845	-0.117677
H70	H	1.079194	0.772535	-0.038306
H71	H	1.195569	0.701664	-0.118057
H72	H	1.079063	0.772282	-0.197747
