data_functionalizedCrystal
_audit_creation_method	'MofGen! by Chris Wilmer'
_symmetry_space_group_name_H-M	'P1'
_symmetry_Int_Tables_number	1
_symmetry_cell_setting	triclinic
loop_
_symmetry_equiv_pos_as_xyz
  x,y,z
_cell_length_a	14.519709
_cell_length_b	18.366186
_cell_length_c	19.288874
_cell_angle_alpha	90.005656
_cell_angle_beta	83.410185
_cell_angle_gamma	90.003469
loop_
_atom_site_label
_atom_site_type_symbol
_atom_site_fract_x
_atom_site_fract_y
_atom_site_fract_z
O1	O	1.223300	0.060456	0.091049
O2	O	1.473300	0.310456	0.341049
O3	O	1.723300	0.560456	0.591049
O4	O	1.973300	0.810456	0.841049
O5	O	0.954756	0.060478	0.101772
O6	O	1.204756	0.310478	0.351772
O7	O	1.454756	0.560478	0.601772
O8	O	1.704756	0.810478	0.851772
O9	O	1.096783	0.060461	-0.004692
O10	O	1.346783	0.310461	0.245308
O11	O	1.596783	0.560461	0.495308
O12	O	1.846783	0.810461	0.745308
O13	O	1.081273	0.060473	0.197512
O14	O	1.331273	0.310473	0.447512
O15	O	1.581273	0.560473	0.697512
O16	O	1.831273	0.810473	0.947512
O17	O	1.096758	-0.060639	-0.004695
O18	O	1.346758	0.189361	0.245305
O19	O	1.596758	0.439361	0.495305
O20	O	1.846758	0.689361	0.745305
O21	O	0.954731	-0.060621	0.101769
O22	O	1.204731	0.189379	0.351769
O23	O	1.454731	0.439379	0.601769
O24	O	1.704731	0.689379	0.851769
O25	O	1.223276	-0.060644	0.091046
O26	O	1.473276	0.189356	0.341046
O27	O	1.723276	0.439356	0.591046
O28	O	1.973276	0.689356	0.841046
Zn29	Zn	1.089000	-0.079860	0.096407
Zn30	Zn	1.339000	0.170140	0.346407
Zn31	Zn	1.589000	0.420140	0.596407
Zn32	Zn	1.839000	0.670140	0.846407
Zn33	Zn	1.089032	0.079694	0.096411
Zn34	Zn	1.339032	0.329694	0.346411
Zn35	Zn	1.589032	0.579694	0.596411
Zn36	Zn	1.839032	0.829694	0.846411
O37	O	1.081249	-0.060626	0.197509
O38	O	1.331249	0.189374	0.447509
O39	O	1.581249	0.439374	0.697509
O40	O	1.831249	0.689374	0.947509
C41	C	0.920387	-0.000069	0.101270
C42	C	1.170387	0.249931	0.351270
C43	C	1.420387	0.499931	0.601270
C44	C	1.670387	0.749931	0.851270
C45	C	0.818015	-0.000060	0.099773
C46	C	1.068015	0.249940	0.349773
C47	C	1.318015	0.499940	0.599773
C48	C	1.568015	0.749940	0.849773
C49	C	0.443154	-0.000094	0.094260
C50	C	0.693154	0.249906	0.344260
C51	C	0.943154	0.499906	0.594260
C52	C	1.193154	0.749906	0.844260
C53	C	0.547452	-0.000084	0.095791
C54	C	0.797452	0.249916	0.345791
C55	C	1.047452	0.499916	0.595791
C56	C	1.297452	0.749916	0.845791
C57	C	0.630581	-0.000076	0.097016
C58	C	0.880581	0.249924	0.347016
C59	C	1.130581	0.499924	0.597016
C60	C	1.380581	0.749924	0.847016
C61	C	0.734886	-0.000068	0.098548
C62	C	0.984886	0.249932	0.348548
C63	C	1.234886	0.499932	0.598548
C64	C	1.484886	0.749932	0.848548
N65	N	1.088984	-0.188751	0.096404
N66	N	1.338984	0.061249	0.346404
N67	N	1.588984	0.311249	0.596404
N68	N	1.838984	0.561249	0.846404
C69	C	1.144734	-0.226847	0.138628
C70	C	1.394734	0.023153	0.388628
C71	C	1.644734	0.273153	0.638628
C72	C	1.894734	0.523153	0.888628
C73	C	1.144749	-0.303075	0.138626
C74	C	1.394749	-0.053075	0.388626
C75	C	1.644749	0.196925	0.638626
C76	C	1.894749	0.446925	0.888626
C77	C	1.088997	-0.341203	0.096408
C78	C	1.338997	-0.091203	0.346408
C79	C	1.588997	0.158797	0.596408
C80	C	1.838997	0.408797	0.846408
C81	C	1.033244	-0.303098	0.054175
C82	C	1.283244	-0.053098	0.304175
C83	C	1.533244	0.196902	0.554175
C84	C	1.783244	0.446902	0.804175
C85	C	1.033238	-0.226871	0.054173
C86	C	1.283238	0.023129	0.304173
C87	C	1.533238	0.273129	0.554173
C88	C	1.783238	0.523129	0.804173
C89	C	1.005866	-0.461978	0.094352
C90	C	1.255866	-0.211978	0.344352
C91	C	1.505866	0.038022	0.594352
C92	C	1.755866	0.288022	0.844352
C93	C	1.005871	-0.538203	0.094359
C94	C	1.255871	-0.288203	0.344359
C95	C	1.505871	-0.038203	0.594359
C96	C	1.755871	0.211797	0.844359
C97	C	1.089018	-0.576311	0.096410
C98	C	1.339018	-0.326311	0.346410
C99	C	1.589018	-0.076311	0.596410
C100	C	1.839018	0.173689	0.846410
C101	C	1.172162	-0.538185	0.098469
C102	C	1.422162	-0.288185	0.348469
C103	C	1.672162	-0.038185	0.598469
C104	C	1.922162	0.211815	0.848469
C105	C	1.172155	-0.461959	0.098467
C106	C	1.422155	-0.211959	0.348467
C107	C	1.672155	0.038041	0.598467
C108	C	1.922155	0.288041	0.848467
C109	C	1.088998	-0.423858	0.096405
C110	C	1.338998	-0.173858	0.346405
C111	C	1.588998	0.076142	0.596405
C112	C	1.838998	0.326142	0.846405
C113	C	1.144789	-0.697062	0.138635
C114	C	1.394789	-0.447062	0.388635
C115	C	1.644789	-0.197062	0.638635
C116	C	1.894789	0.052938	0.888635
C117	C	1.144806	-0.773292	0.138628
C118	C	1.394806	-0.523292	0.388628
C119	C	1.644806	-0.273292	0.638628
C120	C	1.894806	-0.023292	0.888628
C121	C	1.033292	-0.773313	0.054181
C122	C	1.283292	-0.523313	0.304181
C123	C	1.533292	-0.273313	0.554181
C124	C	1.783292	-0.023313	0.804181
C125	C	1.033284	-0.697085	0.054184
C126	C	1.283284	-0.447085	0.304184
C127	C	1.533284	-0.197085	0.554184
C128	C	1.783284	0.052915	0.804184
C129	C	1.089031	-0.658964	0.096415
C130	C	1.339031	-0.408964	0.346415
C131	C	1.589031	-0.158964	0.596415
C132	C	1.839031	0.091036	0.846415
C133	C	1.257645	-0.000095	0.091548
C134	C	1.507645	0.249905	0.341548
C135	C	1.757645	0.499905	0.591548
C136	C	2.007645	0.749905	0.841548
C137	C	1.360016	-0.000099	0.093045
C138	C	1.610016	0.249901	0.343045
C139	C	1.860016	0.499901	0.593045
C140	C	2.110016	0.749901	0.843045
C141	C	1.096270	-0.000089	-0.030571
C142	C	1.346270	0.249911	0.219429
C143	C	1.596270	0.499911	0.469429
C144	C	1.846270	0.749911	0.719429
C145	C	1.094768	-0.000089	-0.107680
C146	C	1.344768	0.249911	0.142320
C147	C	1.594768	0.499911	0.392320
C148	C	1.844768	0.749911	0.642320
N149	N	1.089055	0.188585	0.096409
N150	N	1.339055	0.438585	0.346409
N151	N	1.589055	0.688585	0.596409
N152	N	1.839055	0.938585	0.846409
C153	C	1.083966	-0.066081	-0.663290
C154	C	1.333966	0.183919	-0.413290
C155	C	1.583966	0.433919	-0.163290
C156	C	1.833966	0.683919	0.086710
C157	C	1.085367	-0.066085	-0.590837
C158	C	1.335367	0.183915	-0.340837
C159	C	1.585367	0.433915	-0.090837
C160	C	1.835367	0.683915	0.159163
C161	C	1.086086	-0.000075	-0.554601
C162	C	1.336086	0.249925	-0.304601
C163	C	1.586086	0.499925	-0.054601
C164	C	1.836086	0.749925	0.195399
C165	C	1.085379	0.065945	-0.590822
C166	C	1.335379	0.315945	-0.340822
C167	C	1.585379	0.565945	-0.090822
C168	C	1.835379	0.815945	0.159178
C169	C	1.083968	0.065947	-0.663273
C170	C	1.333968	0.315947	-0.413273
C171	C	1.583968	0.565947	-0.163273
C172	C	1.833968	0.815947	0.086727
C173	C	1.142345	0.050492	-0.445066
C174	C	1.392345	0.300492	-0.195066
C175	C	1.642345	0.550492	0.054934
C176	C	1.892345	0.800492	0.304934
C177	C	1.143762	0.050487	-0.372618
C178	C	1.393762	0.300487	-0.122618
C179	C	1.643762	0.550487	0.127382
C180	C	1.893762	0.800487	0.377382
C181	C	1.090434	-0.000079	-0.331140
C182	C	1.340434	0.249921	-0.081140
C183	C	1.590434	0.499921	0.168860
C184	C	1.840434	0.749921	0.418860
C185	C	1.035701	-0.050652	-0.362120
C186	C	1.285701	0.199348	-0.112120
C187	C	1.535701	0.449348	0.137880
C188	C	1.785701	0.699348	0.387880
C189	C	1.034290	-0.050649	-0.434571
C190	C	1.284290	0.199351	-0.184571
C191	C	1.534290	0.449351	0.065429
C192	C	1.784290	0.699351	0.315429
C193	C	1.087616	-0.000070	-0.476041
C194	C	1.337616	0.249930	-0.226041
C195	C	1.587616	0.499930	0.023959
C196	C	1.837616	0.749930	0.273959
C197	C	1.092654	-0.066098	-0.216365
C198	C	1.342654	0.183902	0.033635
C199	C	1.592654	0.433902	0.283635
C200	C	1.842654	0.683902	0.533635
C201	C	1.094051	-0.066100	-0.143910
C202	C	1.344051	0.183900	0.106090
C203	C	1.594051	0.433900	0.356090
C204	C	1.844051	0.683900	0.606090
C205	C	1.094071	0.065932	-0.143898
C206	C	1.344071	0.315932	0.106102
C207	C	1.594071	0.565932	0.356102
C208	C	1.844071	0.815932	0.606102
C209	C	1.092666	0.065931	-0.216351
C210	C	1.342666	0.315931	0.033649
C211	C	1.592666	0.565931	0.283649
C212	C	1.842666	0.815931	0.533649
C213	C	1.091962	-0.000086	-0.252580
C214	C	1.341962	0.249914	-0.002580
C215	C	1.591962	0.499914	0.247420
C216	C	1.841962	0.749914	0.497420
C217	C	1.081761	-0.000075	0.223389
C218	C	1.331761	0.249925	0.473389
C219	C	1.581761	0.499925	0.723389
C220	C	1.831761	0.749925	0.973389
C221	C	1.083264	-0.000071	0.300498
C222	C	1.333264	0.249929	0.550498
C223	C	1.583264	0.499929	0.800498
C224	C	1.833264	0.749929	1.050498
H225	H	1.190131	-0.195814	0.173013
H226	H	1.440131	0.054186	0.423013
H227	H	1.690131	0.304186	0.673013
H228	H	1.940131	0.554186	0.923013
Cl229	Cl	1.083088	0.148939	-0.708800
Cl230	Cl	1.333088	0.398939	-0.458800
Cl231	Cl	1.583088	0.648939	-0.208800
Cl232	Cl	1.833088	0.898939	0.041200
H233	H	1.094646	0.119679	-0.114395
H234	H	1.344646	0.369679	0.135605
H235	H	1.594646	0.619679	0.385605
H236	H	1.844646	0.869679	0.635605
Cl237	Cl	1.214840	-0.350978	0.191712
Cl238	Cl	1.464840	-0.100978	0.441712
Cl239	Cl	1.714840	0.149022	0.691712
Cl240	Cl	1.964840	0.399022	0.941712
H241	H	1.085961	0.119691	-0.561315
H242	H	1.335961	0.369691	-0.311315
H243	H	1.585961	0.619691	-0.061315
H244	H	1.835961	0.869691	0.188685
H245	H	1.085922	-0.119841	-0.561345
H246	H	1.335922	0.130159	-0.311345
H247	H	1.585922	0.380159	-0.061345
H248	H	1.835922	0.630159	0.188655
Cl249	Cl	1.214902	-0.821185	0.191712
Cl250	Cl	1.464902	-0.571185	0.441712
Cl251	Cl	1.714902	-0.321185	0.691712
Cl252	Cl	1.964902	-0.071185	0.941712
H253	H	1.092101	0.119685	-0.245836
H254	H	1.342101	0.369685	0.004164
H255	H	1.592101	0.619685	0.254164
H256	H	1.842101	0.869685	0.504164
Cl257	Cl	1.276674	-0.414031	0.101054
Cl258	Cl	1.526674	-0.164031	0.351054
Cl259	Cl	1.776674	0.085969	0.601054
Cl260	Cl	2.026674	0.335969	0.851054
H261	H	1.083391	-0.119838	-0.692783
H262	H	1.333391	0.130162	-0.442783
H263	H	1.583391	0.380162	-0.192783
H264	H	1.833391	0.630162	0.057217
H265	H	1.239868	-0.569211	0.100143
H266	H	1.489868	-0.319211	0.350143
H267	H	1.739868	-0.069211	0.600143
H268	H	1.989868	0.180789	0.850143
Cl269	Cl	1.212572	0.114060	-0.333678
Cl270	Cl	1.462572	0.364060	-0.083678
Cl271	Cl	1.712572	0.614060	0.166322
Cl272	Cl	1.962572	0.864060	0.416322
H273	H	1.190182	-0.666023	0.173021
H274	H	1.440182	-0.416023	0.423021
H275	H	1.690182	-0.166023	0.673021
H276	H	1.940182	0.083977	0.923021
Cl277	Cl	1.209374	0.114079	-0.497201
Cl278	Cl	1.459374	0.364079	-0.247201
Cl279	Cl	1.709374	0.614079	0.002799
Cl280	Cl	1.959374	0.864079	0.252799
Cl281	Cl	0.968660	-0.114228	-0.309985
Cl282	Cl	1.218660	0.135772	-0.059985
Cl283	Cl	1.468660	0.385772	0.190015
Cl284	Cl	1.718660	0.635772	0.440015
Cl285	Cl	0.963214	-0.821239	0.001098
Cl286	Cl	1.213214	-0.571239	0.251098
Cl287	Cl	1.463214	-0.321239	0.501098
Cl288	Cl	1.713214	-0.071239	0.751098
Cl289	Cl	0.963176	-0.649190	0.001113
Cl290	Cl	1.213176	-0.399190	0.251113
Cl291	Cl	1.463176	-0.149190	0.501113
Cl292	Cl	1.713176	0.100810	0.751113
Cl293	Cl	1.091764	-0.149090	-0.261913
Cl294	Cl	1.341764	0.100910	-0.011913
Cl295	Cl	1.591764	0.350910	0.238087
Cl296	Cl	1.841764	0.600910	0.488087
H297	H	0.987838	-0.195854	0.019788
H298	H	1.237838	0.054146	0.269788
H299	H	1.487838	0.304146	0.519788
H300	H	1.737838	0.554146	0.769788
Cl301	Cl	0.901348	-0.586125	0.091778
Cl302	Cl	1.151348	-0.336125	0.341778
Cl303	Cl	1.401348	-0.086125	0.591778
Cl304	Cl	1.651348	0.163875	0.841778
H305	H	0.938152	-0.430956	0.092686
H306	H	1.188152	-0.180956	0.342686
H307	H	1.438152	0.069044	0.592686
H308	H	1.688152	0.319044	0.842686
Cl309	Cl	1.094916	-0.149093	-0.098383
Cl310	Cl	1.344916	0.100907	0.151617
Cl311	Cl	1.594916	0.350907	0.401617
Cl312	Cl	1.844916	0.600907	0.651617
Cl313	Cl	0.963159	-0.351030	0.001099
Cl314	Cl	1.213159	-0.101030	0.251099
Cl315	Cl	1.463159	0.148970	0.501099
Cl316	Cl	1.713159	0.398970	0.751099
Cl317	Cl	0.965480	-0.114219	-0.473515
Cl318	Cl	1.215480	0.135781	-0.223515
Cl319	Cl	1.465480	0.385781	0.026485
Cl320	Cl	1.715480	0.635781	0.276485
