data_functionalizedCrystal
_audit_creation_method	'MofGen! by Chris Wilmer'
_symmetry_space_group_name_H-M	'P1'
_symmetry_Int_Tables_number	1
_symmetry_cell_setting	triclinic
loop_
_symmetry_equiv_pos_as_xyz
  x,y,z
_cell_length_a	19.288864
_cell_length_b	9.065215
_cell_length_c	17.766277
_cell_angle_alpha	89.994669
_cell_angle_beta	89.976791
_cell_angle_gamma	84.075472
loop_
_atom_site_label
_atom_site_type_symbol
_atom_site_fract_x
_atom_site_fract_y
_atom_site_fract_z
O1	O	0.922781	0.184032	-0.062834
O2	O	0.720713	0.208857	-0.062783
O3	O	0.825925	-0.018344	-0.062807
O4	O	0.817569	0.411234	-0.062811
O5	O	0.825906	-0.018356	0.062382
O6	O	0.720694	0.208846	0.062406
O7	O	0.922762	0.184020	0.062354
Cu8	Cu	0.821726	0.196432	0.073811
Cu9	Cu	0.821749	0.196446	-0.074239
O10	O	0.817550	0.411222	0.062378
C11	C	0.694821	0.208053	-0.000182
C12	C	0.617699	0.205655	-0.000162
C13	C	0.574037	0.338967	-0.000175
C14	C	0.501572	0.336714	-0.000184
C15	C	0.472773	0.201142	-0.000194
C16	C	0.516444	0.067813	-0.000177
C17	C	0.588907	0.070069	-0.000161
C18	C	0.363690	0.094571	-0.044077
C19	C	0.291229	0.092320	-0.044098
C20	C	0.249273	0.194176	-0.000239
C21	C	0.279787	0.298308	0.043630
C22	C	0.352250	0.300565	0.043646
C23	C	0.394200	0.198680	-0.000211
C24	C	0.127036	0.325054	-0.000261
C25	C	0.054571	0.322796	-0.000264
C26	C	0.069445	0.053891	-0.000265
C27	C	0.141909	0.056153	-0.000253
C28	C	0.170700	0.191739	-0.000255
C29	C	0.825113	-0.073309	-0.000213
C30	C	0.822713	-0.237068	-0.000215
C31	C	0.948654	0.184825	-0.000248
C32	C	1.025776	0.187223	-0.000273
C33	C	0.818362	0.466186	-0.000218
C34	C	0.820762	0.629946	-0.000221
N35	N	0.821716	0.196422	0.177941
N36	N	0.821765	0.196444	-0.178370
C37	C	0.868319	0.095866	0.217317
C38	C	0.868323	0.095859	0.296119
C39	C	0.821731	0.196433	0.335541
C40	C	0.775118	0.296997	0.296156
C41	C	0.775111	0.296991	0.217355
C42	C	0.813475	0.330849	0.460380
C43	C	0.813487	0.330857	0.539178
C44	C	0.821749	0.196451	0.578588
C45	C	0.830014	0.062032	0.539189
C46	C	0.830007	0.062026	0.460388
C47	C	0.821733	0.196450	0.420987
C48	C	0.868360	0.095879	0.703410
C49	C	0.868359	0.095871	0.782213
C50	C	0.775157	0.297021	0.782248
C51	C	0.775155	0.297017	0.703447
C52	C	0.821760	0.196448	0.664032
H53	H	0.177459	-0.052404	-0.000247
O54	O	0.804560	0.475815	0.417867
H55	H	0.847447	0.543053	0.432952
O56	O	0.258328	-0.019999	-0.091412
H57	H	0.222043	0.038649	-0.132618
H58	H	0.737181	0.378884	0.328257
H59	H	0.150480	0.435456	-0.000251
O60	O	0.804587	0.475834	0.581667
H61	H	0.753778	0.537499	0.566575
H62	H	0.737218	0.378905	0.814345
H63	H	0.397845	0.011625	-0.079797
H64	H	0.737160	0.378877	0.185294
O65	O	0.605085	0.485206	-0.000156
H66	H	0.587636	0.549262	-0.051179
O67	O	0.485389	-0.078417	-0.000188
H68	H	0.427665	-0.057591	-0.000208
O69	O	0.838945	-0.082944	0.581686
H70	H	0.844702	-0.176407	0.541052
H71	H	0.836734	-0.047423	0.428313
H72	H	0.624458	-0.038493	-0.000150
O73	O	0.454466	0.480504	-0.000206
H74	H	0.486660	0.575162	-0.000210
H75	H	0.377092	0.385348	0.079368
H76	H	0.245628	0.381249	0.079344
O77	O	0.724891	0.405492	0.660977
H78	H	0.690739	0.343567	0.625106
O79	O	0.918574	-0.012619	0.174804
H80	H	0.950976	-0.082554	0.215429
H81	H	0.019021	0.431359	-0.000271
H82	H	0.045997	-0.056494	-0.000320
O83	O	0.918599	-0.012587	0.338601
H84	H	0.909044	-0.127555	0.323491
O85	O	0.918614	-0.012602	0.660890
H86	H	0.951013	-0.082547	0.701513
H87	H	0.906307	0.013978	0.814274
