data_functionalizedCrystal
_audit_creation_method	'MofGen! by Chris Wilmer'
_symmetry_space_group_name_H-M	'P1'
_symmetry_Int_Tables_number	1
_symmetry_cell_setting	triclinic
loop_
_symmetry_equiv_pos_as_xyz
  x,y,z
_cell_length_a	16.625545
_cell_length_b	21.295418
_cell_length_c	16.625539
_cell_angle_alpha	89.956100
_cell_angle_beta	90.028107
_cell_angle_gamma	89.956233
loop_
_atom_site_label
_atom_site_type_symbol
_atom_site_fract_x
_atom_site_fract_y
_atom_site_fract_z
Zn1	Zn	-0.320608	-0.962353	0.456413
Zn2	Zn	-0.455451	-0.962272	0.321580
Zn3	Zn	-0.320679	-0.857083	0.321538
Zn4	Zn	-0.455445	-0.857055	0.456315
O5	O	-0.388046	-0.909691	0.388962
O6	O	-0.338468	-1.050432	0.438585
O7	O	-0.437606	-0.948296	0.208742
O8	O	-0.207837	-0.871094	0.339453
O9	O	-0.437537	-1.050372	0.339524
O10	O	-0.207785	-0.948435	0.438544
O11	O	-0.338589	-0.871015	0.208711
O12	O	-0.338584	-0.768990	0.339358
O13	O	-0.437527	-0.871045	0.569161
O14	O	-0.437596	-0.768969	0.438378
O15	O	-0.338462	-0.948407	0.569232
O16	O	-0.568283	-0.948268	0.339430
O17	O	-0.568279	-0.870966	0.438419
C18	C	-0.388097	-0.746139	0.388854
C19	C	-0.388139	-0.676171	0.388827
C20	C	-0.597537	-0.909622	0.388936
C21	C	-0.687158	-0.909651	0.388952
C22	C	-0.439764	-0.643310	0.440306
C23	C	-0.439748	-0.577567	0.440336
C24	C	-0.388114	-0.544688	0.388873
C25	C	-0.336479	-0.577557	0.337389
C26	C	-0.336491	-0.643299	0.337366
N27	N	-0.381823	-0.441416	0.318340
N28	N	-0.381816	-0.378964	0.318364
C29	C	-0.388073	-0.346614	0.388940
N30	N	-0.394353	-0.379074	0.459492
N31	N	-0.394364	-0.441531	0.459467
C32	C	-0.388095	-0.473403	0.388892
C33	C	-0.439684	-0.242467	0.440457
C34	C	-0.439662	-0.176723	0.440488
C35	C	-0.336397	-0.176715	0.337534
C36	C	-0.336415	-0.242457	0.337509
C37	C	-0.388063	-0.275329	0.388970
C38	C	-0.759940	-0.909675	0.388968
C39	C	-0.851249	-0.909712	0.388986
C40	C	-0.924025	-0.909744	0.388996
C41	C	-1.015340	-0.909780	0.389013
C42	C	-0.177737	-0.909776	0.389005
C43	C	-0.088116	-0.909813	0.389023
C44	C	-0.387986	-0.909732	0.599271
C45	C	-0.387960	-0.909749	0.688892
C46	C	-0.388009	-0.073881	0.389047
C47	C	-0.388027	-0.143849	0.389025
C48	C	-0.388048	-0.909686	0.179471
C49	C	-0.387846	-0.909791	0.089850
C50	C	-0.387870	-0.909778	1.017068
C51	C	-0.387898	-0.909768	0.925759
C52	C	-0.387916	-0.909764	0.852983
C53	C	-0.387942	-0.909753	0.761668
H54	H	-0.481819	-0.670070	0.482211
O55	O	-0.489733	-0.274474	0.490488
C56	C	-0.443898	-0.312568	0.542642
H57	H	-0.382761	-0.322436	0.514305
H58	H	-0.476764	-0.358782	0.553371
H59	H	-0.435108	-0.287289	0.602421
O60	O	-0.489699	-0.144773	0.490586
C61	C	-0.443858	-0.106812	0.542752
H62	H	-0.380365	-0.126673	0.547842
H63	H	-0.473106	-0.106098	0.604749
H64	H	-0.441036	-0.056968	0.517848
O65	O	-0.286258	-0.675251	0.287467
C66	C	-0.234261	-0.713369	0.333448
H67	H	-0.229355	-0.693614	0.396969
H68	H	-0.172173	-0.714138	0.304393
H69	H	-0.259209	-0.763176	0.336162
H70	H	-0.294352	-0.149946	0.295634
H71	H	-0.294380	-0.269213	0.295585
O72	O	-0.489972	-0.545734	0.490375
C73	C	-0.535539	-0.588845	0.535810
H74	H	-0.538304	-0.635679	0.502763
H75	H	-0.599072	-0.569808	0.544308
H76	H	-0.506089	-0.595909	0.597096
H77	H	-0.294437	-0.550783	0.295489
