data_functionalizedCrystal
_audit_creation_method	'MofGen! by Chris Wilmer'
_symmetry_space_group_name_H-M	'P1'
_symmetry_Int_Tables_number	1
_symmetry_cell_setting	triclinic
loop_
_symmetry_equiv_pos_as_xyz
  x,y,z
_cell_length_a	23.532355
_cell_length_b	23.532407
_cell_length_c	14.184680
_cell_angle_alpha	76.938487
_cell_angle_beta	103.078329
_cell_angle_gamma	82.838088
loop_
_atom_site_label
_atom_site_type_symbol
_atom_site_fract_x
_atom_site_fract_y
_atom_site_fract_z
O1	O	0.768259	0.056021	0.083298
O2	O	1.101592	0.389354	0.416631
O3	O	1.434925	0.722687	0.749965
O4	O	0.602396	0.066050	0.083331
O5	O	0.935730	0.399383	0.416665
O6	O	1.269063	0.732716	0.749998
O7	O	0.690326	-0.021894	0.083295
O8	O	1.023660	0.311439	0.416629
O9	O	1.356993	0.644772	0.749962
O10	O	0.680329	0.143965	0.083334
O11	O	1.013662	0.477298	0.416667
O12	O	1.346996	0.810632	0.750001
O13	O	0.664319	0.004089	-0.083554
O14	O	0.997652	0.337422	0.249780
O15	O	1.330986	0.670756	0.583113
O16	O	0.576389	0.092033	-0.083517
O17	O	0.909723	0.425366	0.249816
O18	O	1.243056	0.758700	0.583149
O19	O	0.742252	0.082004	-0.083551
O20	O	1.075585	0.415337	0.249783
O21	O	1.408918	0.748671	0.583116
Cu22	Cu	0.656946	0.089391	-0.098769
Cu23	Cu	0.990279	0.422724	0.234565
Cu24	Cu	1.323612	0.756058	0.567898
Cu25	Cu	0.687702	0.058663	0.098549
Cu26	Cu	1.021036	0.391996	0.431883
Cu27	Cu	1.354369	0.725329	0.765216
O28	O	0.654322	0.169948	-0.083515
O29	O	0.987655	0.503281	0.249819
O30	O	1.320988	0.836615	0.583152
C31	C	0.568177	0.078790	-0.000089
C32	C	0.901510	0.412123	0.333244
C33	C	1.234844	0.745457	0.666578
C34	C	0.504960	0.078034	-0.000077
C35	C	0.838293	0.411367	0.333256
C36	C	1.171627	0.744701	0.666590
C37	C	0.098763	0.087466	-0.091070
C38	C	0.432096	0.420799	0.242264
C39	C	0.765430	0.754133	0.575597
C40	C	0.039363	0.086749	-0.091074
C41	C	0.372696	0.420083	0.242260
C42	C	0.706030	0.753416	0.575593
O43	O	-0.003412	0.098404	-0.168422
O44	O	0.329921	0.431738	0.164912
O45	O	0.663255	0.765071	0.498245
N46	N	0.023831	0.072230	-0.000125
N47	N	0.357164	0.405563	0.333209
N48	N	0.690498	0.738897	0.666542
C49	C	0.067704	0.058421	0.090834
C50	C	0.401037	0.391754	0.424168
C51	C	0.734370	0.725088	0.757501
O52	O	0.049038	0.046005	0.168193
O53	O	0.382372	0.379338	0.501526
O54	O	0.715705	0.712672	0.834860
C55	C	0.127103	0.059134	0.090837
C56	C	0.460436	0.392467	0.424171
C57	C	0.793770	0.725801	0.757504
C58	C	0.142630	0.073660	-0.000118
C59	C	0.475964	0.406993	0.333216
C60	C	0.809297	0.740326	0.666549
C61	C	0.114292	0.101990	-0.182017
C62	C	0.447625	0.435323	0.151316
C63	C	0.780958	0.768657	0.484650
C64	C	0.173687	0.102708	-0.182013
C65	C	0.507021	0.436041	0.151321
C66	C	0.840354	0.769375	0.484654
C67	C	0.217555	0.088902	-0.091061
C68	C	0.550888	0.422235	0.242273
C69	C	0.884221	0.755568	0.575606
C70	C	0.202026	0.074378	-0.000113
C71	C	0.535360	0.407711	0.333220
C72	C	0.868693	0.741044	0.666553
C73	C	0.170975	0.045321	0.181795
C74	C	0.504309	0.378654	0.515128
C75	C	0.837642	0.711988	0.848462
C76	C	0.230378	0.046035	0.181790
C77	C	0.563711	0.379368	0.515124
C78	C	0.897044	0.712701	0.848457
C79	C	0.245905	0.060561	0.090835
C80	C	0.579238	0.393894	0.424169
C81	C	0.912571	0.727227	0.757502
C82	C	0.305289	0.061289	0.090843
C83	C	0.638623	0.394622	0.424176
C84	C	0.971956	0.727956	0.757510
N85	N	0.320821	0.075808	-0.000106
N86	N	0.654155	0.409142	0.333228
N87	N	0.987488	0.742475	0.666561
C88	C	0.276954	0.089615	-0.091058
C89	C	0.610287	0.422948	0.242276
C90	C	0.943621	0.756281	0.575609
C91	C	-0.057040	0.056924	0.090821
C92	C	0.276294	0.390257	0.424154
C93	C	0.609627	0.723591	0.757488
C94	C	-0.116438	0.056215	0.090819
C95	C	0.216895	0.389548	0.424152
C96	C	0.550228	0.722882	0.757486
C97	C	-0.144775	0.084542	-0.091089
C98	C	0.188558	0.417876	0.242244
C99	C	0.521892	0.751209	0.575578
C100	C	-0.085376	0.085255	-0.091086
C101	C	0.247958	0.418589	0.242247
C102	C	0.581291	0.751922	0.575581
C103	C	-0.041508	0.071443	-0.000128
C104	C	0.291826	0.404777	0.333205
C105	C	0.625159	0.738110	0.666539
C106	C	0.401691	0.091121	-0.091042
C107	C	0.735024	0.424455	0.242292
C108	C	1.068357	0.757788	0.575625
C109	C	0.461093	0.091840	-0.091029
C110	C	0.794426	0.425174	0.242304
C111	C	1.127759	0.758507	0.575638
C112	C	0.489425	0.063510	0.090878
C113	C	0.822758	0.396843	0.424212
C114	C	1.156091	0.730177	0.757545
C115	C	0.430027	0.062794	0.090867
C116	C	0.763361	0.396127	0.424200
C117	C	1.096694	0.729461	0.757533
C118	C	0.386161	0.076599	-0.000102
C119	C	0.719494	0.409932	0.333232
C120	C	1.052828	0.743266	0.666565
O121	O	0.348096	0.049638	0.168152
O122	O	0.681430	0.382972	0.501485
O123	O	1.014763	0.716305	0.834818
O124	O	0.295630	0.102021	-0.168403
O125	O	0.628963	0.435354	0.164930
O126	O	0.962297	0.768688	0.498263
C127	C	0.677068	-0.030118	-0.000132
C128	C	1.010401	0.303215	0.333202
C129	C	1.343734	0.636548	0.666535
C130	C	0.676301	-0.093334	-0.000139
C131	C	1.009634	0.239999	0.333194
C132	C	1.342967	0.573333	0.666527
C133	C	0.723542	-0.492453	-0.000094
C134	C	1.056876	-0.159120	0.333240
C135	C	1.390209	0.174214	0.666573
C136	C	0.722832	-0.551854	-0.000086
C137	C	1.056165	-0.218521	0.333247
C138	C	1.389499	0.114812	0.666581
O139	O	0.766623	-0.588611	-0.000058
O140	O	1.099957	-0.255278	0.333276
O141	O	1.433290	0.078055	0.666609
N142	N	0.670556	-0.574472	-0.000076
N143	N	1.003889	-0.241139	0.333257
N144	N	1.337223	0.092194	0.666591
C145	C	0.618988	-0.537687	-0.000064
C146	C	0.952322	-0.204354	0.333269
C147	C	1.285655	0.128980	0.666603
O148	O	0.574458	-0.562380	-0.000054
O149	O	0.907792	-0.229046	0.333279
O150	O	1.241125	0.104287	0.666613
C151	C	0.619700	-0.478288	-0.000064
C152	C	0.953034	-0.144955	0.333269
C153	C	1.286367	0.188379	0.666602
C154	C	0.671978	-0.455672	-0.000084
C155	C	1.005312	-0.122339	0.333249
C156	C	1.338645	0.210995	0.666582
C157	C	0.775816	-0.469837	-0.000113
C158	C	1.109149	-0.136503	0.333221
C159	C	1.442483	0.196830	0.666554
C160	C	0.776526	-0.410439	-0.000122
C161	C	1.109859	-0.077106	0.333211
C162	C	1.443193	0.256228	0.666545
C163	C	0.724962	-0.373658	-0.000113
C164	C	1.058295	-0.040325	0.333220
C165	C	1.391628	0.293009	0.666554
C166	C	0.672688	-0.396274	-0.000094
C167	C	1.006021	-0.062941	0.333239
C168	C	1.339355	0.270392	0.666573
C169	C	0.568134	-0.441505	-0.000045
C170	C	0.901468	-0.108172	0.333288
C171	C	1.234801	0.225162	0.666622
C172	C	0.568851	-0.382103	-0.000045
C173	C	0.902184	-0.048769	0.333288
C174	C	1.235518	0.284564	0.666622
C175	C	0.621129	-0.359487	-0.000065
C176	C	0.954462	-0.026153	0.333268
C177	C	1.287796	0.307180	0.666602
C178	C	0.621834	-0.300096	-0.000095
C179	C	0.955167	0.033238	0.333239
C180	C	1.288500	0.366571	0.666572
N181	N	0.674110	-0.277478	-0.000104
N182	N	1.007443	0.055856	0.333229
N183	N	1.340776	0.389189	0.666562
C184	C	0.725674	-0.314259	-0.000114
C185	C	1.059007	0.019074	0.333220
C186	C	1.392340	0.352408	0.666553
C187	C	0.617497	-0.662430	-0.000061
C188	C	0.950831	-0.329096	0.333272
C189	C	1.284164	0.004237	0.666606
C190	C	0.616784	-0.721826	-0.000068
C191	C	0.950117	-0.388493	0.333266
C192	C	1.283450	-0.055160	0.666599
C193	C	0.720628	-0.735990	-0.000088
C194	C	1.053961	-0.402657	0.333246
C195	C	1.387295	-0.069323	0.666579
C196	C	0.721340	-0.676591	-0.000088
C197	C	1.054673	-0.343258	0.333245
C198	C	1.388007	-0.009924	0.666578
C199	C	0.669773	-0.639812	-0.000071
C200	C	1.003107	-0.306478	0.333263
C201	C	1.336440	0.026855	0.666596
C202	C	0.727160	-0.189519	-0.000135
C203	C	1.060494	0.143814	0.333199
C204	C	1.393827	0.477148	0.666532
C205	C	0.727865	-0.130115	-0.000148
C206	C	1.061198	0.203218	0.333185
C207	C	1.394531	0.536552	0.666518
C208	C	0.624022	-0.115958	-0.000123
C209	C	0.957355	0.217376	0.333210
C210	C	1.290688	0.550709	0.666544
C211	C	0.623316	-0.175356	-0.000114
C212	C	0.956649	0.157978	0.333219
C213	C	1.289983	0.491311	0.666552
C214	C	0.674890	-0.212136	-0.000117
C215	C	1.008224	0.121197	0.333216
C216	C	1.341557	0.454531	0.666550
O217	O	0.578066	-0.263305	-0.000119
O218	O	0.911399	0.070029	0.333215
O219	O	1.244732	0.403362	0.666548
O220	O	0.770198	-0.289560	-0.000110
O221	O	1.103532	0.043774	0.333223
O222	O	1.436865	0.377107	0.666556
C223	C	0.776472	0.069264	-0.000128
C224	C	1.109805	0.402597	0.333205
C225	C	1.443138	0.735930	0.666538
C226	C	0.839689	0.070018	-0.000134
C227	C	1.173023	0.403352	0.333200
C228	C	1.506356	0.736685	0.666533
C229	C	0.667581	0.178172	-0.000086
C230	C	1.000914	0.511505	0.333248
C231	C	1.334247	0.844838	0.666581
C232	C	0.668349	0.241386	-0.000071
C233	C	1.001682	0.574720	0.333262
C234	C	1.335016	0.908053	0.666595
N235	N	0.635317	0.111003	-0.237552
N236	N	0.968651	0.444337	0.095782
N237	N	1.301984	0.777670	0.429115
C238	C	0.571836	0.174463	-0.395093
C239	C	0.905169	0.507796	-0.061760
C240	C	1.238503	0.841130	0.271573
C241	C	0.588200	0.158103	-0.290063
C242	C	0.921534	0.491436	0.043271
C243	C	1.254867	0.824770	0.376604
C244	C	0.666091	0.080247	-0.290059
C245	C	0.999424	0.413580	0.043274
C246	C	1.332758	0.746914	0.376608
C247	C	0.649735	0.096602	-0.395092
C248	C	0.983069	0.429936	-0.061758
C249	C	1.316402	0.763269	0.271575
C250	C	0.602607	0.143710	-0.447601
C251	C	0.935940	0.477044	-0.114267
C252	C	1.269274	0.810377	0.219066
C253	C	0.680506	0.065850	-0.447599
C254	C	1.013839	0.399183	-0.114266
C255	C	1.347173	0.732516	0.219068
C256	C	0.664149	0.082202	-0.552622
C257	C	0.997483	0.415535	-0.219289
C258	C	1.330816	0.748869	0.114044
C259	C	0.617022	0.129307	-0.605139
C260	C	0.950355	0.462640	-0.271805
C261	C	1.283689	0.795974	0.061528
C262	C	0.586250	0.160062	-0.552624
C263	C	0.919584	0.493396	-0.219291
C264	C	1.252917	0.826729	0.114043
C265	C	0.727631	0.018739	-0.395088
C266	C	1.060965	0.352073	-0.061755
C267	C	1.394298	0.685406	0.271579
C268	C	0.758402	-0.012013	-0.447595
C269	C	1.091736	0.321320	-0.114262
C270	C	1.425069	0.654653	0.219071
C271	C	0.742048	0.004342	-0.552621
C272	C	1.075382	0.337675	-0.219287
C273	C	1.408715	0.671008	0.114046
C274	C	0.694921	0.051446	-0.605137
C275	C	1.028254	0.384780	-0.271804
C276	C	1.361588	0.718113	0.061530
C277	C	0.772820	-0.026414	-0.605135
C278	C	1.106153	0.306919	-0.271802
C279	C	1.439487	0.640253	0.061531
C280	C	0.756463	-0.010062	-0.710159
C281	C	1.089797	0.323272	-0.376826
C282	C	1.423130	0.656605	-0.043492
C283	C	0.678564	0.067799	-0.710161
C284	C	1.011898	0.401132	-0.376827
C285	C	1.345231	0.734465	-0.043494
N286	N	0.709335	0.037046	0.237332
N287	N	1.042669	0.370379	0.570666
N288	N	1.376002	0.703713	0.903999
H289	H	-0.180503	0.095783	-0.165147
H290	H	0.152830	0.429116	0.168186
H291	H	0.486163	0.762450	0.501519
H292	H	-0.021324	0.045681	0.164895
H293	H	0.312009	0.379015	0.498228
H294	H	0.645342	0.712348	0.831561
H295	H	0.769158	-0.219460	-0.000133
H296	H	1.102491	0.113873	0.333201
H297	H	1.435824	0.447207	0.666534
H298	H	-0.129076	0.044396	0.164884
H299	H	0.204258	0.377729	0.498217
H300	H	0.537591	0.711063	0.831550
H301	H	0.704462	0.041890	-0.247294
H302	H	1.037795	0.375223	0.086039
H303	H	1.371129	0.708556	0.419372
H304	H	0.819097	-0.392032	-0.000134
H305	H	1.152430	-0.058698	0.333199
H306	H	1.485763	0.274635	0.666532
H307	H	0.781520	-0.035105	-0.752911
H308	H	1.114853	0.298229	-0.419577
H309	H	1.448187	0.631562	-0.086244
H310	H	0.580743	-0.193766	-0.000126
H311	H	0.914076	0.139568	0.333207
H312	H	1.247409	0.472901	0.666541
H313	H	0.811189	-0.064773	-0.562369
H314	H	1.144522	0.268560	-0.229036
H315	H	1.477855	0.601893	0.104298
H316	H	0.640192	0.106163	-0.752915
H317	H	0.973525	0.439496	-0.419582
H318	H	1.306858	0.772829	-0.086249
H319	H	0.763909	-0.658182	-0.000104
H320	H	1.097243	-0.324848	0.333230
H321	H	1.430576	0.008485	0.666563
H322	H	0.473730	0.103671	-0.165099
H323	H	0.807063	0.437005	0.168235
H324	H	1.140397	0.770338	0.501568
H325	H	0.603703	0.142619	-0.690656
H326	H	0.937036	0.475952	-0.357322
H327	H	1.270370	0.809285	-0.023989
H328	H	0.365980	0.102368	-0.165116
H329	H	0.699313	0.435701	0.168217
H330	H	1.032646	0.769034	0.501550
H331	H	0.547878	0.198426	-0.595379
H332	H	0.881211	0.531760	-0.262046
H333	H	1.214544	0.865093	0.071288
H334	H	0.158345	0.033492	0.255860
H335	H	0.491678	0.366825	0.589194
H336	H	0.825012	0.700158	0.922527
H337	H	0.563138	0.183149	-0.247317
H338	H	0.896471	0.516482	0.086017
H339	H	1.229805	0.849816	0.419350
H340	H	0.762615	-0.765949	-0.000091
H341	H	1.095948	-0.432616	0.333242
H342	H	1.429281	-0.099282	0.666575
H343	H	0.266094	0.034787	0.255861
H344	H	0.599427	0.368121	0.589194
H345	H	0.932760	0.701454	0.922528
H346	H	0.796773	-0.050370	-0.404831
H347	H	1.130107	0.282963	-0.071497
H348	H	1.463440	0.616296	0.261836
H349	H	0.817809	-0.499779	-0.000116
H350	H	1.151142	-0.166446	0.333217
H351	H	1.484476	0.166888	0.666550
H352	H	0.533464	0.212827	-0.437848
H353	H	0.866797	0.546160	-0.104515
H354	H	1.200130	0.879493	0.228819
H355	H	0.574211	-0.740232	-0.000069
H356	H	0.907544	-0.406899	0.333265
H357	H	1.240878	-0.073565	0.666598
H358	H	0.525565	-0.459909	-0.000023
H359	H	0.858898	-0.126575	0.333311
H360	H	1.192232	0.206758	0.666644
H361	H	0.417384	0.050975	0.164929
H362	H	0.750717	0.384309	0.498263
H363	H	1.084050	0.717642	0.831596
H364	H	0.740945	0.005425	-0.309571
H365	H	1.074279	0.338759	0.023762
H366	H	1.407612	0.672092	0.357096
H367	H	0.770437	-0.111704	-0.000167
H368	H	1.103770	0.221629	0.333166
H369	H	1.437104	0.554962	0.666499
H370	H	0.186323	0.114533	-0.256077
H371	H	0.519657	0.447866	0.077256
H372	H	0.852990	0.781200	0.410589
H373	H	0.525151	0.052272	0.164929
H374	H	0.858485	0.385605	0.498263
H375	H	1.191818	0.718938	0.831596
H376	H	0.575502	-0.632485	-0.000055
H377	H	0.908835	-0.299152	0.333278
H378	H	1.242168	0.034182	0.666611
H379	H	0.526858	-0.352159	-0.000029
H380	H	0.860192	-0.018826	0.333304
H381	H	1.193525	0.314507	0.666638
H382	H	0.582039	-0.085999	-0.000119
H383	H	0.915372	0.247334	0.333214
H384	H	1.248706	0.580667	0.666548
H385	H	-0.072739	0.097084	-0.165150
H386	H	0.260595	0.430417	0.168184
H387	H	0.593928	0.763751	0.501517
H388	H	0.078579	0.113232	-0.256085
H389	H	0.411912	0.446566	0.077248
H390	H	0.745246	0.779899	0.410582
