data_functionalizedCrystal
_audit_creation_method	'MofGen! by Chris Wilmer'
_symmetry_space_group_name_H-M	'P1'
_symmetry_Int_Tables_number	1
_symmetry_cell_setting	triclinic
loop_
_symmetry_equiv_pos_as_xyz
  x,y,z
_cell_length_a	15.944545
_cell_length_b	12.837942
_cell_length_c	11.892095
_cell_angle_alpha	85.697431
_cell_angle_beta	86.103551
_cell_angle_gamma	90.837444
loop_
_atom_site_label
_atom_site_type_symbol
_atom_site_fract_x
_atom_site_fract_y
_atom_site_fract_z
O1	O	1.130056	-0.127043	-0.093929
O2	O	1.630056	0.372957	0.406071
O3	O	0.886826	-0.143532	-0.093947
O4	O	1.386826	0.356468	0.406053
O5	O	1.003047	0.015615	-0.093931
O6	O	1.503047	0.515615	0.406069
O7	O	1.013835	-0.286190	-0.093944
O8	O	1.513835	0.213810	0.406056
O9	O	0.993356	0.002366	0.094075
O10	O	1.493356	0.502366	0.594075
O11	O	0.877134	-0.156781	0.094059
O12	O	1.377134	0.343219	0.594059
O13	O	1.120364	-0.140292	0.094078
O14	O	1.620364	0.359708	0.594078
Zn15	Zn	0.997210	-0.150640	0.123918
Zn16	Zn	1.497210	0.349360	0.623918
Zn17	Zn	1.009980	-0.133184	-0.123788
Zn18	Zn	1.509980	0.366816	0.376212
O19	O	1.004143	-0.299439	0.094062
O20	O	1.504143	0.200561	0.594062
C21	C	0.850631	-0.149473	0.000054
C22	C	1.350631	0.350527	0.500054
C23	C	0.757222	-0.147423	0.000047
C24	C	1.257222	0.352577	0.500047
C25	C	0.478207	-0.042655	0.000064
C26	C	0.978207	0.457345	0.500064
C27	C	0.528051	-0.099699	0.092761
C28	C	1.028051	0.400301	0.592761
C29	C	0.420992	-0.140118	0.000067
C30	C	0.920992	0.359882	0.500067
C31	C	0.537589	-0.086662	-0.092598
C32	C	1.037589	0.413338	0.407402
C33	C	0.586193	-0.143702	0.000055
C34	C	1.086193	0.356298	0.500055
C35	C	0.469602	-0.197141	0.092841
C36	C	0.969602	0.302859	0.592841
C37	C	0.479140	-0.184085	-0.092602
C38	C	0.979140	0.315915	0.407398
C39	C	0.528955	-0.241202	0.000118
C40	C	1.028955	0.258798	0.500118
C41	C	0.325824	-0.138050	0.000074
C42	C	0.825824	0.361950	0.500074
C43	C	0.681358	-0.145777	0.000056
C44	C	1.181358	0.354223	0.500056
C45	C	0.994558	0.047612	0.000071
C46	C	1.494558	0.547612	0.500071
C47	C	0.983690	0.162689	0.000068
C48	C	1.483690	0.662689	0.500068
C49	C	1.156559	-0.134351	0.000074
C50	C	1.656559	0.365649	0.500074
C51	C	1.249969	-0.136400	0.000074
C52	C	1.749969	0.363600	0.500074
C53	C	1.012633	-0.331435	0.000057
C54	C	1.512633	0.168565	0.500057
C55	C	1.023501	-0.446512	0.000052
C56	C	1.523501	0.053488	0.500052
N57	N	0.988502	-0.162553	0.292971
N58	N	1.488502	0.337447	0.792971
C59	C	1.114343	0.403643	0.000055
C60	C	1.614343	0.903643	0.500055
C61	C	1.104136	0.511770	0.000052
C62	C	1.604136	1.011770	0.500052
C63	C	0.953069	0.487071	0.000052
C64	C	1.453069	0.987071	0.500052
C65	C	0.963276	0.378945	0.000055
C66	C	1.463276	0.878945	0.500055
C67	C	1.043916	0.337235	0.000058
C68	C	1.543916	0.837235	0.500058
C69	C	1.054122	0.229106	0.000069
C70	C	1.554122	0.729106	0.500069
C71	C	0.903056	0.204410	0.000061
C72	C	1.403056	0.704410	0.500061
C73	C	0.892849	0.312537	0.000058
C74	C	1.392849	0.812537	0.500058
N75	N	1.018695	-0.121263	-0.292841
N76	N	1.518695	0.378737	0.207159
C77	C	1.079290	-0.038310	0.529631
C78	C	1.579290	0.461690	1.029631
C79	C	1.073209	-0.046644	0.647973
C80	C	1.573209	0.453356	1.147973
C81	C	0.970256	-0.187550	0.647997
C82	C	1.470256	0.312450	1.147997
C83	C	0.976336	-0.179216	0.529656
C84	C	1.476336	0.320784	1.029656
C85	C	1.030856	-0.104594	0.470477
C86	C	1.530856	0.395406	0.970477
C87	C	1.036941	-0.096265	0.352134
C88	C	1.536941	0.403735	0.852134
C89	C	0.933983	-0.237166	0.352160
C90	C	1.433983	0.262834	0.852160
C91	C	0.927903	-0.245500	0.470501
C92	C	1.427903	0.254500	0.970501
H93	H	0.457523	-0.219687	-0.170977
H94	H	0.957523	0.280313	0.329023
Br95	Br	1.199720	0.601894	0.000040
Br96	Br	1.699720	1.101894	0.500040
H97	H	0.887416	0.521052	0.000038
H98	H	1.387416	1.021052	0.500038
Br99	Br	0.564045	-0.040306	0.223390
Br100	Br	1.064045	0.459694	0.723390
H101	H	0.440038	-0.243800	0.171293
H102	H	0.940038	0.256200	0.671293
H103	H	0.827194	0.346512	0.000052
H104	H	1.327194	0.846512	0.500052
Br105	Br	0.853910	-0.346763	0.550822
Br106	Br	1.353910	0.153237	1.050822
Br107	Br	1.163559	0.172499	0.000084
Br108	Br	1.663559	0.672499	0.500084
H109	H	0.894548	-0.291142	0.303983
H110	H	1.394548	0.208858	0.803983
Br111	Br	0.565970	-0.381214	0.000191
Br112	Br	1.065970	0.118786	0.500191
H113	H	1.081336	-0.035508	0.303952
H114	H	1.581336	0.464492	0.803952
Br115	Br	0.807469	0.114277	0.000085
Br116	Br	1.307469	0.614277	0.500085
Br117	Br	1.153292	0.062945	0.449315
Br118	Br	1.653292	0.562945	0.949315
H119	H	1.112648	0.007332	0.696133
H120	H	1.612648	0.507332	1.196133
H121	H	0.925861	-0.248298	0.696195
H122	H	1.425861	0.251702	1.196195
H123	H	0.567252	-0.039962	-0.170962
H124	H	1.067252	0.460038	0.329038
Br125	Br	1.223777	0.347029	0.000093
Br126	Br	1.723777	0.847029	0.500093
Br127	Br	0.440915	0.097230	0.000212
Br128	Br	0.940915	0.597230	0.500212
