data_functionalizedCrystal
_audit_creation_method	'MofGen! by Chris Wilmer'
_symmetry_space_group_name_H-M	'P1'
_symmetry_Int_Tables_number	1
_symmetry_cell_setting	triclinic
loop_
_symmetry_equiv_pos_as_xyz
  x,y,z
_cell_length_a	16.625545
_cell_length_b	16.625547
_cell_length_c	16.625525
_cell_angle_alpha	90.067621
_cell_angle_beta	89.907739
_cell_angle_gamma	89.975256
loop_
_atom_site_label
_atom_site_type_symbol
_atom_site_fract_x
_atom_site_fract_y
_atom_site_fract_z
Zn1	Zn	-0.320507	-1.232986	-0.456051
Zn2	Zn	-0.455501	-1.232787	-0.321219
Zn3	Zn	-0.320684	-1.098053	-0.321216
Zn4	Zn	-0.455299	-1.098111	-0.455994
O5	O	-0.387998	-1.165484	-0.388620
O6	O	-0.338424	-1.345792	-0.438191
O7	O	-0.437776	-1.214806	-0.208386
O8	O	-0.207828	-1.116011	-0.339125
O9	O	-0.437604	-1.345646	-0.339130
O10	O	-0.207698	-1.215146	-0.438188
O11	O	-0.338727	-1.115817	-0.208384
O12	O	-0.338531	-0.985228	-0.339070
O13	O	-0.437260	-1.116111	-0.568834
O14	O	-0.437432	-0.985271	-0.438090
O15	O	-0.338229	-1.215203	-0.568876
O16	O	-0.568307	-1.214863	-0.339074
O17	O	-0.568159	-1.115917	-0.438092
C18	C	-0.597489	-1.165397	-0.388594
C19	C	-0.687110	-1.165433	-0.388611
C20	C	-0.387979	-0.955993	-0.388574
C21	C	-0.387991	-0.866372	-0.388573
C22	C	-0.759892	-1.165464	-0.388627
C23	C	-0.851201	-1.165511	-0.388644
C24	C	-0.923977	-1.165553	-0.388655
C25	C	-1.015291	-1.165599	-0.388671
C26	C	-0.387992	-0.793590	-0.388580
C27	C	-0.387995	-0.702281	-0.388597
C28	C	-0.388001	-0.629505	-0.388614
C29	C	-0.388005	-0.538191	-0.388630
C30	C	-0.177689	-1.165594	-0.388663
C31	C	-0.088068	-1.165641	-0.388681
C32	C	-0.387702	-1.165686	-0.598929
C33	C	-0.387576	-1.165771	-0.688551
C34	C	-0.388014	-0.375793	-0.388657
C35	C	-0.388012	-0.465414	-0.388648
C36	C	-0.388234	-1.165330	-0.179129
C37	C	-0.388133	-1.165400	-0.089508
C38	C	-0.388038	-1.165471	-0.016725
C39	C	-0.387912	-1.165557	0.074583
C40	C	-0.387807	-1.165622	0.147359
C41	C	-0.387681	-1.165707	0.238673
