data_functionalizedCrystal
_audit_creation_method	'MofGen! by Chris Wilmer'
_symmetry_space_group_name_H-M	'P1'
_symmetry_Int_Tables_number	1
_symmetry_cell_setting	triclinic
loop_
_symmetry_equiv_pos_as_xyz
  x,y,z
_cell_length_a	8.559649
_cell_length_b	14.519709
_cell_length_c	7.088929
_cell_angle_alpha	83.763835
_cell_angle_beta	95.325015
_cell_angle_gamma	76.729405
loop_
_atom_site_label
_atom_site_type_symbol
_atom_site_fract_x
_atom_site_fract_y
_atom_site_fract_z
O1	O	2.103670	-0.020642	-0.158956
O2	O	1.638600	0.026977	-0.158968
O3	O	1.883467	-0.131957	-0.158944
O4	O	1.858803	0.138292	-0.158979
O5	O	1.916191	-0.153240	0.159034
O6	O	1.671324	0.005694	0.159010
O7	O	2.136393	-0.041925	0.159023
Cu8	Cu	1.906847	-0.020059	0.188050
Cu9	Cu	1.868147	0.005111	-0.187996
O10	O	1.891526	0.117009	0.158999
C11	C	1.595443	0.019944	0.000020
C12	C	1.418093	0.030686	0.000015
C13	C	1.898680	-0.176876	0.000045
C14	C	1.895236	-0.279010	0.000046
C15	C	1.882552	-0.652993	-0.000004
C16	C	1.886074	-0.548938	0.000011
C17	C	1.888894	-0.466005	0.000023
C18	C	1.892417	-0.361944	0.000034
C19	C	2.179551	-0.034892	0.000031
C20	C	2.356899	-0.045633	0.000022
C21	C	1.876313	0.161928	0.000005
C22	C	1.879756	0.264063	-0.000008
N23	N	1.934078	-0.037763	0.452541
N24	N	1.840929	0.022807	-0.452487
H25	H	1.744390	0.085574	0.465858
O26	O	1.456113	-0.133457	0.000288
C27	C	1.443932	-0.193966	0.165001
H28	H	1.323216	-0.166133	0.219903
H29	H	1.546939	-0.195462	0.280318
C30	C	1.602811	-0.329823	0.047555
C31	C	1.454540	-0.295643	0.114977
H32	H	1.609361	-0.392544	0.016703
H33	H	1.611023	-0.289057	-0.063412
H34	H	1.688634	-0.331062	0.143664
H35	H	1.368721	-0.294393	0.018861
H36	H	1.446313	-0.336411	0.225928
O37	O	2.049383	-0.112676	0.549656
C38	C	2.131546	-0.166143	0.418587
H39	H	2.118954	-0.118997	0.275842
H40	H	2.077135	-0.229506	0.397385
C41	C	2.327275	-0.260545	0.672200
C42	C	2.311820	-0.202637	0.496883
H43	H	2.438475	-0.283060	0.720498
H44	H	2.271917	-0.224526	0.760506
H45	H	2.281922	-0.313340	0.654509
H46	H	2.357154	-0.149837	0.514581
H47	H	2.367190	-0.238648	0.408582
O48	O	1.318514	0.118374	0.000081
C49	C	1.157662	0.109947	0.000022
H50	H	1.157411	0.033922	0.060232
H51	H	1.093789	0.127031	-0.152533
C52	C	1.068881	0.273733	0.050751
C53	C	1.068574	0.180361	0.124717
H54	H	1.013923	0.317170	0.127660
H55	H	1.177249	0.279413	0.050783
H56	H	1.015657	0.287957	-0.076377
H57	H	1.121815	0.166135	0.251833
H58	H	0.960212	0.174681	0.124709
