data_functionalizedCrystal
_audit_creation_method	'MofGen! by Chris Wilmer'
_symmetry_space_group_name_H-M	'P1'
_symmetry_Int_Tables_number	1
_symmetry_cell_setting	triclinic
loop_
_symmetry_equiv_pos_as_xyz
  x,y,z
_cell_length_a	14.048226
_cell_length_b	14.971486
_cell_length_c	14.971486
_cell_angle_alpha	83.614129
_cell_angle_beta	89.993360
_cell_angle_gamma	89.995336
loop_
_atom_site_label
_atom_site_type_symbol
_atom_site_fract_x
_atom_site_fract_y
_atom_site_fract_z
O1	O	-0.079121	1.186947	0.116565
O2	O	0.254212	1.520280	0.449898
O3	O	0.587545	1.853614	0.783231
O4	O	-0.079132	0.926547	0.130523
O5	O	0.254201	1.259880	0.463857
O6	O	0.587535	1.593214	0.797190
O7	O	-0.079120	1.063726	-0.006656
O8	O	0.254214	1.397060	0.326677
O9	O	0.587547	1.730393	0.660011
O10	O	-0.079134	1.049768	0.253744
O11	O	0.254200	1.383101	0.587077
O12	O	0.587533	1.716434	0.920411
O13	O	0.079202	1.063710	-0.006664
O14	O	0.412535	1.397043	0.326669
O15	O	0.745868	1.730376	0.660002
O16	O	0.079189	0.926530	0.130515
O17	O	0.412523	1.259864	0.463849
O18	O	0.745856	1.593197	0.797182
O19	O	0.079200	1.186930	0.116557
O20	O	0.412533	1.520264	0.449890
O21	O	0.745867	1.853597	0.783223
Zn22	Zn	0.104331	1.056728	0.123535
Zn23	Zn	0.437665	1.390061	0.456868
Zn24	Zn	0.770998	1.723394	0.790201
Zn25	Zn	-0.104264	1.056750	0.123545
Zn26	Zn	0.229070	1.390083	0.456879
Zn27	Zn	0.562403	1.723416	0.790212
O28	O	0.079188	1.049751	0.253736
O29	O	0.412521	1.383084	0.587069
O30	O	0.745854	1.716418	0.920403
C31	C	0.000027	0.893214	0.129895
C32	C	0.333361	1.226547	0.463228
C33	C	0.666694	1.559881	0.796562
C34	C	0.000023	0.793917	0.128024
C35	C	0.333357	1.127250	0.461358
C36	C	0.666690	1.460583	0.794691
C37	C	0.000041	1.063094	-0.039985
C38	C	0.333374	1.396427	0.293348
C39	C	0.666707	1.729761	0.626682
C40	C	0.000040	1.061223	-0.139282
C41	C	0.333373	1.394556	0.194051
C42	C	0.666706	1.727890	0.527385
N43	N	0.246692	1.056719	0.123527
N44	N	0.580026	1.390053	0.456860
N45	N	0.913359	1.723386	0.790193
N46	N	-0.246624	1.056765	0.123546
N47	N	0.086709	1.390098	0.456879
N48	N	0.420042	1.723432	0.790213
C49	C	0.296516	1.117482	0.062809
C50	C	0.629849	1.450815	0.396142
C51	C	0.963182	1.784148	0.729475
C52	C	0.396173	1.117488	0.062808
C53	C	0.729507	1.450821	0.396142
C54	C	1.062840	1.784154	0.729475
C55	C	0.446006	1.056735	0.123531
C56	C	0.779339	1.390068	0.456864
C57	C	1.112672	1.723402	0.790197
C58	C	0.396175	0.995966	0.184252
C59	C	0.729508	1.329300	0.517585
C60	C	1.062842	1.662633	0.850918
C61	C	0.296519	0.995957	0.184247
C62	C	0.629853	1.329290	0.517580
C63	C	0.963186	1.662624	0.850914
C64	C	0.603889	0.995992	0.184258
C65	C	0.937223	1.329326	0.517591
C66	C	1.270556	1.662659	0.850925
C67	C	0.703552	0.996003	0.184264
C68	C	1.036885	1.329336	0.517597
C69	C	1.370219	1.662669	0.850931
C70	C	0.703543	1.117523	0.062819
C71	C	1.036877	1.450856	0.396153
C72	C	1.370210	1.784190	0.729486
C73	C	0.603888	1.117514	0.062815
C74	C	0.937221	1.450847	0.396148
C75	C	1.270554	1.784180	0.729481
C76	C	0.554064	1.056746	0.123537
C77	C	0.887397	1.390079	0.456870
C78	C	1.220731	1.723412	0.790204
C79	C	0.000038	1.220263	0.117185
C80	C	0.333372	1.553597	0.450518
C81	C	0.666705	1.886930	0.783851
C82	C	0.000036	1.319561	0.119056
C83	C	0.333369	1.652894	0.452389
C84	C	0.666703	1.986227	0.785722
C85	C	0.000037	1.376786	0.038466
C86	C	0.333371	1.710119	0.371800
C87	C	0.666704	2.043453	0.705133
C88	C	0.000040	1.470085	0.040229
C89	C	0.333374	1.803419	0.373563
C90	C	0.666707	2.136752	0.706896
C91	C	0.000036	1.506158	0.122583
C92	C	0.333369	1.839491	0.455916
C93	C	0.666702	2.172824	0.789249
C94	C	0.000037	1.448925	0.203178
C95	C	0.333371	1.782258	0.536511
C96	C	0.666704	2.115592	0.869845
C97	C	0.000041	1.355627	0.201414
C98	C	0.333374	1.688961	0.534747
C99	C	0.666708	2.022294	0.868081
C100	C	0.000028	1.643387	0.206849
C101	C	0.333361	1.976721	0.540182
C102	C	0.666694	2.310054	0.873516
C103	C	0.000022	1.736692	0.208614
C104	C	0.333356	2.070025	0.541947
C105	C	0.666689	2.403358	0.875280
C106	C	0.000027	1.757845	0.045664
C107	C	0.333360	2.091179	0.378998
C108	C	0.666694	2.424512	0.712331
C109	C	0.000031	1.664548	0.043900
C110	C	0.333364	1.997881	0.377234
C111	C	0.666697	2.331214	0.710567
C112	C	0.000031	1.607322	0.124496
C113	C	0.333364	1.940655	0.457830
C114	C	0.666697	2.273988	0.791163
C115	C	0.000044	1.141812	-0.196507
C116	C	0.333377	1.475146	0.136826
C117	C	0.666710	1.808479	0.470159
C118	C	0.000034	1.140049	-0.289807
C119	C	0.333367	1.473383	0.043527
C120	C	0.666701	1.806716	0.376860
C121	C	0.000027	1.057696	-0.325879
C122	C	0.333361	1.391029	0.007454
C123	C	0.666694	1.724363	0.340788
C124	C	0.000020	0.977101	-0.268646
C125	C	0.333354	1.310434	0.064687
C126	C	0.666687	1.643767	0.398020
C127	C	0.000023	0.978865	-0.175349
C128	C	0.333357	1.312198	0.157985
C129	C	0.666690	1.645531	0.491318
C130	C	0.000017	0.973430	-0.463109
C131	C	0.333350	1.306763	-0.129776
C132	C	0.666683	1.640096	0.203558
C133	C	0.000016	0.971665	-0.556413
C134	C	0.333349	1.304998	-0.223080
C135	C	0.666682	1.638332	0.110254
C136	C	0.000028	1.134614	-0.577567
C137	C	0.333361	1.467947	-0.244233
C138	C	0.666694	1.801281	0.089100
C139	C	0.000030	1.136378	-0.484269
C140	C	0.333364	1.469712	-0.150936
C141	C	0.666697	1.803045	0.182397
C142	C	0.000025	1.055782	-0.427043
C143	C	0.333359	1.389116	-0.093710
C144	C	0.666692	1.722449	0.239624
C145	C	0.000025	1.050384	0.287065
C146	C	0.333358	1.383717	0.620398
C147	C	0.666692	1.717050	0.953731
C148	C	0.000020	1.052254	0.386362
C149	C	0.333353	1.385588	0.719695
C150	C	0.666686	1.718921	1.053028
H151	H	0.255949	1.166957	0.013365
H152	H	0.589282	1.500290	0.346699
H153	H	0.922615	1.833624	0.680032
Br154	Br	0.000037	1.327840	-0.073305
Br155	Br	0.333370	1.661174	0.260028
Br156	Br	0.666703	1.994507	0.593362
Br157	Br	0.000011	0.859899	-0.605368
Br158	Br	0.333344	1.193232	-0.272035
Br159	Br	0.666677	1.526566	0.061298
H160	H	0.000029	1.200238	-0.624165
H161	H	0.333362	1.533572	-0.290832
H162	H	0.666695	1.866905	0.042501
Br163	Br	0.000052	1.547746	-0.069147
Br164	Br	0.333385	1.881079	0.264187
Br165	Br	0.666718	2.214413	0.597520
Br166	Br	0.463794	1.199949	-0.019599
Br167	Br	0.797128	1.533282	0.313734
Br168	Br	1.130461	1.866615	0.647068
Br169	Br	0.000037	1.248144	-0.435314
Br170	Br	0.333371	1.581478	-0.101981
Br171	Br	0.666704	1.914811	0.231353
Br172	Br	0.000010	1.615593	-0.067866
Br173	Br	0.333343	1.948926	0.265468
Br174	Br	0.666677	2.282259	0.598801
H175	H	0.000025	1.804444	-0.019960
H176	H	0.333358	2.137777	0.313374
H177	H	0.666691	2.471111	0.646707
Br178	Br	0.228901	0.913484	0.266648
Br179	Br	0.562235	1.246818	0.599981
Br180	Br	0.895568	1.580151	0.933315
H181	H	0.000010	0.907800	-0.416517
H182	H	0.333344	1.241133	-0.083184
H183	H	0.666677	1.574466	0.250150
H184	H	0.563326	0.946506	0.233702
H185	H	0.896660	1.279839	0.567035
H186	H	1.229993	1.613172	0.900368
Br187	Br	0.000021	1.785647	0.320380
Br188	Br	0.333354	2.118980	0.653713
Br189	Br	0.666687	2.452314	0.987046
H190	H	0.563314	1.166987	0.013375
H191	H	0.896648	1.500320	0.346708
H192	H	1.229981	1.833654	0.680041
Br193	Br	0.000038	1.565723	0.316230
Br194	Br	0.333371	1.899057	0.649564
Br195	Br	0.666704	2.232390	0.982897
Br196	Br	0.463801	0.913508	0.266657
Br197	Br	0.797134	1.246841	0.599990
Br198	Br	1.130467	1.580174	0.933323
H199	H	0.000039	1.478302	0.270232
H200	H	0.333373	1.811636	0.603565
H201	H	0.666706	2.144969	0.936898
H202	H	0.000043	1.309035	0.267038
H203	H	0.333377	1.642368	0.600372
H204	H	0.666710	1.975701	0.933705
H205	H	0.000055	1.208874	-0.167145
H206	H	0.333388	1.542207	0.166188
H207	H	0.666722	1.875541	0.499522
Br208	Br	0.771164	1.199996	-0.019584
Br209	Br	1.104497	1.533329	0.313749
Br210	Br	1.437831	1.866663	0.647083
H211	H	0.000039	1.205673	-0.336396
H212	H	0.333373	1.539007	-0.003063
H213	H	0.666706	1.872340	0.330270
H214	H	0.000009	0.910047	-0.298024
H215	H	0.333342	1.243380	0.035310
H216	H	0.666676	1.576714	0.368643
Br217	Br	0.000010	0.869489	-0.097684
Br218	Br	0.333344	1.202823	0.235649
Br219	Br	0.666677	1.536156	0.568983
Br220	Br	0.771175	0.913549	0.266677
Br221	Br	1.104508	1.246882	0.600010
Br222	Br	1.437841	1.580216	0.933343
