data_functionalizedCrystal
_audit_creation_method	'MofGen! by Chris Wilmer'
_symmetry_space_group_name_H-M	'P1'
_symmetry_Int_Tables_number	1
_symmetry_cell_setting	triclinic
loop_
_symmetry_equiv_pos_as_xyz
  x,y,z
_cell_length_a	16.109301
_cell_length_b	27.732048
_cell_length_c	15.186229
_cell_angle_alpha	89.991324
_cell_angle_beta	89.999362
_cell_angle_gamma	83.052068
loop_
_atom_site_label
_atom_site_type_symbol
_atom_site_fract_x
_atom_site_fract_y
_atom_site_fract_z
O1	O	1.102361	0.062130	-0.073183
O2	O	1.352361	0.312130	0.176817
O3	O	1.602361	0.562130	0.426817
O4	O	1.852361	0.812130	0.676817
O5	O	0.860204	0.069862	-0.073198
O6	O	1.110204	0.319862	0.176802
O7	O	1.360204	0.569862	0.426802
O8	O	1.610204	0.819862	0.676802
O9	O	0.988803	-0.004369	-0.073173
O10	O	1.238803	0.245631	0.176827
O11	O	1.488803	0.495631	0.426827
O12	O	1.738803	0.745631	0.676827
O13	O	0.973762	0.136361	-0.073208
O14	O	1.223762	0.386361	0.176792
O15	O	1.473762	0.636361	0.426792
O16	O	1.723762	0.886361	0.676792
O17	O	0.988795	-0.004370	0.073284
O18	O	1.238795	0.245630	0.323284
O19	O	1.488795	0.495630	0.573284
O20	O	1.738795	0.745630	0.823284
O21	O	0.860195	0.069861	0.073259
O22	O	1.110195	0.319861	0.323259
O23	O	1.360195	0.569861	0.573259
O24	O	1.610195	0.819861	0.823259
O25	O	1.102353	0.062129	0.073275
O26	O	1.352353	0.312129	0.323275
O27	O	1.602353	0.562129	0.573275
O28	O	1.852353	0.812129	0.823275
Zn29	Zn	0.981273	0.065995	0.096520
Zn30	Zn	1.231273	0.315995	0.346520
Zn31	Zn	1.481273	0.565995	0.596520
Zn32	Zn	1.731273	0.815995	0.846520
Zn33	Zn	0.981284	0.065996	-0.096444
Zn34	Zn	1.231284	0.315996	0.153556
Zn35	Zn	1.481284	0.565996	0.403556
Zn36	Zn	1.731284	0.815996	0.653556
O37	O	0.973753	0.136360	0.073250
O38	O	1.223753	0.386360	0.323250
O39	O	1.473753	0.636360	0.573250
O40	O	1.723753	0.886360	0.823250
C41	C	0.829228	0.069548	0.000029
C42	C	1.079228	0.319548	0.250029
C43	C	1.329228	0.569548	0.500029
C44	C	1.579228	0.819548	0.750029
C45	C	0.736945	0.068609	0.000024
C46	C	0.986945	0.318609	0.250024
C47	C	1.236945	0.568609	0.500024
C48	C	1.486945	0.818609	0.750024
C49	C	0.988483	-0.022378	0.000058
C50	C	1.238483	0.227622	0.250058
C51	C	1.488483	0.477622	0.500058
C52	C	1.738483	0.727622	0.750058
C53	C	0.987533	-0.076037	0.000065
C54	C	1.237533	0.173963	0.250065
C55	C	1.487533	0.423963	0.500065
C56	C	1.737533	0.673963	0.750065
C57	C	0.514154	0.110473	0.000024
C58	C	0.764154	0.360473	0.250024
C59	C	1.014154	0.610473	0.500024
C60	C	1.264154	0.860473	0.750024
C61	C	0.427445	0.109587	0.000030
C62	C	0.677445	0.359587	0.250030
C63	C	0.927445	0.609587	0.500030
C64	C	1.177445	0.859587	0.750030
C65	C	0.448409	0.021514	0.000048
C66	C	0.698409	0.271514	0.250048
C67	C	0.948409	0.521514	0.500048
C68	C	1.198409	0.771514	0.750048
C69	C	0.535117	0.022401	0.000048
C70	C	0.785117	0.272401	0.250048
C71	C	1.035117	0.522401	0.500048
C72	C	1.285117	0.772401	0.750048
C73	C	0.567987	0.066882	0.000032
C74	C	0.817987	0.316882	0.250032
C75	C	1.067987	0.566882	0.500032
C76	C	1.317987	0.816882	0.750032
C77	C	0.394570	0.065109	0.000037
C78	C	0.644570	0.315109	0.250037
C79	C	0.894570	0.565109	0.500037
C80	C	1.144570	0.815109	0.750037
C81	C	0.300556	0.064148	0.000044
C82	C	0.550556	0.314148	0.250044
C83	C	0.800556	0.564148	0.500044
C84	C	1.050556	0.814148	0.750044
C85	C	0.662007	0.067843	0.000027
C86	C	0.912007	0.317843	0.250027
C87	C	1.162007	0.567843	0.500027
C88	C	1.412007	0.817843	0.750027
C89	C	1.057541	-0.414559	0.000024
C90	C	1.307541	-0.164559	0.250024
C91	C	1.557541	0.085441	0.500024
C92	C	1.807541	0.335441	0.750024
C93	C	1.054013	-0.616233	0.000012
C94	C	1.304013	-0.366233	0.250012
C95	C	1.554013	-0.116233	0.500012
C96	C	1.804013	0.133767	0.750012
O97	O	1.118031	-0.647221	-0.000023
O98	O	1.368031	-0.397221	0.249977
O99	O	1.618031	-0.147221	0.499977
O100	O	1.868031	0.102779	0.749977
N101	N	0.977759	-0.635676	0.000008
N102	N	1.227759	-0.385676	0.250008
N103	N	1.477759	-0.135676	0.500008
N104	N	1.727759	0.114324	0.750008
C105	C	0.902381	-0.604697	0.000001
C106	C	1.152381	-0.354697	0.250001
C107	C	1.402381	-0.104697	0.500001
C108	C	1.652381	0.145303	0.750001
O109	O	0.837441	-0.625862	-0.000011
O110	O	1.087441	-0.375862	0.249989
O111	O	1.337441	-0.125862	0.499989
O112	O	1.587441	0.124138	0.749989
C113	C	0.905910	-0.403024	0.000008
C114	C	1.155910	-0.153024	0.250008
C115	C	1.405910	0.096976	0.500008
C116	C	1.655910	0.346976	0.750008
C117	C	0.982169	-0.383584	0.000020
C118	C	1.232169	-0.133584	0.250020
C119	C	1.482169	0.116416	0.500020
C120	C	1.732169	0.366416	0.750020
C121	C	1.133794	-0.395119	0.000036
C122	C	1.383794	-0.145119	0.250036
C123	C	1.633794	0.104881	0.500036
C124	C	1.883794	0.354881	0.750036
C125	C	1.134675	-0.344703	0.000044
C126	C	1.384675	-0.094703	0.250044
C127	C	1.634675	0.155297	0.500044
C128	C	1.884675	0.405297	0.750044
C129	C	1.059303	-0.313728	0.000040
C130	C	1.309303	-0.063728	0.250040
C131	C	1.559303	0.186272	0.500040
C132	C	1.809303	0.436272	0.750040
C133	C	0.983050	-0.333168	0.000028
C134	C	1.233050	-0.083168	0.250028
C135	C	1.483050	0.166832	0.500028
C136	C	1.733050	0.416832	0.750028
C137	C	0.830533	-0.372045	-0.000005
C138	C	1.080533	-0.122045	0.249995
C139	C	1.330533	0.127955	0.499995
C140	C	1.580533	0.377955	0.749995
C141	C	0.831422	-0.321624	-0.000006
C142	C	1.081422	-0.071624	0.249994
C143	C	1.331422	0.178376	0.499994
C144	C	1.581422	0.428376	0.749994
C145	C	0.907681	-0.302184	0.000007
C146	C	1.157681	-0.052184	0.250007
C147	C	1.407681	0.197816	0.500007
C148	C	1.657681	0.447816	0.750007
C149	C	0.908559	-0.251777	0.000032
C150	C	1.158559	-0.001777	0.250032
C151	C	1.408559	0.248223	0.500032
C152	C	1.658559	0.498223	0.750032
N153	N	0.984814	-0.232334	0.000036
N154	N	1.234814	0.017666	0.250036
N155	N	1.484814	0.267666	0.500036
N156	N	1.734814	0.517666	0.750036
C157	C	1.060186	-0.263310	0.000040
C158	C	1.310186	-0.013310	0.250040
C159	C	1.560186	0.236690	0.500040
C160	C	1.810186	0.486690	0.750040
C161	C	0.900534	-0.710579	-0.000000
C162	C	1.150534	-0.460579	0.250000
C163	C	1.400534	-0.210579	0.500000
C164	C	1.650534	0.039421	0.750000
C165	C	0.899652	-0.760997	-0.000000
C166	C	1.149652	-0.510997	0.250000
C167	C	1.399652	-0.260997	0.500000
C168	C	1.649652	-0.010997	0.750000
C169	C	1.051284	-0.772530	0.000009
C170	C	1.301284	-0.522530	0.250009
C171	C	1.551284	-0.272530	0.500009
C172	C	1.801284	-0.022530	0.750009
C173	C	1.052166	-0.722111	0.000015
C174	C	1.302166	-0.472111	0.250015
C175	C	1.552166	-0.222111	0.500015
C176	C	1.802166	0.027889	0.750015
C177	C	0.976789	-0.691136	0.000004
C178	C	1.226789	-0.441136	0.250004
C179	C	1.476789	-0.191136	0.500004
C180	C	1.726789	0.058864	0.750004
C181	C	1.062030	-0.157433	0.000058
C182	C	1.312030	0.092567	0.250058
C183	C	1.562030	0.342567	0.500058
C184	C	1.812030	0.592567	0.750058
C185	C	1.062905	-0.107012	0.000069
C186	C	1.312905	0.142988	0.250069
C187	C	1.562905	0.392988	0.500069
C188	C	1.812905	0.642988	0.750069
C189	C	0.911273	-0.095484	0.000056
C190	C	1.161273	0.154516	0.250056
C191	C	1.411273	0.404516	0.500056
C192	C	1.661273	0.654516	0.750056
C193	C	0.910398	-0.145900	0.000049
C194	C	1.160398	0.104100	0.250049
C195	C	1.410398	0.354100	0.500049
C196	C	1.660398	0.604100	0.750049
C197	C	0.985783	-0.176874	0.000047
C198	C	1.235783	0.073126	0.250047
C199	C	1.485783	0.323126	0.500047
C200	C	1.735783	0.573126	0.750047
O201	O	0.844576	-0.220761	0.000057
O202	O	1.094576	0.029239	0.250057
O203	O	1.344576	0.279239	0.500057
O204	O	1.594576	0.529239	0.750057
O205	O	1.125116	-0.242135	0.000033
O206	O	1.375116	0.007865	0.250033
O207	O	1.625116	0.257865	0.500033
O208	O	1.875116	0.507865	0.750033
C209	C	1.056660	-0.464975	0.000016
C210	C	1.306660	-0.214975	0.250016
C211	C	1.556660	0.035025	0.500016
C212	C	1.806660	0.285025	0.750016
C213	C	0.980407	-0.484415	0.000005
C214	C	1.230407	-0.234415	0.250005
C215	C	1.480407	0.015585	0.500005
C216	C	1.730407	0.265585	0.750005
C217	C	0.905035	-0.453440	0.000001
C218	C	1.155035	-0.203440	0.250001
C219	C	1.405035	0.046560	0.500001
C220	C	1.655035	0.296560	0.750001
C221	C	0.979525	-0.534833	0.000005
C222	C	1.229525	-0.284833	0.250005
C223	C	1.479525	-0.034833	0.500005
C224	C	1.729525	0.215167	0.750005
C225	C	1.054897	-0.565808	0.000009
C226	C	1.304897	-0.315808	0.250009
C227	C	1.554897	-0.065808	0.500009
C228	C	1.804897	0.184192	0.750009
C229	C	1.131151	-0.546365	0.000013
C230	C	1.381151	-0.296365	0.250013
C231	C	1.631151	-0.046365	0.500013
C232	C	1.881151	0.203635	0.750013
C233	C	1.132032	-0.495950	0.000020
C234	C	1.382032	-0.245950	0.250020
C235	C	1.632032	0.004050	0.500020
C236	C	1.882032	0.254050	0.750020
C237	C	0.828781	-0.472883	-0.000003
C238	C	1.078781	-0.222883	0.249997
C239	C	1.328781	0.027117	0.499997
C240	C	1.578781	0.277117	0.749997
C241	C	0.827906	-0.523299	-0.000010
C242	C	1.077906	-0.273299	0.249990
C243	C	1.327906	-0.023299	0.499990
C244	C	1.577906	0.226701	0.749990
C245	C	0.903278	-0.554274	-0.000006
C246	C	1.153278	-0.304274	0.249994
C247	C	1.403278	-0.054274	0.499994
C248	C	1.653278	0.195726	0.749994
C249	C	1.133328	0.062443	0.000046
C250	C	1.383328	0.312443	0.250046
C251	C	1.633328	0.562443	0.500046
C252	C	1.883328	0.812443	0.750046
C253	C	1.225612	0.063382	0.000045
C254	C	1.475612	0.313382	0.250045
C255	C	1.725612	0.563382	0.500045
C256	C	1.975612	0.813382	0.750045
C257	C	0.974073	0.154369	0.000017
C258	C	1.224073	0.404369	0.250017
C259	C	1.474073	0.654369	0.500017
C260	C	1.724073	0.904369	0.750017
C261	C	0.975024	0.208028	0.000004
C262	C	1.225024	0.458028	0.250004
C263	C	1.475024	0.708028	0.500004
C264	C	1.725024	0.958028	0.750004
N265	N	0.981271	0.065994	0.228213
N266	N	1.231271	0.315994	0.478213
N267	N	1.481271	0.565994	0.728213
N268	N	1.731271	0.815994	0.978213
N269	N	0.981292	0.065994	-0.228136
N270	N	1.231292	0.315994	0.021864
N271	N	1.481292	0.565994	0.271864
N272	N	1.731292	0.815994	0.521864
C273	C	1.038234	0.033135	0.453947
C274	C	1.288234	0.283135	0.703947
C275	C	1.538234	0.533135	0.953947
C276	C	1.788234	0.783135	1.203947
C277	C	1.038237	0.033134	0.546136
C278	C	1.288237	0.283134	0.796136
C279	C	1.538237	0.533134	1.046136
C280	C	1.788237	0.783134	1.296136
C281	C	0.924323	0.098854	0.546124
C282	C	1.174323	0.348854	0.796124
C283	C	1.424323	0.598854	1.046124
C284	C	1.674323	0.848854	1.296124
C285	C	0.924317	0.098852	0.453936
C286	C	1.174317	0.348852	0.703936
C287	C	1.424317	0.598852	0.953936
C288	C	1.674317	0.848852	1.203936
C289	C	0.981277	0.065993	0.407850
C290	C	1.231277	0.315993	0.657850
C291	C	1.481277	0.565993	0.907850
C292	C	1.731277	0.815993	1.157850
C293	C	0.981286	0.065994	0.592227
C294	C	1.231286	0.315994	0.842227
C295	C	1.481286	0.565994	1.092227
C296	C	1.731286	0.815994	1.342227
C297	C	0.981288	0.065993	0.692183
C298	C	1.231288	0.315993	0.942183
C299	C	1.481288	0.565993	1.192183
C300	C	1.731288	0.815993	1.442183
C301	C	0.981274	0.065994	0.307887
C302	C	1.231274	0.315994	0.557887
C303	C	1.481274	0.565994	0.807887
C304	C	1.731274	0.815994	1.057887
H305	H	0.540913	0.146692	0.000017
H306	H	0.790913	0.396692	0.250017
H307	H	1.040913	0.646692	0.500017
H308	H	1.290913	0.896692	0.750017
Cl309	Cl	0.407081	-0.034401	0.000063
Cl310	Cl	0.657081	0.215599	0.250063
Cl311	Cl	0.907081	0.465599	0.500063
Cl312	Cl	1.157081	0.715599	0.750063
H313	H	1.084615	0.006377	0.583666
H314	H	1.334615	0.256377	0.833666
H315	H	1.584615	0.506377	1.083666
H316	H	1.834615	0.756377	1.333666
Cl317	Cl	0.359772	0.164391	0.000021
Cl318	Cl	0.609772	0.414391	0.250021
Cl319	Cl	0.859772	0.664391	0.500021
Cl320	Cl	1.109772	0.914391	0.750021
H321	H	0.578951	-0.013099	0.000057
H322	H	0.828951	0.236901	0.250057
H323	H	1.078951	0.486901	0.500057
H324	H	1.328951	0.736901	0.750057
Cl325	Cl	1.109838	-0.008175	0.396014
Cl326	Cl	1.359838	0.241825	0.646014
Cl327	Cl	1.609838	0.491825	0.896014
Cl328	Cl	1.859838	0.741825	1.146014
H329	H	1.125007	-0.091187	0.000082
H330	H	1.375007	0.158813	0.250082
H331	H	1.625007	0.408813	0.500082
H332	H	1.875007	0.658813	0.750082
H333	H	1.192521	-0.571594	0.000020
H334	H	1.442521	-0.321594	0.250020
H335	H	1.692521	-0.071594	0.500020
H336	H	1.942521	0.178406	0.750020
H337	H	0.877948	0.125607	0.583656
H338	H	1.127948	0.375607	0.833656
H339	H	1.377948	0.625607	1.083656
H340	H	1.627948	0.875607	1.333656
Cl341	Cl	1.156802	-0.196363	0.000057
Cl342	Cl	1.406802	0.053637	0.250057
Cl343	Cl	1.656802	0.303637	0.500057
Cl344	Cl	1.906802	0.553637	0.750057
Cl345	Cl	0.852705	0.140161	0.395979
Cl346	Cl	1.102705	0.390161	0.645979
Cl347	Cl	1.352705	0.640161	0.895979
Cl348	Cl	1.602705	0.890161	1.145979
H349	H	1.196773	-0.328880	0.000051
H350	H	1.446773	-0.078880	0.250051
H351	H	1.696773	0.171120	0.500051
H352	H	1.946773	0.421120	0.750051
H353	H	0.848301	-0.161728	0.000063
H354	H	1.098301	0.088272	0.250063
H355	H	1.348301	0.338272	0.500063
H356	H	1.598301	0.588272	0.750063
Cl357	Cl	1.228561	-0.434051	0.000043
Cl358	Cl	1.478561	-0.184051	0.250043
Cl359	Cl	1.728561	0.065949	0.500043
Cl360	Cl	1.978561	0.315949	0.750043
H361	H	1.114263	-0.706287	0.000025
H362	H	1.364263	-0.456287	0.250025
H363	H	1.614263	-0.206287	0.500025
H364	H	1.864263	0.043713	0.750025
H365	H	0.768435	-0.387864	-0.000021
H366	H	1.018435	-0.137864	0.249979
H367	H	1.268435	0.112136	0.499979
H368	H	1.518435	0.362136	0.749979
Cl369	Cl	1.146037	-0.811479	0.000009
Cl370	Cl	1.396037	-0.561479	0.250009
Cl371	Cl	1.646037	-0.311479	0.500009
Cl372	Cl	1.896037	-0.061479	0.750009
H373	H	0.837554	-0.776820	0.000005
H374	H	1.087554	-0.526820	0.250005
H375	H	1.337554	-0.276820	0.500005
H376	H	1.587554	-0.026820	0.750005
H377	H	0.849907	-0.070255	0.000055
H378	H	1.099907	0.179745	0.250055
H379	H	1.349907	0.429745	0.500055
H380	H	1.599907	0.679745	0.750055
Cl381	Cl	1.227906	-0.471519	0.000029
Cl382	Cl	1.477906	-0.221519	0.250029
Cl383	Cl	1.727906	0.028481	0.500029
Cl384	Cl	1.977906	0.278481	0.750029
Cl385	Cl	0.805764	-0.671645	-0.000013
Cl386	Cl	1.055764	-0.421645	0.249987
Cl387	Cl	1.305764	-0.171645	0.499987
Cl388	Cl	1.555764	0.078355	0.749987
H389	H	0.770039	-0.296407	-0.000017
H390	H	1.020039	-0.046407	0.249983
H391	H	1.270039	0.203593	0.499983
H392	H	1.520039	0.453593	0.749983
H393	H	0.765802	-0.539121	-0.000013
H394	H	1.015802	-0.289121	0.249987
H395	H	1.265802	-0.039121	0.499987
H396	H	1.515802	0.210879	0.749987
H397	H	0.767402	-0.447667	-0.000009
H398	H	1.017402	-0.197667	0.249991
H399	H	1.267402	0.052333	0.499991
H400	H	1.517402	0.302333	0.749991
