data_functionalizedCrystal
_audit_creation_method	'MofGen! by Chris Wilmer'
_symmetry_space_group_name_H-M	'P1'
_symmetry_Int_Tables_number	1
_symmetry_cell_setting	triclinic
loop_
_symmetry_equiv_pos_as_xyz
  x,y,z
_cell_length_a	14.971482
_cell_length_b	11.792254
_cell_length_c	13.448316
_cell_angle_alpha	89.993237
_cell_angle_beta	89.993798
_cell_angle_gamma	83.905603
loop_
_atom_site_label
_atom_site_type_symbol
_atom_site_fract_x
_atom_site_fract_y
_atom_site_fract_z
O1	O	1.187547	0.147888	-0.082679
O2	O	1.687547	0.647888	0.417321
O3	O	0.927218	0.165605	-0.082684
O4	O	1.427218	0.665605	0.417316
O5	O	1.063694	-0.008464	-0.082675
O6	O	1.563694	0.491536	0.417325
O7	O	1.051071	0.321957	-0.082689
O8	O	1.551071	0.821957	0.417311
O9	O	1.063677	-0.008474	0.082709
O10	O	1.563677	0.491526	0.582709
O11	O	0.927201	0.165594	0.082700
O12	O	1.427201	0.665594	0.582700
O13	O	1.187530	0.147878	0.082704
O14	O	1.687530	0.647878	0.582704
Cu15	Cu	1.057364	0.156735	0.097803
Cu16	Cu	1.557364	0.656735	0.597803
Cu17	Cu	1.057384	0.156748	-0.097783
Cu18	Cu	1.557384	0.656748	0.402217
O19	O	1.051054	0.321946	0.082695
O20	O	1.551054	0.821946	0.582695
C21	C	0.893882	0.164808	0.000007
C22	C	1.393882	0.664808	0.500007
C23	C	0.794575	0.162436	0.000005
C24	C	1.294575	0.662436	0.500005
C25	C	0.747916	0.161313	0.090157
C26	C	1.247916	0.661313	0.590157
C27	C	0.654609	0.159066	0.090158
C28	C	1.154609	0.659066	0.590158
C29	C	0.607961	0.157950	0.000007
C30	C	1.107961	0.657950	0.500007
C31	C	0.654626	0.159070	-0.090152
C32	C	1.154626	0.659070	0.409848
C33	C	0.747933	0.161309	-0.090152
C34	C	1.247933	0.661309	0.409848
C35	C	0.460145	0.154407	-0.090146
C36	C	0.960145	0.654407	0.409854
C37	C	0.366832	0.152170	-0.090146
C38	C	0.866832	0.652170	0.409854
C39	C	0.366821	0.152164	0.090165
C40	C	0.866821	0.652164	0.590165
C41	C	0.460128	0.154402	0.090165
C42	C	0.960128	0.654402	0.590165
C43	C	0.506787	0.155524	0.000006
C44	C	1.006787	0.655524	0.500006
C45	C	1.062891	-0.050755	0.000017
C46	C	1.562891	0.449245	0.500017
C47	C	1.060510	-0.176752	0.000016
C48	C	1.560510	0.323248	0.500016
C49	C	1.058577	-0.279076	0.000012
C50	C	1.558577	0.220924	0.500012
C51	C	1.056159	-0.407447	0.000003
C52	C	1.556159	0.092553	0.500003
C53	C	1.220867	0.148675	0.000011
C54	C	1.720867	0.648675	0.500011
C55	C	1.320173	0.151047	0.000006
C56	C	1.820173	0.651047	0.500006
C57	C	1.051858	0.364237	0.000001
C58	C	1.551858	0.864237	0.500001
C59	C	1.054238	0.490235	-0.000005
C60	C	1.554238	0.990235	0.499995
N61	N	1.057356	0.156725	0.235367
N62	N	1.557356	0.656725	0.735367
N63	N	1.057399	0.156748	-0.235347
N64	N	1.557399	0.656748	0.264653
C65	C	1.117807	0.079679	0.287412
C66	C	1.617807	0.579679	0.787412
C67	C	1.117812	0.079679	0.391515
C68	C	1.617812	0.579679	0.891515
C69	C	1.057371	0.156730	0.443572
C70	C	1.557371	0.656730	0.943572
C71	C	0.996914	0.233779	0.391520
C72	C	1.496914	0.733779	0.891520
C73	C	0.996905	0.233774	0.287418
C74	C	1.496905	0.733774	0.787418
C75	C	0.996939	0.233787	0.608500
C76	C	1.496939	0.733787	1.108500
C77	C	0.996949	0.233794	0.712608
C78	C	1.496949	0.733794	1.212608
C79	C	1.117846	0.079692	0.712596
C80	C	1.617846	0.579692	1.212596
C81	C	1.117837	0.079686	0.608495
C82	C	1.617837	0.579686	1.108495
C83	C	1.057381	0.156738	0.556450
C84	C	1.557381	0.656738	1.056450
H85	H	0.498132	0.155320	-0.163563
H86	H	0.998132	0.655320	0.336437
F87	F	0.317188	0.150981	-0.186095
F88	F	0.817188	0.650981	0.313905
H89	H	0.947730	0.296536	0.754988
H90	H	1.447730	0.796536	1.254988
H91	H	0.947706	0.296527	0.566128
H92	H	1.447706	0.796527	1.066128
F93	F	0.604981	0.157848	-0.186099
F94	F	1.104981	0.657848	0.313901
F95	F	0.797590	0.162500	-0.186104
F96	F	1.297590	0.662500	0.313896
F97	F	1.182142	-0.002325	0.232019
F98	F	1.682142	0.497675	0.732019
H99	H	1.167035	0.016941	0.433889
H100	H	1.667035	0.516941	0.933889
H101	H	0.498106	0.155318	0.163574
H102	H	0.998106	0.655318	0.663574
F103	F	0.932562	0.315774	0.232030
F104	F	1.432562	0.815774	0.732030
H105	H	1.167057	0.016951	0.566111
H106	H	1.667057	0.516951	1.066111
H107	H	0.785889	0.162231	0.163569
H108	H	1.285889	0.662231	0.663569
H109	H	0.328827	0.151251	0.163576
H110	H	0.828827	0.651251	0.663576
H111	H	1.167071	0.016954	0.754977
H112	H	1.667071	0.516954	1.254977
F113	F	0.604954	0.157886	0.186110
F114	F	1.104954	0.657886	0.686110
F115	F	0.932582	0.315779	0.446923
F116	F	1.432582	0.815779	0.946923
