data_functionalizedCrystal
_audit_creation_method	'MofGen! by Chris Wilmer'
_symmetry_space_group_name_H-M	'P1'
_symmetry_Int_Tables_number	1
_symmetry_cell_setting	triclinic
loop_
_symmetry_equiv_pos_as_xyz
  x,y,z
_cell_length_a	15.944493
_cell_length_b	15.944493
_cell_length_c	7.681481
_cell_angle_alpha	84.264607
_cell_angle_beta	95.723158
_cell_angle_gamma	83.475044
loop_
_atom_site_label
_atom_site_type_symbol
_atom_site_fract_x
_atom_site_fract_y
_atom_site_fract_z
O1	O	1.106591	0.116054	-0.146381
O2	O	0.862032	0.129462	-0.146387
O3	O	0.991014	0.000479	-0.146399
O4	O	0.977608	0.245037	-0.146370
O5	O	1.006890	-0.015432	0.146457
O6	O	0.877907	0.113551	0.146469
O7	O	1.122467	0.100143	0.146475
Zn8	Zn	1.002708	0.104320	0.192969
Zn9	Zn	0.981791	0.125284	-0.192882
O10	O	0.993484	0.229125	0.146486
C11	C	0.838675	0.120958	0.000040
C12	C	0.745426	0.119316	0.000036
C13	C	0.509651	0.195238	0.000044
C14	C	0.466929	0.146450	0.144440
C15	C	0.574706	0.116271	0.000039
C16	C	0.451281	0.162119	-0.144293
C17	C	0.409797	0.113337	0.000035
C18	C	0.533219	0.067499	0.144555
C19	C	0.517567	0.083186	-0.144308
C20	C	0.474880	0.034339	0.000123
C21	C	0.669706	0.117964	0.000044
C22	C	0.314801	0.111638	0.000043
C23	C	0.998404	-0.038771	0.000022
C24	C	0.996760	-0.132018	-0.000001
C25	C	1.072684	-0.367795	0.000035
C26	C	1.023914	-0.410510	-0.144359
C27	C	0.993717	-0.302739	0.000021
C28	C	1.039548	-0.426173	0.144374
C29	C	0.990784	-0.467650	0.000049
C30	C	0.944962	-0.344219	-0.144492
C31	C	0.960614	-0.359886	0.144371
C32	C	0.911785	-0.402566	-0.000057
C33	C	0.995409	-0.207739	0.000003
C34	C	0.989085	-0.562647	0.000055
C35	C	1.145824	0.108647	0.000044
C36	C	1.239071	0.110290	0.000036
C37	C	0.986094	0.268376	0.000062
C38	C	0.987738	0.361623	0.000073
N39	N	1.016989	0.090012	0.456302
N40	N	0.967516	0.139586	-0.456215
H41	H	0.459432	-0.033738	0.000198
H42	H	1.079531	-0.461743	0.266440
C43	C	0.403246	0.216150	-0.309199
N44	N	0.367069	0.256851	-0.433401
H45	H	0.539902	0.056496	-0.266397
H46	H	0.917014	0.190185	0.468593
H47	H	1.067500	0.039415	0.531503
H48	H	1.140696	-0.352173	-0.000109
H49	H	0.568678	0.027531	0.266752
H50	H	1.050646	-0.432830	-0.266433
H51	H	0.905008	-0.308753	-0.266696
H52	H	0.843708	-0.418013	-0.000138
H53	H	0.525268	0.263251	0.000187
H54	H	0.444603	0.173166	0.266522
H55	H	0.933912	-0.337551	0.266450
