data_functionalizedCrystal
_audit_creation_method	'MofGen! by Chris Wilmer'
_symmetry_space_group_name_H-M	'P1'
_symmetry_Int_Tables_number	1
_symmetry_cell_setting	triclinic
loop_
_symmetry_equiv_pos_as_xyz
  x,y,z
_cell_length_a	10.686220
_cell_length_b	12.645330
_cell_length_c	10.686551
_cell_angle_alpha	85.595904
_cell_angle_beta	90.308082
_cell_angle_gamma	94.399208
loop_
_atom_site_label
_atom_site_type_symbol
_atom_site_fract_x
_atom_site_fract_y
_atom_site_fract_z
Zn1	Zn	1.972274	-0.258449	-0.562395
Zn2	Zn	1.956034	-0.450325	-0.352642
Zn3	Zn	1.746391	-0.285568	-0.368713
Zn4	Zn	1.762464	-0.448176	-0.578420
O5	O	1.859291	-0.360629	-0.465542
O6	O	2.145662	-0.273452	-0.521138
O7	O	1.914701	-0.440718	-0.179229
O8	O	1.776424	-0.133617	-0.394424
O9	O	2.133731	-0.414422	-0.367034
O10	O	1.942379	-0.113693	-0.536721
O11	O	1.760677	-0.319671	-0.191036
O12	O	1.572980	-0.317588	-0.409963
O13	O	1.803819	-0.410760	-0.751839
O14	O	1.584790	-0.437056	-0.564034
O15	O	1.957965	-0.271369	-0.740065
O16	O	1.930287	-0.598393	-0.382573
O17	O	1.788072	-0.596814	-0.548451
C18	C	1.533369	-0.380032	-0.490482
C19	C	1.393940	-0.388356	-0.501181
C20	C	1.859198	-0.636066	-0.465532
C21	C	1.859276	-0.753889	-0.465560
C22	C	1.770231	-0.920460	-0.570182
C23	C	1.769713	-0.797951	-0.569908
C24	C	1.813339	-0.809805	-0.336095
C25	C	1.812795	-0.932397	-0.336731
C26	C	1.994766	-0.910703	-0.489286
C27	C	1.994173	-0.787944	-0.492239
C28	C	2.186485	-0.341151	-0.440506
C29	C	2.325916	-0.332851	-0.429837
C30	C	1.884497	-0.337800	-0.792742
C31	C	1.895238	-0.328071	-0.932175
C32	C	1.859420	-0.084114	-0.465578
C33	C	1.859475	0.033721	-0.465593
C34	C	1.834255	-0.383289	-0.139610
C35	C	1.823757	-0.392705	-0.000159
H36	H	1.799630	-0.759649	-0.666223
N37	N	1.736650	-0.471446	-0.939372
N38	N	1.622009	-0.470296	-0.962767
H39	H	1.560485	-0.525907	-0.919829
N40	N	2.082989	-0.749547	-0.402612
N41	N	2.048155	-0.696225	-0.317229
H42	H	2.110876	-0.669111	-0.253916
N43	N	1.982324	-0.249295	-0.992951
N44	N	2.049522	-0.188524	-0.929098
H45	H	2.111025	-0.132887	-0.972019
H46	H	1.374344	-0.278963	-0.360569
N47	N	2.044876	-0.938678	-0.605024
N48	N	2.144160	-0.984883	-0.605306
H49	H	2.179543	-1.004641	-0.687050
N50	N	1.333192	-0.455989	-0.588060
N51	N	1.256632	-0.530896	-0.549329
H52	H	1.213728	-0.578663	-0.610684
N53	N	1.807608	-0.947048	-0.691440
N54	N	1.900448	-1.000085	-0.702196
H55	H	1.926873	-1.018840	-0.787842
N56	N	1.645466	-0.968457	-0.551772
N57	N	1.588338	-0.958754	-0.452031
H58	H	1.500223	-0.992655	-0.439021
N59	N	1.644143	-0.770593	-0.551226
N60	N	1.556617	-0.842028	-0.538340
H61	H	1.467926	-0.822709	-0.525143
N62	N	1.688349	-0.978134	-0.310061
N63	N	1.602502	-0.919466	-0.291111
H64	H	1.514608	-0.951762	-0.272275
N65	N	2.078343	-0.947872	-0.393591
N66	N	2.172479	-0.993699	-0.422361
H67	H	2.231497	-1.019958	-0.354775
N68	N	1.890081	-0.971089	-0.236299
N69	N	1.944242	-0.907546	-0.165957
H70	H	1.998809	-0.934868	-0.095014
H71	H	1.875831	-0.781752	-0.256484
H72	H	1.715110	-0.786943	-0.314247
N73	N	2.037391	-0.740870	-0.611706
N74	N	1.969170	-0.682446	-0.677020
H75	H	1.999687	-0.649195	-0.761396
