data_functionalizedCrystal
_audit_creation_method	'MofGen! by Chris Wilmer'
_symmetry_space_group_name_H-M	'P1'
_symmetry_Int_Tables_number	1
_symmetry_cell_setting	triclinic
loop_
_symmetry_equiv_pos_as_xyz
  x,y,z
_cell_length_a	10.686220
_cell_length_b	12.759400
_cell_length_c	12.759393
_cell_angle_alpha	89.969348
_cell_angle_beta	94.350904
_cell_angle_gamma	94.396325
loop_
_atom_site_label
_atom_site_type_symbol
_atom_site_fract_x
_atom_site_fract_y
_atom_site_fract_z
Zn1	Zn	1.929107	-0.294843	-0.470994
Zn2	Zn	1.928985	-0.470567	-0.295322
Zn3	Zn	1.718097	-0.308389	-0.308786
Zn4	Zn	1.718079	-0.483976	-0.484410
O5	O	1.823567	-0.389444	-0.389878
O6	O	2.105664	-0.306872	-0.436442
O7	O	1.900967	-0.449111	-0.150090
O8	O	1.746147	-0.159567	-0.330324
O9	O	2.105574	-0.435975	-0.307376
O10	O	1.901175	-0.149615	-0.449497
O11	O	1.746028	-0.329959	-0.159982
O12	O	1.541521	-0.342962	-0.343332
O13	O	1.746115	-0.458830	-0.629648
O14	O	1.541508	-0.471965	-0.472362
O15	O	1.901157	-0.319874	-0.619792
O16	O	1.900949	-0.619370	-0.320385
O17	O	1.745997	-0.629222	-0.459306
C18	C	1.495731	-0.410389	-0.410764
C19	C	1.355482	-0.419375	-0.419725
C20	C	1.823492	-0.662416	-0.389861
C21	C	1.823575	-0.779187	-0.389881
C22	C	1.904348	-0.828879	-0.317613
C23	C	1.904426	-0.938598	-0.317641
C24	C	1.742947	-0.948925	-0.462208
C25	C	1.742876	-0.839207	-0.462184
C26	C	1.985047	-0.768858	-0.245310
C27	C	2.065826	-0.818550	-0.173036
C28	C	2.065903	-0.928269	-0.173063
C29	C	1.985202	-0.988297	-0.245365
C30	C	2.152682	-0.368417	-0.368911
C31	C	2.292932	-0.359456	-0.359976
C32	C	1.823647	-0.389337	-0.663906
C33	C	1.823682	-0.389291	-0.780681
C34	C	1.823676	-0.115403	-0.389916
C35	C	1.823723	0.001376	-0.389932
C36	C	1.742979	-0.461612	-0.840675
C37	C	1.743025	-0.461571	-0.950396
C38	C	1.904481	-0.316879	-0.940119
C39	C	1.904440	-0.316926	-0.830400
C40	C	1.662221	-0.533977	-0.790956
C41	C	1.581510	-0.606303	-0.850951
C42	C	1.581556	-0.606262	-0.960672
C43	C	1.662313	-0.533895	-1.010399
C44	C	1.823559	-0.389469	-0.116911
C45	C	1.823769	-0.389203	-0.000122
H46	H	1.346675	-0.301283	-0.301966
C47	C	2.154761	-0.982931	-0.093570
C48	C	2.243526	-0.916907	-0.014046
C49	C	2.332384	-0.971567	0.065452
C50	C	2.332478	-1.092251	0.065426
C51	C	2.243710	-1.158282	-0.014101
C52	C	2.154852	-1.103622	-0.093599
H53	H	2.243460	-0.827563	-0.014025
H54	H	2.398096	-0.922686	0.124323
H55	H	2.398256	-1.132713	0.124276
H56	H	2.243776	-1.247626	-0.014122
H57	H	2.089140	-1.152503	-0.152470
C58	C	1.492692	-0.685911	-0.796257
C59	C	1.492638	-0.685965	-0.675570
C60	C	1.403822	-0.765579	-0.620878
C61	C	1.315060	-0.845139	-0.686873
C62	C	1.315111	-0.845089	-0.807567
C63	C	1.403927	-0.765475	-0.862258
H64	H	1.558348	-0.627067	-0.626710
H65	H	1.403785	-0.765615	-0.531533
H66	H	1.249313	-0.904074	-0.646387
H67	H	1.249401	-0.903987	-0.856426
H68	H	1.403964	-0.765438	-0.951604
C69	C	1.492772	-0.685815	-1.026663
C70	C	1.502987	-0.804605	-1.010902
C71	C	1.414189	-0.884155	-1.076890
C72	C	1.315176	-0.844914	-1.158638
C73	C	1.304956	-0.726118	-1.174402
C74	C	1.393754	-0.646568	-1.108415
H75	H	1.576286	-0.833658	-0.950384
H76	H	1.421755	-0.972096	-1.065219
H77	H	1.249442	-0.903802	-1.207485
H78	H	1.231657	-0.697065	-1.234921
H79	H	1.386188	-0.558628	-1.120086
C80	C	1.282882	-0.497976	-0.498095
C81	C	1.192218	-0.586152	-0.458153
C82	C	1.119618	-0.664751	-0.536521
C83	C	1.137683	-0.655174	-0.654831
C84	C	1.228351	-0.566995	-0.694779
C85	C	1.300950	-0.488396	-0.616411
H86	H	1.178842	-0.593245	-0.370567
H87	H	1.052500	-0.730028	-0.506948
H88	H	1.083940	-0.713358	-0.712844
H89	H	1.241727	-0.559902	-0.782365
H90	H	1.368069	-0.423119	-0.645984
C91	C	1.993208	-0.237372	-0.764395
C92	C	1.982969	-0.118582	-0.780139
C93	C	2.071743	-0.039031	-0.714132
C94	C	2.170755	-0.078269	-0.632382
C95	C	2.180998	-0.197065	-0.616635
C96	C	2.092225	-0.276616	-0.682641
H97	H	1.909671	-0.089531	-0.840659
H98	H	2.064160	0.048909	-0.725790
H99	H	2.236471	-0.019381	-0.583520
H100	H	2.254297	-0.226117	-0.556115
H101	H	2.099808	-0.364557	-0.670984
H102	H	1.662352	-0.533874	-1.099741
H103	H	1.984990	-0.679519	-0.245277
C104	C	1.654173	-1.014952	-0.541730
C105	C	1.654245	-1.135637	-0.541754
C106	C	1.565467	-1.201664	-0.621276
C107	C	1.476617	-1.147005	-0.700773
C108	C	1.476542	-1.026313	-0.700751
C109	C	1.565320	-0.960287	-0.621230
H110	H	1.720020	-1.176105	-0.482903
H111	H	1.565523	-1.291008	-0.621291
H112	H	1.410898	-1.195881	-0.759639
H113	H	1.410767	-0.985845	-0.759602
H114	H	1.565263	-0.870942	-0.621214
H115	H	2.131537	-0.769669	-0.114175
H116	H	1.985282	-1.077636	-0.245389
H117	H	1.662172	-0.534018	-0.701616
H118	H	1.677105	-0.798748	-0.521033
H119	H	1.970228	-0.257960	-0.980616
