data_functionalizedCrystal
_audit_creation_method	'MofGen! by Chris Wilmer'
_symmetry_space_group_name_H-M	'P1'
_symmetry_Int_Tables_number	1
_symmetry_cell_setting	triclinic
loop_
_symmetry_equiv_pos_as_xyz
  x,y,z
_cell_length_a	10.654550
_cell_length_b	10.654550
_cell_length_c	9.130313
_cell_angle_alpha	89.996647
_cell_angle_beta	89.999724
_cell_angle_gamma	84.484917
loop_
_atom_site_label
_atom_site_type_symbol
_atom_site_fract_x
_atom_site_fract_y
_atom_site_fract_z
O1	O	1.667839	0.176399	-0.121686
O2	O	1.302361	0.193205	-0.121712
O3	O	1.493503	0.002063	-0.121693
O4	O	1.476697	0.367541	-0.121705
O5	O	1.493490	0.002057	0.121906
O6	O	1.302348	0.193199	0.121886
O7	O	1.667826	0.176393	0.121913
Cu8	Cu	1.485086	0.184796	0.144142
Cu9	Cu	1.485101	0.184802	-0.143942
O10	O	1.476684	0.367535	0.121894
C11	C	1.255556	0.191968	0.000084
C12	C	1.116113	0.188276	0.000073
C13	C	1.036627	0.300818	0.000074
C14	C	0.905607	0.297341	0.000100
C15	C	0.933570	0.068772	0.000118
C16	C	1.064588	0.072250	0.000103
C17	C	1.492263	-0.044738	0.000104
C18	C	1.488571	-0.184181	0.000099
C19	C	1.601112	-0.263667	0.000112
C20	C	1.597636	-0.394688	0.000101
C21	C	1.369066	-0.366725	0.000072
C22	C	1.372544	-0.235706	0.000072
C23	C	1.733075	-0.279813	0.000135
C24	C	1.729599	-0.410834	0.000125
C25	C	1.714631	0.177630	0.000114
C26	C	1.854074	0.181322	0.000114
C27	C	1.477924	0.414336	0.000093
C28	C	1.481616	0.553779	0.000089
N29	N	1.485084	0.184790	0.346765
N30	N	1.485113	0.184798	-0.346564
C31	C	1.569751	0.100188	0.423425
C32	C	1.569763	0.100189	0.576762
C33	C	1.400437	0.269404	0.576765
C34	C	1.400420	0.269396	0.423431
H35	H	1.280902	-0.170993	0.000041
O36	O	1.776969	-0.465323	-0.125425
C37	C	1.736953	-0.590085	-0.337478
C38	C	1.683145	-0.528416	-0.195354
H39	H	1.661131	-0.641133	-0.394041
H40	H	1.768583	-0.514290	-0.413496
H41	H	1.821026	-0.660564	-0.310053
H42	H	1.599036	-0.457947	-0.222642
H43	H	1.651602	-0.604281	-0.119376
H44	H	0.891602	-0.025693	0.000151
O45	O	1.256287	-0.416630	0.000245
C46	C	1.059883	-0.432889	0.126459
C47	C	1.187552	-0.376269	0.126427
H48	H	1.004286	-0.400300	0.228482
H49	H	1.004136	-0.400188	0.024576
H50	H	1.076757	-0.540183	0.126384
H51	H	1.170794	-0.268973	0.126554
H52	H	1.243259	-0.409069	0.228301
O53	O	1.318031	0.351463	0.651179
C54	C	1.100303	0.423066	0.698062
C55	C	1.193488	0.330041	0.613726
H56	H	0.999591	0.405797	0.667789
H57	H	1.114752	0.408539	0.820839
H58	H	1.117594	0.523802	0.667915
H59	H	1.176254	0.229268	0.643749
H60	H	1.179017	0.344678	0.490969
H61	H	1.775091	-0.244188	0.105319
H62	H	1.129309	-0.019401	0.000107
H63	H	1.784696	-0.250452	-0.101800
O64	O	1.788710	-0.460786	0.121801
C65	C	1.770180	-0.580232	0.343572
C66	C	1.703105	-0.523759	0.205818
H67	H	1.700991	-0.631135	0.411554
H68	H	1.853015	-0.649905	0.309706
H69	H	1.806179	-0.501372	0.411493
H70	H	1.667026	-0.602532	0.137836
H71	H	1.620330	-0.454054	0.239785
O72	O	0.828575	0.406782	0.000030
C73	C	0.814675	0.633858	0.000090
C74	C	0.902057	0.510007	0.000131
H75	H	0.874049	0.717347	0.000203
H76	H	0.752649	0.638030	-0.101870
H77	H	0.752622	0.637880	0.102021
H78	H	0.964188	0.505903	-0.101731
H79	H	0.963998	0.505886	0.102159
O80	O	1.652028	0.017877	0.349178
C81	C	1.820020	-0.149917	0.365367
C82	C	1.726890	-0.056781	0.449627
H83	H	1.880589	-0.210284	0.446543
H84	H	1.765313	-0.213253	0.293638
H85	H	1.883165	-0.095090	0.293522
H86	H	1.663723	-0.111505	0.521552
H87	H	1.781675	0.006555	0.521264
H88	H	1.078574	0.395294	0.000061
H89	H	1.638704	0.031297	0.639175
H90	H	1.331468	0.338290	0.361009
