data_functionalizedCrystal
_audit_creation_method	'MofGen! by Chris Wilmer'
_symmetry_space_group_name_H-M	'P1'
_symmetry_Int_Tables_number	1
_symmetry_cell_setting	triclinic
loop_
_symmetry_equiv_pos_as_xyz
  x,y,z
_cell_length_a	14.044209
_cell_length_b	14.421503
_cell_length_c	14.044220
_cell_angle_alpha	90.003696
_cell_angle_beta	93.188415
_cell_angle_gamma	89.997181
loop_
_atom_site_label
_atom_site_type_symbol
_atom_site_fract_x
_atom_site_fract_y
_atom_site_fract_z
O1	O	-1.277173	0.077003	-0.230145
O2	O	-1.000502	0.077029	-0.221841
O3	O	-1.134685	0.077007	-0.087657
O4	O	-1.142990	0.077025	-0.364329
O5	O	-1.134662	-0.077216	-0.087677
O6	O	-1.000479	-0.077194	-0.221861
O7	O	-1.277151	-0.077220	-0.230164
Cu8	Cu	-1.138813	-0.091289	-0.226014
Cu9	Cu	-1.138839	0.091098	-0.225991
O10	O	-1.142968	-0.077198	-0.364348
C11	C	-0.964868	-0.000079	-0.218216
C12	C	-0.858726	-0.000069	-0.207372
C13	C	-0.664388	-0.000087	-0.187547
C14	C	-0.613258	-0.000085	-0.264462
C15	C	-0.505122	-0.000095	-0.253431
C16	C	-0.772534	-0.000077	-0.198576
N17	N	-1.138801	-0.219570	-0.226031
C18	C	-1.076740	-0.469214	-0.288046
C19	C	-1.164574	-0.531023	-0.313870
C20	C	-1.138822	-0.408732	-0.226010
C21	C	-1.051013	-0.531016	-0.200211
C22	C	-1.138835	-0.591453	-0.225991
C23	C	-1.226703	-0.469180	-0.251880
C24	C	-1.113082	-0.469168	-0.138179
C25	C	-1.200975	-0.530949	-0.163971
C26	C	-1.138814	-0.303471	-0.226023
C27	C	-1.138854	-0.696712	-0.225978
C28	C	-0.312784	-0.000107	-0.233792
C29	C	-0.418926	-0.000103	-0.244642
C30	C	-1.131038	-0.000104	-0.052045
C31	C	-1.120193	-0.000104	0.054097
N32	N	-1.138858	0.219379	-0.225968
C33	C	-1.146615	-0.000085	-0.399960
C34	C	-1.157459	-0.000078	-0.506103
C35	C	-1.100367	-0.000089	0.248435
C36	C	-1.177281	-0.000094	0.299566
C37	C	-1.166250	-0.000085	0.407702
C38	C	-1.111397	-0.000098	0.140289
H39	H	-0.650697	-0.000076	-0.338595
N40	N	-0.952646	-0.566994	-0.171299
H41	H	-0.953514	-0.637021	-0.170903
H42	H	-0.905855	-0.544473	-0.218233
H43	H	-1.253544	-0.557886	-0.111503
N44	N	-0.614806	-0.000103	-0.089353
H45	H	-0.543466	-0.000109	-0.095294
H46	H	-0.633932	0.057069	-0.053532
H47	H	-1.026239	-0.000080	0.285871
N48	N	-1.007279	-0.433312	-0.357604
H49	H	-1.042409	-0.393809	-0.407475
H50	H	-0.956691	-0.394811	-0.322277
N51	N	-1.193438	-0.567015	-0.412243
H52	H	-1.146500	-0.544564	-0.459067
H53	H	-1.193846	-0.637039	-0.411281
H54	H	-1.091273	-0.441977	-0.063931
H55	H	-1.300991	-0.442133	-0.273781
N56	N	-1.275482	-0.000108	0.249984
H57	H	-1.269549	-0.000114	0.178643
H58	H	-1.311279	-0.057286	0.269120
