data_functionalizedCrystal
_audit_creation_method	'MofGen! by Chris Wilmer'
_symmetry_space_group_name_H-M	'P1'
_symmetry_Int_Tables_number	1
_symmetry_cell_setting	triclinic
loop_
_symmetry_equiv_pos_as_xyz
  x,y,z
_cell_length_a	16.109318
_cell_length_b	15.455320
_cell_length_c	16.109301
_cell_angle_alpha	92.675769
_cell_angle_beta	96.534978
_cell_angle_gamma	92.663445
loop_
_atom_site_label
_atom_site_type_symbol
_atom_site_fract_x
_atom_site_fract_y
_atom_site_fract_z
O1	O	1.106750	0.072061	-0.103288
O2	O	0.864690	0.072079	-0.116571
O3	O	0.992369	0.072061	0.011100
O4	O	0.979071	0.072079	-0.230960
O5	O	0.985098	-0.072200	0.003802
O6	O	0.857419	-0.072182	-0.123870
O7	O	1.099478	-0.072200	-0.110587
Cu8	Cu	0.977785	-0.085363	-0.117895
Cu9	Cu	0.986384	0.085242	-0.109263
O10	O	0.971799	-0.072182	-0.238258
C11	C	0.830080	-0.000049	-0.119680
C12	C	0.737786	-0.000043	-0.118059
C13	C	0.442675	0.078578	-0.108846
C14	C	0.529397	0.078584	-0.110363
C15	C	0.521488	-0.078698	-0.118309
C16	C	0.434769	-0.078702	-0.116786
C17	C	0.395364	-0.000062	-0.112059
C18	C	0.568805	-0.000052	-0.115099
C19	C	0.662832	-0.000046	-0.116744
C20	C	0.301331	-0.000067	-0.110412
N21	N	0.971742	-0.205358	-0.123965
C22	C	0.938178	-0.749360	-0.157412
C23	C	0.942766	-0.658553	-0.152837
C24	C	1.001613	-0.613151	-0.094040
C25	C	1.055870	-0.658560	-0.039809
C26	C	1.051278	-0.749366	-0.044381
C27	C	1.021407	-0.341573	-0.074305
C28	C	1.025997	-0.250761	-0.069740
C29	C	0.912891	-0.250760	-0.182767
C30	C	0.908308	-0.341567	-0.187336
C31	C	0.962562	-0.386969	-0.133102
N32	N	1.006305	-0.520331	-0.089365
N33	N	0.957865	-0.479786	-0.137775
C34	C	1.134088	-0.000070	-0.107478
C35	C	1.226383	-0.000071	-0.109099
C36	C	0.988195	-0.000070	0.038426
C37	C	0.986580	-0.000071	0.130721
N38	N	0.992433	0.205237	-0.103186
C39	C	0.975974	-0.000049	-0.265584
C40	C	0.977589	-0.000042	-0.357879
C41	C	1.058587	-0.000063	0.352990
C42	C	1.057063	-0.000056	0.439711
C43	C	0.905576	-0.000048	0.419846
C44	C	0.907101	-0.000049	0.333127
C45	C	0.983609	-0.000061	0.299701
C46	C	0.980560	-0.000053	0.473141
C47	C	0.978908	-0.000045	0.567168
C48	C	0.985262	-0.000067	0.205669
H49	H	0.890262	-0.786321	-0.205294
O50	O	0.834312	-0.000162	0.281266
C51	C	0.826889	-0.074885	0.226747
H52	H	0.891624	-0.099800	0.221125
H53	H	0.786283	-0.127200	0.252619
C54	C	0.706675	-0.021583	0.146745
C55	C	0.786185	-0.052179	0.139834
H56	H	0.681564	-0.007579	0.093134
H57	H	0.711674	0.028758	0.183477
H58	H	0.672847	-0.065184	0.168308
H59	H	0.820014	-0.008574	0.118282
H60	H	0.781191	-0.102513	0.103096
O61	O	1.113059	-0.614594	0.017380
C62	C	1.159975	-0.674143	0.064247
H63	H	1.122616	-0.738862	0.061945
H64	H	1.221232	-0.683827	0.036735
C65	C	1.224824	-0.559199	0.158543
C66	C	1.178937	-0.638685	0.155722
H67	H	1.236525	-0.537326	0.214968
H68	H	1.193219	-0.519078	0.126967
H69	H	1.275867	-0.567279	0.135612
H70	H	1.127891	-0.630602	0.178642
H71	H	1.210534	-0.678804	0.187304
O72	O	0.831331	-0.000083	0.452454
C73	C	0.846062	-0.000064	0.540422
H74	H	0.909572	-0.027377	0.559422
H75	H	0.845523	0.069145	0.568058
C76	C	0.699082	-0.023092	0.550181
C77	C	0.777085	-0.056645	0.573516
H78	H	0.656533	-0.057990	0.570596
H79	H	0.689157	-0.023102	0.490915
H80	H	0.698645	0.034582	0.573212
H81	H	0.777524	-0.114313	0.550476
H82	H	0.787009	-0.056646	0.632779
O83	O	0.851072	-0.385534	-0.244479
C84	C	0.804184	-0.325986	-0.291377
H85	H	0.806523	-0.261251	-0.254029
H86	H	0.831649	-0.316346	-0.352662
C87	C	0.709833	-0.440920	-0.356141
C88	C	0.712700	-0.361413	-0.310267
H89	H	0.653402	-0.462774	-0.367798
H90	H	0.741424	-0.481039	-0.324548
H91	H	0.732725	-0.432876	-0.407208
H92	H	0.689818	-0.369460	-0.259197
H93	H	0.681103	-0.321296	-0.341852
H94	H	0.410595	0.142612	-0.104996
H95	H	1.065585	-0.378532	-0.030147
H96	H	1.095457	-0.786332	-0.000224
O97	O	1.132857	0.000050	0.320426
C98	C	1.142041	0.074775	0.274650
H99	H	1.077761	0.099683	0.254292
H100	H	1.181464	0.127093	0.315615
C101	C	1.264603	0.021487	0.221811
C102	C	1.185652	0.052075	0.196802
H103	H	1.291507	0.007488	0.173793
H104	H	1.258418	-0.028855	0.252654
H105	H	1.297444	0.065091	0.255950
H106	H	1.152808	0.008468	0.162673
H107	H	1.191832	0.102410	0.165952
H108	H	0.553581	-0.142724	-0.122160
O109	O	0.575225	0.155052	-0.107277
C110	C	0.521848	0.224456	-0.102755
H111	H	0.455425	0.201396	-0.129142
H112	H	0.522578	0.248637	-0.034713
C113	C	0.633867	0.327076	-0.121678
C114	C	0.552286	0.298755	-0.154093
H115	H	0.652644	0.372910	-0.153343
H116	H	0.669829	0.280318	-0.124721
H117	H	0.634465	0.347221	-0.064977
H118	H	0.551692	0.278601	-0.210790
H119	H	0.516325	0.345512	-0.151061
O120	O	0.388924	-0.155175	-0.119951
C121	C	0.442299	-0.224584	-0.124436
H122	H	0.501826	-0.201532	-0.150665
H123	H	0.459046	-0.248763	-0.059159
C124	C	0.324456	-0.327195	-0.149868
C125	C	0.397566	-0.298883	-0.182090
H126	H	0.296863	-0.373028	-0.185428
H127	H	0.288496	-0.280434	-0.146843
H128	H	0.338423	-0.347339	-0.095472
H129	H	0.383598	-0.278731	-0.236480
H130	H	0.433522	-0.345643	-0.185125
H131	H	0.868719	-0.213786	-0.226921
O132	O	0.890144	-0.614492	-0.205634
C133	C	0.902499	-0.636724	-0.289059
H134	H	0.967799	-0.661698	-0.290744
H135	H	0.853752	-0.689431	-0.316113
C136	C	0.813432	-0.525398	-0.339298
C137	C	0.893638	-0.556066	-0.341368
H138	H	0.807962	-0.475646	-0.371566
H139	H	0.805105	-0.510422	-0.283093
H140	H	0.772818	-0.569329	-0.361841
H141	H	0.934249	-0.512139	-0.318815
H142	H	0.901971	-0.571032	-0.397570
O143	O	1.083083	-0.206615	-0.012568
C144	C	1.068582	-0.228676	0.068683
H145	H	1.000787	-0.253671	0.067951
H146	H	1.112071	-0.281317	0.090484
C147	C	1.168844	-0.117203	0.129879
C148	C	1.085574	-0.147895	0.128980
H149	H	1.179329	-0.067375	0.167074
H150	H	1.178616	-0.102341	0.075138
H151	H	1.205075	-0.161077	0.148043
H152	H	1.049345	-0.104024	0.110806
H153	H	1.075796	-0.162747	0.183719
O154	O	1.129972	-0.000099	0.491354
C155	C	1.197823	-0.000086	0.443253
H156	H	1.175327	-0.027400	0.377146
H157	H	1.224762	0.069121	0.440576
C158	C	1.293567	-0.023116	0.564816
C159	C	1.265938	-0.056670	0.483625
H160	H	1.335586	-0.058017	0.589721
H161	H	1.247856	-0.023122	0.597224
H162	H	1.316011	0.034555	0.562575
H163	H	1.243486	-0.114337	0.485869
H164	H	1.311648	-0.056676	0.451218
