data_functionalizedCrystal
_audit_creation_method	'MofGen! by Chris Wilmer'
_symmetry_space_group_name_H-M	'P1'
_symmetry_Int_Tables_number	1
_symmetry_cell_setting	triclinic
loop_
_symmetry_equiv_pos_as_xyz
  x,y,z
_cell_length_a	13.897448
_cell_length_b	13.897449
_cell_length_c	13.897441
_cell_angle_alpha	90.022859
_cell_angle_beta	89.969401
_cell_angle_gamma	89.982475
loop_
_atom_site_label
_atom_site_type_symbol
_atom_site_fract_x
_atom_site_fract_y
_atom_site_fract_z
Zn1	Zn	-0.383988	-1.474703	-0.545436
Zn2	Zn	-0.133988	-1.224703	-0.295436
Zn3	Zn	0.116012	-0.974703	-0.045436
Zn4	Zn	0.366012	-0.724703	0.204564
Zn5	Zn	-0.545310	-1.474597	-0.384137
Zn6	Zn	-0.295310	-1.224597	-0.134137
Zn7	Zn	-0.045310	-0.974597	0.115863
Zn8	Zn	0.204690	-0.724597	0.365863
Zn9	Zn	-0.384030	-1.313392	-0.384148
Zn10	Zn	-0.134030	-1.063392	-0.134148
Zn11	Zn	0.115970	-0.813392	0.115852
Zn12	Zn	0.365970	-0.563392	0.365852
Zn13	Zn	-0.545243	-1.313373	-0.545384
Zn14	Zn	-0.295243	-1.063373	-0.295384
Zn15	Zn	-0.045243	-0.813373	-0.045384
Zn16	Zn	0.204757	-0.563373	0.204616
O17	O	-0.464643	-1.394016	-0.464776
O18	O	-0.214643	-1.144016	-0.214776
O19	O	0.035357	-0.894016	0.035224
O20	O	0.285357	-0.644016	0.285224
O21	O	-0.405399	-1.609670	-0.524056
O22	O	-0.155399	-1.359670	-0.274056
O23	O	0.094601	-1.109670	-0.024056
O24	O	0.344601	-0.859670	0.225944
O25	O	-0.523962	-1.453176	-0.249157
O26	O	-0.273962	-1.203176	0.000843
O27	O	-0.023962	-0.953176	0.250843
O28	O	0.226038	-0.703176	0.500843
O29	O	-0.249043	-1.334842	-0.405570
O30	O	0.000957	-1.084842	-0.155570
O31	O	0.250957	-0.834842	0.094430
O32	O	0.500957	-0.584842	0.344430
O33	O	-0.523921	-1.609592	-0.405551
O34	O	-0.273921	-1.359592	-0.155551
O35	O	-0.023921	-1.109592	0.094449
O36	O	0.226079	-0.859592	0.344449
O37	O	-0.249012	-1.453356	-0.524067
O38	O	0.000988	-1.203356	-0.274067
O39	O	0.250988	-0.953356	-0.024067
O40	O	0.500988	-0.703356	0.225933
O41	O	-0.405470	-1.334739	-0.249165
O42	O	-0.155470	-1.084739	0.000835
O43	O	0.094530	-0.834739	0.250835
O44	O	0.344530	-0.584739	0.500835
O45	O	-0.405405	-1.178408	-0.405519
O46	O	-0.155405	-0.928408	-0.155519
O47	O	0.094595	-0.678408	0.094481
O48	O	0.344595	-0.428408	0.344481
O49	O	-0.523806	-1.334811	-0.680372
O50	O	-0.273806	-1.084811	-0.430372
O51	O	-0.023806	-0.834811	-0.180372
O52	O	0.226194	-0.584811	0.069628
O53	O	-0.523847	-1.178394	-0.523978
O54	O	-0.273847	-0.928394	-0.273978
O55	O	-0.023847	-0.678394	-0.023978
O56	O	0.226153	-0.428394	0.226022
O57	O	-0.405333	-1.453339	-0.680411
O58	O	-0.155333	-1.203339	-0.430411
O59	O	0.094667	-0.953339	-0.180411
O60	O	0.344667	-0.703339	0.069589
O61	O	-0.680283	-1.453158	-0.405501
O62	O	-0.430283	-1.203158	-0.155501
O63	O	-0.180283	-0.953158	0.094499
O64	O	0.069717	-0.703158	0.344499
O65	O	-0.680233	-1.334708	-0.523968
O66	O	-0.430233	-1.084708	-0.273968
O67	O	-0.180233	-0.834708	-0.023968
O68	O	0.069767	-0.584708	0.226032
C69	C	-0.464624	-1.143402	-0.464745
C70	C	-0.214624	-0.893402	-0.214745
C71	C	0.035376	-0.643402	0.035255
C72	C	0.285376	-0.393402	0.285255
C73	C	-0.464639	-1.036188	-0.464755
C74	C	-0.214639	-0.786188	-0.214755
C75	C	0.035361	-0.536188	0.035245
C76	C	0.285361	-0.286188	0.285245
C77	C	-0.464637	-0.839893	-0.464773
C78	C	-0.214637	-0.589893	-0.214773
C79	C	0.035363	-0.339893	0.035227
C80	C	0.285363	-0.089893	0.285227
C81	C	-0.464635	-0.949125	-0.464760
C82	C	-0.214635	-0.699125	-0.214760
C83	C	0.035365	-0.449125	0.035240
C84	C	0.285365	-0.199125	0.285240
C85	C	-0.715257	-1.393946	-0.464748
C86	C	-0.465257	-1.143946	-0.214748
C87	C	-0.215257	-0.893946	0.035252
C88	C	0.034743	-0.643946	0.285252
C89	C	-0.822471	-1.394004	-0.464769
C90	C	-0.572471	-1.144004	-0.214769
C91	C	-0.322471	-0.894004	0.035231
C92	C	-0.072471	-0.644004	0.285231
C93	C	-1.018766	-1.394105	-0.464829
C94	C	-0.768766	-1.144105	-0.214829
C95	C	-0.518766	-0.894105	0.035171
C96	C	-0.268766	-0.644105	0.285171
C97	C	-0.909534	-1.394046	-0.464798
C98	C	-0.659534	-1.144046	-0.214798
C99	C	-0.409534	-0.894046	0.035202
C100	C	-0.159534	-0.644046	0.285202
C101	C	-0.213050	-1.394113	-0.464825
C102	C	0.036950	-1.144113	-0.214825
C103	C	0.286950	-0.894113	0.035175
C104	C	0.536950	-0.644113	0.285175
C105	C	-0.105836	-1.394154	-0.464846
C106	C	0.144164	-1.144154	-0.214846
C107	C	0.394164	-0.894154	0.035154
C108	C	0.644164	-0.644154	0.285154
C109	C	-0.464558	-1.394085	-0.716369
C110	C	-0.214558	-1.144085	-0.466369
C111	C	0.035442	-0.894085	-0.216369
C112	C	0.285442	-0.644085	0.033631
C113	C	-0.464521	-1.394114	-0.823583
C114	C	-0.214521	-1.144114	-0.573583
C115	C	0.035479	-0.894114	-0.323583
C116	C	0.285479	-0.644114	-0.073583
C117	C	-0.464656	-0.645609	-0.464799
C118	C	-0.214656	-0.395609	-0.214799
C119	C	0.035344	-0.145609	0.035201
C120	C	0.285344	0.104391	0.285201
C121	C	-0.464646	-0.752823	-0.464785
C122	C	-0.214646	-0.502823	-0.214785
C123	C	0.035354	-0.252823	0.035215
C124	C	0.285354	-0.002823	0.285215
C125	C	-0.464456	-1.394140	-1.019879
C126	C	-0.214456	-1.144140	-0.769879
C127	C	0.035544	-0.894140	-0.519879
C128	C	0.285544	-0.644140	-0.269879
C129	C	-0.464495	-1.394122	-0.910646
C130	C	-0.214495	-1.144122	-0.660646
C131	C	0.035505	-0.894122	-0.410646
C132	C	0.285505	-0.644122	-0.160646
C133	C	-0.464658	-1.394003	-0.214162
C134	C	-0.214658	-1.144003	0.035838
C135	C	0.035342	-0.894003	0.285838
C136	C	0.285342	-0.644003	0.535838
C137	C	-0.464423	-1.394161	-0.106949
C138	C	-0.214423	-1.144161	0.143051
C139	C	0.035577	-0.894161	0.393051
C140	C	0.285577	-0.644161	0.643051
