data_functionalizedCrystal
_audit_creation_method	'MofGen! by Chris Wilmer'
_symmetry_space_group_name_H-M	'P1'
_symmetry_Int_Tables_number	1
_symmetry_cell_setting	triclinic
loop_
_symmetry_equiv_pos_as_xyz
  x,y,z
_cell_length_a	10.723022
_cell_length_b	15.995350
_cell_length_c	9.198806
_cell_angle_alpha	89.999047
_cell_angle_beta	89.996352
_cell_angle_gamma	83.979800
loop_
_atom_site_label
_atom_site_type_symbol
_atom_site_fract_x
_atom_site_fract_y
_atom_site_fract_z
O1	O	1.655691	0.117428	-0.120875
O2	O	1.292395	0.128671	-0.120879
O3	O	1.483974	0.001219	-0.120876
O4	O	1.464112	0.244880	-0.120879
O5	O	1.483959	0.001218	0.120909
O6	O	1.292380	0.128670	0.120906
O7	O	1.655676	0.117428	0.120910
Cu8	Cu	1.474026	0.123049	0.142985
Cu9	Cu	1.474044	0.123050	-0.142954
O10	O	1.464097	0.244880	0.120906
C11	C	1.245898	0.127853	0.000013
C12	C	1.107375	0.125406	0.000011
C13	C	1.483145	-0.029981	0.000014
C14	C	1.480683	-0.122945	0.000006
C15	C	1.059751	0.051909	0.000011
C16	C	0.916581	0.049378	0.000009
C17	C	1.471843	-0.460744	0.000011
C18	C	1.335404	-0.414093	-0.000533
C19	C	1.337866	-0.317388	0.000012
C20	C	1.476228	-0.293158	0.000007
C21	C	1.543516	-0.333849	0.138077
C22	C	1.540088	-0.430505	0.138192
C23	C	1.542924	-0.430846	-0.136763
C24	C	1.542892	-0.333901	-0.138587
C25	C	1.478713	-0.198446	0.000010
C26	C	1.469361	-0.555456	0.000017
C27	C	1.702172	0.118246	0.000015
C28	C	1.840696	0.120693	0.000007
C29	C	1.464925	0.276079	0.000013
C30	C	1.467387	0.369044	0.000012
N31	N	1.474023	0.123048	0.344099
N32	N	1.474058	0.123044	-0.344068
C33	C	1.554464	0.069299	0.416297
C34	C	1.554484	0.069296	0.583709
H35	H	0.875572	-0.013550	-0.000028
O36	O	1.146139	-0.028962	0.000020
H37	H	1.128382	-0.065958	-0.098532
O38	O	1.263163	-0.439070	-0.131668
H39	H	1.312118	-0.422272	-0.232170
H40	H	1.498322	-0.451642	-0.241411
H41	H	1.405189	0.169066	0.593854
O42	O	1.382818	0.184017	0.426363
H43	H	1.322070	0.148495	0.495738
O44	O	0.894992	0.204058	0.000024
H45	H	0.862944	0.240181	-0.098516
O46	O	1.020996	0.206280	0.000005
H47	H	1.038773	0.243278	0.098549
H48	H	1.491009	-0.449088	0.241404
H49	H	1.284973	-0.289270	-0.098962
H50	H	1.281106	-0.433999	0.097926
O51	O	1.267345	-0.280873	0.131350
H52	H	1.231356	-0.332298	0.194730
H53	H	1.493696	-0.306935	-0.240727
H54	H	1.623358	0.023282	0.645797
O55	O	1.645674	0.008333	0.334034
H56	H	1.629506	-0.056999	0.363183
O57	O	1.672765	-0.472472	0.146532
H58	H	1.726701	-0.453647	0.051117
O59	O	1.678161	-0.314362	0.144904
H60	H	1.698596	-0.275371	0.049737
H61	H	1.496768	-0.305736	0.240826
H62	H	1.643792	-0.317960	-0.146927
H63	H	1.643520	-0.462030	-0.137694
