data_functionalizedCrystal
_audit_creation_method	'MofGen! by Chris Wilmer'
_symmetry_space_group_name_H-M	'P1'
_symmetry_Int_Tables_number	1
_symmetry_cell_setting	triclinic
loop_
_symmetry_equiv_pos_as_xyz
  x,y,z
_cell_length_a	16.109301
_cell_length_b	10.654549
_cell_length_c	15.186229
_cell_angle_alpha	89.997351
_cell_angle_beta	89.999362
_cell_angle_gamma	83.974199
loop_
_atom_site_label
_atom_site_type_symbol
_atom_site_fract_x
_atom_site_fract_y
_atom_site_fract_z
O1	O	1.104092	0.161419	-0.073171
O2	O	1.604092	0.661419	0.426829
O3	O	0.862150	0.181507	-0.073184
O4	O	1.362150	0.681507	0.426816
O5	O	0.988682	-0.011352	-0.073174
O6	O	1.488682	0.488648	0.426826
O7	O	0.977560	0.354277	-0.073181
O8	O	1.477560	0.854277	0.426819
O9	O	0.988673	-0.011354	0.073283
O10	O	1.488673	0.488646	0.573283
O11	O	0.862141	0.181504	0.073273
O12	O	1.362141	0.681504	0.573273
O13	O	1.104084	0.161416	0.073287
O14	O	1.604084	0.661416	0.573287
Zn15	Zn	0.983111	0.171460	0.096533
Zn16	Zn	1.483111	0.671460	0.596533
Zn17	Zn	0.983122	0.171463	-0.096431
Zn18	Zn	1.483122	0.671463	0.403569
O19	O	0.977552	0.354274	0.073276
O20	O	1.477552	0.854274	0.573276
C21	C	0.831166	0.180692	0.000042
C22	C	1.331166	0.680692	0.500042
C23	C	0.738856	0.178252	0.000037
C24	C	1.238856	0.678252	0.500037
C25	C	0.517232	0.287018	0.000045
C26	C	1.017232	0.787018	0.500045
C27	C	0.430498	0.284716	0.000051
C28	C	0.930498	0.784716	0.500051
C29	C	0.449009	0.055896	0.000052
C30	C	0.949009	0.555896	0.500052
C31	C	0.535741	0.058199	0.000052
C32	C	1.035741	0.558199	0.500052
C33	C	0.569850	0.173764	0.000045
C34	C	1.069850	0.673764	0.500045
C35	C	0.396384	0.169159	0.000050
C36	C	0.896384	0.669159	0.500050
C37	C	0.302343	0.166662	0.000056
C38	C	0.802343	0.666662	0.500056
C39	C	0.663897	0.176262	0.000040
C40	C	1.163897	0.676262	0.500040
C41	C	0.987860	-0.058140	0.000054
C42	C	1.487860	0.441860	0.500054
C43	C	0.985414	-0.197550	0.000051
C44	C	1.485414	0.302450	0.500051
C45	C	1.132126	-0.489525	0.000063
C46	C	1.632126	0.010475	0.500063
C47	C	1.208929	-0.439029	0.000070
C48	C	1.708929	0.060971	0.500070
C49	C	1.211230	-0.308043	0.000069
C50	C	1.711230	0.191957	0.500069
C51	C	1.136720	-0.227546	0.000064
C52	C	1.636720	0.272454	0.500064
C53	C	1.059917	-0.278041	0.000058
C54	C	1.559917	0.221959	0.500058
C55	C	1.057624	-0.409033	0.000056
C56	C	1.557624	0.090967	0.500056
C57	C	0.908611	-0.248045	0.000044
C58	C	1.408611	0.251955	0.500044
C59	C	0.906309	-0.379031	0.000039
C60	C	1.406309	0.120969	0.500039
C61	C	0.834101	-0.167548	0.000040
C62	C	1.334101	0.332452	0.500040
C63	C	0.757296	-0.218043	0.000027
C64	C	1.257296	0.281957	0.500027
C65	C	0.754999	-0.349038	0.000027
C66	C	1.254999	0.150962	0.500027
C67	C	0.829506	-0.429526	0.000033
C68	C	1.329506	0.070474	0.500033
C69	C	1.135068	0.162231	0.000058
C70	C	1.635068	0.662231	0.500058
C71	C	1.227378	0.164671	0.000057
C72	C	1.727378	0.664671	0.500057
C73	C	0.978374	0.401063	0.000046
C74	C	1.478374	0.901063	0.500046
C75	C	0.980819	0.540472	0.000044
C76	C	1.480819	1.040472	0.500044
N77	N	0.983110	0.171456	0.228226
N78	N	1.483110	0.671456	0.728226
N79	N	0.983131	0.171456	-0.228124
N80	N	1.483131	0.671456	0.271876
C81	C	1.039157	0.086087	0.453953
C82	C	1.539157	0.586087	0.953953
C83	C	1.039160	0.086084	0.546143
C84	C	1.539160	0.586084	1.046143
C85	C	0.927077	0.256830	0.546142
C86	C	1.427077	0.756830	1.046142
C87	C	0.927071	0.256826	0.453955
C88	C	1.427071	0.756826	0.953955
C89	C	0.983116	0.171456	0.407862
C90	C	1.483116	0.671456	0.907862
C91	C	0.983124	0.171457	0.592240
C92	C	1.483124	0.671457	1.092240
C93	C	0.983127	0.171454	0.692196
C94	C	1.483127	0.671454	1.192196
C95	C	0.983113	0.171457	0.307900
C96	C	1.483113	0.671457	0.807900
H97	H	0.421226	-0.038193	0.000064
H98	H	0.921226	0.461807	0.500064
Br99	Br	0.837222	0.010221	0.000044
Br100	Br	1.337222	0.510221	0.500044
Br101	Br	1.315462	-0.239508	0.000093
Br102	Br	1.815462	0.260492	0.500093
H103	H	1.084791	0.016572	0.416427
H104	H	1.584791	0.516572	0.916427
H105	H	0.881448	0.326337	0.583680
H106	H	1.381448	0.826337	1.083680
H107	H	0.545000	0.381118	0.000045
H108	H	1.045000	0.881118	0.500045
Br109	Br	0.607159	-0.095514	0.000063
Br110	Br	1.107159	0.404486	0.500063
Br111	Br	0.359089	0.438425	0.000056
Br112	Br	0.859089	0.938425	0.500056
Br113	Br	1.139843	-0.049777	0.000080
Br114	Br	1.639843	0.450223	0.500080
H115	H	0.881431	0.326343	0.416425
H116	H	1.381431	0.826343	0.916425
Br117	Br	1.115215	-0.029783	0.608693
Br118	Br	1.615215	0.470217	1.108693
Br119	Br	1.129009	-0.667295	0.000092
Br120	Br	1.629009	-0.167295	0.500092
H121	H	1.269594	-0.504584	0.000076
H122	H	1.769594	-0.004584	0.500076
Br123	Br	0.650760	-0.417555	0.000030
Br124	Br	1.150760	0.082445	0.500030
H125	H	0.696636	-0.152494	0.000030
H126	H	1.196636	0.347506	0.500030
H127	H	0.827642	-0.536185	0.000028
H128	H	1.327642	-0.036185	0.500028
