data_functionalizedCrystal
_audit_creation_method	'MofGen! by Chris Wilmer'
_symmetry_space_group_name_H-M	'P1'
_symmetry_Int_Tables_number	1
_symmetry_cell_setting	triclinic
loop_
_symmetry_equiv_pos_as_xyz
  x,y,z
_cell_length_a	12.777687
_cell_length_b	15.624803
_cell_length_c	15.625186
_cell_angle_alpha	140.979503
_cell_angle_beta	97.077303
_cell_angle_gamma	97.078978
loop_
_atom_site_label
_atom_site_type_symbol
_atom_site_fract_x
_atom_site_fract_y
_atom_site_fract_z
O1	O	-0.351548	0.482396	-0.711761
O2	O	-0.328312	0.351039	-0.580383
O3	O	-0.188465	0.421465	-0.650830
O4	O	-0.491395	0.411970	-0.641314
O5	O	-0.119363	0.650754	-0.421552
O6	O	-0.259210	0.580328	-0.351105
O7	O	-0.282446	0.711685	-0.482483
Cu8	Cu	-0.264519	0.666942	-0.395859
Cu9	Cu	-0.346239	0.395782	-0.667007
O10	O	-0.422293	0.641259	-0.412036
C11	C	-0.287964	0.448896	-0.448954
C12	C	-0.270676	0.398874	-0.398925
C13	C	0.004021	0.536122	-0.536186
C14	C	-0.114780	0.536119	-0.536183
C15	C	-0.495980	0.526605	-0.526675
C16	C	-0.614782	0.526604	-0.526677
C17	C	-0.402140	-0.390613	-0.859420
C18	C	-0.385875	-0.437613	-0.812409
C19	C	-0.310539	-0.187663	-0.562449
C20	C	-0.326793	-0.140640	-0.609439
C21	C	-0.372595	-0.242124	-0.757927
C22	C	-0.297248	0.007849	-0.507946
C23	C	-0.313506	0.054866	-0.554932
C24	C	-0.359310	-0.046606	-0.703413
C25	C	-0.388853	-0.195107	-0.804913
C26	C	-0.251454	0.109330	-0.359458
C27	C	-0.221909	0.257819	-0.257965
C28	C	-0.238159	0.304839	-0.304951
C29	C	-0.283963	0.203368	-0.453432
C30	C	-0.208616	0.453341	-0.203451
C31	C	-0.224874	0.500358	-0.250438
C32	C	-0.300221	0.250385	-0.500419
O33	O	0.311542	0.411970	-0.641310
O34	O	0.008608	0.421471	-0.650828
O35	O	0.148449	0.351031	-0.580391
O36	O	0.171702	0.482410	-0.711746
O37	O	0.217542	0.580315	-0.351109
O38	O	0.077701	0.650755	-0.421546
O39	O	0.380636	0.641255	-0.412028
Cu40	Cu	0.235477	0.666941	-0.395852
Cu41	Cu	0.153766	0.395785	-0.667004
O42	O	0.240795	0.711695	-0.482465
C43	C	-0.322796	0.613825	-0.613915
C44	C	-0.340086	0.663838	-0.663953
C45	C	0.177199	0.448894	-0.448952
C46	C	0.159915	0.398897	-0.398898
C47	C	0.212048	0.613841	-0.613894
C48	C	0.229340	0.663867	-0.663919
C49	C	0.291377	0.859354	0.390547
C50	C	0.275120	0.812330	0.437536
C51	C	0.199795	0.562368	0.187588
C52	C	0.216042	0.609371	0.140576
C53	C	0.261834	0.757865	0.242065
C54	C	0.186498	0.507882	-0.007907
C55	C	0.202749	0.554881	-0.054913
C56	C	0.248543	0.703369	0.046563
C57	C	0.278085	0.804864	0.195058
C58	C	0.140713	0.359388	-0.109393
C59	C	0.111170	0.257899	-0.257875
C60	C	0.127413	0.304898	-0.304885
C61	C	0.173207	0.453386	-0.203409
C62	C	0.097871	0.203403	-0.453380
C63	C	0.114122	0.250403	-0.500387
C64	C	0.189458	0.500386	-0.250415
N65	N	-0.207041	0.857666	-0.205152
N66	N	-0.403710	0.205062	-0.857717
N67	N	0.292958	0.857656	-0.205138
N68	N	0.096295	0.205064	-0.857713
C69	C	-0.123400	0.960987	-0.164237
C70	C	-0.079884	1.105326	-0.019925
C71	C	-0.120016	1.146343	0.083467
C72	C	-0.203662	1.043009	0.042545
C73	C	-0.247172	0.898670	-0.101763
C74	C	-0.363674	0.164183	-0.961094
C75	C	-0.407152	0.019864	-1.105426
C76	C	-0.490659	-0.083576	-1.146377
C77	C	-0.530699	-0.042688	-1.042988
C78	C	-0.487227	0.101631	-0.898661
C79	C	0.376464	0.898522	-0.101770
C80	C	0.419983	1.042839	0.042565
C81	C	0.380001	1.146289	0.083527
C82	C	0.296485	1.105415	-0.019852
C83	C	0.252962	0.961099	-0.164182
C84	C	0.136646	0.101810	-0.898696
C85	C	0.093175	-0.042529	-1.043007
C86	C	0.009346	-0.083614	-1.146333
C87	C	-0.031005	0.019654	-1.105344
C88	C	0.012473	0.163992	-0.961036
H89	H	-0.337514	0.167745	-0.621332
Cl90	Cl	-0.252966	-0.060098	-0.375786
H91	H	-0.526049	-0.201085	-1.263901
H92	H	-0.295677	0.248390	-0.927775
Cl93	Cl	-0.537563	0.153000	-0.768711
Cl94	Cl	-0.356797	-0.031508	-1.235372
Cl95	Cl	-0.065309	1.327807	0.264878
Cl96	Cl	-0.635677	-0.172743	-1.094486
H97	H	0.415450	1.263796	0.201054
Cl98	Cl	0.426757	0.768500	-0.153234
Cl99	Cl	-0.379754	0.012499	-0.762486
Cl100	Cl	-0.072927	0.909461	-0.294187
H101	H	-0.236331	1.076423	0.126744
H102	H	-0.409941	-0.558533	-0.895069
Cl103	Cl	-0.231021	0.050221	-0.300389
Cl104	Cl	-0.136394	-0.032021	-1.235255
Cl105	Cl	0.524975	1.094192	0.172498
Cl106	Cl	-0.164335	0.385384	-0.071301
H107	H	-0.026047	-0.201149	-1.263832
H108	H	0.315360	0.925784	0.277701
H109	H	0.204901	0.135237	-0.814581
Cl110	Cl	0.312292	0.939932	0.624217
Cl111	Cl	-0.038276	0.293781	-0.909535
Cl112	Cl	-0.151055	0.580901	-0.016788
Cl113	Cl	-0.446421	-0.322683	-0.991588
Cl114	Cl	0.246232	1.235485	0.031667
Cl115	Cl	0.025264	1.235209	0.031487
H116	H	0.184970	0.927843	-0.248338
H117	H	0.090056	0.167761	-0.621293
H118	H	0.162515	0.441463	0.104968
Cl119	Cl	0.143906	-0.172328	-1.094499
H120	H	-0.315282	0.814552	-0.135065
Cl121	Cl	-0.187734	0.687035	-0.122845
Cl122	Cl	-0.459707	-0.518189	-1.046095
Cl123	Cl	0.348932	1.046037	0.518129
H124	H	0.226733	0.621305	-0.167772
Cl125	Cl	0.268983	0.762458	-0.012528
H126	H	0.073890	0.136994	-0.340495
Cl127	Cl	0.040364	0.016728	-0.580943
Cl128	Cl	0.120331	0.300300	-0.050294
