data_functionalizedCrystal
_audit_creation_method	'MofGen! by Chris Wilmer'
_symmetry_space_group_name_H-M	'P1'
_symmetry_Int_Tables_number	1
_symmetry_cell_setting	triclinic
loop_
_symmetry_equiv_pos_as_xyz
  x,y,z
_cell_length_a	6.817900
_cell_length_b	11.102289
_cell_length_c	11.102193
_cell_angle_alpha	91.948902
_cell_angle_beta	108.604059
_cell_angle_gamma	108.605707
loop_
_atom_site_label
_atom_site_type_symbol
_atom_site_fract_x
_atom_site_fract_y
_atom_site_fract_z
V1	V	-4.111515	-0.175848	-0.396257
O2	O	-4.070547	0.008441	-0.388714
O3	O	-4.088292	-0.348668	-0.393547
O4	O	-4.088289	-0.173147	-0.569079
O5	O	-4.070550	-0.168295	-0.211967
V6	V	-4.588618	-0.153805	-0.374215
O7	O	-4.386854	-0.224203	-0.444609
O8	O	-4.763475	-0.105450	-0.325863
O9	O	-4.388634	0.019016	-0.376925
O10	O	-4.746982	-0.338094	-0.381758
O11	O	-4.746979	-0.161358	-0.558505
O12	O	-4.388637	-0.156505	-0.201393
C13	C	-3.938603	-0.390798	-0.387296
C14	C	-4.001070	-0.532081	-0.386232
C15	C	-3.938598	-0.166902	-0.611203
C16	C	-4.001058	-0.165837	-0.752485
C17	C	-4.214424	-0.604929	-0.392072
C18	C	-4.273112	-0.737681	-0.391083
C19	C	-3.905068	-0.724722	-0.378409
C20	C	-3.846388	-0.591975	-0.379406
C21	C	-4.426910	-0.612411	-0.399384
C22	C	-4.485598	-0.745162	-0.398395
C23	C	-4.121387	-0.398616	-0.788812
C24	C	-4.210886	-0.514499	-0.873348
C25	C	-4.269572	-0.513492	-1.006094
C26	C	-4.238760	-0.396588	-1.054305
C27	C	-4.149261	-0.280704	-0.969769
C28	C	-4.090574	-0.281724	-0.837022
C29	C	-4.028948	-0.047929	-0.933443
C30	C	-3.970246	-0.048934	-0.800696
C31	C	-3.998135	0.068974	-0.981655
C32	C	-3.908620	0.184861	-0.897118
C33	C	-3.849930	0.183849	-0.764364
C34	C	-3.880746	0.066950	-0.716161
C35	C	-4.201666	0.061139	-0.383173
C36	C	-4.118438	0.202420	-0.384245
C37	C	-4.201670	-0.162755	-0.159263
C38	C	-4.118447	-0.163813	-0.017979
H39	H	-3.672667	-0.532668	-0.374666
O40	O	-4.240949	-0.628149	-0.826693
C41	C	-4.466616	-0.704956	-0.876340
H42	H	-4.570049	-0.640931	-0.906328
H43	H	-4.513747	-0.760649	-0.799395
H44	H	-4.498535	-0.775395	-0.963438
O45	O	-4.356882	-0.626036	-1.088283
C46	C	-4.569238	-0.638428	-1.172326
H47	H	-4.639617	-0.576909	-1.126308
H48	H	-4.681803	-0.743383	-1.191971
H49	H	-4.558012	-0.605016	-1.266656
O50	O	-4.295436	-0.395433	-1.183219
C51	C	-4.107210	-0.325245	-1.211477
H52	H	-3.979953	-0.255858	-1.122327
H53	H	-4.156233	-0.268704	-1.292734
H54	H	-4.033243	-0.394416	-1.242221
H55	H	-4.617402	-0.803031	-0.492549
H56	H	-4.045941	0.069786	-1.089745
H57	H	-3.883555	0.280034	-0.936384
H58	H	-3.777066	0.278215	-0.695541
O59	O	-4.546908	-0.775185	-0.294902
C60	C	-4.605854	-0.908896	-0.294075
H61	H	-4.655010	-0.960056	-0.395609
H62	H	-4.750956	-0.944074	-0.258553
H63	H	-4.459268	-0.930681	-0.227396
O64	O	-4.560658	-0.589627	-0.509622
C65	C	-4.781994	-0.641340	-0.516015
H66	H	-4.799823	-0.720831	-0.453667
H67	H	-4.893429	-0.682670	-0.619858
H68	H	-4.831709	-0.562337	-0.479692
O69	O	-4.064598	-0.399829	-0.659903
C70	C	-4.110934	-0.527851	-0.635475
H71	H	-4.242714	-0.595385	-0.724510
H72	H	-4.173358	-0.538987	-0.551225
H73	H	-3.954204	-0.552703	-0.610937
H74	H	-3.779140	-0.773505	-0.372853
H75	H	-4.426981	-0.559182	-0.309775
H76	H	-3.832952	0.066115	-0.608074
