data_functionalizedCrystal
_audit_creation_method	'MofGen! by Chris Wilmer'
_symmetry_space_group_name_H-M	'P1'
_symmetry_Int_Tables_number	1
_symmetry_cell_setting	triclinic
loop_
_symmetry_equiv_pos_as_xyz
  x,y,z
_cell_length_a	23.532356
_cell_length_b	23.532407
_cell_length_c	12.376457
_cell_angle_alpha	78.781502
_cell_angle_beta	78.790078
_cell_angle_gamma	97.161748
loop_
_atom_site_label
_atom_site_type_symbol
_atom_site_fract_x
_atom_site_fract_y
_atom_site_fract_z
O1	O	-0.058169	0.766222	-0.093916
O2	O	0.441831	1.266222	0.406084
O3	O	-0.068171	0.600359	-0.093931
O4	O	0.431829	1.100359	0.406069
O5	O	0.019766	0.688309	-0.093939
O6	O	0.519766	1.188309	0.406061
O7	O	-0.146105	0.678272	-0.093908
O8	O	0.353895	1.178272	0.406092
O9	O	-0.002189	0.666329	0.094075
O10	O	0.497811	1.166329	0.594075
O11	O	-0.090125	0.578379	0.094083
O12	O	0.409875	1.078379	0.594083
O13	O	-0.080123	0.744243	0.094098
O14	O	0.419877	1.244243	0.594098
Zn15	Zn	-0.088610	0.657821	0.123942
Zn16	Zn	0.411390	1.157821	0.623942
Zn17	Zn	-0.059684	0.686780	-0.123775
Zn18	Zn	0.440316	1.186780	0.376225
O19	O	-0.168060	0.656292	0.094106
O20	O	0.331940	1.156292	0.594106
C21	C	-0.078893	0.568153	0.000073
C22	C	0.421107	1.068153	0.500073
C23	C	-0.078126	0.504937	0.000067
C24	C	0.421874	1.004937	0.500067
C25	C	-0.022932	0.238777	0.000087
C26	C	0.477068	0.738777	0.500087
C27	C	-0.023643	0.298178	0.000087
C28	C	0.476357	0.798178	0.500087
O29	O	0.020140	0.334927	0.000118
O30	O	0.520140	0.834927	0.500118
N31	N	-0.075921	0.320794	0.000089
N32	N	0.424079	0.820794	0.500089
C33	C	-0.127492	0.284005	0.000103
C34	C	0.372508	0.784005	0.500103
O35	O	-0.172024	0.308696	0.000106
O36	O	0.327976	0.808696	0.500106
C37	C	-0.126781	0.224605	0.000111
C38	C	0.373219	0.724605	0.500111
C39	C	-0.074498	0.201994	0.000097
C40	C	0.425502	0.701994	0.500097
C41	C	0.029346	0.216165	0.000075
C42	C	0.529346	0.716165	0.500075
C43	C	0.030058	0.156769	0.000073
C44	C	0.530058	0.656769	0.500073
C45	C	-0.021509	0.119986	0.000083
C46	C	0.478491	0.619986	0.500083
C47	C	-0.073787	0.142598	0.000095
C48	C	0.426213	0.642598	0.500095
C49	C	-0.178353	0.187817	0.000133
C50	C	0.321647	0.687817	0.500133
C51	C	-0.177637	0.128413	0.000142
C52	C	0.322363	0.628413	0.500142
C53	C	-0.125354	0.105802	0.000128
C54	C	0.374646	0.605802	0.500128
C55	C	-0.124642	0.046419	0.000104
C56	C	0.375358	0.546419	0.500104
N57	N	-0.072365	0.023802	0.000102
N58	N	0.427635	0.523802	0.500102
C59	C	-0.020798	0.060586	0.000091
C60	C	0.479202	0.560586	0.500091
C61	C	-0.128982	0.408749	0.000087
C62	C	0.371018	0.908749	0.500087
C63	C	-0.129693	0.468149	0.000071
C64	C	0.370307	0.968149	0.500071
C65	C	-0.025844	0.482317	0.000057
C66	C	0.474156	0.982317	0.500057
C67	C	-0.025132	0.422917	0.000065
C68	C	0.474868	0.922917	0.500065
C69	C	-0.076704	0.386133	0.000085
C70	C	0.423296	0.886133	0.500085
C71	C	-0.019307	-0.064150	0.000086
C72	C	0.480693	0.435850	0.500086
C73	C	-0.018600	-0.123551	0.000080
C74	C	0.481400	0.376449	0.500080
C75	C	-0.122449	-0.137715	0.000099
C76	C	0.377551	0.362285	0.500099
C77	C	-0.123156	-0.078318	0.000100
C78	C	0.376844	0.421682	0.500100
C79	C	-0.071581	-0.041537	0.000097
C80	C	0.428419	0.458463	0.500097
O81	O	-0.168403	0.009635	0.000078
O82	O	0.331597	0.509635	0.500078
O83	O	0.023725	0.035885	0.000103
O84	O	0.523725	0.535885	0.500103
C85	C	-0.178300	0.667532	0.000103
C86	C	0.321700	1.167532	0.500103
C87	C	-0.241520	0.668285	0.000115
C88	C	0.258480	1.168285	0.500115
C89	C	-0.621560	0.685010	-0.102426
C90	C	-0.121560	1.185010	0.397574
C91	C	-0.680959	0.685728	-0.102431
C92	C	-0.180959	1.185728	0.397569
O93	O	-0.701500	0.696308	-0.189592
O94	O	-0.201500	1.196308	0.310408
N95	N	-0.722634	0.674103	0.000054
N96	N	-0.222634	1.174103	0.500054
C97	C	-0.704908	0.661765	0.102552
C98	C	-0.204908	1.161765	0.602552
O99	O	-0.745811	0.651943	0.189723
O100	O	-0.245811	1.151943	0.689723
C101	C	-0.645510	0.661051	0.102556
C102	C	-0.145510	1.161051	0.602556
C103	C	-0.603837	0.672671	0.000064
C104	C	-0.103837	1.172671	0.500064
C105	C	-0.579888	0.696630	-0.204910
C106	C	-0.079888	1.196630	0.295090
C107	C	-0.520494	0.695911	-0.204904
C108	C	-0.020494	1.195911	0.295096
C109	C	-0.502771	0.683572	-0.102414
C110	C	-0.002771	1.183572	0.397586
C111	C	-0.544443	0.671952	0.000070
C112	C	-0.044443	1.171952	0.500070
C113	C	-0.627784	0.648717	0.205053
C114	C	-0.127784	1.148717	0.705053
C115	C	-0.568380	0.648004	0.205048
C116	C	-0.068380	1.148004	0.705048
C117	C	-0.526708	0.659625	0.102556
C118	C	-0.026708	1.159625	0.602556
C119	C	-0.467326	0.658894	0.102565
C120	C	0.032674	1.158894	0.602565
N121	N	-0.425650	0.670519	0.000080
N122	N	0.074350	1.170519	0.500080
C123	C	-0.443373	0.682858	-0.102410
C124	C	0.056627	1.182858	0.397590
C125	C	-0.829648	0.663266	0.102535
C126	C	-0.329648	1.163266	0.602535
C127	C	-0.889046	0.663975	0.102532
C128	C	-0.389046	1.163975	0.602532
C129	C	-0.865092	0.687940	-0.102452
C130	C	-0.365092	1.187940	0.397548
C131	C	-0.805694	0.687226	-0.102447
C132	C	-0.305694	1.187226	0.397553
C133	C	-0.787972	0.674891	0.000050
C134	C	-0.287972	1.174891	0.500050
C135	C	-0.318641	0.681347	-0.102390
C136	C	0.181359	1.181347	0.397610
C137	C	-0.259242	0.680624	-0.102375
C138	C	0.240758	1.180624	0.397625
C139	C	-0.283201	0.656663	0.102608
C140	C	0.216799	1.156663	0.602608
C141	C	-0.342595	0.657382	0.102594
C142	C	0.157405	1.157382	0.602594
C143	C	-0.360312	0.669727	0.000086
C144	C	0.139688	1.169727	0.500086
O145	O	-0.446741	0.648321	0.189681
O146	O	0.053259	1.148321	0.689681
O147	O	-0.402463	0.692686	-0.189567
O148	O	0.097537	1.192686	0.310433
C149	C	0.030006	0.677069	0.000061
C150	C	0.530006	1.177069	0.500061
C151	C	0.093227	0.676317	0.000042
C152	C	0.593227	1.176317	0.500042
C153	C	-0.069401	0.776448	0.000091
C154	C	0.430599	1.276448	0.500091
C155	C	-0.070167	0.839665	0.000090
C156	C	0.429833	1.339665	0.500090
N157	N	-0.108351	0.638061	0.293002
N158	N	0.391649	1.138061	0.793002
N159	N	-0.039939	0.706544	-0.292835
N160	N	0.460061	1.206544	0.207165
C161	C	0.005897	0.752413	0.647976
C162	C	0.505897	1.252413	1.147976
C163	C	0.019713	0.766240	0.529635
C164	C	0.519713	1.266240	1.029635
C165	C	-0.012301	0.734196	0.470471
C166	C	0.487699	1.234196	0.970471
C167	C	-0.058135	0.688324	0.529660
C168	C	0.441865	1.188324	1.029660
C169	C	-0.071956	0.674499	0.648012
C170	C	0.428044	1.174499	1.148012
C171	C	-0.090154	0.656282	0.470507
C172	C	0.409846	1.156282	0.970507
C173	C	-0.135988	0.610410	0.529695
C174	C	0.364012	1.110410	1.029695
C175	C	-0.149806	0.596587	0.648037
C176	C	0.350194	1.096587	1.148037
C177	C	-0.117792	0.628630	0.707201
C178	C	0.382208	1.128630	1.207201
C179	C	-0.076333	0.670107	0.352154
C180	C	0.423667	1.170107	0.852154
C181	C	-0.154186	0.592193	0.352190
C182	C	0.345814	1.092193	0.852190
C183	C	-0.168003	0.578366	0.470531
C184	C	0.331997	1.078366	0.970531
H185	H	0.016145	0.512277	0.000049
H186	H	0.516145	1.012277	0.500049
C187	C	-0.338122	0.694921	-0.215146
C188	C	0.161878	1.194921	0.284854
H189	H	-0.304792	0.701733	-0.276173
H190	H	0.195208	1.201733	0.223827
H191	H	-0.356260	0.728915	-0.219421
H192	H	0.143740	1.228915	0.280579
H193	H	-0.365329	0.662479	-0.219412
H194	H	0.134671	1.162479	0.280588
C195	C	-0.235866	0.212675	0.000164
C196	C	0.264134	0.712675	0.500164
H197	H	-0.266472	0.182251	0.000189
H198	H	0.233528	0.682251	0.500189
H199	H	-0.230660	0.243215	-0.065395
H200	H	0.269340	0.743215	0.434605
H201	H	-0.245957	0.227884	0.065743
H202	H	0.254043	0.727884	0.565743
H203	H	-0.922973	0.654502	0.185992
H204	H	-0.422973	1.154502	0.685992
C205	C	-0.187202	0.493017	0.000074
C206	C	0.312798	0.993017	0.500074
H207	H	-0.217809	0.462597	0.000088
H208	H	0.282191	0.962597	0.500088
H209	H	-0.181986	0.523557	-0.065488
H210	H	0.318014	1.023557	0.434512
H211	H	-0.197297	0.508227	0.065650
H212	H	0.302703	1.008227	0.565650
H213	H	0.031956	0.778502	0.696155
H214	H	0.531956	1.278502	1.196155
C215	C	-0.132991	0.613424	0.837377
C216	C	0.367009	1.113424	1.337377
H217	H	-0.107360	0.639080	0.864130
H218	H	0.392640	1.139080	1.364130
H219	H	-0.128509	0.573943	0.864160
H220	H	0.371491	1.073943	1.364160
H221	H	-0.172482	0.617880	0.864152
H222	H	0.327518	1.117880	1.364152
H223	H	-0.165729	-0.059907	0.000110
H224	H	0.334271	0.440093	0.500110
C225	C	-0.200231	0.546138	0.713141
C226	C	0.299769	1.046138	1.213141
H227	H	-0.217317	0.529032	0.660960
H228	H	0.282683	1.029032	1.160960
H229	H	-0.229224	0.561096	0.759301
H230	H	0.270776	1.061096	1.259301
H231	H	-0.185255	0.517155	0.759316
H232	H	0.314745	1.017155	1.259316
H233	H	-0.205322	0.541016	0.518737
H234	H	0.294678	1.041016	1.018737
H235	H	-0.376530	0.647897	0.186051
H236	H	0.123470	1.147897	0.686051
C237	C	-0.673610	0.635942	0.317796
C238	C	-0.173610	1.135942	0.817796
H239	H	-0.654538	0.628501	0.378826
H240	H	-0.154538	1.128501	0.878826
H241	H	-0.701819	0.602508	0.322078
H242	H	-0.201819	1.102508	0.822078
H243	H	-0.692739	0.668947	0.322052
H244	H	-0.192739	1.168947	0.822052
H245	H	-0.219634	0.098465	0.000163
H246	H	0.280366	0.598465	0.500163
C247	C	0.038912	-0.148421	0.000072
C248	C	0.538912	0.351579	0.500072
H249	H	0.069519	-0.118005	0.000078
H250	H	0.569519	0.381995	0.500078
H251	H	0.049008	-0.163635	-0.065492
H252	H	0.549008	0.336365	0.434508
H253	H	0.033691	-0.178961	0.065645
H254	H	0.533691	0.321039	0.565645
C255	C	0.037426	-0.023697	0.000067
C256	C	0.537426	0.476303	0.500067
H257	H	0.068660	-0.045677	0.000047
H258	H	0.568660	0.454323	0.500047
H259	H	0.031661	-0.007890	0.065626
H260	H	0.531661	0.492110	0.565626
H261	H	0.046963	0.007429	-0.065511
H262	H	0.546963	0.507429	0.434489
C263	C	0.087567	0.131902	0.000079
C264	C	0.587567	0.631902	0.500079
H265	H	0.118170	0.162321	0.000086
H266	H	0.618170	0.662321	0.500086
H267	H	0.097668	0.116684	-0.065480
H268	H	0.597668	0.616684	0.434520
H269	H	0.082344	0.101365	0.065658
H270	H	0.582344	0.601365	0.565658
H271	H	-0.268760	0.646614	0.186053
H272	H	0.231240	1.146614	0.686053
C273	C	-0.213404	0.693415	-0.215121
C274	C	0.286596	1.193415	0.284879
H275	H	-0.232469	0.700873	-0.276158
H276	H	0.267531	1.200873	0.223842
H277	H	-0.194267	0.660420	-0.219394
H278	H	0.305733	1.160420	0.280606
H279	H	-0.185203	0.726853	-0.219371
H280	H	0.314797	1.226853	0.280629
H281	H	-0.594309	0.706681	-0.288374
H282	H	-0.094309	1.206681	0.211626
C283	C	-0.474661	0.708696	-0.317646
C284	C	0.025339	1.208696	0.182354
H285	H	-0.493730	0.716150	-0.378678
H286	H	0.006270	1.216150	0.121322
H287	H	-0.455525	0.675700	-0.321916
H288	H	0.044475	1.175700	0.178084
H289	H	-0.446457	0.742135	-0.321911
H290	H	0.053543	1.242135	0.178089
C291	C	-0.189407	0.556945	0.287122
C292	C	0.310593	1.056945	0.787122
H293	H	-0.174609	0.571745	0.208163
H294	H	0.325391	1.071745	0.708163
H295	H	-0.229651	0.560641	0.306521
H296	H	0.270349	1.060641	0.806521
H297	H	-0.185679	0.516705	0.306523
H298	H	0.314321	1.016705	0.806523
H299	H	-0.815225	0.653215	0.186006
H300	H	-0.315225	1.153215	0.686006
H301	H	0.071340	0.246109	0.000070
H302	H	0.571340	0.746109	0.500070
H303	H	-0.553956	0.637960	0.288516
H304	H	-0.053956	1.137960	0.788516
H305	H	-0.170979	0.378803	0.000095
H306	H	0.329021	0.878803	0.500095
C307	C	0.032376	0.398048	0.000062
C308	C	0.532376	0.898048	0.500062
H309	H	0.062982	0.428467	0.000060
H310	H	0.562982	0.928467	0.500060
H311	H	0.042472	0.382830	-0.065497
H312	H	0.542472	0.882830	0.434503
H313	H	0.027156	0.367512	0.065641
H314	H	0.527156	0.867512	0.565641
C315	C	-0.759857	0.700023	-0.215187
C316	C	-0.259857	1.200023	0.284813
H317	H	-0.778924	0.707480	-0.276222
H318	H	-0.278924	1.207480	0.223778
H319	H	-0.740712	0.667034	-0.219468
H320	H	-0.240712	1.167034	0.280532
H321	H	-0.731662	0.733466	-0.219435
H322	H	-0.231662	1.233466	0.280565
H323	H	-0.164433	-0.167674	0.000102
H324	H	0.335567	0.332326	0.500102
H325	H	-0.879532	0.697985	-0.185905
H326	H	-0.379532	1.197985	0.314095
C327	C	-0.025924	0.720564	0.287055
C328	C	0.474076	1.220564	0.787055
H329	H	-0.022280	0.724215	0.208099
H330	H	0.477720	1.224215	0.708099
H331	H	0.009794	0.712346	0.306444
H332	H	0.509794	1.212346	0.806444
H333	H	-0.034193	0.756269	0.306448
H334	H	0.465807	1.256269	0.806448
C335	C	0.070129	0.816691	0.464536
C336	C	0.570129	1.316691	0.964536
H337	H	0.087220	0.833791	0.516718
H338	H	0.587220	1.333791	1.016718
H339	H	0.055153	0.845670	0.418364
H340	H	0.555153	1.345670	0.918364
H341	H	0.099126	0.801733	0.418374
H342	H	0.599126	1.301733	0.918374
H343	H	-0.001050	0.745456	0.374112
H344	H	0.498950	1.245456	0.874112
