data_functionalizedCrystal
_audit_creation_method	'MofGen! by Chris Wilmer'
_symmetry_space_group_name_H-M	'P1'
_symmetry_Int_Tables_number	1
_symmetry_cell_setting	triclinic
loop_
_symmetry_equiv_pos_as_xyz
  x,y,z
_cell_length_a	19.121241
_cell_length_b	19.121449
_cell_length_c	19.120904
_cell_angle_alpha	90.076803
_cell_angle_beta	89.875472
_cell_angle_gamma	89.915403
loop_
_atom_site_label
_atom_site_type_symbol
_atom_site_fract_x
_atom_site_fract_y
_atom_site_fract_z
Zn1	Zn	1.066081	-0.252666	-0.431900
Zn2	Zn	1.399414	0.080668	-0.098567
Zn3	Zn	1.732748	0.414001	0.234767
Zn4	Zn	1.075963	-0.364500	-0.310107
Zn5	Zn	1.409297	-0.031166	0.023227
Zn6	Zn	1.742630	0.302167	0.356560
Zn7	Zn	0.953829	-0.252250	-0.309687
Zn8	Zn	1.287162	0.081083	0.023647
Zn9	Zn	1.620496	0.414416	0.356980
Zn10	Zn	0.954212	-0.374414	-0.421889
Zn11	Zn	1.287545	-0.041080	-0.088556
Zn12	Zn	1.620879	0.292253	0.244777
O13	O	1.012521	-0.310957	-0.368396
O14	O	1.345855	0.022376	-0.035062
O15	O	1.679188	0.355709	0.298271
O16	O	1.165323	-0.263525	-0.420109
O17	O	1.498656	0.069808	-0.086776
O18	O	1.831990	0.403141	0.246558
O19	O	1.063737	-0.345287	-0.212123
O20	O	1.397071	-0.011953	0.121211
O21	O	1.730404	0.321380	0.454544
O22	O	0.964423	-0.154377	-0.329912
O23	O	1.297757	0.178957	0.003421
O24	O	1.631090	0.512290	0.336755
O25	O	1.172584	-0.345689	-0.330628
O26	O	1.505917	-0.012356	0.002705
O27	O	1.839250	0.320977	0.336039
O28	O	1.046894	-0.154682	-0.419702
O29	O	1.380228	0.178651	-0.086368
O30	O	1.713561	0.511985	0.246965
O31	O	0.974006	-0.262818	-0.211814
O32	O	1.307339	0.070516	0.121519
O33	O	1.640673	0.403849	0.454853
O34	O	0.855949	-0.272431	-0.320205
O35	O	1.189282	0.060903	0.013128
O36	O	1.522615	0.394236	0.346461
O37	O	0.965076	-0.362586	-0.521146
O38	O	1.298410	-0.029253	-0.187812
O39	O	1.631743	0.304080	0.145521
O40	O	0.856230	-0.362184	-0.402640
O41	O	1.189563	-0.028850	-0.069307
O42	O	1.522897	0.304483	0.264026
O43	O	1.047266	-0.273139	-0.528500
O44	O	1.380599	0.060195	-0.195167
O45	O	1.713932	0.393528	0.138166
O46	O	1.064109	-0.463744	-0.320921
O47	O	1.397442	-0.130410	0.012412
O48	O	1.730776	0.202923	0.345745
O49	O	0.974659	-0.471027	-0.403048
O50	O	1.307992	-0.137694	-0.069714
O51	O	1.641326	0.195639	0.263619
C52	C	0.830697	-0.318339	-0.360291
C53	C	1.164030	0.014995	-0.026958
C54	C	1.497364	0.348328	0.306375
C55	C	0.752912	-0.321514	-0.356840
C56	C	1.086245	0.011820	-0.023507
C57	C	1.419578	0.345153	0.309827
C58	C	1.020516	-0.492777	-0.360960
C59	C	1.353850	-0.159444	-0.027627
C60	C	1.687183	0.173889	0.305707
C61	C	1.024000	-0.570559	-0.357805
C62	C	1.357333	-0.237226	-0.024472
C63	C	1.690666	0.096108	0.308862
C64	C	0.979035	-0.610918	-0.399043
C65	C	1.312368	-0.277585	-0.065710
C66	C	1.645702	0.055748	0.267623
C67	C	0.982311	-0.684002	-0.396076
C68	C	1.315645	-0.350669	-0.062743
C69	C	1.648978	-0.017336	0.270590
C70	C	1.030556	-0.716725	-0.351874
C71	C	1.363889	-0.383392	-0.018541
C72	C	1.697222	-0.050059	0.314792
C73	C	1.075522	-0.676361	-0.310632
C74	C	1.408855	-0.343027	0.022702
C75	C	1.742189	-0.009694	0.356035
C76	C	1.072242	-0.603278	-0.313595
C77	C	1.405575	-0.269945	0.019738
C78	C	1.738909	0.063389	0.353071
C79	C	1.042788	-0.937197	-0.340785
C80	C	1.376121	-0.603863	-0.007452
C81	C	1.709454	-0.270530	0.325881
C82	C	1.046066	-1.010285	-0.337826
C83	C	1.379399	-0.676951	-0.004493
C84	C	1.712732	-0.343618	0.328840
C85	C	0.952853	-1.017921	-0.423271
C86	C	1.286187	-0.684588	-0.089937
C87	C	1.619520	-0.351255	0.243396
C88	C	0.949581	-0.944837	-0.426233
C89	C	1.282914	-0.611504	-0.092900
C90	C	1.616247	-0.278170	0.240433
C91	C	0.994544	-0.904479	-0.384988
C92	C	1.327878	-0.571145	-0.051655
C93	C	1.661211	-0.237812	0.281679
C94	C	1.033907	-0.791429	-0.348842
C95	C	1.367240	-0.458096	-0.015509
C96	C	1.700574	-0.124762	0.317824
C97	C	0.991189	-0.829776	-0.388017
C98	C	1.324523	-0.496443	-0.054683
C99	C	1.657856	-0.163110	0.278650
C100	C	0.712589	-0.280301	-0.401872
C101	C	1.045922	0.053032	-0.068539
C102	C	1.379256	0.386365	0.264795
C103	C	0.639502	-0.283281	-0.398623
C104	C	0.972835	0.050052	-0.065290
C105	C	1.306168	0.383386	0.268043
C106	C	0.606738	-0.327478	-0.350346
C107	C	0.940072	0.005856	-0.017012
C108	C	1.273405	0.339189	0.316321
C109	C	0.647067	-0.368692	-0.305309
C110	C	0.980400	-0.035358	0.028025
C111	C	1.313733	0.297975	0.361358
C112	C	0.720153	-0.365708	-0.308555
C113	C	1.053486	-0.032374	0.024779
C114	C	1.386819	0.300959	0.358112
C115	C	0.386255	-0.338621	-0.338208
C116	C	0.719588	-0.005287	-0.004875
C117	C	1.052922	0.328046	0.328458
C118	C	0.313164	-0.341603	-0.334967
C119	C	0.646497	-0.008270	-0.001634
C120	C	0.979830	0.325064	0.331699
C121	C	0.305604	-0.256191	-0.428281
C122	C	0.638937	0.077142	-0.094948
C123	C	0.972270	0.410476	0.238385
C124	C	0.378691	-0.253214	-0.431526
C125	C	0.712025	0.080119	-0.098192
C126	C	1.045358	0.413453	0.235141
C127	C	0.419013	-0.294425	-0.386487
C128	C	0.752347	0.038908	-0.053153
C129	C	1.085680	0.372241	0.280180
C130	C	0.532032	-0.330526	-0.347025
C131	C	0.865365	0.002807	-0.013692
C132	C	1.198698	0.336140	0.319641
C133	C	0.493719	-0.291373	-0.389804
C134	C	0.827052	0.041961	-0.056471
C135	C	1.160385	0.375294	0.276863
C136	C	1.195056	-0.303548	-0.376532
C137	C	1.528389	0.029785	-0.043199
C138	C	1.861722	0.363119	0.290135
C139	C	1.272841	-0.300390	-0.379999
C140	C	1.606174	0.032943	-0.046666
C141	C	1.939508	0.366276	0.286667
C142	C	1.005111	-0.319015	-0.550925
C143	C	1.338445	0.014319	-0.217591
C144	C	1.671778	0.347652	0.115742
C145	C	1.001954	-0.322448	-0.628708
C146	C	1.335287	0.010885	-0.295374
C147	C	1.668620	0.344218	0.037959
C148	C	1.004514	-0.128427	-0.375877
C149	C	1.337847	0.204906	-0.042543
C150	C	1.671180	0.538239	0.290790
C151	C	1.001101	-0.050644	-0.379065
C152	C	1.334435	0.282689	-0.045731
C153	C	1.667768	0.616023	0.287602
C154	C	1.043260	-0.277493	-0.669080
C155	C	1.376593	0.055840	-0.335747
C156	C	1.709926	0.389174	-0.002414
C157	C	1.040284	-0.280717	-0.742165
C158	C	1.373617	0.052616	-0.408832
C159	C	1.706951	0.385950	-0.075499
C160	C	0.996006	-0.328900	-0.774876
C161	C	1.329339	0.004433	-0.441543
C162	C	1.662672	0.337767	-0.108210
C163	C	0.954695	-0.373857	-0.734498
C164	C	1.288028	-0.040524	-0.401165
C165	C	1.621362	0.292809	-0.067832
C166	C	0.957667	-0.370630	-0.661415
C167	C	1.291001	-0.037296	-0.328081
C168	C	1.624334	0.296037	0.005252
C169	C	0.984887	-0.340973	-0.995350
C170	C	1.318220	-0.007639	-0.662017
C171	C	1.651553	0.325694	-0.328684
C172	C	0.981919	-0.344198	-1.068439
C173	C	1.315252	-0.010865	-0.735106
C174	C	1.648586	0.322468	-0.401773
C175	C	1.067507	-0.251057	-1.076102
C176	C	1.400841	0.082277	-0.742768
C177	C	1.734174	0.415610	-0.409435
C178	C	1.070479	-0.247836	-1.003016
C179	C	1.403812	0.085497	-0.669683
C180	C	1.737146	0.418831	-0.336349
C181	C	1.029166	-0.292791	-0.962644
C182	C	1.362499	0.040543	-0.629311
C183	C	1.695832	0.373876	-0.295978
C184	C	0.992965	-0.332198	-0.849581
C185	C	1.326298	0.001135	-0.516248
C186	C	1.659631	0.334469	-0.182914
C187	C	1.032203	-0.289489	-0.887941
C188	C	1.365537	0.043845	-0.554608
C189	C	1.698870	0.377178	-0.221274
C190	C	1.019940	-0.302879	-0.186581
C191	C	1.353274	0.030454	0.146753
C192	C	1.686607	0.363787	0.480086
C193	C	1.023225	-0.299243	-0.108812
C194	C	1.356558	0.034090	0.224521
C195	C	1.689892	0.367424	0.557854
H196	H	0.939752	-0.584280	-0.435041
H197	H	1.273086	-0.250947	-0.101707
H198	H	1.606419	0.082386	0.231626
Cl199	Cl	1.126146	-0.187260	-0.961899
Cl200	Cl	1.459479	0.146073	-0.628566
Cl201	Cl	1.792813	0.479406	-0.295233
Cl202	Cl	0.271977	-0.397186	-0.274286
Cl203	Cl	0.605310	-0.063852	0.059047
Cl204	Cl	0.938644	0.269481	0.392380
H205	H	0.918640	-0.413087	-0.761137
H206	H	1.251973	-0.079753	-0.427804
H207	H	1.585307	0.253580	-0.094471
Cl208	Cl	0.905735	-0.427145	-0.610660
Cl209	Cl	1.239069	-0.093812	-0.277326
Cl210	Cl	1.572402	0.239521	0.056007
Cl211	Cl	1.087858	-0.228911	-0.846817
Cl212	Cl	1.421192	0.104422	-0.513484
Cl213	Cl	1.754525	0.437756	-0.180151
H214	H	1.079400	-0.904342	-0.307203
H215	H	1.412734	-0.571009	0.026130
H216	H	1.746067	-0.237676	0.359464
Cl217	Cl	0.753769	-0.224740	-0.462570
Cl218	Cl	1.087103	0.108593	-0.129237
Cl219	Cl	1.420436	0.441927	0.204096
Cl220	Cl	0.937305	-0.392772	-0.890710
Cl221	Cl	1.270639	-0.059439	-0.557376
Cl222	Cl	1.603972	0.273894	-0.224043
Cl223	Cl	1.092247	-0.224228	-0.792917
Cl224	Cl	1.425580	0.109105	-0.459584
Cl225	Cl	1.758913	0.442438	-0.126250
Cl226	Cl	1.094562	-0.832573	-0.293283
Cl227	Cl	1.427896	-0.499239	0.040050
Cl228	Cl	1.761229	-0.165906	0.373383
H229	H	0.945690	-0.716860	-0.429650
H230	H	1.279024	-0.383527	-0.096317
H231	H	1.612357	-0.050193	0.237016
H232	H	0.945860	-0.383437	-1.095070
H233	H	1.279194	-0.050103	-0.761737
H234	H	1.612527	0.283230	-0.428403
Cl235	Cl	0.888930	-0.903705	-0.481807
Cl236	Cl	1.222264	-0.570372	-0.148474
Cl237	Cl	1.555597	-0.237038	0.184860
H238	H	1.114801	-0.703010	-0.274638
H239	H	1.448134	-0.369676	0.058695
H240	H	1.781467	-0.036343	0.392029
Cl241	Cl	0.932950	-0.397488	-0.944607
Cl242	Cl	1.266283	-0.064155	-0.611273
Cl243	Cl	1.599617	0.269178	-0.277940
Cl244	Cl	0.254910	-0.204384	-0.484897
Cl245	Cl	0.588243	0.128949	-0.151563
Cl246	Cl	0.921576	0.462283	0.181770
Cl247	Cl	0.588813	-0.231470	-0.455240
Cl248	Cl	0.922146	0.101863	-0.121907
Cl249	Cl	1.255479	0.435196	0.211427
Cl250	Cl	0.419874	-0.197655	-0.492225
Cl251	Cl	0.753207	0.135678	-0.158891
Cl252	Cl	1.086540	0.469012	0.174442
H253	H	0.916246	-1.050789	-0.456850
H254	H	1.249579	-0.717456	-0.123516
H255	H	1.582912	-0.384122	0.209817
H256	H	1.085356	-1.036925	-0.301832
H257	H	1.418690	-0.703592	0.031501
H258	H	1.752023	-0.370258	0.364834
H259	H	1.108856	-0.570418	-0.280014
H260	H	1.442189	-0.237084	0.053320
H261	H	1.775523	0.096249	0.386653
Cl262	Cl	0.534908	-0.235811	-0.450492
Cl263	Cl	0.868241	0.097522	-0.117159
Cl264	Cl	1.201575	0.430855	0.216175
H265	H	0.419077	-0.372179	-0.301535
H266	H	0.752410	-0.038845	0.031799
H267	H	1.085743	0.294488	0.365132
Cl268	Cl	0.930540	-0.788638	-0.443582
Cl269	Cl	1.263873	-0.455304	-0.110248
Cl270	Cl	1.597207	-0.121971	0.223085
Cl271	Cl	0.605879	-0.424250	-0.244613
Cl272	Cl	0.939212	-0.090916	0.088721
Cl273	Cl	1.272545	0.242417	0.422054
Cl274	Cl	0.770845	-0.417521	-0.251941
Cl275	Cl	1.104178	-0.084188	0.081392
Cl276	Cl	1.437511	0.249146	0.414726
H277	H	0.505348	-0.366511	-0.307717
H278	H	0.838681	-0.033178	0.025616
H279	H	1.172014	0.300155	0.358949
H280	H	1.101141	-0.214456	-1.108980
H281	H	1.434475	0.118877	-0.775647
H282	H	1.767808	0.452211	-0.442313
H283	H	1.079318	-0.238259	-0.642453
H284	H	1.412652	0.095074	-0.309119
H285	H	1.745985	0.428408	0.024214
