data_functionalizedCrystal
_audit_creation_method	'MofGen! by Chris Wilmer'
_symmetry_space_group_name_H-M	'P1'
_symmetry_Int_Tables_number	1
_symmetry_cell_setting	triclinic
loop_
_symmetry_equiv_pos_as_xyz
  x,y,z
_cell_length_a	16.109301
_cell_length_b	15.944551
_cell_length_c	14.586319
_cell_angle_alpha	89.995256
_cell_angle_beta	89.999213
_cell_angle_gamma	83.480109
loop_
_atom_site_label
_atom_site_type_symbol
_atom_site_fract_x
_atom_site_fract_y
_atom_site_fract_z
O1	O	1.103166	0.107966	-0.076184
O2	O	0.861108	0.121403	-0.076199
O3	O	0.988747	-0.007593	-0.076183
O4	O	0.975527	0.236961	-0.076200
O5	O	0.988738	-0.007595	0.076298
O6	O	0.861099	0.121401	0.076282
O7	O	1.103157	0.107964	0.076296
Cu8	Cu	0.982127	0.114682	0.090212
Cu9	Cu	0.982138	0.114685	-0.090114
O10	O	0.975518	0.236960	0.076280
C11	C	0.830129	0.120857	0.000039
C12	C	0.737833	0.119226	0.000034
C13	C	0.515584	0.191975	0.000040
C14	C	0.428863	0.190435	0.000046
C15	C	0.448688	0.037387	0.000053
C16	C	0.535407	0.038927	0.000053
C17	C	0.568853	0.116224	0.000042
C18	C	0.395412	0.113143	0.000047
C19	C	0.301386	0.111473	0.000054
C20	C	0.662885	0.117894	0.000037
C21	C	0.988194	-0.038887	0.000057
C22	C	0.986548	-0.132133	0.000058
C23	C	0.903499	-0.346962	0.000040
C24	C	0.942060	-0.407993	0.075225
C25	C	0.983572	-0.302858	0.000051
C26	C	0.942088	-0.407975	-0.075109
C27	C	0.980691	-0.467769	0.000040
C28	C	1.022155	-0.362660	0.075297
C29	C	1.022171	-0.362636	-0.075104
C30	C	1.060790	-0.423649	0.000099
C31	C	0.985229	-0.207856	0.000058
C32	C	0.979039	-0.562770	0.000039
C33	C	1.134136	0.108510	0.000056
C34	C	1.226432	0.110141	0.000055
C35	C	0.976071	0.268254	0.000038
C36	C	0.977717	0.361500	0.000031
N37	N	0.982126	0.114680	0.217044
N38	N	0.982146	0.114680	-0.216946
C39	C	1.038663	0.057580	0.452057
C40	C	1.038666	0.057578	0.548038
C41	C	0.925602	0.171783	0.548034
C42	C	0.925597	0.171780	0.452054
C43	C	0.982132	0.114680	0.404068
C44	C	0.982140	0.114680	0.596029
C45	C	0.982142	0.114679	0.700096
C46	C	0.982129	0.114680	0.299995
H47	H	0.385495	0.252119	0.000045
H48	H	0.837035	-0.313632	0.000111
H49	H	0.421446	-0.025546	0.000067
O50	O	0.587040	-0.034740	0.000014
C51	C	0.538927	-0.103294	0.000038
H52	H	0.474204	-0.081962	-0.028833
H53	H	0.532751	-0.126990	0.073192
C54	C	0.661635	-0.201187	-0.024294
C55	C	0.582144	-0.174988	-0.059761
H56	H	0.688295	-0.245413	-0.061178
H57	H	0.694051	-0.155001	-0.024307
H58	H	0.656478	-0.220927	0.036667
H59	H	0.587304	-0.155238	-0.120716
H60	H	0.549730	-0.221172	-0.059760
O61	O	0.901522	-0.431919	0.150982
C62	C	0.818632	-0.392471	0.150724
H63	H	0.799341	-0.374217	0.077561
H64	H	0.814274	-0.333394	0.195280
C65	C	0.783728	-0.476264	0.278944
C66	C	0.760032	-0.453850	0.189083
H67	H	0.747581	-0.514122	0.302610
H68	H	0.839574	-0.502838	0.279121
H69	H	0.780096	-0.427026	0.316063
H70	H	0.763675	-0.503086	0.151964
H71	H	0.704186	-0.427285	0.188901
H72	H	1.055990	-0.342682	0.138930
O73	O	1.093605	0.002029	0.405585
C74	C	1.143514	-0.048355	0.468528
H75	H	1.109431	-0.049309	0.536948
H76	H	1.205276	-0.021065	0.478727
C77	C	1.202502	-0.137794	0.347047
C78	C	1.160638	-0.138972	0.431079
H79	H	1.213069	-0.193691	0.323946
H80	H	1.168880	-0.103848	0.304640
H81	H	1.253965	-0.115049	0.355558
H82	H	1.109171	-0.161707	0.422565
H83	H	1.194252	-0.172924	0.473484
H84	H	0.879558	0.218278	0.412979
H85	H	0.908213	-0.428039	-0.138677
O86	O	1.093616	0.002228	0.594755
C87	C	1.144922	0.047228	0.650250
H88	H	1.111812	0.112946	0.664626
H89	H	1.206364	0.052955	0.613255
C90	C	1.203362	-0.080843	0.723765
C91	C	1.162692	-0.000129	0.741429
H92	H	1.214326	-0.110057	0.780007
H93	H	1.168798	-0.111162	0.686376
H94	H	1.254558	-0.076060	0.692934
H95	H	1.111492	-0.004914	0.772249
H96	H	1.197247	0.030187	0.778826
O97	O	1.140162	-0.463204	0.000312
C98	C	1.182057	-0.440088	0.079673
H99	H	1.134322	-0.418167	0.134823
H100	H	1.220770	-0.386613	0.062456
C101	C	1.298635	-0.543607	0.047388
C102	C	1.240007	-0.516690	0.115126
H103	H	1.334385	-0.590857	0.069256
H104	H	1.270412	-0.559179	-0.006081
H105	H	1.330887	-0.499037	0.033046
H106	H	1.207749	-0.561256	0.129458
H107	H	1.268226	-0.501127	0.168599
O108	O	1.062424	-0.338648	-0.151024
C109	C	1.020006	-0.361487	-0.230140
H110	H	0.952222	-0.368231	-0.212132
H111	H	1.051454	-0.424137	-0.257568
C112	C	1.106008	-0.284416	-0.325957
C113	C	1.022752	-0.292691	-0.303840
H114	H	1.107705	-0.241981	-0.371420
H115	H	1.134588	-0.269030	-0.272655
H116	H	1.132205	-0.336629	-0.348808
H117	H	0.996560	-0.240482	-0.280978
H118	H	0.994168	-0.308066	-0.357140
H119	H	0.879574	0.218274	0.587113
H120	H	0.542812	0.254914	0.000037
