data_functionalizedCrystal
_audit_creation_method	'MofGen! by Chris Wilmer'
_symmetry_space_group_name_H-M	'P1'
_symmetry_Int_Tables_number	1
_symmetry_cell_setting	triclinic
loop_
_symmetry_equiv_pos_as_xyz
  x,y,z
_cell_length_a	23.532407
_cell_length_b	23.532407
_cell_length_c	22.010155
_cell_angle_alpha	90.000423
_cell_angle_beta	89.996931
_cell_angle_gamma	97.151322
loop_
_atom_site_label
_atom_site_type_symbol
_atom_site_fract_x
_atom_site_fract_y
_atom_site_fract_z
O1	O	0.755264	-0.069127	-0.050455
O2	O	0.589400	-0.079130	-0.050474
O3	O	0.677334	0.008803	-0.050453
O4	O	0.667330	-0.157060	-0.050476
O5	O	0.677318	0.008790	0.050597
O6	O	0.589384	-0.079143	0.050576
O7	O	0.755248	-0.069140	0.050595
Cu8	Cu	0.672315	-0.074143	0.059812
Cu9	Cu	0.672333	-0.074127	-0.059691
O10	O	0.667314	-0.157073	0.050574
C11	C	0.568176	-0.078882	0.000049
C12	C	0.504959	-0.078116	0.000042
C13	C	0.105856	-0.125350	0.000063
C14	C	0.046456	-0.124638	0.000067
O15	O	0.009711	-0.168424	0.000083
N16	N	0.023830	-0.072362	0.000073
C17	C	0.060607	-0.020794	0.000082
O18	O	0.035908	0.023737	0.000088
C19	C	0.120006	-0.021506	0.000082
C20	C	0.142629	-0.073785	0.000070
C21	C	0.128479	-0.177625	0.000051
C22	C	0.187876	-0.178336	0.000046
C23	C	0.224649	-0.126772	0.000053
C24	C	0.202025	-0.074497	0.000065
C25	C	0.156783	0.030062	0.000096
C26	C	0.216185	0.029345	0.000097
C27	C	0.238808	-0.022934	0.000084
C28	C	0.298194	-0.023643	0.000067
N29	N	0.320820	-0.075920	0.000061
C30	C	0.284048	-0.127484	0.000054
C31	C	-0.064135	-0.019302	0.000082
C32	C	-0.123533	-0.018589	0.000077
C33	C	-0.137680	-0.122434	0.000063
C34	C	-0.078281	-0.123146	0.000064
C35	C	-0.041509	-0.071578	0.000076
C36	C	0.408784	-0.128974	0.000043
C37	C	0.468186	-0.129680	0.000035
C38	C	0.482329	-0.025836	0.000052
C39	C	0.422932	-0.025129	0.000057
C40	C	0.386160	-0.076702	0.000054
O41	O	0.334974	0.020119	0.000054
O42	O	0.308755	-0.172007	0.000055
C43	C	0.677071	0.030013	0.000074
C44	C	0.676305	0.093230	0.000078
C45	C	0.776472	-0.069388	0.000071
C46	C	0.839689	-0.070154	0.000073
C47	C	0.667577	-0.178283	0.000046
C48	C	0.668343	-0.241500	0.000037
N49	N	0.672305	-0.074153	0.143865
C50	C	0.723539	0.492333	0.000050
C51	C	0.722827	0.551733	0.000046
O52	O	0.766613	0.588478	0.000028
N53	N	0.670551	0.574359	0.000040
C54	C	0.618983	0.537582	0.000033
O55	O	0.574452	0.562281	0.000027
C56	C	0.619695	0.478182	0.000033
C57	C	0.671974	0.455560	0.000045
C58	C	0.775814	0.469710	0.000061
C59	C	0.776525	0.410313	0.000067
C60	C	0.724961	0.373540	0.000062
C61	C	0.672685	0.396164	0.000051
C62	C	0.568127	0.441406	0.000022
C63	C	0.568844	0.382004	0.000022
C64	C	0.621123	0.359381	0.000034
C65	C	0.621832	0.299995	0.000052
N66	N	0.674109	0.277368	0.000057
C67	C	0.725673	0.314141	0.000062
C68	C	0.617491	0.662324	0.000031
C69	C	0.616778	0.721722	0.000035
C70	C	0.720623	0.735869	0.000047
C71	C	0.721335	0.676470	0.000047
C72	C	0.669767	0.639698	0.000037
C73	C	0.727163	0.189405	0.000075
C74	C	0.727869	0.130003	0.000083
C75	C	0.624025	0.115860	0.000069
C76	C	0.623318	0.175257	0.000064
C77	C	0.674891	0.212029	0.000065
O78	O	0.578070	0.263215	0.000067
O79	O	0.770196	0.289433	0.000060
N80	N	0.672347	-0.074112	-0.143744
C81	C	0.711273	-0.035196	0.563653
C82	C	0.711275	-0.035192	0.627261
O83	O	0.744384	-0.002076	0.660160
N84	N	0.672333	-0.074115	0.659072
C85	C	0.633382	-0.113041	0.627272
O86	O	0.600259	-0.146148	0.660170
C87	C	0.633377	-0.113042	0.563665
C88	C	0.672326	-0.074120	0.531858
C89	C	0.750217	0.003723	0.531846
C90	C	0.750215	0.003719	0.468243
C91	C	0.711268	-0.035205	0.436447
C92	C	0.672324	-0.074125	0.468255
C93	C	0.594424	-0.151965	0.531866
C94	C	0.594422	-0.151962	0.468256
C95	C	0.633370	-0.113040	0.436448
C96	C	0.633374	-0.113054	0.372856
N97	N	0.672317	-0.074130	0.341045
C98	C	0.711263	-0.035206	0.372841
C99	C	0.633395	-0.113036	0.760850
C100	C	0.633402	-0.113039	0.824455
C101	C	0.711294	-0.035188	0.824440
C102	C	0.711290	-0.035189	0.760833
C103	C	0.672337	-0.074113	0.729039
C104	C	0.711256	-0.035220	0.239269
C105	C	0.711252	-0.035229	0.175660
C106	C	0.633358	-0.113077	0.175681
C107	C	0.633364	-0.113070	0.239284
C108	C	0.672315	-0.074136	0.271077
O109	O	0.600282	-0.146151	0.339916
O110	O	0.744376	-0.002100	0.339935
H111	H	-0.141947	0.023982	0.000078
C112	C	0.291194	0.088802	-0.051840
C113	C	0.256607	0.086031	0.000107
H114	H	0.316150	0.123795	-0.051832
H115	H	0.267728	0.086929	-0.087071
H116	H	0.313168	0.057565	-0.051841
H117	H	0.234630	0.117266	0.000106
H118	H	0.280076	0.087909	0.035346
C119	C	0.788842	-0.022453	0.310780
C120	C	0.754074	0.007575	0.274209
H121	H	0.815274	0.003966	0.332352
H122	H	0.809184	-0.046056	0.285966
H123	H	0.765646	-0.045625	0.338832
H124	H	0.777270	0.030744	0.246154
H125	H	0.733730	0.031188	0.299026
H126	H	0.601654	-0.144769	0.265183
C127	C	0.010866	0.040152	0.052030
C128	C	-0.023717	0.037387	0.000085
H129	H	0.035812	0.075151	0.052033
H130	H	0.032844	0.008925	0.052023
H131	H	-0.012608	0.038266	0.087265
H132	H	-0.000244	0.039270	-0.035151
H133	H	-0.045698	0.068623	0.000087
C134	C	0.558039	0.587322	-0.051918
C135	C	0.560802	0.621907	0.000028
H136	H	0.523040	0.562375	-0.051921
H137	H	0.589267	0.565342	-0.051910
H138	H	0.559929	0.610794	-0.087152
H139	H	0.558917	0.598434	0.035263
H140	H	0.529566	0.643888	0.000026
H141	H	0.582043	0.085909	0.000067
C142	C	-0.168040	-0.210735	0.052002
C143	C	-0.178109	-0.179117	0.000060
H144	H	-0.192998	-0.245727	0.051996
H145	H	-0.174868	-0.189286	0.087236
H146	H	-0.129426	-0.218642	0.051992
H147	H	-0.216721	-0.171206	0.000072
H148	H	-0.171286	-0.200570	-0.035183
C149	C	0.782391	0.617885	-0.051892
C150	C	0.778801	0.651604	0.000054
H151	H	0.817868	0.602534	-0.051886
H152	H	0.779961	0.640765	-0.087123
H153	H	0.751782	0.587482	-0.051890
H154	H	0.809407	0.682010	0.000049
H155	H	0.781237	0.628722	0.035294
H156	H	0.404512	0.017441	0.000058
C157	C	0.835255	0.544712	0.052014
C158	C	0.832499	0.510127	0.000068
H159	H	0.870251	0.569663	0.052018
H160	H	0.833365	0.521244	0.087245
H161	H	0.804021	0.566691	0.052002
H162	H	0.863730	0.488145	0.000082
H163	H	0.834394	0.533598	-0.035172
H164	H	0.781933	0.035423	0.557728
H165	H	0.762610	0.765821	0.000048
C166	C	0.333785	-0.188417	-0.051910
C167	C	0.368369	-0.185663	0.000035
H168	H	0.308833	-0.223413	-0.051915
H169	H	0.357254	-0.186528	-0.087142
H170	H	0.311807	-0.157183	-0.051895
H171	H	0.390351	-0.216895	0.000017
H172	H	0.344898	-0.187558	0.035276
H173	H	0.138375	0.072634	0.000106
C174	C	0.724044	0.042419	0.689352
C175	C	0.754080	0.007633	0.725893
H176	H	0.750458	0.068865	0.667788
H177	H	0.700442	0.062745	0.714186
H178	H	0.700870	0.019236	0.661293
H179	H	0.777252	0.030816	0.753956
H180	H	0.777692	-0.012694	0.701058
H181	H	0.206289	-0.220908	0.000036
C182	C	0.559821	-0.186538	0.370760
C183	C	0.551604	-0.194750	0.433307
H184	H	0.533385	-0.212952	0.349186
H185	H	0.597787	-0.192535	0.360334
H186	H	0.553853	-0.148558	0.360339
H187	H	0.557576	-0.232729	0.443729
H188	H	0.513629	-0.188757	0.443737
H189	H	0.580748	0.193677	0.000071
H190	H	0.486602	-0.172255	0.000025
H191	H	0.512280	0.016146	0.000056
H192	H	0.769159	0.219337	0.000073
H193	H	0.601692	-0.144738	0.850348
H194	H	0.574207	0.740136	0.000036
H195	H	-0.059867	-0.165717	0.000057
H196	H	0.781929	0.035414	0.442349
C197	C	0.479412	0.447611	-0.051952
C198	C	0.510658	0.466261	0.000003
H199	H	0.443933	0.462958	-0.051965
H200	H	0.472468	0.406977	-0.051945
H201	H	0.500644	0.460260	-0.087181
H202	H	0.489428	0.453609	0.035232
H203	H	0.517601	0.506904	0.000002
H204	H	0.770443	0.111587	0.000094
C205	C	0.599347	-0.211842	0.156087
C206	C	0.590549	-0.155860	0.140721
H207	H	0.572919	-0.238251	0.134500
H208	H	0.593769	-0.217412	0.198515
H209	H	0.637321	-0.217830	0.145659
H210	H	0.552577	-0.149871	0.151154
H211	H	0.596123	-0.150288	0.098284
H212	H	0.562708	-0.183658	0.557755
H213	H	0.601676	-0.144737	0.734966
C214	C	0.745299	0.063581	0.844022
C215	C	0.754105	0.007603	0.859396
H216	H	0.771730	0.089996	0.865601
H217	H	0.707331	0.069567	0.854450
H218	H	0.750875	0.069145	0.801588
H219	H	0.748524	0.002038	0.901829
H220	H	0.792082	0.001615	0.848972
H221	H	0.526850	0.352066	0.000013
H222	H	0.742971	-0.003534	0.149765
H223	H	0.098544	-0.219617	0.000048
H224	H	0.819097	0.391900	0.000074
