data_functionalizedCrystal
_audit_creation_method	'MofGen! by Chris Wilmer'
_symmetry_space_group_name_H-M	'P1'
_symmetry_Int_Tables_number	1
_symmetry_cell_setting	triclinic
loop_
_symmetry_equiv_pos_as_xyz
  x,y,z
_cell_length_a	12.759399
_cell_length_b	12.827893
_cell_length_c	12.827885
_cell_angle_alpha	90.016318
_cell_angle_beta	90.029138
_cell_angle_gamma	90.018219
loop_
_atom_site_label
_atom_site_type_symbol
_atom_site_fract_x
_atom_site_fract_y
_atom_site_fract_z
Zn1	Zn	-0.418137	1.597669	0.590771
Zn2	Zn	-0.593853	1.597563	0.416033
Zn3	Zn	-0.418197	1.422911	0.416054
Zn4	Zn	-0.593783	1.422896	0.590742
O5	O	-0.505993	1.510260	0.503400
O6	O	-0.441451	1.743891	0.567595
O7	O	-0.570606	1.574357	0.269800
O8	O	-0.271168	1.446143	0.439251
O9	O	-0.570548	1.743813	0.439216
O10	O	-0.271124	1.574538	0.567615
O11	O	-0.441552	1.446041	0.269815
O12	O	-0.441485	1.276673	0.439223
O13	O	-0.570430	1.446118	0.736982
O14	O	-0.570487	1.276662	0.567566
O15	O	-0.441383	1.574523	0.737003
O16	O	-0.740865	1.574343	0.439188
O17	O	-0.740814	1.446015	0.567546
C18	C	-0.505986	1.238750	0.503394
C19	C	-0.506008	1.122597	0.503416
C20	C	-0.778960	1.510194	0.503385
C21	C	-0.895737	1.510262	0.503413
C22	C	-1.060434	1.443571	0.436556
C23	C	-0.950710	1.443501	0.436537
C24	C	-0.950493	1.577088	0.570319
C25	C	-1.060215	1.577152	0.570342
C26	C	-1.115402	1.376813	0.369669
C27	C	-1.060653	1.309985	0.302764
C28	C	-0.950929	1.309916	0.302745
C29	C	-0.895954	1.376675	0.369631
C30	C	-0.505892	1.510331	0.775970
C31	C	-0.505849	1.510361	0.892124
C32	C	-0.231959	1.510354	0.503438
C33	C	-0.115183	1.510394	0.503455
C34	C	-0.506000	1.782830	0.503407
C35	C	-0.506004	1.898983	0.503409
C36	C	-0.442130	1.950806	0.566930
C37	C	-0.442132	2.070857	0.566934
C38	C	-0.506017	1.510249	0.231890
C39	C	-0.505764	1.510421	0.115738
C40	C	-0.441980	1.573907	0.943919
C41	C	-0.441934	1.573940	1.063969
H42	H	-1.204745	1.376864	0.369674
H43	H	-0.560695	1.943492	0.449036
H44	H	-0.387257	1.628347	1.108512
H45	H	-0.387330	1.628283	0.899386
H46	H	-0.560452	1.456018	1.071202
H47	H	-0.560488	1.455975	0.936657
H48	H	-1.105421	1.255626	0.248314
C49	C	-1.120447	1.650654	0.643927
H50	H	-1.193666	1.641120	0.634368
H51	H	-1.102418	1.720868	0.628695
H52	H	-1.102429	1.635300	0.714127
H53	H	-0.387449	1.906297	0.621313
H54	H	-0.906354	1.255495	0.248276
C55	C	-0.775260	1.376594	0.369614
H56	H	-0.750524	1.327236	0.320190
H57	H	-0.750409	1.358472	0.437031
H58	H	-0.750388	1.444028	0.351587
H59	H	-0.387443	2.115423	0.621312
C60	C	-0.890023	1.650525	0.643877
H61	H	-0.816835	1.640924	0.634274
H62	H	-0.907964	1.635208	0.714083
H63	H	-0.907954	1.720760	0.628636
C64	C	-0.579889	2.062411	0.429942
H65	H	-0.619959	2.110446	0.390088
H66	H	-0.625610	2.019824	0.469945
H67	H	-0.539669	2.019838	0.384447
