data_functionalizedCrystal
_audit_creation_method	'MofGen! by Chris Wilmer'
_symmetry_space_group_name_H-M	'P1'
_symmetry_Int_Tables_number	1
_symmetry_cell_setting	triclinic
loop_
_symmetry_equiv_pos_as_xyz
  x,y,z
_cell_length_a	15.944551
_cell_length_b	14.421503
_cell_length_c	15.944493
_cell_angle_alpha	89.989835
_cell_angle_beta	83.486891
_cell_angle_gamma	90.003141
loop_
_atom_site_label
_atom_site_type_symbol
_atom_site_fract_x
_atom_site_fract_y
_atom_site_fract_z
O1	O	1.114507	0.077003	0.108323
O2	O	1.447840	0.410336	0.441657
O3	O	1.781173	0.743669	0.774990
O4	O	0.869954	0.077024	0.121680
O5	O	1.203288	0.410358	0.455013
O6	O	1.536621	0.743691	0.788347
O7	O	0.998934	0.077021	-0.007276
O8	O	1.332267	0.410354	0.326057
O9	O	1.665601	0.743687	0.659390
O10	O	0.985527	0.077006	0.237280
O11	O	1.318860	0.410340	0.570613
O12	O	1.652194	0.743673	0.903947
O13	O	0.998913	-0.077203	-0.007257
O14	O	1.332246	0.256131	0.326076
O15	O	1.665579	0.589464	0.659409
O16	O	0.869933	-0.077199	0.121699
O17	O	1.203266	0.256134	0.455033
O18	O	1.536600	0.589467	0.788366
O19	O	1.114485	-0.077221	0.108343
O20	O	1.447819	0.256113	0.441676
O21	O	1.781152	0.589446	0.775009
Cu22	Cu	0.992207	-0.091292	0.115023
Cu23	Cu	1.325541	0.242042	0.448356
Cu24	Cu	1.658874	0.575375	0.781689
Cu25	Cu	0.992232	0.091095	0.115000
Cu26	Cu	1.325566	0.424429	0.448333
Cu27	Cu	1.658899	0.757762	0.781667
O28	O	0.985506	-0.077217	0.237299
O29	O	1.318839	0.256116	0.570632
O30	O	1.652172	0.589450	0.903966
C31	C	0.838650	-0.000084	0.121135
C32	C	1.171983	0.333249	0.454468
C33	C	1.505316	0.666582	0.787802
C34	C	0.745404	-0.000076	0.119473
C35	C	1.078737	0.333258	0.452806
C36	C	1.412071	0.666591	0.786139
N37	N	0.992196	-0.219573	0.115038
N38	N	1.325529	0.113760	0.448371
N39	N	1.658862	0.447094	0.781705
C40	C	0.530565	-0.000089	0.035566
C41	C	0.863898	0.333245	0.368899
C42	C	1.197231	0.666578	0.702233
C43	C	0.469547	0.075949	0.074520
C44	C	0.802881	0.409283	0.407853
C45	C	1.136214	0.742616	0.741187
C46	C	0.574679	-0.000086	0.116465
C47	C	0.908012	0.333247	0.449799
C48	C	1.241346	0.666580	0.783132
C49	C	0.469548	-0.076103	0.074558
C50	C	0.802882	0.257230	0.407892
C51	C	1.136215	0.590564	0.741225
C52	C	0.409767	-0.000101	0.113555
C53	C	0.743100	0.333232	0.446888
C54	C	1.076433	0.666566	0.780221
C55	C	0.514889	0.076014	0.155442
C56	C	0.848223	0.409348	0.488775
C57	C	1.181556	0.742681	0.822108
C58	C	0.514897	-0.076106	0.155468
C59	C	0.848230	0.257227	0.488802
C60	C	1.181564	0.590561	0.822135
C61	C	0.453897	-0.000050	0.194481
C62	C	0.787230	0.333284	0.527814
C63	C	1.120563	0.666617	0.861148
C64	C	0.669681	-0.000077	0.118140
C65	C	1.003014	0.333256	0.451473
C66	C	1.336347	0.666589	0.784807
C67	C	0.314766	-0.000103	0.111886
C68	C	0.648099	0.333230	0.445220
C69	C	0.981433	0.666563	0.778553
C70	C	0.932545	-0.469225	0.174641
C71	C	1.265878	-0.135892	0.507974
C72	C	1.599211	0.197442	0.841307
C73	C	1.008441	-0.531036	0.190949
C74	C	1.341775	-0.197702	0.524282
C75	C	1.675108	0.135631	0.857615
C76	C	0.992216	-0.408734	0.115018
C77	C	1.325549	-0.075401	0.448351
C78	C	1.658883	0.257932	0.781685
C79	C	0.916339	-0.531018	0.098730
C80	C	1.249672	-0.197684	0.432063
C81	C	1.583006	0.135649	0.765397
C82	C	0.992229	-0.591456	0.115001
C83	C	1.325562	-0.258123	0.448334
C84	C	1.658896	0.075211	0.781667
C85	C	1.068151	-0.469184	0.131364
C86	C	1.401484	-0.135851	0.464697
C87	C	1.734818	0.197482	0.798030
C88	C	0.975998	-0.469161	0.039112
C89	C	1.309332	-0.135827	0.372445
C90	C	1.642665	0.197506	0.705779
C91	C	1.051950	-0.530944	0.055388
C92	C	1.385283	-0.197610	0.388721
C93	C	1.718617	0.135723	0.722054
C94	C	0.992207	-0.303473	0.115030
C95	C	1.325541	0.029860	0.448364
C96	C	1.658874	0.363193	0.781697
C97	C	0.992246	-0.696715	0.114988
C98	C	1.325580	-0.363381	0.448321
C99	C	1.658913	-0.030048	0.781654
C100	C	1.145790	-0.000110	0.108888
C101	C	1.479123	0.333223	0.442221
C102	C	1.812457	0.666557	0.775554
C103	C	1.239036	-0.000113	0.110550
C104	C	1.572369	0.333221	0.443883
C105	C	1.905702	0.666554	0.777217
C106	C	0.998375	-0.000087	-0.038562
C107	C	1.331709	0.333246	0.294772
C108	C	1.665042	0.666580	0.628105
C109	C	0.996733	-0.000075	-0.131810
C110	C	1.330066	0.333258	0.201523
C111	C	1.663399	0.666591	0.534856
N112	N	0.992251	0.219377	0.114978
N113	N	1.325584	0.552710	0.448311
N114	N	1.658917	0.886043	0.781645
C115	C	1.072653	-0.000099	-0.367570
C116	C	1.405986	0.333234	-0.034237
C117	C	1.739320	0.666567	0.299097
C118	C	1.031722	0.075944	-0.418148
C119	C	1.365056	0.409277	-0.084814
C120	C	1.698389	0.742611	0.248519
C121	C	0.993688	-0.000086	-0.302531
C122	C	1.327022	0.333247	0.030802
C123	C	1.660355	0.666580	0.364135
C124	C	1.031683	-0.076108	-0.418105
C125	C	1.365016	0.257225	-0.084771
C126	C	1.698350	0.590558	0.248562
C127	C	0.990754	-0.000101	-0.467441
C128	C	1.324087	0.333232	-0.134108
C129	C	1.657421	0.666566	0.199226
C130	C	0.952779	0.076020	-0.351881
C131	C	1.286113	0.409353	-0.018547
C132	C	1.619446	0.742687	0.314786
C133	C	0.952751	-0.076101	-0.351834
C134	C	1.286085	0.257233	-0.018501
C135	C	1.619418	0.590566	0.314832
C136	C	0.911763	-0.000039	-0.402379
C137	C	1.245096	0.333295	-0.069046
C138	C	1.578430	0.666628	0.264288
C139	C	0.995381	-0.000077	-0.207531
C140	C	1.328715	0.333256	0.125802
C141	C	1.662048	0.666590	0.459135
C142	C	0.989055	-0.000104	-0.562438
C143	C	1.322388	0.333230	-0.229105
C144	C	1.655722	0.666563	0.104229
C145	C	0.986064	-0.000107	0.268584
C146	C	1.319398	0.333226	0.601918
C147	C	1.652731	0.666559	0.935251
C148	C	0.987707	-0.000113	0.361833
C149	C	1.321040	0.333220	0.695166
C150	C	1.654374	0.666553	1.028500
H151	H	0.563912	0.000009	-0.031574
H152	H	0.897245	0.333343	0.301760
H153	H	1.230578	0.666676	0.635093
H154	H	0.534879	0.140369	0.189625
H155	H	0.868212	0.473702	0.522958
H156	H	1.201545	0.807035	0.856292
H157	H	0.919423	-0.140387	-0.322866
H158	H	1.252757	0.192946	0.010468
H159	H	1.586090	0.526280	0.343801
H160	H	0.449453	0.140238	0.040295
H161	H	0.782786	0.473571	0.373628
H162	H	1.116120	0.806905	0.706962
H163	H	0.420724	-0.000011	0.261690
H164	H	0.754058	0.333322	0.595023
H165	H	1.087391	0.666656	0.928357
H166	H	1.065038	-0.140393	-0.447028
H167	H	1.398372	0.192941	-0.113695
H168	H	1.731705	0.526274	0.219639
H169	H	1.140671	-0.000029	-0.351942
H170	H	1.474004	0.333304	-0.018608
H171	H	1.807338	0.666638	0.314725
H172	H	0.449460	-0.140385	0.040334
H173	H	0.782794	0.192949	0.373667
H174	H	1.116127	0.526282	0.707001
H175	H	0.535012	-0.140398	0.189665
H176	H	0.868345	0.192935	0.522998
H177	H	1.201679	0.526269	0.856332
H178	H	0.962246	-0.441962	-0.025052
H179	H	1.295579	-0.108628	0.308282
H180	H	1.628912	0.224705	0.641615
H181	H	0.919459	0.140377	-0.323069
H182	H	1.252793	0.473710	0.010265
H183	H	1.586126	0.807044	0.343598
H184	H	0.882134	-0.442126	0.225102
H185	H	1.215467	-0.108792	0.558436
H186	H	1.548801	0.224541	0.891769
H187	H	0.852166	-0.558181	0.084961
H188	H	1.185499	-0.224848	0.418295
H189	H	1.518832	0.108486	0.751628
H190	H	0.843692	0.000009	-0.417845
H191	H	1.177025	0.333342	-0.084512
H192	H	1.510359	0.666676	0.248822
H193	H	1.022171	-0.558213	0.255133
H194	H	1.355504	-0.224880	0.588466
H195	H	1.688837	0.108453	0.921800
H196	H	1.132338	-0.442138	0.145209
H197	H	1.465672	-0.108804	0.478543
H198	H	1.799005	0.224529	0.811876
H199	H	1.102473	-0.557873	0.004956
H200	H	1.435806	-0.224540	0.338289
H201	H	1.769139	0.108794	0.671623
H202	H	1.065079	0.140228	-0.447101
H203	H	1.398413	0.473561	-0.113768
H204	H	1.731746	0.806894	0.219565
