data_functionalizedCrystal
_audit_creation_method	'MofGen! by Chris Wilmer'
_symmetry_space_group_name_H-M	'P1'
_symmetry_Int_Tables_number	1
_symmetry_cell_setting	triclinic
loop_
_symmetry_equiv_pos_as_xyz
  x,y,z
_cell_length_a	10.685976
_cell_length_b	14.909042
_cell_length_c	10.685880
_cell_angle_alpha	90.794215
_cell_angle_beta	90.317159
_cell_angle_gamma	82.626747
loop_
_atom_site_label
_atom_site_type_symbol
_atom_site_fract_x
_atom_site_fract_y
_atom_site_fract_z
Zn1	Zn	2.009001	-0.497508	-0.518904
Zn2	Zn	2.509001	0.002492	-0.018904
Zn3	Zn	2.003030	-0.635919	-0.297202
Zn4	Zn	2.503030	-0.135919	0.202798
Zn5	Zn	1.781444	-0.474598	-0.327263
Zn6	Zn	2.281444	0.025402	0.172737
Zn7	Zn	1.809581	-0.637624	-0.522876
Zn8	Zn	2.309581	-0.137624	-0.022876
O9	O	1.900764	-0.561412	-0.416561
O10	O	2.400764	-0.061412	0.083439
O11	O	2.184401	-0.524743	-0.475252
O12	O	2.684401	-0.024743	0.024748
O13	O	1.959361	-0.604218	-0.126542
O14	O	2.459361	-0.104218	0.373458
O15	O	1.802353	-0.351484	-0.363603
O16	O	2.302353	0.148516	0.136397
O17	O	2.180014	-0.626433	-0.312369
O18	O	2.680014	-0.126433	0.187631
O19	O	1.969538	-0.368316	-0.504401
O20	O	2.469538	0.131684	-0.004401
O21	O	1.796563	-0.485696	-0.148627
O22	O	2.296563	0.014304	0.351373
O23	O	1.608984	-0.487349	-0.367454
O24	O	2.108984	0.012651	0.132546
O25	O	1.850309	-0.629339	-0.696997
O26	O	2.350309	-0.129339	-0.196997
O27	O	1.629657	-0.607124	-0.511171
O28	O	2.129657	-0.107124	-0.011171
O29	O	1.996822	-0.526396	-0.694079
O30	O	2.496822	-0.026396	-0.194079
O31	O	1.986645	-0.762298	-0.316220
O32	O	2.486645	-0.262298	0.183780
O33	O	1.844520	-0.763550	-0.482022
O34	O	2.344520	-0.263550	0.017978
C35	C	1.573636	-0.544936	-0.443006
C36	C	2.073636	-0.044936	0.056994
C37	C	1.433693	-0.537911	-0.454347
C38	C	1.933693	-0.037911	0.045653
C39	C	1.918024	-0.795637	-0.396315
C40	C	2.418024	-0.295637	0.103685
C41	C	1.925527	-0.895848	-0.387686
C42	C	2.425527	-0.395848	0.112314
C43	C	1.791463	-1.085508	-0.543994
C44	C	2.291463	-0.585508	-0.043994
C45	C	1.798509	-1.179665	-0.535891
C46	C	2.298509	-0.679665	-0.035891
C47	C	1.946656	-1.178320	-0.363371
C48	C	2.446656	-0.678320	0.136629
C49	C	1.939611	-1.084163	-0.371474
C50	C	2.439611	-0.584163	0.128526
C51	C	1.862013	-1.037761	-0.461790
C52	C	2.362013	-0.537761	0.038210
C53	C	1.854975	-0.943602	-0.469898
C54	C	2.354975	-0.443602	0.030102
C55	C	2.003115	-0.942259	-0.297373
C56	C	2.503115	-0.442259	0.202627
C57	C	2.010160	-1.036416	-0.289270
C58	C	2.510160	-0.536416	0.210730
C59	C	2.229170	-0.577953	-0.390014
C60	C	2.729170	-0.077953	0.109986
C61	C	2.369116	-0.585002	-0.378701
C62	C	2.869116	-0.085002	0.121299
C63	C	1.927370	-0.580613	-0.742089
C64	C	2.427370	-0.080613	-0.242089
C65	C	1.938708	-0.588796	-0.880809
C66	C	2.438708	-0.088796	-0.380809
C67	C	1.883473	-0.326276	-0.436912
C68	C	2.383473	0.173724	0.063088
C69	C	1.876104	-0.226075	-0.445584
C70	C	2.376104	0.273925	0.054416
C71	C	1.874329	-0.542224	-0.092300
C72	C	2.374329	-0.042224	0.407700
C73	C	1.863216	-0.533800	0.046417
C74	C	2.363216	-0.033800	0.546417
H75	H	1.420897	-0.630703	-0.305260
H76	H	1.920897	-0.130703	0.194740
H77	H	1.791795	-0.905823	-0.543441
H78	H	2.291795	-0.405823	-0.043441
H79	H	2.060565	-0.903373	-0.230440
H80	H	2.560565	-0.403373	0.269560
C81	C	1.706126	-1.034464	-0.643345
C82	C	2.206126	-0.534464	-0.143345
H83	H	1.665117	-1.076387	-0.691144
H84	H	2.165117	-0.576387	-0.191144
H85	H	1.755948	-1.003320	-0.697032
H86	H	2.255948	-0.503320	-0.197032
H87	H	1.644647	-0.992201	-0.603147
H88	H	2.144647	-0.492201	-0.103147
C89	C	1.720912	-1.232185	-0.626321
C90	C	2.220912	-0.732185	-0.126321
H91	H	1.673699	-1.191061	-0.681273
H92	H	2.173699	-0.691061	-0.181273
H93	H	1.664941	-1.263389	-0.579803
H94	H	2.164941	-0.763389	-0.079803
H95	H	1.776233	-1.274499	-0.673700
H96	H	2.276233	-0.774499	-0.173700
C97	C	2.032018	-1.229375	-0.264048
C98	C	2.532018	-0.729375	0.235952
H99	H	2.026115	-1.292290	-0.271007
H100	H	2.526115	-0.792290	0.228993
H101	H	2.005679	-1.208116	-0.182977
H102	H	2.505679	-0.708116	0.317023
H103	H	2.116942	-1.219228	-0.276906
H104	H	2.616942	-0.719228	0.223094
H105	H	2.073334	-1.074210	-0.215735
H106	H	2.573334	-0.574210	0.284265
C107	C	1.764175	-0.461734	-0.894395
C108	C	2.264175	0.038266	-0.394395
H109	H	1.769291	-0.465498	-0.805797
H110	H	2.269291	0.034502	-0.305797
H111	H	1.682271	-0.471905	-0.921401
H112	H	2.182271	0.028095	-0.421401
H113	H	1.779882	-0.403331	-0.919450
H114	H	2.279882	0.096669	-0.419450
C115	C	2.037758	-0.660863	-0.940002
C116	C	2.537758	-0.160863	-0.440002
H117	H	2.032657	-0.657092	-1.028599
H118	H	2.532657	-0.157092	-0.528599
H119	H	2.022069	-0.719264	-0.914943
H120	H	2.522069	-0.219264	-0.414943
H121	H	2.119665	-0.650679	-0.912995
H122	H	2.619665	-0.150679	-0.412995
H123	H	1.381920	-0.492222	-0.527794
H124	H	1.881920	0.007778	-0.027794
