data_functionalizedCrystal
_audit_creation_method	'MofGen! by Chris Wilmer'
_symmetry_space_group_name_H-M	'P1'
_symmetry_Int_Tables_number	1
_symmetry_cell_setting	triclinic
loop_
_symmetry_equiv_pos_as_xyz
  x,y,z
_cell_length_a	11.169417
_cell_length_b	25.639239
_cell_length_c	11.169409
_cell_angle_alpha	90.039223
_cell_angle_beta	90.020564
_cell_angle_gamma	90.039565
loop_
_atom_site_label
_atom_site_type_symbol
_atom_site_fract_x
_atom_site_fract_y
_atom_site_fract_z
Zn1	Zn	1.834735	-0.208097	0.678485
Zn2	Zn	1.834522	-0.295547	0.477777
Zn3	Zn	1.634018	-0.208128	0.477819
Zn4	Zn	1.633929	-0.295504	0.678422
O5	O	1.734301	-0.251819	0.578126
O6	O	2.002656	-0.219701	0.651869
O7	O	1.807873	-0.283981	0.309833
O8	O	1.660770	-0.134959	0.504482
O9	O	2.002500	-0.283951	0.504410
O10	O	1.808235	-0.134935	0.651910
O11	O	1.660564	-0.219756	0.309864
O12	O	1.466056	-0.219714	0.504421
O13	O	1.660618	-0.283878	0.846380
O14	O	1.465991	-0.283909	0.651803
O15	O	1.808149	-0.219660	0.846426
O16	O	1.807787	-0.368706	0.504350
O17	O	1.660412	-0.368675	0.651763
C18	C	1.422476	-0.251811	0.578110
C19	C	1.289076	-0.251820	0.578132
C20	C	1.734099	-0.387661	0.578071
C21	C	1.734123	-0.445775	0.578088
C22	C	1.811239	-0.806142	0.501499
C23	C	1.811286	-0.860746	0.501515
O24	O	1.876644	-0.888986	0.436336
N25	N	1.734512	-0.888058	0.578205
C26	C	1.657695	-0.860762	0.654894
O27	O	1.592398	-0.889007	0.720127
C28	C	1.657655	-0.806159	0.654883
C29	C	1.734426	-0.778850	0.578178
C30	C	1.888005	-0.778834	0.424802
C31	C	1.887956	-0.724233	0.424784
C32	C	1.811143	-0.696941	0.501464
C33	C	1.734377	-0.724250	0.578161
C34	C	1.580845	-0.778864	0.731576
C35	C	1.580813	-0.724257	0.731559
C36	C	1.657583	-0.696949	0.654855
C37	C	1.657515	-0.642357	0.654823
N38	N	1.734289	-0.615046	0.578133
C39	C	1.811103	-0.642338	0.501453
C40	C	1.657785	-0.975433	0.654912
C41	C	1.657818	-1.030035	0.654918
C42	C	1.811411	-1.030016	0.501540
C43	C	1.811371	-0.975412	0.501529
C44	C	1.734559	-0.948121	0.578221
C45	C	1.810995	-0.527673	0.501422
C46	C	1.810936	-0.473067	0.501408
C47	C	1.657348	-0.473092	0.654789
C48	C	1.657402	-0.527692	0.654799
C49	C	1.734235	-0.554981	0.578112
O50	O	1.592194	-0.614083	0.719973
O51	O	1.876400	-0.614087	0.436242
C52	C	2.047343	-0.251827	0.578142
C53	C	2.180743	-0.251831	0.578149
C54	C	1.734397	-0.251761	0.891168
C55	C	1.734438	-0.251736	1.024569
C56	C	1.734536	-0.115446	0.578207
C57	C	1.734637	-0.057332	0.578242
C58	C	1.734274	-0.251839	0.266301
C59	C	1.734466	-0.251716	0.132902
H60	H	1.873452	-0.450834	0.438942
H61	H	1.950562	-0.801049	0.362360
C62	C	1.895500	-0.557683	0.417059
H63	H	1.941197	-0.533593	0.371376
H64	H	1.947797	-0.578945	0.463005
H65	H	1.849624	-0.579021	0.364725
H66	H	1.950473	-0.702001	0.362329
H67	H	1.595292	-1.052265	0.717367
C68	C	1.895827	-0.945378	0.417165
H69	H	1.941581	-0.969457	0.371508
H70	H	1.849937	-0.924112	0.364826
H71	H	1.948092	-0.924042	0.463124
H72	H	1.594804	-0.450862	0.717218
H73	H	1.873961	-1.052247	0.439107
H74	H	1.595226	-0.953215	0.717360
H75	H	1.518325	-0.801089	0.794031
H76	H	1.518265	-0.702039	0.794015
C77	C	1.572956	-0.557733	0.739169
H78	H	1.527207	-0.533656	0.784838
H79	H	1.520704	-0.579079	0.693232
H80	H	1.618874	-0.578988	0.791516
