data_functionalizedCrystal
_audit_creation_method	'MofGen! by Chris Wilmer'
_symmetry_space_group_name_H-M	'P1'
_symmetry_Int_Tables_number	1
_symmetry_cell_setting	triclinic
loop_
_symmetry_equiv_pos_as_xyz
  x,y,z
_cell_length_a	17.019284
_cell_length_b	16.109301
_cell_length_c	14.586319
_cell_angle_alpha	89.999213
_cell_angle_beta	86.121193
_cell_angle_gamma	96.574324
loop_
_atom_site_label
_atom_site_type_symbol
_atom_site_fract_x
_atom_site_fract_y
_atom_site_fract_z
O1	O	-0.101395	1.103035	-0.068172
O2	O	0.398605	1.603035	0.431828
O3	O	-0.114013	0.860961	-0.067189
O4	O	0.385987	1.360961	0.432811
O5	O	0.007130	0.988756	-0.076747
O6	O	0.507130	1.488756	0.423253
O7	O	-0.222539	0.975240	-0.058614
O8	O	0.277461	1.475240	0.441386
O9	O	0.007132	0.988747	0.075734
O10	O	0.507132	1.488747	0.575734
O11	O	-0.114011	0.860952	0.085292
O12	O	0.385989	1.360952	0.585292
O13	O	-0.101393	1.103026	0.084309
O14	O	0.398607	1.603026	0.584309
Cu15	Cu	-0.107702	0.981988	0.098723
Cu16	Cu	0.392298	1.481988	0.598723
Cu17	Cu	-0.107704	0.981999	-0.081603
Cu18	Cu	0.392296	1.481999	0.418397
O19	O	-0.222537	0.975231	0.093867
O20	O	0.277463	1.475231	0.593867
C21	C	-0.113501	0.829982	0.009009
C22	C	0.386499	1.329982	0.509009
C23	C	-0.111969	0.737688	0.008882
C24	C	0.388031	1.237688	0.508882
C25	C	-0.180290	0.515351	0.014287
C26	C	0.319710	1.015351	0.514287
C27	C	-0.178844	0.428632	0.014179
C28	C	0.321156	0.928632	0.514179
C29	C	-0.035111	0.448643	0.002827
C30	C	0.464889	0.948643	0.502827
C31	C	-0.036558	0.535360	0.002942
C32	C	0.463442	1.035360	0.502942
C33	C	-0.109150	0.568712	0.008668
C34	C	0.390850	1.068712	0.508668
C35	C	-0.106257	0.395275	0.008444
C36	C	0.393743	0.895275	0.508444
C37	C	-0.104688	0.301251	0.008327
C38	C	0.395312	0.801251	0.508327
C39	C	-0.110718	0.662742	0.008787
C40	C	0.389282	1.162742	0.508787
C41	C	-0.251927	0.975746	0.019947
C42	C	0.248073	1.475746	0.519947
C43	C	-0.339497	0.977279	0.026860
C44	C	0.160503	1.477279	0.526860
C45	C	-0.380635	0.978004	-0.053009
C46	C	0.119365	1.478004	0.446991
C47	C	-0.462915	0.979455	-0.046513
C48	C	0.037085	1.479455	0.453487
C49	C	-0.504056	0.980174	0.039854
C50	C	-0.004056	1.480174	0.539854
C51	C	-0.462911	0.979451	0.119730
C52	C	0.037089	1.479451	0.619730
C53	C	-0.380632	0.978006	0.113232
C54	C	0.119368	1.478006	0.613232
C55	C	-0.752486	0.984541	0.063630
C56	C	-0.252486	1.484541	0.563630
C57	C	-0.834771	0.985983	0.070121
C58	C	-0.334771	1.485983	0.570121
C59	C	-0.834769	0.985988	-0.096122
C60	C	-0.334769	1.485988	0.403878
C61	C	-0.752489	0.984539	-0.102612
C62	C	-0.252489	1.484539	0.397388
C63	C	-0.711351	0.983820	-0.022736
C64	C	-0.211351	1.483820	0.477264
C65	C	-0.588160	0.981654	0.046496
C66	C	-0.088160	1.481654	0.546496
C67	C	-0.627248	0.982346	-0.029380
C68	C	-0.127248	1.482346	0.470620
C69	C	0.036520	0.988241	-0.002829
C70	C	0.536520	1.488241	0.497171
C71	C	0.124090	0.986708	-0.009749
C72	C	0.624090	1.486708	0.490251
C73	C	-0.101905	1.134005	0.008109
C74	C	0.398095	1.634005	0.508109
C75	C	-0.103437	1.226299	0.008229
C76	C	0.396563	1.726299	0.508229
N77	N	-0.107700	0.981987	0.225555
N78	N	0.392300	1.481987	0.725555
N79	N	-0.107700	0.982007	-0.208435
N80	N	0.392300	1.482007	0.291565
C81	C	-0.054076	1.038593	0.456330
C82	C	0.445924	1.538593	0.956330
C83	C	-0.054074	1.038596	0.552312
C84	C	0.445926	1.538596	1.052312
C85	C	-0.161327	0.925394	0.560783
C86	C	0.338673	1.425394	1.060783
C87	C	-0.161324	0.925389	0.464803
C88	C	0.338676	1.425389	0.964803
C89	C	-0.107700	0.981993	0.412579
C90	C	0.392300	1.481993	0.912579
C91	C	-0.107700	0.982001	0.604540
C92	C	0.392300	1.482001	1.104540
C93	C	-0.107699	0.982003	0.708607
C94	C	0.392301	1.482003	1.208607
C95	C	-0.107700	0.981990	0.308506
C96	C	0.392300	1.481990	0.808506
H97	H	0.021377	0.578809	-0.001632
H98	H	0.521377	1.078809	0.498368
H99	H	-0.236774	0.385189	0.018757
H100	H	0.263226	0.885189	0.518757
O101	O	-0.340652	0.977153	-0.136881
O102	O	0.159348	1.477153	0.363119
C103	C	-0.302001	0.904355	-0.144892
C104	C	0.197999	1.404355	0.355108
H105	H	-0.333061	0.854487	-0.095275
H106	H	0.166939	1.354487	0.404725
H107	H	-0.304068	0.880181	-0.218244
H108	H	0.195932	1.380181	0.281756
H109	H	-0.237620	0.919529	-0.127636
H110	H	0.262380	1.419529	0.372364
H111	H	-0.239399	0.542503	0.018956
H112	H	0.260601	1.042503	0.518956
H113	H	-0.010410	1.084683	0.413812
H114	H	0.489590	1.584683	0.913812
O115	O	0.035332	0.416104	-0.002777
O116	O	0.535332	0.916104	0.497223
C117	C	0.021357	0.328123	-0.001653
C118	C	0.521357	0.828123	0.498347
H119	H	-0.040209	0.307681	-0.025658
H120	H	0.459791	0.807681	0.474342
H121	H	0.067801	0.301557	-0.049592
H122	H	0.567801	0.801557	0.450408
H123	H	0.025177	0.303986	0.071197
H124	H	0.525177	0.803986	0.571197
O125	O	-0.502940	0.979936	-0.124069
O126	O	-0.002940	1.479936	0.375931
C127	C	-0.559412	0.908731	-0.124520
C128	C	-0.059412	1.408731	0.375480
H129	H	-0.574761	0.885058	-0.051111
H130	H	-0.074761	1.385058	0.448889
H131	H	-0.615251	0.925816	-0.155402
H132	H	-0.115251	1.425816	0.344598
H133	H	-0.533890	0.857743	-0.167411
H134	H	-0.033890	1.357743	0.332589
H135	H	-0.718997	0.983959	-0.172941
H136	H	-0.218997	1.483959	0.327059
H137	H	-0.204992	0.879294	0.429179
H138	H	0.295008	1.379294	0.929179
H139	H	-0.204988	0.879310	0.603312
H140	H	0.295012	1.379310	1.103312
O141	O	-0.874829	0.986579	-0.173644
O142	O	-0.374829	1.486579	0.326356
C143	C	-0.931362	0.915432	-0.174170
C144	C	-0.431362	1.415432	0.325830
H145	H	-0.946678	0.891652	-0.100795
H146	H	-0.446678	1.391652	0.399205
H147	H	-0.987206	0.932633	-0.204946
H148	H	-0.487206	1.432633	0.295054
H149	H	-0.905920	0.864480	-0.217195
H150	H	-0.405920	1.364480	0.282805
O151	O	-0.502932	0.979998	0.203605
O152	O	-0.002932	1.479998	0.703605
C153	C	-0.559491	0.908870	0.213019
C154	C	-0.059491	1.408870	0.713019
H155	H	-0.540947	0.858138	0.164384
H156	H	-0.040947	1.358138	0.664384
H157	H	-0.563437	0.884720	0.286843
H158	H	-0.063437	1.384720	0.786843
H159	H	-0.619824	0.926234	0.195445
H160	H	-0.119824	1.426234	0.695445
H161	H	-0.010407	1.084684	0.587931
H162	H	0.489593	1.584684	1.087931
O163	O	-0.874676	0.986552	0.154070
O164	O	-0.374676	1.486552	0.654070
C165	C	-0.863538	0.914208	0.203730
C166	C	-0.363538	1.414208	0.703730
H167	H	-0.806770	0.889188	0.175627
H168	H	-0.306770	1.389188	0.675627
H169	H	-0.858734	0.930325	0.279397
H170	H	-0.358734	1.430325	0.779397
H171	H	-0.916104	0.864615	0.196324
H172	H	-0.416104	1.364615	0.696324
O173	O	-0.712468	0.983951	0.141180
O174	O	-0.212468	1.483951	0.641180
C175	C	-0.655888	1.055059	0.141708
C176	C	-0.155888	1.555059	0.641708
H177	H	-0.674418	1.105830	0.096043
H178	H	-0.174418	1.605830	0.596043
H179	H	-0.651929	1.079160	0.214926
H180	H	-0.151929	1.579160	0.714926
H181	H	-0.595565	1.037687	0.114585
H182	H	-0.095565	1.537687	0.614585
H183	H	-0.347138	0.977415	0.178271
H184	H	0.152862	1.477415	0.678271
O185	O	-0.587313	0.981781	-0.113300
O186	O	-0.087313	1.481781	0.386700
C187	C	-0.598475	1.054085	-0.163016
C188	C	-0.098475	1.554085	0.336984
H189	H	-0.614823	1.104801	-0.113106
H190	H	-0.114823	1.604801	0.386894
H191	H	-0.541360	1.077276	-0.205239
H192	H	-0.041360	1.577276	0.294761
H193	H	-0.648265	1.038646	-0.210906
H194	H	-0.148265	1.538646	0.289094
O195	O	-0.628188	0.982193	0.130368
O196	O	-0.128188	1.482193	0.630368
C197	C	-0.684751	0.911066	0.139766
C198	C	-0.184751	1.411066	0.639766
H199	H	-0.666202	0.860337	0.091130
H200	H	-0.166202	1.360337	0.591130
H201	H	-0.688709	0.886911	0.213588
H202	H	-0.188709	1.386911	0.713588
H203	H	-0.745079	0.928435	0.122180
H204	H	-0.245079	1.428435	0.622180
