data_functionalizedCrystal
_audit_creation_method	'MofGen! by Chris Wilmer'
_symmetry_space_group_name_H-M	'P1'
_symmetry_Int_Tables_number	1
_symmetry_cell_setting	triclinic
loop_
_symmetry_equiv_pos_as_xyz
  x,y,z
_cell_length_a	10.654545
_cell_length_b	17.699083
_cell_length_c	9.730223
_cell_angle_alpha	89.994713
_cell_angle_beta	89.997167
_cell_angle_gamma	83.883047
loop_
_atom_site_label
_atom_site_type_symbol
_atom_site_fract_x
_atom_site_fract_y
_atom_site_fract_z
O1	O	1.665982	0.106286	-0.114279
O2	O	1.300325	0.116418	-0.114285
O3	O	1.493484	0.001228	-0.114270
O4	O	1.472823	0.221476	-0.114295
O5	O	1.493472	0.001225	0.114310
O6	O	1.300313	0.116414	0.114295
O7	O	1.665970	0.106283	0.114301
Zn8	Zn	1.483139	0.111348	0.150590
Zn9	Zn	1.483156	0.111352	-0.150574
O10	O	1.472811	0.221472	0.114285
C11	C	1.253534	0.115673	0.000004
C12	C	1.114130	0.113449	0.000002
C13	C	1.048637	0.112401	0.124602
C14	C	0.917654	0.110299	0.124602
C15	C	0.917668	0.110298	-0.124608
C16	C	1.048649	0.112394	-0.124607
C17	C	1.492738	-0.026975	0.000020
C18	C	1.490517	-0.111007	0.000021
C19	C	1.603897	-0.158908	0.000024
C20	C	1.601803	-0.237865	0.000012
C21	C	1.486327	-0.268919	0.000006
C22	C	1.372938	-0.221011	-0.000002
C23	C	1.375033	-0.142056	0.000001
C24	C	1.364484	-0.539428	-0.000013
C25	C	1.362397	-0.618389	-0.000011
C26	C	1.591253	-0.635237	-0.000001
C27	C	1.593348	-0.556282	0.000001
C28	C	1.479960	-0.508381	-0.000014
C29	C	1.482233	-0.422768	-0.000004
C30	C	1.484053	-0.354531	0.000005
C31	C	1.712761	0.107028	0.000008
C32	C	1.852165	0.109251	0.000001
C33	C	1.473557	0.249676	-0.000008
C34	C	1.475778	0.333708	-0.000017
N35	N	1.483137	0.111345	0.356126
N36	N	1.483167	0.111350	-0.356111
C37	C	1.568697	0.060361	0.428059
C38	C	1.568709	0.060361	0.571942
C39	C	1.397599	0.162336	0.571947
C40	C	1.397581	0.162332	0.428066
H41	H	0.864335	0.109446	0.226064
H42	H	1.282707	-0.103055	-0.000003
H43	H	1.327943	0.203850	0.630535
C44	C	1.720380	-0.522128	0.000008
N45	N	1.816064	-0.496404	0.000007
C46	C	1.235358	-0.652546	-0.000029
N47	N	1.139678	-0.678273	-0.000044
H48	H	1.101947	0.113260	0.226067
C49	C	1.730932	-0.124757	0.000031
N50	N	1.826618	-0.099037	0.000030
H51	H	1.694128	-0.276864	0.000018
H52	H	1.683579	-0.674247	0.000004
H53	H	1.272156	-0.500437	-0.000025
H54	H	1.638360	0.018843	0.369488
C55	C	0.845626	0.109143	-0.261671
N56	N	0.791365	0.108275	-0.364910
C57	C	1.245913	-0.255173	0.000003
N58	N	1.150235	-0.280903	0.000017
C59	C	1.662822	0.004268	0.651061
N60	N	1.733707	-0.037986	0.710653
H61	H	1.327902	0.203849	0.369495
H62	H	1.101976	0.113246	-0.226077
