data_functionalizedCrystal
_audit_creation_method	'MofGen! by Chris Wilmer'
_symmetry_space_group_name_H-M	'P1'
_symmetry_Int_Tables_number	1
_symmetry_cell_setting	triclinic
loop_
_symmetry_equiv_pos_as_xyz
  x,y,z
_cell_length_a	16.109301
_cell_length_b	19.188930
_cell_length_c	15.186229
_cell_angle_alpha	89.991143
_cell_angle_beta	89.999362
_cell_angle_gamma	83.303131
loop_
_atom_site_label
_atom_site_type_symbol
_atom_site_fract_x
_atom_site_fract_y
_atom_site_fract_z
O1	O	1.102833	0.089744	-0.073183
O2	O	1.352833	0.339744	0.176817
O3	O	1.602833	0.589744	0.426817
O4	O	1.852833	0.839744	0.676817
O5	O	0.860734	0.100912	-0.073198
O6	O	1.110734	0.350912	0.176802
O7	O	1.360734	0.600912	0.426802
O8	O	1.610734	0.850912	0.676802
O9	O	0.988770	-0.006311	-0.073173
O10	O	1.238770	0.243689	0.176827
O11	O	1.488770	0.493689	0.426827
O12	O	1.738770	0.743689	0.676827
O13	O	0.974797	0.196967	-0.073208
O14	O	1.224797	0.446967	0.176792
O15	O	1.474797	0.696967	0.426792
O16	O	1.724797	0.946967	0.676792
O17	O	0.988762	-0.006313	0.073284
O18	O	1.238762	0.243687	0.323284
O19	O	1.488762	0.493687	0.573284
O20	O	1.738762	0.743687	0.823284
O21	O	0.860726	0.100911	0.073259
O22	O	1.110726	0.350911	0.323259
O23	O	1.360726	0.600911	0.573259
O24	O	1.610726	0.850911	0.823259
O25	O	1.102825	0.089742	0.073274
O26	O	1.352825	0.339742	0.323274
O27	O	1.602825	0.589742	0.573274
O28	O	1.852825	0.839742	0.823274
Zn29	Zn	0.981774	0.095326	0.096520
Zn30	Zn	1.231774	0.345326	0.346520
Zn31	Zn	1.481774	0.595326	0.596520
Zn32	Zn	1.731774	0.845326	0.846520
Zn33	Zn	0.981785	0.095328	-0.096444
Zn34	Zn	1.231785	0.345328	0.153556
Zn35	Zn	1.481785	0.595328	0.403556
Zn36	Zn	1.731785	0.845328	0.653556
O37	O	0.974789	0.196966	0.073249
O38	O	1.224789	0.446966	0.323249
O39	O	1.474789	0.696966	0.573249
O40	O	1.724789	0.946966	0.823249
C41	C	0.829757	0.100459	0.000029
C42	C	1.079757	0.350459	0.250029
C43	C	1.329757	0.600459	0.500029
C44	C	1.579757	0.850459	0.750029
C45	C	0.737466	0.099103	0.000024
C46	C	0.987466	0.349103	0.250024
C47	C	1.237466	0.599103	0.500024
C48	C	1.487466	0.849103	0.750024
C49	C	0.514993	0.159573	0.000023
C50	C	0.764993	0.409573	0.250023
C51	C	1.014993	0.659573	0.500023
C52	C	1.264993	0.909573	0.750023
C53	C	0.428277	0.158294	0.000029
C54	C	0.678277	0.408294	0.250029
C55	C	0.928277	0.658294	0.500029
C56	C	1.178277	0.908294	0.750029
C57	C	0.448573	0.031076	0.000048
C58	C	0.698573	0.281076	0.250048
C59	C	0.948573	0.531076	0.500048
C60	C	1.198573	0.781076	0.750048
C61	C	0.535287	0.032357	0.000048
C62	C	0.785287	0.282357	0.250048
C63	C	1.035287	0.532357	0.500048
C64	C	1.285287	0.782357	0.750048
C65	C	0.568495	0.096608	0.000031
C66	C	0.818495	0.346608	0.250031
C67	C	1.068495	0.596608	0.500031
C68	C	1.318495	0.846608	0.750031
C69	C	0.395064	0.094047	0.000037
C70	C	0.645064	0.344047	0.250037
C71	C	0.895064	0.594047	0.500037
C72	C	1.145064	0.844047	0.750037
C73	C	0.301043	0.092659	0.000043
C74	C	0.551043	0.342659	0.250043
C75	C	0.801043	0.592659	0.500043
C76	C	1.051043	0.842659	0.750043
C77	C	0.662522	0.097996	0.000027
C78	C	0.912522	0.347996	0.250027
C79	C	1.162522	0.597996	0.500027
C80	C	1.412522	0.847996	0.750027
C81	C	0.988313	-0.032324	0.000058
C82	C	1.238313	0.217676	0.250058
C83	C	1.488313	0.467676	0.500058
C84	C	1.738313	0.717676	0.750058
C85	C	0.986955	-0.109832	0.000066
C86	C	1.236955	0.140168	0.250066
C87	C	1.486955	0.390168	0.500066
C88	C	1.736955	0.640168	0.750066
C89	C	1.062082	-0.154580	0.000075
C90	C	1.312082	0.095420	0.250075
C91	C	1.562082	0.345420	0.500075
C92	C	1.812082	0.595420	0.750075
C93	C	1.060806	-0.227407	0.000060
C94	C	1.310806	0.022593	0.250060
C95	C	1.560806	0.272593	0.500060
C96	C	1.810806	0.522593	0.750060
C97	C	0.984399	-0.255482	0.000055
C98	C	1.234399	-0.005482	0.250055
C99	C	1.484399	0.244518	0.500055
C100	C	1.734399	0.494518	0.750055
C101	C	0.909261	-0.210724	0.000041
C102	C	1.159261	0.039276	0.250041
C103	C	1.409261	0.289276	0.500041
C104	C	1.659261	0.539276	0.750041
C105	C	0.910540	-0.137899	0.000046
C106	C	1.160540	0.112101	0.250046
C107	C	1.410540	0.362101	0.500046
C108	C	1.660540	0.612101	0.750046
N109	N	0.925991	-0.363624	0.049893
N110	N	1.175991	-0.113624	0.299893
N111	N	1.425991	0.136376	0.549893
N112	N	1.675991	0.386376	0.799893
N113	N	0.924782	-0.432805	0.049890
N114	N	1.174782	-0.182805	0.299890
N115	N	1.424782	0.067195	0.549890
N116	N	1.674782	0.317195	0.799890
C117	C	0.980543	-0.474900	0.000037
C118	C	1.230543	-0.224900	0.250037
C119	C	1.480543	0.025100	0.500037
C120	C	1.730543	0.275100	0.750037
N121	N	1.037571	-0.445200	-0.049802
N122	N	1.287571	-0.195200	0.200198
N123	N	1.537571	0.054800	0.450198
N124	N	1.787571	0.304800	0.700198
N125	N	1.038783	-0.376013	-0.049795
N126	N	1.288783	-0.126013	0.200205
N127	N	1.538783	0.123987	0.450205
N128	N	1.788783	0.373987	0.700205
C129	C	0.983004	-0.334448	0.000049
C130	C	1.233004	-0.084448	0.250049
C131	C	1.483004	0.165552	0.500049
C132	C	1.733004	0.415552	0.750049
C133	C	1.054292	-0.598616	0.000029
C134	C	1.304292	-0.348616	0.250029
C135	C	1.554292	-0.098616	0.500029
C136	C	1.804292	0.151384	0.750029
C137	C	1.053012	-0.671443	0.000010
C138	C	1.303012	-0.421443	0.250010
C139	C	1.553012	-0.171443	0.500010
C140	C	1.803012	0.078557	0.750010
C141	C	0.901465	-0.654759	-0.000001
C142	C	1.151465	-0.404759	0.249999
C143	C	1.401465	-0.154759	0.499999
C144	C	1.651465	0.095241	0.749999
C145	C	0.902747	-0.581933	0.000010
C146	C	1.152747	-0.331933	0.250010
C147	C	1.402747	-0.081933	0.500010
C148	C	1.652747	0.168067	0.750010
C149	C	0.979162	-0.553866	0.000029
C150	C	1.229162	-0.303866	0.250029
C151	C	1.479162	-0.053866	0.500029
C152	C	1.729162	0.196134	0.750029
C153	C	1.133802	0.090196	0.000045
C154	C	1.383802	0.340196	0.250045
C155	C	1.633802	0.590196	0.500045
C156	C	1.883802	0.840196	0.750045
C157	C	1.226093	0.091552	0.000045
C158	C	1.476093	0.341552	0.250045
C159	C	1.726093	0.591552	0.500045
C160	C	1.976093	0.841552	0.750045
C161	C	0.975246	0.222979	0.000016
C162	C	1.225246	0.472979	0.250016
C163	C	1.475246	0.722979	0.500016
C164	C	1.725246	0.972979	0.750016
C165	C	0.976604	0.300486	0.000003
C166	C	1.226604	0.550486	0.250003
C167	C	1.476604	0.800486	0.500003
C168	C	1.726604	1.050486	0.750003
N169	N	0.981772	0.095325	0.228213
N170	N	1.231772	0.345325	0.478213
N171	N	1.481772	0.595325	0.728213
N172	N	1.731772	0.845325	0.978213
N173	N	0.981793	0.095325	-0.228137
N174	N	1.231793	0.345325	0.021863
N175	N	1.481793	0.595325	0.271863
N176	N	1.731793	0.845325	0.521863
C177	C	1.038486	0.047862	0.453947
C178	C	1.288486	0.297862	0.703947
C179	C	1.538486	0.547862	0.953947
C180	C	1.788486	0.797862	1.203947
C181	C	1.038488	0.047860	0.546136
C182	C	1.288488	0.297860	0.796136
C183	C	1.538488	0.547860	1.046136
C184	C	1.788488	0.797860	1.296136
C185	C	0.925074	0.142790	0.546123
C186	C	1.175074	0.392790	0.796123
C187	C	1.425074	0.642790	1.046123
C188	C	1.675074	0.892790	1.296123
C189	C	0.925068	0.142787	0.453935
C190	C	1.175068	0.392787	0.703935
C191	C	1.425068	0.642787	0.953935
C192	C	1.675068	0.892787	1.203935
C193	C	0.981779	0.095324	0.407849
C194	C	1.231779	0.345324	0.657849
C195	C	1.481779	0.595324	0.907849
C196	C	1.731779	0.845324	1.157849
C197	C	0.981787	0.095325	0.592227
C198	C	1.231787	0.345325	0.842227
C199	C	1.481787	0.595325	1.092227
C200	C	1.731787	0.845325	1.342227
C201	C	0.981790	0.095323	0.692183
C202	C	1.231790	0.345323	0.942183
C203	C	1.481790	0.595323	1.192183
C204	C	1.731790	0.845323	1.442183
C205	C	0.981775	0.095325	0.307887
C206	C	1.231775	0.345325	0.557887
C207	C	1.481775	0.595325	0.807887
C208	C	1.731775	0.845325	1.057887
H209	H	0.421524	-0.021234	0.000066
H210	H	0.671524	0.228766	0.250066
H211	H	0.921524	0.478766	0.500066
H212	H	1.171524	0.728766	0.750066
C213	C	0.862694	0.194995	0.596826
C214	C	1.112694	0.444995	0.846826
C215	C	1.362694	0.694995	1.096826
C216	C	1.612694	0.944995	1.346826
N217	N	0.815708	0.234316	0.635015
N218	N	1.065708	0.484316	0.885015
N219	N	1.315708	0.734316	1.135015
N220	N	1.565708	0.984316	1.385015
H221	H	1.121986	-0.263848	0.000064
H222	H	1.371986	-0.013848	0.250064
H223	H	1.621986	0.236152	0.500064
H224	H	1.871986	0.486152	0.750064
C225	C	1.138349	-0.567740	0.000037
C226	C	1.388349	-0.317740	0.250037
C227	C	1.638349	-0.067740	0.500037
C228	C	1.888349	0.182260	0.750037
N229	N	1.201662	-0.544486	0.000040
N230	N	1.451662	-0.294486	0.250040
N231	N	1.701662	-0.044486	0.500040
N232	N	1.951662	0.205514	0.750040
H233	H	0.578851	-0.018920	0.000057
H234	H	0.828851	0.231080	0.250057
H235	H	1.078851	0.481080	0.500057
H236	H	1.328851	0.731080	0.750057
C237	C	1.100864	-0.004358	0.596839
C238	C	1.350864	0.245642	0.846839
C239	C	1.600864	0.495642	1.096839
C240	C	1.850864	0.745642	1.346839
N241	N	1.147846	-0.043693	0.635028
N242	N	1.397846	0.206307	0.885028
N243	N	1.647846	0.456307	1.135028
N244	N	1.897846	0.706307	1.385028
H245	H	1.084662	0.009214	0.416426
H246	H	1.334662	0.259214	0.666426
H247	H	1.584662	0.509214	0.916426
H248	H	1.834662	0.759214	1.166426
H249	H	1.124306	-0.131733	0.000087
H250	H	1.374306	0.118267	0.250087
H251	H	1.624306	0.368267	0.500087
H252	H	1.874306	0.618267	0.750087
H253	H	0.542027	0.211890	0.000016
H254	H	0.792027	0.461890	0.250016
H255	H	1.042027	0.711890	0.500016
H256	H	1.292027	0.961890	0.750016
H257	H	0.384719	0.209567	0.000024
H258	H	0.634719	0.459567	0.250024
H259	H	0.884719	0.709567	0.500024
H260	H	1.134719	0.959567	0.750024
C261	C	0.825213	-0.241608	0.000041
C262	C	1.075213	0.008392	0.250041
C263	C	1.325213	0.258392	0.500041
C264	C	1.575213	0.508392	0.750041
N265	N	0.761905	-0.264869	0.000041
N266	N	1.011905	-0.014869	0.250041
N267	N	1.261905	0.235131	0.500041
N268	N	1.511905	0.485131	0.750041
C269	C	0.827890	-0.088673	0.000039
C270	C	1.077890	0.161327	0.250039
C271	C	1.327890	0.411327	0.500039
C272	C	1.577890	0.661327	0.750039
N273	N	0.765637	-0.051595	0.000035
N274	N	1.015637	0.198405	0.250035
N275	N	1.265637	0.448405	0.500035
N276	N	1.515637	0.698405	0.750035
C277	C	1.135663	-0.720668	0.000024
C278	C	1.385663	-0.470668	0.250024
C279	C	1.635663	-0.220668	0.500024
C280	C	1.885663	0.029332	0.750024
N281	N	1.197917	-0.757744	0.000039
N282	N	1.447917	-0.507744	0.250039
N283	N	1.697917	-0.257744	0.500039
N284	N	1.947917	-0.007744	0.750039
C285	C	0.862720	0.195034	0.403225
C286	C	1.112720	0.445034	0.653225
C287	C	1.362720	0.695034	0.903225
C288	C	1.612720	0.945034	1.153225
N289	N	0.815774	0.234395	0.365030
N290	N	1.065774	0.484395	0.615030
N291	N	1.315774	0.734395	0.865030
N292	N	1.565774	0.984395	1.115030
C293	C	0.817415	-0.685637	-0.000010
C294	C	1.067415	-0.435637	0.249990
C295	C	1.317415	-0.185637	0.499990
C296	C	1.567415	0.064363	0.749990
N297	N	0.754107	-0.708898	-0.000019
N298	N	1.004107	-0.458898	0.249981
N299	N	1.254107	-0.208898	0.499981
N300	N	1.504107	0.041102	0.749981
C301	C	0.820099	-0.532707	0.000005
C302	C	1.070099	-0.282707	0.250005
C303	C	1.320099	-0.032707	0.500005
C304	C	1.570099	0.217293	0.750005
N305	N	0.757846	-0.495630	-0.000002
N306	N	1.007846	-0.245630	0.249998
N307	N	1.257846	0.004370	0.499998
N308	N	1.507846	0.254370	0.749998
