data_functionalizedCrystal
_audit_creation_method	'MofGen! by Chris Wilmer'
_symmetry_space_group_name_H-M	'P1'
_symmetry_Int_Tables_number	1
_symmetry_cell_setting	triclinic
loop_
_symmetry_equiv_pos_as_xyz
  x,y,z
_cell_length_a	19.805407
_cell_length_b	13.897447
_cell_length_c	19.805399
_cell_angle_alpha	89.974846
_cell_angle_beta	89.978486
_cell_angle_gamma	90.018777
loop_
_atom_site_label
_atom_site_type_symbol
_atom_site_fract_x
_atom_site_fract_y
_atom_site_fract_z
Zn1	Zn	1.034750	-0.384043	-0.382821
Zn2	Zn	1.534750	0.115957	0.117179
Zn3	Zn	1.034684	-0.545353	-0.269641
Zn4	Zn	1.534684	-0.045353	0.230359
Zn5	Zn	0.921570	-0.384072	-0.269637
Zn6	Zn	1.421570	0.115928	0.230363
Zn7	Zn	0.921542	-0.545296	-0.382778
Zn8	Zn	1.421542	-0.045296	0.117222
O9	O	0.978136	-0.464691	-0.326219
O10	O	1.478136	0.035309	0.173781
O11	O	1.129458	-0.405453	-0.367827
O12	O	1.629458	0.094547	0.132173
O13	O	1.019663	-0.523995	-0.174923
O14	O	1.519663	-0.023995	0.325077
O15	O	0.936623	-0.249086	-0.284667
O16	O	1.436623	0.250914	0.215333
O17	O	1.129409	-0.523967	-0.284674
O18	O	1.629409	-0.023967	0.215326
O19	O	1.019776	-0.249065	-0.367823
O20	O	1.519776	0.250935	0.132177
O21	O	0.936559	-0.405502	-0.174921
O22	O	1.436559	0.094498	0.325079
O23	O	0.826850	-0.405446	-0.284626
O24	O	1.326850	0.094554	0.215374
O25	O	0.936575	-0.523869	-0.477501
O26	O	1.436575	-0.023869	0.022499
O27	O	0.826829	-0.523897	-0.367750
O28	O	1.326829	-0.023897	0.132250
O29	O	1.019749	-0.405398	-0.477532
O30	O	1.519749	0.094602	0.022468
O31	O	1.019636	-0.680327	-0.284632
O32	O	1.519636	-0.180327	0.215368
O33	O	0.936511	-0.680285	-0.367754
O34	O	1.436511	-0.180285	0.132246
C35	C	0.802280	-0.464669	-0.326183
C36	C	1.302280	0.035331	0.173817
C37	C	0.727048	-0.464683	-0.326184
C38	C	1.227048	0.035317	0.173816
C39	C	0.265264	-0.526484	-0.369478
C40	C	0.765264	-0.026484	0.130522
C41	C	0.335953	-0.526483	-0.369463
C42	C	0.835953	-0.026483	0.130537
C43	C	0.371287	-0.464714	-0.326246
C44	C	0.871287	0.035286	0.173754
C45	C	0.335929	-0.402950	-0.283035
C46	C	0.835929	0.097050	0.216965
C47	C	0.265241	-0.402958	-0.283046
C48	C	0.765241	0.097042	0.216954
C49	C	0.621002	-0.402921	-0.282987
C50	C	1.121002	0.097079	0.217013
C51	C	0.691694	-0.402916	-0.282981
C52	C	1.191694	0.097084	0.217019
C53	C	0.691713	-0.526446	-0.369404
C54	C	1.191713	-0.026446	0.130596
C55	C	0.621026	-0.526453	-0.369416
C56	C	1.121026	-0.026453	0.130584
C57	C	0.585674	-0.464693	-0.326202
C58	C	1.085674	0.035307	0.173798
C59	C	0.509026	-0.464697	-0.326218
C60	C	1.009026	0.035303	0.173782
C61	C	0.447934	-0.464705	-0.326233
C62	C	0.947934	0.035295	0.173767
C63	C	0.978081	-0.715305	-0.326203
C64	C	1.478081	-0.215305	0.173797
C65	C	0.978120	-0.822519	-0.326219
C66	C	1.478120	-0.322519	0.173781
C67	C	0.978153	-0.909589	-0.326235
C68	C	1.478153	-0.409589	0.173765
C69	C	0.978200	-1.018821	-0.326252
C70	C	1.478200	-0.518821	0.173748
C71	C	1.154679	-0.464713	-0.326256
C72	C	1.654679	0.035287	0.173744
C73	C	1.229911	-0.464723	-0.326271
C74	C	1.729911	0.035277	0.173729
C75	C	0.978166	-0.464624	-0.502762
C76	C	1.478166	0.035376	-0.002762
C77	C	0.978179	-0.464595	-0.577994
C78	C	1.478179	0.035405	-0.077994
C79	C	0.978210	-0.213098	-0.326250
C80	C	1.478210	0.286902	0.173750
C81	C	0.978242	-0.105884	-0.326263
C82	C	1.478242	0.394116	0.173737
C83	C	0.934919	-0.402890	-0.613336
C84	C	1.434919	0.097110	-0.113336
C85	C	0.934928	-0.402872	-0.684025
C86	C	1.434928	0.097128	-0.184025
C87	C	0.978201	-0.464554	-0.719370
C88	C	1.478201	0.035446	-0.219370
C89	C	1.021463	-0.526266	-0.684023
C90	C	1.521463	-0.026266	-0.184023
C91	C	1.021450	-0.526289	-0.613335
C92	C	1.521450	-0.026289	-0.113335
C93	C	1.021517	-0.526175	-0.969096
C94	C	1.521517	-0.026175	-0.469096
C95	C	1.021528	-0.526146	-1.039788
C96	C	1.521528	-0.026146	-0.539788
C97	C	0.934995	-0.402759	-1.039785
C98	C	1.434995	0.097241	-0.539785
C99	C	0.934982	-0.402781	-0.969098
C100	C	1.434982	0.097219	-0.469098
C101	C	0.978241	-0.464496	-0.933757
C102	C	1.478241	0.035504	-0.433757
C103	C	0.978229	-0.464517	-0.857109
C104	C	1.478229	0.035483	-0.357109
C105	C	0.978217	-0.464529	-0.796017
C106	C	1.478217	0.035471	-0.296017
C107	C	0.978146	-0.464688	-0.150363
C108	C	1.478146	0.035312	0.349637
C109	C	0.978264	-0.464445	-0.075132
C110	C	1.478264	0.035555	0.424868
H111	H	0.364703	-0.352662	-0.247843
H112	H	0.864703	0.147338	0.252157
N113	N	1.068115	-0.592834	-0.575214
N114	N	1.568115	-0.092834	-0.075214
H115	H	1.061540	-0.583490	-0.525072
H116	H	1.561540	-0.083490	-0.025072
H117	H	1.057563	-0.661719	-0.587558
H118	H	1.557563	-0.161719	-0.087558
N119	N	1.068203	-0.592678	-1.077913
N120	N	1.568203	-0.092678	-0.577913
H121	H	1.095605	-0.631780	-1.044799
H122	H	1.595605	-0.131780	-0.544799
H123	H	1.040640	-0.637296	-1.107232
H124	H	1.540640	-0.137296	-0.607232
H125	H	0.592227	-0.352636	-0.247798
H126	H	1.092227	0.147364	0.252202
H127	H	1.056694	-0.576493	-0.712806
H128	H	1.556694	-0.076493	-0.212806
H129	H	0.236501	-0.576778	-0.404674
H130	H	0.736501	-0.076778	0.095326
H131	H	0.236458	-0.352663	-0.247865
H132	H	0.736458	0.147337	0.252135
N133	N	0.888247	-0.336351	-0.575223
N134	N	1.388247	0.163649	-0.075223
H135	H	0.839884	-0.351321	-0.587513
H136	H	1.339884	0.148679	-0.087513
H137	H	0.894859	-0.345750	-0.525091
H138	H	1.394859	0.154250	-0.025091
H139	H	0.899699	-0.352629	-0.712797
H140	H	1.399699	0.147371	-0.212797
N141	N	0.888326	-0.336208	-1.077905
N142	N	1.388326	0.163792	-0.577905
H143	H	0.860913	-0.297135	-1.044787
H144	H	1.360913	0.202865	-0.544787
H145	H	0.915894	-0.291563	-1.107248
H146	H	1.415894	0.208437	-0.607248
N147	N	0.888318	-0.336241	-0.930976
N148	N	1.388318	0.163759	-0.430976
H149	H	0.860914	-0.297145	-0.964092
H150	H	1.360914	0.202855	-0.464092
H151	H	0.856977	-0.375504	-0.901632
H152	H	1.356977	0.124496	-0.401632
N153	N	0.374085	-0.593101	-0.416060
N154	N	0.874085	-0.093101	0.083940
H155	H	0.340975	-0.632228	-0.443442
H156	H	0.840975	-0.132228	0.056558
H157	H	0.403440	-0.553894	-0.447425
H158	H	0.903440	-0.053894	0.052575
N159	N	1.068173	-0.592733	-0.930981
N160	N	1.568173	-0.092733	-0.430981
H161	H	1.095590	-0.631802	-0.964098
H162	H	1.595590	-0.131802	-0.464098
H163	H	1.099502	-0.553484	-0.901663
H164	H	1.599502	-0.053484	-0.401663
H165	H	0.720505	-0.576736	-0.404589
H166	H	1.220505	-0.076736	0.095411
N167	N	0.582916	-0.593077	-0.416026
N168	N	1.082916	-0.093077	0.083974
H169	H	0.616039	-0.632208	-0.443393
H170	H	1.116039	-0.132208	0.056607
H171	H	0.553568	-0.637664	-0.388418
H172	H	1.053568	-0.137664	0.111582
H173	H	0.720461	-0.352613	-0.247786
H174	H	1.220461	0.147387	0.252214
