data_functionalizedCrystal
_audit_creation_method	'MofGen! by Chris Wilmer'
_symmetry_space_group_name_H-M	'P1'
_symmetry_Int_Tables_number	1
_symmetry_cell_setting	triclinic
loop_
_symmetry_equiv_pos_as_xyz
  x,y,z
_cell_length_a	10.540539
_cell_length_b	16.109301
_cell_length_c	9.616153
_cell_angle_alpha	89.996316
_cell_angle_beta	90.004826
_cell_angle_gamma	96.006514
loop_
_atom_site_label
_atom_site_type_symbol
_atom_site_fract_x
_atom_site_fract_y
_atom_site_fract_z
O1	O	1.684222	-0.117163	0.115585
O2	O	1.314652	-0.128202	0.115603
O3	O	1.509589	-0.001714	0.115579
O4	O	1.489284	-0.243652	0.115609
O5	O	1.509562	-0.001716	-0.115712
O6	O	1.314625	-0.128205	-0.115689
O7	O	1.684195	-0.117166	-0.115706
Zn8	Zn	1.499406	-0.122686	-0.152420
Zn9	Zn	1.499441	-0.122682	0.152316
O10	O	1.489258	-0.243654	-0.115683
C11	C	1.267347	-0.127376	-0.000041
C12	C	1.126434	-0.124899	-0.000035
N13	N	1.499391	-0.122688	-0.360395
C14	C	1.508753	0.029265	-0.000067
C15	C	1.506287	0.121575	-0.000069
C16	C	0.944360	-0.029989	-0.000586
C17	C	1.090943	-0.032500	-0.000050
C18	C	1.064143	-0.169364	0.132044
C19	C	0.917643	-0.166210	0.132140
C20	C	0.917098	-0.168093	-0.130881
C21	C	1.064068	-0.168944	-0.132612
C22	C	1.731500	-0.117992	-0.000060
C23	C	1.872413	-0.120469	-0.000057
C24	C	1.490093	-0.274633	-0.000033
C25	C	1.492559	-0.366943	-0.000022
C26	C	1.616226	0.343175	-0.000052
C27	C	1.613899	0.429910	-0.000041
C28	C	1.382612	0.411450	-0.000035
C29	C	1.384940	0.324717	-0.000037
C30	C	1.501751	0.290582	-0.000052
C31	C	1.497096	0.464050	-0.000039
C32	C	1.494572	0.558091	-0.000027
C33	C	1.504275	0.196535	-0.000062
C34	C	1.394800	-0.190124	-0.580752
C35	C	1.395025	-0.190376	-0.419584
C36	C	1.631833	-0.142423	-0.418848
C37	C	1.631262	-0.142900	-0.580065
C38	C	1.472865	-0.035295	-0.580315
C39	C	1.469810	-0.035862	-0.419088
N40	N	1.499466	-0.122674	0.360291
H41	H	1.134044	0.002487	-0.094731
H42	H	1.133201	0.002736	0.094785
H43	H	1.711340	0.315386	-0.000062
Cl44	Cl	1.755002	-0.069919	-0.640282
Cl45	Cl	1.241017	0.258595	-0.000025
Cl46	Cl	1.099974	-0.272955	-0.144910
Cl47	Cl	1.235773	0.454369	-0.000016
H48	H	1.296577	-0.178502	-0.380066
H49	H	0.916285	0.006513	-0.095308
H50	H	1.296042	-0.178431	-0.619560
Cl51	Cl	1.579869	0.045357	-0.356913
H52	H	1.707116	0.472728	-0.000038
Cl53	Cl	1.420671	-0.289650	-0.643235
Cl54	Cl	1.421182	-0.290474	-0.359999
H55	H	0.868919	-0.234832	-0.131765
Cl56	Cl	1.667457	-0.241323	-0.638095
H57	H	0.889913	-0.133345	0.230863
H58	H	1.549193	0.014908	-0.618440
H59	H	1.711569	-0.094637	-0.380504
Cl60	Cl	1.668891	-0.239734	-0.356484
Cl61	Cl	1.326985	-0.006312	-0.643157
H62	H	0.914682	0.006360	0.093599
H63	H	0.868728	-0.232662	0.138143
Cl64	Cl	1.097198	-0.274119	0.139680
H65	H	1.107183	-0.138474	0.230333
Cl66	Cl	1.127850	-0.118709	-0.283472
Cl67	Cl	0.869043	-0.121924	-0.285452
Cl68	Cl	1.319393	-0.012762	-0.360108
