data_functionalizedCrystal
_audit_creation_method	'MofGen! by Chris Wilmer'
_symmetry_space_group_name_H-M	'P1'
_symmetry_Int_Tables_number	1
_symmetry_cell_setting	triclinic
loop_
_symmetry_equiv_pos_as_xyz
  x,y,z
_cell_length_a	10.540510
_cell_length_b	9.016244
_cell_length_c	15.538191
_cell_angle_alpha	89.999679
_cell_angle_beta	114.107298
_cell_angle_gamma	90.007604
loop_
_atom_site_label
_atom_site_type_symbol
_atom_site_fract_x
_atom_site_fract_y
_atom_site_fract_z
O1	O	1.623379	0.123333	-0.132211
O2	O	1.248049	0.123333	-0.144710
O3	O	1.508775	0.123340	-0.001817
O4	O	1.362653	0.123326	-0.275104
O5	O	1.508745	-0.123341	-0.001820
O6	O	1.248019	-0.123348	-0.144713
O7	O	1.623349	-0.123347	-0.132214
Cu8	Cu	1.435681	-0.145872	-0.138464
Cu9	Cu	1.435717	0.145857	-0.138460
O10	O	1.362623	-0.123355	-0.275107
C11	C	1.201171	-0.000008	-0.143780
C12	C	1.061539	-0.000007	-0.140993
C13	C	0.797130	0.000555	-0.240261
C14	C	0.942319	-0.000011	-0.243233
C15	C	1.041518	-0.140868	-0.088658
C16	C	0.895820	-0.140977	-0.086410
C17	C	0.897055	0.139546	-0.084277
C18	C	1.041103	0.141398	-0.089126
N19	N	1.435666	-0.351058	-0.138466
C20	C	1.295999	-0.586094	-0.214648
C21	C	1.296093	-0.414203	-0.214933
C22	C	1.557851	-0.413397	-0.160748
C23	C	1.557030	-0.585342	-0.161287
C24	C	1.454584	-0.585596	-0.039752
C25	C	1.451236	-0.413642	-0.040392
C26	C	1.670227	-0.000004	-0.133144
C27	C	1.809859	0.000005	-0.135930
C28	C	1.524048	0.000005	0.033176
C29	C	1.569587	0.000020	0.137447
N30	N	1.435745	0.351043	-0.138450
C31	C	1.347350	-0.000016	-0.310099
C32	C	1.301811	-0.000021	-0.414370
C33	C	1.117173	-0.000013	0.428245
C34	C	1.159995	-0.000016	0.526226
C35	C	1.400861	-0.000015	0.547068
C36	C	1.358059	-0.000005	0.449086
C37	C	1.216213	-0.000005	0.389682
C38	C	1.457099	0.000003	0.410524
C39	C	1.414300	0.000006	0.312551
C40	C	1.272460	0.000001	0.253141
C41	C	1.173414	-0.000003	0.291710
C42	C	1.598944	-0.000007	0.469930
C43	C	1.697984	0.000001	0.431367
C44	C	1.655185	0.000014	0.333392
C45	C	1.513346	0.000009	0.273982
C46	C	1.754232	0.000017	0.294824
C47	C	1.711432	0.000020	0.196851
C48	C	1.470547	0.000012	0.176009
H49	H	0.734879	-0.099896	-0.279864
C50	C	1.699151	-0.358132	-0.087821
N51	N	1.805577	-0.316503	-0.032892
H52	H	0.839269	0.246312	-0.116517
H53	H	1.055167	-0.245700	-0.125006
C54	C	0.916174	0.140841	0.019423
N55	N	0.930563	0.141807	0.097527
C56	C	1.170779	-0.642048	-0.196834
N57	N	1.076460	-0.684212	-0.183420
H58	H	1.125478	0.149909	-0.014484
C59	C	1.314508	0.000013	0.110659
N60	N	1.196985	0.000008	0.061437
H61	H	1.792081	0.000025	0.165453
H62	H	1.237615	-0.000005	0.173365
H63	H	1.661867	-0.626922	-0.108024
C64	C	1.017375	-0.000001	0.226359
N65	N	0.899852	-0.000007	0.177137
C66	C	1.273491	-0.358615	-0.313857
N67	N	1.256474	-0.316747	-0.388369
H68	H	0.952311	0.100967	-0.284176
H69	H	0.908994	-0.147371	-0.009941
H70	H	1.203816	-0.372058	-0.201528
H71	H	1.001668	-0.000002	0.379874
H72	H	1.124508	-0.146103	-0.013391
H73	H	1.279226	-0.629291	-0.287459
C74	C	1.543891	-0.639509	-0.258571
N75	N	1.533983	-0.680301	-0.331851
H76	H	1.549075	-0.370323	-0.231941
H77	H	0.736348	0.101574	-0.280091
C78	C	1.646021	-0.000006	0.577703
N79	N	1.681477	-0.000001	0.658878
C80	C	1.340111	-0.644235	-0.011119
N81	N	1.253878	-0.688402	0.010436
C82	C	1.330116	-0.358611	-0.017576
N83	N	1.238885	-0.317155	-0.000395
H84	H	0.838673	-0.246276	-0.122178
H85	H	1.549872	-0.370663	0.019033
C86	C	1.592967	-0.640522	0.036867
N87	N	1.697196	-0.681902	0.094570
C88	C	1.051031	-0.000016	0.568640
N89	N	0.968961	-0.000016	0.600586
H90	H	1.051722	0.245606	-0.127205
H91	H	0.951226	-0.101159	-0.284427
H92	H	1.516352	-0.000021	0.595447
H93	H	1.813475	-0.000005	0.479747
H94	H	1.869722	0.000003	0.343205
