data_functionalizedCrystal
_audit_creation_method	'MofGen! by Chris Wilmer'
_symmetry_space_group_name_H-M	'P1'
_symmetry_Int_Tables_number	1
_symmetry_cell_setting	triclinic
loop_
_symmetry_equiv_pos_as_xyz
  x,y,z
_cell_length_a	13.339070
_cell_length_b	13.339070
_cell_length_c	11.804673
_cell_angle_alpha	99.452914
_cell_angle_beta	99.441723
_cell_angle_gamma	115.629294
loop_
_atom_site_label
_atom_site_type_symbol
_atom_site_fract_x
_atom_site_fract_y
_atom_site_fract_z
O1	O	-1.522148	-0.575882	-0.099056
O2	O	-1.207337	-0.503621	-0.099050
O3	O	-1.328612	-0.382346	-0.099049
O4	O	-1.400874	-0.697157	-0.099057
O5	O	-1.277930	-0.331641	0.099000
O6	O	-1.156655	-0.452916	0.098999
O7	O	-1.471466	-0.525178	0.098993
Cu8	Cu	-1.309433	-0.484417	0.117080
Cu9	Cu	-1.369370	-0.544381	-0.117136
O10	O	-1.350192	-0.646453	0.098992
C11	C	-1.140881	-0.466062	-0.000025
C12	C	-1.018366	-0.429678	-0.000023
N13	N	-1.411525	-0.586548	-0.281871
C14	C	-1.291065	-0.315878	-0.000026
C15	C	-1.254682	-0.193365	-0.000030
C16	C	-1.537923	-0.562737	-0.000034
C17	C	-1.660440	-0.599123	-0.000044
C18	C	-0.732985	-0.712584	-0.000049
C19	C	-0.848095	-0.746773	-0.000055
C20	C	-0.890669	-0.667502	-0.000046
C21	C	-0.818121	-0.554036	-0.000033
C22	C	-0.703002	-0.519846	-0.000037
C23	C	-0.860685	-0.474764	-0.000034
C24	C	-0.788137	-0.361299	-0.000021
C25	C	-0.673029	-0.327115	-0.000023
C26	C	-0.630456	-0.406385	-0.000032
C27	C	-0.975804	-0.508955	-0.000030
C28	C	-0.945821	-0.316217	-0.000018
C29	C	-0.830710	-0.282028	-0.000012
C30	C	-1.387739	-0.712920	-0.000034
C31	C	-1.424124	-0.835435	-0.000037
C32	C	-1.537582	0.092021	-0.000034
C33	C	-1.571767	-0.023085	-0.000023
C34	C	-1.492499	-0.065661	-0.000025
C35	C	-1.379040	0.006881	-0.000037
C36	C	-1.344849	0.122000	-0.000039
C37	C	-1.299766	-0.035682	-0.000030
C38	C	-1.186307	0.036860	-0.000042
C39	C	-1.152122	0.151968	-0.000044
C40	C	-1.231390	0.194544	-0.000042
C41	C	-1.333957	-0.150801	-0.000029
C42	C	-1.141224	-0.120822	-0.000033
C43	C	-1.107039	-0.005716	-0.000044
N44	N	-1.267284	-0.442243	0.281814
C45	C	-1.166032	-0.340945	0.344147
C46	C	-1.134125	-0.309031	0.468804
C47	C	-1.203473	-0.378408	0.531141
C48	C	-1.304732	-0.479704	0.468809
C49	C	-1.336637	-0.511626	0.344140
C50	C	-1.374078	-0.549088	0.531134
C51	C	-1.475337	-0.650384	0.468802
C52	C	-1.507237	-0.682300	0.344145
C53	C	-1.437889	-0.612924	0.281807
C54	C	-1.342173	-0.517166	0.655804
C55	C	-1.512778	-0.687847	0.655797
C56	C	-1.544684	-0.719761	0.531139
H57	H	-1.034861	-0.601337	-0.000036
H58	H	-1.051681	-0.226557	0.519546
F59	F	-1.614984	-0.790130	0.277809
H60	H	-1.569243	-0.744343	0.706551
H61	H	-1.627131	-0.802238	0.480371
H62	H	-1.109576	-0.284474	0.293380
F63	F	-1.234410	-0.409363	0.722128
H64	H	-1.177489	-0.352417	0.632643
H65	H	-0.980484	-0.251669	-0.000016
H66	H	-1.203564	0.288270	-0.000055
H67	H	-1.520339	-0.159386	-0.000017
H68	H	-0.613966	-0.234727	-0.000026
H69	H	-1.463866	-0.638900	0.180301
H70	H	-0.984398	-0.695346	-0.000054
H71	H	-0.771628	-0.189645	-0.000011
H72	H	-1.076675	-0.155484	-0.000029
F73	F	-0.925299	-0.867527	-0.000074
H74	H	-0.536725	-0.378554	-0.000027
H75	H	-1.426335	-0.209854	-0.000019
H76	H	-1.602107	0.126701	-0.000023
F77	F	-0.687672	-0.796940	-0.000074
H78	H	-1.664145	-0.082140	-0.000012
H79	H	-1.059734	0.211032	-0.000044
H80	H	-1.014658	0.053364	-0.000053
