data_functionalizedCrystal
_audit_creation_method	'MofGen! by Chris Wilmer'
_symmetry_space_group_name_H-M	'P1'
_symmetry_Int_Tables_number	1
_symmetry_cell_setting	triclinic
loop_
_symmetry_equiv_pos_as_xyz
  x,y,z
_cell_length_a	17.077404
_cell_length_b	12.645330
_cell_length_c	12.645331
_cell_angle_alpha	89.998436
_cell_angle_beta	90.005758
_cell_angle_gamma	90.017917
loop_
_atom_site_label
_atom_site_type_symbol
_atom_site_fract_x
_atom_site_fract_y
_atom_site_fract_z
Zn1	Zn	1.199976	-0.422301	0.599438
Zn2	Zn	1.199927	-0.599507	0.422178
Zn3	Zn	1.068740	-0.422259	0.422183
Zn4	Zn	1.068688	-0.599524	0.599394
O5	O	1.134333	-0.510898	0.510798
O6	O	1.309817	-0.445819	0.575940
O7	O	1.182526	-0.575971	0.273831
O8	O	1.086191	-0.273917	0.445717
O9	O	1.309780	-0.576011	0.445708
O10	O	1.182610	-0.273948	0.575945
O11	O	1.086143	-0.445747	0.273835
O12	O	0.958886	-0.445763	0.445674
O13	O	1.086103	-0.576039	0.747747
O14	O	0.958848	-0.575998	0.575871
O15	O	1.182560	-0.445835	0.747779
O16	O	1.182475	-0.747857	0.445666
O17	O	1.086055	-0.747869	0.575865
C18	C	0.930385	-0.510879	0.510769
C19	C	0.843135	-0.510896	0.510782
C20	C	0.802146	-0.578812	0.578466
C21	C	0.720165	-0.578814	0.578483
C22	C	0.679176	-0.510905	0.510809
C23	C	0.720171	-0.442982	0.443122
C24	C	0.802150	-0.442975	0.443111
C25	C	0.549301	-0.443003	0.443147
C26	C	0.467316	-0.443011	0.443157
C27	C	0.467316	-0.578842	0.578519
C28	C	0.549295	-0.578835	0.578508
C29	C	0.590285	-0.510913	0.510819
C30	C	1.134276	-0.786328	0.510783
C31	C	1.134323	-0.904158	0.510812
C32	C	1.073915	-1.071773	0.592974
C33	C	1.073606	-0.949214	0.592710
C34	C	1.111951	-0.948700	0.399091
C35	C	1.111582	-1.071299	0.399589
C36	C	1.217472	-1.071260	0.539467
C37	C	1.216962	-0.948654	0.541910
C38	C	1.339077	-0.510918	0.510828
C39	C	1.426327	-0.510926	0.510841
C40	C	1.134331	-0.510943	0.787303
C41	C	1.134330	-0.510963	0.905133
C42	C	1.134412	-0.234393	0.510836
C43	C	1.134445	-0.116563	0.510852
C44	C	1.073426	-0.592566	1.072677
C45	C	1.073612	-0.592913	0.950117
C46	C	1.217031	-0.541301	0.949653
C47	C	1.216671	-0.541869	1.072251
C48	C	1.113235	-0.398740	1.072331
C49	C	1.111416	-0.399357	0.949725
C50	C	1.134326	-0.510892	1.235368
C51	C	1.134317	-0.510919	1.117538
H52	H	0.582672	-0.387684	0.388037
H53	H	1.011905	-0.573790	1.102151
H54	H	1.263630	-0.483687	0.920517
H55	H	1.050890	-1.099979	0.375349
H56	H	1.264434	-0.917978	0.486453
C57	C	1.241610	-0.650887	0.908207
C58	C	1.316719	-0.662715	0.841880
C59	C	1.341293	-0.772304	0.800437
C60	C	1.290758	-0.870065	0.825320
C61	C	1.215644	-0.858240	0.891650
C62	C	1.191071	-0.748651	0.933093
H63	H	1.354132	-0.590344	0.823457
H64	H	1.396897	-0.781057	0.751335
H65	H	1.308949	-0.951189	0.794641
H66	H	1.178231	-0.930611	0.910073
H67	H	1.135466	-0.739899	0.982195
H68	H	1.153758	-1.100927	0.336316
H69	H	0.582667	-0.634138	0.633608
H70	H	1.053966	-0.371119	1.103236
C71	C	1.278399	-1.110382	0.458671
C72	C	1.252990	-1.183070	0.367179
C73	C	1.313908	-1.222197	0.286380
C74	C	1.400236	-1.188637	0.297072
C75	C	1.425650	-1.115945	0.388568
C76	C	1.364731	-1.076817	0.469368
H77	H	1.189081	-1.207917	0.359260
H78	H	1.295095	-1.276009	0.218648
H79	H	1.445332	-1.217601	0.237260
H80	H	1.489559	-1.091098	0.396487
H81	H	1.383544	-1.023006	0.537099
C82	C	0.675073	-0.653529	0.652928
C83	C	0.618737	-0.607749	0.736247
C84	C	0.573643	-0.682467	0.810694
C85	C	0.584887	-0.802964	0.801821
C86	C	0.641226	-0.848749	0.718498
C87	C	0.686320	-0.774032	0.644052
H88	H	0.610411	-0.518545	0.742818
H89	H	0.531937	-0.648573	0.872375
H90	H	0.551506	-0.858274	0.856931
H91	H	0.649552	-0.937954	0.711927
H92	H	0.728026	-0.807926	0.582371
C93	C	0.675081	-0.368280	0.368683
C94	C	0.618741	-0.285143	0.414770
C95	C	0.573652	-0.210442	0.340328
C96	C	0.584903	-0.218879	0.219798
C97	C	0.641246	-0.302020	0.173704
C98	C	0.686335	-0.376720	0.248146
H99	H	0.610410	-0.278894	0.503999
H100	H	0.531943	-0.148895	0.374450
H101	H	0.551526	-0.163581	0.164691
H102	H	0.649577	-0.308268	0.084475
H103	H	0.728044	-0.438267	0.214024
H104	H	0.433939	-0.634144	0.633637
C105	C	0.847243	-0.368266	0.368659
C106	C	0.835993	-0.247770	0.377521
C107	C	0.881086	-0.173054	0.303072
C108	C	0.937429	-0.218834	0.219762
C109	C	0.948682	-0.339337	0.210897
C110	C	0.903589	-0.414053	0.285345
H111	H	0.794281	-0.213875	0.439195
H112	H	0.872755	-0.083849	0.309635
H113	H	0.970810	-0.163525	0.164651
H114	H	0.990393	-0.373232	0.149222
H115	H	0.911920	-0.503257	0.278782
H116	H	1.154642	-0.919513	0.336232
H117	H	1.012286	-0.573927	0.920016
H118	H	0.835514	-0.634115	0.633570
H119	H	1.087208	-0.675208	1.103496
H120	H	1.087780	-1.101224	0.676086
C121	C	1.029197	-0.368441	0.910417
C122	C	0.983059	-0.444146	0.838169
C123	C	0.900839	-0.413234	0.798855
C124	C	0.864758	-0.306617	0.831790
C125	C	0.910897	-0.230904	0.904042
C126	C	0.993116	-0.261816	0.943356
H127	H	1.009767	-0.523077	0.813785
H128	H	0.866685	-0.469282	0.745369
H129	H	0.803895	-0.283734	0.802688
H130	H	0.884188	-0.151974	0.928426
H131	H	1.027271	-0.205769	0.996842
H132	H	1.087600	-0.919098	0.675550
H133	H	0.433945	-0.387700	0.388063
C134	C	1.092618	-0.705200	0.910613
C135	C	1.165342	-0.724276	0.841203
C136	C	1.184424	-0.836564	0.801751
C137	C	1.130783	-0.929777	0.831711
C138	C	1.058054	-0.910703	0.901125
C139	C	1.038972	-0.798415	0.940576
H140	H	1.205055	-0.655273	0.819021
H141	H	1.238263	-0.850683	0.750366
H142	H	1.144908	-1.012899	0.802507
H143	H	1.018341	-0.979707	0.923306
H144	H	0.985134	-0.784297	0.991962
C145	C	1.166974	-0.312786	0.908373
C146	C	1.234425	-0.342051	0.833056
C147	C	1.289992	-0.255484	0.791709
C148	C	1.278108	-0.139652	0.825677
C149	C	1.210654	-0.110381	0.900998
C150	C	1.155086	-0.196948	0.942346
H151	H	1.243225	-0.427802	0.807907
H152	H	1.339927	-0.277152	0.735951
H153	H	1.319242	-0.075569	0.795069
H154	H	1.201854	-0.024630	0.926147
H155	H	1.105152	-0.175280	0.998103
H156	H	1.012746	-1.102666	0.574259
C157	C	1.240817	-0.652652	1.110895
C158	C	1.184349	-0.718050	1.179742
C159	C	1.208497	-0.828837	1.218372
C160	C	1.289114	-0.874226	1.188155
C161	C	1.345587	-0.808827	1.119305
C162	C	1.321439	-0.698040	1.080675
H163	H	1.124667	-0.684452	1.202113
H164	H	1.166692	-0.877250	1.269340
H165	H	1.306990	-0.956237	1.216751
H166	H	1.405269	-0.842425	1.096933
H167	H	1.363244	-0.649627	1.029707
C168	C	1.173143	-0.316553	1.111526
C169	C	1.260521	-0.329520	1.084405
C170	C	1.320431	-0.247342	1.123605
C171	C	1.292964	-0.152197	1.189926
C172	C	1.205581	-0.139226	1.217050
C173	C	1.145671	-0.221404	1.177850
H174	H	1.280858	-0.399956	1.035308
H175	H	1.385117	-0.256945	1.103526
H176	H	1.337313	-0.091364	1.218944
H177	H	1.185244	-0.068790	1.266147
H178	H	1.080985	-0.211801	1.197929
H179	H	1.012053	-0.919971	0.573752
H180	H	1.237885	-1.102140	0.619549
C181	C	1.030810	-0.907348	0.365749
C182	C	0.984783	-0.833223	0.439692
C183	C	0.903640	-0.791873	0.406357
C184	C	0.868525	-0.824649	0.299079
C185	C	0.914552	-0.898778	0.225129
C186	C	0.995695	-0.940128	0.258464
H187	H	1.010778	-0.808956	0.519112
H188	H	0.869568	-0.736997	0.461101
H189	H	0.808458	-0.794039	0.274403
H190	H	0.888558	-0.923044	0.145709
H191	H	1.029767	-0.995003	0.203721
H192	H	1.233834	-0.919541	0.624131
H193	H	1.263579	-0.484983	1.101929
