data_functionalizedCrystal
_audit_creation_method	'MofGen! by Chris Wilmer'
_symmetry_space_group_name_H-M	'P1'
_symmetry_Int_Tables_number	1
_symmetry_cell_setting	triclinic
loop_
_symmetry_equiv_pos_as_xyz
  x,y,z
_cell_length_a	19.288864
_cell_length_b	16.109301
_cell_length_c	18.366186
_cell_angle_alpha	89.992337
_cell_angle_beta	89.977106
_cell_angle_gamma	83.298863
loop_
_atom_site_label
_atom_site_type_symbol
_atom_site_fract_x
_atom_site_fract_y
_atom_site_fract_z
O1	O	0.921600	0.103716	-0.060785
O2	O	0.719373	0.117707	-0.060736
O3	O	0.826042	-0.010339	-0.060755
O4	O	0.814931	0.231761	-0.060767
O5	O	0.826024	-0.010345	0.060345
O6	O	0.719355	0.117701	0.060363
O7	O	0.921582	0.103710	0.060314
Zn8	Zn	0.820466	0.110704	0.079566
Zn9	Zn	0.820490	0.110712	-0.079988
O10	O	0.814913	0.231755	0.060333
C11	C	0.693487	0.117254	-0.000180
C12	C	0.616380	0.115902	-0.000161
C13	C	0.571863	0.191034	-0.000176
C14	C	0.499413	0.189764	-0.000184
C15	C	0.471483	0.113359	-0.000191
C16	C	0.516009	0.038218	-0.000172
C17	C	0.588458	0.039489	-0.000157
C18	C	0.363084	0.053298	-0.042639
C19	C	0.290636	0.052029	-0.042659
C20	C	0.248028	0.109433	-0.000235
C21	C	0.277874	0.168120	0.042199
C22	C	0.350323	0.169391	0.042214
C23	C	0.392925	0.111971	-0.000207
C24	C	0.124952	0.183193	-0.000258
C25	C	0.052501	0.181920	-0.000262
C26	C	0.069099	0.030372	-0.000257
C27	C	0.141548	0.031647	-0.000246
C28	C	0.169470	0.108060	-0.000250
C29	C	0.825583	-0.041315	-0.000205
C30	C	0.824234	-0.133606	-0.000203
C31	C	0.884391	-0.356084	-0.000229
C32	C	0.883118	-0.442800	-0.000235
C33	C	0.756559	-0.422493	-0.000201
C34	C	0.757833	-0.335778	-0.000201
C35	C	0.821751	-0.302577	-0.000211
C36	C	0.819204	-0.476007	-0.000217
C37	C	0.817823	-0.570028	-0.000223
C38	C	0.823133	-0.208549	-0.000206
C39	C	0.947469	0.104163	-0.000244
C40	C	1.024576	0.105514	-0.000268
C41	C	0.815372	0.262732	-0.000219
C42	C	0.816722	0.355022	-0.000225
N43	N	0.820455	0.110698	0.188457
N44	N	0.820506	0.110712	-0.188879
C45	C	0.867703	0.054027	0.226549
C46	C	0.867707	0.054023	0.302777
C47	C	0.820470	0.110705	0.340910
C48	C	0.773213	0.167380	0.302808
C49	C	0.773205	0.167377	0.226582
C50	C	0.811353	0.186459	0.461668
C51	C	0.811365	0.186463	0.537893
C52	C	0.820490	0.110715	0.576017
C53	C	0.829616	0.034960	0.537908
C54	C	0.829609	0.034956	0.461681
C55	C	0.820473	0.110715	0.423564
C56	C	0.867746	0.054036	0.696764
C57	C	0.867745	0.054031	0.772993
C58	C	0.773254	0.167395	0.773023
C59	C	0.773251	0.167392	0.696796
C60	C	0.820500	0.110714	0.658671
H61	H	0.397770	0.006551	-0.077190
H62	H	0.734789	0.213542	0.804071
C63	C	0.721239	0.229714	0.344748
H64	H	0.693089	0.263457	0.311141
H65	H	0.746202	0.264257	0.374472
H66	H	0.692342	0.199872	0.374496
C67	C	0.954698	-0.319564	-0.000249
H68	H	0.991821	-0.363854	-0.000267
H69	H	0.957824	-0.286165	0.041980
H70	H	0.957829	-0.286154	-0.042486
H71	H	0.374621	0.217173	0.076768
C72	C	0.839637	-0.048366	0.419761
H73	H	0.845167	-0.093480	0.453377
H74	H	0.880018	-0.050123	0.389921
H75	H	0.799897	-0.052904	0.390129
H76	H	0.147687	0.245413	-0.000251
C77	C	0.952021	-0.501658	-0.000258
H78	H	0.942110	-0.558058	-0.000266
H79	H	0.978227	-0.491629	0.041964
H80	H	0.978230	-0.491607	-0.042501
H81	H	0.803910	0.248146	0.430633
H82	H	0.734779	0.213542	0.665779
C83	C	0.839658	-0.048370	0.579831
H84	H	0.845099	-0.093483	0.546217
H85	H	0.799978	-0.052867	0.609589
H86	H	0.880109	-0.050169	0.609544
C87	C	0.919706	-0.008316	0.654820
H88	H	0.912941	-0.000195	0.603966
H89	H	0.912176	-0.063780	0.667325
H90	H	0.966063	0.000573	0.667287
C91	C	0.231014	0.231272	0.088863
H92	H	0.183593	0.222107	0.082783
H93	H	0.236873	0.286486	0.073943
H94	H	0.243660	0.224171	0.138655
H95	H	0.177795	-0.029534	-0.000238
H96	H	0.046359	-0.031839	-0.000308
H97	H	0.594592	0.253255	-0.000181
H98	H	0.266341	0.004247	-0.077214
H99	H	0.704519	-0.449537	-0.000191
C100	C	0.688926	-0.276916	-0.000179
H101	H	0.650676	-0.309108	-0.000162
H102	H	0.686798	-0.242660	-0.042407
H103	H	0.686790	-0.242675	0.042058
C104	C	0.003531	0.264569	-0.000278
H105	H	0.030540	0.310256	-0.000285
H106	H	-0.025099	0.267227	0.041946
H107	H	-0.025052	0.267219	-0.042519
C108	C	0.450435	0.272411	-0.000212
H109	H	0.477441	0.318101	-0.000218
H110	H	0.421798	0.275072	0.042008
H111	H	0.421859	0.275053	-0.042458
C112	C	0.919668	-0.008325	0.184615
H113	H	0.947804	-0.042082	0.218224
H114	H	0.948569	0.021490	0.154856
H115	H	0.894684	-0.042865	0.154903
H116	H	0.906184	0.007874	0.333797
C117	C	0.919723	-0.008309	0.814895
H118	H	0.947864	-0.042056	0.781269
H119	H	0.894755	-0.042847	0.844649
H120	H	0.948627	0.021523	0.844611
H121	H	0.803938	0.248148	0.568916
H122	H	0.493264	-0.023992	-0.000188
C123	C	0.721234	0.229723	0.184679
H124	H	0.693103	0.263484	0.218304
H125	H	0.692329	0.199904	0.154959
H126	H	0.746214	0.264259	0.154929
C127	C	0.637429	-0.043159	-0.000149
H128	H	0.610421	-0.088847	-0.000158
H129	H	0.666017	-0.045817	0.042084
H130	H	0.666054	-0.045806	-0.042381
