data_functionalizedCrystal
_audit_creation_method	'MofGen! by Chris Wilmer'
_symmetry_space_group_name_H-M	'P1'
_symmetry_Int_Tables_number	1
_symmetry_cell_setting	triclinic
loop_
_symmetry_equiv_pos_as_xyz
  x,y,z
_cell_length_a	10.654554
_cell_length_b	17.019294
_cell_length_c	15.500369
_cell_angle_alpha	83.293667
_cell_angle_beta	92.855219
_cell_angle_gamma	83.939262
loop_
_atom_site_label
_atom_site_type_symbol
_atom_site_fract_x
_atom_site_fract_y
_atom_site_fract_z
O1	O	1.659575	0.114872	-0.080503
O2	O	2.159575	0.614872	0.419497
O3	O	1.293868	0.125464	-0.081293
O4	O	1.793868	0.625464	0.418707
O5	O	1.487618	0.004958	-0.072311
O6	O	1.987618	0.504958	0.427689
O7	O	1.465825	0.235378	-0.089485
O8	O	1.965825	0.735378	0.410515
O9	O	1.499313	-0.002330	0.072118
O10	O	1.999313	0.497670	0.572118
O11	O	1.305563	0.118176	0.063136
O12	O	1.805563	0.618176	0.563136
O13	O	1.671270	0.107585	0.063926
O14	O	2.171270	0.607585	0.563926
Cu15	Cu	1.489484	0.112215	0.076719
Cu16	Cu	1.989484	0.612215	0.576719
Cu17	Cu	1.475653	0.120834	-0.094085
Cu18	Cu	1.975653	0.620834	0.405915
O19	O	1.477520	0.228090	0.054944
O20	O	1.977520	0.728090	0.554944
C21	C	1.252934	0.121042	-0.009020
C22	C	1.752934	0.621042	0.490980
C23	C	1.113542	0.118713	-0.008847
C24	C	1.613542	0.618713	0.491153
C25	C	0.932610	0.043381	-0.003240
C26	C	1.432610	0.543381	0.496760
C27	C	1.063584	0.045569	-0.003397
C28	C	1.563584	0.545569	0.496603
C29	C	1.032517	0.189673	-0.014132
C30	C	1.532517	0.689673	0.485868
C31	C	0.901546	0.187484	-0.013969
C32	C	1.401546	0.687484	0.486031
C33	C	0.882659	-0.029766	0.002202
C34	C	1.382659	0.470234	0.502202
C35	C	0.963675	-0.100727	0.007489
C36	C	1.463675	0.399273	0.507489
C37	C	1.094650	-0.098540	0.007333
C38	C	1.594650	0.401460	0.507333
C39	C	1.144609	-0.025391	0.001889
C40	C	1.644609	0.474609	0.501889
C41	C	1.492870	-0.028190	0.002101
C42	C	1.992870	0.471810	0.502101
C43	C	1.491080	-0.116103	0.008648
C44	C	1.991080	0.383897	0.508648
C45	C	1.483867	-0.153428	-0.067004
C46	C	1.983867	0.346572	0.432996
C47	C	1.482178	-0.236032	-0.060850
C48	C	1.982178	0.263968	0.439150
C49	C	1.487710	-0.281309	0.020957
C50	C	1.987710	0.218691	0.520957
C51	C	1.494920	-0.243979	0.096615
C52	C	1.994920	0.256021	0.596615
C53	C	1.496600	-0.161376	0.090459
C54	C	1.996600	0.338624	0.590459
C55	C	1.482947	-0.530914	0.043480
C56	C	1.982947	-0.030914	0.543480
C57	C	1.481270	-0.613523	0.049630
C58	C	1.981270	-0.113523	0.549630
C59	C	1.468525	-0.605570	-0.107835
C60	C	1.968525	-0.105570	0.392165
C61	C	1.470214	-0.522967	-0.113983
C62	C	1.970214	-0.022967	0.386017
C63	C	1.477417	-0.485643	-0.038326
C64	C	1.977417	0.014357	0.461674
C65	C	1.485987	-0.365744	0.027250
C66	C	1.985987	0.134256	0.527250
C67	C	1.479131	-0.401209	-0.044619
C68	C	1.979131	0.098791	0.455381
C69	C	1.712203	0.112007	-0.008348
C70	C	2.212203	0.612007	0.491652
C71	C	1.851595	0.114336	-0.008527
C72	C	2.351595	0.614336	0.491473
C73	C	1.472268	0.261239	-0.019469
C74	C	1.972268	0.761239	0.480531
C75	C	1.474057	0.349152	-0.026022
C76	C	1.974057	0.849152	0.473978
N77	N	1.499221	0.106153	0.196853
N78	N	1.999221	0.606153	0.696853
N79	N	1.465926	0.126890	-0.214219
N80	N	1.965926	0.626890	0.285781
C81	C	1.548039	0.075847	0.744287
C82	C	2.048039	0.575847	1.244287
C83	C	1.540647	0.080442	0.653373
C84	C	2.040647	0.580442	1.153373
C85	C	1.451134	0.136075	0.603957
C86	C	1.951134	0.636075	1.103957
C87	C	1.369017	0.187123	0.645457
C88	C	1.869017	0.687123	1.145457
C89	C	1.376417	0.182532	0.736369
C90	C	1.876417	0.682532	1.236369
C91	C	1.424504	0.152609	0.329265
C92	C	1.924504	0.652609	0.829265
C93	C	1.417108	0.157195	0.238347
C94	C	1.917108	0.657195	0.738347
C95	C	1.588740	0.050514	0.246270
C96	C	2.088740	0.550514	0.746270
C97	C	1.596127	0.045925	0.337183
C98	C	2.096127	0.545925	0.837183
C99	C	1.514015	0.096975	0.378675
C100	C	2.014015	0.596975	0.878675
C101	C	1.443573	0.140771	0.511029
C102	C	1.943573	0.640771	1.011029
C103	C	1.521583	0.092283	0.471601
C104	C	2.021583	0.592283	0.971601
H105	H	1.479369	-0.116569	-0.133620
H106	H	1.979369	0.383431	0.366380
C107	C	1.270551	0.248320	0.591096
C108	C	1.770551	0.748320	1.091096
N109	N	1.196381	0.294413	0.550151
N110	N	1.696381	0.794413	1.050151
H111	H	1.160611	-0.156320	0.011646
H112	H	1.660611	0.343680	0.511646
C113	C	1.334165	0.208759	0.374895
C114	C	1.834165	0.708759	0.874895
N115	N	1.266114	0.251052	0.409267
N116	N	1.766114	0.751052	0.909267
C117	C	1.694561	-0.015300	0.391536
C118	C	2.194561	0.484700	0.891536
N119	N	1.768687	-0.061425	0.432476
N120	N	2.268687	0.438575	0.932476
H121	H	1.251259	-0.023616	0.001770
H122	H	1.751259	0.476384	0.501770
H123	H	1.476309	-0.266418	-0.122453
H124	H	1.976309	0.233582	0.377547
C125	C	1.087478	0.270131	-0.020128
C126	C	1.587478	0.770131	0.479872
N127	N	1.128874	0.330733	-0.024647
N128	N	1.628874	0.830733	0.475353
C129	C	1.286083	0.238680	0.782012
C130	C	1.786083	0.738680	1.282012
N131	N	1.218042	0.280975	0.816390
N132	N	1.718042	0.780975	1.316390
C133	C	1.473052	-0.351401	-0.134604
C134	C	1.973052	0.148599	0.365396
N135	N	1.468483	-0.313880	-0.202381
N136	N	1.968483	0.186120	0.297619
H137	H	1.490496	-0.402619	0.093857
H138	H	1.990496	0.097381	0.593857
C139	C	1.318563	0.218354	0.183994
C140	C	1.818563	0.718354	0.683994
N141	N	1.244315	0.264398	0.143056
N142	N	1.744315	0.764398	0.643056
H143	H	1.499417	-0.280850	0.163223
H144	H	1.999417	0.219150	0.663223
H145	H	1.655593	0.008952	0.212478
H146	H	2.155593	0.508952	0.712478
C147	C	1.620042	0.031086	0.525962
C148	C	2.120042	0.531086	1.025962
N149	N	1.694197	-0.015010	0.566915
N150	N	2.194197	0.484990	1.066915
H151	H	0.922989	-0.160282	0.011914
H152	H	1.422989	0.339718	0.511914
H153	H	1.370687	0.186067	0.470786
H154	H	1.870687	0.686067	0.970786
H155	H	0.835581	0.245262	-0.018271
H156	H	1.335581	0.745262	0.481729
C157	C	1.464128	-0.473167	-0.203977
C158	C	1.964128	0.026833	0.296023
N159	N	1.459548	-0.435658	-0.271762
N160	N	1.959548	0.064342	0.228238
H161	H	0.776015	-0.031556	0.002328
H162	H	1.276015	0.468444	0.502328
H163	H	1.462659	-0.635968	-0.169431
H164	H	1.962659	-0.135968	0.330569
C165	C	1.487352	-0.663327	0.139627
C166	C	1.987352	-0.163327	0.639627
N167	N	1.491934	-0.700839	0.207410
N168	N	1.991934	-0.200839	0.707410
H169	H	1.488837	-0.500537	0.105086
H170	H	1.988837	-0.000537	0.605086
H171	H	1.620925	0.030542	0.784516
H172	H	2.120925	0.530542	1.284516
H173	H	1.502456	-0.130986	0.152063
H174	H	2.002456	0.369014	0.652063
H175	H	1.607510	0.038880	0.619589
H176	H	2.107510	0.538880	1.119589
