data_functionalizedCrystal
_audit_creation_method	'MofGen! by Chris Wilmer'
_symmetry_space_group_name_H-M	'P1'
_symmetry_Int_Tables_number	1
_symmetry_cell_setting	triclinic
loop_
_symmetry_equiv_pos_as_xyz
  x,y,z
_cell_length_a	15.944551
_cell_length_b	12.837942
_cell_length_c	11.295501
_cell_angle_alpha	85.830212
_cell_angle_beta	85.405910
_cell_angle_gamma	89.163839
loop_
_atom_site_label
_atom_site_type_symbol
_atom_site_fract_x
_atom_site_fract_y
_atom_site_fract_z
O1	O	-1.130758	-0.139917	0.098899
O2	O	-0.887528	-0.156402	0.098928
O3	O	-1.003749	0.002744	0.098907
O4	O	-1.014537	-0.299063	0.098920
O5	O	-0.992646	0.015206	-0.099143
O6	O	-0.876425	-0.143940	-0.099122
O7	O	-1.119655	-0.127455	-0.099151
Cu8	Cu	-0.997026	-0.134559	-0.117220
Cu9	Cu	-1.010157	-0.149297	0.116997
O10	O	-1.003434	-0.286601	-0.099130
C11	C	-0.850628	-0.149487	-0.000093
C12	C	-0.757219	-0.147436	-0.000082
C13	C	-0.994554	0.047596	-0.000117
C14	C	-0.983686	0.162674	-0.000114
C15	C	-1.156555	-0.134370	-0.000127
C16	C	-1.249965	-0.136421	-0.000130
C17	C	-0.534077	-0.043885	-0.000109
C18	C	-0.482378	-0.098114	0.097542
C19	C	-0.586195	-0.143724	-0.000096
C20	C	-0.471456	-0.085852	-0.097720
C21	C	-0.420994	-0.140130	-0.000115
C22	C	-0.535731	-0.197985	0.097636
C23	C	-0.524809	-0.185703	-0.097714
C24	C	-0.473135	-0.240006	-0.000038
C25	C	-0.681364	-0.145791	-0.000084
C26	C	-0.325828	-0.138071	-0.000118
C27	C	-1.012629	-0.331453	-0.000103
C28	C	-1.023498	-0.446531	-0.000099
N29	N	-0.987797	-0.124193	-0.281955
C30	C	-1.114339	0.403623	-0.000105
C31	C	-1.104132	0.511749	-0.000101
C32	C	-0.953066	0.487054	-0.000095
C33	C	-0.963273	0.378928	-0.000099
C34	C	-1.043912	0.337217	-0.000105
C35	C	-1.054118	0.229089	-0.000117
C36	C	-0.903053	0.204396	-0.000102
C37	C	-0.892846	0.312522	-0.000099
C38	C	-1.085824	-0.234328	-0.531252
C39	C	-1.078855	-0.226485	-0.655915
C40	C	-0.966896	-0.100661	-0.655947
C41	C	-0.973864	-0.108503	-0.531284
C42	C	-1.033330	-0.175340	-0.468941
C43	C	-1.040294	-0.183187	-0.344275
C44	C	-0.928339	-0.057358	-0.344309
C45	C	-0.921370	-0.049515	-0.468973
N46	N	-1.019392	-0.159655	0.281733
H47	H	-0.560789	0.038965	0.000008
Cl48	Cl	-1.144853	-0.300642	-0.734246
Cl49	Cl	-0.892147	-0.016643	-0.734341
Cl50	Cl	-0.453261	-0.040943	0.225001
H51	H	-1.161482	0.565814	-0.000097
Cl52	Cl	-0.553960	-0.242825	-0.225177
H53	H	-0.885590	-0.009331	-0.293562
H54	H	-0.872957	0.004905	-0.519749
Cl55	Cl	-0.791477	0.364970	-0.000081
H56	H	-0.446614	-0.322952	0.000020
H57	H	-1.119779	0.195130	-0.000126
H58	H	-0.563727	-0.245381	0.180282
Cl59	Cl	-0.428083	-0.012611	-0.225179
Cl60	Cl	-1.215709	0.351183	-0.000142
Cl61	Cl	-0.851701	0.539509	-0.000052
Cl62	Cl	-1.115050	-0.267208	-0.265903
Cl63	Cl	-0.814510	0.120908	-0.000118
H64	H	-1.134236	-0.288759	-0.480491
