data_functionalizedCrystal
_audit_creation_method	'MofGen! by Chris Wilmer'
_symmetry_space_group_name_H-M	'P1'
_symmetry_Int_Tables_number	1
_symmetry_cell_setting	triclinic
loop_
_symmetry_equiv_pos_as_xyz
  x,y,z
_cell_length_a	15.625950
_cell_length_b	15.944564
_cell_length_c	14.185569
_cell_angle_alpha	103.157742
_cell_angle_beta	120.545593
_cell_angle_gamma	96.106936
loop_
_atom_site_label
_atom_site_type_symbol
_atom_site_fract_x
_atom_site_fract_y
_atom_site_fract_z
O1	O	1.290666	-0.021748	0.385916
O2	O	1.790666	0.478252	0.885916
O3	O	1.002543	-0.058684	0.281140
O4	O	1.502543	0.441316	0.781140
O5	O	1.154468	0.082704	0.336397
O6	O	1.654468	0.582704	0.836397
O7	O	1.138740	-0.163136	0.330659
O8	O	1.638740	0.336864	0.830659
O9	O	1.199348	0.124467	0.519555
O10	O	1.699348	0.624467	1.019555
O11	O	1.047423	-0.016921	0.464298
O12	O	1.547423	0.483079	0.964298
O13	O	1.335546	0.020015	0.569073
O14	O	1.835546	0.520015	1.069073
Cu15	Cu	1.195582	0.005360	0.533410
Cu16	Cu	1.695582	0.505360	1.033410
Cu17	Cu	1.142506	-0.044029	0.316804
Cu18	Cu	1.642506	0.455971	0.816804
O19	O	1.183620	-0.121373	0.513817
O20	O	1.683620	0.378627	1.013817
C21	C	0.988113	-0.040266	0.359312
C22	C	1.488113	0.459734	0.859312
C23	C	0.878252	-0.047594	0.319362
C24	C	1.378252	0.452406	0.819362
C25	C	0.639129	0.042051	0.687032
C26	C	1.139129	0.542051	1.187032
C27	C	0.535883	0.035136	0.649441
C28	C	1.035883	0.535136	1.149441
C29	C	0.487008	-0.010389	0.449788
C30	C	0.987008	0.489611	0.949788
C31	C	0.590251	-0.003482	0.487362
C32	C	1.090251	0.496518	0.987362
C33	C	0.666304	0.022739	0.605985
C34	C	1.166304	0.522739	1.105985
C35	C	0.617426	-0.022794	0.406316
C36	C	1.117426	0.477206	0.906316
C37	C	0.720661	-0.015883	0.443888
C38	C	1.220661	0.484117	0.943888
C39	C	0.796720	0.010340	0.562506
C40	C	1.296720	0.510340	1.062506
C41	C	0.769539	0.029650	0.643557
C42	C	1.269539	0.529650	1.143557
C43	C	0.541372	-0.049009	0.287693
C44	C	1.041372	0.450991	0.787693
C45	C	0.568547	-0.068321	0.206647
C46	C	1.068547	0.431679	0.706647
C47	C	0.671783	-0.061416	0.244218
C48	C	1.171783	0.438584	0.744218
C49	C	0.747842	-0.035194	0.362836
C50	C	1.247842	0.464806	0.862836
C51	C	0.698964	-0.080727	0.163166
C52	C	1.198964	0.419273	0.663166
C53	C	0.802199	-0.073816	0.200738
C54	C	1.302199	0.426184	0.700738
C55	C	0.851077	-0.028283	0.400408
C56	C	1.351077	0.471717	0.900408
C57	C	1.176254	0.134826	0.427738
C58	C	1.676254	0.634826	0.927738
C59	C	1.174290	0.227911	0.427025
C60	C	1.674290	0.727911	0.927025
C61	C	1.075421	0.434672	0.391059
C62	C	1.575421	0.934672	0.891059
C63	C	1.143451	0.520037	0.498059
C64	C	1.643451	1.020037	0.998059
C65	C	1.170736	0.398343	0.425726
C66	C	1.670736	0.898343	0.925726
C67	C	1.099225	0.478847	0.317488
C68	C	1.599225	0.978847	0.817488
C69	C	1.167295	0.562971	0.424464
C70	C	1.667295	1.062971	0.924464
C71	C	1.238811	0.482500	0.532810
C72	C	1.738811	0.982500	1.032810
C73	C	1.194552	0.441284	0.352153
C74	C	1.694552	0.941284	0.852153
C75	C	1.262657	0.526642	0.459201
C76	C	1.762657	1.026642	0.959201
C77	C	1.172716	0.303505	0.426453
C78	C	1.672716	0.803505	0.926453
C79	C	1.165324	0.657810	0.423747
C80	C	1.665324	1.157810	0.923747
C81	C	1.349975	0.001596	0.490900
C82	C	1.849975	0.501596	0.990900
C83	C	1.459834	0.008923	0.530843
C84	C	1.959834	0.508923	1.030843
C85	C	1.161821	0.826503	0.422469
C86	C	1.661821	1.326503	0.922469
C87	C	1.163744	0.733409	0.423164
C88	C	1.663744	1.233409	0.923164
N89	N	1.232920	0.040100	0.685761
N90	N	1.732920	0.540100	1.185761
N91	N	1.105176	-0.078761	0.164456
N92	N	1.605176	0.421239	0.664456
C93	C	0.995477	-0.180789	0.967050
C94	C	1.495477	0.319211	1.467050
C95	C	1.023767	-0.154479	1.082361
C96	C	1.523767	0.345521	1.582361
C97	C	1.158324	-0.029320	1.131262
C98	C	1.658324	0.470680	1.631262
C99	C	1.130042	-0.055617	1.015952
C100	C	1.630042	0.444383	1.515952
C101	C	1.048619	-0.131352	0.933854
C102	C	1.548619	0.368648	1.433854
C103	C	1.183184	-0.006180	0.982756
C104	C	1.683184	0.493820	1.482756
C105	C	1.154908	-0.032477	0.867457
C106	C	1.654908	0.467523	1.367457
C107	C	1.073490	-0.108211	0.785354
C108	C	1.573490	0.391789	1.285354
C109	C	1.020343	-0.157649	0.818555
C110	C	1.520343	0.342351	1.318555
C111	C	1.264612	0.069551	1.064857
C112	C	1.764612	0.569551	1.564857
C113	C	1.317754	0.118988	1.031661
C114	C	1.817754	0.618988	1.531661
C115	C	1.289473	0.092694	0.916359
C116	C	1.789473	0.592694	1.416359
C117	C	1.208055	0.016961	0.834256
C118	C	1.708055	0.516961	1.334256
C119	C	1.342620	0.142132	0.883157
C120	C	1.842620	0.642132	1.383157
C121	C	1.314344	0.115835	0.767858
C122	C	1.814344	0.615835	1.267858
C123	C	1.179778	-0.009337	0.718957
C124	C	1.679778	0.490663	1.218957
H125	H	0.831465	0.050989	0.740151
H126	H	1.331465	0.550989	1.240151
Cl127	Cl	0.946694	0.004671	0.549537
Cl128	Cl	1.446694	0.504671	1.049537
H129	H	0.457312	-0.054640	0.257106
H130	H	0.957312	0.445360	0.757106
H131	H	0.880780	0.015967	0.593095
H132	H	1.380780	0.515967	1.093095
H133	H	1.408922	0.203792	0.950018
H134	H	1.908922	0.703792	1.450018
H135	H	0.425072	-0.031735	0.353205
H136	H	0.925072	0.468265	0.853205
H137	H	0.701055	0.063390	0.783626
H138	H	1.201055	0.563390	1.283626
Cl139	Cl	0.603350	-0.113654	0.014048
Cl140	Cl	1.103350	0.386346	0.514048
Cl141	Cl	1.110096	0.572868	0.593303
Cl142	Cl	1.610096	1.072868	1.093303
H143	H	1.297819	0.483234	0.623890
H144	H	1.797819	0.983234	1.123890
Cl145	Cl	0.501728	0.059432	0.751343
Cl146	Cl	1.001728	0.559432	1.251343
H147	H	1.216122	0.407040	0.290449
H148	H	1.716122	0.907040	0.790449
H149	H	0.506612	-0.089667	0.110063
H150	H	1.006612	0.410333	0.610063
Cl151	Cl	0.917969	-0.252855	0.715338
Cl152	Cl	1.417969	0.247145	1.215338
H153	H	1.040190	0.478214	0.226470
H154	H	1.540190	0.978214	0.726470
Cl155	Cl	1.384921	0.587862	0.503730
Cl156	Cl	1.884921	1.087862	1.003730
H157	H	1.384053	0.180651	1.098519
H158	H	1.884053	0.680651	1.598519
H159	H	0.996332	0.394910	0.362381
H160	H	1.496332	0.894910	0.862381
Cl161	Cl	0.836367	-0.098091	0.098851
Cl162	Cl	1.336367	0.401909	0.598851
H163	H	1.113468	-0.071003	0.652105
H164	H	1.613468	0.428997	1.152105
Cl165	Cl	1.037946	-0.141275	0.640406
Cl166	Cl	1.537946	0.358725	1.140406
Cl167	Cl	0.893103	-0.275994	0.863833
Cl168	Cl	1.393103	0.224006	1.363833
H169	H	0.980486	-0.194744	1.109379
H170	H	1.480486	0.305256	1.609379
Cl171	Cl	1.260684	0.065886	1.234477
Cl172	Cl	1.760684	0.565886	1.734477
H173	H	1.287635	0.090957	1.158740
H174	H	1.787635	0.590957	1.658740
H175	H	1.357619	0.156091	0.740833
H176	H	1.857619	0.656091	1.240833
