data_functionalizedCrystal
_audit_creation_method	'MofGen! by Chris Wilmer'
_symmetry_space_group_name_H-M	'P1'
_symmetry_Int_Tables_number	1
_symmetry_cell_setting	triclinic
loop_
_symmetry_equiv_pos_as_xyz
  x,y,z
_cell_length_a	31.640172
_cell_length_b	21.606444
_cell_length_c	21.606444
_cell_angle_alpha	59.993693
_cell_angle_beta	60.001198
_cell_angle_gamma	90.005175
loop_
_atom_site_label
_atom_site_type_symbol
_atom_site_fract_x
_atom_site_fract_y
_atom_site_fract_z
Zr1	Zr	0.407185	-0.081253	0.677431
O2	O	0.339696	-0.180111	0.806570
O3	O	0.427873	-0.050933	0.548298
O4	O	0.427874	-0.180072	0.677423
O5	O	0.339695	0.050878	0.677449
O6	O	0.497431	-0.180058	0.677410
O7	O	0.339695	-0.050972	0.677445
O8	O	0.497430	0.050947	0.446430
O9	O	0.339696	-0.180128	0.908430
O10	O	0.488607	-0.038010	0.601401
O11	O	0.436697	0.037989	0.601414
O12	O	0.436698	-0.114055	0.753441
O13	O	0.384788	-0.038056	0.753454
Zr14	Zr	0.518120	0.081207	0.677418
Zr15	Zr	0.518120	-0.081232	0.677411
Zr16	Zr	0.407184	0.081185	0.677438
Zr17	Zr	0.407185	-0.081280	0.839886
Zr18	Zr	0.518119	0.081234	0.514962
O19	O	0.497431	0.050887	0.806550
O20	O	0.497431	-0.180080	0.806540
O21	O	0.339695	0.050856	0.806579
O22	O	0.585609	0.180064	0.548279
O23	O	0.585609	-0.050902	0.548269
O24	O	0.427873	0.180034	0.548308
O25	O	0.585610	-0.050924	0.677399
O26	O	0.497431	0.180026	0.677426
O27	O	0.427874	0.180012	0.677439
O28	O	0.585610	0.050926	0.677404
O29	O	0.427875	-0.180110	0.908413
O30	O	0.497430	0.180064	0.446435
O31	O	0.585609	0.180081	0.446419
O32	O	0.585609	0.050964	0.446414
O33	O	0.339696	-0.051011	0.908435
O34	O	0.427875	-0.050993	0.908419
O35	O	0.488607	0.114009	0.601407
O36	O	0.540516	0.038010	0.601395
O37	O	0.488607	-0.038035	0.753435
O38	O	0.436698	0.037964	0.753448
C39	C	0.323889	-0.000050	0.677450
C40	C	0.276794	-0.000059	0.677459
C41	C	0.462651	0.000011	0.474218
C42	C	0.462651	0.000022	0.405251
C43	C	0.462652	0.203163	0.677433
C44	C	0.462652	0.272122	0.677436
C45	C	0.011884	0.039687	0.598053
C46	C	-0.165101	0.039702	0.598037
O47	O	-0.164943	0.073488	0.530541
N48	N	-0.214327	0.000006	0.677400
C49	C	-0.219306	-0.039692	0.756773
O50	O	-0.265236	-0.073449	0.824276
C51	C	-0.042321	-0.039702	0.756787
C52	C	0.006904	-0.000010	0.677419
C53	C	0.061107	0.079376	0.518691
C54	C	0.105350	0.079369	0.518695
C55	C	0.100371	0.039672	0.598062
C56	C	0.051148	-0.000018	0.677423
C57	C	-0.047300	-0.079395	0.836159
C58	C	-0.003049	-0.079393	0.836155
C59	C	0.046176	-0.039701	0.756787
C60	C	0.090411	-0.039722	0.756794
N61	N	0.139637	-0.000026	0.677431
C62	C	0.144617	0.039671	0.598065
C63	C	-0.312223	-0.039685	0.756760
C64	C	-0.356469	-0.039684	0.756756
C65	C	-0.302262	0.039711	0.598021
C66	C	-0.258015	0.039705	0.598025
C67	C	-0.262997	0.000011	0.677397
C68	C	0.237529	0.039651	0.598081
C69	C	0.281774	0.039638	0.598092
C70	C	0.227562	-0.039754	0.756828
C71	C	0.183321	-0.039744	0.756816
C72	C	0.188308	-0.000036	0.677436
O73	O	0.090292	-0.073484	0.824255
O74	O	0.190551	0.073436	0.530572
C75	C	-0.032359	0.039694	0.598048
C76	C	-0.081582	0.000005	0.677410
C77	C	-0.086562	-0.039692	0.756776
C78	C	-0.125828	0.000006	0.677406
C79	C	-0.120849	0.039703	0.598040
C80	C	-0.071623	0.079399	0.518677
C81	C	-0.027380	0.079391	0.518682
C82	C	-0.135788	-0.079388	0.836139
C83	C	-0.180029	-0.079378	0.836128
C84	C	-0.175049	-0.039681	0.756762
C85	C	0.601416	0.000004	0.677399
C86	C	0.648511	0.000013	0.677390
C87	C	0.462652	-0.203209	0.677416
C88	C	0.462653	-0.272168	0.677413
C89	C	0.435557	0.264827	0.756799
C90	C	0.435555	0.329624	0.756797
C91	C	0.462651	0.401716	0.677430
C92	C	0.489747	0.409010	0.598061
C93	C	0.489746	0.344213	0.598065
C94	C	0.489751	0.670328	0.598046
C95	C	0.489751	0.735126	0.598049
C96	C	0.435560	0.655739	0.756778
C97	C	0.435559	0.590942	0.756781
C98	C	0.462652	0.598242	0.677413
C99	C	0.462654	0.527981	0.677416
C100	C	0.462653	0.471976	0.677426
C101	C	0.424330	-0.056111	0.428991
C102	C	0.424332	-0.056127	0.364201
C103	C	0.462652	-0.000005	0.275673
C104	C	0.500977	0.056131	0.251934
C105	C	0.500977	0.056143	0.316723
C106	C	0.500977	0.056083	-0.009353
C107	C	0.500973	0.056068	-0.074141
C108	C	0.424331	-0.056186	0.038126
C109	C	0.424331	-0.056174	0.102915
C110	C	0.462657	-0.000041	0.079170
C111	C	0.462656	-0.000025	0.149423
C112	C	0.462652	-0.000017	0.205421
C113	C	0.462653	-0.000057	0.880631
C114	C	0.462653	-0.000069	0.949598
C115	C	0.601415	0.000038	0.474192
C116	C	0.648510	0.000059	0.405217
C117	C	0.462651	0.203197	0.474226
C118	C	0.462651	0.272168	0.405263
C119	C	0.601415	0.203224	0.474201
C120	C	0.648509	0.272204	0.405229
C121	C	0.323890	-0.203270	0.880648
C122	C	0.276795	-0.272250	0.949620
C123	C	0.323890	-0.000084	0.880657
C124	C	0.276795	-0.000105	0.949632
C125	C	0.462653	-0.203243	0.880622
C126	C	0.462654	-0.272214	0.949586
C127	C	0.643529	-0.039620	0.372829
C128	C	0.687776	-0.039615	0.308028
C129	C	0.737002	0.000072	0.275613
C130	C	0.741981	0.039752	0.308007
C131	C	0.697735	0.039743	0.372811
C132	C	0.489747	0.344245	0.372874
C133	C	0.489745	0.409057	0.308084
C134	C	0.462649	0.401790	0.275681
C135	C	0.435550	0.329704	0.308076
C136	C	0.435549	0.264894	0.372869
C137	C	0.697726	0.264927	0.372832
C138	C	0.741981	0.329735	0.308034
C139	C	0.737018	0.401819	0.275630
C140	C	0.687795	0.409095	0.308033
C141	C	0.643542	0.344288	0.372834
C142	C	0.227578	-0.264973	0.982025
C143	C	0.183323	-0.329781	1.046843
C144	C	0.188287	-0.401865	1.079250
C145	C	0.237509	-0.409141	1.046843
C146	C	0.281763	-0.344334	0.982031
C147	C	0.281775	0.039567	0.982027
C148	C	0.237529	0.039545	1.046845
C149	C	0.188303	-0.000145	1.079263
C150	C	0.183324	-0.039822	1.046865
C151	C	0.227570	-0.039804	0.982053
C152	C	0.489754	-0.264922	0.981969
C153	C	0.489765	-0.329721	1.046759
C154	C	0.462671	-0.401812	1.079169
C155	C	0.435569	-0.409102	1.046780
C156	C	0.435562	-0.344304	0.981986
H157	H	0.321855	0.071962	0.533458
H158	H	0.223508	-0.072107	0.955678
H159	H	0.511812	0.350177	0.399249
Br160	Br	0.398758	0.319719	0.864508
Br161	Br	0.526526	0.506877	0.264131
Br162	Br	0.116529	-0.319889	1.090809
Br163	Br	0.576728	-0.093490	0.416809
Br164	Br	0.704503	0.093602	0.416754
Br165	Br	0.552982	0.132239	-0.194292
Br166	Br	0.808776	0.319843	0.264070
Br167	Br	0.552987	0.132294	0.131788
Br168	Br	0.116513	-0.093681	1.090868
Br169	Br	0.797082	0.489766	0.187685
Br170	Br	0.220827	-0.167153	0.938055
H171	H	0.462654	0.454568	0.222922
H172	H	0.683761	0.467794	0.281640
H173	H	0.603468	0.350223	0.399203
Br174	Br	0.244303	0.093541	0.490349
Br175	Br	0.128223	-0.489812	1.167211
Br176	Br	0.398787	0.493105	0.864496
H177	H	0.511817	-0.206228	0.955590
Br178	Br	0.244237	-0.506976	1.090832
H179	H	0.511806	0.467713	0.533440
Br180	Br	0.220815	-0.093614	0.864534
H181	H	0.683712	-0.071927	0.281660
H182	H	0.321836	-0.350268	0.955647
H183	H	0.511834	-0.323771	1.073123
H184	H	0.511814	0.676282	0.533419
Br185	Br	0.398796	-0.506946	1.090782
Br186	Br	0.348576	0.093436	0.938048
Br187	Br	0.244298	0.093397	1.090797
H188	H	0.152279	-0.000154	1.132038
Br189	Br	0.797045	0.000077	0.187663
Br190	Br	0.462685	-0.489746	1.167105
H191	H	0.511808	0.350158	0.533439
H192	H	-0.298214	0.072030	0.533397
Br193	Br	0.398774	-0.354214	0.938053
H194	H	0.012698	0.111714	0.454052
Br195	Br	0.552990	0.132322	0.284503
Br196	Br	0.372318	-0.132275	0.549134
Br197	Br	0.172151	0.133245	0.410976
H198	H	0.532184	0.101791	-0.028697
H199	H	0.065170	0.111706	0.454058
H200	H	0.782066	0.072064	0.281605
Br201	Br	-0.191213	0.093575	0.490308
H202	H	-0.316288	-0.072014	0.821397
Br203	Br	-0.114097	-0.133260	0.943880
Br204	Br	-0.009815	-0.133264	0.943880
Br205	Br	-0.423271	-0.093567	0.864475
Br206	Br	0.398780	0.319854	0.264090
Br207	Br	0.398774	0.167077	0.416815
H208	H	0.143239	-0.072074	0.821444
Br209	Br	-0.246833	-0.133254	0.943853
Br210	Br	-0.064874	0.133269	0.410967
H211	H	-0.139850	-0.111716	0.900770
H212	H	0.413494	0.206130	0.821428
H213	H	0.413497	0.649802	0.821404
H214	H	0.511816	0.793828	0.533415
Br215	Br	0.372322	-0.132310	0.396425
H216	H	0.393125	-0.101871	0.174997
H217	H	0.393126	-0.101895	0.057454
H218	H	0.701778	0.206238	0.399206
