data_functionalizedCrystal
_audit_creation_method	'MofGen! by Chris Wilmer'
_symmetry_space_group_name_H-M	'P1'
_symmetry_Int_Tables_number	1
_symmetry_cell_setting	triclinic
loop_
_symmetry_equiv_pos_as_xyz
  x,y,z
_cell_length_a	15.021413
_cell_length_b	16.992694
_cell_length_c	16.992695
_cell_angle_alpha	89.331777
_cell_angle_beta	89.996007
_cell_angle_gamma	89.997805
loop_
_atom_site_label
_atom_site_type_symbol
_atom_site_fract_x
_atom_site_fract_y
_atom_site_fract_z
O1	O	0.073921	-1.050854	0.166906
O2	O	0.407255	-0.717521	0.500240
O3	O	0.740588	-0.384188	0.833573
O4	O	0.073948	-0.822454	0.165075
O5	O	0.407281	-0.489121	0.498408
O6	O	0.740614	-0.155788	0.831742
O7	O	0.073927	-0.935739	0.051791
O8	O	0.407261	-0.602405	0.385124
O9	O	0.740594	-0.269072	0.718457
O10	O	0.073941	-0.937570	0.280191
O11	O	0.407275	-0.604237	0.613524
O12	O	0.740608	-0.270903	0.946857
O13	O	-0.074137	-0.935721	0.051807
O14	O	0.259197	-0.602387	0.385140
O15	O	0.592530	-0.269054	0.718473
O16	O	-0.074117	-0.822436	0.165091
O17	O	0.259217	-0.489103	0.498425
O18	O	0.592550	-0.155769	0.831758
O19	O	-0.074143	-1.050836	0.166922
O20	O	0.259190	-0.717503	0.500256
O21	O	0.592524	-0.384170	0.833589
Zn22	Zn	-0.097638	-0.936633	0.166009
Zn23	Zn	0.235695	-0.603300	0.499343
Zn24	Zn	0.569028	-0.269967	0.832676
Zn25	Zn	0.097443	-0.936657	0.165988
Zn26	Zn	0.430776	-0.603324	0.499322
Zn27	Zn	0.764109	-0.269991	0.832655
O28	O	-0.074123	-0.937552	0.280207
O29	O	0.259210	-0.604218	0.613540
O30	O	0.592544	-0.270885	0.946874
C31	C	-0.000081	-0.793085	0.162727
C32	C	0.333252	-0.459752	0.496061
C33	C	0.666585	-0.126418	0.829394
C34	C	-0.000071	-0.705600	0.155699
C35	C	0.333262	-0.372267	0.489032
C36	C	0.666595	-0.038934	0.822365
N37	N	-0.230776	-0.936623	0.166024
N38	N	0.102558	-0.603289	0.499357
N39	N	0.435891	-0.269956	0.832690
C40	C	-0.000104	-0.933374	0.022439
C41	C	0.333229	-0.600041	0.355772
C42	C	0.666562	-0.266707	0.689105
C43	C	-0.000103	-0.926345	-0.065046
C44	C	0.333230	-0.593012	0.268287
C45	C	0.666563	-0.259678	0.601621
C46	C	-0.470450	-0.884230	0.218380
C47	C	-0.137116	-0.550896	0.551713
C48	C	0.196217	-0.217563	0.885046
C49	C	-0.529791	-0.956318	0.238115
C50	C	-0.196458	-0.622984	0.571449
C51	C	0.136875	-0.289651	0.904782
C52	C	-0.412383	-0.936642	0.166005
C53	C	-0.079049	-0.603308	0.499339
C54	C	0.254284	-0.269975	0.832672
C55	C	-0.529783	-0.864574	0.146288
C56	C	-0.196449	-0.531241	0.479622
C57	C	0.136884	-0.197907	0.812955
C58	C	-0.587807	-0.936654	0.165989
C59	C	-0.254473	-0.603320	0.499322
C60	C	0.078860	-0.269987	0.832656
C61	C	-0.470418	-1.008768	0.185779
C62	C	-0.137085	-0.675434	0.519112
C63	C	0.196249	-0.342101	0.852445
C64	C	-0.470404	-0.916975	0.093918
C65	C	-0.137071	-0.583642	0.427251
C66	C	0.196263	-0.250308	0.760585
C67	C	-0.529719	-0.989113	0.113627
C68	C	-0.196386	-0.655779	0.446960
C69	C	0.136948	-0.322446	0.780293
C70	C	-0.311325	-0.936634	0.166017
C71	C	0.022008	-0.603300	0.499350
C72	C	0.355341	-0.269967	0.832683
C73	C	-0.688862	-0.936670	0.165977
C74	C	-0.355529	-0.603336	0.499311
C75	C	-0.022195	-0.270003	0.832644
N76	N	0.230580	-0.936674	0.165968
N77	N	0.563914	-0.603340	0.499301
N78	N	0.897247	-0.270007	0.832635
C79	C	-0.000112	-1.080205	0.169270
C80	C	0.333221	-0.746872	0.502603
C81	C	0.666555	-0.413539	0.835937
C82	C	-0.000116	-1.167690	0.176299
C83	C	0.333217	-0.834357	0.509632
C84	C	0.666551	-0.501023	0.842966
C85	C	-0.000068	-0.659610	0.223517
C86	C	0.333265	-0.326276	0.556850
C87	C	0.666599	0.007057	0.890183
C88	C	-0.000081	-0.577409	0.216908
C89	C	0.333253	-0.244075	0.550241
C90	C	0.666586	0.089258	0.883574
C91	C	-0.000090	-0.541201	0.142480
C92	C	0.333243	-0.207867	0.475813
C93	C	0.666576	0.125466	0.809147
C94	C	-0.000097	-0.587198	0.074657
C95	C	0.333237	-0.253864	0.407990
C96	C	0.666570	0.079469	0.741324
C97	C	-0.000090	-0.669397	0.081267
C98	C	0.333243	-0.336063	0.414600
C99	C	0.666576	-0.002730	0.747933
C100	C	-0.000116	-0.295886	0.115086
C101	C	0.333217	0.037447	0.448419
C102	C	0.666551	0.370780	0.781752
C103	C	-0.000120	-0.213681	0.108481
C104	C	0.333214	0.119652	0.441814
C105	C	0.666547	0.452986	0.775148
C106	C	-0.000105	-0.203898	0.250732
C107	C	0.333228	0.129435	0.584066
C108	C	0.666561	0.462769	0.917399
C109	C	-0.000094	-0.286099	0.257336
C110	C	0.333240	0.047234	0.590669
C111	C	0.666573	0.380568	0.924002
C112	C	-0.000104	-0.332089	0.189512
C113	C	0.333229	0.001244	0.522846
C114	C	0.666562	0.334578	0.856179
N115	N	-0.000101	-0.457178	0.135723
N116	N	0.333233	-0.123845	0.469056
N117	N	0.666566	0.209488	0.802390
N118	N	-0.000101	-0.416110	0.196270
N119	N	0.333233	-0.082776	0.529604
N120	N	0.666566	0.250557	0.862937
C121	C	-0.000112	-0.994163	-0.111037
C122	C	0.333221	-0.660830	0.222296
C123	C	0.666555	-0.327496	0.555630
C124	C	-0.000103	-0.987554	-0.193238
C125	C	0.333231	-0.654221	0.140096
C126	C	0.666564	-0.320887	0.473429
C127	C	-0.000091	-0.913127	-0.229446
C128	C	0.333242	-0.579793	0.103887
C129	C	0.666575	-0.246460	0.437221
C130	C	-0.000080	-0.845303	-0.183449
C131	C	0.333254	-0.511970	0.149884
C132	C	0.666587	-0.178637	0.483218
C133	C	-0.000083	-0.851913	-0.101250
C134	C	0.333251	-0.518580	0.232084
C135	C	0.666584	-0.185246	0.565417
C136	C	-0.000076	-0.885732	-0.474760
C137	C	0.333258	-0.552399	-0.141427
C138	C	0.666591	-0.219065	0.191906
C139	C	-0.000076	-0.879127	-0.556966
C140	C	0.333258	-0.545794	-0.223632
C141	C	0.666591	-0.212461	0.109701
C142	C	-0.000097	-1.021379	-0.566749
C143	C	0.333236	-0.688045	-0.233415
C144	C	0.666570	-0.354712	0.099918
C145	C	-0.000105	-1.027982	-0.484547
C146	C	0.333228	-0.694649	-0.151214
C147	C	0.666562	-0.361315	0.182119
C148	C	-0.000089	-0.960159	-0.438558
C149	C	0.333244	-0.626826	-0.105224
C150	C	0.666578	-0.293492	0.228109
N151	N	-0.000085	-0.906369	-0.313468
N152	N	0.333249	-0.573036	0.019865
N153	N	0.666582	-0.239703	0.353199
N154	N	-0.000089	-0.966917	-0.354537
N155	N	0.333244	-0.633583	-0.021204
N156	N	0.666577	-0.300250	0.312130
C157	C	-0.000089	-0.939917	0.309559
C158	C	0.333244	-0.606583	0.642892
C159	C	0.666578	-0.273250	0.976226
C160	C	-0.000084	-0.946945	0.397044
C161	C	0.333249	-0.613612	0.730377
C162	C	0.666582	-0.280279	1.063710
H163	H	-0.444426	-0.839957	0.262712
H164	H	-0.111093	-0.506624	0.596045
H165	H	0.222240	-0.173290	0.929379
H166	H	-0.555877	-0.972963	0.299071
H167	H	-0.222543	-0.639629	0.632405
H168	H	0.110790	-0.306296	0.965738
H169	H	-0.444451	-1.069737	0.202520
H170	H	-0.111117	-0.736403	0.535854
H171	H	0.222216	-0.403070	0.869187
Br172	Br	-0.000103	-0.731814	-0.010776
Br173	Br	0.333231	-0.398481	0.322558
Br174	Br	0.666564	-0.065148	0.655891
H175	H	-0.000077	-0.539966	0.272133
H176	H	0.333256	-0.206633	0.605466
H177	H	0.666590	0.126700	0.938799
Br178	Br	-0.000092	-0.141480	0.342773
Br179	Br	0.333242	0.191854	0.676106
Br180	Br	0.666575	0.525187	1.009439
Br181	Br	-0.000140	-1.095177	-0.061905
Br182	Br	0.333193	-0.761844	0.271428
Br183	Br	0.666526	-0.428510	0.604761
H184	H	-0.555862	-0.803623	0.129620
H185	H	-0.222528	-0.470289	0.462953
H186	H	0.110805	-0.136956	0.796287
Br187	Br	-0.000069	-0.778112	-0.606105
Br188	Br	0.333264	-0.444778	-0.272772
Br189	Br	0.666597	-0.111445	0.060562
Br190	Br	-0.000152	-0.164541	0.007465
Br191	Br	0.333182	0.168792	0.340799
Br192	Br	0.666515	0.502125	0.674132
H193	H	-0.000065	-0.784703	-0.212936
H194	H	0.333269	-0.451369	0.120397
H195	H	0.666602	-0.118036	0.453731
H196	H	-0.000075	-0.796688	-0.063804
H197	H	0.333258	-0.463355	0.269529
H198	H	0.666591	-0.130022	0.602862
Br199	Br	-0.000070	-0.335233	0.358348
Br200	Br	0.333263	-0.001900	0.691681
Br201	Br	0.666596	0.331433	1.025015
H202	H	-0.555579	-1.033492	0.069329
H203	H	-0.222246	-0.700159	0.402662
H204	H	0.111088	-0.366826	0.735995
H205	H	-0.000117	-0.557710	0.014056
H206	H	0.333216	-0.224377	0.347390
H207	H	0.666549	0.108956	0.680723
H208	H	-0.000112	-1.042779	-0.230680
H209	H	0.333222	-0.709446	0.102653
H210	H	0.666555	-0.376112	0.435986
H211	H	-0.444298	-0.900309	0.032980
H212	H	-0.110965	-0.566976	0.366313
H213	H	0.222369	-0.233643	0.699646
H214	H	-0.000115	-1.088589	-0.455073
H215	H	0.333219	-0.755255	-0.121739
H216	H	0.666552	-0.421922	0.211594
Br217	Br	-0.000048	-0.793685	-0.412356
Br218	Br	0.333285	-0.460352	-0.079022
Br219	Br	0.666618	-0.127019	0.254311
Br220	Br	-0.000046	-0.708741	0.324531
Br221	Br	0.333288	-0.375408	0.657864
Br222	Br	0.666621	-0.042074	0.991197
H223	H	-0.000108	-1.076596	-0.604202
H224	H	0.333225	-0.743263	-0.270869
H225	H	0.666558	-0.409930	0.062465
H226	H	-0.000125	-0.333322	0.059859
H227	H	0.333208	0.000012	0.393192
H228	H	0.666541	0.333345	0.726525
