data_functionalizedCrystal
_audit_creation_method	'MofGen! by Chris Wilmer'
_symmetry_space_group_name_H-M	'P1'
_symmetry_Int_Tables_number	1
_symmetry_cell_setting	triclinic
loop_
_symmetry_equiv_pos_as_xyz
  x,y,z
_cell_length_a	31.640172
_cell_length_b	31.640171
_cell_length_c	14.560438
_cell_angle_alpha	59.993264
_cell_angle_beta	89.994329
_cell_angle_gamma	59.974735
loop_
_atom_site_label
_atom_site_type_symbol
_atom_site_fract_x
_atom_site_fract_y
_atom_site_fract_z
Zr1	Zr	0.406959	0.462753	-0.120840
O2	O	0.339428	0.550967	-0.267535
O3	O	0.427689	0.374544	-0.075833
O4	O	0.427648	0.462752	-0.267490
O5	O	0.339470	0.462758	0.075263
O6	O	0.497204	0.462745	-0.267496
O7	O	0.339470	0.462759	-0.075878
O8	O	0.497279	0.304957	0.075344
O9	O	0.339395	0.620546	-0.267577
O10	O	0.488405	0.410818	-0.056687
O11	O	0.436496	0.410823	0.056113
O12	O	0.436447	0.514676	-0.169539
O13	O	0.384538	0.514680	-0.056740
Zr14	Zr	0.517893	0.462739	0.120203
Zr15	Zr	0.517893	0.462741	-0.120849
Zr16	Zr	0.406959	0.462751	0.120213
Zr17	Zr	0.406906	0.573723	-0.120906
Zr18	Zr	0.517946	0.351769	0.120270
O19	O	0.497163	0.550948	0.075196
O20	O	0.497162	0.550951	-0.267549
O21	O	0.339428	0.550964	0.075210
O22	O	0.585424	0.374525	0.266899
O23	O	0.585424	0.374528	-0.075846
O24	O	0.427690	0.374541	0.266913
O25	O	0.585382	0.462734	-0.075899
O26	O	0.497204	0.462740	0.266854
O27	O	0.427648	0.462748	0.266860
O28	O	0.585382	0.462733	0.075241
O29	O	0.427573	0.620537	-0.267585
O30	O	0.497279	0.304955	0.266948
O31	O	0.585457	0.304946	0.266941
O32	O	0.585456	0.304948	0.075336
O33	O	0.339396	0.620544	-0.075973
O34	O	0.427573	0.620535	-0.075980
O35	O	0.488405	0.410816	0.168903
O36	O	0.540314	0.410812	0.056104
O37	O	0.488356	0.514670	-0.056749
O38	O	0.436447	0.514674	0.056050
C39	C	0.462491	0.323940	-0.000235
C40	C	0.462514	0.276830	-0.000207
C41	C	0.500768	-0.097741	0.082959
C42	C	0.500813	0.079212	0.083021
O43	O	0.533435	0.069476	0.153833
N44	N	0.462481	0.139692	-0.000257
C45	C	0.424136	0.155934	-0.083562
O46	O	0.391536	0.211436	-0.154401
C47	C	0.424093	-0.021019	-0.083627
C48	C	0.462425	-0.081499	-0.000337
C49	C	0.539097	-0.158218	0.166243
C50	C	0.539084	-0.202453	0.166230
C51	C	0.500741	-0.186211	0.082934
C52	C	0.462411	-0.125734	-0.000350
C53	C	0.385751	-0.004777	-0.166936
C54	C	0.385744	-0.049022	-0.166946
C55	C	0.424076	-0.109502	-0.083656
C56	C	0.424055	-0.153728	-0.083658
N57	N	0.462388	-0.214208	-0.000380
C58	C	0.500731	-0.230449	0.082916
C59	C	0.424161	0.248834	-0.083520
C60	C	0.424171	0.293072	-0.083503
C61	C	0.500849	0.216347	0.083080
C62	C	0.500836	0.172109	0.083066
C63	C	0.462493	0.188354	-0.000241
C64	C	0.500699	-0.323344	0.082884
C65	C	0.500681	-0.367579	0.082866
C66	C	0.424005	-0.290851	-0.083719
C67	C	0.424021	-0.246619	-0.083699
C68	C	0.462373	-0.262870	-0.000392
O69	O	0.391454	-0.144036	-0.154440
O70	O	0.533332	-0.285954	0.153730
C71	C	0.500781	-0.053506	0.082972
C72	C	0.462452	0.006971	-0.000311
C73	C	0.424109	0.023213	-0.083607
C74	C	0.462462	0.051209	-0.000294
C75	C	0.500805	0.034968	0.083002
C76	C	0.539137	-0.025512	0.166281
C77	C	0.539124	-0.069747	0.166268
C78	C	0.385776	0.083693	-0.166886
C79	C	0.385793	0.127925	-0.166866
C80	C	0.424135	0.111683	-0.083569
C81	C	0.323664	0.462760	-0.000306
C82	C	0.276570	0.462765	-0.000302
C83	C	-0.015436	0.462736	-0.083581
C84	C	-0.192422	0.462729	-0.083589
O85	O	-0.215295	0.462703	-0.154375
N86	N	-0.214553	0.462729	-0.000325
C87	C	-0.192432	0.462728	0.082950
O88	O	-0.215314	0.462722	0.153778
C89	C	-0.015444	0.462731	0.082962
C90	C	0.006681	0.462736	-0.000313
C91	C	0.006690	0.462741	-0.166849
C92	C	0.050932	0.462746	-0.166849
C93	C	0.073049	0.462746	-0.083582
C94	C	0.050923	0.462741	-0.000314
C95	C	0.006678	0.462725	0.166242
C96	C	0.050928	0.462724	0.166239
C97	C	0.073054	0.462730	0.082964
C98	C	0.117282	0.462747	0.082953
N99	N	0.139413	0.462746	-0.000311
C100	C	0.117296	0.462746	-0.083578
C101	C	-0.285354	0.462727	0.082937
C102	C	-0.329601	0.462727	0.082933
C103	C	-0.329588	0.462727	-0.083606
C104	C	-0.285342	0.462731	-0.083605
C105	C	-0.263223	0.462727	-0.000327
C106	C	0.210208	0.462757	-0.083574
C107	C	0.254453	0.462765	-0.083570
C108	C	0.254437	0.462762	0.082972
C109	C	0.210195	0.462757	0.082965
C110	C	0.188082	0.462753	-0.000313
O111	O	0.140186	0.462766	0.153709
O112	O	0.140192	0.462739	-0.154380
C113	C	-0.059678	0.462731	-0.083580
C114	C	-0.081804	0.462726	-0.000312
C115	C	-0.059687	0.462726	0.082956
C116	C	-0.126051	0.462726	-0.000316
C117	C	-0.148168	0.462726	-0.083583
C118	C	-0.126037	0.462725	-0.166847
C119	C	-0.081795	0.462731	-0.166848
C120	C	-0.081818	0.462727	0.166219
C121	C	-0.126060	0.462722	0.166212
C122	C	-0.148177	0.462722	0.082945
C123	C	0.601188	0.462732	-0.000330
C124	C	0.648282	0.462727	-0.000334
C125	C	0.462426	0.462749	-0.301838
C126	C	0.462426	0.462749	-0.404171
C127	C	0.462361	0.601553	-0.000402
C128	C	0.462338	0.648662	-0.000430
C129	C	0.500745	0.462746	-0.452250
C130	C	0.500746	0.462741	-0.548396
C131	C	0.424105	0.462744	-0.548378
C132	C	0.424106	0.462746	-0.452229
C133	C	0.462426	0.462744	0.301201
C134	C	0.462426	0.462743	0.403534
C135	C	0.601253	0.323925	-0.000247
C136	C	0.648370	0.276811	-0.000223
C137	C	0.462492	0.323937	0.301285
C138	C	0.462514	0.276827	0.403646
C139	C	0.601253	0.323923	0.301273
C140	C	0.648370	0.276808	0.403630
C141	C	0.323599	0.601569	-0.301909
C142	C	0.276482	0.648685	-0.404266
C143	C	0.323599	0.601567	-0.000389
C144	C	0.276482	0.648681	-0.000414
C145	C	0.462360	0.601555	-0.301921
C146	C	0.462338	0.648666	-0.404282
C147	C	0.643400	0.254689	-0.059097
C148	C	0.687667	0.210426	-0.059097
C149	C	0.736903	0.188283	-0.000215
C150	C	0.741872	0.210409	0.058661
C151	C	0.697605	0.254674	0.058653
C152	C	0.489620	0.254700	0.510601
C153	C	0.489639	0.210441	0.606790
C154	C	0.462555	0.188306	0.596021
C155	C	0.435445	0.210437	0.489054
C156	C	0.435423	0.254699	0.392868
C157	C	0.697597	0.254679	0.392818
C158	C	0.741873	0.210416	0.488984
C159	C	0.736920	0.188278	0.595961
C160	C	0.687688	0.210410	0.606771
C161	C	0.643413	0.254676	0.510606
C162	C	0.227255	0.670818	-0.393454
C163	C	0.182979	0.715096	-0.489620
C164	C	0.187932	0.737236	-0.596598
C165	C	0.237164	0.715100	-0.607407
C166	C	0.281439	0.670827	-0.511242
C167	C	0.281452	0.670808	0.058450
C168	C	0.237185	0.715083	0.058424
C169	C	0.187949	0.737228	-0.000461
C170	C	0.182980	0.715099	-0.059333
C171	C	0.227247	0.670828	-0.059312
C172	C	0.489428	0.670786	-0.393477
C173	C	0.489417	0.715046	-0.489647
C174	C	0.462313	0.737187	-0.596622
C175	C	0.435222	0.715062	-0.607425
C176	C	0.435236	0.670800	-0.511256
H177	H	0.531929	-0.336584	0.150720
C178	C	0.614882	-0.273832	0.330870
C179	C	0.581226	-0.268930	0.257773
H180	H	0.640903	-0.314872	0.387380
H181	H	0.595957	-0.254979	0.365081
H182	H	0.630616	-0.254976	0.289723
H183	H	0.565489	-0.287782	0.298919
H184	H	0.600154	-0.287791	0.223560
H185	H	0.511500	0.652766	-0.306382
C186	C	0.519661	0.513825	-0.399592
C187	C	0.542877	0.462713	-0.399359
H188	H	0.545677	0.513794	-0.366928
H189	H	0.496832	0.513834	-0.357224
H190	H	0.500735	0.548513	-0.474787
H191	H	0.561800	0.428025	-0.324163
H192	H	0.565715	0.462698	-0.441726
H193	H	0.701640	0.272697	0.305720
H194	H	0.241191	0.733133	-0.694520
C195	C	0.169239	0.675288	-0.286713
C196	C	0.221801	0.646497	-0.275872
H197	H	0.165870	0.660279	-0.214124
H198	H	0.153108	0.668031	-0.326647
H199	H	0.153094	0.717079	-0.326707
H200	H	0.237945	0.604706	-0.235885
H201	H	0.237939	0.653748	-0.235921
H202	H	0.603314	0.272717	-0.107059
H203	H	0.272450	0.462765	0.150765
H204	H	0.462306	0.773228	-0.674919
C205	C	0.629632	0.214883	-0.175465
C206	C	0.682197	0.186104	-0.123804
H207	H	0.626256	0.199865	-0.215404
H208	H	0.613481	0.256670	-0.226303
H209	H	0.613514	0.207622	-0.119717
H210	H	0.698315	0.193369	-0.179553
H211	H	0.698356	0.144308	-0.072962
C212	C	0.440122	0.268302	0.216433
C213	C	0.405632	0.279012	0.275301
H214	H	0.421728	0.283314	0.143852
H215	H	0.465780	0.226513	0.256430
H216	H	0.456243	0.287826	0.209078
H217	H	0.389514	0.259484	0.282664
H218	H	0.379965	0.320809	0.235295
C219	C	0.218850	0.800996	0.048209
C220	C	0.242653	0.739395	0.123154
H221	H	0.222230	0.816001	0.088174
H222	H	0.183195	0.820522	0.013140
H223	H	0.234989	0.808241	-0.007503
H224	H	0.226512	0.732151	0.178861
H225	H	0.278314	0.719863	0.158241
C226	C	0.519628	0.513861	-0.712093
C227	C	0.542866	0.462739	-0.601249
H228	H	0.545633	0.513855	-0.744721
H229	H	0.500688	0.548538	-0.712267
H230	H	0.496808	0.513852	-0.754467
H231	H	0.565683	0.462749	-0.558873
H232	H	0.561815	0.428052	-0.601068
H233	H	0.413174	0.652795	-0.520069
C234	C	0.790976	0.214862	0.362876
C235	C	0.795985	0.186088	0.477083
H236	H	0.824382	0.199840	0.355530
H237	H	0.772570	0.256649	0.327799
H238	H	0.772587	0.207602	0.327850
H239	H	0.814371	0.193352	0.512108
H240	H	0.814398	0.144291	0.512175
H241	H	0.223193	0.652814	-0.107243
H242	H	0.570323	-0.171453	0.234074
H243	H	0.354521	-0.035787	-0.234790
C244	C	0.341226	0.693358	-0.582089
C245	C	0.335546	0.646503	-0.523156
H246	H	0.374627	0.678345	-0.589460
H247	H	0.337353	0.710609	-0.542129
H248	H	0.315555	0.722892	-0.654657
H249	H	0.361215	0.616970	-0.450586
H250	H	0.339425	0.629243	-0.563116
C251	C	0.126256	0.411600	0.318435
C252	C	0.075235	0.462723	0.257784
H253	H	0.141257	0.411601	0.374953
H254	H	0.145766	0.411608	0.268853
H255	H	0.126345	0.376920	0.352648
H256	H	0.075146	0.497404	0.223565
H257	H	0.055719	0.462721	0.307374
H258	H	0.511676	0.272717	0.519392
H259	H	0.392906	0.462743	-0.587517
H260	H	0.511477	0.733055	-0.480829
H261	H	0.772975	0.152234	0.674256
C262	C	0.411687	0.161047	0.701759
C263	C	0.462584	0.139651	0.701758
H264	H	0.411709	0.131008	0.767044
H265	H	0.391670	0.171049	0.636532
H266	H	0.397167	0.195588	0.701721
H267	H	0.477103	0.105112	0.701788
H268	H	0.482608	0.129640	0.767003
H269	H	-0.347603	0.462728	-0.151407
H270	H	0.413155	0.733096	-0.694536
H271	H	0.413393	0.192409	0.480302
C272	C	0.348343	0.462756	-0.461868
C273	C	0.381981	0.462752	-0.399375
H274	H	0.322338	0.462762	-0.429238
H275	H	0.367286	0.428076	-0.461683
H276	H	0.332586	0.497440	-0.537062
H277	H	0.397741	0.428065	-0.324183
H278	H	0.363036	0.497436	-0.399548
H279	H	0.531896	-0.416826	0.150696
H280	H	0.321538	0.652782	0.106409
H281	H	-0.011330	0.462720	0.234053
H282	H	0.511717	0.192427	0.693877
H283	H	0.603332	0.272687	0.519425
C284	C	0.576628	0.100725	0.247725
C285	C	0.542974	0.105631	0.174615
H286	H	0.602644	0.059685	0.304241
H287	H	0.557700	0.119582	0.281927
H288	H	0.592368	0.119575	0.206589
H289	H	0.527231	0.086784	0.215750
H290	H	0.561905	0.086766	0.140412
C291	C	0.109794	0.764509	0.045995
C292	C	0.139290	0.785894	-0.000487
H293	H	0.079754	0.794555	0.045973
H294	H	0.129827	0.729976	0.121021
H295	H	0.099790	0.754502	0.002501
H296	H	0.149298	0.795896	0.043013
H297	H	0.119254	0.820437	-0.075525
H298	H	0.142897	0.733111	-0.480797
C299	C	0.534908	0.250104	0.157051
C300	C	0.542999	0.198499	0.174637
H301	H	0.560932	0.239086	0.213565
H302	H	0.501827	0.273112	0.160509
H303	H	0.536488	0.273106	0.085155
H304	H	0.541415	0.175499	0.246530
H305	H	0.576088	0.175481	0.171189
H306	H	0.683663	0.192379	0.693885
C307	C	0.095009	0.800642	-0.670202
C308	C	0.139261	0.785898	-0.702298
H309	H	0.064962	0.830679	-0.735455
H310	H	0.095012	0.815148	-0.626721
H311	H	0.095040	0.766097	-0.626677
H312	H	0.139233	0.820441	-0.745816
H313	H	0.139259	0.771393	-0.745797
H314	H	0.772943	0.152239	-0.000217
H315	H	0.142887	0.733136	-0.107275
H316	H	0.392951	0.342315	-0.151314
H317	H	0.192175	0.462762	0.150766
C318	C	0.348365	0.329125	-0.248169
C319	C	0.382006	0.266698	-0.175092
H320	H	0.322338	0.340154	-0.304694
H321	H	0.367299	0.344775	-0.282361
H322	H	0.332637	0.344783	-0.207011
H323	H	0.397738	0.251040	-0.216249
H324	H	0.363069	0.251042	-0.140897
H325	H	0.354540	0.044462	-0.234768
H326	H	0.392785	-0.277636	-0.151533
C327	C	0.348228	-0.175226	-0.248361
C328	C	0.381885	-0.180137	-0.175249
H329	H	0.322219	-0.134184	-0.304890
H330	H	0.332481	-0.194062	-0.207237
H331	H	0.367158	-0.194094	-0.282555
H332	H	0.362956	-0.161273	-0.141049
H333	H	0.397634	-0.161293	-0.216379
C334	C	0.755639	0.250190	0.175074
C335	C	0.703073	0.278981	0.123390
H336	H	0.759016	0.265192	0.215047
H337	H	0.771761	0.257454	0.119346
H338	H	0.771786	0.208398	0.225897
H339	H	0.686927	0.320773	0.072561
H340	H	0.686945	0.271722	0.179124
C341	C	-0.086237	0.462726	-0.331453
C342	C	-0.057475	0.462730	-0.258381
H343	H	-0.071222	0.462721	-0.387959
H344	H	-0.120846	0.497406	-0.365671
H345	H	-0.086142	0.428041	-0.290286
H346	H	-0.057573	0.497417	-0.299546
H347	H	-0.022858	0.428047	-0.224161
C348	C	0.351760	0.229813	-0.240847
C349	C	0.343656	0.194406	-0.258431
H350	H	0.325747	0.270853	-0.297377
H351	H	0.384848	0.221288	-0.244281
H352	H	0.350171	0.221315	-0.168962
H353	H	0.345249	0.202900	-0.330314
H354	H	0.310559	0.202934	-0.255008
H355	H	0.570356	-0.038730	0.234108
C356	C	0.614918	-0.141126	0.330919
C357	C	0.581263	-0.136225	0.257818
H358	H	0.640936	-0.182166	0.387435
H359	H	0.595991	-0.122269	0.365121
H360	H	0.630656	-0.122275	0.289777
H361	H	0.565522	-0.155072	0.298960
H362	H	0.600193	-0.155090	0.223614
C363	C	0.315674	0.078523	-0.207857
C364	C	0.343567	0.101598	-0.258394
H365	H	0.289598	0.089591	-0.264337
H366	H	0.300013	0.094157	-0.166633
H367	H	0.338497	0.036169	-0.158341
H368	H	0.320745	0.143952	-0.307904
H369	H	0.359229	0.085966	-0.299636
C370	C	0.293666	0.411637	-0.169963
C371	C	0.278775	0.462766	-0.175107
H372	H	0.308684	0.411636	-0.226468
H373	H	0.264151	0.411639	-0.181877
H374	H	0.318271	0.376961	-0.098059
H375	H	0.254168	0.497443	-0.247009
H376	H	0.308294	0.462770	-0.163202
C377	C	0.186049	0.411627	-0.124665
C378	C	0.185905	0.462755	-0.175116
H379	H	0.171047	0.411628	-0.181184
H380	H	0.166535	0.411628	-0.075091
H381	H	0.220666	0.376950	-0.083518
H382	H	0.151288	0.497432	-0.216257
H383	H	0.205419	0.462760	-0.224709
C384	C	0.090138	0.411610	-0.253223
C385	C	0.075253	0.462741	-0.258379
H386	H	0.105154	0.411604	-0.309727
H387	H	0.060620	0.411616	-0.265130
H388	H	0.114741	0.376935	-0.181317
H389	H	0.050646	0.497416	-0.330282
H390	H	0.104775	0.462741	-0.246480
C391	C	-0.289782	0.462729	-0.248216
C392	C	-0.261020	0.462730	-0.175135
H393	H	-0.274765	0.462723	-0.304719
H394	H	-0.324390	0.497411	-0.282437
H395	H	-0.289690	0.428046	-0.207054
H396	H	-0.261115	0.497415	-0.216296
H397	H	-0.226403	0.428044	-0.140912
C398	C	-0.325157	0.462723	0.247551
C399	C	-0.353921	0.462727	0.174466
H400	H	-0.340168	0.462717	0.304068
H401	H	-0.325253	0.497404	0.206403
H402	H	-0.290544	0.428040	0.281763
H403	H	-0.388533	0.497413	0.140248
H404	H	-0.353831	0.428042	0.215620
H405	H	-0.011312	0.462739	-0.234656
C406	C	-0.210026	0.411599	0.235135
C407	C	-0.261046	0.462726	0.174480
H408	H	-0.195024	0.411600	0.291651
H409	H	-0.190515	0.411603	0.185555
H410	H	-0.209941	0.376921	0.269351
H411	H	-0.261131	0.497404	0.140258
H412	H	-0.280562	0.462728	0.224068
C413	C	-0.193857	0.462714	-0.240771
C414	C	-0.150352	0.462721	-0.258372
H415	H	-0.208865	0.462705	-0.297265
H416	H	-0.218460	0.497395	-0.244252
H417	H	-0.183748	0.428030	-0.168862
H418	H	-0.160462	0.497407	-0.330278
H419	H	-0.125744	0.428037	-0.254902
H420	H	-0.063813	0.462726	0.234027
C421	C	-0.121613	0.462712	0.330844
C422	C	-0.150377	0.462715	0.257760
H423	H	-0.136621	0.462699	0.387367
H424	H	-0.121713	0.497396	0.289697
H425	H	-0.086998	0.428032	0.365047
H426	H	-0.184990	0.497397	0.223551
H427	H	-0.150281	0.428027	0.298913
C428	C	0.833794	0.142532	0.110964
C429	C	0.795995	0.186060	0.123392
H430	H	0.867207	0.127496	0.150937
H431	H	0.829900	0.159810	0.033499
H432	H	0.829912	0.110767	0.140048
H433	H	0.799874	0.217828	0.094301
H434	H	0.799890	0.168784	0.200873
