data_functionalizedCrystal
_audit_creation_method	'MofGen! by Chris Wilmer'
_symmetry_space_group_name_H-M	'P1'
_symmetry_Int_Tables_number	1
_symmetry_cell_setting	triclinic
loop_
_symmetry_equiv_pos_as_xyz
  x,y,z
_cell_length_a	10.654549
_cell_length_b	16.974813
_cell_length_c	9.130313
_cell_angle_alpha	86.340922
_cell_angle_beta	89.997498
_cell_angle_gamma	83.938957
loop_
_atom_site_label
_atom_site_type_symbol
_atom_site_fract_x
_atom_site_fract_y
_atom_site_fract_z
O1	O	1.666112	0.111054	-0.134926
O2	O	1.300468	0.121635	-0.136190
O3	O	1.493483	0.001297	-0.121915
O4	O	1.473097	0.231392	-0.149202
O5	O	1.493470	0.001294	0.121685
O6	O	1.300455	0.121632	0.107409
O7	O	1.666098	0.111051	0.108673
Cu8	Cu	1.483276	0.116341	0.130283
Cu9	Cu	1.483291	0.116345	-0.157801
O10	O	1.473084	0.231389	0.094397
C11	C	1.253676	0.120857	-0.014300
C12	C	1.114269	0.118533	-0.014028
C13	C	0.902686	0.187196	-0.022165
C14	C	1.033672	0.189386	-0.022434
C15	C	1.063873	0.045485	-0.005369
C16	C	0.932889	0.043296	-0.005111
C17	C	1.492701	-0.028167	0.003376
C18	C	1.490375	-0.115957	0.013777
C19	C	1.489293	-0.157194	-0.114121
C20	C	1.487099	-0.239681	-0.104343
C21	C	1.485997	-0.280930	0.033334
C22	C	1.487076	-0.239687	0.161242
C23	C	1.489261	-0.157200	0.151463
C24	C	1.479455	-0.527627	0.076821
C25	C	1.477274	-0.610120	0.086591
C26	C	1.477295	-0.610108	-0.178996
C27	C	1.479487	-0.527621	-0.188763
C28	C	1.480559	-0.486384	-0.060855
N29	N	1.483759	-0.365245	0.043332
N30	N	1.482788	-0.402070	-0.070855
C31	C	1.712891	0.111829	-0.013221
C32	C	1.852298	0.114154	-0.013502
C33	C	1.473866	0.260853	-0.030896
C34	C	1.476192	0.348643	-0.041308
N35	N	1.483274	0.116338	0.332907
N36	N	1.483303	0.116342	-0.360423
C37	C	1.568769	0.063075	0.415877
C38	C	1.568781	0.063075	0.569214
C39	C	1.397798	0.169608	0.556595
C40	C	1.397781	0.169603	0.403262
H41	H	1.129506	-0.012205	0.001466
N42	N	1.305611	0.227066	0.632483
H43	H	1.251446	0.260807	0.556650
H44	H	1.250159	0.196474	0.699753
N45	N	0.815765	0.263619	-0.031245
H46	H	0.725139	0.251151	-0.029765
H47	H	0.832062	0.295423	0.055284
H48	H	1.328155	0.212977	0.335702
H49	H	1.638398	0.019702	0.636765
N50	N	1.480679	-0.483133	-0.337258
H51	H	1.479660	-0.521774	-0.416800
H52	H	1.403775	-0.442925	-0.347812
N53	N	0.878544	-0.035493	0.004243
H54	H	0.824866	-0.039607	0.095031
H55	H	0.824939	-0.039561	-0.085639
N56	N	1.088021	0.268166	-0.031794
H57	H	1.017087	0.312719	-0.037074
H58	H	1.141712	0.272212	0.058025
N59	N	1.480633	-0.483161	0.214776
H60	H	1.482180	-0.424647	0.187700
H61	H	1.402438	-0.491602	0.273762
H62	H	1.486172	-0.273278	0.273343
H63	H	1.490125	-0.123625	0.255612
N64	N	1.490492	-0.112708	-0.262617
H65	H	1.489471	-0.151351	-0.342155
H66	H	1.413588	-0.072500	-0.273174
N67	N	1.486112	-0.284173	-0.242288
H68	H	1.487210	-0.245531	-0.330988
H69	H	1.563078	-0.324340	-0.243153
H70	H	1.476371	-0.643702	0.198710
N71	N	1.476137	-0.654584	-0.316947
H72	H	1.474585	-0.713098	-0.289867
H73	H	1.398709	-0.634180	-0.377354
N74	N	1.660960	0.005607	0.340016
H75	H	1.613022	-0.029685	0.280608
H76	H	1.716492	0.036189	0.272832
