data_functionalizedCrystal
_audit_creation_method	'MofGen! by Chris Wilmer'
_symmetry_space_group_name_H-M	'P1'
_symmetry_Int_Tables_number	1
_symmetry_cell_setting	triclinic
loop_
_symmetry_equiv_pos_as_xyz
  x,y,z
_cell_length_a	23.532361
_cell_length_b	11.804783
_cell_length_c	13.339070
_cell_angle_alpha	99.452288
_cell_angle_beta	80.770519
_cell_angle_gamma	76.645167
loop_
_atom_site_label
_atom_site_type_symbol
_atom_site_fract_x
_atom_site_fract_y
_atom_site_fract_z
O1	O	0.761902	0.098896	-0.104294
O2	O	0.598898	0.098924	-0.122077
O3	O	0.661693	0.098909	0.033884
O4	O	0.699107	0.098910	-0.260256
O5	O	0.687925	-0.099135	-0.002325
O6	O	0.625130	-0.099121	-0.158286
O7	O	0.788133	-0.099148	-0.140503
Cu8	Cu	0.709027	-0.117217	-0.152701
Cu9	Cu	0.678005	0.116993	-0.109880
O10	O	0.725339	-0.099134	-0.296464
C11	C	0.590726	-0.000095	-0.139736
C12	C	0.527290	-0.000084	-0.138394
N13	N	0.730850	-0.281948	-0.182818
C14	C	0.238804	0.107863	-0.112800
C15	C	0.298407	0.107866	-0.114067
O16	O	0.317073	0.199674	-0.097903
N17	N	0.342515	-0.000089	-0.134445
C18	C	0.327016	-0.108053	-0.153547
O19	O	0.370006	-0.199877	-0.170995
C20	C	0.267413	-0.108055	-0.152272
C21	C	0.223308	-0.000093	-0.131903
C22	C	0.194700	0.215815	-0.092432
C23	C	0.135100	0.215812	-0.091166
C24	C	0.119605	0.107856	-0.110270
C25	C	0.163709	-0.000097	-0.130638
C26	C	0.251914	-0.216018	-0.171366
C27	C	0.192305	-0.216010	-0.170089
C28	C	0.148201	-0.108049	-0.149720
C29	C	0.088614	-0.108056	-0.148476
N30	N	0.044506	-0.000102	-0.128098
C31	C	0.060001	0.107854	-0.108995
C32	C	0.452186	-0.108041	-0.156221
C33	C	0.511789	-0.108041	-0.157503
C34	C	0.483176	0.107878	-0.118021
C35	C	0.423573	0.107877	-0.116747
C36	C	0.408078	-0.000087	-0.135843
C37	C	-0.065161	0.107839	-0.106340
C38	C	-0.124764	0.107826	-0.105081
C39	C	-0.096146	-0.108092	-0.144557
C40	C	-0.036547	-0.108080	-0.145822
C41	C	-0.021058	-0.000105	-0.126708
O42	O	0.069904	-0.199818	-0.164627
O43	O	0.017005	0.199662	-0.091536
C44	C	0.603758	-0.655953	-0.007424
C45	C	0.587236	-0.531299	0.015366
C46	C	0.623138	-0.468955	-0.034178
C47	C	0.675565	-0.531278	-0.106516
C48	C	0.692090	-0.655945	-0.129302
C49	C	0.711471	-0.468947	-0.156056
C50	C	0.763897	-0.531269	-0.228394
C51	C	0.780419	-0.655924	-0.251177
C52	C	0.744517	-0.718268	-0.201632
C53	C	0.694945	-0.344280	-0.133270
C54	C	0.783277	-0.344271	-0.255148
C55	C	0.799799	-0.468926	-0.277938
C56	C	0.796306	-0.000127	-0.122844
C57	C	0.859741	-0.000130	-0.124184
N58	N	0.656185	0.281724	-0.079754
C59	C	0.668489	-0.000110	0.053404
C60	C	0.649649	-0.000102	0.165513
C61	C	0.718543	-0.000112	-0.315984
C62	C	0.737381	-0.000112	-0.428091
C63	C	0.796130	-0.000127	0.531816
C64	C	0.813833	-0.000142	0.426484
C65	C	0.772788	-0.000131	0.361236
C66	C	0.714038	-0.000108	0.401331
C67	C	0.696334	-0.000103	0.506671
C68	C	0.672993	-0.000107	0.336091
C69	C	0.614242	-0.000083	0.376186
C70	C	0.596541	-0.000077	0.481516
C71	C	0.637586	-0.000088	0.546764
C72	C	0.690696	-0.000111	0.230751
C73	C	0.590901	-0.000087	0.205606
C74	C	0.573198	-0.000073	0.310938
H75	H	-0.160673	0.195745	-0.088496
N76	N	0.548966	-0.000047	0.138972
N77	N	0.502525	0.083445	0.157578
H78	H	0.472912	0.083473	0.110513
N79	N	0.606268	-0.341625	-0.010891
N80	N	0.600690	-0.285975	0.079870
H81	H	0.588772	-0.196043	0.096318
N82	N	0.536535	-0.000074	0.522485
N83	N	0.526581	-0.083551	0.563197
H84	H	0.484201	-0.083550	0.592130
H85	H	0.525362	-0.000054	0.343598
H86	H	0.823111	-0.706664	-0.310069
H87	H	-0.052557	0.195763	-0.090777
H88	H	0.812512	-0.293511	-0.295491
N89	N	0.296948	-0.326311	-0.192161
N90	N	0.283090	-0.422681	-0.209195
H91	H	0.314894	-0.500584	-0.223876
N92	N	0.176483	-0.326297	-0.189622
N93	N	0.152419	-0.350392	-0.264525
H94	H	0.141245	-0.428282	-0.278326
N95	N	0.090043	0.326083	-0.070333
N96	N	0.036825	0.326088	-0.069186
H97	H	0.005004	0.403971	-0.054465
H98	H	0.652259	-0.293549	-0.074374
H99	H	0.439578	-0.195964	-0.171785
H100	H	0.544552	-0.480564	0.074266
H101	H	0.829543	-0.000146	0.584948
N102	N	0.008505	-0.218368	-0.166682
N103	N	-0.005339	-0.314749	-0.183767
H104	H	0.026476	-0.392643	-0.198506
N105	N	-0.111991	-0.218351	-0.164072
N106	N	-0.165211	-0.218325	-0.162931
H107	H	-0.176405	-0.296196	-0.176706
H108	H	0.574535	-0.706725	0.032914
H109	H	0.207307	0.303731	-0.076871
N110	N	0.378529	0.218166	-0.095918
N111	N	0.369622	0.290446	-0.011643
H112	H	0.337812	0.368344	0.003072
N113	N	0.499019	0.218146	-0.098495
N114	N	0.552239	0.218120	-0.099623
H115	H	0.563431	0.295990	-0.085829
H116	H	0.623174	-0.000072	0.632536
H117	H	0.547697	-0.195954	-0.174106
N118	N	0.761383	-0.845603	-0.224905
N119	N	0.729319	-0.901244	-0.180666
H120	H	0.741229	-0.991177	-0.197100
N121	N	0.853346	-0.532612	-0.351828
N122	N	0.868089	-0.643914	-0.372162
H123	H	0.905906	-0.688895	-0.424348
N124	N	0.750707	-0.000154	0.189797
N125	N	0.793192	-0.083647	0.194722
H126	H	0.835578	-0.083679	0.165799
N127	N	0.790880	-0.000150	0.253644
N128	N	0.843336	-0.000170	0.217859
H129	H	0.856116	-0.000180	0.141868
N130	N	0.873843	-0.000170	0.385547
N131	N	0.910484	-0.000178	0.443810
H132	H	0.952870	-0.000196	0.414900
