data_functionalizedCrystal
_audit_creation_method	'MofGen! by Chris Wilmer'
_symmetry_space_group_name_H-M	'P1'
_symmetry_Int_Tables_number	1
_symmetry_cell_setting	triclinic
loop_
_symmetry_equiv_pos_as_xyz
  x,y,z
_cell_length_a	15.944551
_cell_length_b	15.944493
_cell_length_c	8.140239
_cell_angle_alpha	90.002357
_cell_angle_beta	90.001769
_cell_angle_gamma	83.486891
loop_
_atom_site_label
_atom_site_type_symbol
_atom_site_fract_x
_atom_site_fract_y
_atom_site_fract_z
O1	O	1.114500	0.108334	-0.136420
O2	O	0.869947	0.121690	-0.136459
O3	O	0.998927	-0.007266	-0.136452
O4	O	0.985520	0.237290	-0.136427
O5	O	0.998920	-0.007268	0.136775
O6	O	0.869940	0.121689	0.136768
O7	O	1.114493	0.108332	0.136807
Zn8	Zn	0.992215	0.115010	0.180168
Zn9	Zn	0.992225	0.115012	-0.179820
O10	O	0.985513	0.237289	0.136800
C11	C	0.838650	0.121135	0.000150
C12	C	0.745404	0.119473	0.000134
C13	C	0.530565	0.035566	0.000157
C14	C	0.469540	0.074530	-0.134554
C15	C	0.574679	0.116465	0.000153
C16	C	0.469555	0.074548	0.134826
C17	C	0.409767	0.113555	0.000179
C18	C	0.514882	0.155452	-0.134670
C19	C	0.514904	0.155458	0.134832
C20	C	0.453897	0.194481	0.000088
C21	C	0.669681	0.118140	0.000137
C22	C	0.314766	0.111886	0.000183
C23	C	0.998375	-0.038562	0.000154
C24	C	0.996733	-0.131810	0.000133
C25	C	1.072653	-0.367570	0.000176
C26	C	1.031715	-0.418137	-0.134545
C27	C	0.993688	-0.302531	0.000153
C28	C	1.031690	-0.418115	0.134836
C29	C	0.990754	-0.467441	0.000179
C30	C	0.952772	-0.351870	-0.134679
C31	C	0.952758	-0.351845	0.134822
C32	C	0.911763	-0.402379	0.000069
C33	C	0.995381	-0.207531	0.000136
C34	C	0.989055	-0.562438	0.000184
C35	C	1.145790	0.108888	0.000195
C36	C	1.239036	0.110550	0.000200
C37	C	0.986064	0.268584	0.000190
C38	C	0.987707	0.361833	0.000201
N39	N	0.992215	0.115009	0.425851
N40	N	0.992231	0.115007	-0.425503
H41	H	0.563912	-0.031574	-0.000016
H42	H	0.843692	-0.417845	-0.000016
C43	C	0.542096	0.201641	0.288709
N44	N	0.562580	0.236419	0.404623
H45	H	0.919446	-0.323050	-0.248697
C46	C	0.442427	0.028303	0.288681
N47	N	0.421998	-0.006535	0.404558
C48	C	1.076756	-0.457191	0.288705
N49	N	1.110705	-0.486620	0.404595
H50	H	0.449440	0.040314	-0.248450
C51	C	0.541877	0.201637	-0.288705
N52	N	0.562212	0.236418	-0.404726
H53	H	1.065066	-0.447083	-0.248432
C54	C	1.164540	-0.346453	0.000010
N55	N	1.233748	-0.330546	-0.000124
C56	C	0.907738	-0.312725	0.288689
N57	N	0.873833	-0.283263	0.404595
H58	H	0.420724	0.261690	0.000019
