data_functionalizedCrystal
_audit_creation_method	'MofGen! by Chris Wilmer'
_symmetry_space_group_name_H-M	'P1'
_symmetry_Int_Tables_number	1
_symmetry_cell_setting	triclinic
loop_
_symmetry_equiv_pos_as_xyz
  x,y,z
_cell_length_a	6.817900
_cell_length_b	15.185311
_cell_length_c	16.255661
_cell_angle_alpha	95.125321
_cell_angle_beta	103.488922
_cell_angle_gamma	104.261569
loop_
_atom_site_label
_atom_site_type_symbol
_atom_site_fract_x
_atom_site_fract_y
_atom_site_fract_z
V1	V	-4.030591	-0.126490	-0.264121
O2	O	-4.014027	0.005323	-0.258838
O3	O	-3.985933	-0.250083	-0.262560
O4	O	-3.982104	-0.124876	-0.379201
O5	O	-4.017883	-0.120750	-0.141389
V6	V	-4.513745	-0.110685	-0.249411
O7	O	-4.292658	-0.161161	-0.296387
O8	O	-4.701876	-0.076014	-0.217145
O9	O	-4.335197	0.012907	-0.250972
O10	O	-4.647706	-0.242498	-0.254694
O11	O	-4.643850	-0.116425	-0.372143
O12	O	-4.339026	-0.112299	-0.134331
C13	C	-3.831847	-0.280201	-0.258457
C14	C	-3.876620	-0.381242	-0.257948
C15	C	-3.826961	-0.120487	-0.407243
C16	C	-3.868625	-0.119985	-0.501323
C17	C	-4.025416	-0.795280	-0.178292
C18	C	-4.106671	-0.821656	-0.333354
C19	C	-4.064577	-0.726722	-0.333828
C20	C	-4.002902	-0.666062	-0.256532
C21	C	-3.983322	-0.700337	-0.178763
C22	C	-4.084173	-0.692440	-0.411596
C23	C	-4.042080	-0.597501	-0.412073
C24	C	-3.980390	-0.536839	-0.334776
C25	C	-3.960808	-0.571119	-0.257003
C26	C	-3.899134	-0.510460	-0.179707
C27	C	-3.879537	-0.544737	-0.101934
C28	C	-3.921632	-0.639675	-0.101466
C29	C	-3.938295	-0.441901	-0.335244
C30	C	-3.857040	-0.415516	-0.180179
C31	C	-3.778998	-0.113989	-0.724130
C32	C	-3.937787	-0.191378	-0.793759
C33	C	-3.944981	-0.119044	-0.673570
C34	C	-3.860455	-0.040769	-0.771576
C35	C	-4.018721	-0.118131	-0.839951
C36	C	-4.103254	-0.196502	-0.741969
C37	C	-4.025858	-0.045825	-0.719771
C38	C	-4.184784	-0.123236	-0.789380
C39	C	-3.902496	-0.119571	-0.577721
C40	C	-4.061223	-0.117611	-0.935799
C41	C	-4.152625	0.043021	-0.255073
C42	C	-4.087090	0.144061	-0.255587
C43	C	-4.157511	-0.116691	-0.106285
C44	C	-4.095085	-0.117189	-0.012204
H45	H	-3.806808	-0.366132	-0.117234
H46	H	-3.607127	-0.110180	-0.695642
N47	N	-4.062079	-0.562473	-0.491503
N48	N	-4.188574	-0.516013	-0.512339
H49	H	-4.202690	-0.491271	-0.568436
H50	H	-4.134414	-0.741836	-0.474526
H51	H	-3.901002	-0.252916	-0.825966
N52	N	-4.231514	-0.279151	-0.725231
N53	N	-4.219925	-0.292902	-0.649790
H54	H	-4.310502	-0.351272	-0.637966
N55	N	-3.816560	-0.482759	-0.022988
N56	N	-3.779011	-0.397998	-0.023430
H57	H	-3.734535	-0.354221	0.032323
N58	N	-3.958338	-0.406902	-0.414685
N59	N	-4.013425	-0.461072	-0.483693
H60	H	-4.027582	-0.436356	-0.539803
H61	H	-3.905687	-0.667593	-0.038147
N62	N	-4.005435	-0.830307	-0.098861
N63	N	-4.160791	-0.883926	-0.084575
H64	H	-4.146684	-0.908667	-0.028477
N65	N	-4.400551	-0.128170	-0.824944
N66	N	-4.541301	-0.195880	-0.818988
H67	H	-4.693688	-0.199370	-0.844105
N68	N	-3.732230	0.041782	-0.788496
N69	N	-3.605743	0.037414	-0.832337
H70	H	-3.515185	0.095707	-0.844298
H71	H	-4.062565	0.015716	-0.687541
H72	H	-4.156905	-0.871050	-0.396285
