data_functionalizedCrystal
_audit_creation_method	'MofGen! by Chris Wilmer'
_symmetry_space_group_name_H-M	'P1'
_symmetry_Int_Tables_number	1
_symmetry_cell_setting	triclinic
loop_
_symmetry_equiv_pos_as_xyz
  x,y,z
_cell_length_a	8.497374
_cell_length_b	12.759401
_cell_length_c	12.759399
_cell_angle_alpha	90.016641
_cell_angle_beta	89.991562
_cell_angle_gamma	89.998247
loop_
_atom_site_label
_atom_site_type_symbol
_atom_site_fract_x
_atom_site_fract_y
_atom_site_fract_z
Zn1	Zn	0.891958	-1.606064	0.418406
Zn2	Zn	0.628160	-1.606013	0.594052
Zn3	Zn	0.628185	-1.430422	0.418393
Zn4	Zn	0.891892	-1.430354	0.594048
O5	O	0.760048	-1.518213	0.506225
O6	O	0.856982	-1.753079	0.441713
O7	O	0.407401	-1.582728	0.570747
O8	O	0.663213	-1.453771	0.271373
O9	O	0.663171	-1.753041	0.570760
O10	O	0.857005	-1.582815	0.271383
O11	O	0.407419	-1.453722	0.441691
O12	O	0.663149	-1.283392	0.441686
O13	O	1.112663	-1.453655	0.570752
O14	O	0.856893	-1.283342	0.570739
O15	O	1.112711	-1.582749	0.441709
O16	O	0.663107	-1.582661	0.741073
O17	O	0.856869	-1.453605	0.741069
C18	C	0.760017	-1.245246	0.506212
C19	C	0.760041	-1.128469	0.506232
C20	C	0.760013	-1.518149	0.779192
C21	C	0.760050	-1.518217	0.895969
C22	C	0.760081	-1.792246	0.506238
C23	C	0.760095	-1.909023	0.506244
C24	C	1.171529	-1.518205	0.506226
C25	C	1.350173	-1.518208	0.506237
C26	C	0.760119	-1.518307	0.232191
C27	C	0.760149	-1.518346	0.115415
C28	C	0.860765	-1.073609	0.573532
C29	C	0.860796	-0.963885	0.573536
C30	C	0.659366	-0.963891	0.438937
C31	C	0.659344	-1.073613	0.438928
C32	C	0.659273	-1.585494	0.950797
C33	C	0.659326	-1.585561	1.060521
C34	C	0.860938	-1.451067	1.060578
C35	C	0.860891	-1.451006	0.950856
H36	H	0.942818	-0.919222	0.628337
C37	C	0.550099	-0.904141	0.365984
C38	C	0.571645	-0.796308	0.380413
C39	C	0.470999	-0.741237	0.313236
H40	H	0.573275	-0.922015	0.295375
H41	H	0.444022	-0.922047	0.381252
H42	H	0.677698	-0.778410	0.365138
H43	H	0.548458	-0.778404	0.451008
H44	H	0.364922	-0.759143	0.328504
H45	H	0.494183	-0.759119	0.242631
H46	H	0.485594	-0.668067	0.323024
H47	H	0.577323	-1.118282	0.384118
C48	C	0.969841	-1.133223	0.646722
C49	C	0.880334	-1.196170	0.713985
C50	C	0.980766	-1.251086	0.781430
H51	H	1.038703	-1.176127	0.606723
H52	H	1.029807	-1.084864	0.686863
H53	H	0.820395	-1.244523	0.673848
H54	H	0.811475	-1.153292	0.754007
H55	H	1.040732	-1.202727	0.821571
H56	H	1.049624	-1.293985	0.741422
H57	H	0.920050	-1.293795	0.827082
H58	H	0.577164	-1.640223	0.906111
C59	C	0.549732	-1.658642	1.119860
C60	C	0.461389	-1.717467	1.048303
C61	C	0.360397	-1.784794	1.102927
H62	H	0.609978	-1.704506	1.162609
H63	H	0.480878	-1.618537	1.162696
H64	H	0.530233	-1.757569	1.005485
H65	H	0.401110	-1.671631	1.005553
H66	H	0.291544	-1.744689	1.145763
H67	H	0.420656	-1.830651	1.145673
H68	H	0.300434	-1.824708	1.054384
H69	H	0.943037	-1.396344	1.105281
C70	C	0.970569	-1.378018	0.891454
C71	C	1.126697	-1.400806	0.918099
C72	C	1.227773	-1.333590	0.863408
H73	H	0.956316	-1.387545	0.818231
H74	H	0.947494	-1.307431	0.909521
H75	H	1.149764	-1.471376	0.900025
H76	H	1.141000	-1.391273	0.991312
H77	H	1.204697	-1.263003	0.881476
H78	H	1.213506	-1.343122	0.790188
H79	H	1.333715	-1.349035	0.881487
