data_functionalizedCrystal
_audit_creation_method	'MofGen! by Chris Wilmer'
_symmetry_space_group_name_H-M	'P1'
_symmetry_Int_Tables_number	1
_symmetry_cell_setting	triclinic
loop_
_symmetry_equiv_pos_as_xyz
  x,y,z
_cell_length_a	19.077068
_cell_length_b	19.077372
_cell_length_c	19.076919
_cell_angle_alpha	94.474666
_cell_angle_beta	85.529249
_cell_angle_gamma	85.467681
loop_
_atom_site_label
_atom_site_type_symbol
_atom_site_fract_x
_atom_site_fract_y
_atom_site_fract_z
Zn1	Zn	-0.252675	-1.051083	0.366041
Zn2	Zn	0.080658	-0.717749	0.699374
Zn3	Zn	0.413992	-0.384416	1.032707
Zn4	Zn	-0.365832	-1.050995	0.252889
Zn5	Zn	-0.032499	-0.717662	0.586222
Zn6	Zn	0.300835	-0.384329	0.919556
Zn7	Zn	-0.252697	-0.937937	0.252886
Zn8	Zn	0.080637	-0.604604	0.586220
Zn9	Zn	0.413970	-0.271270	0.919553
Zn10	Zn	-0.375678	-0.928012	0.375858
Zn11	Zn	-0.042345	-0.594678	0.709192
Zn12	Zn	0.290989	-0.261345	1.042525
O13	O	-0.311720	-0.992007	0.311919
O14	O	0.021613	-0.658673	0.645252
O15	O	0.354946	-0.325340	0.978585
O16	O	-0.263556	-1.149892	0.346923
O17	O	0.069777	-0.816559	0.680256
O18	O	0.403111	-0.483225	1.013590
O19	O	-0.346713	-1.040115	0.154070
O20	O	-0.013380	-0.706782	0.487403
O21	O	0.319954	-0.373448	0.820737
O22	O	-0.153869	-0.957136	0.263787
O23	O	0.179464	-0.623803	0.597120
O24	O	0.512798	-0.290470	0.930454
O25	O	-0.346692	-1.149828	0.263791
O26	O	-0.013359	-0.816494	0.597124
O27	O	0.319975	-0.483161	0.930458
O28	O	-0.153853	-1.040264	0.346921
O29	O	0.179480	-0.706931	0.680254
O30	O	0.512813	-0.373597	1.013587
O31	O	-0.263593	-0.957052	0.154068
O32	O	0.069741	-0.623718	0.487402
O33	O	0.403074	-0.290385	0.820735
O34	O	-0.273140	-0.837799	0.273307
O35	O	0.060193	-0.504466	0.606640
O36	O	0.393527	-0.171133	0.939973
O37	O	-0.363473	-0.940220	0.473375
O38	O	-0.030140	-0.606887	0.806708
O39	O	0.303194	-0.273553	1.140041
O40	O	-0.363494	-0.830507	0.363654
O41	O	-0.030160	-0.497174	0.696987
O42	O	0.303173	-0.163841	1.030320
O43	O	-0.273103	-1.030640	0.466162
O44	O	0.060230	-0.697306	0.799495
O45	O	0.393563	-0.363973	1.132828
O46	O	-0.465963	-1.030491	0.273311
O47	O	-0.132630	-0.697157	0.606644
O48	O	0.200704	-0.363824	0.939978
O49	O	-0.473197	-0.940135	0.363656
O50	O	-0.139863	-0.606802	0.696989
O51	O	0.193470	-0.273469	1.030323
C52	C	-0.319388	-0.808530	0.319546
C53	C	0.013945	-0.475197	0.652879
C54	C	0.347279	-0.141864	0.986212
C55	C	-0.322686	-0.730037	0.322826
C56	C	0.010647	-0.396703	0.656159
C57	C	0.343981	-0.063370	0.989493
C58	C	-0.346287	-0.287795	0.346389
C59	C	-0.012954	0.045538	0.679722
C60	C	0.320379	0.378872	1.013055
C61	C	-0.343193	-0.361548	0.343294
C62	C	-0.009860	-0.028215	0.676627
C63	C	0.323473	0.305118	1.009960
C64	C	-0.294534	-0.402199	0.294779
C65	C	0.038799	-0.068865	0.628112
C66	C	0.372132	0.264468	0.961446
C67	C	-0.248971	-0.369092	0.249352
C68	C	0.084362	-0.035759	0.582685
C69	C	0.417695	0.297575	0.916018
C70	C	-0.252069	-0.295340	0.252444
C71	C	0.081264	0.037993	0.585777
C72	C	0.414598	0.371327	0.919111
C73	C	-0.280221	-0.623178	0.280491
C74	C	0.053112	-0.289845	0.613825
C75	C	0.386446	0.043488	0.947158
C76	C	-0.277125	-0.696935	0.277404
C77	C	0.056208	-0.363602	0.610737
C78	C	0.389542	-0.030268	0.944070
C79	C	-0.371348	-0.689386	0.371345
C80	C	-0.038015	-0.356053	0.704678
C81	C	0.295318	-0.022720	1.038012
C82	C	-0.374439	-0.615633	0.374436
C83	C	-0.041106	-0.282300	0.707769
C84	C	0.292228	0.051033	1.041103
C85	C	-0.328879	-0.582533	0.329006
C86	C	0.004455	-0.249200	0.662340
C87	C	0.337788	0.084133	0.995673
N88	N	-0.291369	-0.477586	0.291616
N89	N	0.041964	-0.144253	0.624949
N90	N	0.375297	0.189080	0.958282
N91	N	-0.332048	-0.507147	0.332167
N92	N	0.001286	-0.173813	0.665500
N93	N	0.334619	0.159520	0.998833
C94	C	-0.495204	-0.984245	0.319564
C95	C	-0.161870	-0.650912	0.652897
C96	C	0.171463	-0.317578	0.986230
C97	C	-0.573697	-0.980988	0.322855
C98	C	-0.240364	-0.647655	0.656189
C99	C	0.092970	-0.314322	0.989522
C100	C	-0.606784	-1.026535	0.277400
C101	C	-0.273450	-0.693202	0.610733
C102	C	0.059883	-0.359868	0.944066
C103	C	-0.680537	-1.023476	0.280500
C104	C	-0.347203	-0.690142	0.613833
C105	C	-0.013870	-0.356809	0.947166
C106	C	-0.721202	-0.974866	0.329052
C107	C	-0.387868	-0.641533	0.662385
C108	C	-0.054535	-0.308199	0.995719
C109	C	-0.688110	-0.929317	0.374512
C110	C	-0.354777	-0.595984	0.707846
C111	C	-0.021443	-0.262651	1.041179
C112	C	-0.614358	-0.932380	0.371415
C113	C	-0.281025	-0.599047	0.704749
C114	C	0.052308	-0.265714	1.038082
C115	C	-0.942182	-0.960660	0.343358
C116	C	-0.608849	-0.627326	0.676691
C117	C	-0.275515	-0.293993	1.010024
C118	C	-1.015939	-0.957599	0.346450
C119	C	-0.682605	-0.624265	0.679783
C120	C	-0.349272	-0.290932	1.013116
C121	C	-1.008360	-1.051759	0.252437
C122	C	-0.675027	-0.718425	0.585771
C123	C	-0.341694	-0.385092	0.919104
C124	C	-0.934608	-1.054814	0.249342
C125	C	-0.601274	-0.721481	0.582675
C126	C	-0.267941	-0.388148	0.916008
C127	C	-0.901522	-1.009268	0.294805
C128	C	-0.568189	-0.675935	0.628138
C129	C	-0.234856	-0.342602	0.961471
N130	N	-0.796589	-0.971736	0.332220
N131	N	-0.463256	-0.638403	0.665553
N132	N	-0.129922	-0.305070	0.998887
N133	N	-0.826136	-1.012402	0.291639
N134	N	-0.492803	-0.679069	0.624973
N135	N	-0.159469	-0.345735	0.958306
C136	C	-0.127520	-0.999817	0.304258
C137	C	0.205813	-0.666484	0.637592
C138	C	0.539146	-0.333150	0.970925
C139	C	-0.049025	-1.003145	0.300994
C140	C	0.284308	-0.669812	0.634327
C141	C	0.617641	-0.336479	0.967661
C142	C	-0.319384	-0.984332	0.496107
C143	C	0.013949	-0.650999	0.829441
C144	C	0.347283	-0.317666	1.162774
C145	C	-0.322650	-0.981062	0.574597
C146	C	0.010684	-0.647729	0.907931
C147	C	0.344017	-0.314395	1.241264
C148	C	-0.304019	-0.176200	0.304254
C149	C	0.029314	0.157133	0.637587
C150	C	0.362648	0.490467	0.970921
C151	C	-0.300726	-0.254693	0.300966
C152	C	0.032607	0.078640	0.634300
C153	C	0.365940	0.411973	0.967633
C154	C	-0.304034	-0.999694	0.128443
C155	C	0.029299	-0.666360	0.461776
C156	C	0.362633	-0.333027	0.795109
C157	C	-0.300564	-1.003109	0.049939
C158	C	0.032770	-0.669776	0.383272
C159	C	0.366103	-0.336442	0.716606
C160	C	-0.277135	-1.026600	0.607718
C161	C	0.056198	-0.693267	0.941051
C162	C	0.389531	-0.359933	1.274385
C163	C	-0.280202	-1.023519	0.681468
C164	C	0.053132	-0.690185	1.014802
C165	C	0.386465	-0.356852	1.348135
C166	C	-0.328786	-0.974903	0.722096
C167	C	0.004547	-0.641569	1.055430
C168	C	0.337881	-0.308236	1.388763
C169	C	-0.374302	-0.929360	0.688971
C170	C	-0.040969	-0.596026	1.022304
C171	C	0.292364	-0.262693	1.355637
C172	C	-0.371232	-0.932438	0.615222
C173	C	-0.037899	-0.599105	0.948555
C174	C	0.295435	-0.265771	1.281889
C175	C	-0.343010	-0.960645	0.943065
C176	C	-0.009677	-0.627311	1.276398
C177	C	0.323657	-0.293978	1.609731
C178	C	-0.346078	-0.957571	1.016818
C179	C	-0.012745	-0.624238	1.350152
C180	C	0.320589	-0.290905	1.683485
C181	C	-0.251976	-1.051730	1.009311
C182	C	0.081357	-0.718396	1.342644
C183	C	0.414691	-0.385063	1.675977
C184	C	-0.248913	-1.054807	0.935561
C185	C	0.084420	-0.721473	1.268894
C186	C	0.417754	-0.388140	1.602227
C187	C	-0.294427	-1.009261	0.902442
C188	C	0.038907	-0.675928	1.235775
C189	C	0.372240	-0.342595	1.569108
N190	N	-0.331923	-0.971753	0.797481
N191	N	0.001411	-0.638420	1.130814
N192	N	0.334744	-0.305087	1.464148
N193	N	-0.291286	-1.012408	0.827058
N194	N	0.042047	-0.679074	1.160392
N195	N	0.375381	-0.345741	1.493725
H196	H	-0.243125	-0.596237	0.243497
H197	H	0.090208	-0.262904	0.576830
H198	H	0.423542	0.070430	0.910163
N199	N	-0.906502	-0.911530	0.392382
N200	N	-0.573168	-0.578197	0.725716
N201	N	-0.239835	-0.244864	1.059049
H202	H	-0.920951	-0.919818	0.442930
H203	H	-0.587618	-0.586485	0.776264
H204	H	-0.254285	-0.253152	1.109597
H205	H	-0.921052	-0.861030	0.383945
H206	H	-0.587718	-0.527697	0.717279
H207	H	-0.254385	-0.194363	1.050612
H208	H	-0.707472	-1.060564	0.243484
H209	H	-0.374139	-0.727231	0.576818
H210	H	-0.040806	-0.393898	0.910151
N211	N	-0.890751	-1.107251	0.196980
N212	N	-0.557418	-0.773917	0.530313
N213	N	-0.224085	-0.440584	0.863646
H214	H	-0.839009	-1.102279	0.201915
H215	H	-0.505676	-0.768946	0.535248
H216	H	-0.172343	-0.435612	0.868582
H217	H	-0.902033	-1.097866	0.147535
H218	H	-0.568700	-0.764533	0.480868
H219	H	-0.235366	-0.431200	0.814201
N220	N	-0.196492	-0.412932	0.197021
N221	N	0.136842	-0.079599	0.530354
N222	N	0.470175	0.253735	0.863687
H223	H	-0.201440	-0.464677	0.201955
H224	H	0.131893	-0.131344	0.535288
H225	H	0.465227	0.201990	0.868621
H226	H	-0.147076	-0.401709	0.206536
H227	H	0.186258	-0.068376	0.539870
H228	H	0.519591	0.264958	0.873203
N229	N	-1.059802	-0.905171	0.398822
N230	N	-0.726468	-0.571837	0.732156
N231	N	-0.393135	-0.238504	1.065489
H232	H	-1.090611	-0.872391	0.372742
H233	H	-0.757277	-0.539058	0.706075
H234	H	-0.423944	-0.205724	1.039409
H235	H	-1.027605	-0.876832	0.427141
H236	H	-0.694272	-0.543499	0.760474
H237	H	-0.360938	-0.210166	1.093807
N238	N	-0.562923	-1.078964	0.225034
N239	N	-0.229590	-0.745630	0.558367
N240	N	0.103744	-0.412297	0.891700
H241	H	-0.574147	-1.069608	0.175564
H242	H	-0.240814	-0.736275	0.508897
H243	H	0.092520	-0.402941	0.842230
H244	H	-0.574077	-1.128398	0.234546
H245	H	-0.240744	-0.795065	0.567880
H246	H	0.092589	-0.461732	0.901213
N247	N	-0.578675	-0.883248	0.420441
N248	N	-0.245342	-0.549915	0.753775
N249	N	0.087991	-0.216582	1.087108
H250	H	-0.548288	-0.853012	0.391793
H251	H	-0.214955	-0.519679	0.725127
H252	H	0.118378	-0.186346	1.058460
H253	H	-0.548239	-0.911875	0.450704
H254	H	-0.214906	-0.578542	0.784037
H255	H	0.118427	-0.245209	1.117370
H256	H	-0.214967	-0.268390	0.215458
H257	H	0.118367	0.064944	0.548791
H258	H	0.451700	0.398277	0.882125
H259	H	-0.385907	-0.254703	0.385898
H260	H	-0.052574	0.078631	0.719232
H261	H	0.280760	0.411964	1.052565
H262	H	-0.209352	-1.094397	0.902486
H263	H	0.123981	-0.761064	1.235819
H264	H	0.457314	-0.427730	1.569153
H265	H	-0.721225	-0.889741	0.414048
H266	H	-0.387892	-0.556408	0.747381
H267	H	-0.054558	-0.223074	1.080714
H268	H	-0.380296	-0.388496	0.380280
H269	H	-0.046962	-0.055163	0.713613
H270	H	0.286371	0.278170	1.046946
H271	H	-0.414064	-0.582541	0.413940
H272	H	-0.080730	-0.249207	0.747273
H273	H	0.252603	0.084126	1.080607
N274	N	-0.224738	-1.079041	0.563900
N275	N	0.108596	-0.745708	0.897234
N276	N	0.441929	-0.412374	1.230567
H277	H	-0.196370	-1.107420	0.596076
H278	H	0.136964	-0.774087	0.929409
H279	H	0.470297	-0.440754	1.262743
H280	H	-0.191983	-1.052960	0.533135
H281	H	0.141350	-0.719627	0.866468
H282	H	0.474684	-0.386293	1.199801
N283	N	-1.044044	-1.100878	0.203402
N284	N	-0.710711	-0.767545	0.536735
N285	N	-0.377378	-0.434211	0.870068
H286	H	-1.096936	-1.091563	0.212728
H287	H	-0.763603	-0.758229	0.546061
H288	H	-0.430269	-0.424896	0.879394
H289	H	-1.029456	-1.151382	0.211791
H290	H	-0.696123	-0.818049	0.545125
H291	H	-0.362789	-0.484716	0.878458
H292	H	-0.243141	-1.060602	0.708432
H293	H	0.090193	-0.727269	1.041765
H294	H	0.423526	-0.393936	1.375098
N295	N	-0.420491	-0.725087	0.420337
N296	N	-0.087157	-0.391753	0.753671
N297	N	0.246176	-0.058420	1.087004
H298	H	-0.411149	-0.777976	0.411017
H299	H	-0.077815	-0.444643	0.744351
H300	H	0.255518	-0.111310	1.077684
H301	H	-0.470988	-0.710522	0.411897
H302	H	-0.137655	-0.377188	0.745230
H303	H	0.195679	-0.043855	1.078564
N304	N	-0.202887	-1.100850	1.045031
N305	N	0.130446	-0.767516	1.378365
N306	N	0.463779	-0.434183	1.711698
H307	H	-0.212202	-1.091525	1.097916
H308	H	0.121132	-0.758191	1.431249
H309	H	0.454465	-0.424858	1.764582
H310	H	-0.152374	-1.092534	1.030499
H311	H	0.180959	-0.759200	1.363832
H312	H	0.514293	-0.425867	1.697165
H313	H	-0.380080	-0.923568	0.916108
H314	H	-0.046747	-0.590235	1.249441
H315	H	0.286586	-0.256902	1.582775
N316	N	-0.224643	-0.740782	0.225073
N317	N	0.108691	-0.407449	0.558406
N318	N	0.442024	-0.074115	0.891740
H319	H	-0.196252	-0.708623	0.196761
H320	H	0.137082	-0.375289	0.530094
H321	H	0.470415	-0.041956	0.863427
H322	H	-0.250696	-0.771524	0.192264
H323	H	0.082637	-0.438191	0.525598
H324	H	0.415971	-0.104857	0.858931
H325	H	-0.413858	-0.889773	0.722056
H326	H	-0.080525	-0.556440	1.055389
H327	H	0.252809	-0.223106	1.388723
N328	N	-0.398484	-0.905135	1.060642
N329	N	-0.065151	-0.571802	1.393975
N330	N	0.268183	-0.238468	1.727308
H331	H	-0.426851	-0.876749	1.028471
H332	H	-0.093518	-0.543415	1.361804
H333	H	0.239816	-0.210082	1.695137
H334	H	-0.372375	-0.872401	1.091405
H335	H	-0.039042	-0.539068	1.424738
H336	H	0.294291	-0.205735	1.758072
N337	N	-0.420316	-0.883316	0.579495
N338	N	-0.086982	-0.549983	0.912828
N339	N	0.246351	-0.216650	1.246162
H340	H	-0.451559	-0.852050	0.616422
H341	H	-0.118226	-0.518717	0.949756
H342	H	0.215107	-0.185383	1.283089
H343	H	-0.450524	-0.911947	0.549058
H344	H	-0.117191	-0.578614	0.882392
H345	H	0.216142	-0.245280	1.215725
