data_functionalizedCrystal
_audit_creation_method	'MofGen! by Chris Wilmer'
_symmetry_space_group_name_H-M	'P1'
_symmetry_Int_Tables_number	1
_symmetry_cell_setting	triclinic
loop_
_symmetry_equiv_pos_as_xyz
  x,y,z
_cell_length_a	11.026607
_cell_length_b	9.065218
_cell_length_c	7.540329
_cell_angle_alpha	90.001757
_cell_angle_beta	90.002465
_cell_angle_gamma	96.800951
loop_
_atom_site_label
_atom_site_type_symbol
_atom_site_fract_x
_atom_site_fract_y
_atom_site_fract_z
O1	O	-1.616971	-0.619586	-0.147471
O2	O	-1.262889	-0.549033	-0.147474
O3	O	-1.447249	-0.371492	-0.147469
O4	O	-1.432611	-0.797127	-0.147476
O5	O	-1.447238	-0.371486	0.147496
O6	O	-1.262878	-0.549027	0.147491
O7	O	-1.616960	-0.619580	0.147494
Cu8	Cu	-1.439918	-0.584303	0.174425
Cu9	Cu	-1.439931	-0.584310	-0.174405
O10	O	-1.432600	-0.797121	0.147489
C11	C	-1.217530	-0.536015	0.000008
C12	C	-1.082389	-0.497214	0.000006
C13	C	-1.445836	-0.316152	0.000011
C14	C	-1.441630	-0.151260	0.000002
C15	C	-1.662319	-0.632598	0.000008
C16	C	-1.797460	-0.671399	-0.000002
C17	C	-1.009761	-0.604348	0.000003
C18	C	-0.870086	-0.564249	0.000001
C19	C	-1.434012	-0.852461	0.000005
C20	C	-1.438219	-1.017353	0.000002
N21	N	-1.439917	-0.584300	0.419774
N22	N	-1.439941	-0.584304	-0.419754
H23	H	-1.050987	-0.725756	0.000011
C24	C	-0.814902	-0.402440	-0.000089
C25	C	-0.687336	-0.394835	-0.000135
C26	C	-0.636458	-0.245805	-0.000245
H27	H	-0.840868	-0.354410	0.102742
H28	H	-0.840942	-0.354538	-0.102993
H29	H	-0.661307	-0.442716	0.102758
H30	H	-0.661336	-0.442833	-0.102959
H31	H	-0.662499	-0.197904	-0.103148
H32	H	-0.662434	-0.197788	0.102588
H33	H	-0.549901	-0.240626	-0.000292
H34	H	-0.838678	-0.792815	0.000008
H35	H	-1.041163	-0.375807	-0.000037
