data_functionalizedCrystal
_audit_creation_method	'MofGen! by Chris Wilmer'
_symmetry_space_group_name_H-M	'P1'
_symmetry_Int_Tables_number	1
_symmetry_cell_setting	triclinic
loop_
_symmetry_equiv_pos_as_xyz
  x,y,z
_cell_length_a	17.699083
_cell_length_b	10.268362
_cell_length_c	11.792254
_cell_angle_alpha	90.000844
_cell_angle_beta	83.740806
_cell_angle_gamma	89.998556
loop_
_atom_site_label
_atom_site_type_symbol
_atom_site_fract_x
_atom_site_fract_y
_atom_site_fract_z
O1	O	1.004845	0.108105	0.143524
O2	O	0.784567	0.108146	0.162197
O3	O	0.900047	0.108130	-0.012373
O4	O	0.889365	0.108120	0.318094
O5	O	0.900036	-0.108470	-0.012380
O6	O	0.784557	-0.108455	0.162190
O7	O	1.004835	-0.108496	0.143517
Cu8	Cu	0.894695	-0.128253	0.152853
Cu9	Cu	0.894707	0.127903	0.152861
O10	O	0.889355	-0.108480	0.318087
C11	C	0.756361	-0.000149	0.161524
C12	C	0.672332	-0.000133	0.159517
N13	N	0.894692	-0.308418	0.152846
C14	C	0.624261	-0.000136	0.261986
C15	C	0.545307	-0.000153	0.260093
C16	C	0.514427	-0.000157	0.155730
C17	C	0.562505	-0.000157	0.053253
C18	C	0.641457	-0.000150	0.055147
C19	C	0.244101	-0.000189	0.045613
C20	C	0.165143	-0.000193	0.043727
C21	C	0.147951	-0.000192	0.250559
C22	C	0.226903	-0.000185	0.252453
C23	C	0.274974	-0.000192	0.149977
C24	C	0.360584	-0.000176	0.152030
C25	C	0.428818	-0.000163	0.153675
C26	C	0.894703	-0.574089	0.152859
C27	C	0.894695	-0.426251	0.152855
C28	C	1.033041	-0.000198	0.144190
C29	C	1.117070	-0.000206	0.146197
C30	C	0.899369	-0.000166	-0.054659
C31	C	0.897355	-0.000152	-0.180648
N32	N	0.894716	0.308069	0.152859
C33	C	0.890033	-0.000182	0.360373
C34	C	0.892047	-0.000186	0.486362
C35	C	0.893683	-0.000179	0.588679
C36	C	0.895730	-0.000165	0.717041
H37	H	0.506170	-0.000154	0.343534
C38	C	0.260871	-0.000183	0.367253
C39	C	0.207993	-0.000196	0.479971
C40	C	0.241959	-0.000200	0.594774
C41	C	0.328803	-0.000191	0.596859
C42	C	0.381686	-0.000178	0.484138
C43	C	0.347720	-0.000174	0.369335
H44	H	0.143701	-0.000202	0.478431
H45	H	0.202811	-0.000209	0.678218
H46	H	0.353946	-0.000194	0.681843
H47	H	0.445977	-0.000172	0.485678
H48	H	0.386868	-0.000165	0.285891
C49	C	0.095072	-0.000199	0.363288
C50	C	0.098845	-0.112667	0.448870
C51	C	0.045969	-0.112668	0.561596
C52	C	-0.010681	-0.000202	0.588740
C53	C	-0.014457	0.112274	0.503156
C54	C	0.038419	0.112276	0.390430
H55	H	0.140783	-0.195929	0.428779
H56	H	0.048764	-0.195931	0.624951
H57	H	-0.049824	-0.000203	0.672187
H58	H	-0.056395	0.195536	0.523247
H59	H	0.035624	0.195539	0.327075
C60	C	0.528539	-0.000160	-0.061549
C61	C	0.441696	-0.000158	-0.063639
C62	C	0.407733	-0.000155	-0.178444
C63	C	0.460613	-0.000153	-0.291159
C64	C	0.547462	-0.000155	-0.289073
C65	C	0.581425	-0.000158	-0.174268
H66	H	0.402546	-0.000160	0.019803
H67	H	0.343441	-0.000154	-0.179987
H68	H	0.435471	-0.000151	-0.376145
H69	H	0.586611	-0.000153	-0.372515
H70	H	0.645716	-0.000159	-0.172725
H71	H	0.649397	-0.000132	0.346971
H72	H	0.680597	-0.000146	-0.028293
H73	H	0.283231	-0.000196	-0.037830
H74	H	0.140004	-0.000198	-0.041263
