data_functionalizedCrystal
_audit_creation_method	'MofGen! by Chris Wilmer'
_symmetry_space_group_name_H-M	'P1'
_symmetry_Int_Tables_number	1
_symmetry_cell_setting	triclinic
loop_
_symmetry_equiv_pos_as_xyz
  x,y,z
_cell_length_a	16.120297
_cell_length_b	14.908571
_cell_length_c	14.908183
_cell_angle_alpha	90.178529
_cell_angle_beta	89.407800
_cell_angle_gamma	90.247904
loop_
_atom_site_label
_atom_site_type_symbol
_atom_site_fract_x
_atom_site_fract_y
_atom_site_fract_z
Zn1	Zn	-0.517103	-1.324081	-0.464117
Zn2	Zn	-0.183770	-0.990747	-0.130784
Zn3	Zn	0.149564	-0.657414	0.202550
Zn4	Zn	-0.370061	-1.323813	-0.606909
Zn5	Zn	-0.036727	-0.990480	-0.273575
Zn6	Zn	0.296606	-0.657146	0.059758
Zn7	Zn	-0.371017	-1.182165	-0.447922
Zn8	Zn	-0.037684	-0.848832	-0.114589
Zn9	Zn	0.295650	-0.515499	0.218744
Zn10	Zn	-0.501129	-1.165942	-0.604929
Zn11	Zn	-0.167795	-0.832608	-0.271595
Zn12	Zn	0.165538	-0.499275	0.061738
O13	O	-0.439827	-1.249000	-0.530969
O14	O	-0.106494	-0.915667	-0.197636
O15	O	0.226839	-0.582333	0.135698
O16	O	-0.503882	-1.449507	-0.490665
O17	O	-0.170549	-1.116173	-0.157332
O18	O	0.162784	-0.782840	0.176002
O19	O	-0.254197	-1.311701	-0.579870
O20	O	0.079136	-0.978367	-0.246537
O21	O	0.412469	-0.645034	0.086797
O22	O	-0.397481	-1.207892	-0.324604
O23	O	-0.064148	-0.874559	0.008729
O24	O	0.269186	-0.541226	0.342063
O25	O	-0.395851	-1.449310	-0.595573
O26	O	-0.062518	-1.115977	-0.262240
O27	O	0.270816	-0.782643	0.071093
O28	O	-0.504810	-1.312157	-0.336502
O29	O	-0.171476	-0.978824	-0.003169
O30	O	0.161857	-0.645490	0.330164
O31	O	-0.254900	-1.207633	-0.463063
O32	O	0.078433	-0.874300	-0.129730
O33	O	0.411767	-0.540966	0.203603
O34	O	-0.381991	-1.054552	-0.461143
O35	O	-0.048658	-0.721218	-0.127810
O36	O	0.284675	-0.387885	0.205524
O37	O	-0.619238	-1.180241	-0.592198
O38	O	-0.285905	-0.846908	-0.258865
O39	O	0.047429	-0.513575	0.074468
O40	O	-0.477584	-1.042632	-0.576495
O41	O	-0.144251	-0.709299	-0.243162
O42	O	0.189083	-0.375965	0.090172
O43	O	-0.630974	-1.296425	-0.488745
O44	O	-0.297641	-0.963092	-0.155412
O45	O	0.035693	-0.629759	0.177922
O46	O	-0.380362	-1.295969	-0.732112
O47	O	-0.047028	-0.962636	-0.398779
O48	O	0.286305	-0.629302	-0.065446
O49	O	-0.476657	-1.179982	-0.730658
O50	O	-0.143324	-0.846648	-0.397324
O51	O	0.190010	-0.513315	-0.063991
C52	C	-0.428159	-1.016061	-0.516848
C53	C	-0.094825	-0.682728	-0.183514
C54	C	0.238508	-0.349394	0.149819
C55	C	-0.423185	-0.916406	-0.510829
C56	C	-0.089852	-0.583073	-0.177496
C57	C	0.243482	-0.249739	0.155838
C58	C	-0.656022	-1.236554	-0.542057
C59	C	-0.322688	-0.903220	-0.208724
C60	C	0.010645	-0.569887	0.124609
C61	C	-0.748151	-1.231250	-0.546782
C62	C	-0.414818	-0.897916	-0.213449
C63	C	-0.081484	-0.564583	0.119884
C64	C	-0.426691	-1.236209	-0.763920
C65	C	-0.093358	-0.902876	-0.430586
C66	C	0.239975	-0.569543	-0.097253
C67	C	-0.421104	-1.230818	-0.863583
C68	C	-0.087770	-0.897484	-0.530250
C69	C	0.245563	-0.564151	-0.196916
C70	C	-0.916832	-1.221534	-0.555387
C71	C	-0.583499	-0.888201	-0.222054
C72	C	-0.250166	-0.554867	0.111279
C73	C	-0.963698	-1.276657	-0.506293
C74	C	-0.630365	-0.943324	-0.172960
C75	C	-0.297031	-0.609991	0.160374
C76	C	-1.057558	-1.271252	-0.511081
C77	C	-0.724225	-0.937918	-0.177747
C78	C	-0.390891	-0.604585	0.155586
C79	C	-0.822964	-1.226939	-0.550601
C80	C	-0.489630	-0.893605	-0.217267
C81	C	-0.156297	-0.560272	0.116066
C82	C	-0.224480	-1.261453	-0.519862
C83	C	0.108853	-0.928120	-0.186529
C84	C	0.442187	-0.594787	0.146804
C85	C	-0.132374	-1.266945	-0.514895
C86	C	0.200959	-0.933611	-0.181562
C87	C	0.534292	-0.600278	0.151771
C88	C	-0.451542	-1.482849	-0.545147
C89	C	-0.118209	-1.149516	-0.211813
C90	C	0.215125	-0.816182	0.121520
C91	C	-0.456534	-1.582501	-0.551188
C92	C	-0.123201	-1.249168	-0.217855
C93	C	0.210133	-0.915835	0.115479
C94	C	-0.513228	-0.716779	-0.619806
C95	C	-0.179894	-0.383446	-0.286472
C96	C	0.153439	-0.050113	0.046861
C97	C	-0.508557	-0.623145	-0.614153
C98	C	-0.175224	-0.289811	-0.280820
C99	C	0.158109	0.043522	0.052513
C100	C	-0.409179	-0.635500	-0.493869
C101	C	-0.075846	-0.302167	-0.160535
C102	C	0.257487	0.031167	0.172798
C103	C	-0.413850	-0.729135	-0.499521
C104	C	-0.080516	-0.395801	-0.166188
C105	C	0.252817	-0.062468	0.167146
C106	C	-0.465875	-0.769771	-0.562492
C107	C	-0.132541	-0.436438	-0.229159
C108	C	0.200792	-0.103104	0.104174
C109	C	-0.470540	-0.863408	-0.568148
C110	C	-0.137207	-0.530074	-0.234815
C111	C	0.196127	-0.196741	0.098518
C112	C	-0.371167	-0.875761	-0.447860
C113	C	-0.037833	-0.542428	-0.114526
C114	C	0.295500	-0.209094	0.218807
C115	C	-0.366496	-0.782126	-0.442208
C116	C	-0.033163	-0.448793	-0.108874
C117	C	0.300170	-0.115460	0.224459
C118	C	-0.357307	-1.168983	-0.997935
C119	C	-0.023973	-0.835650	-0.664602
C120	C	0.309360	-0.502317	-0.331269
C121	C	-0.362555	-1.174046	-0.904292
C122	C	-0.029221	-0.840713	-0.570959
C123	C	0.304112	-0.507379	-0.237626
C124	C	-0.474410	-1.282529	-0.916524
C125	C	-0.141076	-0.949195	-0.583191
C126	C	0.192257	-0.615862	-0.249857
C127	C	-0.469162	-1.277466	-1.010167
C128	C	-0.135828	-0.944133	-0.676834
C129	C	0.197505	-0.610799	-0.343500
C130	C	-0.410607	-1.220693	-1.050869
C131	C	-0.077274	-0.887359	-0.717536
C132	C	0.256060	-0.554026	-0.384203
C133	C	-0.405356	-1.215635	-1.144514
C134	C	-0.072022	-0.882302	-0.811181
C135	C	0.261311	-0.548969	-0.477848
C136	C	-0.517214	-1.324113	-1.156744
C137	C	-0.183881	-0.990779	-0.823411
C138	C	0.149453	-0.657446	-0.490078
C139	C	-0.522462	-1.329175	-1.063101
C140	C	-0.189129	-0.995842	-0.729768
C141	C	0.144205	-0.662509	-0.396434
C142	C	-0.453034	-1.261864	-0.297111
C143	C	-0.119701	-0.928531	0.036222
C144	C	0.213633	-0.595198	0.369555
C145	C	-0.458662	-1.267346	-0.197455
C146	C	-0.125328	-0.934013	0.135878
C147	C	0.208005	-0.600680	0.469211
H148	H	-0.933330	-1.327909	-0.460665
H149	H	-0.599997	-0.994576	-0.127332
H150	H	-0.266663	-0.661242	0.206002
N151	N	-0.320082	-0.932916	-0.386043
N152	N	0.013251	-0.599582	-0.052710
N153	N	0.346584	-0.266249	0.280623
H154	H	-0.330931	-0.998400	-0.399179
H155	H	0.002402	-0.665067	-0.065846
H156	H	0.335736	-0.331733	0.267487
H157	H	-0.335866	-0.919314	-0.321706
H158	H	-0.002533	-0.585981	0.011627
H159	H	0.330800	-0.252647	0.344960
N160	N	-0.342201	-1.154409	-1.188419
N161	N	-0.008867	-0.821076	-0.855086
N162	N	0.324466	-0.487742	-0.521752
H163	H	-0.309233	-1.122418	-1.140672
H164	H	0.024100	-0.789085	-0.807339
H165	H	0.357433	-0.455752	-0.474005
H166	H	-0.371649	-1.108847	-1.226510
H167	H	-0.038316	-0.775513	-0.893177
H168	H	0.295017	-0.442180	-0.559844
N169	N	-0.559627	-0.565993	-0.675978
N170	N	-0.226294	-0.232660	-0.342645
N171	N	0.107039	0.100673	-0.009311
H172	H	-0.521602	-0.526807	-0.713396
H173	H	-0.188269	-0.193474	-0.380063
H174	H	0.145065	0.139860	-0.046729
H175	H	-0.598202	-0.526986	-0.639173
H176	H	-0.264869	-0.193653	-0.305840
H177	H	0.068465	0.139680	0.027493
H178	H	-0.309625	-1.122761	-1.031076
H179	H	0.023708	-0.789428	-0.697742
H180	H	0.357042	-0.456095	-0.364409
N181	N	-0.957064	-1.153657	-0.615823
N182	N	-0.623731	-0.820324	-0.282490
N183	N	-0.290398	-0.486991	0.050844
H184	H	-0.939146	-1.164906	-0.679980
H185	H	-0.605812	-0.831572	-0.346647
H186	H	-0.272479	-0.498239	-0.013313
H187	H	-0.939612	-1.091237	-0.597195
H188	H	-0.606279	-0.757904	-0.263862
H189	H	-0.272946	-0.424571	0.069472
N190	N	-0.526645	-0.907241	-0.636067
N191	N	-0.193312	-0.573908	-0.302734
N192	N	0.140022	-0.240574	0.030599
H193	H	-0.555936	-0.859459	-0.671515
H194	H	-0.222602	-0.526126	-0.338182
H195	H	0.110731	-0.192792	-0.004848
H196	H	-0.569048	-0.945886	-0.603949
H197	H	-0.235715	-0.612553	-0.270615
H198	H	0.097618	-0.279220	0.062718
N199	N	-0.537567	-1.343742	-0.872604
N200	N	-0.204233	-1.010408	-0.539271
N201	N	0.129100	-0.677075	-0.205937
H202	H	-0.508179	-1.389355	-0.834513
H203	H	-0.174846	-1.056022	-0.501180
H204	H	0.158488	-0.722688	-0.167846
H205	H	-0.570527	-1.375673	-0.920391
H206	H	-0.237194	-1.042340	-0.587058
H207	H	0.096139	-0.709007	-0.253725
N208	N	-0.569326	-0.760616	-0.687729
N209	N	-0.235993	-0.427283	-0.354396
N210	N	0.097340	-0.093950	-0.021062
H211	H	-0.598613	-0.712837	-0.723184
H212	H	-0.265280	-0.379504	-0.389850
H213	H	0.068053	-0.046170	-0.056517
H214	H	-0.611733	-0.799261	-0.655615
H215	H	-0.278399	-0.465928	-0.322281
H216	H	0.054934	-0.132595	0.011052
N217	N	-0.585615	-1.390399	-1.019190
N218	N	-0.252282	-1.057066	-0.685856
N219	N	0.081052	-0.723732	-0.352523
H220	H	-0.556223	-1.436013	-0.981104
H221	H	-0.222890	-1.102680	-0.647770
H222	H	0.110443	-0.769347	-0.314437
H223	H	-0.618569	-1.422329	-1.066983
H224	H	-0.285236	-1.088995	-0.733650
H225	H	0.048097	-0.755662	-0.400317
N226	N	-0.353040	-0.591663	-0.425985
N227	N	-0.019707	-0.258330	-0.092651
N228	N	0.313627	0.075004	0.240682
H229	H	-0.357260	-0.524305	-0.431114
H230	H	-0.023926	-0.190972	-0.097781
H231	H	0.309407	0.142362	0.235553
H232	H	-0.293867	-0.610676	-0.437834
H233	H	0.039467	-0.277343	-0.104501
H234	H	0.372800	0.055990	0.228832
H235	H	-0.319153	-1.131938	-0.861196
H236	H	0.014180	-0.798605	-0.527862
H237	H	0.347513	-0.465271	-0.194529
H238	H	-0.324142	-0.749027	-0.390936
H239	H	0.009192	-0.415694	-0.057603
H240	H	0.342525	-0.082360	0.275731
H241	H	-0.560613	-1.366221	-1.199853
H242	H	-0.227280	-1.032887	-0.866520
H243	H	0.106053	-0.699554	-0.533187
