data_functionalizedCrystal
_audit_creation_method	'MofGen! by Chris Wilmer'
_symmetry_space_group_name_H-M	'P1'
_symmetry_Int_Tables_number	1
_symmetry_cell_setting	triclinic
loop_
_symmetry_equiv_pos_as_xyz
  x,y,z
_cell_length_a	14.446369
_cell_length_b	17.917603
_cell_length_c	14.446369
_cell_angle_alpha	57.013865
_cell_angle_beta	90.002026
_cell_angle_gamma	63.032965
loop_
_atom_site_label
_atom_site_type_symbol
_atom_site_fract_x
_atom_site_fract_y
_atom_site_fract_z
Zr1	Zr	0.937973	0.818580	-0.167647
O2	O	0.798970	0.974606	-0.324260
O3	O	0.974478	0.662554	-0.113529
O4	O	0.983284	0.818571	-0.315446
O5	O	0.790164	0.818595	0.029985
O6	O	1.135621	0.818564	-0.315440
O7	O	0.790164	0.818588	-0.122343
O8	O	1.119868	0.539478	0.045753
O9	O	0.805917	1.097682	-0.331208
O10	O	1.111112	0.726724	-0.097822
O11	O	0.997425	0.726734	0.015854
O12	O	1.007793	0.910425	-0.221877
O13	O	0.894106	0.910435	-0.108201
Zr14	Zr	1.180933	0.818580	0.075309
Zr15	Zr	1.180933	0.818569	-0.167637
Zr16	Zr	0.937973	0.818590	0.075300
Zr17	Zr	0.949052	1.014872	-0.178727
Zr18	Zr	1.169854	0.622288	0.086389
O19	O	1.144428	0.974606	0.021191
O20	O	1.144427	0.974590	-0.324247
O21	O	0.798971	0.974621	0.021178
O22	O	1.319936	0.662554	0.231923
O23	O	1.319935	0.662538	-0.113515
O24	O	0.974478	0.662569	0.231909
O25	O	1.328742	0.818564	-0.122322
O26	O	1.135622	0.818588	0.223108
O27	O	0.983285	0.818595	0.223102
O28	O	1.328742	0.818571	0.030006
O29	O	0.999037	1.097673	-0.331200
O30	O	1.119869	0.539486	0.238863
O31	O	1.312989	0.539478	0.238870
O32	O	1.312989	0.539469	0.045760
O33	O	0.805917	1.097690	-0.138098
O34	O	0.999037	1.097682	-0.138090
O35	O	1.111112	0.726734	0.129540
O36	O	1.224800	0.726724	0.015863
O37	O	1.121481	0.910425	-0.108192
O38	O	1.007794	0.910435	0.005485
C39	C	1.045595	0.573048	-0.032309
C40	C	1.040891	0.489717	-0.027606
C41	C	0.755548	0.818593	-0.046181
C42	C	0.652405	0.818598	-0.046185
C43	C	1.032298	0.337148	-0.019016
C44	C	1.086605	0.300006	-0.073319
C45	C	1.081824	0.215112	-0.068539
C46	C	1.037078	0.422050	-0.023794
C47	C	0.440575	0.934445	-0.124064
C48	C	0.547811	0.934524	-0.124469
C49	C	0.645833	0.761045	-0.095234
C50	C	0.538106	0.761781	-0.095799
C51	C	0.539335	0.759403	0.080886
C52	C	0.645427	0.761586	0.080568
C53	C	1.363358	0.818566	-0.046157
C54	C	1.466501	0.818562	-0.046153
C55	C	1.059453	0.818566	-0.350057
C56	C	1.059452	0.818562	-0.453194
C57	C	1.073311	1.064111	-0.060028
C58	C	1.078014	1.147442	-0.064732
C59	C	1.124973	0.702714	-0.521635
C60	C	1.124657	0.702636	-0.414302
C61	C	0.939171	0.876114	-0.531007
C62	C	0.939524	0.875379	-0.637825
C63	C	1.113266	0.877757	-0.639526
C64	C	1.115642	0.875573	-0.530731
C65	C	1.059453	0.818593	0.257720
C66	C	1.059453	0.818598	0.360857
C67	C	1.349500	0.573035	-0.032297
C68	C	1.447939	0.489699	-0.027590
C69	C	1.045595	0.573062	0.271579
C70	C	1.040892	0.489735	0.379420
C71	C	1.349500	0.573048	0.271591
C72	C	1.447940	0.489717	0.379436
C73	C	0.769406	1.064111	-0.363929
C74	C	0.670966	1.147442	-0.471774
C75	C	0.769406	1.064125	-0.060040
C76	C	0.670967	1.147460	-0.064748
C77	C	1.073311	1.064098	-0.363917
C78	C	1.078014	1.147424	-0.471758
C79	C	1.434824	0.450564	-0.084732
C80	C	1.527309	0.372272	-0.080331
C81	C	1.632909	0.333111	-0.018782
C82	C	1.646023	0.372254	0.038362
C83	C	1.553539	0.450550	0.033954
C84	C	1.098027	0.450604	0.489416
C85	C	1.093604	0.372321	0.590753
C86	C	1.032052	0.333165	0.582091
C87	C	0.974910	0.372304	0.472083
C88	C	0.979327	0.450591	0.370749
C89	C	1.553522	0.450579	0.370743
C90	C	1.646026	0.372291	0.472065
C91	C	1.632945	0.333138	0.582079
C92	C	1.527353	0.372284	0.590769
C93	C	1.434851	0.450576	0.489448
C94	C	0.565385	1.186590	-0.463081
C95	C	0.472882	1.264902	-0.564404
C96	C	0.485962	1.304059	-0.674418
C97	C	0.591555	1.264908	-0.683108
C98	C	0.684056	1.186603	-0.581787
C99	C	0.684082	1.186604	-0.007616
C100	C	0.591598	1.264917	-0.012045
C101	C	0.485999	1.304081	-0.073598
C102	C	0.472885	1.264934	-0.130736
C103	C	0.565368	1.186627	-0.126315
C104	C	1.139576	1.186556	-0.463058
C105	C	1.144017	1.264839	-0.564376
C106	C	1.086889	1.303996	-0.674393
C107	C	1.025324	1.264857	-0.683089
C108	C	1.020890	1.186569	-0.581772
H109	H	1.136689	0.331967	-0.123399
H110	H	1.564233	0.482404	0.080493
C111	C	0.800232	1.143539	0.060090
H112	H	0.853445	1.091288	0.054557
H113	H	0.811904	1.199748	0.027605
H114	H	0.807008	1.112997	0.139889
C115	C	1.165722	0.493675	0.498966
H116	H	1.199097	0.459161	0.578995
H117	H	1.221163	0.480843	0.464365
H118	H	1.118652	0.567601	0.459450
C119	C	0.964631	0.293988	0.048621
H120	H	0.970248	0.241774	0.042984
H121	H	0.992180	0.263399	0.128439
H122	H	0.889705	0.350166	0.016142
H123	H	1.204286	0.833601	-0.476941
C124	C	0.549073	0.995527	-0.080536
H125	H	0.483898	1.020490	-0.062284
H126	H	0.611412	0.949878	-0.012514
H127	H	0.552661	1.053872	-0.139725
H128	H	0.389186	0.979929	-0.091729
C129	C	0.356722	1.308013	-0.198430
H130	H	0.303529	1.360245	-0.192862
H131	H	0.349923	1.338560	-0.278229
H132	H	0.345043	1.251803	-0.165936
C133	C	1.244095	0.641501	-0.337434
H134	H	1.244061	0.641333	-0.271559
H135	H	1.281597	0.570772	-0.311738
H136	H	1.280310	0.674654	-0.381559
H137	H	1.708206	0.269357	-0.015201
H138	H	0.491404	0.796484	0.122482
C139	C	1.073851	0.641296	-0.338200
H140	H	1.073482	0.641041	-0.272267
H141	H	1.000556	0.674413	-0.382817
H142	H	1.116177	0.570589	-0.312555
H143	H	0.602193	1.296800	-0.772694
C144	C	0.567621	0.646929	-0.023641
H145	H	0.645335	0.600029	0.005880
H146	H	0.539664	0.631676	0.039674
H147	H	0.536085	0.638225	-0.071979
H148	H	0.410702	1.367843	-0.077189
C149	C	1.211729	1.307889	-0.554795
H150	H	1.206205	1.360115	-0.630887
H151	H	1.184134	1.338439	-0.516260
H152	H	1.286632	1.251667	-0.511340
C153	C	1.762163	0.329234	0.462485
H154	H	1.756695	0.363755	0.382453
H155	H	1.803171	0.342071	0.497081
H156	H	1.798263	0.255308	0.501998
C157	C	1.512864	0.329217	-0.143178
H158	H	1.436725	0.363744	-0.180444
H159	H	1.548909	0.342050	-0.200071
H160	H	1.544032	0.255292	-0.087776
C161	C	1.567926	0.493640	0.249739
H162	H	1.497720	0.545869	0.190629
H163	H	1.609912	0.524187	0.239518
H164	H	1.605026	0.437423	0.244414
H165	H	0.647277	0.803549	0.117269
C166	C	0.606042	1.307954	0.050824
H167	H	0.682180	1.273397	0.088131
H168	H	0.574894	1.381873	-0.004557
H169	H	0.569978	1.295121	0.107706
C170	C	0.651753	0.815040	-0.220086
H171	H	0.658223	0.872648	-0.242503
H172	H	0.713924	0.765455	-0.222172
H173	H	0.586741	0.840353	-0.272616
C174	C	1.202428	1.143494	-0.342053
H175	H	1.239733	1.178012	-0.351399
H176	H	1.151936	1.156332	-0.302504
H177	H	1.254415	1.069567	-0.297612
H178	H	0.770022	1.154729	-0.588878
H179	H	0.554673	1.154759	-0.172835
C180	C	1.091765	1.390118	-0.785832
H181	H	1.136605	1.407818	-0.764884
H182	H	1.122089	1.364464	-0.828232
H183	H	1.019602	1.451220	-0.833119
H184	H	1.708275	0.269388	0.664572
C185	C	1.512978	0.329199	0.711788
H186	H	1.583195	0.276958	0.770877
H187	H	1.475884	0.385395	0.717140
H188	H	1.471000	0.298638	0.722016
H189	H	0.978812	1.296750	-0.772679
H190	H	0.970755	1.154717	-0.588872
H191	H	1.348885	0.482432	0.496542
C192	C	0.550981	1.143532	-0.342077
H193	H	0.621185	1.091282	-0.282966
H194	H	0.513893	1.199745	-0.336752
H195	H	0.508982	1.112992	-0.331857
C196	C	0.473203	0.817034	-0.221883
H197	H	0.512791	0.838825	-0.272278
H198	H	0.463446	0.769272	-0.224779
H199	H	0.403334	0.877113	-0.246388
H200	H	0.410633	1.367820	-0.756912
C201	C	0.745068	0.645902	-0.021905
H202	H	0.791502	0.631873	0.039419
H203	H	0.719802	0.599225	0.010433
H204	H	0.785136	0.635578	-0.070331
H205	H	0.547929	0.979949	-0.218283
C206	C	0.745904	0.647327	0.164899
H207	H	0.793633	0.632831	0.123723
H208	H	0.784058	0.639084	0.226576
H209	H	0.722003	0.599569	0.196406
H210	H	0.561955	0.674037	0.139133
C211	C	1.244722	0.641270	-0.514969
H212	H	1.282859	0.571542	-0.443399
H213	H	1.245337	0.638171	-0.578567
H214	H	1.279861	0.676188	-0.518805
C215	C	0.881809	0.820147	-0.634359
H216	H	0.858375	0.798362	-0.567807
H217	H	0.819801	0.867924	-0.703240
H218	H	0.931655	0.760065	-0.629868
H219	H	1.200764	0.840670	-0.641546
C220	C	0.869516	0.990229	-0.750466
H221	H	0.840980	1.037129	-0.730801
H222	H	0.913945	1.005492	-0.797308
H223	H	0.810410	0.998923	-0.792769
C224	C	0.869980	0.991258	-0.574294
H225	H	0.913938	1.005287	-0.545220
H226	H	0.844550	1.037933	-0.657333
H227	H	0.808773	1.001584	-0.547008
H228	H	0.386913	1.296766	-0.557306
H229	H	1.140140	0.340463	0.680315
H230	H	0.388144	0.979702	-0.217317
C231	C	1.027202	0.247047	0.693562
H232	H	0.982357	0.229330	0.672657
H233	H	1.099366	0.185962	0.740850
H234	H	0.996873	0.272730	0.735941
C235	C	0.881141	0.822127	-0.458265
H236	H	0.808398	0.857529	-0.506125
H237	H	0.920735	0.750327	-0.429134
H238	H	0.878477	0.825233	-0.394665
C239	C	1.058576	0.989821	-0.571647
H240	H	1.094221	1.022310	-0.618260
H241	H	0.983608	1.028603	-0.616448
H242	H	1.062711	0.989029	-0.505458
C243	C	1.049205	0.993083	-0.751688
H244	H	0.989964	1.005164	-0.798089
H245	H	1.021111	1.039588	-0.731482
H246	H	1.097015	1.005638	-0.794701
C247	C	0.907222	0.329213	0.462571
H248	H	0.912794	0.276975	0.538682
H249	H	0.832314	0.385407	0.419133
H250	H	0.934823	0.298647	0.424047
C251	C	1.762181	0.329157	0.106084
H252	H	1.756759	0.363674	0.139490
H253	H	1.798260	0.255236	0.166398
H254	H	1.803185	0.341985	0.054141
C255	C	0.916483	0.493620	0.249760
H256	H	0.879204	0.459075	0.259126
H257	H	0.864492	0.567542	0.205298
H258	H	0.966988	0.480765	0.210222
H259	H	1.348848	0.482447	-0.134866
H260	H	1.087732	0.657460	-0.518048
