data_functionalizedCrystal
_audit_creation_method	'MofGen! by Chris Wilmer'
_symmetry_space_group_name_H-M	'P1'
_symmetry_Int_Tables_number	1
_symmetry_cell_setting	triclinic
loop_
_symmetry_equiv_pos_as_xyz
  x,y,z
_cell_length_a	13.262390
_cell_length_b	15.538117
_cell_length_c	11.804365
_cell_angle_alpha	82.909523
_cell_angle_beta	62.657606
_cell_angle_gamma	113.376614
loop_
_atom_site_label
_atom_site_type_symbol
_atom_site_fract_x
_atom_site_fract_y
_atom_site_fract_z
O1	O	1.513466	-0.014188	-0.589213
O2	O	1.170788	-0.049156	-0.478224
O3	O	1.408832	0.109346	-0.555330
O4	O	1.275423	-0.172691	-0.512107
O5	O	1.346180	0.067658	-0.336980
O6	O	1.108137	-0.090844	-0.259874
O7	O	1.450815	-0.055877	-0.370863
Cu8	Cu	1.273755	-0.077167	-0.295431
Cu9	Cu	1.347848	-0.027866	-0.553655
O10	O	1.212772	-0.214379	-0.293757
C11	C	1.096676	-0.071874	-0.355191
C12	C	0.969192	-0.077446	-0.313901
C13	C	0.746459	-0.002239	-0.673623
C14	C	0.866241	0.003001	-0.712420
C15	C	0.891985	-0.017110	-0.612794
C16	C	0.797935	-0.042463	-0.474364
C17	C	0.678146	-0.047696	-0.435564
C18	C	0.823672	-0.062568	-0.374735
C19	C	0.729622	-0.087920	-0.236305
C20	C	0.609845	-0.093153	-0.197512
C21	C	0.584102	-0.073041	-0.297138
C22	C	0.943460	-0.057334	-0.413534
C23	C	0.875147	-0.102791	-0.175475
C24	C	0.755366	-0.108032	-0.136678
C25	C	1.391465	0.124412	-0.450680
C26	C	1.433043	0.231411	-0.464160
C27	C	1.019973	0.495120	-0.330348
C28	C	1.059067	0.595664	-0.343008
C29	C	1.278978	0.630925	-0.414236
C30	C	1.239904	0.530383	-0.401588
C31	C	1.110400	0.462488	-0.359642
C32	C	1.330331	0.497751	-0.430882
C33	C	1.291258	0.397217	-0.418228
C34	C	1.161758	0.329315	-0.376280
C35	C	1.071326	0.361954	-0.346988
C36	C	1.459833	0.565646	-0.472818
C37	C	1.550260	0.533014	-0.502112
C38	C	1.511190	0.432480	-0.489468
C39	C	1.381690	0.364578	-0.447520
C40	C	1.601621	0.399841	-0.518759
C41	C	1.562548	0.299307	-0.506105
C42	C	1.342616	0.264044	-0.434866
C43	C	1.524928	-0.033158	-0.493899
C44	C	1.652415	-0.027584	-0.535197
N45	N	1.221651	-0.111842	-0.113813
C46	C	1.230134	0.770555	-0.398410
C47	C	1.188543	0.663556	-0.384940
N48	N	1.399964	0.006817	-0.735277
C49	C	1.525093	0.090102	0.161845
C50	C	1.564510	0.116338	0.024416
C51	C	1.478799	0.059295	-0.010149
C52	C	1.353664	-0.023987	0.092731
C53	C	1.314247	-0.050230	0.230173
C54	C	1.267952	-0.081037	0.058179
C55	C	1.142817	-0.164320	0.161058
C56	C	1.103406	-0.190558	0.298485
C57	C	1.189118	-0.133515	0.333050
C58	C	1.307369	-0.054794	-0.079263
C59	C	1.096522	-0.195127	-0.010936
C60	C	1.057105	-0.221362	0.126493
H61	H	0.533281	-0.113779	-0.084796
C62	C	1.662024	0.263410	-0.538337
N63	N	1.736952	0.236373	-0.562613
H64	H	1.384420	0.686217	-0.448383
C65	C	1.522158	0.088164	-0.161325
N66	N	1.554818	0.109916	-0.275197
H67	H	1.491645	0.647509	-0.483131
C68	C	1.702150	0.207950	-0.088739
N69	N	1.805826	0.276960	-0.173970
H70	H	0.942811	0.023649	-0.825131
H71	H	0.914520	0.439837	-0.296202
C72	C	1.002231	-0.257877	-0.048949
N73	N	0.931218	-0.305136	-0.077590
C74	C	1.023755	-0.011335	-0.655478
N75	N	1.123011	-0.006983	-0.687634
C76	C	1.118777	0.218724	-0.362363
N77	N	1.086405	0.135427	-0.351883
C78	C	0.452329	-0.078817	-0.254466
N79	N	0.353076	-0.083171	-0.222328
C80	C	1.692712	0.607709	-0.548253
N81	N	1.800011	0.663970	-0.583011
C82	C	0.718134	0.019888	-0.783197
N83	N	0.696800	0.036557	-0.865735
C84	C	0.651902	-0.135912	0.015591
N85	N	0.573972	-0.156910	0.130280
C86	C	1.744069	0.474536	-0.564887
N87	N	1.851363	0.530797	-0.599631
C88	C	1.619362	0.152837	0.199879
N89	N	1.690371	0.200094	0.228525
H90	H	1.237163	0.208760	-0.400719
C91	C	1.145749	-0.162353	0.484234
N92	N	1.113083	-0.184065	0.598108
C93	C	0.965757	-0.282175	0.411649
N94	N	0.862078	-0.351180	0.496883
C95	C	0.959581	0.631555	-0.310787
N96	N	0.884650	0.658588	-0.286518
C97	C	0.903455	-0.124922	-0.065877
N98	N	0.924785	-0.141590	0.016665
C99	C	0.928864	0.287262	-0.300847
N100	N	0.821565	0.231004	-0.266089
H101	H	1.409254	0.013014	-0.163017
H102	H	1.020024	-0.036694	-0.526244
C103	C	0.919457	-0.312971	0.239677
N104	N	0.815779	-0.381969	0.324928
