data_functionalizedCrystal
_audit_creation_method	'MofGen! by Chris Wilmer'
_symmetry_space_group_name_H-M	'P1'
_symmetry_Int_Tables_number	1
_symmetry_cell_setting	triclinic
loop_
_symmetry_equiv_pos_as_xyz
  x,y,z
_cell_length_a	12.827893
_cell_length_b	14.908520
_cell_length_c	14.910749
_cell_angle_alpha	96.338978
_cell_angle_beta	93.223425
_cell_angle_gamma	93.320575
loop_
_atom_site_label
_atom_site_type_symbol
_atom_site_fract_x
_atom_site_fract_y
_atom_site_fract_z
Zn1	Zn	1.536557	-0.389635	-0.532383
Zn2	Zn	1.536269	-0.532344	-0.389792
Zn3	Zn	1.372327	-0.381006	-0.381086
Zn4	Zn	1.351077	-0.540950	-0.541065
O5	O	1.449057	-0.460984	-0.461082
O6	O	1.682753	-0.408576	-0.513479
O7	O	1.523295	-0.505056	-0.262011
O8	O	1.403125	-0.255489	-0.393880
O9	O	1.682542	-0.513424	-0.408718
O10	O	1.523785	-0.261829	-0.505037
O11	O	1.402847	-0.393868	-0.255615
O12	O	1.223273	-0.402212	-0.402298
O13	O	1.366908	-0.528090	-0.666540
O14	O	1.207661	-0.519722	-0.519833
O15	O	1.503180	-0.416920	-0.660161
O16	O	1.502690	-0.660147	-0.417136
O17	O	1.366630	-0.666469	-0.528275
C18	C	1.177550	-0.460965	-0.461064
C19	C	1.061395	-0.460980	-0.461079
C20	C	1.001912	-0.519209	-0.519159
C21	C	0.881860	-0.519226	-0.519176
C22	C	1.432350	-0.696151	-0.474612
C23	C	1.425296	-0.796759	-0.480431
C24	C	1.553851	-0.979172	-0.375728
C25	C	1.547226	-1.073702	-0.381192
C26	C	1.405428	-1.080349	-0.496827
C27	C	1.412053	-0.985820	-0.491363
C28	C	1.486265	-0.935234	-0.430810
C29	C	1.492884	-0.840703	-0.425342
C30	C	1.351092	-0.847353	-0.540981
C31	C	1.344467	-0.941882	-0.546445
C32	C	1.721625	-0.461003	-0.461101
C33	C	1.837777	-0.461011	-0.461109
C34	C	1.432706	-0.474428	-0.697102
C35	C	1.425737	-0.480157	-0.797679
C36	C	1.465858	-0.224899	-0.447519
C37	C	1.473017	-0.124293	-0.441739
C38	C	1.465410	-0.447527	-0.225977
C39	C	1.472599	-0.441543	-0.125385
C40	C	1.345133	-0.546866	0.057445
C41	C	1.351883	-0.541247	0.151960
C42	C	1.492844	-0.424680	0.158161
C43	C	1.486094	-0.430300	0.063647
C44	C	1.412237	-0.491396	0.013291
C45	C	1.405492	-0.497019	-0.081225
C46	C	1.546448	-0.380449	-0.075022
C47	C	1.553198	-0.374829	0.019493
H48	H	1.614270	-0.937984	-0.326418
O49	O	1.333800	-0.556483	-0.130049
C50	C	1.271373	-0.712452	-0.167404
C51	C	1.352616	-0.645207	-0.112049
H52	H	1.286571	-0.784202	-0.152885
H53	H	1.189388	-0.696037	-0.147830
H54	H	1.278058	-0.706898	-0.242534
H55	H	1.346027	-0.650725	-0.036905
H56	H	1.434568	-0.661643	-0.131698
O57	O	1.564723	-0.365383	0.206973
C58	C	1.747360	-0.318691	0.238121
C59	C	1.666063	-0.385891	0.182774
H60	H	1.829313	-0.335259	0.218590
H61	H	1.732338	-0.246923	0.223547
H62	H	1.740611	-0.324180	0.313256
H63	H	1.672766	-0.380484	0.107622
H64	H	1.681110	-0.457631	0.197424
O65	O	1.624835	-0.315361	0.068380
C66	C	1.687345	-0.159404	0.105660
C67	C	1.606135	-0.226648	0.050264
H68	H	1.672268	-0.087667	0.091019
H69	H	1.680643	-0.164836	0.180812
H70	H	1.769301	-0.175940	0.086111
H71	H	1.524143	-0.210156	0.069735
H72	H	1.612928	-0.221203	-0.024874
H73	H	1.285001	-0.596618	0.016445
O74	O	1.333375	-1.129631	-0.555566
C75	C	1.260385	-1.278213	-0.615268
C76	C	1.342018	-1.222511	-0.548693
H77	H	1.267359	-1.353318	-0.609747
H78	H	1.178510	-1.258863	-0.598240
H79	H	1.274901	-1.263689	-0.687159
H80	H	1.327599	-1.237006	-0.476780
H81	H	1.423865	-1.241871	-0.565799
H82	H	1.297233	-0.586411	0.187906
H83	H	1.039865	-0.569045	-0.568874
H84	H	0.888895	-0.411160	-0.411378
O85	O	1.272409	-0.991159	-0.605183
C86	C	1.199400	-1.139735	-0.664887
C87	C	1.281042	-1.084041	-0.598314
H88	H	1.206366	-1.214841	-0.659369
H89	H	1.117529	-1.120378	-0.647854
H90	H	1.213913	-1.125210	-0.736778
H91	H	1.266626	-1.098537	-0.526400
H92	H	1.362885	-1.103407	-0.615425
H93	H	1.023442	-0.411138	-0.411370
O94	O	1.613042	-1.116270	-0.327722
C95	C	1.791876	-1.142573	-0.285663
C96	C	1.717444	-1.094305	-0.346257
H97	H	1.876300	-1.124847	-0.300640
H98	H	1.780050	-1.119842	-0.211596
H99	H	1.774368	-1.218823	-0.299938
H100	H	1.734907	-1.018047	-0.332062
H101	H	1.729285	-1.117109	-0.420305
H102	H	0.830735	-0.569080	-0.568898
H103	H	1.296056	-0.811568	-0.585830
O104	O	1.565060	-0.791700	-0.366504
C105	C	1.704964	-0.795086	-0.252350
C106	C	1.623286	-0.850688	-0.318960
H107	H	1.752047	-0.842754	-0.213879
H108	H	1.759859	-0.753163	-0.291334
H109	H	1.663395	-0.748165	-0.202476
H110	H	1.664767	-0.897659	-0.368849
H111	H	1.568396	-0.892551	-0.279916
H112	H	1.601091	-0.335282	-0.110981
