data_functionalizedCrystal
_audit_creation_method	'MofGen! by Chris Wilmer'
_symmetry_space_group_name_H-M	'P1'
_symmetry_Int_Tables_number	1
_symmetry_cell_setting	triclinic
loop_
_symmetry_equiv_pos_as_xyz
  x,y,z
_cell_length_a	18.050591
_cell_length_b	18.050589
_cell_length_c	18.050582
_cell_angle_alpha	89.981795
_cell_angle_beta	90.020922
_cell_angle_gamma	89.975773
loop_
_atom_site_label
_atom_site_type_symbol
_atom_site_fract_x
_atom_site_fract_y
_atom_site_fract_z
Zn1	Zn	1.135293	0.295786	0.420054
Zn2	Zn	1.635293	0.795786	0.920054
Zn3	Zn	1.135203	0.419969	0.295873
Zn4	Zn	1.635203	0.919969	0.795873
Zn5	Zn	1.011112	0.295789	0.295865
Zn6	Zn	1.511112	0.795789	0.795865
Zn7	Zn	1.011060	0.419930	0.420009
Zn8	Zn	1.511060	0.919930	0.920009
O9	O	1.073167	0.357868	0.357950
O10	O	1.573167	0.857868	0.857950
O11	O	1.239205	0.312274	0.403603
O12	O	1.739205	0.812274	0.903603
O13	O	1.118727	0.403514	0.191948
O14	O	1.618727	0.903514	0.691948
O15	O	1.027644	0.191864	0.312354
O16	O	1.527644	0.691864	0.812354
O17	O	1.239140	0.403511	0.312369
O18	O	1.739140	0.903511	0.812369
O19	O	1.118879	0.191862	0.403595
O20	O	1.618879	0.691862	0.903595
O21	O	1.027557	0.312279	0.191942
O22	O	1.527557	0.812279	0.691942
O23	O	0.907180	0.312241	0.312311
O24	O	1.407180	0.812241	0.812311
O25	O	1.027555	0.403444	0.523940
O26	O	1.527555	0.903444	1.023940
O27	O	0.907142	0.403447	0.403519
O28	O	1.407142	0.903447	0.903519
O29	O	1.118828	0.312236	0.523973
O30	O	1.618828	0.812236	1.023973
O31	O	1.118676	0.523888	0.312325
O32	O	1.618676	1.023888	0.812325
O33	O	1.027468	0.523860	0.403527
O34	O	1.527468	1.023860	0.903527
C35	C	0.880215	0.357841	0.357909
C36	C	1.380215	0.857841	0.857909
C37	C	0.797669	0.357847	0.357909
C38	C	1.297669	0.857847	0.857909
C39	C	1.073077	0.550820	0.357938
C40	C	1.573077	1.050820	0.857938
C41	C	1.073107	0.633366	0.357958
C42	C	1.573107	1.133366	0.857958
C43	C	0.598217	0.308191	0.308425
C44	C	1.098217	0.808191	0.808425
C45	C	0.548798	0.375927	0.290154
C46	C	1.048798	0.875927	0.790154
C47	C	0.646539	0.357869	0.357943
C48	C	1.146539	0.857869	0.857943
C49	C	0.548877	0.290157	0.376212
C50	C	1.048877	0.790157	0.876212
C51	C	0.500553	0.357885	0.357974
C52	C	1.000553	0.857885	0.857974
C53	C	0.598206	0.425641	0.339637
C54	C	1.098206	0.925641	0.839637
C55	C	0.598289	0.339825	0.425726
C56	C	1.098289	0.839825	0.925726
C57	C	0.548892	0.407607	0.407481
C58	C	1.048892	0.907607	0.907481
C59	C	0.730637	0.357859	0.357923
C60	C	1.230637	0.857859	0.857923
C61	C	0.416457	0.357903	0.357994
C62	C	0.916457	0.857903	0.857994
C63	C	1.073196	0.357835	0.551656
C64	C	1.573196	0.857835	1.051656
C65	C	1.073208	0.357821	0.634202
C66	C	1.573208	0.857821	1.134202
C67	C	1.266872	0.357897	0.357992
C68	C	1.766872	0.857897	0.857992
C69	C	1.349418	0.357909	0.358010
C70	C	1.849418	0.857909	0.858010
C71	C	1.073277	0.164163	0.357979
C72	C	1.573277	0.664163	0.857979
C73	C	1.073324	0.081617	0.357991
C74	C	1.573324	0.581617	0.857991
C75	C	1.023557	0.832828	0.407536
C76	C	1.523557	1.332828	0.907536
C77	C	1.005459	0.882261	0.339767
C78	C	1.505459	1.382261	0.839767
C79	C	1.073180	0.784497	0.357967
C80	C	1.573180	1.284497	0.857967
C81	C	1.091314	0.882146	0.425744
C82	C	1.591314	1.382146	0.925744
C83	C	1.073249	0.930482	0.357983
C84	C	1.573249	1.430482	0.857983
C85	C	1.055046	0.832842	0.290162
C86	C	1.555046	1.332842	0.790162
C87	C	1.140933	0.832722	0.376186
C88	C	1.640933	1.332722	0.876186
C89	C	1.122861	0.882133	0.308370
C90	C	1.622861	1.382133	0.808370
C91	C	1.073138	0.700398	0.357959
C92	C	1.573138	1.200398	0.857959
C93	C	1.073291	1.014578	0.357983
C94	C	1.573291	1.514578	0.857983
C95	C	1.073181	0.357848	0.164998
C96	C	1.573181	0.857848	0.664998
C97	C	1.073312	0.357652	0.082453
C98	C	1.573312	0.857652	0.582453
C99	C	1.023612	0.407353	0.833635
C100	C	1.523612	0.907353	1.333635
C101	C	1.091367	0.425511	0.883034
C102	C	1.591367	0.925511	1.383034
C103	C	1.073245	0.357765	0.785332
C104	C	1.573245	0.857765	1.285332
C105	C	1.005527	0.339586	0.883014
C106	C	1.505527	0.839586	1.383014
C107	C	1.073274	0.357711	0.931317
C108	C	1.573274	0.857711	1.431317
C109	C	1.141036	0.375958	0.833645
C110	C	1.641036	0.875958	1.333645
C111	C	1.055150	0.290002	0.833620
C112	C	1.555150	0.790002	1.333620
C113	C	1.122952	0.308134	0.882998
C114	C	1.622952	0.808134	1.382998
C115	C	1.073227	0.357797	0.701234
C116	C	1.573227	0.857797	1.201234
C117	C	1.073300	0.357679	1.015414
C118	C	1.573300	0.857679	1.515414
H119	H	0.619875	0.266226	0.266503
H120	H	1.119875	0.766226	0.766503
H121	H	1.198333	0.391377	0.812050
H122	H	1.698333	0.891377	1.312050
C123	C	0.928099	0.911660	0.318952
C124	C	1.428099	1.411660	0.818952
H125	H	0.892873	0.894783	0.354213
H126	H	1.392873	1.394783	0.854213
H127	H	0.914899	0.894054	0.271151
H128	H	1.414899	1.394054	0.771151
H129	H	0.928798	0.964284	0.318670
H130	H	1.428798	1.464284	0.818670
C131	C	0.519425	0.396560	0.212738
C132	C	1.019425	0.896560	0.712738
H133	H	0.536308	0.361211	0.177599
H134	H	1.036308	0.861211	0.677599
H135	H	0.537040	0.444327	0.199429
H136	H	1.037040	0.944327	0.699429
H137	H	0.466800	0.396856	0.213423
H138	H	0.966800	0.896856	0.713423
C139	C	0.627350	0.503029	0.318687
C140	C	1.127350	1.003029	0.818687
H141	H	0.679980	0.502544	0.318778
H142	H	1.179980	1.002544	0.818778
H143	H	0.610067	0.538349	0.353652
H144	H	1.110067	1.038349	0.853652
H145	H	0.609994	0.515929	0.270693
H146	H	1.109994	1.015929	0.770693
C147	C	0.519809	0.464431	0.464066
C148	C	1.019809	0.964431	0.964066
H149	H	0.536790	0.512493	0.450978
H150	H	1.036790	1.012493	0.950978
H151	H	0.537503	0.452018	0.512061
H152	H	1.037503	0.952018	1.012061
H153	H	0.467182	0.463847	0.464055
H154	H	0.967182	0.963847	0.964055
C155	C	0.519605	0.212794	0.397078
C156	C	1.019605	0.712794	0.897078
H157	H	0.490670	0.216217	0.440899
H158	H	0.990670	0.716217	0.940899
H159	H	0.560186	0.180302	0.405351
H160	H	1.060186	0.680302	0.905351
H161	H	0.489886	0.194139	0.357853
H162	H	0.989886	0.694139	0.857853
C163	C	1.112030	0.911366	0.503171
C164	C	1.612030	1.411366	1.003171
H165	H	1.155874	0.940275	0.499862
H166	H	1.655874	1.440275	0.999862
H167	H	1.120215	0.870755	0.535645
H168	H	1.620215	1.370755	1.035645
H169	H	1.072784	0.941095	0.521771
H170	H	1.572784	1.441095	1.021771
C171	C	1.218287	0.803330	0.397012
C172	C	1.718287	1.303330	0.897012
H173	H	1.231079	0.820188	0.445199
H174	H	1.731079	1.320188	0.945199
H175	H	1.253666	0.820963	0.362287
H176	H	1.753666	1.320963	0.862287
H177	H	1.217835	0.750705	0.396413
H178	H	1.717835	1.250705	0.896413
C179	C	0.627686	0.319164	0.503121
C180	C	1.127686	0.819164	1.003121
H181	H	0.610828	0.271006	0.516018
H182	H	1.110828	0.771006	1.016018
H183	H	0.610064	0.353966	0.538434
H184	H	1.110064	0.853966	1.038434
H185	H	0.680310	0.319753	0.502651
H186	H	1.180310	0.819753	1.002651
H187	H	0.981678	0.449342	0.811961
H188	H	1.481678	0.949342	1.311961
C189	C	0.966788	0.803573	0.464081
C190	C	1.466788	1.303573	0.964081
H191	H	0.918695	0.820538	0.451018
H192	H	1.418695	1.320538	0.951018
H193	H	0.979173	0.821179	0.512101
H194	H	1.479173	1.321179	1.012101
H195	H	0.967464	0.750948	0.463996
H196	H	1.467464	1.250948	0.963996
C197	C	1.179732	0.251456	0.912102
C198	C	1.679732	0.751456	1.412102
H199	H	1.227803	0.264472	0.895106
H200	H	1.727803	0.764472	1.395106
H201	H	1.167278	0.203484	0.894434
H202	H	1.667278	0.703484	1.394434
H203	H	1.179153	0.251460	0.964729
H204	H	1.679153	0.751460	1.464729
H205	H	1.106690	0.482794	0.904739
H206	H	1.606690	0.982794	1.404739
C207	C	1.034266	0.803713	0.212719
C208	C	1.534266	1.303713	0.712719
H209	H	1.034341	0.751083	0.213193
H210	H	1.534341	1.251083	0.713193
H211	H	1.069316	0.820987	0.177484
H212	H	1.569316	1.320987	0.677484
H213	H	0.986306	0.821088	0.199711
H214	H	1.486306	1.321088	0.699711
C215	C	1.179588	0.911203	0.251689
C216	C	1.679588	1.411203	0.751689
H217	H	1.166609	0.894231	0.203592
H218	H	1.666609	1.394231	0.703592
H219	H	1.227549	0.893492	0.264214
H220	H	1.727549	1.393492	0.764214
H221	H	1.179590	0.963830	0.252284
H222	H	1.679590	1.463830	0.752284
H223	H	1.039807	0.232736	0.811899
H224	H	1.539807	0.732736	1.311899
H225	H	0.948246	0.324232	0.904701
H226	H	1.448246	0.824232	1.404701
