data_functionalizedCrystal
_audit_creation_method	'MofGen! by Chris Wilmer'
_symmetry_space_group_name_H-M	'P1'
_symmetry_Int_Tables_number	1
_symmetry_cell_setting	triclinic
loop_
_symmetry_equiv_pos_as_xyz
  x,y,z
_cell_length_a	9.616153
_cell_length_b	10.654550
_cell_length_c	10.654551
_cell_angle_alpha	95.514868
_cell_angle_beta	89.999402
_cell_angle_gamma	89.989593
loop_
_atom_site_label
_atom_site_type_symbol
_atom_site_fract_x
_atom_site_fract_y
_atom_site_fract_z
O1	O	0.115751	-1.667847	0.176394
O2	O	0.115727	-1.302368	0.193200
O3	O	0.115740	-1.493510	0.002057
O4	O	0.115738	-1.476705	0.367536
O5	O	-0.115551	-1.493484	0.002061
O6	O	-0.115564	-1.302342	0.193204
O7	O	-0.115541	-1.667820	0.176397
Zn8	Zn	-0.152275	-1.485077	0.184801
Zn9	Zn	0.152461	-1.485112	0.184796
O10	O	-0.115554	-1.476679	0.367540
C11	C	0.000079	-1.255557	0.191968
C12	C	0.000070	-1.116114	0.188276
N13	N	-0.360249	-1.485062	0.184804
C14	C	0.000098	-1.492263	-0.044739
C15	C	0.000107	-1.488570	-0.184182
C16	C	-0.580626	-1.382502	0.286709
C17	C	-0.419459	-1.382728	0.287091
C18	C	-0.418691	-1.616360	0.214569
C19	C	-0.579909	-1.615801	0.215291
C20	C	-0.580162	-1.457633	0.052799
C21	C	-0.418936	-1.454619	0.053655
N22	N	0.360436	-1.485136	0.184783
C23	C	0.000111	-1.714632	0.177629
C24	C	0.000128	-1.854075	0.181321
C25	C	0.000090	-1.036629	0.300817
C26	C	0.000114	-0.905608	0.297341
C27	C	0.000105	-0.933570	0.068771
C28	C	0.000071	-1.064589	0.072249
C29	C	0.000089	-1.088154	0.416844
C30	C	0.000110	-1.008667	0.529395
C31	C	0.000135	-0.877647	0.525918
C32	C	0.000138	-0.826112	0.409891
C33	C	0.126181	-1.486852	-0.249696
C34	C	0.126174	-1.483372	-0.380716
C35	C	-0.125992	-1.483333	-0.380697
C36	C	-0.125984	-1.486804	-0.249678
C37	C	0.252272	-1.488618	-0.184199
C38	C	0.378357	-1.486902	-0.249714
C39	C	0.378350	-1.483422	-0.380734
C40	C	0.252259	-1.481658	-0.446240
C41	C	0.000092	-1.477926	0.414336
C42	C	0.000092	-1.481619	0.553779
H43	H	-0.379950	-1.285169	0.269188
H44	H	-0.228650	-1.481898	-0.434043
H45	H	0.000076	-1.194836	0.419687
H46	H	0.252291	-1.491456	-0.077516
N47	N	0.000172	-0.692280	0.406315
N48	N	0.000189	-0.646288	0.302717
H49	H	0.000220	-0.551770	0.300190
H50	H	0.481014	-1.482011	-0.434071
N51	N	-0.368431	-1.542191	-0.046081
N52	N	-0.404742	-1.532066	-0.157305
H53	H	-0.369083	-1.593928	-0.227743
H54	H	0.252263	-1.478806	-0.552923
H55	H	-0.621124	-1.399947	0.384077
N56	N	-0.371070	-1.404830	0.409956
N57	N	-0.456366	-1.420149	0.495687
H58	H	-0.422194	-1.435739	0.582472
H59	H	-0.617496	-1.639862	0.311581
H60	H	-0.228645	-1.488176	-0.196332
H61	H	-0.619443	-1.284639	0.269082
H62	H	-0.618892	-1.694619	0.144041
H63	H	-0.380333	-1.694597	0.142356
N64	N	-0.368009	-1.647212	0.333997
N65	N	-0.288867	-1.572722	0.397388
H66	H	-0.253072	-1.594504	0.481737
H67	H	-0.380741	-1.358030	0.031093
H68	H	-0.620905	-1.363917	0.024458
H69	H	0.481015	-1.488326	-0.196369
N70	N	0.000074	-1.145807	-0.042695
N71	N	0.000047	-1.262784	-0.039568
H72	H	0.000047	-1.320148	-0.120749
N73	N	-0.627976	-1.551480	-0.042396
N74	N	-0.592281	-1.546677	-0.154642
H75	H	-0.626056	-1.612957	-0.221868
N76	N	0.000085	-1.061323	0.647896
N77	N	0.000059	-1.178304	0.650988
H78	H	0.000038	-1.215492	0.734682
N79	N	0.000134	-0.796470	0.640890
N80	N	0.000125	-0.842497	0.744470
H81	H	0.000129	-0.785169	0.825674
H82	H	0.000130	-0.891600	-0.025693
