data_functionalizedCrystal
_audit_creation_method	'MofGen! by Chris Wilmer'
_symmetry_space_group_name_H-M	'P1'
_symmetry_Int_Tables_number	1
_symmetry_cell_setting	triclinic
loop_
_symmetry_equiv_pos_as_xyz
  x,y,z
_cell_length_a	10.489741
_cell_length_b	10.489741
_cell_length_c	8.965430
_cell_angle_alpha	89.999293
_cell_angle_beta	89.998843
_cell_angle_gamma	95.460826
loop_
_atom_site_label
_atom_site_type_symbol
_atom_site_fract_x
_atom_site_fract_y
_atom_site_fract_z
O1	O	1.694053	-0.179958	-0.123946
O2	O	1.322858	-0.196851	-0.123969
O3	O	1.516902	-0.002807	-0.123948
O4	O	1.500009	-0.374003	-0.123967
O5	O	1.516886	-0.002820	0.124130
O6	O	1.322841	-0.196864	0.124110
O7	O	1.694037	-0.179971	0.124133
Cu8	Cu	1.508438	-0.188419	0.146773
Cu9	Cu	1.508457	-0.188404	-0.146609
O10	O	1.499993	-0.374016	0.124112
C11	C	1.275318	-0.195582	0.000067
C12	C	1.133688	-0.191765	0.000059
C13	C	1.515618	0.044718	0.000090
C14	C	1.511801	0.186348	0.000087
C15	C	1.065548	-0.068300	0.000079
C16	C	0.973430	-0.126617	-0.122237
C17	C	0.973447	-0.126659	0.122349
C18	C	1.043435	-0.250133	-0.122358
C19	C	1.043462	-0.250158	0.122338
C20	C	0.951371	-0.308564	-0.000007
C21	C	1.741577	-0.181241	0.000093
C22	C	1.883206	-0.185058	0.000092
C23	C	1.501277	-0.421541	0.000070
C24	C	1.505094	-0.563170	0.000063
N25	N	1.508433	-0.188429	0.353122
C26	C	1.388336	0.254488	0.000069
C27	C	1.446652	0.346604	0.122388
C28	C	1.446697	0.346591	-0.122198
C29	C	1.570167	0.276599	0.122508
C30	C	1.570195	0.276576	-0.122189
C31	C	1.628600	0.368665	0.000161
N32	N	1.508471	-0.188384	-0.352958
C33	C	1.418666	-0.278138	0.450418
C34	C	1.534163	-0.303949	0.549838
C35	C	1.392986	-0.162629	0.549830
C36	C	1.623988	-0.214298	0.450352
C37	C	1.482735	-0.072927	0.450336
C38	C	1.598314	-0.098690	0.549711
H39	H	1.115238	0.033196	-0.000069
O40	O	1.080333	-0.312605	0.245658
C41	C	1.019877	-0.438541	0.246700
H42	H	0.929164	-0.442909	0.176133
H43	H	1.087683	-0.506720	0.198660
C44	C	1.096200	-0.472742	0.494729
C45	C	0.984777	-0.478104	0.408067
H46	H	1.074553	-0.497151	0.594267
H47	H	1.136934	-0.387899	0.494026
H48	H	1.152694	-0.529558	0.454678
H49	H	0.928293	-0.421278	0.448107
H50	H	0.944032	-0.562939	0.408780
H51	H	1.286824	0.204837	0.000185
H52	H	1.394404	0.377610	0.225794
O53	O	1.560340	-0.420355	0.602072
C54	C	1.673057	-0.406158	0.688557
H55	H	1.733193	-0.314507	0.654576
H56	H	1.646802	-0.400715	0.811636
C57	C	1.676557	-0.634374	0.704410
C58	C	1.750422	-0.521812	0.662664
H59	H	1.724278	-0.705717	0.688444
H60	H	1.600615	-0.643940	0.646148
H61	H	1.654683	-0.629820	0.806973
H62	H	1.772281	-0.526360	0.560099
H63	H	1.826370	-0.512250	0.720908
O64	O	1.276391	-0.136760	0.601777
C65	C	1.182035	-0.231624	0.551214
H66	H	1.217672	-0.278689	0.446524
H67	H	1.161686	-0.307085	0.641811
C68	C	1.014545	-0.111928	0.643602
C69	C	1.058310	-0.169727	0.515012
H70	H	0.938223	-0.073751	0.621277
H71	H	1.078113	-0.048018	0.677673
H72	H	0.997597	-0.174823	0.719088
H73	H	1.075272	-0.106830	0.439537
H74	H	0.994741	-0.233625	0.480928
O75	O	1.328345	-0.368791	0.398208
C76	C	1.387510	-0.457293	0.309591
H77	H	1.482811	-0.410564	0.265931
H78	H	1.404975	-0.544661	0.379629
C79	C	1.182761	-0.556468	0.230783
C80	C	1.299806	-0.499070	0.177148
H81	H	1.128660	-0.582243	0.149089
H82	H	1.142900	-0.496845	0.290490
H83	H	1.197333	-0.629267	0.289148
H84	H	1.285234	-0.426264	0.118801
H85	H	1.339663	-0.558681	0.117428
H86	H	1.460937	0.024699	0.406596
H87	H	1.074270	-0.302327	-0.225883
O88	O	1.689086	-0.008139	0.601158
C89	C	1.753108	0.054417	0.479470
H90	H	1.743283	-0.010313	0.377168
H91	H	1.709012	0.147406	0.454934
C92	C	1.907945	0.164075	0.643529
C93	C	1.895888	0.084569	0.517883
H94	H	1.996017	0.182681	0.667224
H95	H	1.864810	0.121935	0.725514
H96	H	1.871190	0.241558	0.623066
H97	H	1.932627	0.007083	0.538354
H98	H	1.939032	0.126698	0.435902
H99	H	0.901947	-0.410168	-0.000079
H100	H	0.942422	-0.074371	-0.225643
O101	O	1.384382	0.383344	-0.245683
C102	C	1.343203	0.274531	-0.331525
H103	H	1.404860	0.193768	-0.304374
H104	H	1.238828	0.242616	-0.304507
C105	C	1.280195	0.407072	-0.531814
C106	C	1.355931	0.307882	-0.498476
H107	H	1.288040	0.427644	-0.634797
H108	H	1.307934	0.480382	-0.473979
H109	H	1.193223	0.380463	-0.509287
H110	H	1.442902	0.334497	-0.520985
H111	H	1.328208	0.234576	-0.556319
H112	H	0.942463	-0.074402	0.225758
H113	H	1.622398	0.245537	-0.225600
H114	H	1.622355	0.245761	0.226035
H115	H	1.730204	0.418089	0.000235
H116	H	1.721659	-0.236216	0.406840
