data_functionalizedCrystal
_audit_creation_method	'MofGen! by Chris Wilmer'
_symmetry_space_group_name_H-M	'P1'
_symmetry_Int_Tables_number	1
_symmetry_cell_setting	triclinic
loop_
_symmetry_equiv_pos_as_xyz
  x,y,z
_cell_length_a	21.295420
_cell_length_b	21.295417
_cell_length_c	12.759393
_cell_angle_alpha	89.961877
_cell_angle_beta	89.978160
_cell_angle_gamma	90.027953
loop_
_atom_site_label
_atom_site_type_symbol
_atom_site_fract_x
_atom_site_fract_y
_atom_site_fract_z
Zn1	Zn	0.962341	-0.250601	-0.594027
Zn2	Zn	0.962250	-0.355885	-0.418327
Zn3	Zn	0.857070	-0.250631	-0.418356
Zn4	Zn	0.857035	-0.355834	-0.593958
O5	O	0.909674	-0.303238	-0.506167
O6	O	1.050418	-0.264577	-0.570737
O7	O	0.948274	-0.341957	-0.271310
O8	O	0.871087	-0.162538	-0.441700
O9	O	1.050352	-0.341929	-0.441651
O10	O	0.948429	-0.162516	-0.570765
O11	O	0.870998	-0.264627	-0.271331
O12	O	0.768976	-0.264577	-0.441634
O13	O	0.871028	-0.341840	-0.740989
O14	O	0.768950	-0.341869	-0.570648
O15	O	0.948396	-0.264527	-0.741039
O16	O	0.948241	-0.443968	-0.441584
O17	O	0.870940	-0.443930	-0.570620
C18	C	0.746122	-0.303221	-0.506137
C19	C	0.676154	-0.303229	-0.506149
C20	C	0.176700	-0.343558	-0.573280
C21	C	0.242442	-0.343558	-0.573269
C22	C	0.275315	-0.303252	-0.506200
C23	C	0.242440	-0.262954	-0.439119
C24	C	0.176698	-0.262960	-0.439124
N25	N	0.378555	-0.248136	-0.498300
N26	N	0.441007	-0.248133	-0.498301
C27	C	0.473390	-0.303234	-0.506178
N28	N	0.440962	-0.358341	-0.514075
N29	N	0.378505	-0.358343	-0.514079
C30	C	0.346600	-0.303242	-0.506186
C31	C	0.577543	-0.343533	-0.573238
C32	C	0.643286	-0.343534	-0.573219
C33	C	0.643282	-0.262925	-0.439075
C34	C	0.577540	-0.262929	-0.439088
C35	C	0.544674	-0.303232	-0.506175
C36	C	0.909594	-0.466789	-0.506114
C37	C	0.909617	-0.536758	-0.506126
C38	C	0.949866	-0.569556	-0.573378
C39	C	0.949889	-0.635298	-0.573404
C40	C	0.909668	-0.668240	-0.506160
C41	C	0.869411	-0.635434	-0.438903
C42	C	0.869386	-0.569693	-0.438886
N43	N	0.904911	-0.771509	-0.414213
N44	N	0.904939	-0.833960	-0.414231
C45	C	0.909742	-0.866315	-0.506207
N46	N	0.914527	-0.833858	-0.598165
N47	N	0.914503	-0.771401	-0.598145
C48	C	0.909691	-0.739525	-0.506170
C49	C	0.950017	-0.970398	-0.573493
C50	C	0.950035	-1.036142	-0.573520
C51	C	0.869561	-1.036277	-0.439010
C52	C	0.869540	-0.970534	-0.438991
C53	C	0.909771	-0.937599	-0.506231
C54	C	1.073864	-0.303255	-0.506198
C55	C	1.143832	-0.303263	-0.506211
C56	C	0.909718	-0.303174	-0.780201
C57	C	0.909737	-0.303147	-0.896977
C58	C	0.909772	-0.139048	-0.506244
C59	C	0.909813	-0.069079	-0.506276
C60	C	0.950028	-0.262886	-0.951867
C61	C	0.950043	-0.262864	-1.061592
C62	C	0.869474	-0.343368	-1.061526
C63	C	0.869457	-0.343387	-0.951804
C64	C	0.990308	-0.222646	-0.897041
C65	C	1.030603	-0.182382	-0.951931
C66	C	1.030618	-0.182360	-1.061655
C67	C	0.990338	-0.222601	-1.116489
C68	C	0.909666	-0.303256	-0.233200
C69	C	0.909770	-0.303105	-0.116424
H70	H	0.149944	-0.376378	-0.627903
H71	H	0.269208	-0.376371	-0.627887
H72	H	0.990302	-0.222662	-0.807698
H73	H	0.149938	-0.230145	-0.384509
O74	O	0.990452	-0.222520	-1.223076
C75	C	1.034639	-0.178342	-1.259770
H76	H	1.071411	-0.169541	-1.196551
H77	H	1.058527	-0.197328	-1.333166
H78	H	1.009709	-0.132436	-1.279264
H79	H	1.063393	-0.149616	-0.907278
H80	H	0.836609	-0.542988	-0.384121
O81	O	0.830311	-0.667499	-0.373726
C82	C	0.789640	-0.705523	-0.433490
H83	H	0.811821	-0.715314	-0.513145
H84	H	0.781236	-0.751780	-0.390693
H85	H	0.742976	-0.680223	-0.444958
H86	H	0.550779	-0.230115	-0.384477
H87	H	0.982659	-0.662008	-0.628181
H88	H	0.836638	-0.376162	-0.907111
H89	H	0.982624	-0.542742	-0.628132
H90	H	0.982774	-0.943582	-0.628247
H91	H	0.982811	-1.062845	-0.628290
O92	O	0.830455	-1.068335	-0.373837
C93	C	0.789782	-1.106353	-0.433607
H94	H	0.811964	-1.116145	-0.513260
H95	H	0.781370	-1.152610	-0.390813
H96	H	0.743122	-1.081047	-0.445078
H97	H	0.836768	-0.943828	-0.384224
O98	O	1.069725	-0.143159	-1.114859
C99	C	1.055994	-0.080423	-1.088094
H100	H	1.031782	-0.079132	-1.008426
H101	H	1.101443	-0.052205	-1.084361
H102	H	1.023654	-0.059201	-1.149852
O103	O	0.274439	-0.223888	-0.373918
C104	C	0.312425	-0.259681	-0.305938
H105	H	0.322262	-0.307409	-0.342853
H106	H	0.358661	-0.234028	-0.291933
H107	H	0.287068	-0.266549	-0.228060
O108	O	0.545709	-0.382740	-0.638437
C109	C	0.588820	-0.418297	-0.697649
H110	H	0.635668	-0.420453	-0.654598
H111	H	0.569803	-0.467900	-0.708726
H112	H	0.595850	-0.395292	-0.777503
O113	O	0.675245	-0.382745	-0.638224
C114	C	0.713251	-0.423354	-0.578293
H115	H	0.693414	-0.427196	-0.495539
H116	H	0.713988	-0.471820	-0.616159
H117	H	0.763082	-0.403884	-0.574719
O118	O	0.675275	-0.223859	-0.373870
C119	C	0.713256	-0.259651	-0.305883
H120	H	0.723096	-0.307380	-0.342795
H121	H	0.759492	-0.233998	-0.291871
H122	H	0.687895	-0.266518	-0.228009
O123	O	0.830413	-0.382440	-1.114951
C124	C	0.839059	-0.373780	-1.223565
H125	H	0.887654	-0.353164	-1.238569
H126	H	0.834771	-0.420924	-1.265235
H127	H	0.801745	-0.340250	-1.254720
