data_functionalizedCrystal
_audit_creation_method	'MofGen! by Chris Wilmer'
_symmetry_space_group_name_H-M	'P1'
_symmetry_Int_Tables_number	1
_symmetry_cell_setting	triclinic
loop_
_symmetry_equiv_pos_as_xyz
  x,y,z
_cell_length_a	19.077105
_cell_length_b	14.908520
_cell_length_c	19.076919
_cell_angle_alpha	95.429006
_cell_angle_beta	90.076224
_cell_angle_gamma	91.150228
loop_
_atom_site_label
_atom_site_type_symbol
_atom_site_fract_x
_atom_site_fract_y
_atom_site_fract_z
Zn1	Zn	1.037881	-0.436364	-0.459234
Zn2	Zn	1.371214	-0.103030	-0.125900
Zn3	Zn	1.704547	0.230303	0.207433
Zn4	Zn	1.035744	-0.581390	-0.347980
Zn5	Zn	1.369077	-0.248057	-0.014647
Zn6	Zn	1.702411	0.085276	0.318686
Zn7	Zn	0.925663	-0.424281	-0.336506
Zn8	Zn	1.258996	-0.090947	-0.003173
Zn9	Zn	1.592330	0.242386	0.330161
Zn10	Zn	0.913591	-0.580846	-0.460710
Zn11	Zn	1.246924	-0.247513	-0.127376
Zn12	Zn	1.580258	0.085820	0.205957
O13	O	0.978220	-0.505720	-0.401107
O14	O	1.311553	-0.172387	-0.067774
O15	O	1.644886	0.160946	0.265559
O16	O	1.135682	-0.460886	-0.448660
O17	O	1.469015	-0.127553	-0.115327
O18	O	1.802349	0.205780	0.218007
O19	O	1.025299	-0.555720	-0.247919
O20	O	1.358633	-0.222387	0.085415
O21	O	1.691966	0.110946	0.418748
O22	O	0.946495	-0.299666	-0.347366
O23	O	1.279829	0.033667	-0.014033
O24	O	1.613162	0.367001	0.319300
O25	O	1.134112	-0.567437	-0.366923
O26	O	1.467445	-0.234103	-0.033589
O27	O	1.800779	0.099230	0.299744
O28	O	1.028941	-0.308543	-0.437534
O29	O	1.362274	0.024790	-0.104201
O30	O	1.695608	0.358123	0.229133
O31	O	0.944423	-0.440292	-0.239489
O32	O	1.277757	-0.106959	0.093845
O33	O	1.611090	0.226374	0.427178
O34	O	0.825977	-0.439765	-0.348797
O35	O	1.159310	-0.106432	-0.015464
O36	O	1.492643	0.226902	0.317869
O37	O	0.925920	-0.566510	-0.559053
O38	O	1.259254	-0.233176	-0.225720
O39	O	1.592587	0.100157	0.107613
O40	O	0.817107	-0.554793	-0.440049
O41	O	1.150441	-0.221460	-0.106716
O42	O	1.483774	0.111873	0.226617
O43	O	1.017235	-0.460359	-0.557969
O44	O	1.350569	-0.127025	-0.224636
O45	O	1.683902	0.206308	0.108698
O46	O	1.013594	-0.707536	-0.368354
O47	O	1.346927	-0.374202	-0.035021
O48	O	1.680260	-0.040869	0.298313
O49	O	0.923848	-0.707136	-0.451175
O50	O	1.257182	-0.373803	-0.117842
O51	O	1.590515	-0.040469	0.215491
C52	C	0.796110	-0.495910	-0.393339
C53	C	1.129443	-0.162576	-0.060005
C54	C	1.462776	0.170757	0.273328
C55	C	0.718201	-0.491735	-0.390033
C56	C	1.051534	-0.158402	-0.056700
C57	C	1.384867	0.174932	0.276634
C58	C	0.676998	-0.549746	-0.435923
C59	C	1.010332	-0.216413	-0.102590
C60	C	1.343665	0.116920	0.230744
C61	C	0.603795	-0.545812	-0.432820
C62	C	0.937128	-0.212479	-0.099486
C63	C	1.270462	0.120854	0.233847
C64	C	0.571795	-0.483870	-0.383823
C65	C	0.905128	-0.150537	-0.050489
C66	C	1.238462	0.182796	0.282844
C67	C	0.613003	-0.425853	-0.337931
C68	C	0.946336	-0.092520	-0.004597
C69	C	1.279669	0.240814	0.328736
C70	C	0.686205	-0.429783	-0.341038
C71	C	1.019538	-0.096450	-0.007705
C72	C	1.352872	0.236883	0.325629
C73	C	0.353358	-0.465680	-0.369446
C74	C	0.686691	-0.132347	-0.036112
C75	C	1.020024	0.200986	0.297221
C76	C	0.280150	-0.461756	-0.366341
C77	C	0.613483	-0.128423	-0.033007
C78	C	0.946817	0.204911	0.300326
C79	C	0.270947	-0.581715	-0.461231
C80	C	0.604281	-0.248381	-0.127897
C81	C	0.937614	0.084952	0.205436
C82	C	0.344151	-0.585643	-0.464331
C83	C	0.677484	-0.252310	-0.130997
C84	C	1.010818	0.081023	0.202336
C85	C	0.385353	-0.527623	-0.418441
C86	C	0.718686	-0.194289	-0.085108
C87	C	1.052019	0.139044	0.248225
N88	N	0.496969	-0.479850	-0.380648
N89	N	0.830303	-0.146516	-0.047315
N90	N	1.163636	0.186817	0.286019
N91	N	0.460177	-0.531640	-0.421620
N92	N	0.793510	-0.198306	-0.088287
N93	N	1.126844	0.135027	0.245047
C94	C	0.967198	-0.740065	-0.411186
C95	C	1.300531	-0.406731	-0.077853
C96	C	1.633864	-0.073398	0.255481
C97	C	0.962545	-0.840323	-0.415524
C98	C	1.295879	-0.506989	-0.082191
C99	C	1.629212	-0.173656	0.251143
C100	C	1.047344	-1.029082	-0.337510
C101	C	1.380678	-0.695748	-0.004177
C102	C	1.714011	-0.362415	0.329157
C103	C	1.042976	-1.123283	-0.341584
C104	C	1.376309	-0.789950	-0.008250
C105	C	1.709642	-0.456617	0.325083
C106	C	0.949443	-1.122929	-0.427749
C107	C	1.282777	-0.789596	-0.094415
C108	C	1.616110	-0.456262	0.238918
C109	C	0.953812	-1.028727	-0.423675
C110	C	1.287145	-0.695394	-0.090342
C111	C	1.620479	-0.362061	0.242992
C112	C	1.002763	-0.981807	-0.378553
C113	C	1.336097	-0.648474	-0.045220
C114	C	1.669430	-0.315140	0.288113
C115	C	1.007128	-0.887604	-0.374476
C116	C	1.340462	-0.554270	-0.041143
C117	C	1.673795	-0.220937	0.292190
C118	C	0.913600	-0.887251	-0.460644
C119	C	1.246933	-0.553918	-0.127311
C120	C	1.580266	-0.220585	0.206022
C121	C	0.909231	-0.981453	-0.464718
C122	C	1.242564	-0.648120	-0.131385
C123	C	1.575898	-0.314786	0.201949
C124	C	1.161040	-0.515570	-0.408907
C125	C	1.494374	-0.182237	-0.075573
C126	C	1.827707	0.151097	0.257760
C127	C	1.238948	-0.519767	-0.412230
C128	C	1.572281	-0.186434	-0.078897
C129	C	1.905614	0.146899	0.254436
C130	C	0.970470	-0.514721	-0.584776
C131	C	1.303803	-0.181388	-0.251442
C132	C	1.637136	0.151945	0.081891
C133	C	0.967167	-0.518557	-0.663044
C134	C	1.300500	-0.185224	-0.329711
C135	C	1.633834	0.148110	0.003622
C136	C	0.989303	-0.270463	-0.391006
C137	C	1.322636	0.062871	-0.057672
C138	C	1.655970	0.396204	0.275661
C139	C	0.994026	-0.170210	-0.386701
C140	C	1.327360	0.163123	-0.053367
C141	C	1.660693	0.496457	0.279966
C142	C	1.013156	-0.465095	-0.699251
C143	C	1.346489	-0.131761	-0.365918
C144	C	1.679822	0.201572	-0.032585
C145	C	1.010044	-0.468695	-0.772793
C146	C	1.343378	-0.135361	-0.439459
C147	C	1.676711	0.197972	-0.106126
C148	C	0.960947	-0.525763	-0.810125
C149	C	1.294280	-0.192429	-0.476792
C150	C	1.627613	0.140904	-0.143459
C151	C	0.914953	-0.579227	-0.773913
C152	C	1.248286	-0.245894	-0.440579
C153	C	1.581620	0.087439	-0.107246
C154	C	0.918062	-0.575622	-0.700373
C155	C	1.251395	-0.242289	-0.367039
C156	C	1.584728	0.091045	-0.033706
C157	C	0.946548	-0.542468	-1.030127
C158	C	1.279881	-0.209134	-0.696793
C159	C	1.613215	0.124199	-0.363460
C160	C	0.943444	-0.546071	-1.103672
C161	C	1.276778	-0.212738	-0.770339
C162	C	1.610111	0.120595	-0.437005
C163	C	1.038535	-0.435537	-1.102547
C164	C	1.371868	-0.102204	-0.769213
C165	C	1.705202	0.231130	-0.435880
C166	C	1.041642	-0.431941	-1.029006
C167	C	1.374976	-0.098607	-0.695672
C168	C	1.708309	0.234726	-0.362339
C169	C	0.995646	-0.485402	-0.992799
C170	C	1.328979	-0.152068	-0.659466
C171	C	1.662313	0.181265	-0.326132
N172	N	0.957767	-0.529446	-0.885296
N173	N	1.291100	-0.196113	-0.551963
N174	N	1.624433	0.137220	-0.218630
N175	N	0.998824	-0.481713	-0.917629
N176	N	1.332157	-0.148379	-0.584296
N177	N	1.665490	0.184954	-0.250962
C178	C	0.985983	-0.496691	-0.218153
C179	C	1.319316	-0.163358	0.115181
C180	C	1.652649	0.169975	0.448514
C181	C	0.989433	-0.492609	-0.139879
C182	C	1.322766	-0.159275	0.193454
C183	C	1.656100	0.174058	0.526787
H184	H	0.370200	-0.636085	-0.504228
H185	H	0.703533	-0.302751	-0.170894
H186	H	1.036867	0.030582	0.162439
F187	F	0.869112	-0.632522	-0.661838
F188	F	1.202446	-0.299188	-0.328505
F189	F	1.535779	0.034145	0.004828
H190	H	0.909594	-1.161148	-0.464489
H191	H	1.242927	-0.827815	-0.131156
H192	H	1.576261	-0.494482	0.202178
H193	H	0.254099	-0.411305	-0.326445
H194	H	0.587432	-0.077972	0.006888
H195	H	0.920765	0.255361	0.340222
H196	H	0.237393	-0.628951	-0.498592
H197	H	0.570727	-0.295617	-0.165259
H198	H	0.904060	0.037716	0.168075
F199	F	1.090426	-1.173593	-0.297901
F200	F	1.423760	-0.840260	0.035432
F201	F	1.757093	-0.506927	0.368765
H202	H	0.386895	-0.418442	-0.332074
H203	H	0.720229	-0.085109	0.001259
H204	H	1.053562	0.248224	0.334592
H205	H	0.903461	-0.592545	-1.134066
H206	H	1.236794	-0.259212	-0.800733
H207	H	1.570127	0.074122	-0.467400
F208	F	0.857139	-1.031399	-0.512739
F209	F	1.190472	-0.698065	-0.179406
F210	F	1.523805	-0.364732	0.153927
H211	H	0.586943	-0.375415	-0.298039
H212	H	0.920276	-0.042082	0.035294
H213	H	1.253609	0.291252	0.368627
H214	H	0.877297	-0.848750	-0.494062
H215	H	1.210630	-0.515416	-0.160729
H216	H	1.543964	-0.182083	0.172604
H217	H	1.053138	-0.418626	-0.668861
H218	H	1.386472	-0.085293	-0.335527
H219	H	1.719805	0.248040	-0.002194
H220	H	1.075982	-0.392011	-1.132034
H221	H	1.409315	-0.058678	-0.798700
H222	H	1.742648	0.274656	-0.465367
F223	F	0.862697	-0.639960	-0.813647
F224	F	1.196030	-0.306627	-0.480313
F225	F	1.529363	0.026707	-0.146980
H226	H	1.047495	-0.425162	-0.802269
H227	H	1.380828	-0.091829	-0.468936
H228	H	1.714162	0.241505	-0.135603
H229	H	1.081624	-0.385472	-0.998614
H230	H	1.414958	-0.052139	-0.665281
H231	H	1.748291	0.281194	-0.331948
H232	H	0.909104	-0.586013	-1.000657
H233	H	1.242438	-0.252680	-0.667324
H234	H	1.575771	0.080653	-0.333991
H235	H	1.046985	-0.849402	-0.337734
H236	H	1.380318	-0.516068	-0.004401
H237	H	1.713652	-0.182735	0.328933
F238	F	0.711048	-0.615678	-0.488069
F239	F	1.044381	-0.282345	-0.154736
F240	F	1.377715	0.050989	0.178597
H241	H	0.570251	-0.593052	-0.470187
H242	H	0.903584	-0.259719	-0.136854
H243	H	1.236917	0.073615	0.196479
H244	H	1.087198	-0.990878	-0.300765
H245	H	1.420531	-0.657545	0.032568
H246	H	1.753865	-0.324211	0.365902
F247	F	0.730055	-0.368038	-0.292197
F248	F	1.063389	-0.034705	0.041136
F249	F	1.396722	0.298629	0.374470
