data_functionalizedCrystal
_audit_creation_method	'MofGen! by Chris Wilmer'
_symmetry_space_group_name_H-M	'P1'
_symmetry_Int_Tables_number	1
_symmetry_cell_setting	triclinic
loop_
_symmetry_equiv_pos_as_xyz
  x,y,z
_cell_length_a	17.077404
_cell_length_b	16.625546
_cell_length_c	17.077396
_cell_angle_alpha	89.969785
_cell_angle_beta	89.981638
_cell_angle_gamma	90.020438
loop_
_atom_site_label
_atom_site_type_symbol
_atom_site_fract_x
_atom_site_fract_y
_atom_site_fract_z
Zn1	Zn	1.200057	-0.321045	-0.443809
Zn2	Zn	1.533390	0.012288	-0.110476
Zn3	Zn	1.866724	0.345621	0.222857
Zn4	Zn	1.199965	-0.455888	-0.312539
Zn5	Zn	1.533298	-0.122555	0.020794
Zn6	Zn	1.866632	0.210779	0.354127
Zn7	Zn	1.068789	-0.321068	-0.312560
Zn8	Zn	1.402122	0.012265	0.020773
Zn9	Zn	1.735455	0.345598	0.354107
Zn10	Zn	1.068758	-0.455835	-0.443766
Zn11	Zn	1.402091	-0.122502	-0.110432
Zn12	Zn	1.735424	0.210832	0.222901
O13	O	1.134392	-0.388459	-0.378169
O14	O	1.467725	-0.055126	-0.044835
O15	O	1.801059	0.278208	0.288498
O16	O	1.309892	-0.338945	-0.426406
O17	O	1.643225	-0.005612	-0.093073
O18	O	1.976558	0.327722	0.240261
O19	O	1.182539	-0.438036	-0.202695
O20	O	1.515872	-0.104702	0.130638
O21	O	1.849205	0.228631	0.463972
O22	O	1.086253	-0.208233	-0.329997
O23	O	1.419587	0.125100	0.003336
O24	O	1.752920	0.458434	0.336669
O25	O	1.309824	-0.438013	-0.329962
O26	O	1.643157	-0.104680	0.003371
O27	O	1.976491	0.228653	0.336704
O28	O	1.182695	-0.208216	-0.426426
O29	O	1.516029	0.125117	-0.093092
O30	O	1.849362	0.458451	0.240241
O31	O	1.086164	-0.338984	-0.202710
O32	O	1.419497	-0.005651	0.130623
O33	O	1.752831	0.327682	0.463956
O34	O	0.958938	-0.338933	-0.329955
O35	O	1.292271	-0.005599	0.003378
O36	O	1.625604	0.327734	0.336712
O37	O	1.086200	-0.437923	-0.553618
O38	O	1.419534	-0.104590	-0.220285
O39	O	1.752867	0.228744	0.113048
O40	O	0.958915	-0.437945	-0.426351
O41	O	1.292248	-0.104612	-0.093018
O42	O	1.625582	0.228722	0.240316
O43	O	1.182665	-0.338894	-0.553651
O44	O	1.515999	-0.005560	-0.220317
O45	O	1.849332	0.327773	0.113016
O46	O	1.182509	-0.568713	-0.329920
O47	O	1.515842	-0.235380	0.003413
O48	O	1.849175	0.097953	0.336747
O49	O	1.086111	-0.568674	-0.426331
O50	O	1.419444	-0.235341	-0.092998
O51	O	1.752778	0.097992	0.240335
C52	C	0.930444	-0.388436	-0.378151
C53	C	1.263778	-0.055103	-0.044818
C54	C	1.597111	0.278230	0.288516
C55	C	0.843194	-0.388446	-0.378162
C56	C	1.176528	-0.055113	-0.044829
C57	C	1.509861	0.278221	0.288505
C58	C	0.802240	-0.336953	-0.428457
C59	C	1.135573	-0.003619	-0.095123
C60	C	1.468907	0.329714	0.238210
C61	C	0.720260	-0.336958	-0.428460
C62	C	1.053593	-0.003625	-0.095127
C63	C	1.386926	0.329709	0.238206
C64	C	0.679235	-0.388461	-0.378173
C65	C	1.012568	-0.055128	-0.044839
C66	C	1.345902	0.278206	0.288494
C67	C	0.720195	-0.439956	-0.327872
C68	C	1.053528	-0.106623	0.005461
C69	C	1.386862	0.226710	0.338794
C70	C	0.802174	-0.439947	-0.327865
C71	C	1.135507	-0.106613	0.005468
C72	C	1.468841	0.226720	0.338801
C73	C	0.549325	-0.439975	-0.327892
C74	C	0.882658	-0.106641	0.005441
C75	C	1.215992	0.226692	0.338775
C76	C	0.467340	-0.439986	-0.327900
C77	C	0.800674	-0.106653	0.005434
C78	C	1.134007	0.226681	0.338767
C79	C	0.467411	-0.336986	-0.428487
C80	C	0.800744	-0.003653	-0.095154
C81	C	1.134077	0.329681	0.238180
C82	C	0.549390	-0.336976	-0.428480
C83	C	0.882723	-0.003643	-0.095147
C84	C	1.216056	0.329690	0.238187
C85	C	0.590344	-0.388473	-0.378180
C86	C	0.923677	-0.055140	-0.044847
C87	C	1.257011	0.278194	0.288486
C88	C	1.134318	-0.597950	-0.378136
C89	C	1.467651	-0.264617	-0.044802
C90	C	1.800984	0.068717	0.288531
C91	C	1.134358	-0.687571	-0.378148
C92	C	1.467691	-0.354238	-0.044815
C93	C	1.801024	-0.020904	0.288519
C94	C	1.134495	-1.015747	-0.378230
C95	C	1.467828	-0.682413	-0.044896
C96	C	1.801161	-0.349080	0.288437
C97	C	1.134454	-0.924438	-0.378209
C98	C	1.467787	-0.591105	-0.044876
C99	C	1.801121	-0.257772	0.288458
C100	C	1.134426	-0.851662	-0.378188
C101	C	1.467759	-0.518328	-0.044855
C102	C	1.801092	-0.184995	0.288478
C103	C	1.134386	-0.760348	-0.378169
C104	C	1.467720	-0.427014	-0.044835
C105	C	1.801053	-0.093681	0.288498
C106	C	1.339136	-0.388483	-0.378187
C107	C	1.672470	-0.055149	-0.044853
C108	C	2.005803	0.278184	0.288480
C109	C	1.426386	-0.388493	-0.378194
C110	C	1.759719	-0.055159	-0.044861
C111	C	2.093053	0.278174	0.288472
C112	C	1.134440	-0.388400	-0.582913
C113	C	1.467773	-0.055066	-0.249580
C114	C	1.801106	0.278267	0.083754
C115	C	1.134460	-0.388374	-0.670163
C116	C	1.467793	-0.055041	-0.336829
C117	C	1.801126	0.278292	-0.003496
C118	C	1.134488	-0.178150	-0.378219
C119	C	1.467821	0.155183	-0.044885
C120	C	1.801155	0.488516	0.288448
C121	C	1.134529	-0.088529	-0.378240
C122	C	1.467862	0.244804	-0.044907
C123	C	1.801196	0.578138	0.288427
C124	C	1.184691	-0.336806	-0.711171
C125	C	1.518024	-0.003472	-0.377838
C126	C	1.851358	0.329861	-0.044504
C127	C	1.184700	-0.336779	-0.793151
C128	C	1.518034	-0.003445	-0.459818
C129	C	1.851367	0.329888	-0.126485
C130	C	1.134482	-0.388325	-0.834122
C131	C	1.467815	-0.054992	-0.500789
C132	C	1.801149	0.278341	-0.167456
C133	C	1.084245	-0.439896	-0.793108
C134	C	1.417579	-0.106563	-0.459775
C135	C	1.750912	0.226770	-0.126442
C136	C	1.084233	-0.439919	-0.711129
C137	C	1.417566	-0.106585	-0.377796
C138	C	1.750899	0.226748	-0.044463
C139	C	1.084277	-0.439848	-0.963979
C140	C	1.417610	-0.106515	-0.630645
C141	C	1.750944	0.226819	-0.297312
C142	C	1.084291	-0.439827	-1.045963
C143	C	1.417624	-0.106494	-0.712630
C144	C	1.750957	0.226840	-0.379297
C145	C	1.184745	-0.336708	-1.046001
C146	C	1.518078	-0.003375	-0.712667
C147	C	1.851411	0.329959	-0.379334
C148	C	1.184732	-0.336730	-0.964022
C149	C	1.518065	-0.003397	-0.630688
C150	C	1.851399	0.329936	-0.297355
C151	C	1.134496	-0.388303	-0.923013
C152	C	1.467829	-0.054969	-0.589680
C153	C	1.801163	0.278364	-0.256347
C154	C	1.134390	-0.388460	-0.174221
C155	C	1.467723	-0.055127	0.159113
C156	C	1.801057	0.278207	0.492446
C157	C	1.134522	-0.388258	-0.086971
C158	C	1.467855	-0.054925	0.246362
C159	C	1.801188	0.278408	0.579695
H160	H	0.434062	-0.295054	-0.469441
H161	H	0.767395	0.038279	-0.136108
H162	H	1.100728	0.371613	0.197226
O163	O	0.676084	-0.281419	-0.482706
O164	O	1.009418	0.051915	-0.149372
O165	O	1.342751	0.385248	0.183961
H166	H	0.718384	-0.245611	-0.517679
H167	H	1.051717	0.087723	-0.184345
H168	H	1.385051	0.421056	0.148988
H169	H	1.043354	-0.481864	-0.826473
H170	H	1.376687	-0.148530	-0.493140
H171	H	1.710021	0.184803	-0.159807
H172	H	1.043397	-0.481799	-1.079319
H173	H	1.376730	-0.148466	-0.745986
H174	H	1.710063	0.184867	-0.412653
H175	H	1.225647	-0.294715	-1.079393
H176	H	1.558981	0.038619	-0.746060
H177	H	1.892314	0.371952	-0.412727
H178	H	1.043321	-0.481903	-0.677742
H179	H	1.376655	-0.148570	-0.344408
H180	H	1.709988	0.184763	-0.011075
H181	H	0.582667	-0.481907	-0.286931
H182	H	0.916001	-0.148573	0.046403
H183	H	1.249334	0.184760	0.379736
H184	H	0.835637	-0.295015	-0.469409
H185	H	1.168970	0.038318	-0.136076
H186	H	1.502303	0.371652	0.197258
O187	O	0.593643	-0.281423	-0.482711
O188	O	0.926976	0.051911	-0.149378
O189	O	1.260310	0.385244	0.183956
H190	H	0.551394	-0.245607	-0.517681
H191	H	0.884728	0.087726	-0.184348
H192	H	1.218061	0.421059	0.148986
O193	O	0.423087	-0.495522	-0.273652
O194	O	0.756420	-0.162189	0.059681
O195	O	1.089753	0.171144	0.393014
H196	H	0.438811	-0.558824	-0.286985
H197	H	0.772144	-0.225491	0.046348
H198	H	1.105477	0.107842	0.379681
H199	H	0.686786	-0.481887	-0.286923
H200	H	1.020119	-0.148554	0.046410
H201	H	1.353453	0.184780	0.379743
H202	H	0.835518	-0.481877	-0.286910
H203	H	1.168851	-0.148544	0.046424
H204	H	1.502184	0.184790	0.379757
H205	H	1.225587	-0.294833	-0.677818
H206	H	1.558920	0.038501	-0.344485
H207	H	1.892254	0.371834	-0.011152
H208	H	1.225605	-0.294788	-0.826537
H209	H	1.558939	0.038545	-0.493203
H210	H	1.892272	0.371879	-0.159870
O211	O	1.030090	-0.495466	-0.919743
O212	O	1.363424	-0.162132	-0.586410
O213	O	1.696757	0.171201	-0.253077
H214	H	0.995176	-0.531310	-0.962004
H215	H	1.328509	-0.197977	-0.628670
H216	H	1.661843	0.135357	-0.295337
O217	O	1.238898	-0.281140	-0.919826
O218	O	1.572231	0.052194	-0.586493
O219	O	1.905565	0.385527	-0.253160
H220	H	1.273828	-0.245270	-0.962113
H221	H	1.607162	0.088063	-0.628779
H222	H	1.940495	0.421397	-0.295446
