data_functionalizedCrystal
_audit_creation_method	'MofGen! by Chris Wilmer'
_symmetry_space_group_name_H-M	'P1'
_symmetry_Int_Tables_number	1
_symmetry_cell_setting	triclinic
loop_
_symmetry_equiv_pos_as_xyz
  x,y,z
_cell_length_a	14.853566
_cell_length_b	15.995292
_cell_length_c	13.330367
_cell_angle_alpha	89.998548
_cell_angle_beta	89.995295
_cell_angle_gamma	83.551515
loop_
_atom_site_label
_atom_site_type_symbol
_atom_site_fract_x
_atom_site_fract_y
_atom_site_fract_z
O1	O	1.196198	0.109315	-0.083350
O2	O	0.933717	0.122339	-0.083366
O3	O	1.072160	-0.006056	-0.083359
O4	O	1.057755	0.237709	-0.083357
O5	O	1.072140	-0.006059	0.083488
O6	O	0.933697	0.122336	0.083482
O7	O	1.196178	0.109312	0.083497
Cu8	Cu	1.064936	0.115824	0.098724
Cu9	Cu	1.064959	0.115827	-0.098592
O10	O	1.057735	0.237706	0.083490
C11	C	0.900120	0.121747	0.000056
C12	C	0.800039	0.119979	0.000050
C13	C	0.376876	0.112504	-0.090881
C14	C	0.376876	0.112501	0.091022
C15	C	0.470907	0.114161	0.091019
C16	C	0.517928	0.114994	0.000064
C17	C	0.470916	0.114167	-0.090887
C18	C	0.517925	0.114997	0.181969
C19	C	0.611962	0.116658	0.181969
C20	C	0.658984	0.117485	0.091014
C21	C	0.611967	0.116657	0.000058
C22	C	0.658988	0.117489	-0.090896
C23	C	0.611973	0.116655	-0.181852
C24	C	0.517939	0.114993	-0.181843
C25	C	0.753019	0.119147	0.091004
C26	C	0.753027	0.119152	-0.090902
C27	C	1.071564	-0.037254	0.000062
C28	C	1.069806	-0.130209	0.000055
C29	C	1.063344	-0.467955	0.000063
C30	C	1.163268	-0.444526	0.000442
C31	C	1.165168	-0.347849	0.000062
C32	C	1.066551	-0.300395	0.000060
C33	C	1.016605	-0.329552	-0.095218
C34	C	1.015402	-0.426344	-0.095295
C35	C	1.013339	-0.426207	0.094442
C36	C	1.017041	-0.329710	0.095698
C37	C	1.068357	-0.205697	0.000054
C38	C	1.061535	-0.562652	0.000062
C39	C	1.229775	0.109903	0.000074
C40	C	1.329856	0.111671	0.000073
C41	C	1.058331	0.268904	0.000067
C42	C	1.060089	0.361859	0.000068
N43	N	1.064926	0.115821	0.237505
N44	N	1.064977	0.115823	-0.237374
C45	C	1.003654	0.172658	0.710125
C46	C	1.126289	0.058990	0.710099
C47	C	1.126278	0.058987	0.605081
C48	C	1.064956	0.115822	0.552580
C49	C	1.003644	0.172659	0.605097
C50	C	1.187595	0.002157	0.552556
C51	C	1.187588	0.002153	0.447531
C52	C	1.126261	0.058984	0.395028
C53	C	1.064946	0.115822	0.447552
C54	C	1.003624	0.172657	0.395051
C55	C	0.942303	0.229492	0.447573
C56	C	0.942317	0.229490	0.552594
C57	C	1.126248	0.058986	0.290006
C58	C	1.003613	0.172658	0.290023
H59	H	0.650233	0.117336	0.256031
H60	H	1.237517	-0.044126	0.404774
C61	C	0.743568	0.118980	0.270807
C62	C	0.804697	0.120060	0.190973
H63	H	0.775474	0.119537	0.332525
H64	H	0.700011	0.167121	0.267025
H65	H	0.713771	0.069541	0.267019
H66	H	0.834489	0.169502	0.194756
H67	H	0.848270	0.071914	0.194756
H68	H	1.204285	-0.328779	0.068360
H69	H	0.892393	0.275764	0.595364
H70	H	1.201776	-0.472480	0.068770
C71	C	1.009654	-0.425883	0.274520
C72	C	1.055580	-0.464301	0.191936
H73	H	1.035737	-0.449407	0.334703
H74	H	1.014466	-0.367179	0.273289
H75	H	0.947612	-0.435022	0.271583
H76	H	1.117620	-0.455156	0.194869
H77	H	1.050776	-0.523019	0.193168
C78	C	0.882393	0.285017	0.300598
C79	C	0.936207	0.235135	0.232317
H80	H	0.840784	0.323591	0.264971
H81	H	0.849980	0.250105	0.341562
H82	H	0.919922	0.315197	0.341558
H83	H	0.898678	0.204951	0.191362
H84	H	0.968622	0.270053	0.191337
H85	H	1.201578	-0.473499	-0.067498
H86	H	0.892378	0.275771	0.404814
C87	C	1.006367	-0.251069	0.249476
C88	C	1.066125	-0.304597	0.190862
H89	H	1.036670	-0.235569	0.308229
H90	H	0.986009	-0.202026	0.212071
H91	H	0.955900	-0.279318	0.267893
H92	H	1.116589	-0.276346	0.172438
H93	H	1.086496	-0.353648	0.228274
H94	H	0.944036	-0.297768	-0.098763
H95	H	0.953726	0.218930	0.752891
H96	H	1.176178	0.012715	0.247248
H97	H	0.939787	-0.440283	0.095081
H98	H	1.051305	-0.309450	-0.166121
C99	C	1.247492	-0.053379	0.699527
C100	C	1.193684	-0.003488	0.767804
H101	H	1.289100	-0.091952	0.735157
H102	H	1.209966	-0.083553	0.658573
H103	H	1.279914	-0.018466	0.658558
H104	H	1.161256	-0.038401	0.808769
H105	H	1.231215	0.026687	0.808776
C106	C	0.743581	0.118992	-0.270710
C107	C	0.804708	0.120072	-0.190885
H108	H	0.775488	0.119566	-0.332433
H109	H	0.713798	0.069553	-0.266925
H110	H	0.700011	0.167133	-0.266915
H111	H	0.848274	0.071927	-0.194675
H112	H	0.834506	0.169516	-0.194671
C113	C	1.248537	-0.395133	-0.147509
C114	C	1.218299	-0.322931	-0.092298
H115	H	1.281333	-0.379747	-0.204535
H116	H	1.286839	-0.432598	-0.106701
H117	H	1.197943	-0.422012	-0.168749
H118	H	1.268894	-0.296054	-0.071052
H119	H	1.179996	-0.285452	-0.133114
H120	H	0.945060	-0.296824	0.101449
H121	H	0.650268	0.117339	-0.255907
C122	C	0.260983	0.182557	-0.196410
C123	C	0.325203	0.111591	-0.190858
H124	H	0.229086	0.181995	-0.258135
H125	H	0.219526	0.181814	-0.142250
H126	H	0.290789	0.231990	-0.192628
H127	H	0.295396	0.062157	-0.194632
H128	H	0.366666	0.112326	-0.245033
C129	C	0.402045	0.185060	-0.287354
C130	C	0.466256	0.114088	-0.281814
H131	H	0.370140	0.184505	-0.349074
H132	H	0.360594	0.184320	-0.233187
H133	H	0.431859	0.234489	-0.283574
H134	H	0.436442	0.064659	-0.285586
H135	H	0.507713	0.114820	-0.335996
C136	C	0.232727	0.109958	0.171793
C137	C	0.325193	0.111590	0.190995
H138	H	0.200821	0.109391	0.233517
H139	H	0.210442	0.158474	0.134430
H140	H	0.224211	0.060894	0.134423
H141	H	0.333710	0.160657	0.228360
H142	H	0.347486	0.063069	0.228374
H143	H	0.479633	0.114325	0.256019
C144	C	1.090938	-0.396934	-0.248417
C145	C	1.062127	-0.462497	-0.191431
H146	H	1.119791	-0.419254	-0.307765
H147	H	1.040107	-0.358231	-0.265822
H148	H	1.132468	-0.368864	-0.210314
H149	H	1.020592	-0.490564	-0.229532
H150	H	1.112965	-0.501215	-0.174028
H151	H	0.942137	-0.440979	-0.099613
H152	H	1.237527	-0.044112	0.595305
