data_functionalizedCrystal
_audit_creation_method	'MofGen! by Chris Wilmer'
_symmetry_space_group_name_H-M	'P1'
_symmetry_Int_Tables_number	1
_symmetry_cell_setting	triclinic
loop_
_symmetry_equiv_pos_as_xyz
  x,y,z
_cell_length_a	18.050590
_cell_length_b	18.050589
_cell_length_c	18.050583
_cell_angle_alpha	90.031910
_cell_angle_beta	89.997484
_cell_angle_gamma	90.015041
loop_
_atom_site_label
_atom_site_type_symbol
_atom_site_fract_x
_atom_site_fract_y
_atom_site_fract_z
Zn1	Zn	-1.135301	0.295868	-0.419568
Zn2	Zn	-1.135209	0.420081	-0.295387
Zn3	Zn	-1.011117	0.295880	-0.295432
Zn4	Zn	-1.011068	0.419992	-0.419576
O5	O	-1.073174	0.357955	-0.357491
O6	O	-1.239213	0.312377	-0.403073
O7	O	-1.118730	0.403648	-0.191468
O8	O	-1.027650	0.191954	-0.311914
O9	O	-1.239146	0.403635	-0.311838
O10	O	-1.118886	0.191945	-0.403116
O11	O	-1.027561	0.312398	-0.191501
O12	O	-0.907186	0.312312	-0.311922
O13	O	-1.027565	0.403484	-0.523499
O14	O	-0.907150	0.403496	-0.403130
O15	O	-1.118838	0.312290	-0.523493
O16	O	-1.118682	0.523993	-0.311846
O17	O	-1.027476	0.523928	-0.403087
C18	C	-0.880221	0.357896	-0.357532
C19	C	-0.797676	0.357889	-0.357568
C20	C	-0.598227	0.407609	-0.407059
C21	C	-0.548834	0.339888	-0.425331
C22	C	-0.646545	0.357924	-0.357539
C23	C	-0.548856	0.425679	-0.339273
C24	C	-0.500560	0.357965	-0.357513
C25	C	-0.598240	0.290167	-0.375847
C26	C	-0.598267	0.376004	-0.289757
C27	C	-0.548896	0.308236	-0.308004
C28	C	-0.730644	0.357902	-0.357556
C29	C	-0.416464	0.357979	-0.357495
C30	C	-1.073084	0.550907	-0.357478
C31	C	-1.073114	0.633453	-0.357498
C32	C	-1.073206	0.357876	-0.551196
C33	C	-1.073220	0.357842	-0.633742
C34	C	-0.266879	0.358004	-0.357462
C35	C	-0.349425	0.357999	-0.357481
C36	C	-1.073284	0.164249	-0.357519
C37	C	-1.073331	0.081704	-0.357531
C38	C	-1.023565	0.832895	-0.407097
C39	C	-1.005465	0.882341	-0.339336
C40	C	-1.073186	0.784583	-0.357508
C41	C	-1.091322	0.882219	-0.425277
C42	C	-1.073256	0.930568	-0.357523
C43	C	-1.055052	0.832942	-0.289710
C44	C	-1.140940	0.832816	-0.375697
C45	C	-1.122867	0.882239	-0.307889
C46	C	-1.073145	0.700485	-0.357500
C47	C	-1.073297	1.014665	-0.357523
C48	C	-1.122904	0.308227	-0.833190
C49	C	-1.055171	0.290035	-0.882605
C50	C	-1.073250	0.357829	-0.784873
C51	C	-1.141011	0.375974	-0.882539
C52	C	-1.073285	0.357815	-0.930858
C53	C	-1.005481	0.339602	-0.833201
C54	C	-1.091366	0.425573	-0.833130
C55	C	-1.023586	0.407407	-0.882523
C56	C	-1.073231	0.357835	-0.700774
C57	C	-1.073296	0.357810	-1.014954
C58	C	-1.073184	0.357980	-0.164539
C59	C	-1.073314	0.357805	-0.081993
H60	H	-0.527372	0.266188	-0.266116
H61	H	-0.619889	0.449554	-0.448980
Br62	Br	-1.029424	0.797020	-0.194168
H63	H	-0.527121	0.324608	-0.482642
Br64	Br	-1.192862	0.918124	-0.237927
Br65	Br	-0.953525	0.796781	-0.476898
H66	H	-1.198192	0.811047	-0.391100
H67	H	-0.981562	0.449348	-0.904048
H68	H	-0.619841	0.232868	-0.391350
H69	H	-1.198301	0.391325	-0.904215
Br70	Br	-0.634456	0.401488	-0.194246
H71	H	-1.106634	0.903865	-0.482582
H72	H	-0.527161	0.482960	-0.323837
H73	H	-0.948201	0.904112	-0.323965
H74	H	-1.164827	0.266254	-0.811526
H75	H	-0.948174	0.324183	-0.811619
Br76	Br	-1.029647	0.194542	-0.918829
H77	H	-1.106699	0.482852	-0.811384
