data_functionalizedCrystal
_audit_creation_method	'MofGen! by Chris Wilmer'
_symmetry_space_group_name_H-M	'P1'
_symmetry_Int_Tables_number	1
_symmetry_cell_setting	triclinic
loop_
_symmetry_equiv_pos_as_xyz
  x,y,z
_cell_length_a	12.645331
_cell_length_b	19.120786
_cell_length_c	12.645323
_cell_angle_alpha	92.471912
_cell_angle_beta	90.022676
_cell_angle_gamma	92.464092
loop_
_atom_site_label
_atom_site_type_symbol
_atom_site_fract_x
_atom_site_fract_y
_atom_site_fract_z
Zn1	Zn	1.602667	-0.279644	0.581385
Zn2	Zn	1.936001	0.053689	0.914719
Zn3	Zn	2.269334	0.387023	1.248052
Zn4	Zn	1.594961	-0.397110	0.396539
Zn5	Zn	1.928295	-0.063776	0.729872
Zn6	Zn	2.261628	0.269557	1.063205
Zn7	Zn	1.425380	-0.279668	0.404128
Zn8	Zn	1.758714	0.053666	0.737461
Zn9	Zn	2.092047	0.386999	1.070795
Zn10	Zn	1.417779	-0.397064	0.573757
Zn11	Zn	1.751112	-0.063730	0.907090
Zn12	Zn	2.084446	0.269603	1.240424
O13	O	1.510197	-0.338371	0.488952
O14	O	1.843530	-0.005038	0.822286
O15	O	2.176864	0.328295	1.155619
O16	O	1.749992	-0.295235	0.556881
O17	O	2.083325	0.038098	0.890214
O18	O	2.416659	0.371431	1.223548
O19	O	1.572422	-0.381560	0.249196
O20	O	1.905756	-0.048226	0.582529
O21	O	2.239089	0.285107	0.915863
O22	O	1.455304	-0.181374	0.434010
O23	O	1.788638	0.151959	0.767344
O24	O	2.121971	0.485292	1.100677
O25	O	1.744330	-0.381537	0.421075
O26	O	2.077664	-0.048203	0.754408
O27	O	2.410997	0.285130	1.087742
O28	O	1.585556	-0.181357	0.564240
O29	O	1.918890	0.151977	0.897574
O30	O	2.252223	0.485310	1.230907
O31	O	1.447832	-0.295276	0.254772
O32	O	1.781165	0.038058	0.588105
O33	O	2.114499	0.371391	0.921439
O34	O	1.276025	-0.295231	0.426613
O35	O	1.609359	0.038102	0.759947
O36	O	1.942692	0.371435	1.093280
O37	O	1.442349	-0.381459	0.723118
O38	O	1.775682	-0.048125	1.056451
O39	O	2.109015	0.285208	1.389785
O40	O	1.270441	-0.381482	0.551239
O41	O	1.603774	-0.048148	0.884572
O42	O	1.937107	0.285185	1.217906
O43	O	1.578185	-0.295191	0.728723
O44	O	1.911519	0.038142	1.062056
O45	O	2.244852	0.371476	1.395389
O46	O	1.565051	-0.495394	0.413678
O47	O	1.898385	-0.162061	0.747012
O48	O	2.231718	0.171273	1.080345
O49	O	1.434876	-0.495360	0.543880
O50	O	1.768210	-0.162027	0.877213
O51	O	2.101543	0.171306	1.210547
C52	C	1.234768	-0.338355	0.488923
C53	C	1.568102	-0.005021	0.822256
C54	C	1.901435	0.328312	1.155589
C55	C	1.116938	-0.338364	0.488934
C56	C	1.450271	-0.005031	0.822267
C57	C	1.783604	0.328302	1.155601
C58	C	1.498332	-0.520863	0.477151
C59	C	1.831665	-0.187529	0.810484
C60	C	2.164998	0.145804	1.143818
C61	C	1.493352	-0.598933	0.472138
C62	C	1.826686	-0.265600	0.805471
C63	C	2.160019	0.067733	1.138804
C64	C	0.952868	-0.283855	0.411000
C65	C	1.286201	0.049479	0.744333
C66	C	1.619535	0.382812	1.077667
C67	C	1.075418	-0.283996	0.410632
C68	C	1.408752	0.049338	0.743965
C69	C	1.742085	0.382671	1.077299
C70	C	1.067638	-0.412356	0.453640
C71	C	1.400971	-0.079023	0.786974
C72	C	1.734305	0.254310	1.120307
C73	C	0.945059	-0.412058	0.453104
C74	C	1.278392	-0.078725	0.786437
C75	C	1.611725	0.254608	1.119771
C76	C	0.951001	-0.319586	0.602431
C77	C	1.284335	0.013747	0.935764
C78	C	1.617668	0.347080	1.269097
C79	C	1.073714	-0.317933	0.601914
C80	C	1.407047	0.015400	0.935247
C81	C	1.740381	0.348733	1.268581
C82	C	1.558778	-0.635541	0.537642
C83	C	1.892111	-0.302208	0.870975
C84	C	2.225445	0.031125	1.204308
C85	C	1.554095	-0.708897	0.532933
C86	C	1.887428	-0.375564	0.866266
C87	C	2.220762	-0.042230	1.199600
C88	C	1.483992	-0.745643	0.462715
C89	C	1.817325	-0.412310	0.796048
C90	C	2.150658	-0.078976	1.129381
C91	C	1.418559	-0.709030	0.397208
C92	C	1.751892	-0.375696	0.730542
C93	C	2.085226	-0.042363	1.063875
C94	C	1.423237	-0.635675	0.401923
C95	C	1.756570	-0.302342	0.735256
C96	C	2.089904	0.030991	1.068590
C97	C	1.466472	-0.967129	0.445089
C98	C	1.799805	-0.633796	0.778423
C99	C	2.133138	-0.300462	1.111756
C100	C	1.461801	-1.040488	0.440377
C101	C	1.795134	-0.707155	0.773711
C102	C	2.128467	-0.373822	1.107044
C103	C	1.597336	-1.040351	0.576104
C104	C	1.930669	-0.707017	0.909438
C105	C	2.264003	-0.373684	1.242771
C106	C	1.602013	-0.966995	0.580808
C107	C	1.935346	-0.633662	0.914141
C108	C	2.268679	-0.300328	1.247475
C109	C	1.536576	-0.930388	0.515306
C110	C	1.869909	-0.597055	0.848639
C111	C	2.203243	-0.263721	1.181972
C112	C	1.479206	-0.820624	0.457898
C113	C	1.812539	-0.487291	0.791231
C114	C	2.145872	-0.153958	1.124564
C115	C	1.541357	-0.855408	0.520129
C116	C	1.874691	-0.522075	0.853462
C117	C	2.208024	-0.188742	1.186795
C118	C	1.786701	-0.338389	0.488982
C119	C	2.120034	-0.005055	0.822316
C120	C	2.453368	0.328278	1.155649
C121	C	1.904531	-0.338396	0.488995
C122	C	2.237864	-0.005063	0.822329
C123	C	2.571197	0.328271	1.155662
C124	C	1.510279	-0.338317	0.765461
C125	C	1.843612	-0.004984	1.098794
C126	C	2.176945	0.328350	1.432128
C127	C	1.510313	-0.338294	0.883293
C128	C	1.843647	-0.004960	1.216626
C129	C	2.176980	0.328373	1.549959
C130	C	1.522138	-0.155167	0.500823
C131	C	1.855471	0.178166	0.834156
C132	C	2.188804	0.511499	1.167489
C133	C	1.527226	-0.077097	0.505881
C134	C	1.860560	0.256237	0.839215
C135	C	2.193893	0.589570	1.172548
C136	C	1.510180	-0.338375	0.213522
C137	C	1.843513	-0.005041	0.546856
C138	C	2.176847	0.328292	0.880189
C139	C	1.510363	-0.338200	0.095704
C140	C	1.843697	-0.004867	0.429037
C141	C	2.177030	0.328467	0.762371
C142	C	1.424622	-0.392309	1.047348
C143	C	1.757956	-0.058976	1.380681
C144	C	2.091289	0.274358	1.714014
C145	C	1.424820	-0.392577	0.924770
C146	C	1.758153	-0.059243	1.258104
C147	C	2.091487	0.274090	1.591437
C148	C	1.620715	-0.358383	0.926515
C149	C	1.954049	-0.025050	1.259848
C150	C	2.287382	0.308283	1.593182
C151	C	1.620243	-0.358722	1.049092
C152	C	1.953576	-0.025389	1.382425
C153	C	2.286909	0.307945	1.715758
C154	C	1.486678	-0.263887	1.055296
C155	C	1.820012	0.069446	1.388630
C156	C	2.153345	0.402780	1.721963
C157	C	1.484157	-0.264333	0.932661
C158	C	1.817491	0.069000	1.265994
C159	C	2.150824	0.402334	1.599328
H160	H	1.109063	-0.229128	0.433302
H161	H	1.442397	0.104206	0.766635
H162	H	1.775730	0.437539	1.099969
H163	H	1.440066	-0.447668	0.891898
H164	H	1.773399	-0.114335	1.225232
H165	H	2.106733	0.218999	1.558565
H166	H	1.659096	-0.937078	0.637985
H167	H	1.992430	-0.603745	0.971319
H168	H	2.325763	-0.270411	1.304652
Br169	Br	0.891119	-0.482084	0.543218
Br170	Br	1.224452	-0.148751	0.876551
Br171	Br	1.557786	0.184583	1.209884
H172	H	1.650610	-1.070164	0.629434
H173	H	1.983943	-0.736831	0.962767
H174	H	2.317276	-0.403497	1.296100
H175	H	1.615868	-0.605628	0.594816
H176	H	1.949202	-0.272294	0.928149
H177	H	2.282535	0.061039	1.261483
Br178	Br	1.366661	-1.090358	0.345068
Br179	Br	1.699994	-0.757025	0.678401
Br180	Br	2.033328	-0.423691	1.011734
Br181	Br	1.111742	-0.481900	0.545011
Br182	Br	1.445076	-0.148567	0.878344
Br183	Br	1.778409	0.184767	1.211678
H184	H	1.607380	-0.738700	0.586265
H185	H	1.940713	-0.405367	0.919598
H186	H	2.274046	-0.072034	1.252932
Br187	Br	1.355254	-0.233366	1.108772
Br188	Br	1.688587	0.099968	1.442105
Br189	Br	2.021921	0.433301	1.775438
Br190	Br	1.120838	-0.379317	0.704601
Br191	Br	1.454172	-0.045984	1.037935
Br192	Br	1.787505	0.287349	1.371268
H193	H	1.342803	-0.380005	0.895480
H194	H	1.676136	-0.046672	1.228814
H195	H	2.009470	0.286662	1.562147
Br196	Br	1.377651	-0.917457	0.356206
Br197	Br	1.710984	-0.584124	0.689539
Br198	Br	2.044318	-0.250791	1.022873
Br199	Br	1.323403	-0.758898	0.301924
Br200	Br	1.656736	-0.425565	0.635258
Br201	Br	1.990070	-0.092232	0.968591
H202	H	1.369959	-0.605870	0.348584
H203	H	1.703293	-0.272536	0.681918
H204	H	2.036626	0.060797	1.015251
Br205	Br	1.636486	-0.805538	0.615431
Br206	Br	1.969820	-0.472204	0.948764
Br207	Br	2.303153	-0.138871	1.282097
Br208	Br	0.898427	-0.385797	0.699389
Br209	Br	1.231760	-0.052464	1.032723
Br210	Br	1.565094	0.280870	1.366056
H211	H	1.641802	-0.412138	0.892355
H212	H	1.975135	-0.078805	1.225688
H213	H	2.308468	0.254529	1.559021
Br214	Br	1.348772	-0.239083	0.885810
Br215	Br	1.682106	0.094250	1.219144
Br216	Br	2.015439	0.427584	1.552477
H217	H	0.923529	-0.266574	0.633606
H218	H	1.256862	0.066760	0.966940
H219	H	1.590196	0.400093	1.300273
Br220	Br	1.287490	-0.371555	1.097798
Br221	Br	1.620824	-0.038221	1.431131
Br222	Br	1.954157	0.295112	1.764465
H223	H	1.422130	-0.850551	0.400723
H224	H	1.755464	-0.517218	0.734056
H225	H	2.088797	-0.183884	1.067389
Br226	Br	1.449691	-0.483548	1.092909
Br227	Br	1.783024	-0.150215	1.426242
Br228	Br	2.116358	0.183119	1.759575
H229	H	1.640878	-0.413046	1.074194
H230	H	1.974212	-0.079713	1.407527
H231	H	2.307545	0.253621	1.740860
Br232	Br	1.729838	-0.295843	1.102626
Br233	Br	2.063171	0.037491	1.435959
Br234	Br	2.396505	0.370824	1.769292
H235	H	1.542427	-0.221887	0.904781
H236	H	1.875760	0.111446	1.238114
H237	H	2.209094	0.444780	1.571448
Br238	Br	1.729705	-0.294775	0.882071
Br239	Br	2.063038	0.038558	1.215404
Br240	Br	2.396372	0.371892	1.548738
H241	H	0.926959	-0.228822	0.433475
H242	H	1.260292	0.104512	0.766809
H243	H	1.593625	0.437845	1.100142
Br244	Br	0.900107	-0.304328	0.271889
Br245	Br	1.233440	0.029006	0.605223
Br246	Br	1.566773	0.362339	0.938556
H247	H	1.103893	-0.296428	0.326669
H248	H	1.437227	0.036906	0.660002
H249	H	1.770560	0.370239	0.993336
Br250	Br	0.895590	-0.438643	0.314650
Br251	Br	1.228924	-0.105310	0.647984
Br252	Br	1.562257	0.228023	0.981317
H253	H	1.097245	-0.428581	0.371434
H254	H	1.430578	-0.095248	0.704768
H255	H	1.763912	0.238085	1.038101
Br256	Br	1.128102	-0.227187	0.646143
Br257	Br	1.461435	0.106147	0.979477
Br258	Br	1.794768	0.439480	1.312810
Br259	Br	1.590862	-0.196695	1.107989
Br260	Br	1.924196	0.136638	1.441322
Br261	Br	2.257529	0.469972	1.774656
