data_functionalizedCrystal
_audit_creation_method	'MofGen! by Chris Wilmer'
_symmetry_space_group_name_H-M	'P1'
_symmetry_Int_Tables_number	1
_symmetry_cell_setting	triclinic
loop_
_symmetry_equiv_pos_as_xyz
  x,y,z
_cell_length_a	10.540514
_cell_length_b	10.540539
_cell_length_c	9.016244
_cell_angle_alpha	90.000067
_cell_angle_beta	89.992124
_cell_angle_gamma	95.479674
loop_
_atom_site_label
_atom_site_type_symbol
_atom_site_fract_x
_atom_site_fract_y
_atom_site_fract_z
O1	O	1.685912	-0.178743	-0.123351
O2	O	1.316495	-0.195632	-0.123349
O3	O	1.509631	-0.002480	-0.123349
O4	O	1.492775	-0.371894	-0.123352
O5	O	1.509603	-0.002484	0.123332
O6	O	1.316466	-0.195636	0.123331
O7	O	1.685883	-0.178747	0.123329
Cu8	Cu	1.501172	-0.187192	0.145854
Cu9	Cu	1.501206	-0.187187	-0.145874
O10	O	1.492747	-0.371899	0.123329
C11	C	1.269177	-0.194374	-0.000009
C12	C	1.128227	-0.190605	-0.000008
C13	C	1.057522	-0.328745	-0.000013
C14	C	0.910908	-0.324871	-0.000580
C15	C	0.935906	-0.115476	-0.140609
C16	C	1.082445	-0.120329	-0.140719
C17	C	1.082815	-0.118290	0.139813
C18	C	0.935836	-0.116957	0.141653
C19	C	1.508353	0.044821	-0.000011
C20	C	1.504571	0.185769	-0.000019
C21	C	1.733201	-0.180004	-0.000014
C22	C	1.874151	-0.183774	-0.000025
C23	C	1.494025	-0.419199	-0.000012
C24	C	1.497807	-0.560147	-0.000014
N25	N	1.501158	-0.187195	0.351040
C26	C	1.359652	0.369182	-0.000572
C27	C	1.363486	0.222564	-0.000017
C28	C	1.572451	0.247430	0.140848
C29	C	1.567636	0.393974	0.140966
C30	C	1.570538	0.394497	-0.139556
C31	C	1.571837	0.247516	-0.141418
N32	N	1.501230	-0.187174	-0.351060
C33	C	1.397525	-0.290172	0.586073
C34	C	1.397755	-0.290557	0.414181
C35	C	1.633882	-0.217316	0.413378
C36	C	1.633316	-0.218046	0.585323
C37	C	1.473384	-0.053759	0.585585
C38	C	1.470338	-0.054624	0.413631
H39	H	0.911651	-0.014111	0.150561
H40	H	1.672443	0.441732	-0.140504
H41	H	1.303932	0.397779	-0.101589
H42	H	1.522170	0.206655	-0.245627
Br43	Br	0.867491	-0.200143	0.315011
H44	H	1.657671	-0.315381	0.625411
Br45	Br	1.105954	-0.422546	0.167271
H46	H	1.130452	-0.018856	-0.146721
H47	H	1.087761	-0.383961	-0.100680
Br48	Br	1.745141	0.210195	0.149585
H49	H	1.548996	0.022903	0.626238
Br50	Br	1.233361	-0.260441	0.343931
H51	H	1.130071	-0.016397	0.141170
Br52	Br	1.273790	0.152944	0.168564
H53	H	1.712959	-0.146049	0.626905
Br54	Br	1.232627	-0.260412	0.655021
Br55	Br	1.274462	0.151544	-0.168322
H56	H	1.712938	-0.144346	0.372474
H57	H	1.114297	-0.164275	0.246404
Br58	Br	1.307597	-0.016563	0.345733
Br59	Br	0.898721	0.057254	-0.148669
Br60	Br	0.865049	-0.193611	-0.315661
Br61	Br	1.675390	-0.377713	0.341580
Br62	Br	1.315453	-0.005996	0.657948
H63	H	1.540866	0.025703	0.370656
Br64	Br	1.427528	-0.455552	0.345585
H65	H	1.304135	0.399383	0.099881
Br66	Br	1.483978	0.440972	0.316471
H67	H	0.869188	-0.378357	-0.101951
H68	H	1.110682	-0.170209	-0.246211
H69	H	1.674700	0.223304	-0.149925
H70	H	1.669102	0.441952	0.147356
H71	H	1.524888	0.426048	-0.246324
Br72	Br	1.493825	0.176424	0.315575
Br73	Br	0.839771	-0.414417	0.167341
H74	H	1.415192	-0.388594	0.629265
