data_functionalizedCrystal
_audit_creation_method	'MofGen! by Chris Wilmer'
_symmetry_space_group_name_H-M	'P1'
_symmetry_Int_Tables_number	1
_symmetry_cell_setting	triclinic
loop_
_symmetry_equiv_pos_as_xyz
  x,y,z
_cell_length_a	15.944545
_cell_length_b	19.188930
_cell_length_c	15.021413
_cell_angle_alpha	89.998889
_cell_angle_beta	89.995468
_cell_angle_gamma	83.320477
loop_
_atom_site_label
_atom_site_type_symbol
_atom_site_fract_x
_atom_site_fract_y
_atom_site_fract_z
O1	O	1.114195	0.090018	-0.073985
O2	O	1.614195	0.590018	0.426015
O3	O	0.869603	0.101124	-0.074000
O4	O	1.369603	0.601124	0.426000
O5	O	0.998958	-0.006067	-0.073975
O6	O	1.498958	0.493933	0.426025
O7	O	0.984841	0.197208	-0.074010
O8	O	1.484841	0.697208	0.425990
O9	O	0.998937	-0.006051	0.074089
O10	O	1.498937	0.493949	0.574089
O11	O	0.869583	0.101140	0.074064
O12	O	1.369583	0.601140	0.574064
O13	O	1.114175	0.090033	0.074080
O14	O	1.614175	0.590033	0.574080
Zn15	Zn	0.991876	0.095589	0.097580
Zn16	Zn	1.491876	0.595589	0.597580
Zn17	Zn	0.991903	0.095569	-0.097501
Zn18	Zn	1.491903	0.595569	0.402499
O19	O	0.984820	0.197224	0.074054
O20	O	1.484820	0.697224	0.574054
C21	C	0.838301	0.100672	0.000030
C22	C	1.338301	0.600672	0.500030
C23	C	0.745060	0.099292	0.000025
C24	C	1.245060	0.599292	0.500025
C25	C	0.474691	0.028726	0.000047
C26	C	0.974691	0.528726	0.500047
C27	C	0.525135	0.062755	0.073046
C28	C	1.025135	0.562755	0.573046
C29	C	0.409434	0.094370	0.000041
C30	C	0.909434	0.594370	0.500041
C31	C	0.525136	0.062757	-0.072934
C32	C	1.025136	0.562757	0.427066
C33	C	0.574339	0.096785	0.000031
C34	C	1.074339	0.596785	0.500031
C35	C	0.458650	0.128381	0.073101
C36	C	0.958650	0.628381	0.573101
C37	C	0.458648	0.128374	-0.072945
C38	C	0.958648	0.628374	0.427055
C39	C	0.509059	0.162451	0.000073
C40	C	1.009059	0.662451	0.500073
C41	C	0.314437	0.092977	0.000047
C42	C	0.814437	0.592977	0.500047
C43	C	0.669333	0.098183	0.000032
C44	C	1.169333	0.598183	0.500032
C45	C	0.998490	-0.032071	0.000060
C46	C	1.498490	0.467929	0.500060
C47	C	0.997118	-0.109579	0.000067
C48	C	1.497118	0.390421	0.500067
C49	C	1.073019	-0.154308	0.000077
C50	C	1.573019	0.345692	0.500077
C51	C	1.071730	-0.227135	0.000062
C52	C	1.571730	0.272865	0.500062
C53	C	0.994535	-0.255230	0.000057
C54	C	1.494535	0.244770	0.500057
C55	C	0.918624	-0.210491	0.000043
C56	C	1.418624	0.289509	0.500043
C57	C	0.919916	-0.137666	0.000048
C58	C	1.419916	0.362334	0.500048
N59	N	0.935522	-0.363381	0.050442
N60	N	1.435522	0.136619	0.550442
N61	N	0.934301	-0.432563	0.050439
N62	N	1.434301	0.067437	0.550439
C63	C	0.990640	-0.474649	0.000038
C64	C	1.490640	0.025351	0.500038
N65	N	1.048259	-0.444941	-0.050347
N66	N	1.548259	0.055059	0.449653
N67	N	1.049483	-0.375753	-0.050340
N68	N	1.549483	0.124247	0.449660
C69	C	0.993126	-0.334196	0.000050
C70	C	1.493126	0.165804	0.500050
C71	C	1.065148	-0.598346	0.000031
C72	C	1.565148	-0.098346	0.500031
C73	C	1.063855	-0.671174	0.000011
C74	C	1.563855	-0.171174	0.500011
C75	C	0.910748	-0.654528	0.000000
C76	C	1.410748	-0.154528	0.500000
C77	C	0.912042	-0.581702	0.000011
C78	C	1.412042	-0.081702	0.500011
C79	C	0.989245	-0.553615	0.000031
C80	C	1.489245	-0.053615	0.500031
C81	C	1.145477	0.090486	0.000047
C82	C	1.645477	0.590486	0.500047
C83	C	1.238719	0.091866	0.000047
C84	C	1.738719	0.591866	0.500047
C85	C	0.985288	0.223228	0.000017
C86	C	1.485288	0.723228	0.500017
C87	C	0.986660	0.300736	0.000004
C88	C	1.486660	0.800736	0.500004
N89	N	0.991863	0.095602	0.230718
N90	N	1.491863	0.595602	0.730718
N91	N	0.991922	0.095550	-0.230639
N92	N	1.491922	0.595550	0.269361
C93	C	0.932041	0.145144	0.470389
C94	C	1.432041	0.645144	0.970389
C95	C	1.007891	0.158697	0.529726
C96	C	1.507891	0.658697	1.029726
C97	C	0.991885	0.095585	0.412325
C98	C	1.491885	0.595585	0.912325
C99	C	0.916055	0.082047	0.529730
C100	C	1.416055	0.582047	1.029730
C101	C	0.991899	0.095569	0.587749
C102	C	1.491899	0.595569	1.087749
C103	C	1.067773	0.109169	0.470355
C104	C	1.567773	0.609169	0.970355
C105	C	0.975888	0.032492	0.470354
C106	C	1.475888	0.532492	0.970354
C107	C	1.051793	0.046018	0.529663
C108	C	1.551793	0.546018	1.029663
C109	C	0.991875	0.095595	0.311267
C110	C	1.491875	0.595595	0.811267
C111	C	0.991917	0.095558	0.688804
C112	C	1.491917	0.595558	1.188804
H113	H	0.554161	0.035038	0.134771
H114	H	1.054161	0.535038	0.634771
H115	H	0.524339	0.219028	0.000106
H116	H	1.024339	0.719028	0.500106
H117	H	0.858106	-0.101246	0.000041
H118	H	1.358106	0.398754	0.500041
H119	H	0.429729	0.156090	0.134882
H120	H	0.929729	0.656090	0.634882
O121	O	0.957927	-0.038155	0.435773
O122	O	1.457927	0.461845	0.935773
H123	H	0.900080	-0.031485	0.394080
H124	H	1.400080	0.468515	0.894080
H125	H	0.847895	-0.677402	-0.000009
H126	H	1.347895	-0.177402	0.499991
O127	O	1.153599	-0.275389	0.000081
O128	O	1.653599	0.224611	0.500081
H129	H	1.156648	-0.308967	0.060428
H130	H	1.656648	0.191033	0.560428
H131	H	0.459249	-0.027807	0.000127
H132	H	0.959249	0.472193	0.500127
H133	H	0.851922	0.070604	0.555813
H134	H	1.351922	0.570604	1.055813
H135	H	0.850236	-0.545282	0.000009
H136	H	1.350236	-0.045282	0.500009
O137	O	0.420157	0.165052	-0.154704
O138	O	0.920157	0.665052	0.345296
H139	H	0.446916	0.137676	-0.215214
H140	H	0.946916	0.637676	0.284786
H141	H	0.554166	0.035017	-0.134645
H142	H	1.054166	0.535017	0.365355
O143	O	0.865067	0.200697	0.435910
O144	O	1.365067	0.700697	0.935910
H145	H	0.865253	0.199882	0.362027
H146	H	1.365253	0.699882	0.862027
H147	H	0.855772	-0.233370	0.000036
H148	H	1.355772	0.266630	0.500036
O149	O	1.148412	-0.568047	0.000031
O150	O	1.648412	-0.068047	0.500031
H151	H	1.184872	-0.586024	0.060374
H152	H	1.684872	-0.086024	0.560374
O153	O	1.156287	-0.124020	0.000074
O154	O	1.656287	0.375980	0.500074
H155	H	1.192746	-0.141995	0.060418
H156	H	1.692746	0.358005	0.560418
O157	O	1.145723	-0.719424	0.000028
O158	O	1.645723	-0.219424	0.500028
H159	H	1.199620	-0.687655	0.000054
H160	H	1.699620	-0.187655	0.500054
O161	O	1.152745	0.124417	0.435966
O162	O	1.652745	0.624417	0.935966
H163	H	1.152061	0.124332	0.362079
H164	H	1.652061	0.624332	0.862079
H165	H	1.102462	0.004099	0.555526
H166	H	1.602462	0.504099	1.055526
O167	O	1.025807	0.229354	0.564327
O168	O	1.525807	0.729354	1.064327
H169	H	0.976032	0.270409	0.540612
H170	H	1.476032	0.770409	1.040612
