data_functionalizedCrystal
_audit_creation_method	'MofGen! by Chris Wilmer'
_symmetry_space_group_name_H-M	'P1'
_symmetry_Int_Tables_number	1
_symmetry_cell_setting	triclinic
loop_
_symmetry_equiv_pos_as_xyz
  x,y,z
_cell_length_a	12.759394
_cell_length_b	16.120566
_cell_length_c	12.759387
_cell_angle_alpha	92.923274
_cell_angle_beta	89.968340
_cell_angle_gamma	92.888927
loop_
_atom_site_label
_atom_site_type_symbol
_atom_site_fract_x
_atom_site_fract_y
_atom_site_fract_z
Zn1	Zn	-0.499747	-1.274636	-0.675508
Zn2	Zn	-0.675458	-1.274549	-0.499820
Zn3	Zn	-0.490880	-1.135210	-0.490929
Zn4	Zn	-0.666465	-1.135204	-0.666548
O5	O	-0.583137	-1.204900	-0.583201
O6	O	-0.530529	-1.391292	-0.659673
O7	O	-0.651026	-1.256032	-0.351617
O8	O	-0.345038	-1.153744	-0.515442
O9	O	-0.659624	-1.391228	-0.530596
O10	O	-0.351552	-1.256180	-0.651051
O11	O	-0.515418	-1.153660	-0.345085
O12	O	-0.506698	-1.018542	-0.506754
O13	O	-0.644296	-1.153733	-0.814760
O14	O	-0.635699	-1.018538	-0.635781
O15	O	-0.521809	-1.256174	-0.821342
O16	O	-0.821284	-1.256026	-0.521908
O17	O	-0.814677	-1.153649	-0.644403
C18	C	-0.856102	-1.204850	-0.583172
C19	C	-0.972882	-1.204905	-0.583200
C20	C	-0.569261	-0.988289	-0.569331
C21	C	-0.563350	-0.895623	-0.563423
C22	C	-0.979714	-1.311589	-0.455752
C23	C	-1.037992	-1.364953	-0.392042
C24	C	-1.147717	-1.365002	-0.392074
C25	C	-1.199165	-1.311683	-0.455825
C26	C	-1.140887	-1.258319	-0.519535
C27	C	-1.031160	-1.258274	-0.519494
C28	C	-1.134056	-1.151640	-0.646987
C29	C	-1.024331	-1.151585	-0.646951
C30	C	-1.185505	-1.098321	-0.710738
C31	C	-1.127226	-1.044951	-0.774444
C32	C	-1.017495	-1.044904	-0.774409
C33	C	-0.966053	-1.098221	-0.710661
C34	C	-0.552534	-0.725959	-0.552644
C35	C	-0.613831	-0.684681	-0.613766
C36	C	-0.607813	-0.590274	-0.607769
C37	C	-0.558551	-0.820374	-0.558640
C38	C	-0.309109	-1.204973	-0.583254
C39	C	-0.192334	-1.205004	-0.583277
C40	C	-0.583039	-1.204963	-0.857239
C41	C	-0.582996	-1.204990	-0.974017
C42	C	-0.597072	-0.422356	-0.597108
C43	C	-0.603018	-0.515023	-0.602991
C44	C	-0.455460	-1.311668	-0.980892
C45	C	-0.391676	-1.365019	-1.039190
C46	C	-0.391639	-1.365039	-1.148913
C47	C	-0.455390	-1.311701	-1.200340
C48	C	-0.519174	-1.258350	-1.142041
C49	C	-0.519206	-1.258338	-1.032316
C50	C	-0.646703	-1.151669	-1.135166
C51	C	-0.646747	-1.151651	-1.025443
C52	C	-0.710454	-1.098331	-1.186592
C53	C	-0.774244	-1.044983	-1.128294
C54	C	-0.774280	-1.044965	-1.018564
C55	C	-0.710531	-1.098301	-0.967145
C56	C	-0.583163	-1.204885	-0.310233
C57	C	-0.582920	-1.205020	-0.193465
H58	H	-0.890370	-1.311544	-0.455706
C59	C	-0.845359	-1.098172	-0.710627
H60	H	-0.818016	-1.058753	-0.757697
H61	H	-0.823914	-1.151957	-0.732277
H62	H	-0.819686	-1.083761	-0.641883
H63	H	-0.339694	-1.408477	-1.196380
C64	C	-1.319860	-1.311744	-0.455876
H65	H	-1.342154	-1.272352	-0.502970
H66	H	-1.343845	-1.297367	-0.387154
H67	H	-1.348041	-1.365555	-0.477559
H68	H	-0.670828	-0.720243	-0.670599
C69	C	-0.475549	-0.677924	-0.475865
H70	H	-0.481566	-0.619855	-0.481851
H71	H	-0.405861	-0.692156	-0.492235
H72	H	-0.491745	-0.692110	-0.406129
H73	H	-0.826139	-1.001555	-1.170174
H74	H	-1.169125	-1.001547	-0.826350
C75	C	-0.455502	-1.311652	-0.860200
H76	H	-0.408398	-1.351054	-0.837922
H77	H	-0.524233	-1.326038	-0.836287
H78	H	-0.433879	-1.257851	-0.831932
H79	H	-0.339770	-1.408445	-0.997307
C80	C	-0.710568	-1.098279	-0.846453
H81	H	-0.757687	-1.058870	-0.819094
H82	H	-0.641852	-1.083885	-0.820727
H83	H	-0.732205	-1.152072	-0.825078
H84	H	-1.274849	-1.098368	-0.710764
C85	C	-0.455343	-1.311720	-1.321031
H86	H	-0.408228	-1.351134	-1.348386
H87	H	-0.433717	-1.257929	-1.342405
H88	H	-0.524060	-1.326125	-1.346763
H89	H	-0.710415	-1.098348	-1.275935
C90	C	-0.844463	-0.986293	-0.954444
H91	H	-0.882431	-0.954542	-1.000791
H92	H	-0.801976	-0.949970	-0.909307
H93	H	-0.892303	-1.018180	-0.913692
H94	H	-1.195167	-1.408460	-0.340201
C95	C	-0.981397	-1.423600	-0.321921
H96	H	-0.907702	-1.415925	-0.331017
H97	H	-1.002893	-1.479619	-0.340937
H98	H	-0.998672	-1.411424	-0.250541
H99	H	-0.970051	-1.001451	-0.826294
