data_functionalizedCrystal
_audit_creation_method	'MofGen! by Chris Wilmer'
_symmetry_space_group_name_H-M	'P1'
_symmetry_Int_Tables_number	1
_symmetry_cell_setting	triclinic
loop_
_symmetry_equiv_pos_as_xyz
  x,y,z
_cell_length_a	19.188931
_cell_length_b	8.559649
_cell_length_c	7.681452
_cell_angle_alpha	97.064711
_cell_angle_beta	83.555085
_cell_angle_gamma	103.538277
loop_
_atom_site_label
_atom_site_type_symbol
_atom_site_fract_x
_atom_site_fract_y
_atom_site_fract_z
O1	O	0.910535	-0.186115	0.146358
O2	O	0.705819	-0.212977	0.146375
O3	O	0.826213	0.033182	0.146363
O4	O	0.790141	-0.432274	0.146370
O5	O	0.836560	0.006287	-0.146495
O6	O	0.716166	-0.239872	-0.146484
O7	O	0.920882	-0.213010	-0.146500
Zn8	Zn	0.820167	-0.230711	-0.192990
Zn9	Zn	0.806534	-0.195276	0.192864
O10	O	0.800488	-0.459169	-0.146489
C11	C	0.685027	-0.225555	-0.000052
C12	C	0.607658	-0.222943	-0.000046
C13	C	0.941674	-0.200432	-0.000069
C14	C	1.019042	-0.203043	-0.000064
C15	C	0.834120	0.079283	-0.000063
C16	C	0.842256	0.256721	-0.000054
C17	C	1.071517	-0.058603	-0.000051
C18	C	1.144213	-0.061058	-0.000062
C19	C	1.164429	-0.207957	-0.000050
C20	C	1.111943	-0.352417	-0.000073
C21	C	1.039249	-0.349960	-0.000080
N22	N	1.263030	-0.311089	0.099646
N23	N	1.332087	-0.313412	0.099657
C24	C	1.383449	-0.215369	-0.000032
N25	N	1.363148	-0.114887	-0.099710
N26	N	1.294085	-0.112558	-0.099713
C27	C	1.243251	-0.210637	-0.000043
C28	C	1.514751	-0.073580	-0.000033
C29	C	1.587448	-0.076042	-0.000055
C30	C	1.555175	-0.367403	-0.000048
C31	C	1.482480	-0.364939	-0.000045
C32	C	1.462273	-0.218023	-0.000029
C33	C	0.792581	-0.505270	-0.000059
C34	C	0.784444	-0.682707	-0.000056
N35	N	0.829476	-0.254894	-0.456325
N36	N	0.797231	-0.171080	0.456199
H37	H	1.055071	0.061027	-0.000044
F38	F	0.872501	-0.366706	-0.554615
H39	H	0.728724	0.233407	-0.000057
H40	H	0.897981	0.340615	-0.000072
F41	F	1.200071	0.092681	-0.000044
F42	F	0.983398	-0.503699	-0.000092
H43	H	1.498298	0.046047	-0.000028
H44	H	1.128407	-0.472024	-0.000068
F45	F	1.643299	0.077698	-0.000058
F46	F	1.576685	-0.523748	-0.000059
H47	H	0.764305	-0.085547	-0.468590
F48	F	1.426628	-0.518673	-0.000042
