data_functionalizedCrystal
_audit_creation_method	'MofGen! by Chris Wilmer'
_symmetry_space_group_name_H-M	'P1'
_symmetry_Int_Tables_number	1
_symmetry_cell_setting	triclinic
loop_
_symmetry_equiv_pos_as_xyz
  x,y,z
_cell_length_a	29.839135
_cell_length_b	18.050582
_cell_length_c	18.050589
_cell_angle_alpha	89.981795
_cell_angle_beta	90.030048
_cell_angle_gamma	89.981591
loop_
_atom_site_label
_atom_site_type_symbol
_atom_site_fract_x
_atom_site_fract_y
_atom_site_fract_z
Zn1	Zn	-0.686773	0.420004	0.295670
Zn2	Zn	-0.686719	0.295824	0.419854
Zn3	Zn	-0.611652	0.295821	0.295686
Zn4	Zn	-0.611620	0.419965	0.419827
O5	O	-0.649191	0.357903	0.357759
O6	O	-0.749633	0.403549	0.312148
O7	O	-0.676751	0.191899	0.403400
O8	O	-0.621653	0.312309	0.191759
O9	O	-0.749593	0.312314	0.403385
O10	O	-0.676843	0.403546	0.191748
O11	O	-0.621600	0.191896	0.312175
O12	O	-0.548781	0.312271	0.312149
O13	O	-0.621599	0.523894	0.403340
O14	O	-0.548758	0.403479	0.403355
O15	O	-0.676813	0.523924	0.312122
O16	O	-0.676721	0.312276	0.523775
O17	O	-0.621547	0.403482	0.523755
C18	C	-0.532468	0.357871	0.357751
C19	C	-0.482534	0.357874	0.357766
C20	C	-0.172908	0.405476	0.310315
C21	C	0.014765	0.405495	0.310316
O22	O	0.039015	0.445934	0.269959
N23	N	0.038251	0.357925	0.357746
C24	C	0.014816	0.310343	0.405176
O25	O	0.039099	0.269877	0.445513
C26	C	-0.172856	0.310321	0.405170
C27	C	-0.196340	0.357899	0.357742
C28	C	-0.196392	0.453050	0.262890
C29	C	-0.243308	0.453047	0.262893
C30	C	-0.266739	0.405471	0.310321
C31	C	-0.243255	0.357897	0.357745
C32	C	-0.196290	0.262736	0.452596
C33	C	-0.243211	0.262733	0.452589
C34	C	-0.266695	0.310311	0.405161
C35	C	-0.313602	0.310317	0.405176
N36	N	-0.337088	0.357887	0.357746
C37	C	-0.313657	0.405464	0.310318
C38	C	0.113347	0.310360	0.405177
C39	C	0.160265	0.310366	0.405179
C40	C	0.160210	0.405518	0.310318
C41	C	0.113291	0.405514	0.310320
C42	C	0.089861	0.357930	0.357746
C43	C	-0.412183	0.405456	0.310328
C44	C	-0.459102	0.405451	0.310338
C45	C	-0.459044	0.310297	0.405196
C46	C	-0.412128	0.310304	0.405190
C47	C	-0.388699	0.357886	0.357750
O48	O	-0.337881	0.269894	0.445506
O49	O	-0.337948	0.445913	0.269975
C50	C	-0.125993	0.405478	0.310312
C51	C	-0.102509	0.357904	0.357736
C52	C	-0.125940	0.310328	0.405164
C53	C	-0.055591	0.357911	0.357739
C54	C	-0.032159	0.405487	0.310311
C55	C	-0.055646	0.453057	0.262881
C56	C	-0.102561	0.453055	0.262884
C57	C	-0.102454	0.262758	0.452594
C58	C	-0.055539	0.262765	0.452588
C59	C	-0.032107	0.310341	0.405160
C60	C	0.233631	0.357935	0.357763
C61	C	0.183696	0.357943	0.357751
C62	C	-0.649137	0.357891	0.550711
C63	C	-0.649155	0.357911	0.633257
C64	C	-0.649209	0.551609	0.357726
C65	C	-0.649216	0.634155	0.357712
C66	C	-0.649199	0.164951	0.357739
C67	C	-0.649279	0.082406	0.357543
C68	C	-0.619214	0.833590	0.407249
C69	C	-0.660201	0.882987	0.425400
C70	C	-0.649238	0.785285	0.357656
C71	C	-0.608274	0.882970	0.339484
C72	C	-0.649256	0.931270	0.357602
C73	C	-0.690247	0.833595	0.375842
C74	C	-0.638292	0.833574	0.289895
C75	C	-0.679307	0.882949	0.308020
C76	C	-0.649227	0.701187	0.357688
C77	C	-0.649271	1.015367	0.357570
C78	C	-0.649258	0.357932	0.164054
C79	C	-0.649286	0.357944	0.081508
C80	C	-0.619180	0.407491	0.832724
C81	C	-0.608232	0.339722	0.882159
C82	C	-0.649199	0.357920	0.784388
C83	C	-0.660169	0.425696	0.882035
C84	C	-0.649241	0.357936	0.930373
C85	C	-0.638229	0.290116	0.832735
C86	C	-0.690185	0.376136	0.832607
C87	C	-0.679252	0.308320	0.882019
C88	C	-0.649173	0.357912	0.700289
C89	C	-0.649266	0.357936	1.014469
H90	H	-0.393112	0.444199	0.271696
H91	H	-0.036560	0.491798	0.224266
H92	H	-0.724818	0.391561	0.810827
O93	O	-0.266047	0.499281	0.216743
C94	C	-0.261132	0.593677	0.122675
C95	C	-0.235328	0.541345	0.174897
H96	H	-0.236307	0.627711	0.088840
H97	H	-0.283087	0.559678	0.083744
H98	H	-0.283110	0.632425	0.156825
H99	H	-0.213326	0.502587	0.140807
H100	H	-0.213401	0.575390	0.213830
H101	H	-0.262286	0.223982	0.491209
O102	O	-0.032660	0.216615	0.498642
C103	C	0.039638	0.174399	0.540651
C104	C	0.013786	0.226715	0.488478
H105	H	0.077194	0.182535	0.532441
H106	H	0.030463	0.187336	0.600569
H107	H	0.030391	0.114548	0.527530
H108	H	0.023020	0.286583	0.501532
H109	H	0.022964	0.213714	0.428575
O110	O	-0.671300	0.494045	0.907833
C111	C	-0.726716	0.591133	0.910733
C112	C	-0.714176	0.513715	0.881483
H113	H	-0.761377	0.607067	0.889428
H114	H	-0.726984	0.590374	0.973885
H115	H	-0.701051	0.633298	0.890498
H116	H	-0.739828	0.471507	0.901664
H117	H	-0.713894	0.514536	0.818333
O118	O	-0.173586	0.499309	0.216920
C119	C	-0.120677	0.599651	0.207075
C120	C	-0.146464	0.547287	0.259216
H121	H	-0.098750	0.638465	0.241250
H122	H	-0.098683	0.565678	0.168200
H123	H	-0.145538	0.633612	0.173168
H124	H	-0.121636	0.513315	0.293170
H125	H	-0.168465	0.581303	0.298042
H126	H	-0.121527	0.224013	0.491216
H127	H	0.094174	0.444255	0.271698
H128	H	-0.478221	0.444198	0.271715
H129	H	0.179296	0.444257	0.271701
O130	O	-0.589001	0.807764	0.457444
C131	C	-0.566418	0.803681	0.585569
C132	C	-0.600668	0.832964	0.528804
H133	H	-0.575833	0.824057	0.643275
H134	H	-0.566465	0.740528	0.584814
H135	H	-0.531578	0.824823	0.570628
H136	H	-0.635525	0.811877	0.543706
H137	H	-0.600582	0.896117	0.529569
O138	O	-0.671269	0.909014	0.493680
C139	C	-0.684016	1.016492	0.569969
C140	C	-0.671493	0.987119	0.492601
H141	H	-0.684192	1.079643	0.569127
H142	H	-0.718711	0.995394	0.585873
H143	H	-0.658384	0.996177	0.612202
H144	H	-0.697095	1.007422	0.450316
H145	H	-0.636787	1.008211	0.476760
O146	O	-0.566925	0.908883	0.321297
C147	C	-0.503436	0.982309	0.358876
C148	C	-0.550255	0.953002	0.379564
H149	H	-0.489949	1.017998	0.405966
H150	H	-0.479812	0.933648	0.349055
H151	H	-0.505901	1.017021	0.306257
H152	H	-0.547833	0.918302	0.432193
H153	H	-0.573861	1.001696	0.389336
H154	H	-0.177177	0.223991	0.491216
O155	O	-0.627205	0.221678	0.807049
C156	C	-0.646132	0.091956	0.803647
C157	C	-0.658676	0.169419	0.832773
H158	H	-0.671565	0.049681	0.824445
H159	H	-0.646211	0.092462	0.740490
H160	H	-0.611310	0.076372	0.824485
H161	H	-0.693502	0.185051	0.811989
H162	H	-0.658567	0.168871	0.895928
H163	H	-0.629011	0.811853	0.232630
O164	O	0.183005	0.264085	0.451281
C165	C	0.178094	0.169737	0.545398
C166	C	0.152288	0.222106	0.493216
H167	H	0.153271	0.135794	0.579327
H168	H	0.200046	0.130913	0.511287
H169	H	0.200076	0.203778	0.584249
H170	H	0.130282	0.188125	0.454354
H171	H	0.130364	0.260932	0.527373
O172	O	-0.588793	0.457347	0.806929
C173	C	-0.511269	0.494477	0.802955
C174	C	-0.545634	0.437958	0.832203
H175	H	-0.476369	0.478830	0.823389
H176	H	-0.511722	0.494379	0.739801
H177	H	-0.520283	0.552101	0.824064
H178	H	-0.536644	0.380306	0.811149
H179	H	-0.545175	0.438120	0.895356
O180	O	-0.389382	0.264025	0.451291
C181	C	-0.394286	0.169683	0.545415
C182	C	-0.420096	0.222050	0.493236
H183	H	-0.419106	0.135743	0.579352
H184	H	-0.372337	0.130856	0.511301
H185	H	-0.372300	0.203726	0.584258
H186	H	-0.442106	0.188067	0.454382
H187	H	-0.442016	0.260878	0.527396
H188	H	-0.573591	0.324330	0.903941
O189	O	-0.481860	0.264186	0.451300
C190	C	-0.534786	0.254020	0.551569
C191	C	-0.508980	0.306328	0.499398
H192	H	-0.556712	0.288071	0.590480
H193	H	-0.556784	0.215263	0.517451
H194	H	-0.509938	0.219995	0.585436
H195	H	-0.533796	0.340402	0.465520
H196	H	-0.486976	0.345036	0.533559
O197	O	-0.731565	0.807711	0.394257
C198	C	-0.777917	0.700388	0.414900
C199	C	-0.731103	0.729602	0.394050
H200	H	-0.777561	0.637234	0.414724
H201	H	-0.787324	0.721129	0.472480
H202	H	-0.803535	0.721183	0.372876
H203	H	-0.705454	0.708820	0.436023
H204	H	-0.721734	0.708868	0.336451
O205	O	-0.709552	0.258319	0.907811
C206	C	-0.743819	0.202538	1.015032
C207	C	-0.709501	0.259205	0.985919
H208	H	-0.743782	0.203224	1.078185
H209	H	-0.778653	0.217558	0.993829
H210	H	-0.734405	0.144834	0.994625
H211	H	-0.718873	0.316928	1.006313
H212	H	-0.674676	0.244121	1.007115
H213	H	0.094274	0.271609	0.443800
H214	H	-0.121678	0.491798	0.224262
H215	H	-0.704735	0.904484	0.266058
