data_functionalizedCrystal
_audit_creation_method	'MofGen! by Chris Wilmer'
_symmetry_space_group_name_H-M	'P1'
_symmetry_Int_Tables_number	1
_symmetry_cell_setting	triclinic
loop_
_symmetry_equiv_pos_as_xyz
  x,y,z
_cell_length_a	15.297979
_cell_length_b	16.625546
_cell_length_c	16.625539
_cell_angle_alpha	89.971468
_cell_angle_beta	80.292161
_cell_angle_gamma	99.682367
loop_
_atom_site_label
_atom_site_type_symbol
_atom_site_fract_x
_atom_site_fract_y
_atom_site_fract_z
Zn1	Zn	1.379332	-0.107932	-0.669653
Zn2	Zn	1.629332	0.142068	-0.419653
Zn3	Zn	1.879332	0.392068	-0.169653
Zn4	Zn	2.129332	0.642068	0.080347
Zn5	Zn	1.379233	-0.242786	-0.534800
Zn6	Zn	1.629233	0.007214	-0.284800
Zn7	Zn	1.879233	0.257214	-0.034800
Zn8	Zn	2.129233	0.507214	0.215200
Zn9	Zn	1.228458	-0.131263	-0.511453
Zn10	Zn	1.478458	0.118737	-0.261453
Zn11	Zn	1.728458	0.368737	-0.011453
Zn12	Zn	1.978458	0.618737	0.238547
Zn13	Zn	1.228416	-0.266040	-0.646218
Zn14	Zn	1.478416	-0.016040	-0.396218
Zn15	Zn	1.728416	0.233960	-0.146218
Zn16	Zn	1.978416	0.483960	0.103782
O17	O	1.303860	-0.187005	-0.590531
O18	O	1.553860	0.062995	-0.340531
O19	O	1.803860	0.312995	-0.090531
O20	O	2.053860	0.562995	0.159469
O21	O	1.505578	-0.106324	-0.671343
O22	O	1.755578	0.143676	-0.421343
O23	O	2.005578	0.393676	-0.171343
O24	O	2.255578	0.643676	0.078657
O25	O	1.359209	-0.228024	-0.418867
O26	O	1.609209	0.021976	-0.168867
O27	O	1.859209	0.271976	0.081133
O28	O	2.109209	0.521976	0.331133
O29	O	1.248531	-0.015327	-0.532475
O30	O	1.498531	0.234673	-0.282475
O31	O	1.748531	0.484673	-0.032475
O32	O	1.998531	0.734673	0.217525
O33	O	1.505505	-0.205401	-0.572268
O34	O	1.755505	0.044599	-0.322268
O35	O	2.005505	0.294599	-0.072268
O36	O	2.255505	0.544599	0.177732
O37	O	1.359378	0.001815	-0.648704
O38	O	1.609378	0.251815	-0.398704
O39	O	1.859378	0.501815	-0.148704
O40	O	2.109378	0.751815	0.101296
O41	O	1.248435	-0.146089	-0.401714
O42	O	1.498435	0.103911	-0.151714
O43	O	1.748435	0.353911	0.098286
O44	O	1.998435	0.603911	0.348286
O45	O	1.102194	-0.168638	-0.509751
O46	O	1.352194	0.081362	-0.259751
O47	O	1.602194	0.331362	-0.009751
O48	O	1.852194	0.581362	0.240249
O49	O	1.248459	-0.245034	-0.762163
O50	O	1.498459	0.004966	-0.512163
O51	O	1.748459	0.254966	-0.262163
O52	O	1.998459	0.504966	-0.012163
O53	O	1.102163	-0.267658	-0.608762
O54	O	1.352163	-0.017658	-0.358762
O55	O	1.602163	0.232342	-0.108762
O56	O	1.852163	0.482342	0.141238
O57	O	1.359336	-0.128873	-0.779381
O58	O	1.609336	0.121127	-0.529381
O59	O	1.859336	0.371127	-0.279381
O60	O	2.109336	0.621127	-0.029381
O61	O	1.359168	-0.358712	-0.549543
O62	O	1.609168	-0.108712	-0.299543
O63	O	1.859168	0.141288	-0.049543
O64	O	2.109168	0.391288	0.200457
O65	O	1.248363	-0.375797	-0.631401
O66	O	1.498363	-0.125797	-0.381401
O67	O	1.748363	0.124203	-0.131401
O68	O	1.998363	0.374203	0.118599
C69	C	1.069441	-0.223204	-0.554180
C70	C	1.319441	0.026796	-0.304180
C71	C	1.569441	0.276796	-0.054180
C72	C	1.819441	0.526796	0.195820
C73	C	0.969155	-0.238709	-0.538649
C74	C	1.219155	0.011291	-0.288649
C75	C	1.469155	0.261291	-0.038649
C76	C	1.719155	0.511291	0.211351
C77	C	0.922002	-0.297495	-0.479686
C78	C	1.172002	-0.047495	-0.229686
C79	C	1.422002	0.202505	0.020314
C80	C	1.672002	0.452505	0.270314
C81	C	0.827778	-0.312065	-0.465097
C82	C	1.077778	-0.062065	-0.215097
C83	C	1.327778	0.187935	0.034903
C84	C	1.577778	0.437935	0.284903
C85	C	0.780699	-0.267845	-0.509465
C86	C	1.030699	-0.017845	-0.259465
C87	C	1.280699	0.232155	-0.009465
C88	C	1.530699	0.482155	0.240535
C89	C	0.827852	-0.209053	-0.568425
C90	C	1.077852	0.040947	-0.318425
C91	C	1.327852	0.290947	-0.068425
C92	C	1.577852	0.540947	0.181575
C93	C	0.922085	-0.194486	-0.583020
C94	C	1.172085	0.055514	-0.333020
C95	C	1.422085	0.305514	-0.083020
C96	C	1.672085	0.555514	0.166980
C97	C	0.780782	-0.164836	-0.612799
C98	C	1.030782	0.085164	-0.362799
C99	C	1.280782	0.335164	-0.112799
C100	C	1.530782	0.585164	0.137201
C101	C	0.827936	-0.106044	-0.671759
C102	C	1.077936	0.143956	-0.421759
C103	C	1.327936	0.393956	-0.171759
C104	C	1.577936	0.643956	0.078241
C105	C	0.922159	-0.091480	-0.686351
C106	C	1.172159	0.158520	-0.436351
C107	C	1.422159	0.408520	-0.186351
C108	C	1.672159	0.658520	0.063649
C109	C	0.969238	-0.135700	-0.641983
C110	C	1.219238	0.114300	-0.391983
C111	C	1.469238	0.364300	-0.141983
C112	C	1.719238	0.614300	0.108017
C113	C	0.686550	-0.179403	-0.598204
C114	C	0.936550	0.070597	-0.348204
C115	C	1.186550	0.320597	-0.098204
C116	C	1.436550	0.570597	0.151796
C117	C	0.686633	-0.076394	-0.701538
C118	C	0.936633	0.173606	-0.451538
C119	C	1.186633	0.423606	-0.201538
C120	C	1.436633	0.673606	0.048462
C121	C	0.780857	-0.061824	-0.716127
C122	C	1.030857	0.188176	-0.466127
C123	C	1.280857	0.438176	-0.216127
C124	C	1.530857	0.688176	0.033873
C125	C	1.303774	-0.396509	-0.590484
C126	C	1.553774	-0.146509	-0.340484
C127	C	1.803774	0.103491	-0.090484
C128	C	2.053774	0.353491	0.159516
C129	C	1.303820	-0.486123	-0.590504
C130	C	1.553820	-0.236123	-0.340504
C131	C	1.803820	0.013877	-0.090504
C132	C	2.053820	0.263877	0.159496
C133	C	1.303978	-0.814274	-0.590612
C134	C	1.553978	-0.564274	-0.340612
C135	C	1.803978	-0.314274	-0.090612
C136	C	2.053978	-0.064274	0.159388
C137	C	1.303931	-0.722973	-0.590584
C138	C	1.553931	-0.472973	-0.340584
C139	C	1.803931	-0.222973	-0.090584
C140	C	2.053931	0.027027	0.159416
C141	C	1.303898	-0.650202	-0.590557
C142	C	1.553898	-0.400202	-0.340557
C143	C	1.803898	-0.150202	-0.090557
C144	C	2.053898	0.099798	0.159443
C145	C	1.303853	-0.558895	-0.590530
C146	C	1.553853	-0.308895	-0.340530
C147	C	1.803853	-0.058895	-0.090530
C148	C	2.053853	0.191105	0.159470
C149	C	1.539194	-0.150666	-0.627024
C150	C	1.789194	0.099334	-0.377024
C151	C	2.039194	0.349334	-0.127024
C152	C	2.289194	0.599334	0.122976
C153	C	1.639480	-0.135181	-0.642575
C154	C	1.889480	0.114819	-0.392575
C155	C	2.139480	0.364819	-0.142575
C156	C	2.389480	0.614819	0.107425
C157	C	1.303904	-0.186945	-0.800847
C158	C	1.553904	0.063055	-0.550847
C159	C	1.803904	0.313055	-0.300847
C160	C	2.053904	0.563055	-0.050847
C161	C	1.303923	-0.186920	-0.890471
C162	C	1.553923	0.063080	-0.640471
C163	C	1.803923	0.313080	-0.390471
C164	C	2.053923	0.563080	-0.140471
C165	C	1.303970	0.023321	-0.590600
C166	C	1.553970	0.273321	-0.340600
C167	C	1.803970	0.523321	-0.090600
C168	C	2.053970	0.773321	0.159400
C169	C	1.304017	0.112949	-0.590629
C170	C	1.554017	0.362949	-0.340629
C171	C	1.804017	0.612949	-0.090629
C172	C	2.054017	0.862949	0.159371
C173	C	1.303938	-0.186899	-0.963256
C174	C	1.553938	0.063101	-0.713256
C175	C	1.803938	0.313101	-0.463256
C176	C	2.053938	0.563101	-0.213256
C177	C	1.303959	-0.186866	-1.054568
C178	C	1.553959	0.063134	-0.804568
C179	C	1.803959	0.313134	-0.554568
C180	C	2.053959	0.563134	-0.304568
C181	C	1.303980	-0.186835	-1.127347
C182	C	1.553980	0.063165	-0.877347
C183	C	1.803980	0.313165	-0.627347
C184	C	2.053980	0.563165	-0.377347
C185	C	1.304002	-0.186802	-1.218665
C186	C	1.554002	0.063198	-0.968665
C187	C	1.804002	0.313198	-0.718665
C188	C	2.054002	0.563198	-0.468665
C189	C	1.303868	-0.186999	-0.381041
C190	C	1.553868	0.063001	-0.131041
C191	C	1.803868	0.313001	0.118959
C192	C	2.053868	0.563001	0.368959
C193	C	1.304024	-0.186770	-0.291445
C194	C	1.554024	0.063230	-0.041445
C195	C	1.804024	0.313230	0.208555
C196	C	2.054024	0.563230	0.458555
H197	H	0.789393	-0.359934	-0.417092
H198	H	1.039393	-0.109934	-0.167092
H199	H	1.289393	0.140066	0.082908
H200	H	1.539393	0.390066	0.332908
H201	H	0.960342	-0.333496	-0.443571
H202	H	1.210342	-0.083496	-0.193571
H203	H	1.460342	0.166504	0.056429
H204	H	1.710342	0.416504	0.306429
H205	H	0.703978	-0.279711	-0.497583
H206	H	0.953978	-0.029711	-0.247583
H207	H	1.203978	0.220289	0.002417
H208	H	1.453978	0.470289	0.252417
H209	H	0.648167	-0.227273	-0.550199
H210	H	0.898167	0.022727	-0.300199
H211	H	1.148167	0.272727	-0.050199
H212	H	1.398167	0.522727	0.199801
H213	H	0.648302	-0.040387	-0.737667
H214	H	0.898302	0.209613	-0.487667
H215	H	1.148302	0.459613	-0.237667
H216	H	1.398302	0.709613	0.012333
N217	N	1.065488	-0.120807	-0.656873
N218	N	1.315488	0.129193	-0.406873
N219	N	1.565488	0.379193	-0.156873
N220	N	1.815488	0.629193	0.093127
N221	N	1.107513	-0.097368	-0.600512
N222	N	1.357513	0.152632	-0.350512
N223	N	1.607513	0.402632	-0.100512
N224	N	1.857513	0.652632	0.149488
H225	H	1.175491	-0.086851	-0.611025
H226	H	1.425491	0.163149	-0.361025
H227	H	1.675491	0.413149	-0.111025
H228	H	1.925491	0.663149	0.138975
N229	N	0.970312	-0.031436	-0.746591
N230	N	1.220312	0.218564	-0.496591
N231	N	1.470312	0.468564	-0.246591
N232	N	1.720312	0.718564	0.003409
N233	N	0.928272	0.008038	-0.786204
N234	N	1.178272	0.258038	-0.536204
N235	N	1.428272	0.508038	-0.286204
N236	N	1.678272	0.758038	-0.036204
H237	H	0.962278	0.050443	-0.828752
H238	H	1.212278	0.300443	-0.578752
H239	H	1.462278	0.550443	-0.328752
H240	H	1.712278	0.800443	-0.078752
N241	N	0.829028	-0.001763	-0.776342
N242	N	1.079028	0.248237	-0.526342
N243	N	1.329028	0.498237	-0.276342
N244	N	1.579028	0.748237	-0.026342
N245	N	0.881609	0.057781	-0.756203
N246	N	1.131609	0.307781	-0.506203
N247	N	1.381609	0.557781	-0.256203
N248	N	1.631609	0.807781	-0.006203
H249	H	0.915631	0.100201	-0.798729
H250	H	1.165631	0.350201	-0.548729
H251	H	1.415631	0.600201	-0.298729
H252	H	1.665631	0.850201	-0.048729
