data_functionalizedCrystal
_audit_creation_method	'MofGen! by Chris Wilmer'
_symmetry_space_group_name_H-M	'P1'
_symmetry_Int_Tables_number	1
_symmetry_cell_setting	triclinic
loop_
_symmetry_equiv_pos_as_xyz
  x,y,z
_cell_length_a	14.853567
_cell_length_b	14.519709
_cell_length_c	13.330367
_cell_angle_alpha	89.994415
_cell_angle_beta	89.995418
_cell_angle_gamma	83.657538
loop_
_atom_site_label
_atom_site_type_symbol
_atom_site_fract_x
_atom_site_fract_y
_atom_site_fract_z
O1	O	1.196416	0.120405	-0.083357
O2	O	1.696416	0.620405	0.416643
O3	O	0.933962	0.134748	-0.083374
O4	O	1.433962	0.634748	0.416626
O5	O	1.072147	-0.006665	-0.083356
O6	O	1.572147	0.493335	0.416644
O7	O	1.058230	0.261818	-0.083375
O8	O	1.558230	0.761818	0.416625
O9	O	1.072127	-0.006668	0.083491
O10	O	1.572127	0.493332	0.583491
O11	O	0.933942	0.134745	0.083473
O12	O	1.433942	0.634745	0.583473
O13	O	1.196395	0.120402	0.083491
O14	O	1.696395	0.620402	0.583491
Cu15	Cu	1.065167	0.127573	0.098716
Cu16	Cu	1.565167	0.627573	0.598716
Cu17	Cu	1.065190	0.127577	-0.098600
Cu18	Cu	1.565190	0.627577	0.401400
O19	O	1.058210	0.261814	0.083472
O20	O	1.558210	0.761814	0.583472
C21	C	0.900363	0.134096	0.000047
C22	C	1.400363	0.634096	0.500047
C23	C	0.800278	0.132149	0.000041
C24	C	1.300278	0.632149	0.500041
C25	C	1.071488	-0.041026	0.000068
C26	C	1.571488	0.458974	0.500068
C27	C	1.069545	-0.143407	0.000068
C28	C	1.569545	0.356593	0.500068
C29	C	0.387709	0.039914	0.000070
C30	C	0.887709	0.539914	0.500070
C31	C	0.366493	0.207916	0.000057
C32	C	0.866493	0.707916	0.500057
C33	C	0.460527	0.209747	0.000054
C34	C	0.960527	0.709747	0.500054
C35	C	0.518157	0.126660	0.000057
C36	C	1.018157	0.626660	0.500057
C37	C	0.481752	0.041743	0.000064
C38	C	0.981752	0.541743	0.500064
C39	C	0.496939	0.294663	0.000037
C40	C	0.996939	0.794663	0.500037
C41	C	0.590979	0.296498	0.000033
C42	C	1.090979	0.796498	0.500033
C43	C	0.648610	0.213410	0.000043
C44	C	1.148610	0.713410	0.500043
C45	C	0.612200	0.128489	0.000051
C46	C	1.112200	0.628489	0.500051
C47	C	0.669830	0.045403	0.000054
C48	C	1.169830	0.545403	0.500054
C49	C	0.633422	-0.039520	0.000069
C50	C	1.133422	0.460480	0.500069
C51	C	0.539383	-0.041345	0.000074
C52	C	1.039383	0.458655	0.500074
C53	C	0.742649	0.215235	0.000038
C54	C	1.242649	0.715235	0.500038
C55	C	0.763873	0.047231	0.000048
C56	C	1.263873	0.547231	0.500048
C57	C	1.062390	-0.518299	0.000042
C58	C	1.562390	-0.018299	0.500042
C59	C	1.064377	-0.413992	0.000050
C60	C	1.564377	0.086008	0.500050
C61	C	1.065967	-0.330856	0.000056
C62	C	1.565967	0.169144	0.500056
C63	C	1.067955	-0.226543	0.000062
C64	C	1.567955	0.273457	0.500062
C65	C	1.229994	0.121053	0.000067
C66	C	1.729994	0.621053	0.500067
C67	C	1.330079	0.123001	0.000067
C68	C	1.830079	0.623001	0.500067
C69	C	1.058869	0.296175	0.000046
C70	C	1.558869	0.796175	0.500046
C71	C	1.060812	0.398556	0.000039
C72	C	1.560812	0.898556	0.500039
N73	N	1.065157	0.127570	0.237498
N74	N	1.565157	0.627570	0.737498
N75	N	1.065208	0.127572	-0.237381
N76	N	1.565208	0.627572	0.262619
C77	C	1.003999	0.190170	0.710113
C78	C	1.503999	0.690170	1.210113
C79	C	1.126406	0.064976	0.710097
C80	C	1.626406	0.564976	1.210097
C81	C	1.126396	0.064974	0.605078
C82	C	1.626396	0.564974	1.105078
C83	C	1.065187	0.127571	0.552572
C84	C	1.565187	0.627571	1.052572
C85	C	1.003989	0.190170	0.605085
C86	C	1.503989	0.690170	1.105085
C87	C	1.187599	0.002381	0.552558
C88	C	1.687599	0.502381	1.052558
C89	C	1.187592	0.002376	0.447534
C90	C	1.687592	0.502376	0.947534
C91	C	1.126378	0.064970	0.395026
C92	C	1.626378	0.564970	0.895026
C93	C	1.065177	0.127572	0.447544
C94	C	1.565177	0.627572	0.947544
C95	C	1.003968	0.190169	0.395038
C96	C	1.503968	0.690169	0.895038
C97	C	0.942762	0.252767	0.447555
C98	C	1.442762	0.752767	0.947555
C99	C	0.942775	0.252764	0.552577
C100	C	1.442775	0.752764	1.052577
C101	C	1.126365	0.064973	0.290004
C102	C	1.626365	0.564973	0.790004
C103	C	1.003958	0.190170	0.290010
C104	C	1.503958	0.690170	0.790010
H105	H	0.810790	-0.020429	0.000054
H106	H	1.310790	0.479571	0.500054
H107	H	0.954163	0.241134	0.752874
H108	H	1.454163	0.741134	1.252874
C109	C	0.875436	0.321622	0.389785
C110	C	1.375436	0.821622	0.889785
N111	N	0.824726	0.373482	0.346268
N112	N	1.324726	0.873482	0.846268
H113	H	0.620614	0.365646	0.000020
H114	H	1.120614	0.865646	0.500020
H115	H	0.772288	0.284378	0.000027
H116	H	1.272288	0.784378	0.500027
C117	C	1.193732	-0.003876	0.767857
C118	C	1.693732	0.496124	1.267857
N119	N	1.244442	-0.055741	0.811366
N120	N	1.744442	0.444259	1.311366
C121	C	1.254913	-0.066489	0.389775
C122	C	1.754913	0.433511	0.889775
N123	N	1.305616	-0.118363	0.346270
N124	N	1.805616	0.381637	0.846270
H125	H	0.450011	0.362307	0.000024
H126	H	0.950011	0.862307	0.500024
C127	C	1.193688	-0.003880	0.232240
C128	C	1.693688	0.496120	0.732240
N129	N	1.244398	-0.055746	0.188734
N130	N	1.744398	0.444254	0.688734
H131	H	0.680356	-0.107168	0.000065
H132	H	1.180356	0.392832	0.500065
C133	C	0.936645	0.259056	0.232262
C134	C	1.436645	0.759056	0.732262
N135	N	0.885954	0.310952	0.188766
N136	N	1.385954	0.810952	0.688766
H137	H	0.509731	-0.110484	0.000110
H138	H	1.009731	0.389516	0.500110
H139	H	0.358060	-0.029228	0.000086
H140	H	0.858060	0.470772	0.500086
H141	H	0.319566	0.275561	0.000046
H142	H	0.819566	0.775561	0.500046
C143	C	0.875450	0.321611	0.610353
C144	C	1.375450	0.821611	1.110353
N145	N	0.824740	0.373465	0.653874
N146	N	1.324740	0.873465	1.153874
C147	C	1.254924	-0.066471	0.610321
C148	C	1.754924	0.433529	1.110321
N149	N	1.305633	-0.118335	0.653833
N150	N	1.805633	0.381665	1.153833
