data_functionalizedCrystal
_audit_creation_method	'MofGen! by Chris Wilmer'
_symmetry_space_group_name_H-M	'P1'
_symmetry_Int_Tables_number	1
_symmetry_cell_setting	triclinic
loop_
_symmetry_equiv_pos_as_xyz
  x,y,z
_cell_length_a	16.625548
_cell_length_b	12.645330
_cell_length_c	16.625539
_cell_angle_alpha	89.975749
_cell_angle_beta	89.979432
_cell_angle_gamma	90.018760
loop_
_atom_site_label
_atom_site_type_symbol
_atom_site_fract_x
_atom_site_fract_y
_atom_site_fract_z
Zn1	Zn	1.232707	-0.422007	-0.455932
Zn2	Zn	1.732707	0.077993	0.044068
Zn3	Zn	1.232622	-0.599293	-0.321109
Zn4	Zn	1.732622	-0.099293	0.178891
Zn5	Zn	1.097869	-0.422048	-0.321113
Zn6	Zn	1.597869	0.077952	0.178887
Zn7	Zn	1.097851	-0.599232	-0.455899
Zn8	Zn	1.597851	-0.099232	0.044101
O9	O	1.165262	-0.510645	-0.388513
O10	O	1.665262	-0.010645	0.111487
O11	O	1.345528	-0.445533	-0.438060
O12	O	1.845528	0.054467	0.061940
O13	O	1.214718	-0.575824	-0.208277
O14	O	1.714718	-0.075824	0.291723
O15	O	1.115799	-0.273695	-0.339012
O16	O	1.615799	0.226305	0.160988
O17	O	1.345465	-0.575784	-0.339006
O18	O	1.845465	-0.075784	0.160994
O19	O	1.214864	-0.273665	-0.438064
O20	O	1.714864	0.226335	0.061936
O21	O	1.115716	-0.445602	-0.208280
O22	O	1.615716	0.054398	0.291720
O23	O	0.985034	-0.445543	-0.338980
O24	O	1.485034	0.054457	0.161020
O25	O	1.115768	-0.575681	-0.568736
O26	O	1.615768	-0.075681	-0.068736
O27	O	0.985021	-0.575720	-0.438007
O28	O	1.485021	-0.075720	0.061993
O29	O	1.214846	-0.445474	-0.568760
O30	O	1.714846	0.054526	-0.068760
O31	O	1.214701	-0.747632	-0.338973
O32	O	1.714701	-0.247632	0.161027
O33	O	1.115685	-0.747588	-0.438003
O34	O	1.615685	-0.247588	0.061997
C35	C	0.955771	-0.510630	-0.388491
C36	C	1.455771	-0.010630	0.111509
C37	C	0.866150	-0.510649	-0.388500
C38	C	1.366150	-0.010649	0.111500
C39	C	1.165203	-0.786075	-0.388502
C40	C	1.665203	-0.286075	0.111498
C41	C	1.165252	-0.903905	-0.388524
C42	C	1.665252	-0.403905	0.111476
C43	C	0.537975	-0.510656	-0.388534
C44	C	1.037975	-0.010656	0.111466
C45	C	0.629283	-0.510651	-0.388522
C46	C	1.129283	-0.010651	0.111478
C47	C	0.702059	-0.510653	-0.388517
C48	C	1.202059	-0.010653	0.111483
C49	C	0.793374	-0.510647	-0.388506
C50	C	1.293374	-0.010647	0.111494
C51	C	1.103218	-1.071485	-0.451015
C52	C	1.603218	-0.571485	0.048985
C53	C	1.102901	-0.948925	-0.450815
C54	C	1.602901	-0.448925	0.049185
C55	C	1.142250	-0.948498	-0.303549
C56	C	1.642250	-0.448498	0.196451
C57	C	1.141872	-1.071097	-0.303928
C58	C	1.641872	-0.571097	0.196072
C59	C	1.250667	-1.070992	-0.410318
C60	C	1.750667	-0.570992	0.089682
C61	C	1.250144	-0.948386	-0.412177
C62	C	1.750144	-0.448386	0.087823
C63	C	1.375571	-0.510661	-0.388536
C64	C	1.875571	-0.010661	0.111464
C65	C	1.465192	-0.510668	-0.388546
C66	C	1.965192	-0.010668	0.111454
C67	C	1.165315	-0.510566	-0.598822
C68	C	1.665315	-0.010566	-0.098822
C69	C	1.165337	-0.510533	-0.688443
C70	C	1.665337	-0.010533	-0.188443
C71	C	1.165343	-0.234140	-0.388542
C72	C	1.665343	0.265860	0.111458
C73	C	1.165378	-0.116310	-0.388554
C74	C	1.665378	0.383690	0.111446
C75	C	1.165374	-0.510414	-1.016619
C76	C	1.665374	-0.010414	-0.516619
C77	C	1.165362	-0.510450	-0.925311
C78	C	1.665362	-0.010450	-0.425311
C79	C	1.165356	-0.510474	-0.852534
C80	C	1.665356	-0.010474	-0.352534
C81	C	1.165343	-0.510509	-0.761220
C82	C	1.665343	-0.010509	-0.261220
C83	C	1.165256	-0.510647	-0.179022
C84	C	1.665256	-0.010647	0.320978
C85	C	1.165390	-0.510382	-0.089402
C86	C	1.665390	-0.010382	0.410598
H87	H	1.117292	-0.918772	-0.513823
H88	H	1.617292	-0.418772	-0.013823
N89	N	1.311314	-0.909959	-0.359266
N90	N	1.811314	-0.409959	0.140734
N91	N	1.382829	-0.937454	-0.369280
N92	N	1.882829	-0.437454	0.130720
H93	H	1.426031	-0.910318	-0.331905
H94	H	1.926031	-0.410318	0.168095
N95	N	1.023568	-0.912273	-0.432750
N96	N	1.523568	-0.412273	0.067250
N97	N	0.966111	-0.936645	-0.477537
N98	N	1.466111	-0.436645	0.022463
H99	H	0.910075	-0.910771	-0.464782
H100	H	1.410075	-0.410771	0.035218
N101	N	1.121120	-1.108404	-0.530310
N102	N	1.621120	-0.608404	-0.030310
N103	N	1.070389	-1.161742	-0.568150
N104	N	1.570389	-0.661742	-0.068150
H105	H	1.083044	-1.187826	-0.624151
H106	H	1.583044	-0.687826	-0.124151
N107	N	1.024382	-1.110216	-0.433164
N108	N	1.524382	-0.610216	0.066836
N109	N	0.966091	-1.083577	-0.476087
N110	N	1.466091	-0.583577	0.023913
H111	H	0.910412	-1.110928	-0.463477
H112	H	1.410412	-0.610928	0.036523
H113	H	1.079525	-1.099789	-0.285491
H114	H	1.579525	-0.599789	0.214509
N115	N	1.196186	-1.108291	-0.243538
N116	N	1.696186	-0.608291	0.256462
N117	N	1.234246	-1.043701	-0.201243
N118	N	1.734246	-0.543701	0.298757
H119	H	1.272596	-1.069964	-0.158584
H120	H	1.772596	-0.569964	0.341416
N121	N	1.064842	-0.910129	-0.280007
N122	N	1.564842	-0.410129	0.219993
N123	N	1.009008	-0.973803	-0.266129
N124	N	1.509008	-0.473803	0.233871
H125	H	0.954335	-0.946708	-0.249507
H126	H	1.454335	-0.446708	0.250493
N127	N	1.197251	-0.911918	-0.243577
N128	N	1.697251	-0.411918	0.256423
N129	N	1.254150	-0.852430	-0.262841
N130	N	1.754150	-0.352430	0.237159
H131	H	1.292997	-0.826593	-0.220487
H132	H	1.792997	-0.326593	0.279513
N133	N	1.276985	-1.109697	-0.486728
N134	N	1.776985	-0.609697	0.013272
N135	N	1.233195	-1.171160	-0.526075
N136	N	1.733195	-0.671160	-0.026075
H137	H	1.251774	-1.198499	-0.580042
H138	H	1.751774	-0.698499	-0.080042
N139	N	1.271898	-0.911813	-0.490629
N140	N	1.771898	-0.411813	0.009371
N141	N	1.225100	-0.853204	-0.529024
N142	N	1.725100	-0.353204	-0.029024
H143	H	1.240460	-0.827370	-0.584433
H144	H	1.740460	-0.327370	-0.084433
N145	N	1.308755	-1.107353	-0.353241
N146	N	1.808755	-0.607353	0.146759
N147	N	1.287543	-1.166383	-0.296757
N148	N	1.787543	-0.666383	0.203243
H149	H	1.328561	-1.192067	-0.256442
H150	H	1.828561	-0.692067	0.243558
