data_functionalizedCrystal
_audit_creation_method	'MofGen! by Chris Wilmer'
_symmetry_space_group_name_H-M	'P1'
_symmetry_Int_Tables_number	1
_symmetry_cell_setting	triclinic
loop_
_symmetry_equiv_pos_as_xyz
  x,y,z
_cell_length_a	21.295420
_cell_length_b	21.295417
_cell_length_c	16.959447
_cell_angle_alpha	89.964725
_cell_angle_beta	89.981879
_cell_angle_gamma	90.026289
loop_
_atom_site_label
_atom_site_type_symbol
_atom_site_fract_x
_atom_site_fract_y
_atom_site_fract_z
Zn1	Zn	0.962315	-0.250667	-0.446907
Zn2	Zn	0.962229	-0.355944	-0.314717
Zn3	Zn	0.857050	-0.250685	-0.314742
Zn4	Zn	0.857008	-0.355895	-0.446853
O5	O	0.909651	-0.303298	-0.380804
O6	O	1.050393	-0.264646	-0.429384
O7	O	0.948259	-0.342009	-0.204109
O8	O	0.871068	-0.162593	-0.332306
O9	O	1.050330	-0.341992	-0.332264
O10	O	0.948405	-0.162580	-0.429408
O11	O	0.870984	-0.264676	-0.204127
O12	O	0.768955	-0.264628	-0.332254
O13	O	0.870995	-0.341908	-0.557471
O14	O	0.768924	-0.341925	-0.429316
O15	O	0.948364	-0.264598	-0.557511
O16	O	0.948218	-0.444027	-0.332212
O17	O	0.870912	-0.443991	-0.429292
C18	C	0.746099	-0.303274	-0.380782
C19	C	0.676131	-0.303278	-0.380791
C20	C	0.176705	-0.263118	-0.431469
C21	C	0.242448	-0.263114	-0.431468
C22	C	0.275291	-0.303317	-0.380823
C23	C	0.242387	-0.343539	-0.330188
C24	C	0.176646	-0.343547	-0.330195
N25	N	0.378488	-0.308066	-0.311611
N26	N	0.440939	-0.308054	-0.311606
C27	C	0.473366	-0.303296	-0.380800
N28	N	0.440983	-0.298537	-0.449999
N29	N	0.378526	-0.298545	-0.450003
C30	C	0.346577	-0.303313	-0.380810
C31	C	0.577548	-0.263074	-0.431435
C32	C	0.643292	-0.263074	-0.431436
C33	C	0.643230	-0.343496	-0.330149
C34	C	0.577488	-0.343500	-0.330155
C35	C	0.544651	-0.303286	-0.380797
C36	C	0.909568	-0.466849	-0.380761
C37	C	0.909590	-0.536817	-0.380768
C38	C	0.949879	-0.569682	-0.330271
C39	C	0.949909	-0.635425	-0.330289
C40	C	0.909638	-0.668300	-0.380796
C41	C	0.869346	-0.635427	-0.431303
C42	C	0.869323	-0.569686	-0.431289
N43	N	0.854571	-0.771561	-0.386814
N44	N	0.854595	-0.834013	-0.386822
C45	C	0.909709	-0.866375	-0.380841
N46	N	0.964798	-0.833926	-0.374836
N47	N	0.964773	-0.771469	-0.374823
C48	C	0.909660	-0.739585	-0.380816
C49	C	0.950033	-0.970525	-0.330360
C50	C	0.950064	-1.036268	-0.330383
C51	C	0.869496	-1.036270	-0.431394
C52	C	0.869471	-0.970528	-0.431374
C53	C	0.909738	-0.937659	-0.380853
C54	C	1.073841	-0.303322	-0.380827
C55	C	1.143809	-0.303333	-0.380837
C56	C	0.909684	-0.303245	-0.586973
C57	C	0.909699	-0.303223	-0.674829
C58	C	0.909751	-0.139107	-0.380866
C59	C	0.909793	-0.069139	-0.380892
C60	C	0.869521	-0.262893	-1.046321
C61	C	0.949988	-0.343421	-1.046290
C62	C	0.949977	-0.343435	-0.963744
C63	C	0.909737	-0.303179	-0.922483
C64	C	0.869507	-0.262907	-0.963767
C65	C	0.990201	-0.383710	-0.922453
C66	C	0.990191	-0.383727	-0.839902
C67	C	0.949953	-0.343467	-0.798639
C68	C	0.909723	-0.303194	-0.839929
C69	C	0.869483	-0.262937	-0.798668
C70	C	0.829255	-0.222660	-0.839956
C71	C	0.829270	-0.222647	-0.922505
C72	C	0.949939	-0.343480	-0.716091
C73	C	0.869470	-0.262952	-0.716114
C74	C	0.909653	-0.303304	-0.175438
C75	C	0.909761	-0.303149	-0.087582
H76	H	0.269133	-0.376275	-0.288954
Br77	Br	1.004591	-0.680037	-0.261752
H78	H	0.982669	-0.542922	-0.289136
H79	H	0.550810	-0.230329	-0.472671
Br80	Br	0.687797	-0.398066	-0.261423
H81	H	0.836704	-0.230166	-0.682525
H82	H	0.149862	-0.376296	-0.288964
Br83	Br	0.687938	-0.208499	-0.500166
Br84	Br	1.004679	-0.925913	-0.261795
H85	H	0.836559	-0.662199	-0.472428
H86	H	0.836514	-0.542927	-0.472412
Br87	Br	0.532840	-0.398071	-0.261425
Br88	Br	0.287102	-0.208532	-0.500187
Br89	Br	1.004753	-1.080872	-0.261853
Br90	Br	1.044800	-0.438350	-0.978452
Br91	Br	0.774646	-0.168028	-0.783949
Br92	Br	0.814788	-0.925922	-0.499909
Br93	Br	0.814848	-1.080879	-0.499949
H94	H	0.796518	-0.189857	-0.956129
H95	H	0.836770	-0.230098	-1.079942
H96	H	0.982744	-0.376201	-1.079889
H97	H	0.982696	-0.376268	-0.682477
Br98	Br	0.132143	-0.208546	-0.500202
Br99	Br	1.044786	-0.438386	-0.783875
