data_functionalizedCrystal
_audit_creation_method	'MofGen! by Chris Wilmer'
_symmetry_space_group_name_H-M	'P1'
_symmetry_Int_Tables_number	1
_symmetry_cell_setting	triclinic
loop_
_symmetry_equiv_pos_as_xyz
  x,y,z
_cell_length_a	15.944551
_cell_length_b	10.489741
_cell_length_c	14.421503
_cell_angle_alpha	90.008094
_cell_angle_beta	90.011352
_cell_angle_gamma	95.981044
loop_
_atom_site_label
_atom_site_type_symbol
_atom_site_fract_x
_atom_site_fract_y
_atom_site_fract_z
O1	O	0.118515	-1.692391	0.077057
O2	O	0.129639	-1.321041	0.077071
O3	O	0.001863	-1.516857	0.077055
O4	O	0.246291	-1.496575	0.077073
O5	O	0.001842	-1.516879	-0.077168
O6	O	0.129618	-1.321064	-0.077152
O7	O	0.118494	-1.692413	-0.077167
Cu8	Cu	0.124054	-1.506741	-0.091241
Cu9	Cu	0.124079	-1.506714	0.091146
O10	O	0.246270	-1.496598	-0.077151
C11	C	0.128788	-1.273532	-0.000039
C12	C	0.126275	-1.131938	-0.000033
C13	C	-0.029446	-1.516026	-0.000057
C14	C	-0.122708	-1.513502	-0.000057
N15	N	0.124037	-1.506768	-0.219523
C16	C	-0.338330	-1.386093	-0.000039
C17	C	-0.399002	-1.445268	-0.076083
C18	C	-0.293461	-1.508935	-0.000050
C19	C	-0.398965	-1.445275	0.075969
C20	C	-0.458400	-1.504515	-0.000039
C21	C	-0.352904	-1.568145	-0.076156
C22	C	-0.352861	-1.568134	0.075964
C23	C	-0.413515	-1.627399	-0.000098
C24	C	-0.198443	-1.511478	-0.000057
C25	C	-0.553417	-1.501982	-0.000038
C26	C	0.277579	-1.497429	-0.000037
C27	C	0.370841	-1.499953	-0.000030
C28	C	0.119345	-1.739922	-0.000055
C29	C	0.121858	-1.881517	-0.000054
C30	C	0.044975	-1.064925	-0.000048
C31	C	0.083390	-0.972255	0.075993
C32	C	0.083389	-0.972310	-0.076059
C33	C	0.164723	-1.041132	0.076070
C34	C	0.164711	-1.041198	-0.076050
C35	C	0.203186	-0.948554	0.000009
N36	N	0.124090	-1.506696	0.219427
C37	C	0.183041	-1.415985	0.530888
C38	C	0.200202	-1.531150	0.469056
C39	C	0.124055	-1.506747	0.591316
C40	C	0.106951	-1.391560	0.469054
C41	C	0.124074	-1.506716	0.408595
C42	C	0.141253	-1.621970	0.530845
C43	C	0.047969	-1.482305	0.530848
C44	C	0.065098	-1.597554	0.469044
C45	C	0.124046	-1.506763	0.696577
C46	C	0.124083	-1.506713	0.303336
H47	H	-0.419431	-1.393320	-0.140368
C48	C	0.249199	-1.312835	0.664641
C49	C	0.250408	-1.312505	0.567557
H50	H	0.290786	-1.248950	0.687278
H51	H	0.260829	-1.394478	0.686698
H52	H	0.195163	-1.295278	0.685788
H53	H	0.304443	-1.330071	0.546410
H54	H	0.238784	-1.230843	0.545492
H55	H	-0.305636	-1.284128	-0.000111
C56	C	-0.544997	-1.761736	0.000647
C57	C	-0.457445	-1.765171	-0.000124
H58	H	-0.572113	-1.846793	0.000642
H59	H	-0.561505	-1.717834	-0.052864
H60	H	-0.560751	-1.718269	0.054695
H61	H	-0.441691	-1.808630	-0.054177
H62	H	-0.440931	-1.809092	0.053391
C63	C	-0.237820	-1.639904	-0.162283
C64	C	-0.325516	-1.638233	-0.163045
H65	H	-0.220912	-1.683163	-0.215928
H66	H	-0.221664	-1.683240	-0.108361
H67	H	-0.211412	-1.554437	-0.162060
H68	H	-0.351924	-1.723701	-0.163261
H69	H	-0.341680	-1.594899	-0.216981
C70	C	-0.073742	-1.558118	0.620911
C71	C	-0.038876	-1.454358	0.567530
H72	H	-0.127357	-1.540854	0.643553
H73	H	-0.037522	-1.570619	0.671667
H74	H	-0.080004	-1.633248	0.583706
H75	H	-0.032608	-1.379229	0.604736
H76	H	-0.075104	-1.441842	0.516765
C77	C	0.015894	-1.821705	0.463969
C78	C	-0.002232	-1.701257	0.432606
H79	H	-0.025668	-1.885727	0.441466
H80	H	0.015832	-1.822732	0.529826
H81	H	0.069808	-1.838349	0.441870
H82	H	-0.056144	-1.684609	0.454711
H83	H	-0.002179	-1.700228	0.366735
H84	H	0.092477	-1.294162	0.441908
C85	C	-0.388169	-1.248774	0.162607
C86	C	-0.426489	-1.375104	0.162759
H87	H	-0.405155	-1.205453	0.216188
H88	H	-0.404738	-1.205987	0.108620
H89	H	-0.328622	-1.249212	0.162926
H90	H	-0.486037	-1.374667	0.162433
H91	H	-0.409925	-1.417903	0.216760
C92	C	-0.348240	-1.573675	0.242305
C93	C	-0.325241	-1.638201	0.162748
H94	H	-0.331181	-1.616921	0.295886
H95	H	-0.407672	-1.571912	0.243238
H96	H	-0.321452	-1.488436	0.241753
H97	H	-0.352034	-1.723438	0.163298
H98	H	-0.265798	-1.639978	0.161816
C99	C	-0.087612	-1.098685	0.079780
C100	C	-0.045255	-1.133227	0.000051
H101	H	-0.143311	-1.140864	0.079847
H102	H	-0.089838	-1.008555	0.080320
H103	H	-0.058419	-1.123231	0.133246
H104	H	-0.074446	-1.108673	-0.053415
H105	H	-0.043034	-1.223377	-0.000497
H106	H	0.048999	-0.941708	0.140277
C107	C	0.305576	-1.678738	0.464934
C108	C	0.287069	-1.559055	0.432400
H109	H	0.359207	-1.695952	0.442308
H110	H	0.263734	-1.743260	0.443764
H111	H	0.306351	-1.678158	0.530798
H112	H	0.286288	-1.559638	0.366536
H113	H	0.328922	-1.494516	0.453566
C114	C	0.213032	-1.215233	0.162204
C115	C	0.211130	-1.082082	0.162961
H116	H	0.241675	-1.240513	0.215849
H117	H	0.241713	-1.239371	0.108282
H118	H	0.156994	-1.256114	0.161982
H119	H	0.267169	-1.041201	0.163175
H120	H	0.182451	-1.057932	0.216896
C121	C	0.335865	-0.915282	0.079756
C122	C	0.293500	-0.880566	0.000069
H123	H	0.391618	-0.873300	0.079796
H124	H	0.337946	-1.005443	0.080263
H125	H	0.306769	-0.890627	0.133251
H126	H	0.322593	-0.905230	-0.053427
H127	H	0.291424	-0.790385	-0.000447
H128	H	0.199074	-1.071777	-0.140337
H129	H	0.048966	-0.941819	-0.140346
H130	H	0.155805	-1.719390	0.557875
