data_functionalizedCrystal
_audit_creation_method	'MofGen! by Chris Wilmer'
_symmetry_space_group_name_H-M	'P1'
_symmetry_Int_Tables_number	1
_symmetry_cell_setting	triclinic
loop_
_symmetry_equiv_pos_as_xyz
  x,y,z
_cell_length_a	19.805407
_cell_length_b	18.101395
_cell_length_c	19.805398
_cell_angle_alpha	89.976545
_cell_angle_beta	89.984135
_cell_angle_gamma	90.031104
loop_
_atom_site_label
_atom_site_type_symbol
_atom_site_fract_x
_atom_site_fract_y
_atom_site_fract_z
Zn1	Zn	1.034689	-0.294859	-0.382731
Zn2	Zn	1.534689	0.205141	0.117269
Zn3	Zn	1.034602	-0.418699	-0.269548
Zn4	Zn	1.534602	0.081301	0.230452
Zn5	Zn	0.921511	-0.294876	-0.269556
Zn6	Zn	1.421511	0.205124	0.230444
Zn7	Zn	0.921458	-0.418663	-0.382695
Zn8	Zn	1.421458	0.081337	0.117305
O9	O	0.978065	-0.356774	-0.326132
O10	O	1.478065	0.143226	0.173868
O11	O	1.129394	-0.311295	-0.367729
O12	O	1.629394	0.188705	0.132271
O13	O	1.019586	-0.402296	-0.174832
O14	O	1.519586	0.097704	0.325168
O15	O	0.936583	-0.191241	-0.284587
O16	O	1.436583	0.308759	0.215413
O17	O	1.129330	-0.402279	-0.284574
O18	O	1.629330	0.097721	0.215426
O19	O	1.019734	-0.191228	-0.367737
O20	O	1.519734	0.308772	0.132263
O21	O	0.936498	-0.311323	-0.174838
O22	O	1.436498	0.188677	0.325162
O23	O	0.826787	-0.311289	-0.284552
O24	O	1.326787	0.188711	0.215448
O25	O	0.936492	-0.402218	-0.477416
O26	O	1.436492	0.097782	0.022584
O27	O	0.826748	-0.402235	-0.367674
O28	O	1.326748	0.097765	0.132326
O29	O	1.019683	-0.311260	-0.477443
O30	O	1.519683	0.188740	0.022557
O31	O	1.019534	-0.522327	-0.284538
O32	O	1.519534	-0.022327	0.215462
O33	O	0.936408	-0.522301	-0.367667
O34	O	1.436408	-0.022301	0.132333
C35	C	0.802209	-0.356760	-0.326110
C36	C	1.302209	0.143240	0.173890
C37	C	0.726977	-0.356772	-0.326117
C38	C	1.226977	0.143228	0.173883
C39	C	0.977974	-0.549185	-0.326112
C40	C	1.477974	-0.049185	0.173888
C41	C	0.977997	-0.631499	-0.326127
C42	C	1.477997	-0.131499	0.173873
C43	C	0.691630	-0.404199	-0.369329
C44	C	1.191630	0.095801	0.130671
C45	C	0.620942	-0.404200	-0.369339
C46	C	1.120942	0.095800	0.130661
C47	C	0.585601	-0.356778	-0.326132
C48	C	1.085601	0.143222	0.173868
C49	C	0.620953	-0.309345	-0.282919
C50	C	1.120953	0.190655	0.217081
C51	C	0.691640	-0.309341	-0.282913
C52	C	1.191640	0.190659	0.217087
C53	C	0.335880	-0.309362	-0.282941
C54	C	0.835880	0.190638	0.217059
C55	C	0.265187	-0.309372	-0.282948
C56	C	0.765187	0.190628	0.217052
C57	C	0.265181	-0.404221	-0.369367
C58	C	0.765181	0.095779	0.130633
C59	C	0.335868	-0.404216	-0.369361
C60	C	0.835868	0.095784	0.130639
C61	C	0.371214	-0.356782	-0.326150
C62	C	0.871214	0.143218	0.173850
C63	C	0.447862	-0.356780	-0.326141
C64	C	0.947862	0.143220	0.173859
C65	C	0.508954	-0.356783	-0.326137
C66	C	1.008954	0.143217	0.173863
C67	C	0.978146	-0.930590	-0.326163
C68	C	1.478146	-0.430590	0.173837
C69	C	0.925966	-0.899279	-0.378595
C70	C	1.425966	-0.399279	0.121405
C71	C	0.925718	-0.813661	-0.378431
C72	C	1.425718	-0.313661	0.121569
C73	C	0.978072	-0.782207	-0.326146
C74	C	1.478072	-0.282207	0.173854
C75	C	0.958766	-0.813353	-0.254811
C76	C	1.458766	-0.313353	0.245189
C77	C	0.958430	-0.898999	-0.255125
C78	C	1.458430	-0.398999	0.244875
C79	C	1.049746	-0.898935	-0.344438
C80	C	1.549746	-0.398935	0.155562
C81	C	1.049325	-0.813284	-0.346002
C82	C	1.549325	-0.313284	0.153998
C83	C	0.978032	-0.698348	-0.326131
C84	C	1.478032	-0.198348	0.173869
C85	C	0.978185	-1.014449	-0.326173
C86	C	1.478185	-0.514449	0.173827
C87	C	1.154607	-0.356789	-0.326155
C88	C	1.654607	0.143211	0.173845
C89	C	1.229839	-0.356795	-0.326164
C90	C	1.729839	0.143205	0.173836
C91	C	0.978091	-0.356733	-0.502675
C92	C	1.478091	0.143267	-0.002675
C93	C	0.978103	-0.356716	-0.577907
C94	C	1.478103	0.143284	-0.077907
C95	C	0.978174	-0.163612	-0.326167
C96	C	1.478174	0.336388	0.173833
C97	C	0.978221	-0.081298	-0.326182
C98	C	1.478221	0.418702	0.173818
C99	C	1.021501	-0.309223	-1.039714
C100	C	1.521501	0.190777	-0.539714
C101	C	1.021491	-0.309245	-0.969025
C102	C	1.521491	0.190755	-0.469025
C103	C	0.978172	-0.356613	-0.933669
C104	C	1.478172	0.143387	-0.433669
C105	C	0.934866	-0.403966	-0.969005
C106	C	1.434866	0.096034	-0.469005
C107	C	0.934880	-0.403946	-1.039692
C108	C	1.434880	0.096054	-0.539692
C109	C	0.934807	-0.404046	-0.683932
C110	C	1.434807	0.095954	-0.183932
C111	C	0.934794	-0.404060	-0.613240
C112	C	1.434794	0.095940	-0.113240
C113	C	1.021417	-0.309345	-0.613264
C114	C	1.521417	0.190655	-0.113264
C115	C	1.021432	-0.309326	-0.683952
C116	C	1.521432	0.190674	-0.183952
C117	C	0.978129	-0.356681	-0.719282
C118	C	1.478129	0.143319	-0.219282
C119	C	0.978142	-0.356657	-0.795930
C120	C	1.478142	0.143343	-0.295930
C121	C	0.978155	-0.356634	-0.857022
C122	C	1.478155	0.143366	-0.357022
C123	C	0.978077	-0.356762	-0.150276
C124	C	1.478077	0.143238	0.349724
C125	C	0.978197	-0.356570	-0.075045
C126	C	1.478197	0.143430	0.424955
H127	H	0.720399	-0.442818	-0.404510
H128	H	1.220399	0.057182	0.095490
H129	H	0.364649	-0.270743	-0.247751
H130	H	0.864649	0.229257	0.252249
H131	H	0.592173	-0.270730	-0.247742
H132	H	1.092173	0.229270	0.252258
Cl133	Cl	0.736076	-0.249714	-0.228589
Cl134	Cl	1.236076	0.250286	0.271411
H135	H	1.088622	-0.919182	-0.306250
H136	H	1.588622	-0.419182	0.193750
Cl137	Cl	0.878812	-0.780342	-0.230481
Cl138	Cl	1.378812	-0.280342	0.269519
H139	H	1.056704	-0.270751	-0.712735
H140	H	1.556704	0.229249	-0.212735
H141	H	0.592165	-0.442820	-0.404525
H142	H	1.092165	0.057180	0.095475
H143	H	0.899514	-0.442632	-0.584455
H144	H	1.399514	0.057368	-0.084455
Cl145	Cl	0.880371	-0.463582	-0.728338
Cl146	Cl	1.380371	0.036418	-0.228338
H147	H	1.056772	-0.270646	-1.068495
H148	H	1.556772	0.229354	-0.568495
H149	H	1.056755	-0.270692	-0.940261
H150	H	1.556755	0.229308	-0.440261
Cl151	Cl	0.843779	-0.782122	-0.359744
Cl152	Cl	1.343779	-0.282122	0.140256
H153	H	0.899618	-0.442503	-1.068458
H154	H	1.399618	0.057497	-0.568458
H155	H	1.056679	-0.270788	-0.584490
H156	H	1.556679	0.229212	-0.084490
Cl157	Cl	0.877622	-0.929945	-0.231225
Cl158	Cl	1.377622	-0.429945	0.268775
H159	H	0.364639	-0.442835	-0.404542
H160	H	0.864639	0.057165	0.095458
H161	H	0.937797	-0.792601	-0.431325
H162	H	1.437797	-0.292601	0.068675
Cl163	Cl	0.220742	-0.463853	-0.423690
Cl164	Cl	0.720742	0.036147	0.076310
H165	H	0.899598	-0.442537	-0.940213
H166	H	1.399598	0.057463	-0.440213
H167	H	0.236415	-0.270750	-0.247765
H168	H	0.736415	0.229250	0.252235
H169	H	0.937925	-0.919830	-0.431660
H170	H	1.437925	-0.419830	0.068340
Cl171	Cl	0.844527	-0.932621	-0.360156
Cl172	Cl	1.344527	-0.432621	0.139844
H173	H	1.067349	-0.920487	-0.395569
H174	H	1.567349	-0.420487	0.104431
Cl175	Cl	1.014553	-0.930984	-0.192748
Cl176	Cl	1.514553	-0.430984	0.307252
Cl177	Cl	1.015595	-0.781901	-0.192848
Cl178	Cl	1.515595	-0.281901	0.307152
Cl179	Cl	1.112526	-0.780216	-0.291344
Cl180	Cl	1.612526	-0.280216	0.208656
Cl181	Cl	1.071806	-0.781852	-0.427056
Cl182	Cl	1.571806	-0.281852	0.072944
