data_functionalizedCrystal
_audit_creation_method	'MofGen! by Chris Wilmer'
_symmetry_space_group_name_H-M	'P1'
_symmetry_Int_Tables_number	1
_symmetry_cell_setting	triclinic
loop_
_symmetry_equiv_pos_as_xyz
  x,y,z
_cell_length_a	14.519710
_cell_length_b	10.654541
_cell_length_c	9.730217
_cell_angle_alpha	90.003041
_cell_angle_beta	89.999532
_cell_angle_gamma	95.917963
loop_
_atom_site_label
_atom_site_type_symbol
_atom_site_fract_x
_atom_site_fract_y
_atom_site_fract_z
O1	O	1.224716	-0.164621	-0.114259
O2	O	0.956340	-0.184008	-0.114269
O3	O	1.096699	0.008484	-0.114255
O4	O	1.084356	-0.357113	-0.114272
O5	O	1.096695	0.008486	0.114325
O6	O	0.956335	-0.184006	0.114312
O7	O	1.224712	-0.164619	0.114321
Zn8	Zn	1.090523	-0.174312	0.150608
Zn9	Zn	1.090528	-0.174315	-0.150556
O10	O	1.084352	-0.357112	0.114308
C11	C	1.095791	0.055275	0.000034
C12	C	1.093081	0.194692	0.000031
C13	C	0.921973	-0.183103	0.000020
C14	C	0.819578	-0.180396	0.000017
C15	C	1.259078	-0.165524	0.000029
C16	C	1.361474	-0.168231	0.000023
C17	C	1.736421	-0.178198	0.000022
C18	C	1.632099	-0.175431	0.000022
C19	C	1.548951	-0.173215	0.000021
C20	C	1.444622	-0.170447	0.000024
C21	C	1.085260	-0.403902	0.000015
C22	C	1.087970	-0.543319	0.000009
N23	N	1.090526	-0.174310	0.356145
C24	C	1.260920	0.224277	0.000055
C25	C	1.343562	0.304566	0.000069
C26	C	1.341010	0.435559	0.000065
C27	C	1.255806	0.486265	0.000042
C28	C	1.173164	0.405976	0.000027
C29	C	1.175725	0.274981	0.000036
C30	C	1.005328	0.376392	-0.000006
C31	C	1.007878	0.245398	0.000009
C32	C	0.920124	0.427098	-0.000028
C33	C	0.837480	0.346809	-0.000033
C34	C	0.840036	0.215808	-0.000027
C35	C	0.925236	0.165109	-0.000006
N36	N	1.090533	-0.174307	-0.356092
C37	C	1.214865	-0.003908	0.356147
C38	C	1.277042	0.081290	0.428088
C39	C	1.277051	0.081291	0.571968
C40	C	1.214876	-0.003913	0.643910
C41	C	1.152700	-0.089110	0.571969
C42	C	1.152699	-0.089104	0.428086
C43	C	1.028357	-0.259505	0.571967
C44	C	1.028350	-0.259514	0.428087
C45	C	0.966181	-0.344708	0.643909
C46	C	0.904008	-0.429914	0.571967
C47	C	0.904002	-0.429912	0.428079
C48	C	0.966174	-0.344711	0.356146
H49	H	1.263006	0.117616	0.000077
C50	C	0.966182	-0.344689	0.802180
N51	N	0.966179	-0.344674	0.921393
H52	H	0.853385	-0.499275	0.630552
H53	H	1.327677	0.150671	0.630542
C54	C	1.253004	0.630362	0.000032
N55	N	1.250892	0.738898	0.000029
C56	C	0.928055	0.021015	-0.000001
N57	N	0.930182	-0.087518	-0.000003
C58	C	1.214873	-0.003884	0.802182
N59	N	1.214867	-0.003858	0.921394
H60	H	0.918052	0.533761	-0.000040
C61	C	0.835617	-0.523659	0.348955
N62	N	0.784114	-0.594280	0.289364
H63	H	0.966178	-0.344707	0.238991
H64	H	0.768114	0.388105	-0.000060
H65	H	1.327663	0.150665	0.369500
C66	C	1.437281	0.248779	0.000105
N67	N	1.507871	0.206763	0.000135
C68	C	1.214867	-0.003908	0.197875
N69	N	1.214869	-0.003906	0.078663
H70	H	1.408304	0.500931	0.000065
H71	H	0.772738	0.150442	-0.000045
