data_functionalizedCrystal
_audit_creation_method	'MofGen! by Chris Wilmer'
_symmetry_space_group_name_H-M	'P1'
_symmetry_Int_Tables_number	1
_symmetry_cell_setting	triclinic
loop_
_symmetry_equiv_pos_as_xyz
  x,y,z
_cell_length_a	19.288864
_cell_length_b	10.268362
_cell_length_c	19.288857
_cell_angle_alpha	90.007434
_cell_angle_beta	83.134677
_cell_angle_gamma	90.018431
loop_
_atom_site_label
_atom_site_type_symbol
_atom_site_fract_x
_atom_site_fract_y
_atom_site_fract_z
O1	O	0.921346	0.108724	0.086649
O2	O	1.421346	0.608724	0.586649
O3	O	0.719085	0.108636	0.098337
O4	O	1.219085	0.608636	0.598337
O5	O	0.826063	0.108667	-0.008638
O6	O	1.326063	0.608667	0.491362
O7	O	0.814368	0.108693	0.193624
O8	O	1.314368	0.608693	0.693624
O9	O	0.826053	-0.107934	-0.008642
O10	O	1.326053	0.392066	0.491358
O11	O	0.719076	-0.107965	0.098333
O12	O	1.219076	0.392035	0.598333
O13	O	0.921337	-0.107877	0.086644
O14	O	1.421337	0.392123	0.586644
Cu15	Cu	0.820205	-0.127698	0.092488
Cu16	Cu	1.320205	0.372302	0.592488
Cu17	Cu	0.820216	0.128457	0.092493
Cu18	Cu	1.320216	0.628457	0.592493
O19	O	0.814359	-0.107908	0.193619
O20	O	1.314359	0.392092	0.693619
C21	C	0.693204	0.000324	0.097959
C22	C	1.193204	0.500324	0.597959
C23	C	0.616100	0.000290	0.096830
C24	C	1.116100	0.500290	0.596830
N25	N	0.820203	-0.307864	0.092484
N26	N	1.320203	0.192136	0.592484
C27	C	0.571402	0.000318	0.159598
C28	C	1.071402	0.500318	0.659598
C29	C	0.498955	0.000333	0.158537
C30	C	0.998955	0.500333	0.658537
C31	C	0.471209	0.000344	0.094705
C32	C	0.971209	0.500344	0.594705
C33	C	0.515917	0.000308	0.031929
C34	C	1.015917	0.500308	0.531929
C35	C	0.588363	0.000281	0.032991
C36	C	1.088363	0.500281	0.532991
C37	C	0.362952	0.076266	0.044527
C38	C	0.862952	0.576266	0.544527
C39	C	0.290508	0.076302	0.043467
C40	C	0.790508	0.576302	0.543467
C41	C	0.247764	0.000423	0.091425
C42	C	0.747764	0.500423	0.591425
C43	C	0.277472	-0.075475	0.140455
C44	C	0.777472	0.424525	0.640455
C45	C	0.349918	-0.075502	0.141518
C46	C	0.849918	0.424498	0.641518
C47	C	0.392656	0.000373	0.093546
C48	C	0.892656	0.500373	0.593546
C49	C	0.124510	0.000465	0.153048
C50	C	0.624510	0.500465	0.653048
C51	C	0.052062	0.000471	0.151984
C52	C	0.552062	0.500471	0.651984
C53	C	0.069026	0.000460	0.025374
C54	C	0.569026	0.500460	0.525374
C55	C	0.141472	0.000441	0.026439
C56	C	0.641472	0.500441	0.526439
C57	C	0.169210	0.000449	0.090278
C58	C	0.669210	0.500449	0.590278
C59	C	0.820213	-0.573535	0.092492
C60	C	1.320213	-0.073535	0.592492
C61	C	0.820205	-0.425697	0.092490
C62	C	1.320205	0.074303	0.592490
C63	C	0.947218	0.000438	0.087022
C64	C	1.447218	0.500438	0.587022
C65	C	1.024321	0.000481	0.088151
C66	C	1.524321	0.500481	0.588151
C67	C	0.825683	0.000365	-0.034516
C68	C	1.325683	0.500365	0.465484
C69	C	0.824556	0.000361	-0.111620
C70	C	1.324556	0.500361	0.388380
N71	N	0.820224	0.308623	0.092492
N72	N	1.320224	0.808623	0.592492
C73	C	0.824035	0.118430	-0.147829
C74	C	1.324035	0.618430	0.352171
C75	C	0.822966	0.118439	-0.220275
C76	C	1.322966	0.618439	0.279725
C77	C	0.822432	0.000373	-0.256511
C78	C	1.322432	0.500373	0.243489
C79	C	0.822949	-0.117712	-0.220294
C80	C	1.322949	0.382288	0.279706
C81	C	0.824011	-0.117718	-0.147848
C82	C	1.324011	0.382282	0.352152
C83	C	0.861430	-0.090056	-0.376745
C84	C	1.361430	0.409944	0.123255
C85	C	0.860373	-0.090046	-0.449190
C86	C	1.360373	0.409954	0.050810
C87	C	0.819155	0.000386	-0.479957
C88	C	1.319155	0.500386	0.020043
C89	C	0.779003	0.090828	-0.438273
C90	C	1.279003	0.590828	0.061727
C91	C	0.780065	0.090822	-0.365827
C92	C	1.280065	0.590822	0.134173
C93	C	0.821281	0.000366	-0.335066
C94	C	1.321281	0.500366	0.164934
C95	C	0.817474	0.118473	-0.594720
C96	C	1.317474	0.618473	-0.094720
C97	C	0.816401	0.118477	-0.667166
C98	C	1.316401	0.618477	-0.167166
C99	C	0.816391	-0.117677	-0.667185
C100	C	1.316391	0.382323	-0.167185
C101	C	0.817457	-0.117678	-0.594739
C102	C	1.317457	0.382322	-0.094739
C103	C	0.818002	0.000401	-0.558511
C104	C	1.318002	0.500401	-0.058511
C105	C	0.814739	0.000397	0.219498
C106	C	1.314739	0.500397	0.719498
C107	C	0.815866	0.000410	0.296602
C108	C	1.315866	0.500410	0.796602
H109	H	0.593981	0.000328	0.211581
H110	H	1.093981	0.500328	0.711581
F111	F	0.815819	-0.243334	-0.705746
F112	F	1.315819	0.256666	-0.205746
F113	F	0.258896	0.157090	-0.008708
F114	F	0.758896	0.657090	0.491292
F115	F	0.189045	0.000417	-0.040368
F116	F	0.689045	0.500417	0.459632
F117	F	0.039502	0.000460	-0.042562
F118	F	0.539502	0.500460	0.457438
F119	F	0.451376	0.000359	0.225347
F120	F	0.951376	0.500359	0.725347
F121	F	0.737332	0.187071	-0.321466
F122	F	1.237332	0.687071	0.178534
F123	F	0.381533	-0.156279	0.193695
F124	F	0.881533	0.343721	0.693695
F125	F	0.818049	0.244141	-0.556160
F126	F	1.318049	0.744141	-0.056160
F127	F	0.815842	0.244150	-0.705701
F128	F	1.315842	0.744150	-0.205701
F129	F	0.818012	-0.243345	-0.556202
F130	F	1.318012	0.256655	-0.056202
H131	H	0.242671	-0.137264	0.179507
H132	H	0.742671	0.362736	0.679507
H133	H	0.894994	-0.163706	-0.351700
H134	H	1.394994	0.336294	0.148300
H135	H	0.624757	0.000259	-0.018124
H136	H	1.124757	0.500259	0.481876
H137	H	0.147095	0.000453	0.205029
H138	H	0.647095	0.500453	0.705029
F139	F	0.004490	0.000495	0.218795
F140	F	0.504490	0.500495	0.718795
F141	F	0.824611	0.244100	-0.109276
F142	F	1.324611	0.744100	0.390724
F143	F	0.822411	0.244109	-0.258818
F144	F	1.322411	0.744109	0.241182
F145	F	0.408437	0.157032	-0.006520
F146	F	0.908437	0.657032	0.493480
H147	H	0.824432	-0.213867	-0.118368
H148	H	1.324432	0.286133	0.381632
F149	F	0.486387	0.000315	-0.036006
F150	F	0.986387	0.500315	0.463994
H151	H	0.745439	0.164466	-0.463322
H152	H	1.245439	0.664466	0.036678
H153	H	0.893069	-0.163685	-0.483124
H154	H	1.393069	0.336315	0.016876
H155	H	0.822513	-0.213843	-0.249802
H156	H	1.322513	0.286157	0.250198
