data_functionalizedCrystal
_audit_creation_method	'MofGen! by Chris Wilmer'
_symmetry_space_group_name_H-M	'P1'
_symmetry_Int_Tables_number	1
_symmetry_cell_setting	triclinic
loop_
_symmetry_equiv_pos_as_xyz
  x,y,z
_cell_length_a	14.971486
_cell_length_b	14.853567
_cell_length_c	13.448316
_cell_angle_alpha	89.997194
_cell_angle_beta	89.998199
_cell_angle_gamma	83.624529
loop_
_atom_site_label
_atom_site_type_symbol
_atom_site_fract_x
_atom_site_fract_y
_atom_site_fract_z
O1	O	1.186969	0.117488	-0.082569
O2	O	0.926571	0.131557	-0.082595
O3	O	1.063725	-0.006709	-0.082584
O4	O	1.049814	0.255753	-0.082580
O5	O	1.063708	-0.006717	0.082800
O6	O	0.926554	0.131549	0.082789
O7	O	1.186951	0.117479	0.082815
Cu8	Cu	1.056751	0.124513	0.097903
Cu9	Cu	1.056771	0.124523	-0.097683
O10	O	1.049797	0.255745	0.082804
C11	C	0.893238	0.130924	0.000093
C12	C	0.793940	0.129038	0.000083
C13	C	0.736730	0.210265	0.000086
C14	C	0.643430	0.208488	0.000101
C15	C	0.607342	0.125483	0.000106
C16	C	0.664560	0.044249	0.000106
C17	C	0.757858	0.046027	0.000098
C18	C	0.470097	0.040549	0.000119
C19	C	0.376793	0.038771	0.000125
C20	C	0.355669	0.203010	0.000122
C21	C	0.448967	0.204788	0.000114
C22	C	0.506178	0.123554	0.000113
C23	C	1.063087	-0.040301	0.000105
C24	C	1.061198	-0.140385	0.000096
C25	C	0.971740	-0.552902	0.000106
C26	C	1.134683	-0.574213	0.000122
C27	C	1.136459	-0.480180	0.000116
C28	C	1.055874	-0.422503	0.000107
C29	C	0.973514	-0.458860	0.000103
C30	C	1.218818	-0.443816	0.000130
C31	C	1.220597	-0.349777	0.000126
C32	C	1.140012	-0.292099	0.000109
C33	C	1.057648	-0.328461	0.000104
C34	C	0.977064	-0.270784	0.000095
C35	C	0.894699	-0.307144	0.000083
C36	C	0.892928	-0.401181	0.000087
C37	C	1.141782	-0.198061	0.000105
C38	C	0.978837	-0.176741	0.000092
C39	C	1.220285	0.118113	0.000124
C40	C	1.319582	0.119998	0.000128
C41	C	1.050436	0.289338	0.000113
C42	C	1.052325	0.389421	0.000115
N43	N	1.056743	0.124505	0.235467
N44	N	1.056786	0.124524	-0.235247
C45	C	1.117494	0.063307	0.287512
C46	C	1.117500	0.063306	0.391615
C47	C	1.056758	0.124509	0.443672
C48	C	0.996001	0.185711	0.391619
C49	C	0.995991	0.185707	0.287518
C50	C	0.996025	0.185717	0.608599
C51	C	0.996036	0.185723	0.712708
C52	C	1.117534	0.063316	0.712697
C53	C	1.117525	0.063312	0.608595
C54	C	1.056768	0.124515	0.556550
H55	H	0.804439	-0.020116	0.000095
O56	O	0.936991	0.245042	0.763392
C57	C	0.881762	0.196653	0.823606
H58	H	0.917315	0.126168	0.839190
H59	H	0.815645	0.190410	0.783506
C60	C	0.819054	0.334012	0.903358
C61	C	0.862724	0.247444	0.922505
H62	H	0.807307	0.365343	0.964362
H63	H	0.856260	0.366614	0.862788
H64	H	0.763962	0.328797	0.869938
H65	H	0.917821	0.252660	0.955912
H66	H	0.825527	0.214844	0.963082
H67	H	1.166989	0.013480	0.566211
H68	H	1.287664	-0.320181	0.000134
H69	H	1.208842	-0.168461	0.000122
H70	H	0.309082	0.269154	0.000128
H71	H	0.946521	0.235540	0.245144
O72	O	1.176552	0.003987	0.442286
C73	C	1.231799	0.052372	0.502472
H74	H	1.196254	0.122858	0.518061
H75	H	1.297907	0.058612	0.462346
C76	C	1.294520	-0.084990	0.582219
C77	C	1.250860	0.001580	0.601371
H78	H	1.306282	-0.116322	0.643222
H79	H	1.257302	-0.117589	0.541668
H80	H	1.349605	-0.079778	0.548778
H81	H	1.195771	-0.003634	0.634800
H82	H	1.288069	0.034177	0.641930
H83	H	1.167003	0.013483	0.755078
O84	O	1.176411	0.003711	0.237016
C85	C	1.161757	-0.085544	0.262519
H86	H	1.090142	-0.086077	0.291131
H87	H	1.211288	-0.111927	0.322963
C88	C	1.263542	-0.146026	0.134934
C89	C	1.175580	-0.146683	0.170068
H90	H	1.272072	-0.183741	0.077908
H91	H	1.273417	-0.085894	0.117754
H92	H	1.304807	-0.168010	0.185313
H93	H	1.134317	-0.124688	0.119694
H94	H	1.165698	-0.206813	0.187237
O95	O	0.936975	0.245258	0.558195
C96	C	0.883352	0.299267	0.626461
H97	H	0.920029	0.300347	0.700664
H98	H	0.816874	0.269887	0.637544
C99	C	0.819989	0.395167	0.494689
C100	C	0.865039	0.396500	0.585823
H101	H	0.808689	0.455144	0.469621
H102	H	0.856113	0.358779	0.448695
H103	H	0.764595	0.370680	0.503936
H104	H	0.920437	0.420976	0.576572
H105	H	0.828924	0.432895	0.631815
H106	H	0.946539	0.235541	0.434009
O107	O	0.484137	0.285358	0.000226
C108	C	0.537467	0.291311	0.085879
H109	H	0.560605	0.220281	0.114449
H110	H	0.496312	0.331167	0.145856
C111	C	0.591641	0.427166	0.024742
C112	C	0.620066	0.339925	0.059827
H113	H	0.642590	0.457157	0.008674
H114	H	0.555709	0.423158	-0.032963
H115	H	0.557344	0.460368	0.074729
H116	H	0.654352	0.306721	0.009836
H117	H	0.656006	0.343928	0.117523
H118	H	0.766104	0.277858	0.000081
H119	H	1.200291	-0.621179	0.000138
O120	O	0.525546	-0.038444	0.000068
C121	C	0.473691	-0.112089	0.000093
H122	H	0.404084	-0.089279	-0.031206
H123	H	0.467025	-0.137539	0.079434
C124	C	0.605571	-0.216986	-0.026338
C125	C	0.520081	-0.188972	-0.064787
H126	H	0.634187	-0.264413	-0.066354
H127	H	0.640508	-0.167371	-0.026350
H128	H	0.600004	-0.238188	0.039780
H129	H	0.525649	-0.167760	-0.130898
H130	H	0.485146	-0.238585	-0.064787
H131	H	0.913214	-0.129786	0.000080
H132	H	0.347414	-0.028819	0.000130
O133	O	0.587896	0.287419	-0.000077
C134	C	0.604281	0.337817	-0.085725
H135	H	0.636102	0.290254	-0.145592
H136	H	0.651856	0.390047	-0.066370
C137	C	0.475846	0.444982	-0.051026
C138	C	0.514922	0.386563	-0.124559
H139	H	0.420727	0.475054	-0.074979
H140	H	0.464809	0.411030	0.006679
H141	H	0.515501	0.488499	-0.034904
H142	H	0.475273	0.343040	-0.140671
H143	H	0.525951	0.420508	-0.182267
H144	H	0.829087	-0.260172	0.000082
H145	H	0.635171	-0.023335	0.000124
H146	H	0.825871	-0.430795	0.000078
H147	H	0.904681	-0.582511	0.000092
H148	H	1.284425	-0.490782	0.000147
