data_functionalizedCrystal
_audit_creation_method	'MofGen! by Chris Wilmer'
_symmetry_space_group_name_H-M	'P1'
_symmetry_Int_Tables_number	1
_symmetry_cell_setting	triclinic
loop_
_symmetry_equiv_pos_as_xyz
  x,y,z
_cell_length_a	10.723023
_cell_length_b	14.853567
_cell_length_c	9.198806
_cell_angle_alpha	90.000611
_cell_angle_beta	89.996513
_cell_angle_gamma	84.051239
loop_
_atom_site_label
_atom_site_type_symbol
_atom_site_fract_x
_atom_site_fract_y
_atom_site_fract_z
O1	O	1.655909	0.126442	-0.120864
O2	O	1.292634	0.138546	-0.120869
O3	O	1.483975	0.001315	-0.120871
O4	O	1.464568	0.263672	-0.120862
O5	O	1.483960	0.001315	0.120914
O6	O	1.292619	0.138546	0.120916
O7	O	1.655894	0.126442	0.120921
Cu8	Cu	1.474255	0.132494	0.142995
Cu9	Cu	1.474273	0.132494	-0.142943
O10	O	1.464553	0.263672	0.120923
C11	C	1.246136	0.137665	0.000023
C12	C	1.107608	0.135030	0.000020
C13	C	1.045840	0.133855	0.125271
C14	C	0.902665	0.131132	0.125271
C15	C	1.483089	-0.032278	0.000017
C16	C	1.480453	-0.132376	0.000005
C17	C	1.355653	-0.545568	0.000031
C18	C	1.582971	-0.565649	0.000034
C19	C	1.585449	-0.471603	0.000025
C20	C	1.473027	-0.414534	0.000022
C21	C	1.358128	-0.451512	0.000027
C22	C	1.700346	-0.434617	0.000035
C23	C	1.702828	-0.340565	0.000028
C24	C	1.590405	-0.283495	0.000014
C25	C	1.475501	-0.320478	0.000017
C26	C	1.363080	-0.263410	0.000014
C27	C	1.248174	-0.300392	0.000007
C28	C	1.245705	-0.394442	0.000013
C29	C	1.592875	-0.189444	0.000008
C30	C	1.365554	-0.169354	0.000010
C31	C	1.702392	0.127322	0.000026
C32	C	1.840920	0.129957	0.000019
C33	C	1.465440	0.297266	0.000031
C34	C	1.468075	0.397363	0.000034
N35	N	1.474252	0.132493	0.344109
N36	N	1.474287	0.132488	-0.344057
C37	C	1.554593	0.074619	0.416306
C38	C	1.554612	0.074616	0.583718
H39	H	0.894030	0.130973	-0.107218
H40	H	1.098956	0.134860	0.232502
N41	N	1.037260	0.133684	-0.142024
H42	H	0.973231	0.188445	-0.147819
H43	H	1.098233	0.134809	-0.225530
N44	N	1.244297	-0.107803	-0.000006
H45	H	1.171137	-0.145505	-0.000012
H46	H	1.240362	-0.068343	0.089627
H47	H	1.796391	-0.310463	0.000032
H48	H	0.849545	0.130126	0.232503
N49	N	1.383148	0.198118	0.426396
H50	H	1.431121	0.238205	0.489542
H51	H	1.329550	0.236678	0.355125
H52	H	1.791873	-0.481089	0.000051
H53	H	1.156641	-0.253914	0.000014
N54	N	1.121786	-0.434336	0.000023
H55	H	1.072524	-0.413573	0.089652
H56	H	1.072627	-0.413576	-0.089667
H57	H	1.623400	0.025072	0.645803
N58	N	1.231724	-0.585447	0.000016
H59	H	1.247208	-0.653688	0.000015
H60	H	1.182519	-0.564621	0.089648
H61	H	1.674499	-0.612120	0.000048
H62	H	1.686429	-0.159338	0.000024
N63	N	1.383166	0.198119	0.573713
H64	H	1.294505	0.187346	0.600144
H65	H	1.397980	0.262141	0.600153
H66	H	1.623358	0.025070	0.354179
