data_functionalizedCrystal
_audit_creation_method	'MofGen! by Chris Wilmer'
_symmetry_space_group_name_H-M	'P1'
_symmetry_Int_Tables_number	1
_symmetry_cell_setting	triclinic
loop_
_symmetry_equiv_pos_as_xyz
  x,y,z
_cell_length_a	10.723024
_cell_length_b	14.519709
_cell_length_c	9.798715
_cell_angle_alpha	90.004331
_cell_angle_beta	89.996846
_cell_angle_gamma	95.925993
loop_
_atom_site_label
_atom_site_type_symbol
_atom_site_fract_x
_atom_site_fract_y
_atom_site_fract_z
O1	O	-1.655977	0.129348	0.113485
O2	O	-1.292709	0.141729	0.113490
O3	O	-1.483975	0.001349	0.113475
O4	O	-1.464712	0.269728	0.113500
O5	O	-1.483961	0.001348	-0.113507
O6	O	-1.292696	0.141728	-0.113492
O7	O	-1.655964	0.129347	-0.113497
Zn8	Zn	-1.474328	0.135537	-0.149533
Zn9	Zn	-1.474345	0.135538	0.149526
O10	O	-1.464698	0.269726	-0.113482
C11	C	-1.483070	-0.033016	-0.000016
C12	C	-1.480380	-0.135411	-0.000017
C13	C	-1.246211	0.140827	-0.000000
C14	C	-1.107682	0.138132	0.000001
N15	N	-1.474325	0.135536	-0.353632
C16	C	-1.702462	0.130248	-0.000003
C17	C	-1.840991	0.132944	0.000004
C18	C	-1.031965	0.216681	0.000009
C19	C	-0.888788	0.213896	0.000011
C20	C	-1.470476	-0.510357	0.000019
C21	C	-1.473227	-0.406035	0.000009
C22	C	-1.475428	-0.322887	-0.000000
C23	C	-1.478179	-0.218559	-0.000008
C24	C	-1.465603	0.304091	0.000012
C25	C	-1.468293	0.406486	0.000022
C26	C	-1.554831	0.076466	-0.578570
C27	C	-1.554814	0.076467	-0.421408
N28	N	-1.474358	0.135533	0.353626
H29	H	-1.073139	0.285991	0.000008
H30	H	-0.823726	0.281141	0.000024
Cl31	Cl	-1.661234	-0.001610	-0.668570
H32	H	-1.405421	0.186104	-0.411932
Cl33	Cl	-1.661183	-0.001616	-0.331390
H34	H	-0.906045	0.065696	0.000006
H35	H	-1.066508	0.068822	0.000030
Cl36	Cl	-1.367969	0.213617	-0.556371
