data_functionalizedCrystal
_audit_creation_method	'MofGen! by Chris Wilmer'
_symmetry_space_group_name_H-M	'P1'
_symmetry_Int_Tables_number	1
_symmetry_cell_setting	triclinic
loop_
_symmetry_equiv_pos_as_xyz
  x,y,z
_cell_length_a	10.489746
_cell_length_b	9.065215
_cell_length_c	8.140239
_cell_angle_alpha	89.997429
_cell_angle_beta	90.000199
_cell_angle_gamma	84.777999
loop_
_atom_site_label
_atom_site_type_symbol
_atom_site_fract_x
_atom_site_fract_y
_atom_site_fract_z
O1	O	1.694797	0.208202	-0.136499
O2	O	2.194797	0.708202	0.363501
O3	O	1.323672	0.227734	-0.136526
O4	O	1.823672	0.727734	0.363474
O5	O	1.516908	0.003288	-0.136505
O6	O	2.016908	0.503288	0.363495
O7	O	1.501562	0.432647	-0.136520
O8	O	2.001562	0.932647	0.363480
O9	O	1.516897	0.003286	0.136722
O10	O	2.016897	0.503286	0.636722
O11	O	1.323662	0.227731	0.136701
O12	O	1.823662	0.727731	0.636701
O13	O	1.694786	0.208199	0.136728
O14	O	2.194786	0.708199	0.636728
Zn15	Zn	1.509222	0.217965	0.180095
Zn16	Zn	2.009222	0.717965	0.680095
Zn17	Zn	1.509236	0.217968	-0.179894
Zn18	Zn	2.009236	0.717968	0.320106
O19	O	1.501551	0.432645	0.136707
O20	O	2.001551	0.932645	0.636707
C21	C	1.515428	-0.051693	0.000106
C22	C	2.015428	0.448307	0.500106
C23	C	1.511021	-0.215515	0.000101
C24	C	2.011021	0.284485	0.500101
C25	C	1.276130	0.226256	0.000084
C26	C	1.776130	0.726256	0.500084
C27	C	1.134485	0.221837	0.000073
C28	C	1.634485	0.721837	0.500073
C29	C	0.981103	0.076414	0.000102
C30	C	1.481103	0.576414	0.500102
C31	C	1.058754	0.149118	0.134809
C32	C	1.558754	0.649118	0.634809
C33	C	1.058720	0.149155	-0.134571
C34	C	1.558720	0.649155	0.365429
C35	C	0.959758	0.286744	0.134933
C36	C	1.459758	0.786744	0.634933
C37	C	0.959719	0.286760	-0.134569
C38	C	1.459719	0.786760	0.365431
C39	C	1.037321	0.359566	0.000172
C40	C	1.537321	0.859566	0.500172
C41	C	1.742328	0.209677	0.000114
C42	C	2.242328	0.709677	0.500114
C43	C	1.883973	0.214096	0.000114
C44	C	2.383973	0.714096	0.500114
C45	C	1.503030	0.487626	0.000091
C46	C	2.003030	0.987626	0.500091
C47	C	1.507437	0.651448	0.000086
C48	C	2.007437	1.151448	0.500086
N49	N	1.509222	0.217962	0.425777
N50	N	2.009222	0.717962	0.925777
N51	N	1.509247	0.217960	-0.425576
N52	N	2.009247	0.717960	0.074424
H53	H	0.955951	-0.043306	0.000242
H54	H	1.455951	0.456694	0.500242
H55	H	1.102016	0.090995	0.248703
H56	H	1.602016	0.590995	0.748703
H57	H	1.101958	0.091008	-0.248459
H58	H	1.601958	0.591008	0.251541
H59	H	0.916683	0.344825	0.248950
H60	H	1.416683	0.844825	0.748950
Cl61	Cl	1.075777	0.544541	0.000268
Cl62	Cl	1.575777	1.044541	0.500268
Cl63	Cl	0.892880	0.376418	-0.310419
Cl64	Cl	1.392880	0.876418	0.189581
