data_functionalizedCrystal
_audit_creation_method	'MofGen! by Chris Wilmer'
_symmetry_space_group_name_H-M	'P1'
_symmetry_Int_Tables_number	1
_symmetry_cell_setting	triclinic
loop_
_symmetry_equiv_pos_as_xyz
  x,y,z
_cell_length_a	17.038272
_cell_length_b	14.044220
_cell_length_c	12.503572
_cell_angle_alpha	93.843168
_cell_angle_beta	86.232200
_cell_angle_gamma	92.150217
loop_
_atom_site_label
_atom_site_type_symbol
_atom_site_fract_x
_atom_site_fract_y
_atom_site_fract_z
O1	O	1.055991	0.201858	-0.089189
O2	O	1.555991	0.701858	0.410811
O3	O	0.828132	0.198570	-0.089221
O4	O	1.328132	0.698570	0.410779
O5	O	0.938641	0.061954	-0.089195
O6	O	1.438641	0.561954	0.410805
O7	O	0.945483	0.338474	-0.089215
O8	O	1.445483	0.838474	0.410785
O9	O	0.930332	0.072247	0.089445
O10	O	1.430332	0.572247	0.589445
O11	O	0.819823	0.208862	0.089419
O12	O	1.319823	0.708862	0.589419
O13	O	1.047682	0.212151	0.089451
O14	O	1.547682	0.712151	0.589451
Cu15	Cu	0.932993	0.211446	0.105746
Cu16	Cu	1.432993	0.711446	0.605746
Cu17	Cu	0.942821	0.199274	-0.105516
Cu18	Cu	1.442821	0.699274	0.394484
O19	O	0.937173	0.348766	0.089425
O20	O	1.437173	0.848766	0.589425
C21	C	0.794640	0.200726	0.000095
C22	C	1.294640	0.700726	0.500095
C23	C	0.707224	0.191806	0.000084
C24	C	1.207224	0.691806	0.500084
C25	C	0.931492	0.031545	0.000125
C26	C	1.431492	0.531545	0.500125
C27	C	0.922561	-0.074401	0.000125
C28	C	1.422561	0.425599	0.500125
N29	N	0.926087	0.220008	0.254337
N30	N	1.426087	0.720008	0.754337
C31	C	0.662839	0.273694	0.000078
C32	C	1.162839	0.773694	0.500078
C33	C	0.580701	0.265309	0.000094
C34	C	1.080701	0.765309	0.500094
C35	C	0.542950	0.175035	0.000107
C36	C	1.042950	0.675035	0.500107
C37	C	0.587341	0.093141	0.000115
C38	C	1.087341	0.593141	0.500115
C39	C	0.669477	0.101527	0.000107
C40	C	1.169477	0.601527	0.500107
C41	C	0.295118	0.145406	0.000138
C42	C	0.795118	0.645406	0.500138
C43	C	0.212976	0.137026	0.000142
C44	C	0.712976	0.637026	0.500142
C45	C	0.206341	0.309195	0.000123
C46	C	0.706341	0.809195	0.500123
C47	C	0.288479	0.317574	0.000109
C48	C	0.788479	0.817574	0.500109
C49	C	0.332863	0.235680	0.000123
C50	C	0.832863	0.735680	0.500123
C51	C	0.458992	0.166461	0.000119
C52	C	0.958992	0.666461	0.500119
C53	C	0.416819	0.244255	0.000118
C54	C	0.916819	0.744255	0.500118
C55	C	1.081174	0.209994	0.000132
C56	C	1.581174	0.709994	0.500132
C57	C	1.168591	0.218914	0.000137
C58	C	1.668591	0.718914	0.500137
C59	C	0.906233	-0.268380	0.000108
C60	C	1.406233	0.231620	0.500108
C61	C	0.969578	-0.320905	0.000113
C62	C	1.469578	0.179095	0.500113
C63	C	0.960493	-0.428842	0.000103
C64	C	1.460493	0.071158	0.500103
C65	C	0.915317	-0.160434	0.000117
C66	C	1.415317	0.339566	0.500117
C67	C	0.944322	0.379176	0.000102
C68	C	1.444322	0.879176	0.500102
C69	C	0.953254	0.485122	0.000095
C70	C	1.453254	0.985122	0.500095
N71	N	0.949733	0.190706	-0.254107
N72	N	1.449733	0.690706	0.245893
C73	C	0.915929	0.232609	0.473450
C74	C	1.415929	0.732609	0.973450
C75	C	0.959889	0.178107	0.526787
C76	C	1.459889	0.678107	1.026787
C77	C	0.954236	0.185119	0.648709
C78	C	1.454236	0.685119	1.148709
C79	C	0.921580	0.225599	0.351517
C80	C	1.421580	0.725599	0.851517
H81	H	0.693569	0.347206	0.000067
H82	H	1.193569	0.847206	0.500067
H83	H	0.544566	0.331991	0.000088
H84	H	1.044566	0.831991	0.500088
N85	N	0.825361	-0.316176	0.000101
N86	N	1.325361	0.183824	0.500101
H87	H	0.821851	-0.361050	-0.066121
H88	H	1.321851	0.138950	0.433879
H89	H	0.815749	-0.353375	0.066367
H90	H	1.315749	0.146625	0.566367
H91	H	0.874051	0.284533	0.519347
H92	H	1.374051	0.784533	1.019347
N93	N	1.015371	0.109334	0.465985
N94	N	1.515371	0.609334	0.965985
H95	H	1.071067	0.125847	0.485490
H96	H	1.571067	0.625847	0.985490
H97	H	1.000554	0.042094	0.485510
H98	H	1.500554	0.542094	0.985510
H99	H	0.319211	0.391084	0.000086
H100	H	0.819211	0.891084	0.500086
N101	N	1.050451	-0.273099	0.000151
N102	N	1.550451	0.226901	0.500151
H103	H	1.091461	-0.323193	0.000159
H104	H	1.591461	0.176807	0.500159
H105	H	1.060056	-0.235833	-0.066065
H106	H	1.560056	0.264167	0.433935
H107	H	0.170195	0.375868	0.000114
H108	H	0.670195	0.875868	0.500114
H109	H	0.182242	0.063510	0.000152
H110	H	0.682242	0.563510	0.500152
H111	H	0.331245	0.078722	0.000150
H112	H	0.831245	0.578722	0.500150
H113	H	0.705615	0.034845	0.000111
H114	H	1.205615	0.534845	0.500111
N115	N	0.546628	-0.004228	0.000146
N116	N	1.046628	0.495772	0.500146
H117	H	0.487860	0.002883	0.000150
H118	H	0.987860	0.502883	0.500150
H119	H	0.565506	-0.044176	-0.066072
H120	H	1.065506	0.455824	0.433928
H121	H	0.447559	0.317756	0.000113
H122	H	0.947559	0.817756	0.500113
H123	H	0.428245	0.092961	0.000160
H124	H	0.928245	0.592961	0.500160
