data_functionalizedCrystal
_audit_creation_method	'MofGen! by Chris Wilmer'
_symmetry_space_group_name_H-M	'P1'
_symmetry_Int_Tables_number	1
_symmetry_cell_setting	triclinic
loop_
_symmetry_equiv_pos_as_xyz
  x,y,z
_cell_length_a	21.295417
_cell_length_b	21.295420
_cell_length_c	17.077396
_cell_angle_alpha	89.980351
_cell_angle_beta	89.966808
_cell_angle_gamma	90.026289
loop_
_atom_site_label
_atom_site_type_symbol
_atom_site_fract_x
_atom_site_fract_y
_atom_site_fract_z
Zn1	Zn	-0.250680	0.962325	-0.443820
Zn2	Zn	-0.355953	0.962236	-0.312543
Zn3	Zn	-0.250694	0.857057	-0.312568
Zn4	Zn	-0.355908	0.857017	-0.443767
O5	O	-0.303309	0.909659	-0.378174
O6	O	-0.264658	1.050402	-0.426418
O7	O	-0.342015	0.948263	-0.202700
O8	O	-0.162603	0.871075	-0.330011
O9	O	-0.342002	1.050337	-0.329970
O10	O	-0.162593	0.948414	-0.426442
O11	O	-0.264682	0.870989	-0.202717
O12	O	-0.264638	0.768962	-0.329959
O13	O	-0.341924	0.871007	-0.553621
O14	O	-0.341938	0.768933	-0.426351
O15	O	-0.264614	0.948376	-0.553660
O16	O	-0.444036	0.948225	-0.329918
O17	O	-0.444003	0.870921	-0.426327
C18	C	-0.303285	0.746107	-0.378152
C19	C	-0.303289	0.676139	-0.378161
C20	C	-0.263131	0.176714	-0.428488
C21	C	-0.263126	0.242457	-0.428488
C22	C	-0.303328	0.275300	-0.378193
C23	C	-0.343549	0.242394	-0.327907
C24	C	-0.343557	0.176653	-0.327915
N25	N	-0.308075	0.378494	-0.309459
N26	N	-0.308063	0.440946	-0.309454
C27	C	-0.303307	0.473374	-0.378170
N28	N	-0.298550	0.440992	-0.446891
N29	N	-0.298558	0.378535	-0.446895
C30	C	-0.303324	0.346585	-0.378180
C31	C	-0.263087	0.577557	-0.428455
C32	C	-0.263087	0.643301	-0.428457
C33	C	-0.343506	0.643237	-0.327869
C34	C	-0.343509	0.577495	-0.327874
C35	C	-0.303297	0.544659	-0.378167
C36	C	-0.466860	0.909576	-0.378131
C37	C	-0.536828	0.909598	-0.378139
C38	C	-0.569692	0.949886	-0.327990
C39	C	-0.635434	0.949916	-0.328007
C40	C	-0.668311	0.909646	-0.378166
C41	C	-0.635440	0.869356	-0.428324
C42	C	-0.569699	0.869332	-0.428311
N43	N	-0.771573	0.854579	-0.384142
N44	N	-0.834024	0.854603	-0.384151
C45	C	-0.866386	0.909717	-0.378211
N46	N	-0.833937	0.964806	-0.372247
N47	N	-0.771479	0.964781	-0.372234
C48	C	-0.739596	0.909668	-0.378186
C49	C	-0.970534	0.950040	-0.328078
C50	C	-1.036278	0.950071	-0.328101
C51	C	-1.036282	0.869505	-0.428414
C52	C	-0.970540	0.869480	-0.428395
C53	C	-0.937670	0.909747	-0.378223
C54	C	-0.139118	0.909759	-0.378235
C55	C	-0.069150	0.909801	-0.378261
C56	C	-0.303333	1.073849	-0.378197
C57	C	-0.303344	1.143817	-0.378207
C58	C	-0.303262	0.909697	-0.582919
C59	C	-0.303243	0.909713	-0.670169
C60	C	-0.262984	0.950000	-0.711181
C61	C	-0.262963	0.950008	-0.793161
C62	C	-0.303204	0.909731	-0.834128
C63	C	-0.343465	0.869439	-0.793110
C64	C	-0.343482	0.869429	-0.711131
C65	C	-0.343427	0.869464	-0.963981
C66	C	-0.343411	0.869475	-1.045965
C67	C	-0.262908	0.950044	-1.046010
C68	C	-0.262925	0.950033	-0.964031
C69	C	-0.303187	0.909742	-0.923019
C70	C	-0.303309	0.909657	-0.174227
C71	C	-0.303152	0.909763	-0.086977
H72	H	-0.230343	0.550820	-0.469406
C73	C	-0.218884	0.278651	-0.483800
N74	N	-0.185559	0.305911	-0.525460
H75	H	-0.376304	0.149869	-0.286968
C76	C	-0.387730	0.679360	-0.272544
N77	N	-0.421042	0.706572	-0.230873
H78	H	-0.376202	0.836645	-0.930591
H79	H	-1.063050	0.836719	-0.469257
H80	H	-0.230124	0.982849	-1.079406
H81	H	-0.376177	0.836677	-1.079319
C82	C	-0.934389	0.825172	-0.483579
N83	N	-0.907161	0.791805	-0.525156
H84	H	-0.662196	0.982725	-0.287170
C85	C	-0.387768	0.278523	-0.272579
N86	N	-0.421076	0.305735	-0.230904
C87	C	-0.218845	0.679488	-0.483772
N88	N	-0.185520	0.706744	-0.525435
C89	C	-0.387771	0.825111	-0.666019
N90	N	-0.421130	0.791727	-0.632041
H91	H	-0.376253	0.550709	-0.286926
C92	C	-0.671606	0.825057	-0.483496
N93	N	-0.698846	0.791690	-0.525053
C94	C	-0.218714	0.994309	-0.666124
N95	N	-0.185366	1.027681	-0.632190
H96	H	-0.542931	0.982675	-0.287139
C97	C	-0.218901	0.140598	-0.483818
N98	N	-0.185588	0.113395	-0.525496
C99	C	-0.533548	0.825018	-0.483491
N100	N	-0.506318	0.791642	-0.525056
C101	C	-0.387725	0.825128	-0.838177
N102	N	-0.421062	0.791751	-0.872121
H103	H	-0.230182	0.982816	-0.826549
H104	H	-0.943770	0.982830	-0.287227
C105	C	-1.072427	0.994392	-0.272930
N106	N	-1.099655	1.027775	-0.231372
H107	H	-0.230160	0.982834	-0.930678
