data_functionalizedCrystal
_audit_creation_method	'MofGen! by Chris Wilmer'
_symmetry_space_group_name_H-M	'P1'
_symmetry_Int_Tables_number	1
_symmetry_cell_setting	triclinic
loop_
_symmetry_equiv_pos_as_xyz
  x,y,z
_cell_length_a	19.288867
_cell_length_b	16.109304
_cell_length_c	15.186229
_cell_angle_alpha	90.009166
_cell_angle_beta	90.006446
_cell_angle_gamma	83.299853
loop_
_atom_site_label
_atom_site_type_symbol
_atom_site_fract_x
_atom_site_fract_y
_atom_site_fract_z
O1	O	0.921598	0.103731	0.073192
O2	O	0.719372	0.117720	0.073200
O3	O	0.826039	-0.010324	0.073197
O4	O	0.814931	0.231775	0.073196
O5	O	0.826025	-0.010345	-0.073261
O6	O	0.719357	0.117700	-0.073257
O7	O	0.921584	0.103710	-0.073265
Zn8	Zn	0.820468	0.110702	-0.096514
Zn9	Zn	0.820487	0.110729	0.096450
O10	O	0.814916	0.231755	-0.073261
C11	C	0.693487	0.117259	-0.000027
C12	C	0.616380	0.115907	-0.000024
C13	C	0.060799	0.106180	0.079800
C14	C	0.133250	0.107445	0.079803
C15	C	0.169472	0.108071	-0.000031
C16	C	0.133240	0.107409	-0.079874
C17	C	0.060792	0.106135	-0.079875
C18	C	0.278915	0.158775	-0.061194
C19	C	0.351361	0.160054	-0.061190
C20	C	0.392927	0.111996	-0.000031
C21	C	0.362037	0.062669	0.061138
C22	C	0.289588	0.061395	0.061137
C23	C	0.248030	0.109451	-0.000039
C24	C	0.507710	0.114023	0.079810
C25	C	0.580163	0.115283	0.079810
C26	C	0.580151	0.115256	-0.079869
C27	C	0.507700	0.113987	-0.079866
C28	C	0.471484	0.113375	-0.000024
C29	C	0.825582	-0.041308	-0.000030
C30	C	0.824232	-0.133598	-0.000024
C31	C	0.821120	-0.345914	0.079807
C32	C	0.819845	-0.432630	0.079806
C33	C	0.819833	-0.432649	-0.079870
C34	C	0.821103	-0.345934	-0.079868
C35	C	0.821750	-0.302569	-0.000027
C36	C	0.819205	-0.476000	-0.000030
C37	C	0.817823	-0.570021	-0.000031
C38	C	0.823131	-0.208542	-0.000025
C39	C	0.947469	0.104171	-0.000035
C40	C	1.024575	0.105523	-0.000033
C41	C	0.815374	0.262738	-0.000033
C42	C	0.816724	0.355029	-0.000033
N43	N	0.820460	0.110683	-0.228207
C44	C	0.778370	0.060423	-0.546157
C45	C	0.778364	0.060411	-0.453968
C46	C	0.862596	0.161002	-0.453914
C47	C	0.862605	0.161009	-0.546102
C48	C	0.820488	0.110721	-0.592221
C49	C	0.820473	0.110702	-0.407844
C50	C	0.820467	0.110690	-0.307887
C51	C	0.820495	0.110733	-0.692184
N52	N	0.820501	0.110741	0.228142
H53	H	0.162749	0.107985	0.144814
H54	H	0.264440	0.021231	0.110941
Br55	Br	0.821997	-0.287064	0.188161
H56	H	0.744068	0.019453	-0.416466
Br57	Br	0.222512	0.223989	-0.144214
H58	H	0.821612	-0.310642	-0.144883
H59	H	0.031317	0.105678	0.144813
H60	H	0.819331	-0.467917	0.144815
Br61	Br	0.919775	0.229270	-0.608623
Br62	Br	0.458556	0.113188	0.188164
Br63	Br	0.818953	-0.491506	-0.188220
H64	H	0.744076	0.019475	-0.583705
H65	H	0.896885	0.201946	-0.416352
H66	H	0.609656	0.115812	0.144822
Br67	Br	0.629303	0.116086	-0.188217
Br68	Br	0.418437	-0.002551	0.144151
H69	H	0.478206	0.113455	-0.144874
H70	H	0.162737	0.107917	-0.144875
Br71	Br	0.393276	0.227005	-0.144194
H72	H	0.031298	0.105604	-0.144886
