data_functionalizedCrystal
_audit_creation_method	'MofGen! by Chris Wilmer'
_symmetry_space_group_name_H-M	'P1'
_symmetry_Int_Tables_number	1
_symmetry_cell_setting	triclinic
loop_
_symmetry_equiv_pos_as_xyz
  x,y,z
_cell_length_a	10.654550
_cell_length_b	11.792241
_cell_length_c	9.130313
_cell_angle_alpha	89.995332
_cell_angle_beta	89.999724
_cell_angle_gamma	84.339173
loop_
_atom_site_label
_atom_site_type_symbol
_atom_site_fract_x
_atom_site_fract_y
_atom_site_fract_z
O1	O	1.667388	0.159420	-0.121691
O2	O	2.167388	0.659420	0.378309
O3	O	1.301867	0.174608	-0.121718
O4	O	1.801867	0.674608	0.378282
O5	O	1.493498	0.001864	-0.121693
O6	O	1.993498	0.501864	0.378307
O7	O	1.475758	0.332164	-0.121715
O8	O	1.975758	0.832164	0.378285
O9	O	1.493485	0.001859	0.121906
O10	O	1.993485	0.501859	0.621906
O11	O	1.301854	0.174603	0.121881
O12	O	1.801854	0.674603	0.621881
O13	O	1.667375	0.159415	0.121908
O14	O	2.167375	0.659415	0.621908
Cu15	Cu	1.484613	0.167009	0.144137
Cu16	Cu	1.984613	0.667009	0.644137
Cu17	Cu	1.484629	0.167015	-0.143947
Cu18	Cu	1.984629	0.667015	0.356053
O19	O	1.475744	0.332159	0.121884
O20	O	1.975744	0.832159	0.621884
C21	C	1.255066	0.173491	0.000078
C22	C	1.755066	0.673491	0.500078
C23	C	1.115632	0.170154	0.000068
C24	C	1.615632	0.670154	0.500068
C25	C	1.035859	0.271863	0.000066
C26	C	1.535859	0.771863	0.500066
C27	C	0.904847	0.268721	0.000092
C28	C	1.404847	0.768721	0.500092
C29	C	0.933394	0.062152	0.000116
C30	C	1.433394	0.562152	0.500116
C31	C	1.064403	0.065295	0.000101
C32	C	1.564403	0.565295	0.500101
C33	C	1.492377	-0.040432	0.000106
C34	C	1.992377	0.459568	0.500106
C35	C	1.489042	-0.166453	0.000104
C36	C	1.989042	0.333547	0.500104
C37	C	1.482908	-0.397180	0.000079
C38	C	1.982908	0.102820	0.500079
C39	C	1.486316	-0.268787	0.000093
C40	C	1.986316	0.231213	0.500093
C41	C	1.714177	0.160533	0.000109
C42	C	2.214177	0.660533	0.500109
C43	C	1.853611	0.163869	0.000109
C44	C	2.353611	0.663869	0.500109
C45	C	1.476865	0.374455	0.000082
C46	C	1.976865	0.874455	0.500082
C47	C	1.480201	0.500477	0.000074
C48	C	1.980201	1.000477	0.500074
N49	N	1.484612	0.167004	0.346760
N50	N	1.984612	0.667004	0.846760
N51	N	1.484641	0.167011	-0.346569
N52	N	1.984641	0.667011	0.153431
C53	C	1.569495	0.090545	0.423422
C54	C	2.069495	0.590545	0.923422
C55	C	1.569507	0.090545	0.576759
C56	C	2.069507	0.590545	1.076759
C57	C	1.399749	0.243473	0.576757
C58	C	1.899749	0.743473	1.076757
C59	C	1.399732	0.243466	0.423423
C60	C	1.899732	0.743466	0.923423
H61	H	0.839900	0.351543	0.000092
H62	H	1.339900	0.851543	0.500092
H63	H	1.077564	0.357246	0.000050
H64	H	1.577564	0.857246	0.500050
H65	H	1.129359	-0.017534	0.000107
H66	H	1.629359	0.482466	0.500107
H67	H	0.891668	-0.023220	0.000152
H68	H	1.391668	0.476780	0.500152
O69	O	1.651982	0.016156	0.349177
O70	O	2.151982	0.516156	0.849177
C71	C	1.726923	-0.051309	0.449731
C72	C	2.226923	0.448691	0.949731
H73	H	1.675437	-0.053017	0.559040
H74	H	2.175437	0.446983	1.059040
H75	H	1.745465	-0.141797	0.405444
H76	H	2.245465	0.358203	0.905444
H77	H	1.820465	-0.013670	0.466017
H78	H	2.320465	0.486330	0.966017
H79	H	1.330643	0.305729	0.639192
H80	H	1.830643	0.805729	1.139192
H81	H	1.330604	0.305728	0.361000
H82	H	1.830604	0.805728	0.861000
O83	O	1.652018	0.016431	0.651390
O84	O	2.152018	0.516431	1.151390
C85	C	1.729929	0.077874	0.740039
C86	C	2.229929	0.577874	1.240039
H87	H	1.680508	0.166271	0.763006
H88	H	2.180508	0.666271	1.263006
H89	H	1.749490	0.030666	0.847866
H90	H	2.249490	0.530666	1.347866
H91	H	1.822788	0.086371	0.680930
H92	H	2.322788	0.586371	1.180930
