data_functionalizedCrystal
_audit_creation_method	'MofGen! by Chris Wilmer'
_symmetry_space_group_name_H-M	'P1'
_symmetry_Int_Tables_number	1
_symmetry_cell_setting	triclinic
loop_
_symmetry_equiv_pos_as_xyz
  x,y,z
_cell_length_a	21.395364
_cell_length_b	18.050590
_cell_length_c	21.395356
_cell_angle_alpha	90.027706
_cell_angle_beta	90.016491
_cell_angle_gamma	90.033504
loop_
_atom_site_label
_atom_site_type_symbol
_atom_site_fract_x
_atom_site_fract_y
_atom_site_fract_z
Zn1	Zn	0.957862	-0.295378	0.354264
Zn2	Zn	1.291196	0.037955	0.687597
Zn3	Zn	1.624529	0.371288	1.020930
Zn4	Zn	0.957802	-0.419571	0.249487
Zn5	Zn	1.291135	-0.086238	0.582820
Zn6	Zn	1.624468	0.247096	0.916154
Zn7	Zn	0.853092	-0.295432	0.249500
Zn8	Zn	1.186425	0.037902	0.582834
Zn9	Zn	1.519759	0.371235	0.916167
Zn10	Zn	0.853069	-0.419563	0.354227
Zn11	Zn	1.186402	-0.086230	0.687560
Zn12	Zn	1.519735	0.247103	1.020894
O13	O	0.905456	-0.357486	0.301870
O14	O	1.238790	-0.024153	0.635203
O15	O	1.572123	0.309180	0.968536
O16	O	1.045532	-0.311834	0.340374
O17	O	1.378865	0.021500	0.673708
O18	O	1.712199	0.354833	1.007041
O19	O	0.943896	-0.403129	0.161811
O20	O	1.277230	-0.069796	0.495144
O21	O	1.610563	0.263537	0.828478
O22	O	0.867025	-0.191500	0.263418
O23	O	1.200358	0.141833	0.596752
O24	O	1.533692	0.475167	0.930085
O25	O	1.045488	-0.403077	0.263396
O26	O	1.378821	-0.069744	0.596729
O27	O	1.712154	0.263589	0.930062
O28	O	0.943999	-0.191461	0.340387
O29	O	1.277333	0.141873	0.673721
O30	O	1.610666	0.475206	1.007054
O31	O	0.866966	-0.311925	0.161821
O32	O	1.200300	0.021409	0.495154
O33	O	1.533633	0.354742	0.828487
O34	O	0.765411	-0.311917	0.263383
O35	O	1.098744	0.021416	0.596716
O36	O	1.432078	0.354749	0.930050
O37	O	0.866985	-0.403064	0.441910
O38	O	1.200319	-0.069731	0.775243
O39	O	1.533652	0.263602	1.108577
O40	O	0.765394	-0.403116	0.340325
O41	O	1.098727	-0.069783	0.673659
O42	O	1.432061	0.263550	1.006992
O43	O	0.943977	-0.311826	0.441937
O44	O	1.277310	0.021507	0.775270
O45	O	1.610643	0.354841	1.108603
O46	O	0.943874	-0.523495	0.263360
O47	O	1.277207	-0.190161	0.596694
O48	O	1.610540	0.143172	0.930027
O49	O	0.866927	-0.523489	0.340312
O50	O	1.200260	-0.190156	0.673646
O51	O	1.533593	0.143178	1.006979
C52	C	0.742669	-0.357522	0.301852
C53	C	1.076002	-0.024189	0.635185
C54	C	1.409335	0.309144	0.968519
C55	C	0.673027	-0.357556	0.301859
C56	C	1.006361	-0.024222	0.635193
C57	C	1.339694	0.309111	0.968526
C58	C	0.640360	-0.310123	0.342004
C59	C	0.973693	0.023211	0.675337
C60	C	1.307026	0.356544	1.008671
C61	C	0.574924	-0.310103	0.342007
C62	C	0.908258	0.023230	0.675340
C63	C	1.241591	0.356564	1.008673
C64	C	0.542159	-0.357529	0.301871
C65	C	0.875492	-0.024196	0.635204
C66	C	1.208826	0.309137	0.968537
C67	C	0.574834	-0.404966	0.261718
C68	C	0.908168	-0.071632	0.595051
C69	C	1.241501	0.261701	0.928385
C70	C	0.640269	-0.404979	0.261712
C71	C	0.973602	-0.071645	0.595046
C72	C	1.306935	0.261688	0.928379
C73	C	0.438447	-0.424411	0.296834
C74	C	0.771781	-0.091077	0.630167
C75	C	1.105114	0.242256	0.963500
C76	C	0.373014	-0.424399	0.296844
C77	C	0.706348	-0.091065	0.630177
C78	C	1.039681	0.242268	0.963510
C79	C	0.340338	-0.357489	0.301885
C80	C	0.673672	-0.024155	0.635218
C81	C	1.007005	0.309178	0.968551
C82	C	0.373103	-0.290588	0.306929
C83	C	0.706436	0.042745	0.640262
C84	C	1.039770	0.376078	0.973595
C85	C	0.438537	-0.290601	0.306923
C86	C	0.771871	0.042732	0.640256
C87	C	1.105204	0.376065	0.973590
C88	C	0.471207	-0.357520	0.301872
C89	C	0.804540	-0.024187	0.635205
C90	C	1.137873	0.309147	0.968539
C91	C	0.236718	-0.310030	0.342034
C92	C	0.570051	0.023303	0.675368
C93	C	0.903385	0.356637	1.008701
C94	C	0.171282	-0.310009	0.342032
C95	C	0.504615	0.023324	0.675366
C96	C	0.837948	0.356658	1.008699
C97	C	0.171193	-0.404878	0.261747
C98	C	0.504526	-0.071545	0.595080
C99	C	0.837860	0.261788	0.928414
C100	C	0.236628	-0.404893	0.261746
C101	C	0.569962	-0.071560	0.595079
C102	C	0.903295	0.261774	0.928412
C103	C	0.269387	-0.357470	0.301893
C104	C	0.602720	-0.024136	0.635226
C105	C	0.936054	0.309197	0.968559
C106	C	0.905408	-0.550438	0.301845
C107	C	1.238741	-0.217105	0.635178
C108	C	1.572075	0.116228	0.968511
C109	C	0.905445	-0.632984	0.301855
C110	C	1.238778	-0.299651	0.635188
C111	C	1.572111	0.033683	0.968521
C112	C	0.947376	-0.832411	0.260067
C113	C	1.280709	-0.499077	0.593400
C114	C	1.614042	-0.165744	0.926733
C115	C	0.962677	-0.881739	0.317251
C116	C	1.296011	-0.548406	0.650584
C117	C	1.629344	-0.215073	0.983917
C118	C	0.905480	-0.784114	0.301880
C119	C	1.238814	-0.450781	0.635213
C120	C	1.572147	-0.117448	0.968546
C121	C	0.890242	-0.881867	0.244722
C122	C	1.223575	-0.548534	0.578055
C123	C	1.556909	-0.215201	0.911388
C124	C	0.905516	-0.930099	0.301899
C125	C	1.238849	-0.596766	0.635232
C126	C	1.572182	-0.263433	0.968566
C127	C	0.920812	-0.832356	0.359094
C128	C	1.254145	-0.499022	0.692427
C129	C	1.587478	-0.165689	1.025760
C130	C	0.848350	-0.832479	0.286526
C131	C	1.181683	-0.499146	0.619860
C132	C	1.515016	-0.165813	0.953193
C133	C	0.863630	-0.881786	0.343750
C134	C	1.196963	-0.548452	0.677083
C135	C	1.530297	-0.215119	1.010416
C136	C	0.905461	-0.700016	0.301868
C137	C	1.238795	-0.366683	0.635201
C138	C	1.572128	-0.033349	0.968535
C139	C	0.905535	-1.014196	0.301917
C140	C	1.238868	-0.680863	0.635251
C141	C	1.572201	-0.347529	0.968584
C142	C	1.068879	-0.357450	0.301888
C143	C	1.402213	-0.024117	0.635221
C144	C	1.735546	0.309216	0.968554
C145	C	1.138521	-0.357435	0.301895
C146	C	1.471854	-0.024102	0.635229
C147	C	1.805187	0.309231	0.968562
C148	C	0.905485	-0.357438	0.465293
C149	C	1.238819	-0.024105	0.798626
C150	C	1.572152	0.309228	1.131960
C151	C	0.905498	-0.357418	0.534934
C152	C	1.238831	-0.024085	0.868267
C153	C	1.572164	0.309249	1.201601
C154	C	0.905522	-0.163781	0.301908
C155	C	1.238855	0.169553	0.635242
C156	C	1.572188	0.502886	0.968575
C157	C	0.905549	-0.081235	0.301925
C158	C	1.238883	0.252099	0.635258
C159	C	1.572216	0.585432	0.968591
C160	C	0.905463	-0.357480	0.139082
C161	C	1.238797	-0.024147	0.472415
C162	C	1.572130	0.309187	0.805749
C163	C	0.905572	-0.357291	0.069441
C164	C	1.238906	-0.023958	0.402774
C165	C	1.572239	0.309375	0.736108
C166	C	0.945646	-0.309792	1.036745
C167	C	1.278979	0.023541	1.370079
C168	C	1.612313	0.356875	1.703412
C169	C	0.945641	-0.309810	0.971310
C170	C	1.278974	0.023523	1.304643
C171	C	1.612308	0.356857	1.637977
C172	C	0.905551	-0.357319	0.938573
C173	C	1.238885	-0.023986	1.271906
C174	C	1.572218	0.309347	1.605239
C175	C	0.865475	-0.404828	0.971276
C176	C	1.198808	-0.071494	1.304609
C177	C	1.532142	0.261839	1.637943
C178	C	0.865485	-0.404814	1.036710
C179	C	1.198819	-0.071480	1.370044
C180	C	1.532152	0.261853	1.703377
C181	C	0.849083	-0.363218	0.834897
C182	C	1.182417	-0.029885	1.168230
C183	C	1.515750	0.303449	1.501563
C184	C	0.849072	-0.363227	0.769464
C185	C	1.182405	-0.029893	1.102797
C186	C	1.515738	0.303440	1.436130
C187	C	0.905519	-0.357367	0.736752
C188	C	1.238853	-0.024033	1.070085
C189	C	1.572186	0.309300	1.403418
C190	C	0.961980	-0.351482	0.769481
C191	C	1.295313	-0.018149	1.102814
C192	C	1.628647	0.315184	1.436148
C193	C	0.961990	-0.351468	0.834915
C194	C	1.295324	-0.018135	1.168248
C195	C	1.628657	0.315198	1.501582
C196	C	0.905536	-0.357340	0.867620
C197	C	1.238869	-0.024007	1.200954
C198	C	1.572202	0.309327	1.534287
C199	C	0.945591	-0.309884	0.633104
C200	C	1.278924	0.023449	0.966437
C201	C	1.612257	0.356782	1.299770
C202	C	0.945587	-0.309907	0.567667
C203	C	1.278920	0.023426	0.901000
C204	C	1.612254	0.356759	1.234334
C205	C	0.865415	-0.404921	0.567634
C206	C	1.198749	-0.071588	0.900968
C207	C	1.532082	0.261745	1.234301
C208	C	0.865425	-0.404902	0.633070
C209	C	1.198758	-0.071569	0.966403
C210	C	1.532091	0.261765	1.299736
C211	C	0.905512	-0.357380	0.665800
C212	C	1.238845	-0.024046	0.999134
C213	C	1.572178	0.309287	1.332467
H214	H	0.667028	-0.271506	0.374694
H215	H	1.000361	0.061827	0.708028
H216	H	1.333694	0.395160	1.041361
H217	H	1.007945	-0.346708	0.742848
H218	H	1.341278	-0.013374	1.076182
H219	H	1.674611	0.319959	1.409515
Cl220	Cl	0.331831	-0.508502	0.290513
Cl221	Cl	0.665164	-0.175168	0.623846
Cl222	Cl	0.998498	0.158165	0.957180
H223	H	0.465047	-0.478901	0.292728
H224	H	0.798380	-0.145567	0.626061
H225	H	1.131713	0.187766	0.959395
H226	H	0.548153	-0.443580	0.229039
H227	H	0.881486	-0.110247	0.562372
H228	H	1.214819	0.223087	0.895705
Cl229	Cl	0.681339	-0.464612	0.211239
Cl230	Cl	1.014672	-0.131279	0.544572
Cl231	Cl	1.348005	0.202055	0.877905
Cl232	Cl	0.773751	-0.799046	0.266434
Cl233	Cl	1.107084	-0.465713	0.599767
Cl234	Cl	1.440418	-0.132379	0.933100
H235	H	0.982817	-0.810731	0.224743
H236	H	1.316150	-0.477397	0.558076
H237	H	1.649483	-0.144064	0.891410
Cl238	Cl	0.808953	-0.915051	0.398416
Cl239	Cl	1.142286	-0.581718	0.731749
Cl240	Cl	1.475620	-0.248384	1.065082
Cl241	Cl	0.995974	-0.250131	0.674254
Cl242	Cl	1.329307	0.083203	1.007587
Cl243	Cl	1.662640	0.416536	1.340920
Cl244	Cl	1.037296	-0.915134	0.337331
Cl245	Cl	1.370629	-0.581801	0.670664
Cl246	Cl	1.703963	-0.248467	1.003997
H247	H	0.263392	-0.271411	0.374720
H248	H	0.596725	0.061923	0.708054
H249	H	0.930058	0.395256	1.041387
H250	H	0.144516	-0.443494	0.229067
H251	H	0.477849	-0.110161	0.562401
H252	H	0.811183	0.223173	0.895734
Cl253	Cl	0.815078	-0.464556	0.930122
Cl254	Cl	1.148412	-0.131223	1.263455
Cl255	Cl	1.481745	0.202111	1.596788
H256	H	0.933667	-0.810700	0.407481
H257	H	1.267000	-0.477367	0.740815
H258	H	1.600333	-0.144034	1.074148
H259	H	0.263227	-0.443521	0.229058
H260	H	0.596560	-0.110188	0.562391
H261	H	0.929893	0.223146	0.895725
Cl262	Cl	0.130213	-0.250370	0.392502
Cl263	Cl	0.463546	0.082963	0.725836
Cl264	Cl	0.796880	0.416297	1.059169
Cl265	Cl	0.533848	-0.250468	0.392478
Cl266	Cl	0.867181	0.082866	0.725811
Cl267	Cl	1.200514	0.416199	1.059144
Cl268	Cl	0.479725	-0.206502	0.313260
Cl269	Cl	0.813059	0.126831	0.646593
Cl270	Cl	1.146392	0.460164	0.979927
Cl271	Cl	0.870320	-0.915445	0.170081
Cl272	Cl	1.203653	-0.582111	0.503414
Cl273	Cl	1.536987	-0.248778	0.836747
H274	H	0.346500	-0.236103	0.311034
H275	H	0.679833	0.097230	0.644367
H276	H	1.013166	0.430563	0.977700
Cl277	Cl	0.995974	-0.250193	0.526563
Cl278	Cl	1.329307	0.083140	0.859897
Cl279	Cl	1.662641	0.416474	1.193230
H280	H	0.978291	-0.271099	1.063391
H281	H	1.311624	0.062234	1.396724
H282	H	1.644957	0.395568	1.730057
H283	H	0.978273	-0.271128	0.944684
H284	H	1.311607	0.062206	1.278017
H285	H	1.644940	0.395539	1.611351
H286	H	1.007963	-0.346679	0.861561
H287	H	1.341296	-0.013345	1.194894
H288	H	1.674629	0.319988	1.528227
Cl289	Cl	0.815023	-0.464656	0.526485
Cl290	Cl	1.148356	-0.131323	0.859818
Cl291	Cl	1.481690	0.202011	1.193152
Cl292	Cl	0.815042	-0.464617	0.674175
Cl293	Cl	1.148375	-0.131284	1.007508
Cl294	Cl	1.481709	0.202049	1.340842
Cl295	Cl	0.778093	-0.370617	0.728325
Cl296	Cl	1.111426	-0.037283	1.061659
Cl297	Cl	1.444760	0.296050	1.394992
H298	H	0.832852	-0.443494	1.063331
H299	H	1.166185	-0.110161	1.396664
H300	H	1.499518	0.223172	1.729997
Cl301	Cl	0.778113	-0.370575	0.876013
Cl302	Cl	1.111446	-0.037242	1.209347
Cl303	Cl	1.444780	0.296092	1.542680
