data_functionalizedCrystal
_audit_creation_method	'MofGen! by Chris Wilmer'
_symmetry_space_group_name_H-M	'P1'
_symmetry_Int_Tables_number	1
_symmetry_cell_setting	triclinic
loop_
_symmetry_equiv_pos_as_xyz
  x,y,z
_cell_length_a	17.077404
_cell_length_b	18.215404
_cell_length_c	17.077396
_cell_angle_alpha	90.029389
_cell_angle_beta	89.983895
_cell_angle_gamma	89.978207
loop_
_atom_site_label
_atom_site_type_symbol
_atom_site_fract_x
_atom_site_fract_y
_atom_site_fract_z
Zn1	Zn	1.200032	0.293018	-0.443818
Zn2	Zn	1.700032	0.793018	0.056182
Zn3	Zn	1.199942	0.416093	-0.312552
Zn4	Zn	1.699942	0.916093	0.187448
Zn5	Zn	1.068769	0.293041	-0.312569
Zn6	Zn	1.568769	0.793041	0.187431
Zn7	Zn	1.068730	0.416043	-0.443778
Zn8	Zn	1.568730	0.916043	0.056222
O9	O	1.134368	0.354549	-0.378180
O10	O	1.634368	0.854549	0.121820
O11	O	1.309867	0.309356	-0.426415
O12	O	1.809867	0.809356	0.073585
O13	O	1.182521	0.399801	-0.202708
O14	O	1.682521	0.899801	0.297292
O15	O	1.086235	0.190054	-0.330003
O16	O	1.586235	0.690054	0.169997
O17	O	1.309801	0.399779	-0.329975
O18	O	1.809801	0.899779	0.170025
O19	O	1.182674	0.190037	-0.426432
O20	O	1.682674	0.690037	0.073568
O21	O	1.086148	0.309395	-0.202720
O22	O	1.586148	0.809395	0.297280
O23	O	0.958917	0.309346	-0.329964
O24	O	1.458917	0.809346	0.170036
O25	O	1.086168	0.399693	-0.553631
O26	O	1.586168	0.899693	-0.053631
O27	O	0.958888	0.399715	-0.426364
O28	O	1.458888	0.899715	0.073636
O29	O	1.182636	0.309307	-0.553660
O30	O	1.682636	0.809307	-0.053660
O31	O	1.182482	0.519071	-0.329936
O32	O	1.682482	1.019071	0.170064
O33	O	1.086081	0.519034	-0.426347
O34	O	1.586081	1.019034	0.073653
C35	C	0.930420	0.354528	-0.378162
C36	C	1.430420	0.854528	0.121838
C37	C	0.843171	0.354537	-0.378173
C38	C	1.343171	0.854537	0.121827
C39	C	0.802216	0.307537	-0.428466
C40	C	1.302216	0.807537	0.071534
C41	C	0.720235	0.307542	-0.428470
C42	C	1.220235	0.807542	0.071530
C43	C	0.679211	0.354551	-0.378184
C44	C	1.179211	0.854551	0.121816
C45	C	0.720172	0.401552	-0.327885
C46	C	1.220172	0.901552	0.172115
C47	C	0.802151	0.401543	-0.327878
C48	C	1.302151	0.901543	0.172122
C49	C	0.549302	0.401569	-0.327904
C50	C	1.049302	0.901569	0.172096
C51	C	0.467317	0.401579	-0.327912
C52	C	0.967317	0.901579	0.172088
C53	C	0.467386	0.307568	-0.428496
C54	C	0.967386	0.807568	0.071504
C55	C	0.549365	0.307559	-0.428489
C56	C	1.049365	0.807559	0.071511
C57	C	0.590320	0.354561	-0.378191
C58	C	1.090320	0.854561	0.121809
C59	C	1.134289	0.545755	-0.378153
C60	C	1.634289	1.045755	0.121847
C61	C	1.134327	0.627554	-0.378167
C62	C	1.634327	1.127554	0.121833
C63	C	1.184645	0.815743	-0.328069
C64	C	1.684645	1.315743	0.171931
C65	C	1.184681	0.892601	-0.328092
C66	C	1.684681	1.392601	0.171908
C67	C	1.084212	0.892603	-0.428403
C68	C	1.584212	1.392603	0.071597
C69	C	1.084180	0.815746	-0.428383
C70	C	1.584180	1.315746	0.071617
C71	C	1.134395	0.777317	-0.378212
C72	C	1.634395	1.277317	0.121788
C73	C	1.134464	0.931034	-0.378255
C74	C	1.634464	1.431034	0.121745
C75	C	1.134503	1.014367	-0.378281
C76	C	1.634503	1.514367	0.121719
C77	C	1.134357	0.693979	-0.378187
C78	C	1.634357	1.193979	0.121813
C79	C	1.339112	0.354570	-0.378198
C80	C	1.839112	0.854570	0.121802
C81	C	1.426362	0.354579	-0.378205
C82	C	1.926362	0.854579	0.121795
C83	C	1.134474	1.162596	-0.378238
C84	C	1.634474	1.662596	0.121762
C85	C	1.134532	1.080797	-0.378299
C86	C	1.634532	1.580797	0.121701
C87	C	1.134408	0.354492	-0.582924
C88	C	1.634408	0.854492	-0.082924
C89	C	1.134424	0.354468	-0.670174
C90	C	1.634424	0.854468	-0.170174
C91	C	1.084259	0.307387	-0.711170
C92	C	1.584259	0.807387	-0.211170
C93	C	1.084271	0.307371	-0.793150
C94	C	1.584271	0.807371	-0.293150
C95	C	1.134455	0.354431	-0.834133
C96	C	1.634455	0.854431	-0.334133
C97	C	1.184623	0.401516	-0.793132
C98	C	1.684623	0.901516	-0.293132
C99	C	1.184605	0.401536	-0.711153
C100	C	1.684605	0.901536	-0.211153
C101	C	1.184657	0.401470	-0.964002
C102	C	1.684657	0.901470	-0.464002
C103	C	1.184675	0.401450	-1.045986
C104	C	1.684675	0.901450	-0.545986
C105	C	1.084323	0.307305	-1.045999
C106	C	1.584323	0.807305	-0.545999
C107	C	1.084305	0.307325	-0.964020
C108	C	1.584305	0.807325	-0.464020
C109	C	1.134475	0.354409	-0.923024
C110	C	1.634475	0.854409	-0.423024
C111	C	1.134374	0.354553	-0.174232
C112	C	1.634374	0.854553	0.325768
C113	C	1.134509	0.354370	-0.086982
C114	C	1.634509	0.854370	0.413018
H115	H	0.686893	0.269272	-0.469425
H116	H	1.186893	0.769272	0.030575
H117	H	1.225534	0.784456	-0.287217
H118	H	1.725534	1.284456	0.212783
H119	H	1.225601	0.923884	-0.287262
H120	H	1.725601	1.423884	0.212738
H121	H	1.043418	0.269036	-0.826526
H122	H	1.543418	0.769036	-0.326526
H123	H	1.225517	0.439805	-0.930625
H124	H	1.725517	0.939805	-0.430625
H125	H	1.043474	0.268966	-1.079382
H126	H	1.543474	0.768966	-0.579382
Br127	Br	0.664498	0.465344	-0.259632
Br128	Br	1.164498	0.965344	0.240368
Br129	Br	0.604883	0.465363	-0.259646
Br130	Br	1.104883	0.965363	0.240354
Br131	Br	1.016065	0.944760	-0.496489
Br132	Br	1.516065	1.444760	0.003511
Br133	Br	0.857734	0.465329	-0.259619
Br134	Br	1.357734	0.965329	0.240381
Br135	Br	1.015985	0.763592	-0.496446
Br136	Br	1.515985	1.263592	0.003554
Br137	Br	0.605040	0.243769	-0.496745
Br138	Br	1.105040	0.743769	0.003255
Br139	Br	1.252722	0.465391	-0.848750
Br140	Br	1.752722	0.965391	-0.348750
Br141	Br	1.252684	0.465439	-0.655514
Br142	Br	1.752684	0.965439	-0.155514
H143	H	0.835611	0.269259	-0.469417
H144	H	1.335611	0.769259	0.030583
H145	H	1.043398	0.269061	-0.677807
H146	H	1.543398	0.769061	-0.177807
Br147	Br	1.252789	0.465311	-1.101606
Br148	Br	1.752789	0.965311	-0.601606
Br149	Br	0.411806	0.243778	-0.496758
Br150	Br	0.911806	0.743778	0.003242
Br151	Br	0.411642	0.465398	-0.259688
Br152	Br	0.911642	0.965398	0.240312
H153	H	1.043445	0.269001	-0.930654
H154	H	1.543445	0.769001	-0.430654
