data_functionalizedCrystal
_audit_creation_method	'MofGen! by Chris Wilmer'
_symmetry_space_group_name_H-M	'P1'
_symmetry_Int_Tables_number	1
_symmetry_cell_setting	triclinic
loop_
_symmetry_equiv_pos_as_xyz
  x,y,z
_cell_length_a	6.817900
_cell_length_b	14.858329
_cell_length_c	17.110486
_cell_angle_alpha	96.088146
_cell_angle_beta	99.060439
_cell_angle_gamma	104.519616
loop_
_atom_site_label
_atom_site_type_symbol
_atom_site_fract_x
_atom_site_fract_y
_atom_site_fract_z
V1	V	-3.982044	-0.128393	-0.246945
V2	V	-3.482044	0.371607	0.253055
O3	O	-3.965115	0.006455	-0.242012
O4	O	-3.465115	0.506455	0.257988
O5	O	-3.938958	-0.254856	-0.245479
O6	O	-3.438958	0.245144	0.254521
O7	O	-3.911817	-0.126293	-0.354545
O8	O	-3.411817	0.373707	0.145455
O9	O	-3.992443	-0.122998	-0.132192
O10	O	-3.492443	0.377002	0.367808
V11	V	-4.467811	-0.112279	-0.233193
V12	V	-3.967811	0.387721	0.266807
O13	O	-4.238379	-0.163742	-0.277112
O14	O	-3.738379	0.336258	0.222888
O15	O	-4.661674	-0.076930	-0.203025
O16	O	-4.161674	0.423070	0.296975
O17	O	-4.287691	0.014184	-0.234658
O18	O	-3.787691	0.514184	0.265342
O19	O	-4.602137	-0.247127	-0.238126
O20	O	-4.102137	0.252873	0.261874
O21	O	-4.574809	-0.117674	-0.347946
O22	O	-4.074809	0.382326	0.152054
O23	O	-4.314831	-0.114379	-0.125593
O24	O	-3.814831	0.385621	0.374407
C25	C	-3.785958	-0.285689	-0.241641
C26	C	-3.285958	0.214311	0.258359
C27	C	-3.831871	-0.389073	-0.241160
C28	C	-3.331871	0.110927	0.258840
C29	C	-3.869154	-0.473032	-0.240762
C30	C	-3.369154	0.026968	0.259238
C31	C	-3.915945	-0.578362	-0.240266
C32	C	-3.415945	-0.078362	0.259734
C33	C	-3.953254	-0.662315	-0.239872
C34	C	-3.453254	-0.162315	0.260128
C35	C	-4.000048	-0.767651	-0.239375
C36	C	-3.500048	-0.267651	0.260625
C37	C	-3.751337	-0.121693	-0.380764
C38	C	-3.251337	0.378307	0.119236
C39	C	-3.775237	-0.120813	-0.468729
C40	C	-3.275237	0.379187	0.031271
C41	C	-3.967948	-0.125041	-0.514094
C42	C	-3.467948	0.374959	-0.014094
C43	C	-3.990393	-0.124213	-0.596746
C44	C	-3.490393	0.375787	-0.096746
C45	C	-3.820129	-0.119164	-0.634031
C46	C	-3.320129	0.380836	-0.134031
C47	C	-3.627401	-0.114933	-0.588660
C48	C	-3.127401	0.385067	-0.088660
C49	C	-3.604955	-0.115754	-0.506009
C50	C	-3.104955	0.384246	-0.006009
C51	C	-3.878819	-0.116447	-0.883382
C52	C	-3.378819	0.383553	-0.383382
C53	C	-3.901282	-0.115629	-0.966039
C54	C	-3.401282	0.384371	-0.466039
C55	C	-4.264273	-0.124908	-0.974119
C56	C	-3.764273	0.375092	-0.474119
C57	C	-4.241812	-0.125734	-0.891467
C58	C	-3.741812	0.374266	-0.391467
C59	C	-4.049085	-0.121498	-0.846102
C60	C	-3.549085	0.378502	-0.346102
C61	C	-3.843069	-0.118321	-0.718515
C62	C	-3.343069	0.381679	-0.218515
C63	C	-4.026145	-0.122334	-0.761619
C64	C	-3.526145	0.377666	-0.261619
C65	C	-4.104034	0.045012	-0.238494
C66	C	-3.604034	0.545012	0.261506
C67	C	-4.037357	0.148396	-0.238981
C68	C	-3.537357	0.648396	0.261019
C69	C	-4.138655	-0.118982	-0.099370
C70	C	-3.638655	0.381018	0.400630
C71	C	-4.093993	-0.119857	-0.011404
C72	C	-3.593993	0.380143	0.488596
H73	H	-4.106603	-0.129158	-0.483743
H74	H	-3.606603	0.370842	0.016257
H75	H	-4.147313	-0.127651	-0.633678
H76	H	-3.647313	0.372349	-0.133678
H77	H	-4.380463	-0.129844	-0.861115
H78	H	-3.880463	0.370156	-0.361115
F79	F	-3.673715	-0.111958	-0.835114
F80	F	-3.173715	0.388042	-0.335114
H81	H	-3.762620	-0.111515	-0.996394
H82	H	-3.262620	0.388485	-0.496394
F83	F	-3.399844	-0.111247	-0.457727
F84	F	-2.899844	0.388753	0.042273
H85	H	-4.164770	-0.126442	-0.731256
H86	H	-3.664770	0.373558	-0.231256
F87	F	-4.469374	-0.129413	-1.022405
F88	F	-3.969374	0.370587	-0.522405
H89	H	-3.488768	-0.110817	-0.619024
H90	H	-2.988768	0.389183	-0.119024
H91	H	-3.704444	-0.114214	-0.748883
H92	H	-3.204444	0.385786	-0.248883
