data_functionalizedCrystal
_audit_creation_method	'MofGen! by Chris Wilmer'
_symmetry_space_group_name_H-M	'P1'
_symmetry_Int_Tables_number	1
_symmetry_cell_setting	triclinic
loop_
_symmetry_equiv_pos_as_xyz
  x,y,z
_cell_length_a	8.597227
_cell_length_b	7.088906
_cell_length_c	10.654550
_cell_angle_alpha	83.717857
_cell_angle_beta	95.093076
_cell_angle_gamma	91.338653
loop_
_atom_site_label
_atom_site_type_symbol
_atom_site_fract_x
_atom_site_fract_y
_atom_site_fract_z
O1	O	-2.034877	-0.494227	0.226904
O2	O	-1.585526	-0.420200	0.235383
O3	O	-1.820534	-0.458909	0.048596
O4	O	-1.799869	-0.455519	0.413692
O5	O	-1.851936	-0.146106	0.023578
O6	O	-1.616928	-0.107398	0.210366
O7	O	-2.066279	-0.181425	0.201887
Cu8	Cu	-1.844471	-0.115850	0.203842
Cu9	Cu	-1.807334	-0.485775	0.233428
O10	O	-1.831271	-0.142716	0.388675
C11	C	-1.543689	-0.254320	0.220575
C12	C	-1.372246	-0.226076	0.213706
N13	N	-1.870602	0.144334	0.183032
C14	C	-1.108114	-0.347302	0.216705
C15	C	-1.279555	-0.375535	0.223602
C16	C	-1.834717	-0.302260	-0.010739
C17	C	-1.830177	-0.301519	-0.150266
N18	N	-1.781203	0.254041	0.254238
C19	C	-1.968546	-0.324308	-0.227188
C20	C	-1.964271	-0.323617	-0.358287
C21	C	-1.683246	-0.277337	-0.335530
C22	C	-1.687522	-0.278042	-0.204432
C23	C	-2.130795	-0.351019	-0.240329
C24	C	-2.126519	-0.350328	-0.371428
C25	C	-1.817087	-0.299369	0.448010
C26	C	-1.821626	-0.300123	0.587537
H27	H	-1.331356	-0.525094	0.237340
H28	H	-1.963268	0.210727	0.109249
H29	H	-1.574846	-0.259511	-0.141804
O30	O	-1.658443	0.166131	0.351959
H31	H	-1.660586	0.009822	0.350214
O32	O	-1.529387	-0.251988	-0.393952
H33	H	-1.549658	-0.255312	-0.498038
H34	H	-2.181115	-0.492372	-0.199325
H35	H	-2.196019	-0.224468	-0.214546
H36	H	-2.161994	-0.493466	-0.405360
H37	H	-2.200793	-0.229494	-0.422524
H38	H	-1.320435	-0.076507	0.199981
