data_functionalizedCrystal
_audit_creation_method	'MofGen! by Chris Wilmer'
_symmetry_space_group_name_H-M	'P1'
_symmetry_Int_Tables_number	1
_symmetry_cell_setting	triclinic
loop_
_symmetry_equiv_pos_as_xyz
  x,y,z
_cell_length_a	14.908571
_cell_length_b	16.625546
_cell_length_c	16.625527
_cell_angle_alpha	89.912139
_cell_angle_beta	86.644199
_cell_angle_gamma	86.718495
loop_
_atom_site_label
_atom_site_type_symbol
_atom_site_fract_x
_atom_site_fract_y
_atom_site_fract_z
Zn1	Zn	1.379617	-0.391733	-0.526919
Zn2	Zn	1.379405	-0.526701	-0.392070
Zn3	Zn	1.228641	-0.384106	-0.384327
Zn4	Zn	1.228711	-0.518741	-0.519102
O5	O	1.304094	-0.455320	-0.455604
O6	O	1.505839	-0.416161	-0.515542
O7	O	1.359288	-0.507925	-0.278204
O8	O	1.248728	-0.272289	-0.403273
O9	O	1.505684	-0.515321	-0.416469
O10	O	1.359649	-0.277892	-0.508034
O11	O	1.248522	-0.403161	-0.272515
O12	O	1.102400	-0.395443	-0.395694
O13	O	1.248848	-0.501754	-0.632978
O14	O	1.102452	-0.494358	-0.494713
O15	O	1.359717	-0.408442	-0.638721
O16	O	1.359356	-0.638474	-0.408890
O17	O	1.248642	-0.632626	-0.502221
C18	C	1.069691	-0.443209	-0.443515
C19	C	0.969412	-0.438048	-0.438363
C20	C	0.781080	-0.531509	-0.531650
C21	C	0.686860	-0.526662	-0.526812
C22	C	0.686749	-0.423502	-0.423852
C23	C	0.780969	-0.428349	-0.428690
C24	C	0.828132	-0.482355	-0.482590
C25	C	0.922354	-0.487206	-0.487424
C26	C	0.922241	-0.384043	-0.384469
C27	C	0.828021	-0.379196	-0.379630
C28	C	1.304008	-0.664807	-0.455566
C29	C	1.304054	-0.754430	-0.455581
C30	C	1.304212	-1.082614	-0.455673
C31	C	1.304165	-0.991303	-0.455650
C32	C	1.304132	-0.918525	-0.455627
C33	C	1.304087	-0.827208	-0.455604
C34	C	1.539412	-0.467479	-0.467741
C35	C	1.639691	-0.472661	-0.472913
C36	C	1.304314	-0.455061	-0.665925
C37	C	1.304408	-0.454950	-0.755551
C38	C	1.304204	-0.245017	-0.455662
C39	C	1.304251	-0.155398	-0.455686
C40	C	1.303926	-0.455524	-0.246105
C41	C	1.304007	-0.455416	-0.156488
C42	C	1.304342	-0.455038	0.171670
C43	C	1.304252	-0.455146	0.080366
C44	C	1.304174	-0.455228	0.007594
C45	C	1.304085	-0.455334	-0.083716
H46	H	0.819481	-0.575487	-0.575534
O47	O	0.636107	-0.579747	-0.579654
H48	H	0.684734	-0.618142	-0.617915
H49	H	0.789608	-0.335224	-0.335749
H50	H	0.648333	-0.379528	-0.379974
O51	O	0.972987	-0.331019	-0.331551
H52	H	1.046429	-0.343458	-0.343972
H53	H	0.960753	-0.531182	-0.531311
