data_functionalizedCrystal
_audit_creation_method	'MofGen! by Chris Wilmer'
_symmetry_space_group_name_H-M	'P1'
_symmetry_Int_Tables_number	1
_symmetry_cell_setting	triclinic
loop_
_symmetry_equiv_pos_as_xyz
  x,y,z
_cell_length_a	16.109301
_cell_length_b	26.809956
_cell_length_c	16.109301
_cell_angle_alpha	89.994023
_cell_angle_beta	96.538519
_cell_angle_gamma	90.013343
loop_
_atom_site_label
_atom_site_type_symbol
_atom_site_fract_x
_atom_site_fract_y
_atom_site_fract_z
O1	O	1.103146	0.041450	-0.106865
O2	O	0.861084	0.041458	-0.120165
O3	O	0.988765	0.041448	0.007516
O4	O	0.975465	0.041459	-0.234546
O5	O	0.988725	-0.041511	0.007516
O6	O	0.861045	-0.041501	-0.120164
O7	O	1.103107	-0.041510	-0.106865
Zn8	Zn	0.982069	-0.054677	-0.113515
Zn9	Zn	0.982121	0.054625	-0.113515
O10	O	0.975426	-0.041500	-0.234546
C11	C	0.830090	-0.000021	-0.119626
C12	C	0.737794	-0.000018	-0.118011
C13	C	0.515522	-0.000021	-0.190018
C14	C	0.428801	-0.000024	-0.188494
C15	C	0.448676	-0.000028	-0.037006
C16	C	0.535394	-0.000029	-0.038530
C17	C	0.568815	-0.000022	-0.115039
C18	C	0.395376	-0.000025	-0.111990
C19	C	0.301350	-0.000029	-0.110337
C20	C	0.662847	-0.000020	-0.116693
N21	N	0.982040	-0.129273	-0.113514
C22	C	1.032519	-0.473899	-0.163947
C23	C	1.032545	-0.682776	-0.163946
O24	O	1.075442	-0.709780	-0.206817
N25	N	0.982141	-0.708900	-0.113507
C26	C	0.931731	-0.682801	-0.063059
O27	O	0.888866	-0.709814	-0.020151
C28	C	0.931709	-0.473925	-0.063056
C29	C	0.982110	-0.447804	-0.113505
C30	C	1.082916	-0.447777	-0.214391
C31	C	1.082906	-0.395561	-0.214394
C32	C	1.032497	-0.369466	-0.163953
C33	C	0.982099	-0.395587	-0.113508
C34	C	0.881303	-0.447827	-0.012605
C35	C	0.881304	-0.395604	-0.012607
C36	C	0.931705	-0.369483	-0.063056
C37	C	0.931680	-0.317276	-0.063070
N38	N	0.982085	-0.291152	-0.113510
C39	C	1.032493	-0.317247	-0.163951
C40	C	0.931744	-0.792465	-0.063066
C41	C	0.931749	-0.844684	-0.063068
C42	C	1.032565	-0.844655	-0.163954
C43	C	1.032556	-0.792435	-0.163956
C44	C	0.982149	-0.766341	-0.113506
C45	C	1.032466	-0.207589	-0.163954
C46	C	1.032449	-0.155368	-0.163955
C47	C	0.931636	-0.155401	-0.063067
C48	C	0.931650	-0.207618	-0.063068
C49	C	0.982072	-0.233710	-0.113515
O50	O	0.888813	-0.290240	-0.020215
O51	O	1.075365	-0.290225	-0.206839
C52	C	1.032529	-0.526115	-0.163944
C53	C	0.982131	-0.552236	-0.113499
C54	C	0.931723	-0.526141	-0.063058
C55	C	0.982136	-0.604455	-0.113501
C56	C	1.032544	-0.630550	-0.163943
C57	C	1.082948	-0.604426	-0.214382
C58	C	1.082938	-0.552210	-0.214385
C59	C	0.881318	-0.552265	-0.012618
C60	C	0.881332	-0.604481	-0.012620
C61	C	0.931741	-0.630576	-0.063061
C62	C	1.134101	-0.000030	-0.107404
C63	C	1.226397	-0.000030	-0.109019
C64	C	0.988206	-0.000031	0.038491
C65	C	0.986591	-0.000032	0.130786
N66	N	0.982157	0.129221	-0.113509
C67	C	0.975984	-0.000019	-0.265521
C68	C	0.977600	-0.000015	-0.357816
C69	C	1.058599	-0.000027	0.353059
C70	C	1.057075	-0.000022	0.439779
C71	C	0.905586	-0.000019	0.419905
C72	C	0.907111	-0.000020	0.333186
C73	C	0.983620	-0.000026	0.299766
C74	C	0.980571	-0.000021	0.473205
C75	C	0.978918	-0.000017	0.567231
C76	C	0.985273	-0.000030	0.205734
H77	H	0.385413	-0.000023	-0.249550
N78	N	0.551567	-0.000023	-0.272536
H79	H	0.614590	-0.000022	-0.262128
H80	H	0.532081	0.030731	-0.305350
N81	N	1.141115	-0.000033	0.317010
H82	H	1.188382	-0.000031	0.363933
H83	H	1.145060	0.030721	0.281457
H84	H	0.843295	-0.000015	0.447127
H85	H	1.118130	-0.000022	0.483168
H86	H	0.421454	-0.000037	0.025285
H87	H	0.578788	-0.000031	0.022530
N88	N	1.086813	-0.127195	-0.218370
H89	H	1.118750	-0.151653	-0.250319
H90	H	1.127462	-0.105523	-0.182132
H91	H	1.073525	-0.228828	-0.205032
N92	N	0.826241	-0.000020	0.275692
H93	H	0.792873	0.030734	0.286432
H94	H	0.792913	-0.030793	0.286465
H95	H	1.123951	-0.374298	-0.255472
H96	H	1.123970	-0.469019	-0.255467
H97	H	0.890599	-0.228887	-0.021999
N98	N	1.086920	-0.764261	-0.218360
H99	H	1.070502	-0.773347	-0.278848
H100	H	1.147394	-0.773354	-0.201907
N101	N	1.086934	-0.872805	-0.218361
H102	H	1.079285	-0.909848	-0.210702
H103	H	1.147403	-0.863670	-0.201947
H104	H	0.890592	-0.134145	-0.022001
H105	H	0.890697	-0.865947	-0.021997
H106	H	0.890695	-0.771224	-0.021981
H107	H	0.840262	-0.469086	0.028477
H108	H	0.840256	-0.374361	0.028477
H109	H	1.123980	-0.530947	-0.255466
H110	H	1.123989	-0.625682	-0.255458
N111	N	0.826974	-0.632652	0.041803
H112	H	0.795047	-0.608192	0.073759
H113	H	0.863253	-0.654307	0.082435
N114	N	0.826949	-0.524123	0.041791
H115	H	0.795024	-0.548601	0.073742
H116	H	0.786288	-0.502465	0.005554
