data_functionalizedCrystal
_audit_creation_method	'MofGen! by Chris Wilmer'
_symmetry_space_group_name_H-M	'P1'
_symmetry_Int_Tables_number	1
_symmetry_cell_setting	triclinic
loop_
_symmetry_equiv_pos_as_xyz
  x,y,z
_cell_length_a	15.995350
_cell_length_b	19.188930
_cell_length_c	14.472310
_cell_angle_alpha	89.993787
_cell_angle_beta	89.990621
_cell_angle_gamma	83.318578
loop_
_atom_site_label
_atom_site_type_symbol
_atom_site_fract_x
_atom_site_fract_y
_atom_site_fract_z
O1	O	1.110667	0.089991	-0.076773
O2	O	1.610667	0.589991	0.423227
O3	O	0.866851	0.101105	-0.076794
O4	O	1.366851	0.601105	0.423206
O5	O	0.995795	-0.006090	-0.076765
O6	O	1.495795	0.493910	0.423235
O7	O	0.981723	0.197186	-0.076802
O8	O	1.481723	0.697186	0.423198
O9	O	0.995762	-0.006083	0.076917
O10	O	1.495762	0.493917	0.576917
O11	O	0.866818	0.101111	0.076888
O12	O	1.366818	0.601111	0.576888
O13	O	1.110634	0.089998	0.076909
O14	O	1.610634	0.589998	0.576909
Cu15	Cu	0.988723	0.095555	0.090931
Cu16	Cu	1.488723	0.595555	0.590931
Cu17	Cu	0.988762	0.095547	-0.090816
Cu18	Cu	1.488762	0.595547	0.409184
O19	O	0.981690	0.197192	0.076880
O20	O	1.481690	0.697192	0.576880
C21	C	0.835641	0.100648	0.000045
C22	C	1.335641	0.600648	0.500045
C23	C	0.742696	0.099271	0.000038
C24	C	1.242696	0.599271	0.500038
C25	C	0.404967	0.094324	0.000058
C26	C	0.904967	0.594324	0.500058
C27	C	0.452680	0.017982	0.000415
C28	C	0.952680	0.517982	0.500415
C29	C	0.549365	0.019360	0.000062
C30	C	1.049365	0.519360	0.500062
C31	C	0.572518	0.096778	0.000049
C32	C	1.072518	0.596778	0.500049
C33	C	0.531312	0.134429	-0.087714
C34	C	1.031312	0.634429	0.412286
C35	C	0.434683	0.132511	-0.087781
C36	C	0.934683	0.632511	0.412219
C37	C	0.434301	0.134095	0.086984
C38	C	0.934301	0.634095	0.586984
C39	C	0.531246	0.134077	0.088137
C40	C	1.031246	0.634077	0.588137
C41	C	0.667211	0.098169	0.000040
C42	C	1.167211	0.598169	0.500040
C43	C	0.310274	0.092936	0.000060
C44	C	0.810274	0.592936	0.500060
C45	C	0.995323	-0.032099	0.000079
C46	C	1.495323	0.467901	0.500079
C47	C	0.993955	-0.109607	0.000087
C48	C	1.493955	0.390393	0.500087
C49	C	1.069615	-0.154338	0.000097
C50	C	1.569615	0.345662	0.500097
C51	C	1.068330	-0.227165	0.000082
C52	C	1.568330	0.272835	0.500082
C53	C	0.991380	-0.255258	0.000075
C54	C	1.491380	0.244742	0.500075
C55	C	0.915710	-0.210517	0.000059
C56	C	1.415710	0.289483	0.500059
C57	C	0.916997	-0.137691	0.000065
C58	C	1.416997	0.362309	0.500065
N59	N	0.932550	-0.363410	0.052371
N60	N	1.432550	0.136590	0.552371
N61	N	0.931332	-0.432592	0.052368
N62	N	1.431332	0.067408	0.552368
C63	C	0.987497	-0.474676	0.000056
C64	C	1.487497	0.025324	0.500056
N65	N	1.044938	-0.444967	-0.052240
N66	N	1.544938	0.055033	0.447760
N67	N	1.046158	-0.375779	-0.052233
N68	N	1.546158	0.124221	0.447767
C69	C	0.989976	-0.334224	0.000069
C70	C	1.489976	0.165776	0.500069
C71	C	1.061769	-0.598375	0.000050
C72	C	1.561769	-0.098375	0.500050
C73	C	1.060480	-0.671204	0.000029
C74	C	1.560480	-0.171204	0.500029
C75	C	0.907859	-0.654553	0.000015
C76	C	1.407859	-0.154553	0.500015
C77	C	0.909149	-0.581727	0.000027
C78	C	1.409149	-0.081727	0.500027
C79	C	0.986106	-0.553643	0.000048
C80	C	1.486106	-0.053643	0.500048
C81	C	1.141843	0.090454	0.000068
C82	C	1.641843	0.590454	0.500068
C83	C	1.234789	0.091831	0.000069
C84	C	1.734789	0.591831	0.500069
C85	C	0.982162	0.223201	0.000034
C86	C	1.482162	0.723201	0.500034
C87	C	0.983530	0.300709	0.000020
C88	C	1.483530	0.800709	0.500020
N89	N	0.988701	0.095560	0.218762
N90	N	1.488701	0.595560	0.718762
N91	N	0.988790	0.095537	-0.218647
N92	N	1.488790	0.595537	0.281353
C93	C	0.988761	0.095545	0.592853
C94	C	1.488761	0.595545	1.092853
C95	C	0.919535	0.152710	0.553672
C96	C	1.419535	0.652710	1.053672
C97	C	0.919694	0.152918	0.446584
C98	C	1.419694	0.652918	0.946584
C99	C	0.988731	0.095552	0.407262
C100	C	1.488731	0.595552	0.907262
C101	C	1.076037	0.111464	0.446103
C102	C	1.576037	0.611464	0.946103
C103	C	1.075648	0.111870	0.553224
C104	C	1.575648	0.611870	1.053224
C105	C	0.971460	0.022298	0.553394
C106	C	1.471460	0.522298	1.053394
C107	C	0.969454	0.022787	0.446266
C108	C	1.469454	0.522787	0.946266
C109	C	0.988719	0.095555	0.302374
C110	C	1.488719	0.595555	0.802374
C111	C	0.988778	0.095543	0.697741
C112	C	1.488778	0.595543	1.197741
H113	H	0.559796	0.108273	-0.153020
H114	H	1.059796	0.608273	0.346980
N115	N	0.428245	-0.020143	-0.078070
N116	N	0.928245	0.479857	0.421930
N117	N	0.394612	-0.075170	-0.066938
N118	N	0.894612	0.424830	0.433062
H119	H	0.377347	-0.102096	-0.122367
H120	H	0.877347	0.397904	0.377633
H121	H	0.853057	-0.233394	0.000052
H122	H	1.353057	0.266606	0.500052
N123	N	0.829255	-0.683240	0.000025
N124	N	1.329255	-0.183240	0.500025
N125	N	0.778293	-0.669541	0.064804
N126	N	1.278293	-0.169541	0.564804
H127	H	0.722776	-0.689803	0.064810
H128	H	1.222776	-0.189803	0.564810
N129	N	0.429566	-0.020313	0.079357
N130	N	0.929566	0.479687	0.579357
N131	N	0.461273	-0.082307	0.091418
N132	N	0.961273	0.417693	0.591418
H133	H	0.444944	-0.109356	0.147172
H134	H	0.944944	0.390644	0.647172
H135	H	0.577889	-0.010236	0.062975
H136	H	1.077889	0.489764	0.562975
N137	N	0.408630	0.102786	0.170429
N138	N	0.908630	0.602786	0.670429
N139	N	0.368396	0.050774	0.166844
N140	N	0.868396	0.550774	0.666844
H141	H	0.350264	0.028656	0.225773
H142	H	0.850264	0.528656	0.725773
N143	N	1.145626	-0.272858	0.000092
N144	N	1.645626	0.227142	0.500092
N145	N	1.214329	-0.247773	0.000109
N146	N	1.714329	0.252227	0.500109
H147	H	1.268920	-0.280041	0.000118
H148	H	1.768920	0.219959	0.500118
N149	N	0.584461	-0.018025	-0.078989
N150	N	1.084461	0.481975	0.421011
N151	N	0.537538	-0.045212	-0.134074
N152	N	1.037538	0.454788	0.365926
H153	H	0.562323	-0.071616	-0.189909
H154	H	1.062323	0.428384	0.310091
N155	N	0.394198	0.204705	0.087744
N156	N	0.894198	0.704705	0.587744
N157	N	0.409129	0.245383	0.151543
N158	N	0.909129	0.745383	0.651543
H159	H	0.380803	0.295249	0.152076
H160	H	0.880803	0.795249	0.652076
H161	H	0.855384	-0.101270	0.000057
H162	H	1.355384	0.398730	0.500057
H163	H	0.854789	0.143438	0.420324
H164	H	1.354789	0.643438	0.920324
H165	H	1.124432	-0.575508	0.000063
H166	H	1.624432	-0.075508	0.500063
H167	H	0.847538	-0.545305	0.000023
H168	H	1.347538	-0.045305	0.500023
H169	H	1.122095	-0.707624	0.000033
H170	H	1.622095	-0.207624	0.500033
N171	N	1.148229	-0.125663	0.000117
N172	N	1.648229	0.374337	0.500117
N173	N	1.215779	-0.165616	0.000124
N174	N	1.715779	0.334384	0.500124
H175	H	1.271302	-0.145364	0.000136
H176	H	1.771302	0.354636	0.500136
N177	N	0.837850	0.141007	0.586021
N178	N	1.337850	0.641007	1.086021
N179	N	0.829697	0.090402	0.638334
N180	N	1.329697	0.590402	1.138334
H181	H	0.772004	0.082135	0.661186
H182	H	1.272004	0.582135	1.161186
N183	N	0.933171	0.220511	0.587425
N184	N	1.433171	0.720511	1.087425
N185	N	0.993650	0.226913	0.640210
N186	N	1.493650	0.726913	1.140210
H187	H	1.003283	0.274796	0.664050
H188	H	1.503283	0.774796	1.164050
N189	N	0.933473	0.221119	0.414421
N190	N	1.433473	0.721119	0.914421
N191	N	0.943010	0.268709	0.471089
N192	N	1.443010	0.768709	0.971089
H193	H	0.952728	0.316883	0.448376
H194	H	1.452728	0.816883	0.948376
H195	H	1.090934	0.165288	0.578192
H196	H	1.590934	0.665288	1.078192
H197	H	1.128755	0.071875	0.579141
H198	H	1.628755	0.571875	1.079141
N199	N	1.142184	0.060617	0.414148
N200	N	1.642184	0.560617	0.914148
N201	N	1.125679	0.011969	0.362267
N202	N	1.625679	0.511969	0.862267
H203	H	1.172394	-0.023943	0.339698
H204	H	1.672394	0.476057	0.839698
N205	N	0.893320	0.003128	0.587300
N206	N	1.393320	0.503128	1.087300
N207	N	0.826249	0.041348	0.570853
N208	N	1.326249	0.541348	1.070853
H209	H	0.771057	0.027817	0.594794
H210	H	1.271057	0.527817	1.094794
N211	N	0.411866	0.098062	-0.170074
N212	N	0.911866	0.598062	0.329926
N213	N	0.467280	0.075599	-0.227056
N214	N	0.967280	0.575599	0.272944
H215	H	0.451171	0.051267	-0.285177
H216	H	0.951171	0.551267	0.214823
H217	H	0.546404	0.190533	0.093428
H218	H	1.046404	0.690533	0.593428
N219	N	1.095676	0.177711	0.412418
N220	N	1.595676	0.677711	0.912418
N221	N	1.045519	0.213314	0.359818
N222	N	1.545519	0.713314	0.859818
H223	H	1.059385	0.260103	0.336028
H224	H	1.559385	0.760103	0.836028
H225	H	0.905232	0.010711	0.420881
H226	H	1.405232	0.510711	0.920881
N227	N	1.028638	-0.033071	0.412696
N228	N	1.528638	0.466929	0.912696
N229	N	1.105320	-0.033254	0.429463
N230	N	1.605320	0.466746	0.929463
H231	H	1.147128	-0.072701	0.405754
H232	H	1.647128	0.427299	0.905754
N233	N	0.565613	0.099584	0.169582
N234	N	1.065613	0.599584	0.669582
N235	N	0.620301	0.047723	0.162849
N236	N	1.120301	0.547723	0.662849
H237	H	0.644577	0.023359	0.220368
H238	H	1.144577	0.523359	0.720368
N239	N	1.034786	-0.031066	0.585200
N240	N	1.534786	0.468934	1.085200
N241	N	1.044519	-0.042018	0.669873
N242	N	1.544519	0.457982	1.169873
H243	H	1.089244	-0.079701	0.692343
H244	H	1.589244	0.420299	1.192343
N245	N	0.393960	0.202819	-0.092782
N246	N	0.893960	0.702819	0.407218
N247	N	0.406063	0.245972	-0.030911
N248	N	0.906063	0.745972	0.469089
H249	H	0.377303	0.295626	-0.034446
H250	H	0.877303	0.795626	0.465554
N251	N	0.548772	0.205780	-0.091812
N252	N	1.048772	0.705780	0.408188
N253	N	0.591884	0.229734	-0.029949
N254	N	1.091884	0.729734	0.470051
H255	H	0.604216	0.280126	-0.032840
H256	H	1.104216	0.780126	0.467160
