data_functionalizedCrystal
_audit_creation_method	'MofGen! by Chris Wilmer'
_symmetry_space_group_name_H-M	'P1'
_symmetry_Int_Tables_number	1
_symmetry_cell_setting	triclinic
loop_
_symmetry_equiv_pos_as_xyz
  x,y,z
_cell_length_a	16.959454
_cell_length_b	18.215407
_cell_length_c	16.959447
_cell_angle_alpha	90.016707
_cell_angle_beta	89.976829
_cell_angle_gamma	89.984305
loop_
_atom_site_label
_atom_site_type_symbol
_atom_site_fract_x
_atom_site_fract_y
_atom_site_fract_z
Zn1	Zn	-0.314786	-1.125089	-0.446912
Zn2	Zn	-0.446970	-1.125010	-0.314741
Zn3	Zn	-0.314800	-1.002024	-0.314751
Zn4	Zn	-0.446916	-1.001998	-0.446882
O5	O	-0.380868	-1.063530	-0.380822
O6	O	-0.332338	-1.228063	-0.429388
O7	O	-0.429466	-1.108673	-0.204132
O8	O	-0.204187	-1.018392	-0.332299
O9	O	-0.429453	-1.228004	-0.332283
O10	O	-0.204177	-1.108808	-0.429397
O11	O	-0.332361	-1.018316	-0.204139
O12	O	-0.332308	-0.899036	-0.332270
O13	O	-0.429361	-1.018348	-0.557497
O14	O	-0.429374	-0.899017	-0.429346
O15	O	-0.332285	-1.108783	-0.557519
O16	O	-0.557574	-1.108648	-0.332254
O17	O	-0.557534	-1.018271	-0.429337
C18	C	-0.380837	-0.872324	-0.380806
C19	C	-0.380843	-0.790525	-0.380818
C20	C	-0.330373	-0.602360	-0.431459
C21	C	-0.330377	-0.525501	-0.431462
C22	C	-0.431351	-0.525452	-0.330190
C23	C	-0.431343	-0.602309	-0.330184
C24	C	-0.380855	-0.640761	-0.380824
C25	C	-0.380867	-0.487045	-0.380831
C26	C	-0.380872	-0.403712	-0.380833
C27	C	-0.380848	-0.724100	-0.380821
C28	C	-0.586234	-1.063468	-0.380808
C29	C	-0.674091	-1.063509	-0.380829
C30	C	-1.045576	-1.016539	-0.431367
C31	C	-1.045557	-1.110726	-0.330356
C32	C	-0.963011	-1.110700	-0.330349
C33	C	-0.921744	-1.063592	-0.380851
C34	C	-0.963022	-1.016510	-0.431360
C35	C	-0.921727	-1.157776	-0.279835
C36	C	-0.839176	-1.157751	-0.279825
C37	C	-0.797907	-1.110647	-0.330332
C38	C	-0.839190	-1.063564	-0.380843
C39	C	-0.797923	-1.016456	-0.431345
C40	C	-0.839205	-0.969376	-0.481861
C41	C	-0.921753	-0.969406	-0.481866
C42	C	-0.715358	-1.110617	-0.330327
C43	C	-0.715369	-1.016427	-0.431338
C44	C	-0.174700	-1.063612	-0.380852
C45	C	-0.086843	-1.063647	-0.380865
C46	C	-0.380816	-1.063571	-0.586990
C47	C	-0.380793	-1.063589	-0.674847
C48	C	-0.380891	-0.255483	-0.380835
C49	C	-0.380879	-0.337282	-0.380836
C50	C	-0.431326	-1.016513	-0.716111
C51	C	-0.330234	-1.110677	-0.716136
C52	C	-0.330208	-1.110692	-0.798682
C53	C	-0.380741	-1.063616	-0.839946
C54	C	-0.431300	-1.016525	-0.798664
C55	C	-0.279644	-1.157777	-0.839970
C56	C	-0.279616	-1.157794	-0.922521
C57	C	-0.330154	-1.110721	-0.963787
C58	C	-0.380715	-1.063629	-0.922500
C59	C	-0.431248	-1.016553	-0.963764
C60	C	-0.481814	-0.969463	-0.922478
C61	C	-0.481838	-0.969452	-0.839930
C62	C	-0.330130	-1.110732	-1.046335
C63	C	-0.431222	-1.016565	-1.046317
C64	C	-0.380863	-1.063531	-0.175455
C65	C	-0.380663	-1.063656	-0.087599
H66	H	-0.289260	-0.633665	-0.472691
H67	H	-0.681750	-1.148945	-0.289194
C68	C	-0.179707	-1.250848	-0.848281
C69	C	-0.224098	-1.209518	-0.794614
H70	H	-0.145411	-1.282788	-0.820275
H71	H	-0.214133	-1.278992	-0.880479
H72	H	-0.149460	-1.218789	-0.880476
H73	H	-0.254349	-1.241576	-0.762422
H74	H	-0.189667	-1.181371	-0.762402
H75	H	-0.289089	-1.149001	-0.682534
C76	C	-0.319543	-0.439104	-0.537806
C77	C	-0.274890	-0.483289	-0.487125
H78	H	-0.285284	-0.413042	-0.572168
H79	H	-0.354011	-0.469091	-0.567978
H80	H	-0.349607	-0.405205	-0.507642
H81	H	-0.244830	-0.517192	-0.517289
H82	H	-0.240408	-0.453300	-0.456950
C83	C	-0.476206	-0.407612	-0.285237
C84	C	-0.486853	-0.483182	-0.274536
H85	H	-0.510476	-0.381520	-0.250882
H86	H	-0.423091	-0.395024	-0.273755
H87	H	-0.487842	-0.395042	-0.338330
H88	H	-0.475211	-0.495754	-0.221444
H89	H	-0.539980	-0.495776	-0.286013
H90	H	-0.805569	-1.196087	-0.238694
C91	C	-0.531163	-0.594546	-0.230084
C92	C	-0.486839	-0.644526	-0.274524
H93	H	-0.565424	-0.620611	-0.195726
H94	H	-0.496692	-0.564566	-0.199909
H95	H	-0.561444	-0.564575	-0.264482
H96	H	-0.456553	-0.674494	-0.240126
H97	H	-0.521315	-0.674519	-0.304702
H98	H	-0.472376	-0.978232	-1.079909
C99	C	-0.173255	-1.168070	-1.015355
C100	C	-0.224033	-1.209554	-0.967893
H101	H	-0.138938	-1.200027	-1.043361
H102	H	-0.203347	-1.140048	-1.051745
H103	H	-0.143034	-1.136010	-0.983142
H104	H	-0.254259	-1.241611	-1.000107
H105	H	-0.193939	-1.237589	-0.931499
H106	H	-0.681774	-0.978069	-0.472466
C107	C	-0.712666	-0.927516	-0.526691
C108	C	-0.793838	-0.917596	-0.537373
H109	H	-0.684658	-0.895553	-0.560965
H110	H	-0.699183	-0.916767	-0.473576
H111	H	-0.699106	-0.976955	-0.538302
H112	H	-0.807399	-0.868159	-0.525756
H113	H	-0.807326	-0.928340	-0.590500
H114	H	-0.955373	-0.931075	-0.522993
C115	C	-1.172120	-0.974757	-0.476237
C116	C	-1.090948	-0.964787	-0.486890
H117	H	-1.200129	-0.942803	-0.510512
H118	H	-1.185603	-1.024196	-0.487858
H119	H	-1.185677	-0.964020	-0.423118
H120	H	-1.077390	-0.975529	-0.540009
H121	H	-1.077460	-0.915337	-0.475276
H122	H	-1.079162	-1.149074	-0.289235
C123	C	-0.526653	-0.927678	-1.049014
C124	C	-0.537362	-0.917720	-0.967842
H125	H	-0.560949	-0.895737	-1.077020
H126	H	-0.473545	-0.916923	-1.062535
H127	H	-0.538218	-0.977126	-1.062539
H128	H	-0.525791	-0.868272	-0.954316
H129	H	-0.590482	-0.928469	-0.954316
C130	C	-1.048261	-1.199530	-0.234889
C131	C	-0.967088	-1.209477	-0.224245
H132	H	-1.076266	-1.231431	-0.200547
H133	H	-1.061782	-1.150074	-0.223353
H134	H	-1.061785	-1.210350	-0.287984
H135	H	-0.953562	-1.198651	-0.171150
H136	H	-0.953561	-1.258945	-0.235775
C137	C	-0.526752	-0.927615	-0.713379
C138	C	-0.537409	-0.917688	-0.794548
H139	H	-0.561054	-0.895653	-0.685361
H140	H	-0.538333	-0.977049	-0.699859
H141	H	-0.473642	-0.916862	-0.699867
H142	H	-0.590518	-0.928446	-0.808060
H143	H	-0.525833	-0.868243	-0.808073
H144	H	-0.472498	-0.978176	-0.682492
C145	C	-0.223779	-1.120998	-1.139179
C146	C	-0.274552	-1.162486	-1.091716
H147	H	-0.189464	-1.152953	-1.167190
H148	H	-0.253874	-1.092975	-1.175565
H149	H	-0.193556	-1.088939	-1.106967
H150	H	-0.304780	-1.194541	-1.123929
H151	H	-0.244454	-1.190522	-1.055326
