data_functionalizedCrystal
_audit_creation_method	'MofGen! by Chris Wilmer'
_symmetry_space_group_name_H-M	'P1'
_symmetry_Int_Tables_number	1
_symmetry_cell_setting	triclinic
loop_
_symmetry_equiv_pos_as_xyz
  x,y,z
_cell_length_a	16.109318
_cell_length_b	14.519731
_cell_length_c	14.586319
_cell_angle_alpha	89.995223
_cell_angle_beta	90.000075
_cell_angle_gamma	83.578708
loop_
_atom_site_label
_atom_site_type_symbol
_atom_site_fract_x
_atom_site_fract_y
_atom_site_fract_z
O1	O	1.103335	0.118615	-0.076166
O2	O	1.436669	0.451948	0.257167
O3	O	1.770002	0.785281	0.590501
O4	O	0.861302	0.133350	-0.076185
O5	O	1.194635	0.466683	0.257148
O6	O	1.527969	0.800017	0.590482
O7	O	0.988727	-0.008268	-0.076167
O8	O	1.322060	0.325065	0.257167
O9	O	1.655393	0.658399	0.590500
O10	O	0.975911	0.260233	-0.076184
O11	O	1.309244	0.593566	0.257149
O12	O	1.642577	0.926899	0.590482
O13	O	0.988718	-0.008270	0.076314
O14	O	1.322051	0.325063	0.409647
O15	O	1.655384	0.658397	0.742981
O16	O	0.861293	0.133348	0.076296
O17	O	1.194626	0.466681	0.409629
O18	O	1.527960	0.800015	0.742963
O19	O	1.103326	0.118613	0.076315
O20	O	1.436660	0.451946	0.409648
O21	O	1.769993	0.785279	0.742981
Cu22	Cu	0.982309	0.125980	0.090228
Cu23	Cu	1.315642	0.459314	0.423561
Cu24	Cu	1.648976	0.792647	0.756895
Cu25	Cu	0.982319	0.125983	-0.090098
Cu26	Cu	1.315653	0.459316	0.243235
Cu27	Cu	1.648986	0.792649	0.576568
O28	O	0.975902	0.260231	0.076296
O29	O	1.309235	0.593564	0.409630
O30	O	1.642568	0.926897	0.742963
C31	C	0.830322	0.132749	0.000053
C32	C	1.163655	0.466083	0.333386
C33	C	1.496988	0.799416	0.666720
C34	C	0.738024	0.130951	0.000046
C35	C	1.071357	0.464285	0.333380
C36	C	1.404691	0.797618	0.666713
C37	C	0.438945	0.125146	-0.083055
C38	C	0.772278	0.458479	0.250279
C39	C	1.105611	0.791812	0.583612
C40	C	0.525669	0.126829	-0.083060
C41	C	0.859002	0.460162	0.250273
C42	C	1.192336	0.793496	0.583606
C43	C	0.525678	0.126814	0.083183
C44	C	0.859011	0.460147	0.416516
C45	C	1.192345	0.793481	0.749849
C46	C	0.438956	0.125124	0.083187
C47	C	0.772289	0.458458	0.416521
C48	C	1.105623	0.791791	0.749854
C49	C	0.395591	0.124295	0.000066
C50	C	0.728924	0.457628	0.333399
C51	C	1.062258	0.790962	0.666733
C52	C	0.569037	0.127668	0.000056
C53	C	0.902371	0.461001	0.333389
C54	C	1.235704	0.794335	0.666722
C55	C	0.663068	0.129493	0.000050
C56	C	0.996401	0.462826	0.333383
C57	C	1.329734	0.796160	0.666717
C58	C	0.301555	0.122468	0.000071
C59	C	0.634888	0.455801	0.333405
C60	C	0.968222	0.789135	0.666738
C61	C	0.988122	-0.042627	0.000074
C62	C	1.321455	0.290706	0.333407
C63	C	1.654788	0.624040	0.666741
C64	C	0.986322	-0.145004	0.000074
C65	C	1.319655	0.188330	0.333408
C66	C	1.652989	0.521663	0.666741
C67	C	0.984860	-0.228145	0.000072
C68	C	1.318193	0.105189	0.333405
C69	C	1.651527	0.438522	0.666739
C70	C	0.983033	-0.332450	0.000065
C71	C	1.316366	0.000884	0.333398
C72	C	1.649700	0.334217	0.666732
C73	C	0.981583	-0.415586	0.000059
C74	C	1.314916	-0.082252	0.333392
C75	C	1.648250	0.251081	0.666726
C76	C	0.979756	-0.519897	0.000053
C77	C	1.313089	-0.186564	0.333387
C78	C	1.646423	0.146769	0.666720
C79	C	1.134307	0.119213	0.000075
C80	C	1.467640	0.452547	0.333408
C81	C	1.800973	0.785880	0.666741
C82	C	1.226604	0.121011	0.000076
C83	C	1.559938	0.454345	0.333409
C84	C	1.893271	0.787678	0.666742
C85	C	0.976507	0.294590	0.000054
C86	C	1.309840	0.627923	0.333387
C87	C	1.643173	0.961257	0.666721
C88	C	0.978306	0.396966	0.000047
C89	C	1.311639	0.730300	0.333381
C90	C	1.644973	1.063633	0.666714
N91	N	0.982308	0.125978	0.217060
N92	N	1.315641	0.459311	0.550393
N93	N	1.648974	0.792645	0.883726
N94	N	0.982327	0.125978	-0.216930
N95	N	1.315661	0.459311	0.116403
N96	N	1.648994	0.792644	0.449737
C97	C	1.038750	0.063290	0.452074
C98	C	1.372083	0.396624	0.785408
C99	C	1.705417	0.729957	1.118741
C100	C	1.038752	0.063288	0.548056
C101	C	1.372086	0.396622	0.881389
C102	C	1.705419	0.729955	1.214722
C103	C	0.925879	0.188668	0.548049
C104	C	1.259212	0.522001	0.881382
C105	C	1.592546	0.855335	1.214715
C106	C	0.925873	0.188665	0.452069
C107	C	1.259206	0.521999	0.785403
C108	C	1.592540	0.855332	1.118736
C109	C	0.982313	0.125977	0.404085
C110	C	1.315647	0.459311	0.737418
C111	C	1.648980	0.792644	1.070751
C112	C	0.982321	0.125978	0.596045
C113	C	1.315655	0.459311	0.929379
C114	C	1.648988	0.792645	1.262712
C115	C	0.982324	0.125976	0.700112
C116	C	1.315657	0.459309	1.033446
C117	C	1.648990	0.792643	1.366779
C118	C	0.982310	0.125978	0.300011
C119	C	1.315644	0.459311	0.633344
C120	C	1.648977	0.792645	0.966677
H121	H	0.560964	0.127521	-0.150745
H122	H	0.894297	0.460854	0.182588
H123	H	1.227630	0.794187	0.515921
Br124	Br	0.849269	0.273739	0.386933
Br125	Br	1.182602	0.607072	0.720266
Br126	Br	1.515936	0.940406	1.053599
Br127	Br	0.584535	0.127948	0.195985
Br128	Br	0.917868	0.461281	0.529318
Br129	Br	1.251201	0.794614	0.862651
H130	H	0.403657	0.124431	0.150878
H131	H	0.736990	0.457764	0.484212
H132	H	1.070323	0.791097	0.817545
Br133	Br	1.115345	-0.021787	0.386955
Br134	Br	1.448679	0.311546	0.720289
Br135	Br	1.782012	0.644879	1.053622
Br136	Br	1.115344	-0.021795	0.613183
Br137	Br	1.448677	0.311539	0.946516
Br138	Br	1.782010	0.644872	1.279850
H139	H	0.403639	0.124469	-0.150737
H140	H	0.736973	0.457803	0.182596
H141	H	1.070306	0.791136	0.515929
Br142	Br	0.849286	0.273743	0.613174
Br143	Br	1.182619	0.607076	0.946507
Br144	Br	1.515953	0.940410	1.279841
