data_functionalizedCrystal
_audit_creation_method	'MofGen! by Chris Wilmer'
_symmetry_space_group_name_H-M	'P1'
_symmetry_Int_Tables_number	1
_symmetry_cell_setting	triclinic
loop_
_symmetry_equiv_pos_as_xyz
  x,y,z
_cell_length_a	6.394989
_cell_length_b	17.699083
_cell_length_c	16.176319
_cell_angle_alpha	89.998611
_cell_angle_beta	89.996370
_cell_angle_gamma	84.890363
loop_
_atom_site_label
_atom_site_type_symbol
_atom_site_fract_x
_atom_site_fract_y
_atom_site_fract_z
O1	O	0.264132	1.006774	-0.068625
O2	O	0.298496	0.786747	-0.068651
O3	O	-0.022766	0.899883	-0.068639
O4	O	0.585394	0.893637	-0.068638
O5	O	-0.022787	0.899867	0.068855
O6	O	0.298475	0.786730	0.068842
O7	O	0.264111	1.006758	0.068868
Cu8	Cu	0.281291	0.896743	0.081409
Cu9	Cu	0.281315	0.896762	-0.081192
O10	O	0.585373	0.893621	0.068856
C11	C	0.297254	0.758529	0.000092
C12	C	0.293560	0.674473	0.000082
C13	C	0.482134	0.627777	0.000082
C14	C	0.478651	0.548798	0.000093
C15	C	0.286591	0.516517	0.000097
C16	C	0.098003	0.563220	0.000099
C17	C	0.101488	0.642197	0.000094
C18	C	0.083942	0.244713	0.000119
C19	C	0.080470	0.165730	0.000122
C20	C	0.461104	0.151314	0.000118
C21	C	0.464590	0.230291	0.000113
C22	C	0.276002	0.276987	0.000120
C23	C	0.279782	0.362625	0.000110
C24	C	0.282810	0.430881	0.000101
C25	C	0.663199	0.894864	0.000105
C26	C	0.899414	0.898639	0.000103
C27	C	0.265353	1.034976	0.000123
C28	C	0.269047	1.119031	0.000128
N29	N	0.281273	0.896735	0.195775
N30	N	0.281317	0.896776	-0.195558
C31	C	0.139076	0.946848	0.239044
C32	C	0.139074	0.946852	0.325591
C33	C	0.281280	0.896746	0.368867
C34	C	0.423484	0.846627	0.325591
C35	C	0.423474	0.846620	0.239046
C36	C	0.423523	0.846653	0.674620
C37	C	0.423526	0.846666	0.761171
C38	C	0.139123	0.946885	0.761165
C39	C	0.139113	0.946878	0.674620
C40	C	0.281308	0.896757	0.631351
C41	C	0.281306	0.896753	0.537507
C42	C	0.281294	0.896753	0.462710
H43	H	0.632207	0.510780	0.000092
H44	H	0.539263	0.805812	0.203816
O45	O	0.668887	0.659007	0.000114
C46	C	0.834578	0.600851	0.000097
H47	H	0.776290	0.546669	0.026131
H48	H	0.968689	0.618627	0.040013
H49	H	0.892736	0.590231	-0.065865
O50	O	0.651339	0.261524	0.000146
C51	C	0.817038	0.203371	0.000130
H52	H	0.758758	0.149187	0.026162
H53	H	0.951144	0.221149	0.040048
H54	H	0.875202	0.192754	-0.065832
O55	O	-0.099305	0.290032	-0.000027
C56	C	-0.215946	0.275100	-0.071224
H57	H	-0.105529	0.249176	-0.120996
H58	H	-0.300002	0.330306	-0.095127
H59	H	-0.336623	0.233746	-0.055124
O60	O	-0.081554	0.687639	-0.000020
C61	C	-0.090942	0.733740	-0.071241
H62	H	0.074826	0.739310	-0.094983
H63	H	-0.169039	0.792330	-0.055226
H64	H	-0.186204	0.706862	-0.121102
O65	O	0.644112	0.105842	0.000156
C66	C	0.599869	0.029212	0.000144
H67	H	0.435830	0.024620	0.026180
H68	H	0.720098	-0.005405	0.040061
H69	H	0.607903	0.006455	-0.065817
O70	O	0.000733	0.995549	0.197138
C71	C	-0.124739	1.039792	0.253893
H72	H	-0.126981	1.008746	0.315589
H73	H	-0.291588	1.049748	0.228894
H74	H	-0.057114	1.096658	0.263087
H75	H	-0.075937	0.139450	0.000126
H76	H	-0.058376	0.536930	0.000114
O77	O	0.000742	0.995431	0.367656
C78	C	-0.127964	0.953688	0.417742
H79	H	-0.131300	0.893968	0.391673
H80	H	-0.294080	0.982992	0.418720
H81	H	-0.062591	0.950352	0.483334
H82	H	0.023323	0.987682	0.639387
O83	O	0.561335	0.797919	0.367720
C84	C	0.449638	0.750160	0.417779
H85	H	0.286095	0.778748	0.430746
H86	H	0.536865	0.739025	0.478636
H87	H	0.435636	0.694088	0.384435
H88	H	0.023333	0.987694	0.796404
O89	O	0.561739	0.797912	0.803082
C90	C	0.687274	0.753683	0.746336
H91	H	0.601642	0.752008	0.684646
H92	H	0.719324	0.693551	0.771353
H93	H	0.842363	0.779724	0.737122
O94	O	0.561763	0.798081	0.632509
C95	C	0.690513	0.839836	0.582457
H96	H	0.607100	0.898258	0.569477
H97	H	0.723696	0.808554	0.521605
H98	H	0.844849	0.846462	0.615812
