data_functionalizedCrystal
_audit_creation_method	'MofGen! by Chris Wilmer'
_symmetry_space_group_name_H-M	'P1'
_symmetry_Int_Tables_number	1
_symmetry_cell_setting	triclinic
loop_
_symmetry_equiv_pos_as_xyz
  x,y,z
_cell_length_a	21.295419
_cell_length_b	21.295417
_cell_length_c	21.295411
_cell_angle_alpha	90.021644
_cell_angle_beta	90.024539
_cell_angle_gamma	90.045308
loop_
_atom_site_label
_atom_site_type_symbol
_atom_site_fract_x
_atom_site_fract_y
_atom_site_fract_z
Zn1	Zn	0.962356	-0.250432	0.355911
Zn2	Zn	1.462356	0.249568	0.855911
Zn3	Zn	0.962258	-0.355684	0.250637
Zn4	Zn	1.462258	0.144316	0.750637
Zn5	Zn	0.857079	-0.250460	0.250656
Zn6	Zn	1.357079	0.249540	0.750656
Zn7	Zn	0.857048	-0.355695	0.355868
Zn8	Zn	1.357048	0.144305	0.855868
O9	O	0.909685	-0.303068	0.303268
O10	O	1.409685	0.196932	0.803268
O11	O	1.050432	-0.264378	0.341956
O12	O	1.550432	0.235622	0.841956
O13	O	0.948278	-0.341733	0.162550
O14	O	1.448278	0.158267	0.662550
O15	O	0.871098	-0.162367	0.264645
O16	O	1.371098	0.337633	0.764645
O17	O	1.050360	-0.341706	0.264611
O18	O	1.550360	0.158294	0.764611
O19	O	0.948444	-0.162347	0.341975
O20	O	1.448444	0.337653	0.841975
O21	O	0.871003	-0.264425	0.162564
O22	O	1.371003	0.235575	0.662564
O23	O	0.768985	-0.264436	0.264603
O24	O	1.268985	0.235564	0.764603
O25	O	0.871045	-0.341724	0.443963
O26	O	1.371045	0.158276	0.943963
O27	O	0.768963	-0.341751	0.341902
O28	O	1.268963	0.158249	0.841902
O29	O	0.948414	-0.264388	0.443995
O30	O	1.448414	0.235612	0.943995
O31	O	0.948248	-0.443775	0.264570
O32	O	1.448248	0.056225	0.764570
O33	O	0.870951	-0.443783	0.341883
O34	O	1.370951	0.056217	0.841883
C35	C	0.746133	-0.303098	0.303250
C36	C	1.246133	0.196902	0.803250
C37	C	0.676165	-0.303126	0.303258
C38	C	1.176165	0.196874	0.803258
C39	C	0.643358	-0.262927	0.343593
C40	C	1.143358	0.237073	0.843593
C41	C	0.577616	-0.262910	0.343596
C42	C	1.077616	0.237090	0.843596
C43	C	0.544683	-0.303104	0.303269
C44	C	1.044683	0.196896	0.803269
C45	C	0.577498	-0.343305	0.262926
C46	C	1.077498	0.156695	0.762926
C47	C	0.643239	-0.343317	0.262920
C48	C	1.143239	0.156683	0.762920
N49	N	0.441407	-0.358181	0.298349
N50	N	0.941407	0.141819	0.798349
N51	N	0.378956	-0.358168	0.298359
N52	N	0.878956	0.141832	0.798359
C53	C	0.346608	-0.303071	0.303283
C54	C	0.846608	0.196929	0.803283
N55	N	0.379071	-0.247985	0.308210
N56	N	0.879071	0.252015	0.808210
N57	N	0.441528	-0.247999	0.308205
N58	N	0.941528	0.252001	0.808205
C59	C	0.473397	-0.303095	0.303271
C60	C	0.973397	0.196905	0.803271
C61	C	0.242516	-0.262850	0.343624
C62	C	0.742516	0.237150	0.843624
C63	C	0.176772	-0.262832	0.343622
C64	C	0.676772	0.237168	0.843622
C65	C	0.176655	-0.343233	0.262955
C66	C	0.676655	0.156767	0.762955
C67	C	0.242397	-0.343245	0.262953
C68	C	0.742397	0.156755	0.762953
C69	C	0.275324	-0.303055	0.303291
C70	C	0.775324	0.196945	0.803291
C71	C	0.909603	-0.466619	0.303233
C72	C	1.409603	0.033381	0.803233
C73	C	0.909625	-0.536588	0.303239
C74	C	1.409625	-0.036588	0.803239
C75	C	0.949909	-0.569429	0.263024
C76	C	1.449909	-0.069429	0.763024
C77	C	0.949939	-0.635172	0.263038
C78	C	1.449939	-0.135172	0.763038
C79	C	0.909673	-0.668070	0.303261
C80	C	1.409673	-0.168070	0.803261
C81	C	0.869385	-0.635220	0.343485
C82	C	1.369385	-0.135220	0.843485
C83	C	0.869361	-0.569479	0.343474
C84	C	1.369361	-0.069479	0.843474
N85	N	0.854606	-0.771351	0.308054
N86	N	1.354606	-0.271351	0.808054
N87	N	0.854630	-0.833802	0.308061
N88	N	1.354630	-0.333802	0.808061
C89	C	0.909743	-0.866145	0.303297
C90	C	1.409743	-0.366145	0.803297
N91	N	0.964832	-0.833676	0.298514
N92	N	1.464832	-0.333676	0.798514
N93	N	0.964807	-0.771219	0.298504
N94	N	1.464807	-0.271219	0.798504
C95	C	0.909694	-0.739355	0.303278
C96	C	1.409694	-0.239355	0.803278
C97	C	0.950063	-0.970272	0.263095
C98	C	1.450063	-0.470272	0.763095
C99	C	0.950093	-1.036016	0.263113
C100	C	1.450093	-0.536016	0.763113
C101	C	0.869534	-1.036063	0.343557
C102	C	1.369534	-0.536063	0.843557
C103	C	0.869510	-0.970321	0.343541
C104	C	1.369510	-0.470321	0.843541
C105	C	0.909773	-0.937429	0.303307
C106	C	1.409773	-0.437429	0.803307
C107	C	1.073875	-0.303038	0.303286
C108	C	1.573875	0.196962	0.803286
C109	C	1.143843	-0.303025	0.303294
C110	C	1.643843	0.196975	0.803294
C111	C	0.909737	-0.303055	0.467458
C112	C	1.409737	0.196945	0.967458
C113	C	0.909760	-0.303049	0.537426
C114	C	1.409760	0.196951	1.037426
C115	C	0.909785	-0.138878	0.303317
C116	C	1.409785	0.361122	0.803317
C117	C	0.909828	-0.068909	0.303338
C118	C	1.409828	0.431091	0.803338
C119	C	0.909669	-0.303036	0.139716
C120	C	1.409669	0.196964	0.639716
C121	C	0.909769	-0.302864	0.069749
C122	C	1.409769	0.197136	0.569749
C123	C	0.950044	-0.262778	0.570311
C124	C	1.450044	0.237222	1.070311
C125	C	0.950043	-0.262751	0.636053
C126	C	1.450043	0.237249	1.136053
C127	C	0.909764	-0.303006	0.668909
C128	C	1.409764	0.196994	1.168909
C129	C	0.869472	-0.343279	0.636017
C130	C	1.369472	0.156721	1.136017
C131	C	0.869470	-0.343301	0.570276
C132	C	1.369470	0.156699	1.070276
N133	N	0.904908	-0.358075	0.772124
N134	N	1.404908	0.141925	1.272124
N135	N	0.904914	-0.358052	0.834576
N136	N	1.404914	0.141948	1.334576
C137	C	0.909768	-0.302942	0.866984
C138	C	1.409768	0.197058	1.366984
N139	N	0.914629	-0.247853	0.834581
N140	N	1.414629	0.252147	1.334581
N141	N	0.914626	-0.247876	0.772124
N142	N	1.414626	0.252124	1.272124
C143	C	0.909762	-0.302986	0.740194
C144	C	1.409762	0.197014	1.240194
C145	C	0.950054	-0.262638	0.971154
C146	C	1.450054	0.237362	1.471154
C147	C	0.950049	-0.262610	1.036897
C148	C	1.450049	0.237390	1.536897
C149	C	0.869481	-0.343143	1.036860
C150	C	1.369481	0.156857	1.536860
C151	C	0.869483	-0.343166	0.971118
C152	C	1.369483	0.156834	1.471118
C153	C	0.909773	-0.302914	0.938268
C154	C	1.409773	0.197086	1.438268
H155	H	0.149841	-0.375959	0.230120
H156	H	0.649841	0.124041	0.730120
H157	H	0.836663	-0.376093	0.543502
H158	H	1.336663	0.123907	1.043502
O159	O	0.993506	-0.934798	0.219713
O160	O	1.493506	-0.434798	0.719713
H161	H	1.025501	-0.904796	0.247922
H162	H	1.525501	-0.404796	0.747922
O163	O	0.826032	-0.386560	1.072286
O164	O	1.326032	0.113440	1.572286
H165	H	0.854185	-0.418577	1.102245
H166	H	1.354185	0.081423	1.602245
O167	O	0.993499	-0.219220	0.935716
O168	O	1.493499	0.280780	1.435716
H169	H	1.021504	-0.191203	0.969630
H170	H	1.521504	0.308797	1.469630
H171	H	0.982846	-0.229954	0.662833
H172	H	1.482846	0.270046	1.162833
H173	H	0.269326	-0.230121	0.376465
H174	H	0.769326	0.269879	0.876465
O175	O	0.993497	-0.219172	1.072373
O176	O	1.493497	0.280828	1.572373
H177	H	1.042895	-0.229971	1.059783
H178	H	1.542895	0.270029	1.559783
H179	H	0.836683	-0.375963	0.944343
H180	H	1.336683	0.124037	1.444343
O181	O	0.678874	-0.219570	0.387087
O182	O	1.178874	0.280430	0.887087
H183	H	0.645012	-0.191607	0.415129
H184	H	1.145012	0.308393	0.915129
O185	O	0.542219	-0.219556	0.387107
O186	O	1.042219	0.280444	0.887107
H187	H	0.576159	-0.191615	0.415157
H188	H	1.076159	0.308385	0.915157
H189	H	0.550679	-0.376030	0.230091
H190	H	1.050679	0.123970	0.730091
H191	H	0.836675	-0.376052	0.662773
H192	H	1.336675	0.123948	1.162773
H193	H	0.982902	-1.062754	0.230366
H194	H	1.482902	-0.562754	0.730366
O195	O	0.678629	-0.386675	0.219412
O196	O	1.178629	0.113325	0.719412
H197	H	0.665973	-0.436095	0.230118
H198	H	1.165973	0.063905	0.730118
O199	O	0.141383	-0.219469	0.387125
O200	O	0.641383	0.280531	0.887125
H201	H	0.154007	-0.230346	0.436509
H202	H	0.654007	0.269654	0.936509
O203	O	0.277789	-0.386605	0.219451
O204	O	0.777789	0.113395	0.719451
H205	H	0.243846	-0.414554	0.191411
H206	H	0.743846	0.085446	0.691411
O207	O	0.993343	-0.533952	0.219639
O208	O	1.493343	-0.033952	0.719639
H209	H	1.021365	-0.567838	0.191681
H210	H	1.521365	-0.067838	0.691681
H211	H	0.982745	-0.661917	0.230289
H212	H	1.482745	-0.161917	0.730289
H213	H	0.836752	-1.062848	0.376310
H214	H	1.336752	-0.562848	0.876310
H215	H	0.836602	-0.662010	0.376236
H216	H	1.336602	-0.162010	0.876236
H217	H	0.836556	-0.542739	0.376223
H218	H	1.336556	-0.042739	0.876223
H219	H	0.836703	-0.943579	0.376286
H220	H	1.336703	-0.443579	0.876286
O221	O	0.993495	-0.219364	0.534879
O222	O	1.493495	0.280636	1.034879
H223	H	1.021504	-0.191353	0.568794
H224	H	1.521504	0.308647	1.068794
