data_functionalizedCrystal
_audit_creation_method	'MofGen! by Chris Wilmer'
_symmetry_space_group_name_H-M	'P1'
_symmetry_Int_Tables_number	1
_symmetry_cell_setting	triclinic
loop_
_symmetry_equiv_pos_as_xyz
  x,y,z
_cell_length_a	14.395555
_cell_length_b	14.395555
_cell_length_c	14.809374
_cell_angle_alpha	67.426180
_cell_angle_beta	90.002017
_cell_angle_gamma	59.996935
loop_
_atom_site_label
_atom_site_type_symbol
_atom_site_fract_x
_atom_site_fract_y
_atom_site_fract_z
Zr1	Zr	0.907074	0.992363	-0.107904
O2	O	0.773602	1.156437	-0.239243
O3	O	0.947997	0.807673	-0.067640
O4	O	0.967413	0.962627	-0.239232
O5	O	0.738863	1.032128	0.067702
O6	O	1.120286	0.962622	-0.239225
O7	O	0.754186	1.001483	-0.067651
O8	O	1.085555	0.685437	0.067722
O9	O	0.773593	1.309312	-0.239244
O10	O	1.079530	0.891270	-0.050464
O11	O	0.954006	0.914144	0.050543
O12	O	0.976865	1.096582	-0.151484
O13	O	0.851342	1.119456	-0.050477
Zr14	Zr	1.126450	1.041229	0.107981
Zr15	Zr	1.150889	0.992354	-0.107892
Zr16	Zr	0.882634	1.041237	0.107969
Zr17	Zr	0.907060	1.236181	-0.107906
Zr18	Zr	1.126463	0.797410	0.107983
O19	O	1.085526	1.225919	0.067717
O20	O	1.120275	1.156425	-0.239226
O21	O	0.738852	1.225931	0.067701
O22	O	1.259922	0.877155	0.239320
O23	O	1.294671	0.807661	-0.067624
O24	O	0.913248	0.877167	0.239304
O25	O	1.294661	1.001464	-0.067625
O26	O	1.066110	1.070965	0.239309
O27	O	0.913237	1.070970	0.239302
O28	O	1.279337	1.032109	0.067728
O29	O	0.967394	1.309306	-0.239235
O30	O	1.066129	0.724286	0.239312
O31	O	1.259930	0.724279	0.239321
O32	O	1.279356	0.685430	0.067731
O33	O	0.754167	1.348161	-0.067654
O34	O	0.947968	1.348155	-0.067645
O35	O	1.056658	0.937009	0.151561
O36	O	1.182181	0.914136	0.050554
O37	O	1.079517	1.119448	-0.050466
O38	O	0.953994	1.142322	0.050541
C39	C	1.016778	0.711816	0.000041
C40	C	1.016784	0.608309	0.000042
C41	C	1.085215	0.535256	-0.055041
C42	C	1.119544	0.418650	0.039939
C43	C	0.982460	0.540483	-0.094928
C44	C	1.051169	0.493015	0.095078
C45	C	0.914033	0.614907	-0.039857
C46	C	0.948329	0.498322	0.055180
C47	C	0.711786	1.016806	0.000024
C48	C	0.608280	1.016810	0.000019
C49	C	0.491713	1.128757	-0.055053
C50	C	0.465399	1.057526	-0.094962
C51	C	0.450171	1.088035	0.039922
C52	C	0.583336	0.945565	-0.039946
C53	C	0.568099	0.976104	0.094991
C54	C	0.541856	0.904787	0.055105
C55	C	1.321737	1.016785	0.000053
C56	C	1.425243	1.016782	0.000058
C57	C	1.047331	0.955661	-0.269986
C58	C	1.057707	0.934912	-0.361629
C59	C	1.016745	1.321776	0.000036
C60	C	1.016739	1.425283	0.000035
C61	C	1.011404	1.027511	-0.452600
C62	C	1.022126	1.006068	-0.547319
C63	C	0.986192	1.077931	0.270063
C64	C	0.975817	1.098679	0.361706
C65	C	1.321754	0.711805	0.000056
C66	C	1.425266	0.608295	0.000062
C67	C	0.986208	0.772951	0.270065
C68	C	0.975839	0.690192	0.361710
C69	C	1.291184	0.772940	0.270080
C70	C	1.384321	0.690178	0.361729
C71	C	0.742339	1.260651	-0.270003
C72	C	0.649203	1.343414	-0.361652
C73	C	0.711769	1.321786	0.000021
C74	C	0.608258	1.425297	0.000016
C75	C	1.047315	1.260641	-0.269988
C76	C	1.057684	1.343400	-0.361633
C77	C	1.024551	0.663266	0.457487
C78	C	1.014803	0.585521	0.543605
C79	C	0.956348	0.534697	0.533944
C80	C	0.907629	0.561630	0.438157
C81	C	0.917372	0.639381	0.352041
C82	C	1.493591	0.639372	0.352044
C83	C	1.581112	0.561620	0.438150
C84	C	1.559362	0.534668	0.533941
C85	C	1.450081	0.585483	0.543624
C86	C	1.362561	0.663241	0.457519
C87	C	0.539933	1.394231	-0.351967
C88	C	0.452411	1.472014	-0.438073
C89	C	0.474161	1.498970	-0.533864
C90	C	0.583443	1.448149	-0.543547
C91	C	0.670962	1.370375	-0.457442
C92	C	1.116147	1.394200	-0.351940
C93	C	1.125912	1.471950	-0.438042
C94	C	1.077206	1.498904	-0.533835
C95	C	1.018741	1.448094	-0.543526
C96	C	1.008984	1.370340	-0.457426
C97	C	1.541831	0.560195	0.055115
C98	C	1.568184	0.431112	0.095008
C99	C	1.583352	0.552984	-0.039878
C100	C	1.450248	0.480524	0.040011
C101	C	1.465426	0.602458	-0.094928
C102	C	1.491707	0.473379	-0.055058
H103	H	0.827179	0.698918	-0.073628
H104	H	0.471544	1.223402	-0.101696
C105	C	1.405366	0.701752	-0.203376
N106	N	1.360133	0.776549	-0.285061
C107	C	1.121985	0.806363	-0.351140
N108	N	1.170399	0.709537	-0.343237
C109	C	1.660758	0.592963	-0.085462
N110	N	1.719062	0.623077	-0.119790
H111	H	1.085159	1.562219	-0.603936
H112	H	0.953450	0.559501	-0.175239
C113	C	0.791159	1.314467	-0.468113
N114	N	0.881691	1.272357	-0.476157
H115	H	1.273591	0.704598	0.465419
H116	H	1.069712	0.910910	-0.539553
C117	C	0.863793	0.668976	0.246689
N118	N	0.823436	0.691260	0.167338
C119	C	1.190221	1.527833	-0.427359
N120	N	1.238658	1.569924	-0.419310
C121	C	1.169741	1.364560	-0.246574
N122	N	1.210118	1.342234	-0.167215
H123	H	0.522202	1.372288	-0.273977
C124	C	1.426173	0.555814	0.649003
N125	N	1.408169	0.533457	0.728378
C126	C	0.843338	0.505706	0.427547
N127	N	0.794919	0.463575	0.419559
H128	H	0.928236	1.193838	-0.646062
H129	H	0.640527	0.885362	-0.073769
H130	H	0.392844	1.148279	0.073653
H131	H	0.948424	0.471389	0.604074
H132	H	0.979088	1.470053	-0.621533
C133	C	0.607350	1.477802	-0.648926
N134	N	0.625354	1.500130	-0.728301
C135	C	1.088851	0.719167	0.468138
N136	N	1.137277	0.761274	0.476170
C137	C	1.068415	0.555897	0.648961
N138	N	1.108799	0.533583	0.728312
H139	H	1.143158	0.551807	-0.101541
C140	C	1.569056	0.611041	0.118137
N141	N	1.589558	0.649337	0.165608
H142	H	1.612638	0.357645	0.175301
C143	C	1.373028	0.440316	0.085726
N144	N	1.314866	0.410034	0.120162
H145	H	1.511321	0.661302	0.274054
H146	H	0.363437	1.513381	-0.430169
H147	H	1.670087	0.520252	0.430248
H148	H	0.402887	1.562301	-0.603968
H149	H	0.963830	1.122662	-0.460359
H150	H	1.630636	0.471351	0.604045
C151	C	1.464183	0.422623	-0.117989
N152	N	1.443455	0.384386	-0.165383
H153	H	0.562246	0.810041	0.101683
C154	C	1.090507	0.467067	0.203627
N155	N	1.120140	0.447524	0.285384
C156	C	1.236906	0.305172	0.085527
N157	N	1.325305	0.219703	0.119855
C158	C	0.870135	0.476067	0.118193
N159	N	0.811246	0.459295	0.165658
H160	H	0.420970	1.091928	-0.175263
H161	H	0.612527	0.941743	0.175274
H162	H	0.961373	1.328985	-0.465332
