data_functionalizedCrystal
_audit_creation_method	'MofGen! by Chris Wilmer'
_symmetry_space_group_name_H-M	'P1'
_symmetry_Int_Tables_number	1
_symmetry_cell_setting	triclinic
loop_
_symmetry_equiv_pos_as_xyz
  x,y,z
_cell_length_a	14.446369
_cell_length_b	14.446369
_cell_length_c	14.446369
_cell_angle_alpha	90.002026
_cell_angle_beta	120.003208
_cell_angle_gamma	119.999023
loop_
_atom_site_label
_atom_site_type_symbol
_atom_site_fract_x
_atom_site_fract_y
_atom_site_fract_z
Zr1	Zr	-1.013220	0.891783	-0.121557
O2	O	-1.206345	0.743976	-0.269386
O3	O	-0.820094	0.937092	-0.076224
O4	O	-1.013209	0.937095	-0.269356
O5	O	-1.013238	0.743973	0.076076
O6	O	-1.013201	1.089432	-0.269351
O7	O	-1.013230	0.743973	-0.076253
O8	O	-0.667753	1.089427	0.076128
O9	O	-1.358686	0.743978	-0.269403
O10	O	-0.899523	1.070105	-0.056904
O11	O	-0.899536	0.956418	0.056773
O12	O	-1.126903	0.956421	-0.170616
O13	O	-1.126916	0.842733	-0.056939
Zr14	Zr	-1.013220	1.134743	0.121399
Zr15	Zr	-1.013206	1.134743	-0.121548
Zr16	Zr	-1.013233	0.891783	0.121390
Zr17	Zr	-1.256185	0.891786	-0.121585
Zr18	Zr	-0.770254	1.134740	0.121427
O19	O	-1.206345	1.089434	0.076066
O20	O	-1.206326	1.089434	-0.269373
O21	O	-1.206364	0.743976	0.076053
O22	O	-0.820094	1.282550	0.269228
O23	O	-0.820075	1.282550	-0.076211
O24	O	-0.820113	0.937092	0.269215
O25	O	-1.013201	1.282552	-0.076233
O26	O	-1.013230	1.089431	0.269199
O27	O	-1.013238	0.937094	0.269193
O28	O	-1.013209	1.282552	0.076095
O29	O	-1.358675	0.937099	-0.269396
O30	O	-0.667764	1.089427	0.269238
O31	O	-0.667753	1.282548	0.269245
O32	O	-0.667743	1.282548	0.076135
O33	O	-1.358696	0.743978	-0.076293
O34	O	-1.358686	0.937098	-0.076286
O35	O	-0.899536	1.070105	0.170458
O36	O	-0.899523	1.183793	0.056781
O37	O	-1.126903	1.070108	-0.056930
O38	O	-1.126916	0.956420	0.056747
C39	C	-0.709306	1.013259	-0.000044
C40	C	-0.606161	1.013258	-0.000032
C41	C	-0.459154	0.941898	0.072002
C42	C	-0.566778	0.941511	0.071704
C43	C	-0.655155	0.960952	-0.123572
C44	C	-0.547918	0.960415	-0.123191
C45	C	-0.372691	1.136973	0.050433
C46	C	-0.478846	1.136792	0.052946
C47	C	-1.013236	0.709357	-0.000090
C48	C	-1.013242	0.606214	-0.000094
C49	C	-0.317125	1.013266	-0.000096
C50	C	-0.420245	1.013265	-0.000057
C51	C	-1.156636	0.387847	-0.071450
C52	C	-1.156732	0.495079	-0.071851
C53	C	-0.942005	0.602889	-0.052384
C54	C	-0.942915	0.495120	-0.052907
C55	C	-0.939972	0.496484	0.123644
C56	C	-0.942674	0.602453	0.123449
C57	C	-1.013203	1.013263	-0.303968
C58	C	-1.013197	1.013263	-0.407106
C59	C	-1.013203	1.317169	-0.000068
C60	C	-1.013197	1.420312	-0.000064
C61	C	-0.869803	1.085321	-0.482069
C62	C	-0.869707	1.085009	-0.374740
C63	C	-1.084434	0.889734	-0.481678
C64	C	-1.083524	0.890129	-0.588537
C65	C	-1.086467	1.063736	-0.590104
C66	C	-1.083765	1.066236	-0.481432
C67	C	-1.013236	1.013262	0.303811
C68	C	-1.013242	1.013262	0.406948
C69	C	-0.709289	1.317165	-0.000033
C70	C	-0.606138	1.420307	-0.000017
C71	C	-0.709323	1.013259	0.303845
C72	C	-0.606183	1.013257	0.406994
C73	C	-0.709306	1.317165	0.303857
C74	C	-0.606161	1.420306	0.407009
C75	C	-1.317133	0.709361	-0.304014
C76	C	-1.420278	0.606219	-0.407167
C77	C	-1.317150	0.709360	-0.000125
C78	C	-1.420301	0.606219	-0.000140
C79	C	-1.317116	1.013267	-0.304003
C80	C	-1.420256	1.013268	-0.407152
C81	C	-0.459812	1.638674	0.071332
C82	C	-0.566744	1.531443	0.071726
C83	C	-0.479278	1.423634	0.052294
C84	C	-0.371892	1.531401	0.052823
C85	C	-0.546867	1.530031	-0.123748
C86	C	-0.655348	1.424063	-0.123559
C87	C	-0.459868	0.941207	0.481991
C88	C	-0.566792	0.941512	0.374650
C89	C	-0.479319	1.136789	0.481567
C90	C	-0.371941	1.136400	0.588438
C91	C	-0.546929	0.962795	0.589998
C92	C	-0.655402	0.960289	0.481314
C93	C	-0.459822	1.495291	0.625386
C94	C	-0.566769	1.387958	0.518144
C95	C	-0.479304	1.494848	0.410338
C96	C	-0.371902	1.601712	0.518117
C97	C	-0.546852	1.603328	0.516758
C98	C	-0.655349	1.494652	0.410779
H99	H	-0.494921	0.851185	0.037292
H100	H	-0.439246	1.175868	0.143960
C101	C	-1.008839	0.605763	-0.174195
H102	H	-1.080144	0.608982	-0.193369
H103	H	-0.947463	0.670732	-0.179074
H104	H	-1.040170	0.539323	-0.225300
H105	H	-1.188447	1.019208	-0.506961
H106	H	-0.370161	1.494245	0.680365
C107	C	-0.249286	1.599428	0.175798
H108	H	-0.182703	1.665756	0.177205
H109	H	-0.270624	1.620348	0.220791
H110	H	-0.218877	1.554144	0.205262
C111	C	-0.427184	1.420756	0.174102
H112	H	-0.482544	1.417535	0.193262
H113	H	-0.425900	1.355786	0.178982
H114	H	-0.340968	1.487195	0.225216
H115	H	-0.745812	1.443256	0.411334
C116	C	-1.229212	0.993181	-0.695779
H117	H	-1.272959	1.024084	-0.693514
H118	H	-1.230353	0.994877	-0.762061
H119	H	-1.272394	0.917049	-0.696944
C120	C	-0.427222	1.425125	0.407460
H121	H	-0.482587	1.350605	0.404236
H122	H	-0.425938	1.421519	0.342490
H123	H	-0.341007	1.460232	0.473904
C124	C	-0.509326	1.317900	-0.014537
H125	H	-0.599724	1.270672	-0.075078
H126	H	-0.458622	1.340530	-0.044238
H127	H	-0.488190	1.277253	0.034476
C128	C	-0.331449	1.212883	0.694605
H129	H	-0.265615	1.213160	0.760578
H130	H	-0.298309	1.287919	0.692297
H131	H	-0.405446	1.184742	0.696442
C132	C	-0.510145	0.818014	0.478836
H133	H	-0.507436	0.809421	0.545169
H134	H	-0.597689	0.768062	0.413750
H135	H	-0.456294	0.800564	0.475673
C136	C	-1.232694	0.491785	-0.195125
H137	H	-1.233021	0.557381	-0.195792
H138	H	-1.191730	0.490025	-0.229323
H139	H	-1.320208	0.425918	-0.236311
H140	H	-0.586435	1.580049	-0.167440
H141	H	-0.813816	1.175972	-0.320457
H142	H	-1.212934	0.333891	-0.036554
C143	C	-1.226957	0.814046	-0.518481
H144	H	-1.244322	0.857213	-0.488617
H145	H	-1.284731	0.785982	-0.598893
H146	H	-1.239738	0.752257	-0.490615
H147	H	-0.370197	0.975892	0.480967
H148	H	-0.588620	0.869383	-0.163610
C149	C	-0.698740	1.529144	0.303853
H150	H	-0.687366	1.498525	0.255300
H151	H	-0.788369	1.500733	0.265236
H152	H	-0.647226	1.609463	0.325059
C153	C	-0.246099	1.195986	0.171468
H154	H	-0.221063	1.145722	0.192342
H155	H	-0.178339	1.262160	0.173963
H156	H	-0.260814	1.216454	0.222779
C157	C	-1.011306	0.427100	-0.175880
H158	H	-1.038279	0.465458	-0.225049
H159	H	-0.952187	0.420039	-0.181466
H160	H	-1.085671	0.353841	-0.197002
C161	C	-1.232242	0.492898	-0.024483
H162	H	-1.263139	0.426314	-0.004826
H163	H	-1.175737	0.557813	0.040969
H164	H	-1.304459	0.493194	-0.080387
C165	C	-0.516137	1.534747	0.195001
H166	H	-0.430064	1.601701	0.245033
H167	H	-0.572245	1.534344	0.211501
H168	H	-0.514853	1.470238	0.204526
H169	H	-0.281182	1.176807	0.588176
H170	H	-0.813458	1.050003	-0.320949
H171	H	-0.529320	1.334157	0.520591
H172	H	-0.522050	1.681547	0.489319
H173	H	-1.034962	0.849040	-0.430071
H174	H	-0.500343	1.194445	0.005919
C175	C	-0.600302	1.608898	0.584327
H176	H	-0.545876	1.613064	0.659632
H177	H	-0.601203	1.674169	0.585907
H178	H	-0.686802	1.542873	0.549137
C179	C	-0.516201	0.988764	0.301968
H180	H	-0.430137	1.007864	0.338013
H181	H	-0.572333	0.933030	0.229366
H182	H	-0.514903	1.054559	0.293695
H183	H	-1.040562	1.153327	-0.594212
C184	C	-0.698787	1.023830	0.515805
H185	H	-0.687391	1.083767	0.485202
H186	H	-0.788420	0.972821	0.487378
H187	H	-0.647283	1.054130	0.596128
C188	C	-1.015159	0.835531	-0.588181
H189	H	-0.988195	0.813326	-0.522855
H190	H	-1.074296	0.770826	-0.654372
H191	H	-0.940792	0.888767	-0.587073
H192	H	-0.813790	1.050633	-0.481030
H193	H	-0.747468	0.870790	-0.164271
C194	C	-1.013605	1.189177	-0.411959
H195	H	-0.941611	1.208152	-0.337962
H196	H	-0.982885	1.239060	-0.448173
H197	H	-1.073034	1.196158	-0.406861
C198	C	-0.800754	0.531116	0.012784
H199	H	-0.742703	0.611477	0.039665
H200	H	-0.781875	0.504020	0.075241
H201	H	-0.789981	0.500072	-0.036044
C202	C	-0.777611	1.424737	-0.176365
H203	H	-0.798594	1.422733	-0.123355
H204	H	-0.760571	1.491667	-0.195536
H205	H	-0.849116	1.360200	-0.242778
H206	H	-0.656096	1.533058	0.036642
C207	C	-0.799483	0.708621	0.014462
H208	H	-0.782118	0.755847	0.074996
H209	H	-0.741707	0.685989	0.044172
H210	H	-0.786705	0.749272	-0.034545
H211	H	-0.341933	1.680295	0.491470
C212	C	-0.687494	0.818629	0.301302
H213	H	-0.671469	0.768071	0.336988
H214	H	-0.761365	0.809674	0.292869
H215	H	-0.704090	0.802322	0.228795
H216	H	-0.341935	1.504747	0.004199
H217	H	-0.497050	1.692631	0.036426
H218	H	-0.530069	0.976596	0.162674
C219	C	-1.001991	0.428920	0.182651
H220	H	-1.073132	0.353616	0.132385
H221	H	-0.938302	0.427345	0.248835
H222	H	-1.032837	0.464106	0.203108
H223	H	-0.281153	1.601428	0.568457
H224	H	-0.994615	0.601935	0.162512
H225	H	-0.522139	1.015033	0.668217
H226	H	-0.440755	1.177479	0.429966
H227	H	-0.656119	1.333697	0.519757
H228	H	-0.370143	1.693659	0.162040
H229	H	-0.813504	1.176520	-0.479720
C230	C	-0.697817	1.317529	-0.201231
H231	H	-0.686148	1.269104	-0.159169
H232	H	-0.787377	1.278507	-0.262766
H233	H	-0.645820	1.339374	-0.229595
C234	C	-0.513383	1.492946	-0.195920
H235	H	-0.422691	1.523712	-0.150940
H236	H	-0.563059	1.412556	-0.222773
H237	H	-0.533713	1.519718	-0.258559
C238	C	-1.225684	0.813640	-0.694711
H239	H	-1.283735	0.782457	-0.672406
H240	H	-1.244576	0.857208	-0.740694
H241	H	-1.236444	0.754044	-0.736524
C242	C	-0.600401	0.841767	0.595546
H243	H	-0.545975	0.820886	0.599721
H244	H	-0.601318	0.839282	0.660808
H245	H	-0.686896	0.790458	0.529507
C246	C	-0.509364	1.212477	0.518348
H247	H	-0.599763	1.169309	0.488474
H248	H	-0.458664	1.240546	0.598758
H249	H	-0.488222	1.274263	0.490477
H250	H	-0.745902	0.869283	0.429880
H251	H	-0.370286	0.976798	0.163203
H252	H	-0.655584	0.850260	0.036697
H253	H	-0.837989	0.681610	0.181111
H254	H	-0.525943	1.009038	-0.179798
H255	H	-0.683935	1.010435	-0.179587
H256	H	-0.501548	1.522087	0.332076
C257	C	-0.337578	1.209149	-0.020120
H258	H	-0.351794	1.164171	-0.080047
H259	H	-0.391102	1.236014	-0.050835
H260	H	-0.248156	1.271777	0.026998
H261	H	-1.212654	0.332863	-0.162155
H262	H	-0.497051	1.492967	0.679347
H263	H	-0.834308	0.523921	0.177084
