data_functionalizedCrystal
_audit_creation_method	'MofGen! by Chris Wilmer'
_symmetry_space_group_name_H-M	'P1'
_symmetry_Int_Tables_number	1
_symmetry_cell_setting	triclinic
loop_
_symmetry_equiv_pos_as_xyz
  x,y,z
_cell_length_a	14.908571
_cell_length_b	21.295417
_cell_length_c	14.908858
_cell_angle_alpha	86.666582
_cell_angle_beta	89.795097
_cell_angle_gamma	86.725606
loop_
_atom_site_label
_atom_site_type_symbol
_atom_site_fract_x
_atom_site_fract_y
_atom_site_fract_z
Zn1	Zn	1.345257	-0.281183	-0.587558
Zn2	Zn	1.845257	0.218817	-0.087558
Zn3	Zn	1.353806	-0.392860	-0.437180
Zn4	Zn	1.853806	0.107140	0.062820
Zn5	Zn	1.203566	-0.281898	-0.428552
Zn6	Zn	1.703566	0.218102	0.071448
Zn7	Zn	1.194843	-0.380704	-0.578836
Zn8	Zn	1.694843	0.119296	-0.078836
O9	O	1.274368	-0.334161	-0.508031
O10	O	1.774368	0.165839	-0.008031
O11	O	1.472217	-0.300785	-0.574871
O12	O	1.972217	0.199215	-0.074871
O13	O	1.341105	-0.383527	-0.310207
O14	O	1.841105	0.116473	0.189793
O15	O	1.222434	-0.193715	-0.449684
O16	O	1.722434	0.306285	0.050316
O17	O	1.478498	-0.382834	-0.464388
O18	O	1.978498	0.117166	0.035612
O19	O	1.326535	-0.193189	-0.566505
O20	O	1.826535	0.306811	-0.066505
O21	O	1.230724	-0.302004	-0.303868
O22	O	1.730724	0.197996	0.196132
O23	O	1.076583	-0.290216	-0.441227
O24	O	1.576583	0.209784	0.058773
O25	O	1.207567	-0.362115	-0.705822
O26	O	1.707567	0.137885	-0.205822
O27	O	1.070175	-0.362809	-0.551640
O28	O	1.570175	0.137191	-0.051640
O29	O	1.318076	-0.288998	-0.712230
O30	O	1.818076	0.211002	-0.212230
O31	O	1.332647	-0.479335	-0.455931
O32	O	1.832647	0.020665	0.044069
O33	O	1.215857	-0.470404	-0.560006
O34	O	1.715857	0.029596	-0.060006
C35	C	1.040754	-0.325271	-0.494551
C36	C	1.540754	0.174729	0.005449
C37	C	0.940812	-0.321482	-0.488806
C38	C	1.440812	0.178518	0.011194
C39	C	1.274256	-0.497710	-0.507979
C40	C	1.774256	0.002290	-0.007979
C41	C	1.274289	-0.567679	-0.507992
C42	C	1.774289	-0.067679	-0.007992
C43	C	0.746393	-0.390085	-0.592828
C44	C	1.246393	0.109915	-0.092828
C45	C	0.652488	-0.386527	-0.587433
C46	C	1.152488	0.113473	-0.087433
C47	C	0.659095	-0.310805	-0.472625
C48	C	1.159095	0.189195	0.027375
C49	C	0.753000	-0.314363	-0.478020
C50	C	1.253000	0.185637	0.021980
C51	C	0.796646	-0.354005	-0.538123
C52	C	1.296646	0.145995	-0.038123
C53	C	0.890552	-0.357566	-0.543513
C54	C	1.390552	0.142434	-0.043513
C55	C	0.897157	-0.281842	-0.428710
C56	C	1.397157	0.218158	0.071290
C57	C	0.803252	-0.278284	-0.423315
C58	C	1.303252	0.221716	0.076685
C59	C	1.328458	-0.600212	-0.568860
C60	C	1.828458	-0.100212	-0.068860
C61	C	1.328489	-0.665955	-0.568884
C62	C	1.828489	-0.165955	-0.068884
C63	C	1.274360	-0.699163	-0.508024
C64	C	1.774360	-0.199163	-0.008024
C65	C	1.220179	-0.666622	-0.447152
C66	C	1.720179	-0.166622	0.052848
C67	C	1.220144	-0.600880	-0.447135
C68	C	1.720144	-0.100880	0.052865
N69	N	1.272107	-0.805522	-0.428941
N70	N	1.772107	-0.305522	0.071059
N71	N	1.272146	-0.867975	-0.428960
N72	N	1.772146	-0.367975	0.071040
C73	C	1.274463	-0.897240	-0.508071
C74	C	1.774463	-0.397240	-0.008071
N75	N	1.276756	-0.861694	-0.587166
N76	N	1.776756	-0.361694	-0.087166
N77	N	1.276722	-0.799237	-0.587147
N78	N	1.776722	-0.299237	-0.087147
C79	C	1.274392	-0.770449	-0.508036
C80	C	1.774392	-0.270449	-0.008036
C81	C	1.328668	-1.001059	-0.568970
C82	C	1.828668	-0.501059	-0.068970
C83	C	1.328692	-1.066802	-0.568995
C84	C	1.828692	-0.566802	-0.068995
C85	C	1.220388	-1.067469	-0.447255
C86	C	1.720388	-0.567469	0.052745
C87	C	1.220359	-1.001726	-0.447238
C88	C	1.720359	-0.501726	0.052762
C89	C	1.274504	-0.968525	-0.508094
C90	C	1.774504	-0.468525	-0.008094
C91	C	1.508894	-0.343086	-0.521565
C92	C	2.008894	0.156914	-0.021565
C93	C	1.608836	-0.346889	-0.527332
C94	C	2.108836	0.153111	-0.027332
C95	C	1.260895	-0.324121	-0.742564
C96	C	1.760895	0.175879	-0.242564
C97	C	1.255154	-0.319842	-0.842508
C98	C	1.755154	0.180158	-0.342508
C99	C	1.274504	-0.169973	-0.508105
C100	C	1.774504	0.330027	-0.008105
C101	C	1.274562	-0.100006	-0.508136
C102	C	1.774562	0.399994	-0.008136
C103	C	1.189599	-0.271368	-0.980073
C104	C	1.689599	0.228632	-0.480073
C105	C	1.194990	-0.275387	-0.886167
C106	C	1.694990	0.224613	-0.386167
C107	C	1.309933	-0.360280	-0.892761
C108	C	1.809933	0.139720	-0.392761
C109	C	1.304542	-0.356261	-0.986668
C110	C	1.804542	0.143739	-0.486668
C111	C	1.244372	-0.311804	-1.030320
C112	C	1.744372	0.188196	-0.530320
C113	C	1.238977	-0.307789	-1.124228
C114	C	1.738977	0.192211	-0.624228
C115	C	1.353924	-0.392678	-1.130821
C116	C	1.853924	0.107322	-0.630821
C117	C	1.359315	-0.396697	-1.036914
C118	C	1.859315	0.103303	-0.536914
C119	C	1.287840	-0.344119	-0.274415
C120	C	1.787840	0.155881	0.225585
C121	C	1.293756	-0.348227	-0.174481
C122	C	1.793756	0.151773	0.325519
H123	H	0.926087	-0.389846	-0.592450
H124	H	1.426087	0.110154	-0.092450
O125	O	0.951348	-0.242924	-0.369692
O126	O	1.451348	0.257076	0.130308
H127	H	0.991840	-0.210827	-0.412465
H128	H	1.491840	0.289173	0.087535
H129	H	1.372544	-0.573182	-0.618415
H130	H	1.872544	-0.073182	-0.118415
O131	O	1.162011	-1.103280	-0.381608
O132	O	1.662011	-0.603280	0.118392
H133	H	1.113942	-1.129792	-0.419179
H134	H	1.613942	-0.629792	0.080821
H135	H	1.408306	-0.432890	-1.001360
H136	H	1.908306	0.067110	-0.501360
H137	H	1.372592	-0.692448	-0.618460
H138	H	1.872592	-0.192448	-0.118460
O139	O	1.374829	-0.408221	-0.845666
O140	O	1.874829	0.091779	-0.345666
H141	H	1.412019	-0.435663	-0.896380
H142	H	1.912019	0.064337	-0.396380
O143	O	1.135912	-0.231772	-0.831975
O144	O	1.635912	0.268228	-0.331975
H145	H	1.149773	-0.242029	-0.759342
H146	H	1.649773	0.257971	-0.259342
H147	H	0.767703	-0.246007	-0.374384
H148	H	1.267703	0.253993	0.125616
H149	H	1.398529	-0.425601	-1.171742
H150	H	1.898529	0.074399	-0.671742
H151	H	1.372754	-0.974025	-0.618526
H152	H	1.872754	-0.474025	-0.118526
H153	H	1.176253	-0.975236	-0.397670
H154	H	1.676253	-0.475236	0.102330
O155	O	1.161807	-0.702435	-0.381497
O156	O	1.661807	-0.202435	0.118503
H157	H	1.170943	-0.753616	-0.391724
H158	H	1.670943	-0.253616	0.108276
O159	O	1.161729	-0.565785	-0.381472
O160	O	1.661729	-0.065785	0.118528
H161	H	1.124098	-0.599919	-0.339149
H162	H	1.624098	-0.099919	0.160851
H163	H	0.623541	-0.278527	-0.423698
H164	H	1.123541	0.221473	0.076302
O165	O	1.174096	-0.259836	-1.171321
O166	O	1.674096	0.240164	-0.671321
H167	H	1.104548	-0.268706	-1.149224
H168	H	1.604548	0.231294	-0.649224
O169	O	1.387119	-1.101897	-0.634650
O170	O	1.887119	-0.601897	-0.134650
H171	H	1.424766	-1.067763	-0.676956
H172	H	1.924766	-0.567763	-0.176956
O173	O	1.124714	-0.223420	-1.027172
O174	O	1.624714	0.276580	-0.527172
H175	H	1.055167	-0.232295	-1.005080
H176	H	1.555167	0.267705	-0.505080
O177	O	0.793478	-0.432838	-0.657647
O178	O	1.293478	0.067162	-0.157647
H179	H	0.742757	-0.457328	-0.694784
H180	H	1.242757	0.042672	-0.194784
H181	H	0.611576	-0.415905	-0.631981
H182	H	1.111576	0.084095	-0.131981
