data_functionalizedCrystal
_audit_creation_method	'MofGen! by Chris Wilmer'
_symmetry_space_group_name_H-M	'P1'
_symmetry_Int_Tables_number	1
_symmetry_cell_setting	triclinic
loop_
_symmetry_equiv_pos_as_xyz
  x,y,z
_cell_length_a	12.759401
_cell_length_b	19.805405
_cell_length_c	12.759393
_cell_angle_alpha	89.962891
_cell_angle_beta	89.979527
_cell_angle_gamma	90.027935
loop_
_atom_site_label
_atom_site_type_symbol
_atom_site_fract_x
_atom_site_fract_y
_atom_site_fract_z
Zn1	Zn	1.606176	-0.269399	-0.593976
Zn2	Zn	2.106176	0.230601	-0.093976
Zn3	Zn	1.606033	-0.382603	-0.418277
Zn4	Zn	2.106033	0.117397	0.081723
Zn5	Zn	1.430476	-0.269436	-0.418311
Zn6	Zn	1.930476	0.230564	0.081689
Zn7	Zn	1.430431	-0.382555	-0.593915
Zn8	Zn	1.930431	0.117445	-0.093915
O9	O	1.518279	-0.325998	-0.506120
O10	O	2.018279	0.174002	-0.006120
O11	O	1.753178	-0.284421	-0.570681
O12	O	2.253178	0.215579	-0.070681
O13	O	1.582704	-0.367627	-0.271261
O14	O	2.082704	0.132373	0.228739
O15	O	1.453862	-0.174715	-0.441653
O16	O	1.953862	0.325285	0.058347
O17	O	1.753073	-0.367591	-0.441596
O18	O	2.253073	0.132409	0.058404
O19	O	1.582948	-0.174688	-0.570713
O20	O	2.082948	0.325312	-0.070713
O21	O	1.453723	-0.284484	-0.271285
O22	O	1.953723	0.215516	0.228715
O23	O	1.283449	-0.284437	-0.441594
O24	O	1.783449	0.215563	0.058406
O25	O	1.453785	-0.367509	-0.740944
O26	O	1.953785	0.132491	-0.240944
O27	O	1.283416	-0.367545	-0.570609
O28	O	1.783416	0.132455	-0.070609
O29	O	1.582904	-0.284374	-0.740989
O30	O	2.082904	0.215626	-0.240989
O31	O	1.582660	-0.477313	-0.441536
O32	O	2.082660	0.022687	0.058464
O33	O	1.453646	-0.477278	-0.570576
O34	O	1.953646	0.022722	-0.070576
C35	C	1.245312	-0.325990	-0.506099
C36	C	1.745312	0.174010	-0.006099
C37	C	1.128535	-0.326003	-0.506115
C38	C	1.628535	0.173997	-0.006115
C39	C	1.518161	-0.501854	-0.506069
C40	C	2.018161	-0.001854	-0.006069
C41	C	1.518206	-0.577086	-0.506082
C42	C	2.018206	-0.077086	-0.006082
C43	C	1.073683	-0.369343	-0.573187
C44	C	1.573683	0.130657	-0.073187
C45	C	0.963959	-0.369345	-0.573208
C46	C	1.463959	0.130655	-0.073208
C47	C	0.963948	-0.282666	-0.439075
C48	C	1.463948	0.217334	0.060925
C49	C	1.073670	-0.282661	-0.439060
C50	C	1.573670	0.217339	0.060940
C51	C	1.585449	-0.612426	-0.438962
C52	C	2.085449	-0.112426	0.061038
C53	C	1.585494	-0.683115	-0.438985
C54	C	2.085494	-0.183115	0.061015
C55	C	1.518289	-0.718462	-0.506124
C56	C	2.018289	-0.218462	-0.006124
C57	C	1.451044	-0.683117	-0.573252
C58	C	1.951044	-0.183117	-0.073252
C59	C	1.451005	-0.612430	-0.573234
C60	C	1.951005	-0.112430	-0.073234
C61	C	1.451199	-0.968190	-0.573330
C62	C	1.951199	-0.468190	-0.073330
C63	C	1.451240	-1.038882	-0.573342
C64	C	1.951240	-0.538882	-0.073342
C65	C	1.585687	-1.038875	-0.439081
C66	C	2.085687	-0.538875	0.060919
C67	C	1.585649	-0.968188	-0.439063
C68	C	2.085649	-0.468188	0.060937
C69	C	1.518407	-0.932849	-0.506194
C70	C	2.018407	-0.432849	-0.006194
C71	C	1.518361	-0.856201	-0.506170
C72	C	2.018361	-0.356201	-0.006170
C73	C	1.518330	-0.795109	-0.506144
C74	C	2.018330	-0.295109	-0.006144
C75	C	1.792312	-0.326007	-0.506141
C76	C	2.292312	0.173993	-0.006141
C77	C	1.909089	-0.326011	-0.506150
C78	C	2.409089	0.173989	-0.006150
C79	C	1.518355	-0.325932	-0.780153
C80	C	2.018355	0.174068	-0.280153
C81	C	1.518388	-0.325903	-0.896930
C82	C	2.018388	0.174097	-0.396930
C83	C	1.518426	-0.149456	-0.506194
C84	C	2.018426	0.350544	-0.006194
C85	C	1.518489	-0.074223	-0.506225
C86	C	2.018489	0.425777	-0.006225
C87	C	1.585647	-0.282582	-1.061548
C88	C	2.085647	0.217418	-0.561548
C89	C	1.585627	-0.282609	-0.951824
C90	C	2.085627	0.217391	-0.451824
C91	C	1.451172	-0.369179	-0.951766
C92	C	1.951172	0.130821	-0.451766
C93	C	1.451198	-0.369156	-1.061488
C94	C	1.951198	0.130844	-0.561488
C95	C	1.518263	-0.326016	-0.233152
C96	C	2.018263	0.173984	0.266848
C97	C	1.518434	-0.325854	-0.116376
C98	C	2.018434	0.174146	0.383624
H99	H	1.118351	-0.404633	-0.627790
H100	H	1.618351	0.095367	-0.127790
H101	H	1.396329	-0.711902	-0.627923
H102	H	1.896329	-0.211902	-0.127923
H103	H	1.396430	-0.404433	-0.907062
H104	H	1.896430	0.095567	-0.407062
Br105	Br	1.359985	-0.427892	-1.135904
Br106	Br	1.859985	0.072108	-0.635904
Br107	Br	1.148119	-0.223831	-0.348037
Br108	Br	1.648119	0.276169	0.151963
H109	H	1.640442	-1.067657	-0.384424
H110	H	2.140442	-0.567657	0.115576
H111	H	1.640249	-0.711886	-0.384328
H112	H	2.140249	-0.211886	0.115672
H113	H	1.396516	-1.067660	-0.628022
H114	H	1.896516	-0.567660	-0.128022
Br115	Br	1.359750	-0.564467	-0.664336
Br116	Br	1.859750	-0.064467	-0.164336
H117	H	0.919304	-0.404636	-0.627827
H118	H	1.419304	0.095364	-0.127827
Br119	Br	1.676891	-0.223813	-1.136037
Br120	Br	2.176891	0.276187	-0.636037
H121	H	1.640369	-0.939411	-0.384388
H122	H	2.140369	-0.439411	0.115612
H123	H	1.396446	-0.939422	-0.627989
H124	H	1.896446	-0.439422	-0.127989
H125	H	0.919264	-0.247380	-0.384480
H126	H	1.419264	0.252620	0.115520
Br127	Br	1.676650	-0.564462	-0.347829
Br128	Br	2.176650	-0.064462	0.152171
H129	H	1.640359	-0.247374	-0.907188
H130	H	2.140359	0.252626	-0.407188
