data_functionalizedCrystal
_audit_creation_method	'MofGen! by Chris Wilmer'
_symmetry_space_group_name_H-M	'P1'
_symmetry_Int_Tables_number	1
_symmetry_cell_setting	triclinic
loop_
_symmetry_equiv_pos_as_xyz
  x,y,z
_cell_length_a	9.065215
_cell_length_b	9.065218
_cell_length_c	7.540329
_cell_angle_alpha	89.995865
_cell_angle_beta	89.997358
_cell_angle_gamma	85.015291
loop_
_atom_site_label
_atom_site_type_symbol
_atom_site_fract_x
_atom_site_fract_y
_atom_site_fract_z
O1	O	0.216355	1.960396	-0.147528
O2	O	0.549688	2.293730	0.185805
O3	O	0.883022	2.627063	0.519138
O4	O	0.234101	1.531111	-0.147521
O5	O	0.567435	1.864445	0.185813
O6	O	0.900768	2.197778	0.519146
O7	O	0.010586	1.754629	-0.147517
O8	O	0.343919	2.087963	0.185816
O9	O	0.677252	2.421296	0.519150
O10	O	0.439871	1.736878	-0.147532
O11	O	0.773204	2.070212	0.185802
O12	O	1.106538	2.403545	0.519135
O13	O	0.010583	1.754616	0.147448
O14	O	0.343916	2.087949	0.480781
O15	O	0.677249	2.421282	0.814115
O16	O	0.234099	1.531098	0.147445
O17	O	0.567432	1.864431	0.480778
O18	O	0.900765	2.197764	0.814111
O19	O	0.216352	1.960383	0.147437
O20	O	0.549685	2.293716	0.480770
O21	O	0.883019	2.627049	0.814104
Cu22	Cu	0.225225	1.745739	0.174373
Cu23	Cu	0.558558	2.079072	0.507707
Cu24	Cu	0.891892	2.412406	0.841040
Cu25	Cu	0.225228	1.745755	-0.174457
Cu26	Cu	0.558562	2.079088	0.158876
Cu27	Cu	0.891895	2.412422	0.492210
O28	O	0.439868	1.736865	0.147433
O29	O	0.773201	2.070198	0.480767
O30	O	1.106535	2.403531	0.814100
C31	C	-0.044403	1.752917	-0.000036
C32	C	0.288931	2.086251	0.333297
C33	C	0.622264	2.419584	0.666630
C34	C	-0.208246	1.747819	-0.000042
C35	C	0.125088	2.081153	0.333292
C36	C	0.458421	2.414486	0.666625
C37	C	0.232394	1.476118	-0.000037
C38	C	0.565728	1.809451	0.333296
C39	C	0.899061	2.142785	0.666630
C40	C	0.227295	1.312275	-0.000034
C41	C	0.560628	1.645608	0.333299
C42	C	0.893961	1.978942	0.666633
N43	N	0.225222	1.745739	0.419722
N44	N	0.558555	2.079072	0.753055
N45	N	0.891888	2.412405	1.086388
C46	C	0.494856	1.738576	-0.000051
C47	C	0.828189	2.071910	0.333282
C48	C	1.161523	2.405243	0.666615
C49	C	0.658699	1.743674	-0.000058
C50	C	0.992033	2.077008	0.333276
C51	C	1.325366	2.410341	0.666609
C52	C	0.218059	2.015376	-0.000051
C53	C	0.551392	2.348709	0.333283
C54	C	0.884726	2.682043	0.666616
C55	C	0.223159	2.179219	-0.000065
C56	C	0.556492	2.512552	0.333268
C57	C	0.889825	2.845886	0.666601
N58	N	0.225220	1.745767	-0.419805
N59	N	0.558553	2.079100	-0.086472
N60	N	0.891887	2.412434	0.246861
