data_functionalizedCrystal
_audit_creation_method	'MofGen! by Chris Wilmer'
_symmetry_space_group_name_H-M	'P1'
_symmetry_Int_Tables_number	1
_symmetry_cell_setting	triclinic
loop_
_symmetry_equiv_pos_as_xyz
  x,y,z
_cell_length_a	14.971486
_cell_length_b	14.519709
_cell_length_c	13.448316
_cell_angle_alpha	89.992453
_cell_angle_beta	89.998199
_cell_angle_gamma	83.647137
loop_
_atom_site_label
_atom_site_type_symbol
_atom_site_fract_x
_atom_site_fract_y
_atom_site_fract_z
O1	O	1.187015	0.120184	-0.082580
O2	O	0.926623	0.134576	-0.082607
O3	O	1.063723	-0.006863	-0.082584
O4	O	1.049915	0.261623	-0.082603
O5	O	1.063706	-0.006871	0.082800
O6	O	0.926606	0.134567	0.082777
O7	O	1.186998	0.120175	0.082804
Cu8	Cu	1.056800	0.127371	0.097891
Cu9	Cu	1.056820	0.127381	-0.097694
O10	O	1.049898	0.261614	0.082781
C11	C	0.893289	0.133928	0.000082
C12	C	0.793991	0.131999	0.000071
C13	C	0.736812	0.215091	0.000067
C14	C	0.643512	0.213273	0.000082
C15	C	0.607392	0.128363	0.000094
C16	C	0.664578	0.045265	0.000102
C17	C	0.757876	0.047084	0.000094
C18	C	0.470113	0.041480	0.000116
C19	C	0.376808	0.039661	0.000122
C20	C	0.355749	0.207669	0.000104
C21	C	0.449047	0.209488	0.000096
C22	C	0.506227	0.126390	0.000101
C23	C	1.063071	-0.041226	0.000108
C24	C	1.061142	-0.143606	0.000109
C25	C	1.054043	-0.518498	0.000082
C26	C	1.056015	-0.414191	0.000090
C27	C	1.057593	-0.331055	0.000096
C28	C	1.059564	-0.226742	0.000102
C29	C	1.220331	0.120823	0.000113
C30	C	1.319630	0.122752	0.000117
C31	C	1.050550	0.295978	0.000087
C32	C	1.052478	0.398358	0.000080
N33	N	1.056792	0.127363	0.235456
N34	N	1.056835	0.127381	-0.235258
C35	C	1.117519	0.064759	0.287506
C36	C	1.117525	0.064759	0.391610
C37	C	1.056807	0.127366	0.443660
C38	C	0.996074	0.189973	0.391602
C39	C	0.996065	0.189968	0.287501
C40	C	0.996099	0.189979	0.608582
C41	C	0.996109	0.189985	0.712691
C42	C	1.117559	0.064769	0.712691
C43	C	1.117549	0.064765	0.608590
C44	C	1.056817	0.127373	0.556539
H45	H	0.596960	0.280934	0.000077
H46	H	0.804431	-0.020578	0.000097
O47	O	0.936967	0.250695	0.442119
C48	C	0.848403	0.235561	0.416681
H49	H	0.847853	0.161721	0.388077
H50	H	0.822202	0.286631	0.356250
C51	C	0.788475	0.340476	0.544298
C52	C	0.787798	0.249783	0.509174
H53	H	0.751088	0.349253	0.601350
H54	H	0.848141	0.350676	0.561434
H55	H	0.766642	0.383025	0.493931
H56	H	0.809640	0.207237	0.559536
H57	H	0.728133	0.239577	0.492048
H58	H	1.166966	0.013781	0.245134
O59	O	1.176611	0.003922	0.442017
C60	C	1.230193	-0.051344	0.373753
H61	H	1.231242	-0.013535	0.299537
H62	H	1.201061	-0.119914	0.362704
C63	C	1.325369	-0.116601	0.505518
C64	C	1.326664	-0.070158	0.414367
H65	H	1.384876	-0.128210	0.530572
H66	H	1.289268	-0.079370	0.551510
H67	H	1.301088	-0.173737	0.496298
H68	H	1.350934	-0.013018	0.423591
H69	H	1.362771	-0.107380	0.368378
H70	H	1.166994	0.013790	0.566210
H71	H	1.167009	0.013792	0.755077
O72	O	0.483988	0.292048	0.000126
C73	C	0.413516	0.365003	0.000099
H74	H	0.350095	0.339085	0.031417
H75	H	0.400354	0.390643	-0.079246
C76	C	0.517881	0.476904	0.026481
C77	C	0.439989	0.445073	0.064954
H78	H	0.534211	0.526297	0.066482
H79	H	0.565360	0.427754	0.026495
H80	H	0.506902	0.498264	-0.039639
H81	H	0.450971	0.423704	0.131068
H82	H	0.392512	0.494222	0.064953
H83	H	0.946665	0.240965	0.755065
H84	H	0.309188	0.275331	0.000103
O85	O	0.937227	0.250834	0.557908
C86	C	0.985213	0.307823	0.497693
H87	H	1.055143	0.271208	0.482096
H88	H	0.991400	0.375995	0.537797
C89	C	0.848921	0.372415	0.417964
C90	C	0.934808	0.327440	0.398802
H91	H	0.817828	0.384520	0.356966
H92	H	0.816591	0.334023	0.458535
H93	H	0.854089	0.429220	0.451387
H94	H	0.929639	0.270631	0.365391
H95	H	0.967136	0.365823	0.358223
H96	H	0.347403	-0.029481	0.000133
H97	H	0.766213	0.284234	0.000056
O98	O	0.525531	-0.039327	0.000072
C99	C	0.473647	-0.114662	0.000103
H100	H	0.404049	-0.091328	-0.031198
H101	H	0.466971	-0.140695	0.079447
C102	C	0.605485	-0.221965	-0.026318
C103	C	0.520006	-0.193308	-0.064770
H104	H	0.634083	-0.270481	-0.066330
H105	H	0.640442	-0.171212	-0.026335
H106	H	0.599910	-0.243654	0.039801
H107	H	0.525583	-0.171610	-0.130883
H108	H	0.485052	-0.244061	-0.064765
H109	H	0.635162	-0.023871	0.000126
H110	H	0.946614	0.240945	0.245122
