data_functionalizedCrystal
_audit_creation_method	'MofGen! by Chris Wilmer'
_symmetry_space_group_name_H-M	'P1'
_symmetry_Int_Tables_number	1
_symmetry_cell_setting	triclinic
loop_
_symmetry_equiv_pos_as_xyz
  x,y,z
_cell_length_a	25.639242
_cell_length_b	16.120530
_cell_length_c	16.120297
_cell_angle_alpha	90.128140
_cell_angle_beta	87.109755
_cell_angle_gamma	92.903276
loop_
_atom_site_label
_atom_site_type_symbol
_atom_site_fract_x
_atom_site_fract_y
_atom_site_fract_z
Zn1	Zn	0.264897	1.247605	-0.534695
Zn2	Zn	0.348132	1.254607	-0.395678
Zn3	Zn	0.256061	1.115590	-0.388608
Zn4	Zn	0.347651	1.108563	-0.527647
O5	O	0.304185	1.181591	-0.461657
O6	O	0.279837	1.364902	-0.522162
O7	O	0.332423	1.242037	-0.278373
O8	O	0.184068	1.133112	-0.407978
O9	O	0.340990	1.370047	-0.420027
O10	O	0.190559	1.230103	-0.515307
O11	O	0.264778	1.139902	-0.273179
O12	O	0.264312	0.998289	-0.401144
O13	O	0.340170	1.121136	-0.644949
O14	O	0.331602	0.993127	-0.503295
O15	O	0.279370	1.223289	-0.650127
O16	O	0.421234	1.235224	-0.413193
O17	O	0.420880	1.127926	-0.510150
C18	C	0.296946	0.965535	-0.450688
C19	C	0.293863	0.873104	-0.446015
C20	C	0.288221	0.703871	-0.437491
C21	C	0.320190	0.660149	-0.485883
C22	C	0.317051	0.565982	-0.481141
C23	C	0.291359	0.798046	-0.442233
C24	C	0.167812	1.181610	-0.461640
C25	C	0.109698	1.181618	-0.461633
C26	C	-0.250851	1.125789	-0.512191
C27	C	-0.305455	1.125795	-0.512201
O28	O	-0.333851	1.078310	-0.555156
N29	N	-0.332580	1.181659	-0.461723
C30	C	-0.305099	1.237527	-0.411237
O31	O	-0.333185	1.285045	-0.368303
C32	C	-0.250495	1.237524	-0.411232
C33	C	-0.223373	1.181650	-0.461708
C34	C	-0.223728	1.069921	-0.562663
C35	C	-0.169128	1.069914	-0.562652
C36	C	-0.141651	1.125775	-0.512168
C37	C	-0.168773	1.181643	-0.461696
C38	C	-0.223015	1.293394	-0.360751
C39	C	-0.168408	1.293387	-0.360751
C40	C	-0.141286	1.237513	-0.411227
C41	C	-0.086696	1.237497	-0.411201
N42	N	-0.059570	1.181633	-0.461680
C43	C	-0.087048	1.125772	-0.512163
C44	C	-0.419769	1.237529	-0.411253
C45	C	-0.474371	1.237529	-0.411253
C46	C	-0.474723	1.125798	-0.512219
C47	C	-0.420120	1.125795	-0.512213
C48	C	-0.392643	1.181665	-0.461731
C49	C	0.027616	1.125761	-0.512135
C50	C	0.082221	1.125756	-0.512116
C51	C	0.082568	1.237490	-0.411154
C52	C	0.027968	1.237492	-0.411169
C53	C	0.000494	1.181624	-0.461666
O54	O	-0.058265	1.284961	-0.368270
O55	O	-0.058954	1.078269	-0.555098
C56	C	0.440029	1.181594	-0.461693
C57	C	0.498147	1.181670	-0.461740
C58	C	0.310702	1.170648	-0.678554
C59	C	0.313479	1.165985	-0.770983
C60	C	0.311453	1.398491	-0.472669
C61	C	0.314550	1.490921	-0.477362
C62	C	0.318536	1.157440	-0.940210
C63	C	0.289683	1.205906	-0.983964
C64	C	0.292497	1.201152	-1.078127
C65	C	0.315723	1.162193	-0.846038
C66	C	0.297658	1.192540	-0.245606
C67	C	0.294739	1.197364	-0.153186
H68	H	0.349918	0.693440	-0.530877
C69	C	-0.389547	1.298982	-0.355708
C70	C	-0.400138	1.296959	-0.260832
C71	C	-0.369920	1.358412	-0.205288
C72	C	-0.329112	1.421889	-0.244621
C73	C	-0.318519	1.423915	-0.339502
C74	C	-0.348737	1.362462	-0.395045
H75	H	-0.430348	1.249967	-0.231711
H76	H	-0.377761	1.356912	-0.135051
H77	H	-0.306743	1.467380	-0.203504
H78	H	-0.288309	1.470907	-0.368622
H79	H	-0.340896	1.363962	-0.465282
H80	H	0.104301	1.080256	-0.553221
H81	H	0.262868	1.250968	-0.950703
H82	H	0.345349	1.112381	-0.973469
C83	C	0.112799	1.298936	-0.355623
C84	C	0.108665	1.393129	-0.367214
C85	C	0.138897	1.454580	-0.311686
C86	C	0.173261	1.421838	-0.244567
C87	C	0.177396	1.327640	-0.232973
C88	C	0.147165	1.266189	-0.288501
H89	H	0.083225	1.417371	-0.416902
H90	H	0.135835	1.524312	-0.320269
H91	H	0.195641	1.467328	-0.203462
H92	H	0.202837	1.303398	-0.183285
H93	H	0.150226	1.196457	-0.279918
C94	C	-0.253947	1.008464	-0.618200
C95	C	-0.249798	0.914274	-0.606604
C96	C	-0.280012	0.852808	-0.662140
C97	C	-0.314374	0.885532	-0.729271
C98	C	-0.318525	0.979726	-0.740870
C99	C	-0.288311	1.041192	-0.685335
H100	H	-0.224360	0.890046	-0.556906
H101	H	-0.276940	0.783079	-0.653553
H102	H	-0.336741	0.840031	-0.770382
H103	H	-0.343963	1.003954	-0.790568
H104	H	-0.291383	1.110921	-0.693921
C105	C	-0.504954	1.064353	-0.567760
C106	C	-0.545769	1.000892	-0.528420
C107	C	-0.576000	0.939451	-0.583958
C108	C	-0.565417	0.941471	-0.678835
C109	C	-0.524600	1.004935	-0.718180
C110	C	-0.494368	1.066376	-0.662642
H111	H	-0.553605	0.999394	-0.458182
H112	H	-0.606216	0.892470	-0.554832
H113	H	-0.587796	0.895989	-0.719947
H114	H	-0.516764	1.006433	-0.788418
H115	H	-0.464153	1.113356	-0.691768
C116	C	0.248065	0.658904	-0.376706
C117	C	0.244948	0.563371	-0.371988
C118	C	0.204796	0.518393	-0.311200
C119	C	0.167760	0.568949	-0.255131
C120	C	0.170876	0.664489	-0.259847
C121	C	0.211029	0.709466	-0.320634
H122	H	0.272366	0.525941	-0.413495
H123	H	0.202490	0.447668	-0.307710
H124	H	0.138037	0.535654	-0.210133
H125	H	0.143459	0.701918	-0.218339
H126	H	0.213335	0.780191	-0.324125
C127	C	-0.002601	1.064303	-0.567676
C128	C	-0.043411	1.000834	-0.528335
C129	C	-0.073629	0.939373	-0.583870
C130	C	-0.063037	0.941380	-0.678745
C131	C	-0.022225	1.004851	-0.718091
C132	C	0.007993	1.066313	-0.662556
H133	H	-0.051254	0.999346	-0.458098
H134	H	-0.103841	0.892387	-0.554743
H135	H	-0.085406	0.895882	-0.719856
H136	H	-0.014382	1.006339	-0.788329
H137	H	0.038205	1.113298	-0.691683
C138	C	-0.504202	1.298985	-0.355721
C139	C	-0.499767	1.296967	-0.260843
C140	C	-0.529595	1.358429	-0.205313
C141	C	-0.563857	1.421908	-0.244662
C142	C	-0.568293	1.423928	-0.339545
C143	C	-0.538465	1.362467	-0.395075
H144	H	-0.474403	1.249973	-0.231710
H145	H	-0.526311	1.356933	-0.135074
H146	H	-0.585938	1.467406	-0.203555
H147	H	-0.593657	1.470922	-0.368678
H148	H	-0.541749	1.363962	-0.465314
C149	C	-0.001867	1.298953	-0.355645
C150	C	-0.036123	1.362432	-0.395008
C151	C	-0.065952	1.423903	-0.339492
C152	C	-0.061525	1.421895	-0.244612
C153	C	-0.027268	1.358413	-0.205243
C154	C	0.002561	1.296942	-0.260760
H155	H	-0.039401	1.363921	-0.465249
H156	H	-0.091312	1.470896	-0.368635
H157	H	-0.083607	1.467399	-0.203515
H158	H	-0.023990	1.356924	-0.135003
H159	H	0.027920	1.249949	-0.231616
H160	H	-0.398040	1.080303	-0.553320
H161	H	-0.147050	1.024414	-0.603753
H162	H	-0.245090	1.338892	-0.319650
H163	H	-0.146039	1.338887	-0.319644
