data_functionalizedCrystal
_audit_creation_method	'MofGen! by Chris Wilmer'
_symmetry_space_group_name_H-M	'P1'
_symmetry_Int_Tables_number	1
_symmetry_cell_setting	triclinic
loop_
_symmetry_equiv_pos_as_xyz
  x,y,z
_cell_length_a	12.837943
_cell_length_b	12.837942
_cell_length_c	11.892095
_cell_angle_alpha	85.697431
_cell_angle_beta	85.689438
_cell_angle_gamma	85.171060
loop_
_atom_site_label
_atom_site_type_symbol
_atom_site_fract_x
_atom_site_fract_y
_atom_site_fract_z
O1	O	1.408367	-0.266110	-0.093982
O2	O	1.105234	-0.252667	-0.093989
O3	O	1.250078	-0.107822	-0.093979
O4	O	1.263522	-0.410955	-0.093992
O5	O	1.237999	-0.119879	0.094028
O6	O	1.093155	-0.264723	0.094018
O7	O	1.396288	-0.278167	0.094025
Zn8	Zn	1.242803	-0.273359	0.123871
Zn9	Zn	1.258718	-0.257474	-0.123836
O10	O	1.251443	-0.423011	0.094014
C11	C	1.060125	-0.254153	0.000014
C12	C	0.943710	-0.240609	0.000011
C13	C	0.718835	-0.403439	0.000020
C14	C	0.609453	-0.390717	0.000019
C15	C	0.615561	-0.202446	0.000015
C16	C	0.724943	-0.215167	0.000017
C17	C	0.776577	-0.315667	0.000017
C18	C	0.885961	-0.328387	0.000011
C19	C	0.892066	-0.140117	0.000015
C20	C	0.782684	-0.127395	0.000014
C21	C	1.239497	-0.074781	0.000024
C22	C	1.225953	0.041634	0.000022
C23	C	1.441397	-0.276680	0.000020
C24	C	1.557812	-0.290224	0.000015
C25	C	1.262024	-0.456052	0.000009
C26	C	1.275569	-0.572467	0.000004
N27	N	1.231950	-0.284200	0.292925
C28	C	1.388784	0.266509	0.000002
C29	C	1.376062	0.375892	-0.000000
C30	C	1.187791	0.369784	0.000007
C31	C	1.200512	0.260402	0.000009
C32	C	1.301011	0.208768	0.000008
C33	C	1.313731	0.099383	0.000019
C34	C	1.125461	0.093278	0.000018
C35	C	1.112740	0.202660	0.000016
N36	N	1.269579	-0.246626	-0.292889
C37	C	1.345098	-0.171130	0.529580
C38	C	1.337519	-0.178716	0.647922
C39	C	1.209210	-0.306952	0.647951
C40	C	1.216788	-0.299366	0.529610
C41	C	1.284736	-0.231454	0.470428
C42	C	1.292319	-0.223874	0.352085
C43	C	1.164005	-0.352104	0.352116
C44	C	1.156426	-0.359690	0.470458
H45	H	0.939091	-0.068646	0.000005
H46	H	1.400430	-0.115841	0.481394
H47	H	1.101102	-0.414980	0.518656
C48	C	1.497840	0.210315	-0.000170
C49	C	1.516845	0.153872	-0.096879
C50	C	1.617292	0.102082	-0.097067
H51	H	1.548401	0.260254	-0.000227
H52	H	1.502517	0.163512	0.065360
H53	H	1.512178	0.200670	-0.162391
H54	H	1.466310	0.103915	-0.096842
H55	H	1.621969	0.055279	-0.031538
H56	H	1.667844	0.152029	-0.097121
H57	H	1.630196	0.063772	-0.162677
H58	H	1.053990	0.046252	0.000033
C59	C	1.078603	0.425667	-0.000066
C60	C	1.004453	0.351693	-0.000092
C61	C	0.903860	0.403135	-0.000181
H62	H	1.065366	0.464020	0.065470
H63	H	1.073898	0.472380	-0.065663
H64	H	1.009155	0.304999	0.065498
H65	H	1.017657	0.313337	-0.065623
H66	H	0.899155	0.449848	-0.065777
H67	H	0.890634	0.441487	0.065356
H68	H	0.853538	0.352953	-0.000209
C69	C	0.559536	-0.093328	0.000250
C70	C	0.581754	-0.045838	0.096987
C71	C	0.530154	0.054678	0.097249
H72	H	0.582878	-0.052408	-0.065237
H73	H	0.486109	-0.098281	0.000315
H74	H	0.655166	-0.040879	0.096913
H75	H	0.558410	-0.086726	0.162490
H76	H	0.456727	0.049725	0.097314
H77	H	0.553500	0.095588	0.031758
H78	H	0.545214	0.086909	0.162889
C79	C	1.471463	0.438463	-0.000180
C80	C	1.537570	0.419874	-0.096893
C81	C	1.625473	0.477485	-0.097092
H82	H	1.449646	0.511028	-0.000240
H83	H	1.508078	0.417571	0.065347
H84	H	1.500961	0.440772	-0.162403
H85	H	1.559415	0.347321	-0.096854
H86	H	1.662089	0.456593	-0.031565
H87	H	1.603646	0.550046	-0.097148
H88	H	1.670343	0.464873	-0.162704
C89	C	1.366106	-0.150041	0.288032
C90	C	1.417323	-0.098814	0.365171
C91	C	1.485292	-0.030778	0.306211
H92	H	1.416451	-0.188950	0.241852
H93	H	1.327116	-0.099713	0.241901
H94	H	1.456311	-0.149135	0.411282
H95	H	1.367004	-0.059885	0.411353
H96	H	1.446302	0.019550	0.260080
H97	H	1.535630	-0.069695	0.260033
H98	H	1.520043	0.003995	0.358540
H99	H	1.030916	0.244716	0.000012
C100	C	1.403181	-0.113172	0.711941
C101	C	1.464321	-0.052094	0.634778
C102	C	1.524831	0.008293	0.693710
H103	H	1.358372	-0.068728	0.758118
H104	H	1.447581	-0.158091	0.758072
H105	H	1.419925	-0.007180	0.588666
H106	H	1.509151	-0.096511	0.588598
H107	H	1.569231	-0.036626	0.739841
H108	H	1.480014	0.052730	0.739886
H109	H	1.566329	0.049734	0.641365
H110	H	0.928000	-0.410219	0.000013
C111	C	1.135364	-0.380508	0.712369
C112	C	1.061445	-0.322723	0.780338
C113	C	0.993409	-0.390447	0.839710
H114	H	1.100385	-0.415384	0.660330
H115	H	1.174337	-0.430765	0.758597
H116	H	1.022476	-0.272486	0.734113
H117	H	1.096393	-0.287850	0.832398
H118	H	1.032382	-0.440704	0.885939
H119	H	0.958438	-0.425319	0.787663
H120	H	0.943253	-0.351252	0.885842
H121	H	1.114857	-0.401227	0.303941
H122	H	0.760876	-0.485269	0.000019
H123	H	0.562444	-0.462191	0.000024
H124	H	0.740628	-0.045572	0.000026
H125	H	1.395563	0.057344	0.000022
