data_functionalizedCrystal
_audit_creation_method	'MofGen! by Chris Wilmer'
_symmetry_space_group_name_H-M	'P1'
_symmetry_Int_Tables_number	1
_symmetry_cell_setting	triclinic
loop_
_symmetry_equiv_pos_as_xyz
  x,y,z
_cell_length_a	16.109301
_cell_length_b	14.519709
_cell_length_c	15.186229
_cell_angle_alpha	89.995307
_cell_angle_beta	89.999362
_cell_angle_gamma	83.570813
loop_
_atom_site_label
_atom_site_type_symbol
_atom_site_fract_x
_atom_site_fract_y
_atom_site_fract_z
O1	O	1.103336	0.118540	-0.073175
O2	O	0.861299	0.133292	-0.073189
O3	O	0.988735	-0.008336	-0.073174
O4	O	0.975900	0.260168	-0.073190
O5	O	0.988726	-0.008338	0.073284
O6	O	0.861291	0.133290	0.073268
O7	O	1.103327	0.118538	0.073282
Zn8	Zn	0.982308	0.125914	0.096529
Zn9	Zn	0.982319	0.125916	-0.096435
O10	O	0.975892	0.260166	0.073267
C11	C	0.830319	0.132693	0.000038
C12	C	0.738021	0.130902	0.000033
C13	C	0.515887	0.210775	0.000038
C14	C	0.429163	0.209085	0.000044
C15	C	0.448747	0.041048	0.000050
C16	C	0.535468	0.042739	0.000051
C17	C	0.569036	0.127606	0.000040
C18	C	0.395591	0.124224	0.000045
C19	C	0.301562	0.122390	0.000052
C20	C	0.663071	0.129440	0.000036
C21	C	0.988132	-0.042696	0.000055
C22	C	0.986340	-0.145073	0.000056
C23	C	0.979741	-0.519955	0.000032
C24	C	0.981574	-0.415651	0.000039
C25	C	0.983041	-0.332517	0.000045
C26	C	0.984873	-0.228207	0.000050
C27	C	1.134307	0.119136	0.000054
C28	C	1.226606	0.120928	0.000053
C29	C	0.976494	0.294526	0.000036
C30	C	0.978287	0.396903	0.000030
N31	N	0.982306	0.125911	0.228221
N32	N	0.982327	0.125911	-0.228128
C33	C	1.038754	0.063219	0.453951
C34	C	1.038756	0.063217	0.546141
C35	C	0.925873	0.188606	0.546136
C36	C	0.925867	0.188603	0.453948
C37	C	0.982312	0.125911	0.407858
C38	C	0.982321	0.125912	0.592236
C39	C	0.982323	0.125910	0.692192
C40	C	0.982309	0.125911	0.307895
H41	H	0.578745	-0.024991	0.000055
O42	O	0.871131	0.249473	0.591046
C43	C	0.883226	0.236021	0.682298
H44	H	0.949272	0.201572	0.694887
H45	H	0.874084	0.305862	0.717326
H46	H	0.836102	0.189754	0.708471
H47	H	0.879902	0.239654	0.416417
H48	H	1.084715	0.012167	0.583667
O49	O	0.377416	0.289791	0.000074
C50	C	0.293674	0.270105	0.000055
H51	H	0.290242	0.197670	0.027791
H52	H	0.254462	0.323123	0.042569
H53	H	0.268600	0.273605	-0.070209
O54	O	0.548357	0.293291	0.000074
C55	C	0.482845	0.366335	0.000053
H56	H	0.423898	0.340495	0.027780
H57	H	0.501052	0.425582	0.042573
H58	H	0.470611	0.391995	-0.070210
O59	O	0.415999	-0.041307	0.000015
C60	C	0.328059	-0.024968	0.000033
H61	H	0.307800	0.047008	-0.027696
H62	H	0.301355	-0.079266	-0.042487
H63	H	0.303911	-0.029435	0.070296
O64	O	1.093608	0.002228	0.409315
C65	C	1.143437	-0.053090	0.469771
H66	H	1.109353	-0.054138	0.535489
H67	H	1.156009	-0.126739	0.443144
H68	H	1.205242	-0.023128	0.479568
