data_functionalizedCrystal
_audit_creation_method	'MofGen! by Chris Wilmer'
_symmetry_space_group_name_H-M	'P1'
_symmetry_Int_Tables_number	1
_symmetry_cell_setting	triclinic
loop_
_symmetry_equiv_pos_as_xyz
  x,y,z
_cell_length_a	16.109301
_cell_length_b	16.098538
_cell_length_c	16.109301
_cell_angle_alpha	92.720629
_cell_angle_beta	96.538519
_cell_angle_gamma	92.735164
loop_
_atom_site_label
_atom_site_type_symbol
_atom_site_fract_x
_atom_site_fract_y
_atom_site_fract_z
O1	O	1.106853	0.069206	-0.103153
O2	O	0.864792	0.069220	-0.116452
O3	O	0.992471	0.069204	0.011228
O4	O	0.979173	0.069222	-0.230833
O5	O	0.985013	-0.069308	0.003799
O6	O	0.857333	-0.069292	-0.123881
O7	O	1.099394	-0.069306	-0.110582
Zn8	Zn	0.977180	-0.091291	-0.118411
Zn9	Zn	0.987006	0.091205	-0.108623
O10	O	0.971715	-0.069290	-0.238262
C11	C	0.830088	-0.000035	-0.119628
C12	C	0.737793	-0.000030	-0.118012
N13	N	0.970479	-0.215839	-0.125091
C14	C	0.515520	-0.000034	-0.190020
C15	C	0.428799	-0.000040	-0.188496
C16	C	0.448673	-0.000047	-0.037008
C17	C	0.535392	-0.000048	-0.038533
C18	C	0.568813	-0.000037	-0.115041
C19	C	0.395374	-0.000042	-0.111993
C20	C	0.301347	-0.000048	-0.110340
C21	C	0.662845	-0.000033	-0.116695
C22	C	1.024691	-0.259431	-0.070918
C23	C	1.020012	-0.346619	-0.075598
C24	C	0.961123	-0.390215	-0.134457
C25	C	0.906905	-0.346617	-0.188633
C26	C	0.911582	-0.259430	-0.183947
C27	C	0.944172	-0.653463	-0.151427
C28	C	0.939501	-0.740655	-0.156110
C29	C	1.052607	-0.740652	-0.043074
C30	C	1.057282	-0.653464	-0.038398
C31	C	1.003061	-0.609873	-0.092570
C32	C	0.956341	-0.479335	-0.139244
C33	C	1.007840	-0.520754	-0.087778
C34	C	1.134099	-0.000050	-0.107407
C35	C	1.226394	-0.000049	-0.109022
C36	C	0.988204	-0.000052	0.038488
C37	C	0.986588	-0.000054	0.130783
N38	N	0.993714	0.215753	-0.101937
C39	C	0.975983	-0.000032	-0.265522
C40	C	0.977598	-0.000026	-0.357817
C41	C	1.058597	-0.000044	0.353056
C42	C	1.057073	-0.000038	0.439777
C43	C	0.905584	-0.000032	0.419903
C44	C	0.907109	-0.000033	0.333184
C45	C	0.983618	-0.000044	0.299763
C46	C	0.980569	-0.000036	0.473203
C47	C	0.978916	-0.000028	0.567229
C48	C	0.985271	-0.000050	0.205731
H49	H	0.542728	-0.000032	-0.252318
H50	H	1.105233	-0.617970	0.009530
C51	C	0.370180	-0.000041	-0.270980
N52	N	0.326028	-0.000044	-0.333110
C53	C	0.411902	-0.000051	0.047147
N54	N	0.384207	-0.000051	0.110535
H55	H	0.846049	-0.000030	0.289791
H56	H	0.578786	-0.000053	0.022527
C57	C	1.072608	-0.472797	-0.023028
N58	N	1.121392	-0.436668	0.025741
H59	H	1.072648	-0.223942	-0.022993
H60	H	1.064155	-0.382111	-0.031486
C61	C	1.142758	-0.000047	0.316297
N62	N	1.206151	-0.000044	0.288613
C63	C	1.112239	-0.788608	0.016518
N64	N	1.157154	-0.824729	0.061409
C65	C	0.874714	-0.788608	-0.220859
N66	N	0.825919	-0.824726	-0.269626
C67	C	0.884634	-0.605525	-0.211127
N68	N	0.839826	-0.569415	-0.256135
H69	H	0.858953	-0.382117	-0.236554
C70	C	0.851950	-0.211480	-0.243549
N71	N	0.807034	-0.175364	-0.288443
H72	H	1.118128	-0.000036	0.483166
H73	H	0.908394	-0.514837	-0.187170
H74	H	0.843294	-0.000026	0.447125
