data_functionalizedCrystal
_audit_creation_method	'MofGen! by Chris Wilmer'
_symmetry_space_group_name_H-M	'P1'
_symmetry_Int_Tables_number	1
_symmetry_cell_setting	triclinic
loop_
_symmetry_equiv_pos_as_xyz
  x,y,z
_cell_length_a	17.638686
_cell_length_b	17.637651
_cell_length_c	12.759393
_cell_angle_alpha	78.749835
_cell_angle_beta	78.783988
_cell_angle_gamma	87.823829
loop_
_atom_site_label
_atom_site_type_symbol
_atom_site_fract_x
_atom_site_fract_y
_atom_site_fract_z
Zn1	Zn	1.099869	-0.537480	-0.744488
Zn2	Zn	1.599869	-0.037480	-0.244488
Zn3	Zn	1.074110	-0.664502	-0.527723
Zn4	Zn	1.574110	-0.164502	-0.027723
Zn5	Zn	0.972867	-0.511799	-0.541660
Zn6	Zn	1.472867	-0.011799	-0.041660
Zn7	Zn	0.947196	-0.638737	-0.676244
Zn8	Zn	1.447196	-0.138737	-0.176244
O9	O	1.023511	-0.588129	-0.622529
O10	O	1.523511	-0.088129	-0.122529
O11	O	1.202716	-0.575860	-0.738461
O12	O	1.702716	-0.075860	-0.238461
O13	O	1.060643	-0.644281	-0.382531
O14	O	1.560643	-0.144281	0.117469
O15	O	1.011238	-0.408923	-0.602959
O16	O	1.511238	0.091077	-0.102959
O17	O	1.183791	-0.669182	-0.579205
O18	O	1.683791	-0.169182	-0.079205
O19	O	1.104545	-0.427791	-0.751976
O20	O	1.604545	0.072209	-0.251976
O21	O	0.986260	-0.532091	-0.392771
O22	O	1.486260	-0.032091	0.107229
O23	O	0.863198	-0.507108	-0.536786
O24	O	1.363198	-0.007108	-0.036786
O25	O	0.967485	-0.625269	-0.832337
O26	O	1.467485	-0.125269	-0.332337
O27	O	0.844337	-0.600368	-0.635663
O28	O	1.344337	-0.100368	-0.135663
O29	O	1.079653	-0.550877	-0.882476
O30	O	1.579653	-0.050877	-0.382476
O31	O	1.035751	-0.767366	-0.513032
O32	O	1.535751	-0.267366	-0.013032
O33	O	0.942508	-0.748437	-0.622149
O34	O	1.442508	-0.248437	-0.122149
C35	C	0.826214	-0.548156	-0.580332
C36	C	1.326214	-0.048156	-0.080332
C37	C	0.741806	-0.531073	-0.562299
C38	C	1.241806	-0.031073	-0.062299
C39	C	0.415130	-0.718070	-0.759735
C40	C	0.915130	-0.218070	-0.259735
C41	C	0.335817	-0.702011	-0.742766
C42	C	0.835817	-0.202011	-0.242766
C43	C	0.355453	-0.604749	-0.640061
C44	C	0.855453	-0.104749	-0.140061
C45	C	0.434769	-0.620802	-0.657017
C46	C	0.934769	-0.120802	-0.157017
C47	C	0.464600	-0.677462	-0.716856
C48	C	0.964600	-0.177462	-0.216856
C49	C	0.484240	-0.580194	-0.614138
C50	C	0.984240	-0.080194	-0.114138
C51	C	0.563549	-0.596243	-0.631097
C52	C	1.063549	-0.096243	-0.131097
C53	C	0.593387	-0.652900	-0.690936
C54	C	1.093387	-0.152900	-0.190936
C55	C	0.543910	-0.693511	-0.733815
C56	C	1.043910	-0.193511	-0.233815
C57	C	0.454407	-0.523530	-0.554306
C58	C	0.954407	-0.023530	-0.054306
C59	C	0.503878	-0.482923	-0.511427
C60	C	1.003878	0.017077	-0.011427
C61	C	0.583188	-0.498975	-0.528380
C62	C	1.083188	0.001025	-0.028380
C63	C	0.613026	-0.555632	-0.588218
C64	C	1.113026	-0.055632	-0.088218
C65	C	0.632665	-0.458363	-0.485501
C66	C	1.132665	0.041637	0.014499
C67	C	0.711974	-0.474412	-0.502460
C68	C	1.211974	0.025588	-0.002460
C69	C	0.692335	-0.571681	-0.605178
C70	C	1.192335	-0.071681	-0.105178
C71	C	0.983569	-0.785464	-0.558700
C72	C	1.483569	-0.285464	-0.058700
C73	C	0.966551	-0.869898	-0.531444
C74	C	1.466551	-0.369898	-0.031444
C75	C	1.153285	-1.196375	-0.830029
C76	C	1.653285	-0.696375	-0.330029
C77	C	1.137270	-1.275709	-0.804394
C78	C	1.637270	-0.775709	-0.304394
C79	C	1.040174	-1.256182	-0.649107
C80	C	1.540174	-0.756182	-0.149107
C81	C	1.056183	-1.176845	-0.674726
C82	C	1.556183	-0.676845	-0.174726
C83	C	1.112739	-1.146948	-0.765188
C84	C	1.612739	-0.646948	-0.265188
C85	C	1.015637	-1.127419	-0.609885
C86	C	1.515637	-0.627419	-0.109885
C87	C	1.031642	-1.048088	-0.635506
C88	C	1.531642	-0.548088	-0.135506
C89	C	1.088194	-1.018184	-0.725966
C90	C	1.588194	-0.518184	-0.225966
C91	C	1.128744	-1.067617	-0.790809
C92	C	1.628744	-0.567617	-0.290809
C93	C	0.959078	-1.157317	-0.519427
C94	C	1.459078	-0.657317	-0.019427
C95	C	0.918532	-1.107891	-0.454587
C96	C	1.418532	-0.607891	0.045413
C97	C	0.934541	-1.028559	-0.480203
C98	C	1.434541	-0.528559	0.019797
C99	C	0.991092	-0.998655	-0.570663
C100	C	1.491092	-0.498655	-0.070663
C101	C	0.893990	-0.979126	-0.415360
C102	C	1.393990	-0.479126	0.084640
C103	C	0.909996	-0.899796	-0.440981
C104	C	1.409996	-0.399796	0.059019
C105	C	1.007098	-0.919325	-0.596284
C106	C	1.507098	-0.419325	-0.096284
C107	C	1.221577	-0.628260	-0.664891
C108	C	1.721577	-0.128260	-0.164891
C109	C	1.305981	-0.645361	-0.682943
C110	C	1.805981	-0.145361	-0.182943
C111	C	1.023579	-0.588064	-0.896598
C112	C	1.523579	-0.088064	-0.396598
C113	C	1.023608	-0.588035	-1.013391
C114	C	1.523608	-0.088035	-0.513391
C115	C	1.063629	-0.390029	-0.686635
C116	C	1.563629	0.109971	-0.186635
C117	C	1.080725	-0.305610	-0.713953
C118	C	1.580725	0.194390	-0.213953
C119	C	1.082022	-0.549296	-1.094364
C120	C	1.582022	-0.049296	-0.594364
C121	C	1.082045	-0.549272	-1.204101
C122	C	1.582045	-0.049272	-0.704101
C123	C	0.965239	-0.626734	-1.151878
C124	C	1.465239	-0.126734	-0.651878
C125	C	0.965213	-0.626752	-1.042144
C126	C	1.465213	-0.126752	-0.542144
C127	C	1.149461	-0.504577	-1.124516
C128	C	1.649461	-0.004577	-0.624516
C129	C	1.149485	-0.504553	-1.234253
C130	C	1.649485	-0.004553	-0.734253
C131	C	1.023497	-0.588149	-0.349553
C132	C	1.523497	-0.088149	0.150447
C133	C	1.023658	-0.587993	-0.232862
C134	C	1.523658	-0.087993	0.267138
H135	H	0.752256	-0.441340	-0.467553
H136	H	1.252256	0.058660	0.032447
Br137	Br	0.455621	-0.794978	-0.840928
Br138	Br	0.955621	-0.294978	-0.340928
H139	H	1.170281	-1.315948	-0.857214
H140	H	1.670281	-0.815948	-0.357214
Br141	Br	0.885922	-0.679311	-0.932253
Br142	Br	1.385922	-0.179311	-0.432253
Br143	Br	0.592172	-0.381458	-0.404315
Br144	Br	1.092172	0.118542	0.095685
H145	H	0.994124	-1.280536	-0.575454
H146	H	1.494124	-0.780536	-0.075454
Br147	Br	1.242206	-0.550651	-1.296372
Br148	Br	1.742206	-0.050651	-0.796372
H149	H	0.657967	-0.665962	-0.704750
H150	H	1.157967	-0.165962	-0.204750
H151	H	0.917694	-0.658253	-1.175304
H152	H	1.417694	-0.158253	-0.675304
H153	H	0.295539	-0.735081	-0.777692
H154	H	0.795539	-0.235081	-0.277692
H155	H	1.145619	-0.442567	-1.110412
H156	H	1.645619	0.057433	-0.610412
Br157	Br	0.314961	-0.527850	-0.558863
Br158	Br	0.814961	-0.027850	-0.058863
H159	H	1.174804	-1.043276	-0.864467
H160	H	1.674804	-0.543276	-0.364467
H161	H	0.946041	-1.221912	-0.498579
H162	H	1.446041	-0.721912	0.001421
H163	H	1.201050	-0.536976	-1.095605
H164	H	1.701050	-0.036976	-0.595605
H165	H	0.847937	-1.003480	-0.341712
H166	H	1.347937	-0.503480	0.158288
H167	H	1.199344	-1.172033	-0.903686
H168	H	1.699344	-0.672033	-0.403686
H169	H	0.872482	-1.132244	-0.380934
H170	H	1.372482	-0.632244	0.119066
H171	H	0.479578	-0.436787	-0.462710
H172	H	0.979578	0.063213	0.037290
Br173	Br	0.854970	-0.832712	-0.352982
Br174	Br	1.354970	-0.332712	0.147018
Br175	Br	1.083865	-0.878744	-0.719043
Br176	Br	1.583865	-0.378744	-0.219043
H177	H	1.139741	-0.444400	-1.281870
H178	H	1.639741	0.055600	-0.781870
Br179	Br	0.732827	-0.648588	-0.686371
Br180	Br	1.232827	-0.148588	-0.186371
H181	H	0.568199	-0.739654	-0.782535
H182	H	1.068199	-0.239654	-0.282535
H183	H	1.101225	-0.953588	-0.746824
H184	H	1.601225	-0.453588	-0.246824
H185	H	0.389829	-0.510461	-0.540507
H186	H	0.889829	-0.010461	-0.040507
