data_functionalizedCrystal
_audit_creation_method	'MofGen! by Chris Wilmer'
_symmetry_space_group_name_H-M	'P1'
_symmetry_Int_Tables_number	1
_symmetry_cell_setting	triclinic
loop_
_symmetry_equiv_pos_as_xyz
  x,y,z
_cell_length_a	23.532407
_cell_length_b	8.559649
_cell_length_c	7.088929
_cell_angle_alpha	95.344185
_cell_angle_beta	83.830310
_cell_angle_gamma	76.313671
loop_
_atom_site_label
_atom_site_type_symbol
_atom_site_fract_x
_atom_site_fract_y
_atom_site_fract_z
O1	O	-0.740602	-0.210604	-0.158745
O2	O	-0.573565	-0.238695	-0.158801
O3	O	-0.671800	0.008187	-0.158766
O4	O	-0.642367	-0.457486	-0.158780
O5	O	-0.684931	0.041254	0.159214
O6	O	-0.586696	-0.205627	0.159179
O7	O	-0.753733	-0.177537	0.159234
Cu8	Cu	-0.671414	-0.188563	0.188241
Cu9	Cu	-0.655884	-0.227669	-0.187807
O10	O	-0.655499	-0.424418	0.159200
C11	C	-0.558944	-0.221447	0.000182
C12	C	-0.495816	-0.219299	0.000161
C13	C	-0.680596	0.084285	0.000221
C14	C	-0.687234	0.261770	0.000212
C15	C	-0.768354	-0.194786	0.000247
C16	C	-0.831482	-0.196935	0.000256
C17	C	-0.091183	-0.351901	0.000244
C18	C	-0.031867	-0.349902	0.000255
O19	O	0.010004	-0.472827	0.000321
N20	N	-0.015364	-0.203133	0.000256
C21	C	-0.058183	-0.058351	0.000265
O22	O	-0.038699	0.066671	0.000269
C23	C	-0.117498	-0.060350	0.000267
C24	C	-0.133996	-0.207131	0.000247
C25	C	-0.107682	-0.498669	0.000225
C26	C	-0.166995	-0.500667	0.000210
C27	C	-0.209808	-0.355897	0.000213
C28	C	-0.193309	-0.209129	0.000231
C29	C	-0.160316	0.084431	0.000290
C30	C	-0.219635	0.082420	0.000293
C31	C	-0.236133	-0.064361	0.000273
C32	C	-0.295434	-0.066358	0.000219
N33	N	-0.311937	-0.213127	0.000218
C34	C	-0.269123	-0.357896	0.000215
C35	C	0.066385	-0.054164	0.000265
C36	C	0.125700	-0.052165	0.000249
C37	C	0.152012	-0.343716	0.000243
C38	C	0.092696	-0.345715	0.000245
C39	C	0.049883	-0.200933	0.000263
C40	C	-0.393684	-0.362082	0.000181
C41	C	-0.453003	-0.364069	0.000158
C42	C	-0.479309	-0.072518	0.000174
C43	C	-0.419996	-0.070531	0.000187
C44	C	-0.377184	-0.215326	0.000197
O45	O	-0.337337	0.056503	0.000161
O46	O	-0.288617	-0.482895	0.000236
C47	C	-0.646702	-0.500518	0.000209
C48	C	-0.640063	-0.678004	0.000204
N49	N	-0.682340	-0.161057	0.452733
N50	N	-0.644963	-0.255162	-0.452299
H51	H	-0.466430	-0.483600	0.000140
C52	C	-0.554977	0.253445	0.163631
C53	C	-0.578684	0.208310	0.000176
H54	H	-0.517085	0.183244	0.163614
H55	H	-0.551537	0.361790	0.163623
H56	H	-0.580229	0.245883	0.274510
H57	H	-0.553435	0.215883	-0.110704
H58	H	-0.582121	0.099937	0.000166
C59	C	-0.022339	0.129774	0.163712
C60	C	0.019327	0.104993	0.000253
H61	H	-0.051385	0.228035	0.163707
H62	H	-0.040659	0.042099	0.163699
H63	H	-0.003229	0.136020	0.274588
H64	H	0.000218	0.098735	-0.110624
H65	H	0.037649	0.192689	0.000248
C66	C	-0.743537	0.535181	0.000241
C67	C	-0.748617	0.375462	0.000232
H68	H	-0.781431	0.605365	0.000240
H69	H	-0.727455	0.565780	0.111121
H70	H	-0.718288	0.542720	-0.110654
H71	H	-0.773863	0.367921	0.111135
H72	H	-0.764708	0.344854	-0.110658
C73	C	-0.596976	-0.538934	0.485708
C74	C	-0.592666	-0.386813	0.437473
H75	H	-0.564691	-0.620209	0.417639
H76	H	-0.596230	-0.540806	0.619187
H77	H	-0.632928	-0.558961	0.452979
H78	H	-0.556716	-0.366780	0.470216
H79	H	-0.593406	-0.384937	0.303965
H80	H	0.139128	0.067355	0.000236
C81	C	-0.304963	-0.545991	-0.163279
C82	C	-0.346629	-0.521240	0.000176
H83	H	-0.275912	-0.644244	-0.163283
H84	H	-0.324068	-0.552228	-0.274146
H85	H	-0.286645	-0.458295	-0.163243
H86	H	-0.364950	-0.608931	0.000132
H87	H	-0.327521	-0.515016	0.111071
H88	H	-0.721084	-0.063541	0.534402
H89	H	-0.072828	-0.616564	0.000230
C90	C	-0.156044	-0.766797	-0.163253
C91	C	-0.185116	-0.662025	0.000203
H92	H	-0.167224	-0.866423	-0.163245
H93	H	-0.166599	-0.718773	-0.274119
H94	H	-0.114593	-0.786270	-0.163230
H95	H	-0.226568	-0.642542	0.000173
H96	H	-0.174565	-0.710059	0.111098
H97	H	0.079268	-0.465235	0.000239
C98	C	0.172078	-0.632117	0.000244
C99	C	0.199079	-0.502854	0.000253
H100	H	0.201137	-0.730354	0.000237
H101	H	0.143813	-0.615307	0.111119
H102	H	0.152978	-0.638367	-0.110655
H103	H	0.218175	-0.496596	0.111160
H104	H	0.227355	-0.519668	-0.110634
H105	H	-0.254493	0.200322	0.000310
C106	C	-0.451964	0.217451	0.000179
C107	C	-0.401857	0.090807	0.000190
H108	H	-0.440769	0.317057	0.000203
H109	H	-0.469963	0.199073	-0.110712
H110	H	-0.479139	0.222126	0.111062
H111	H	-0.374684	0.086124	-0.110701
H112	H	-0.383849	0.109190	0.111092
H113	H	-0.146895	0.203955	0.000308
H114	H	-0.514178	0.045349	0.000170
