data_functionalizedCrystal
_audit_creation_method	'MofGen! by Chris Wilmer'
_symmetry_space_group_name_H-M	'P1'
_symmetry_Int_Tables_number	1
_symmetry_cell_setting	triclinic
loop_
_symmetry_equiv_pos_as_xyz
  x,y,z
_cell_length_a	10.540514
_cell_length_b	19.288865
_cell_length_c	17.766277
_cell_angle_alpha	90.011603
_cell_angle_beta	90.009862
_cell_angle_gamma	83.825704
loop_
_atom_site_label
_atom_site_type_symbol
_atom_site_fract_x
_atom_site_fract_y
_atom_site_fract_z
O1	O	-1.683735	-0.097800	-0.062613
O2	O	-1.314112	-0.107041	-0.062614
O3	O	-1.509604	-0.001361	-0.062599
O4	O	-1.488243	-0.203480	-0.062628
O5	O	-1.509570	-0.001355	0.062590
O6	O	-1.314078	-0.107035	0.062575
O7	O	-1.683701	-0.097794	0.062575
Cu8	Cu	-1.498886	-0.102414	0.074006
Cu9	Cu	-1.498927	-0.102421	-0.074044
O10	O	-1.488209	-0.203474	0.062560
C11	C	-1.266807	-0.106349	-0.000019
C12	C	-1.125903	-0.104286	-0.000019
C13	C	-1.508899	0.024523	-0.000002
C14	C	-1.506836	0.101640	0.000005
C15	C	-1.731006	-0.098487	-0.000021
C16	C	-1.871910	-0.100549	-0.000026
C17	C	-1.053513	-0.179868	-0.000031
C18	C	-0.906947	-0.177748	-0.000319
C19	C	-0.934501	-0.063185	-0.071367
C20	C	-1.080981	-0.065841	-0.071423
C21	C	-1.081370	-0.064716	0.070945
C22	C	-0.934407	-0.063987	0.071879
C23	C	-1.488913	-0.229358	-0.000038
C24	C	-1.490977	-0.306475	-0.000050
N25	N	-1.498867	-0.102409	0.178136
C26	C	-1.621542	0.145577	0.000008
C27	C	-1.619604	0.218037	-0.000004
C28	C	-1.502953	0.246557	-0.000004
C29	C	-1.388232	0.202611	-0.000012
C30	C	-1.390174	0.130152	-0.000008
C31	C	-1.411240	0.355454	0.043847
C32	C	-1.409303	0.427911	0.043847
C33	C	-1.496959	0.470042	-0.000021
C34	C	-1.586574	0.439709	-0.043879
C35	C	-1.588516	0.367250	-0.043875
C36	C	-1.500835	0.325125	-0.000009
C37	C	-1.609571	0.592549	-0.000031
C38	C	-1.607628	0.665010	-0.000048
C39	C	-1.376253	0.649582	-0.000049
C40	C	-1.378200	0.577122	-0.000040
C41	C	-1.494862	0.548610	-0.000027
N42	N	-1.498956	-0.102421	-0.178175
C43	C	-1.585459	-0.055637	0.217530
C44	C	-1.585466	-0.055634	0.296331
C45	C	-1.498894	-0.102415	0.335737
C46	C	-1.412286	-0.149190	0.296333
C47	C	-1.412272	-0.149187	0.217533
C48	C	-1.481900	-0.165590	0.460565
C49	C	-1.481923	-0.165594	0.539364
C50	C	-1.498928	-0.102423	0.578783
C51	C	-1.515937	-0.039247	0.539393
C52	C	-1.515924	-0.039244	0.460593
C53	C	-1.498898	-0.102423	0.421182
C54	C	-1.585532	-0.055644	0.703622
C55	C	-1.585530	-0.055640	0.782426
C56	C	-1.412356	-0.149202	0.782426
C57	C	-1.412352	-0.149200	0.703625
C58	C	-1.498946	-0.102422	0.664227
H59	H	-0.863614	-0.207136	0.050808
C60	C	-1.091120	-0.221287	0.069074
N61	N	-1.119453	-0.252484	0.121127
H62	H	-1.701039	0.700783	-0.000049
H63	H	-0.892789	-0.091292	0.124657
H64	H	-1.716537	0.122367	0.000016
H65	H	-1.083081	-0.210081	-0.051124
H66	H	-1.129868	-0.008967	0.071642
C67	C	-1.680740	-0.004187	0.339673
N68	N	-1.752505	0.034561	0.372316
C69	C	-0.849703	-0.217280	-0.069829
N70	N	-0.806589	-0.247054	-0.122190
C71	C	-1.745794	0.266376	0.000005
N72	N	-1.840841	0.302783	0.000014
C73	C	-0.903416	0.012032	0.078003
N74	N	-0.880073	0.069291	0.082611
H75	H	-1.529783	0.012193	0.571486
C76	C	-1.687081	0.333885	-0.092124
N77	N	-1.761318	0.308755	-0.128470
H78	H	-1.657952	0.474011	-0.079601
H79	H	-1.108612	-0.093135	-0.124963
H80	H	-1.296763	0.094378	-0.000011
H81	H	-0.913451	-0.006485	-0.073810
H82	H	-1.293254	0.225836	-0.000014
C83	C	-1.123131	-0.098705	0.144020
N84	N	-1.154583	-0.124313	0.199056
H85	H	-1.655966	-0.017546	0.185455
H86	H	-1.529770	0.012197	0.428525
C87	C	-1.247936	0.680949	-0.000052
N88	N	-1.151283	0.704579	-0.000056
C89	C	-1.147511	0.009162	-0.075530
N90	N	-1.197615	0.065653	-0.078630
C91	C	-1.252013	0.528790	-0.000040
N92	N	-1.156962	0.492386	-0.000043
H93	H	-0.891337	-0.088801	-0.124669
C94	C	-1.737901	0.561183	-0.000029
N95	N	-1.834560	0.537561	-0.000030
C96	C	-1.317051	-0.200646	0.339681
N97	N	-1.245312	-0.239402	0.372330
C98	C	-1.310726	0.461271	0.092092
N99	N	-1.236473	0.486395	0.128430
C100	C	-1.680775	-0.004182	0.660283
N101	N	-1.752511	0.034582	0.627642
H102	H	-1.341863	-0.187289	0.814509
H103	H	-1.468031	-0.217034	0.428477
C104	C	-1.680772	-0.004173	0.825758
N105	N	-1.752504	0.034597	0.858397
H106	H	-1.339856	0.321155	0.079573
H107	H	-1.341846	-0.187289	0.671548
C108	C	-1.463199	-0.235089	0.582685
N109	N	-1.449089	-0.287434	0.615313
C110	C	-1.317066	-0.200673	0.174199
N111	N	-1.245375	-0.239464	0.141558
