data_functionalizedCrystal
_audit_creation_method	'MofGen! by Chris Wilmer'
_symmetry_space_group_name_H-M	'P1'
_symmetry_Int_Tables_number	1
_symmetry_cell_setting	triclinic
loop_
_symmetry_equiv_pos_as_xyz
  x,y,z
_cell_length_a	16.625545
_cell_length_b	19.121141
_cell_length_c	16.625539
_cell_angle_alpha	92.461242
_cell_angle_beta	89.971893
_cell_angle_gamma	92.420937
loop_
_atom_site_label
_atom_site_type_symbol
_atom_site_fract_x
_atom_site_fract_y
_atom_site_fract_z
Zn1	Zn	-0.373688	-1.073731	-0.508473
Zn2	Zn	0.126312	-0.573731	-0.008473
Zn3	Zn	-0.508526	-1.073640	-0.373637
Zn4	Zn	-0.008526	-0.573640	0.126363
Zn5	Zn	-0.367952	-0.956278	-0.367904
Zn6	Zn	0.132048	-0.456278	0.132096
Zn7	Zn	-0.502717	-0.956246	-0.502680
Zn8	Zn	-0.002717	-0.456246	-0.002680
O9	O	-0.438221	-1.014974	-0.438173
O10	O	0.061779	-0.514974	0.061827
O11	O	-0.396406	-1.172003	-0.495411
O12	O	0.103594	-0.672003	0.004589
O13	O	-0.489910	-1.058047	-0.260042
O14	O	0.010090	-0.558047	0.239958
O15	O	-0.255883	-0.971910	-0.386577
O16	O	0.244117	-0.471910	0.113423
O17	O	-0.495471	-1.171937	-0.396347
O18	O	0.004529	-0.671937	0.103653
O19	O	-0.260097	-1.058202	-0.489852
O20	O	0.239903	-0.558202	0.010148
O21	O	-0.386631	-0.971822	-0.255831
O22	O	0.113369	-0.471822	0.244169
O23	O	-0.380998	-0.857989	-0.380959
O24	O	0.119002	-0.357989	0.119041
O25	O	-0.485570	-0.971855	-0.616282
O26	O	0.014430	-0.471855	-0.116282
O27	O	-0.480009	-0.857966	-0.479978
O28	O	0.019991	-0.357966	0.020022
O29	O	-0.390773	-1.058171	-0.620538
O30	O	0.109227	-0.558171	-0.120538
O31	O	-0.620586	-1.058016	-0.390729
O32	O	-0.120586	-0.558016	0.109271
O33	O	-0.616317	-0.971767	-0.485536
O34	O	-0.116317	-0.471767	0.014464
C35	C	-0.429251	-0.832493	-0.429218
C36	C	0.070749	-0.332493	0.070782
C37	C	-0.425433	-0.754427	-0.425406
C38	C	0.074567	-0.254427	0.074594
C39	C	-0.475267	-0.717758	-0.475088
C40	C	0.024733	-0.217758	0.024912
C41	C	-0.471669	-0.644407	-0.471510
C42	C	0.028331	-0.144407	0.028490
C43	C	-0.418241	-0.607726	-0.418245
C44	C	0.081759	-0.107726	0.081755
C45	C	-0.368402	-0.644401	-0.368561
C46	C	0.131598	-0.144401	0.131439
C47	C	-0.371996	-0.717751	-0.372144
C48	C	0.128004	-0.217751	0.127856
C49	C	-0.404802	-0.386257	-0.404856
C50	C	0.095198	0.113743	0.095144
C51	C	-0.401213	-0.312902	-0.401276
C52	C	0.098787	0.187098	0.098724
C53	C	-0.504480	-0.312913	-0.504226
C54	C	-0.004480	0.187087	-0.004226
C55	C	-0.508073	-0.386264	-0.507800
C56	C	-0.008073	0.113736	-0.007800
C57	C	-0.458231	-0.422932	-0.458119
C58	C	0.041769	0.077068	0.041881
C59	C	-0.414564	-0.532750	-0.414585
C60	C	0.085436	-0.032750	0.085415
C61	C	-0.461904	-0.497908	-0.461784
C62	C	0.038096	0.002092	0.038216
C63	C	-0.647708	-1.014897	-0.438144
C64	C	-0.147708	-0.514897	0.061856
C65	C	-0.737331	-1.014929	-0.438162
C66	C	-0.237331	-0.514929	0.061838
C67	C	-0.810114	-1.014956	-0.438179
C68	C	-0.310114	-0.514956	0.061821
C69	C	-0.901425	-1.014997	-0.438199
C70	C	-0.401425	-0.514997	0.061801
C71	C	-0.974203	-1.015034	-0.438211
C72	C	-0.474203	-0.515034	0.061789
C73	C	-1.065519	-1.015074	-0.438230
C74	C	-0.565519	-0.515074	0.061770
C75	C	-0.227917	-1.015069	-0.438221
C76	C	0.272083	-0.515069	0.061779
C77	C	-0.138297	-1.015110	-0.438242
C78	C	0.361703	-0.515110	0.061758
C79	C	-0.438163	-1.015019	-0.648485
C80	C	0.061837	-0.515019	-0.148485
C81	C	-0.438138	-1.015039	-0.738107
C82	C	0.061862	-0.515039	-0.238107
C83	C	-0.447222	-0.198167	-0.447155
C84	C	0.052778	0.301833	0.052845
C85	C	-0.451047	-0.276233	-0.450958
C86	C	0.048953	0.223767	0.049042
C87	C	-0.438050	-1.015071	-1.066284
C88	C	0.061950	-0.515071	-0.566284
C89	C	-0.438077	-1.015060	-0.974975
C90	C	0.061923	-0.515060	-0.474975
C91	C	-0.438095	-1.015055	-0.902198
C92	C	0.061905	-0.515055	-0.402198
C93	C	-0.438120	-1.015044	-0.810883
C94	C	0.061880	-0.515044	-0.310883
C95	C	-0.438222	-1.014969	-0.228682
C96	C	0.061778	-0.514969	0.271318
C97	C	-0.438026	-1.015085	-0.139067
C98	C	0.061974	-0.515085	0.360933
H99	H	-0.357696	-0.283039	-0.357906
H100	H	0.142304	0.216961	0.142094
C101	C	-0.310523	-0.604540	-0.310632
C102	C	0.189477	-0.104540	0.189368
C103	C	-0.354045	-0.562407	-0.256799
C104	C	0.145955	-0.062407	0.243201
C105	C	-0.300755	-0.525685	-0.203415
C106	C	0.199245	-0.025685	0.296585
H107	H	-0.274013	-0.575892	-0.340048
H108	H	0.225987	-0.075892	0.159952
H109	H	-0.281368	-0.636862	-0.281509
H110	H	0.218632	-0.136862	0.218491
H111	H	-0.383187	-0.530088	-0.285919
H112	H	0.116813	-0.030088	0.214081
H113	H	-0.390552	-0.591037	-0.227364
H114	H	0.109448	-0.091037	0.272636
H115	H	-0.271600	-0.558007	-0.174292
H116	H	0.228400	-0.058007	0.325708
H117	H	-0.264248	-0.497041	-0.232838
H118	H	0.235752	0.002959	0.267162
H119	H	-0.330278	-0.497098	-0.166879
H120	H	0.169722	0.002902	0.333121
H121	H	-0.505402	-0.527776	-0.505156
H122	H	-0.005402	-0.027776	-0.005156
H123	H	-0.518777	-0.747618	-0.518459
H124	H	-0.018777	-0.247618	-0.018459
C125	C	-0.318029	-0.757658	-0.318159
C126	C	0.181971	-0.257658	0.181841
C127	C	-0.365679	-0.799747	-0.268470
C128	C	0.134321	-0.299747	0.231530
C129	C	-0.315989	-0.836526	-0.218737
C130	C	0.184011	-0.336526	0.281263
H131	H	-0.285679	-0.725391	-0.285847
H132	H	0.214321	-0.225391	0.214153
H133	H	-0.284355	-0.786336	-0.350445
H134	H	0.215645	-0.286336	0.149555
H135	H	-0.399339	-0.771072	-0.236186
H136	H	0.100661	-0.271072	0.263814
H137	H	-0.398028	-0.832027	-0.300759
H138	H	0.101972	-0.332027	0.199241
H139	H	-0.282315	-0.865204	-0.251024
H140	H	0.217685	-0.365204	0.248976
H141	H	-0.283642	-0.804254	-0.186431
H142	H	0.216358	-0.304254	0.313569
H143	H	-0.348312	-0.865092	-0.185023
H144	H	0.151688	-0.365092	0.314977
H145	H	-0.551582	-0.416124	-0.551172
H146	H	-0.051582	0.083876	-0.051172
C147	C	-0.525881	-0.604721	-0.525476
C148	C	-0.025881	-0.104721	-0.025476
C149	C	-0.573463	-0.652543	-0.572866
C150	C	-0.073463	-0.152543	-0.072866
C151	C	-0.623425	-0.616011	-0.622581
C152	C	-0.123425	-0.116011	-0.122581
H153	H	-0.493782	-0.576126	-0.559344
H154	H	0.006218	-0.076126	-0.059344
H155	H	-0.559609	-0.576101	-0.493181
H156	H	-0.059609	-0.076101	0.006819
H157	H	-0.539739	-0.681151	-0.605159
H158	H	-0.039739	-0.181151	-0.105159
H159	H	-0.605579	-0.681140	-0.539020
H160	H	-0.105579	-0.181140	-0.039020
H161	H	-0.657154	-0.587391	-0.590285
H162	H	-0.157154	-0.087391	-0.090285
H163	H	-0.591320	-0.587418	-0.656443
H164	H	-0.091320	-0.087418	-0.156443
H165	H	-0.655721	-0.648453	-0.654736
H166	H	-0.155721	-0.148453	-0.154736
C167	C	-0.558491	-0.272974	-0.558132
C168	C	-0.058491	0.227026	-0.058132
C169	C	-0.543896	-0.200887	-0.543613
C170	C	-0.043896	0.299113	-0.043613
C171	C	-0.593629	-0.164074	-0.593268
C172	C	-0.093629	0.335926	-0.093268
H173	H	-0.613268	-0.284888	-0.546872
H174	H	-0.113268	0.215112	-0.046872
H175	H	-0.547337	-0.284982	-0.612931
H176	H	-0.047337	0.215018	-0.112931
H177	H	-0.555057	-0.188884	-0.488826
H178	H	-0.055057	0.311116	0.011174
H179	H	-0.489129	-0.188952	-0.554878
H180	H	0.010871	0.311048	-0.054878
H181	H	-0.582474	-0.176082	-0.648067
H182	H	-0.082474	0.323918	-0.148067
H183	H	-0.648403	-0.175994	-0.582004
H184	H	-0.148403	0.324006	-0.082004
H185	H	-0.583728	-0.115159	-0.583429
H186	H	-0.083728	0.384841	-0.083429
C187	C	-0.350651	-0.425935	-0.350825
C188	C	0.149349	0.074065	0.149175
C189	C	-0.303109	-0.378110	-0.303398
C190	C	0.196891	0.121890	0.196602
C191	C	-0.253220	-0.414639	-0.253607
C192	C	0.246780	0.085361	0.246393
H193	H	-0.316889	-0.454572	-0.383043
H194	H	0.183111	0.045428	0.116957
H195	H	-0.382826	-0.454513	-0.316988
H196	H	0.117174	0.045487	0.183012
H197	H	-0.270937	-0.349544	-0.337231
H198	H	0.229063	0.150456	0.162769
H199	H	-0.336850	-0.349472	-0.271164
H200	H	0.163150	0.150528	0.228836
H201	H	-0.285395	-0.443217	-0.219771
H202	H	0.214605	0.056783	0.280229
H203	H	-0.219463	-0.443274	-0.285831
H204	H	0.280537	0.056726	0.214169
H205	H	-0.220962	-0.382195	-0.221417
H206	H	0.279038	0.117805	0.278583
H207	H	-0.371064	-0.502876	-0.371215
H208	H	0.128936	-0.002876	0.128785
