data_functionalizedCrystal
_audit_creation_method	'MofGen! by Chris Wilmer'
_symmetry_space_group_name_H-M	'P1'
_symmetry_Int_Tables_number	1
_symmetry_cell_setting	triclinic
loop_
_symmetry_equiv_pos_as_xyz
  x,y,z
_cell_length_a	12.759401
_cell_length_b	19.121063
_cell_length_c	12.759393
_cell_angle_alpha	87.597083
_cell_angle_beta	90.018496
_cell_angle_gamma	92.469017
loop_
_atom_site_label
_atom_site_type_symbol
_atom_site_fract_x
_atom_site_fract_y
_atom_site_fract_z
Zn1	Zn	1.588321	-0.279568	0.611771
Zn2	Zn	1.580680	-0.397037	0.443567
Zn3	Zn	1.412621	-0.279605	0.436113
Zn4	Zn	1.405080	-0.396983	0.619205
O5	O	1.496676	-0.338298	0.527664
O6	O	1.734328	-0.295158	0.589467
O7	O	1.558345	-0.381497	0.295559
O8	O	1.442282	-0.181316	0.453184
O9	O	1.728714	-0.381462	0.465888
O10	O	1.571368	-0.181289	0.582240
O11	O	1.434872	-0.295221	0.290083
O12	O	1.264600	-0.295168	0.460392
O13	O	1.429429	-0.381370	0.765237
O14	O	1.259060	-0.381405	0.594909
O15	O	1.564056	-0.295106	0.759776
O16	O	1.551032	-0.495314	0.473095
O17	O	1.422020	-0.495274	0.602136
C18	C	1.223709	-0.338285	0.527649
C19	C	1.106932	-0.338297	0.527668
C20	C	1.049208	-0.383272	0.597605
C21	C	0.939483	-0.383281	0.597616
C22	C	0.945216	-0.293337	0.457747
C23	C	1.054939	-0.293325	0.457741
C24	C	1.101200	-0.428244	0.667532
C25	C	1.043476	-0.473224	0.737473
C26	C	0.933751	-0.473233	0.737485
C27	C	0.881751	-0.428262	0.667556
C28	C	1.484907	-0.520778	0.539254
C29	C	1.479969	-0.598844	0.544247
C30	C	1.544871	-0.635516	0.479464
C31	C	1.540233	-0.708867	0.484167
C32	C	1.470686	-0.745544	0.553648
C33	C	1.405781	-0.708866	0.618438
C34	C	1.410426	-0.635517	0.613740
C35	C	1.453305	-0.967013	0.571195
C36	C	1.448663	-1.040368	0.575886
C37	C	1.583116	-1.040364	0.441616
C38	C	1.587750	-0.967013	0.436920
C39	C	1.522849	-0.930341	0.501714
C40	C	1.465941	-0.820521	0.558454
C41	C	1.527600	-0.855366	0.496912
C42	C	1.770708	-0.338312	0.527680
C43	C	1.887484	-0.338318	0.527686
C44	C	1.496754	-0.338227	0.801693
C45	C	1.496787	-0.338197	0.918468
C46	C	1.508518	-0.155106	0.516052
C47	C	1.513565	-0.077040	0.511103
C48	C	1.496661	-0.338318	0.254698
C49	C	1.496844	-0.338151	0.137911
C50	C	1.566897	-0.293275	0.970488
C51	C	1.566923	-0.293250	1.080210
C52	C	1.426727	-0.383075	1.085884
C53	C	1.426696	-0.383096	0.976163
C54	C	1.636987	-0.248377	0.912792
C55	C	1.707103	-0.203452	0.964812
C56	C	1.707130	-0.203426	1.074535
C57	C	1.637040	-0.248326	1.132237
H58	H	1.601498	-0.605659	0.422881
C59	C	1.246621	-0.417270	1.121834
C60	C	1.349696	-0.432430	1.149311
H61	H	1.199069	-0.447739	1.160997
H62	H	1.236572	-0.423715	1.049054
H63	H	1.234315	-0.370074	1.136836
H64	H	1.362005	-0.479625	1.134301
H65	H	1.359750	-0.425990	1.222108
C66	C	1.673584	-0.701496	0.350963
C67	C	1.611569	-0.749178	0.412949
H68	H	1.717621	-0.726383	0.306991
H69	H	1.715562	-0.672841	0.394934
H70	H	1.629622	-0.672934	0.308914
H71	H	1.655531	-0.777737	0.455004
H72	H	1.569587	-0.777845	0.368973
C73	C	1.727867	-0.108916	1.191931
C74	C	1.784191	-0.154039	1.131712
H75	H	1.775446	-0.078423	1.227221
H76	H	1.686147	-0.135651	1.241997
H77	H	1.683820	-0.082062	1.147410
H78	H	1.828233	-0.180896	1.176234
H79	H	1.825929	-0.127301	1.081641
C80	C	0.809788	-0.483116	0.879430
C81	C	0.870300	-0.522669	0.814367
H82	H	0.770624	-0.513640	0.926896
H83	H	0.763121	-0.456345	0.837788
H84	H	0.854587	-0.452547	0.917745
H85	H	0.825501	-0.553235	0.776046
H86	H	0.916973	-0.549452	0.856014
C87	C	1.316243	-1.033008	0.708163
C88	C	1.372222	-1.080684	0.652276
H89	H	1.269060	-1.057900	0.755323
H90	H	1.277880	-1.004448	0.660533
H91	H	1.363826	-1.004350	0.746547
H92	H	1.324639	-1.109339	0.613885
H93	H	1.410587	-1.109257	0.699912
H94	H	1.636976	-0.248394	0.823451
C95	C	1.225685	-0.253372	0.395637
C96	C	1.118399	-0.243888	0.380867
H97	H	1.264861	-0.222846	0.348183
H98	H	1.240621	-0.300543	0.383135
H99	H	1.244335	-0.243148	0.465607
H100	H	1.099747	-0.254117	0.310898
H101	H	1.103456	-0.196707	0.393361
C102	C	1.735861	-0.266207	1.290555
C103	C	1.637067	-0.248303	1.252847
H104	H	1.735875	-0.266199	1.365013
H105	H	1.787620	-0.233034	1.263646
H106	H	1.751080	-0.311536	1.268591
H107	H	1.621851	-0.202971	1.274805
H108	H	1.585292	-0.281478	1.279767
H109	H	1.085822	-0.509833	0.794413
H110	H	1.764161	-0.166892	0.917823
H111	H	1.644380	-0.937152	0.380343
H112	H	1.369591	-0.419664	0.933807
H113	H	0.792406	-0.428267	0.667580
H114	H	1.357577	-0.605658	0.666494
C115	C	1.338952	-0.821306	0.685249
C116	C	1.329331	-0.749180	0.694810
H117	H	1.291746	-0.846192	0.732394
H118	H	1.408767	-0.833278	0.701457
H119	H	1.322851	-0.833365	0.615413
H120	H	1.345440	-0.737120	0.764645
H121	H	1.259500	-0.737203	0.678609
H122	H	1.190543	-0.428243	0.667528
C123	C	0.913586	-0.258989	0.277749
C124	C	0.888065	-0.243912	0.380874
H125	H	0.878309	-0.228473	0.230289
H126	H	0.892561	-0.306163	0.265264
H127	H	0.987196	-0.252543	0.267753
H128	H	0.814455	-0.250363	0.390872
H129	H	0.909084	-0.196726	0.393364
C130	C	1.635719	-1.152801	0.389215
C131	C	1.654471	-1.080675	0.370416
H132	H	1.679783	-1.177685	0.345265
H133	H	1.564386	-1.164870	0.374536
H134	H	1.650290	-1.164764	0.460592
H135	H	1.639893	-1.068710	0.299041
H136	H	1.725820	-1.068601	0.385088
H137	H	1.400458	-0.937161	0.623951
H138	H	1.584229	-0.825502	0.440345
H139	H	1.409314	-0.850391	0.615023
