data_functionalizedCrystal
_audit_creation_method	'MofGen! by Chris Wilmer'
_symmetry_space_group_name_H-M	'P1'
_symmetry_Int_Tables_number	1
_symmetry_cell_setting	triclinic
loop_
_symmetry_equiv_pos_as_xyz
  x,y,z
_cell_length_a	16.992694
_cell_length_b	17.666332
_cell_length_c	16.992696
_cell_angle_alpha	89.987022
_cell_angle_beta	89.331661
_cell_angle_gamma	90.003562
loop_
_atom_site_label
_atom_site_type_symbol
_atom_site_fract_x
_atom_site_fract_y
_atom_site_fract_z
O1	O	1.050856	0.062876	-0.166917
O2	O	1.550856	0.562876	0.333083
O3	O	0.822456	0.062898	-0.165086
O4	O	1.322456	0.562898	0.334914
O5	O	0.935740	0.062866	-0.051801
O6	O	1.435740	0.562866	0.448199
O7	O	0.937572	0.062908	-0.280201
O8	O	1.437572	0.562908	0.219799
O9	O	0.935719	-0.063031	-0.051796
O10	O	1.435719	0.436969	0.448204
O11	O	0.822435	-0.062999	-0.165081
O12	O	1.322435	0.437001	0.334919
O13	O	1.050835	-0.063021	-0.166912
O14	O	1.550835	0.436979	0.333088
Cu15	Cu	0.936633	-0.074505	-0.165996
Cu16	Cu	1.436633	0.425495	0.334004
Cu17	Cu	0.936658	0.074382	-0.166002
Cu18	Cu	1.436658	0.574382	0.333998
O19	O	0.937551	-0.062989	-0.280196
O20	O	1.437551	0.437011	0.219804
C21	C	0.793085	-0.000048	-0.162727
C22	C	1.293085	0.499952	0.337273
C23	C	0.705601	-0.000040	-0.155699
C24	C	1.205601	0.499960	0.344301
C25	C	0.659610	-0.000028	-0.223517
C26	C	1.159610	0.499972	0.276483
C27	C	0.577409	-0.000040	-0.216908
C28	C	1.077409	0.499960	0.283092
C29	C	0.541201	-0.000058	-0.142480
C30	C	1.041201	0.499942	0.357520
C31	C	0.587198	-0.000072	-0.074657
C32	C	1.087198	0.499928	0.425343
C33	C	0.669397	-0.000066	-0.081267
C34	C	1.169397	0.499934	0.418733
C35	C	0.295886	-0.000083	-0.115086
C36	C	0.795886	0.499917	0.384914
C37	C	0.213681	-0.000087	-0.108481
C38	C	0.713681	0.499913	0.391519
C39	C	0.203898	-0.000057	-0.250732
C40	C	0.703898	0.499943	0.249268
C41	C	0.286100	-0.000046	-0.257335
C42	C	0.786100	0.499954	0.242665
C43	C	0.332089	-0.000064	-0.189512
C44	C	0.832089	0.499936	0.310488
N45	N	0.457179	-0.000068	-0.135723
N46	N	0.957179	0.499932	0.364277
N47	N	0.416110	-0.000060	-0.196270
N48	N	0.916110	0.499940	0.303730
N49	N	0.936621	-0.179224	-0.165992
N50	N	1.436621	0.320776	0.334008
C51	C	0.987349	-0.218824	-0.216758
C52	C	1.487349	0.281176	0.283242
C53	C	0.987361	-0.298071	-0.216757
C54	C	1.487361	0.201929	0.283243
C55	C	0.936631	-0.337717	-0.165997
C56	C	1.436631	0.162283	0.334003
C57	C	0.885900	-0.298108	-0.115221
C58	C	1.385900	0.201892	0.384779
C59	C	0.885894	-0.218862	-0.115218
C60	C	1.385894	0.281138	0.384782
N61	N	0.867548	-0.462150	-0.159527
N62	N	1.367548	0.037850	0.340473
N63	N	0.867556	-0.537431	-0.159534
N64	N	1.367556	-0.037431	0.340466
C65	C	0.936646	-0.576481	-0.166001
C66	C	1.436646	-0.076481	0.333999
N67	N	1.005730	-0.537406	-0.172476
N68	N	1.505730	-0.037406	0.327524
N69	N	1.005722	-0.462119	-0.172472
N70	N	1.505722	0.037881	0.327528
C71	C	0.936632	-0.423646	-0.165994
C72	C	1.436632	0.076354	0.334006
C73	C	0.987392	-0.702009	-0.216768
C74	C	1.487392	-0.202009	0.283232
C75	C	0.987406	-0.781258	-0.216761
C76	C	1.487406	-0.281258	0.283239
C77	C	0.885937	-0.781293	-0.115229
C78	C	1.385937	-0.281293	0.384771
C79	C	0.885930	-0.702046	-0.115232
C80	C	1.385930	-0.202046	0.384768
C81	C	0.936657	-0.662408	-0.166006
C82	C	1.436657	-0.162408	0.333994
C83	C	1.080206	-0.000073	-0.169270
C84	C	1.580206	0.499927	0.330730
C85	C	1.167690	-0.000076	-0.176299
C86	C	1.667690	0.499924	0.323701
C87	C	0.933374	-0.000086	-0.022439
C88	C	1.433374	0.499914	0.477561
C89	C	0.926345	-0.000096	0.065046
C90	C	1.426345	0.499904	0.565046
N91	N	0.936676	0.179102	-0.166000
N92	N	1.436676	0.679102	0.334000
C93	C	0.994163	-0.000110	0.111037
C94	C	1.494163	0.499890	0.611037
C95	C	0.987554	-0.000113	0.193238
C96	C	1.487554	0.499887	0.693238
C97	C	0.913126	-0.000108	0.229446
C98	C	1.413126	0.499892	0.729446
C99	C	0.845303	-0.000092	0.183449
C100	C	1.345303	0.499908	0.683449
C101	C	0.851913	-0.000084	0.101250
C102	C	1.351913	0.499916	0.601250
C103	C	0.885731	-0.000127	0.474760
C104	C	1.385731	0.499873	0.974760
C105	C	0.879126	-0.000137	0.556966
C106	C	1.379126	0.499863	1.056966
C107	C	1.021378	-0.000157	0.566749
C108	C	1.521378	0.499843	1.066749
C109	C	1.027981	-0.000153	0.484547
C110	C	1.527981	0.499847	0.984547
C111	C	0.960158	-0.000133	0.438558
C112	C	1.460158	0.499867	0.938558
N113	N	0.906369	-0.000113	0.313468
N114	N	1.406369	0.499887	0.813468
N115	N	0.966916	-0.000122	0.354537
N116	N	1.466916	0.499878	0.854537
C117	C	0.939917	-0.000068	0.690441
C118	C	1.439917	0.499932	1.190441
C119	C	0.946944	-0.000151	0.602956
C120	C	1.446944	0.499849	1.102956
H121	H	0.539967	-0.000030	-0.272133
H122	H	1.039967	0.499970	0.227867
H123	H	0.844619	-0.669804	-0.073895
H124	H	1.344619	-0.169804	0.426105
O125	O	0.798842	-0.000131	0.596013
O126	O	1.298842	0.499869	1.096013
H127	H	0.792416	-0.051455	0.633224
H128	H	1.292416	0.448545	1.133224
H129	H	1.028671	-0.330319	-0.258099
H130	H	1.528671	0.169681	0.241901
O131	O	1.042104	-0.659246	-0.271522
O132	O	1.542104	-0.159246	0.228478
H133	H	1.103950	-0.674441	-0.258366
H134	H	1.603950	-0.174441	0.241634
H135	H	0.830504	-0.000111	0.437325
H136	H	1.330504	0.499889	0.937325
H137	H	1.054770	-0.000119	0.081563
H138	H	1.554770	0.499881	0.581563
H139	H	0.844596	-0.330392	-0.073891
H140	H	1.344596	0.169608	0.426109
H141	H	0.557710	-0.000098	-0.014056
H142	H	1.057710	0.499902	0.485944
O143	O	0.831196	-0.176150	-0.060438
O144	O	1.331196	0.323850	0.439562
H145	H	0.839725	-0.114386	-0.068954
H146	H	1.339725	0.385614	0.431046
O147	O	1.042129	-0.823973	-0.271514
O148	O	1.542129	-0.323973	0.228486
H149	H	1.007043	-0.860081	-0.311427
H150	H	1.507043	-0.360081	0.188573
O151	O	0.831217	-0.824041	-0.060480
O152	O	1.331217	-0.324041	0.439520
H153	H	0.839739	-0.885799	-0.069012
H154	H	1.339739	-0.385799	0.430988
O155	O	1.060699	-0.000140	0.242845
O156	O	1.560699	0.499860	0.742845
H157	H	1.113563	-0.000156	0.203858
H158	H	1.613563	0.499844	0.703858
H159	H	1.088588	-0.000157	0.455073
H160	H	1.588588	0.499843	0.955073
O161	O	1.094528	-0.000173	0.616349
O162	O	1.594528	0.499827	1.116349
H163	H	1.077432	-0.000173	0.679591
H164	H	1.577432	0.499827	1.179591
H165	H	0.689084	-0.000013	-0.284124
H166	H	1.189084	0.499987	0.215876
O167	O	1.042066	-0.176073	-0.271514
O168	O	1.542066	0.323927	0.228486
H169	H	1.006972	-0.139968	-0.311436
H170	H	1.506972	0.360032	0.188564
H171	H	0.706842	-0.000075	-0.026042
H172	H	1.206842	0.499925	0.473958
O173	O	0.345482	-0.000104	-0.041935
O174	O	0.845482	0.499896	0.458065
H175	H	0.332057	0.051203	-0.006564
H176	H	0.832057	0.551203	0.493436
O177	O	0.765027	-0.000095	0.222502
O178	O	1.265027	0.499905	0.722502
H179	H	0.758621	0.051208	0.259721
H180	H	1.258621	0.551208	0.759721
O181	O	0.325154	-0.000046	-0.337611
O182	O	0.825154	0.499954	0.162389
H183	H	0.279363	-0.000051	-0.383660
H184	H	0.779363	0.499949	0.116340
O185	O	0.154290	-0.000049	-0.323877
O186	O	0.654290	0.499951	0.176123
H187	H	0.167712	0.051273	-0.359252
H188	H	0.667712	0.551273	0.140748
O189	O	0.174623	-0.000114	-0.028202
O190	O	0.674623	0.499886	0.471798
H191	H	0.220411	-0.000134	0.017850
H192	H	0.720411	0.499866	0.517850
O193	O	0.778768	-0.000077	0.051639
O194	O	1.278768	0.499923	0.551639
H195	H	0.725903	-0.000084	0.090625
H196	H	1.225903	0.499916	0.590625
