data_functionalizedCrystal
_audit_creation_method	'MofGen! by Chris Wilmer'
_symmetry_space_group_name_H-M	'P1'
_symmetry_Int_Tables_number	1
_symmetry_cell_setting	triclinic
loop_
_symmetry_equiv_pos_as_xyz
  x,y,z
_cell_length_a	10.540491
_cell_length_b	14.853566
_cell_length_c	13.930277
_cell_angle_alpha	90.001956
_cell_angle_beta	89.999603
_cell_angle_gamma	95.929960
loop_
_atom_site_label
_atom_site_type_symbol
_atom_site_fract_x
_atom_site_fract_y
_atom_site_fract_z
O1	O	-0.165719	1.197265	0.079765
O2	O	0.334281	1.697265	0.579765
O3	O	-0.185463	0.934913	0.079780
O4	O	0.314537	1.434913	0.579780
O5	O	0.009186	1.072097	0.079769
O6	O	0.509186	1.572097	0.579769
O7	O	-0.360367	1.060081	0.079776
O8	O	0.139633	1.560081	0.579776
O9	O	0.009180	1.072084	-0.079893
O10	O	0.509180	1.572084	0.420107
O11	O	-0.185468	0.934899	-0.079882
O12	O	0.314532	1.434899	0.420118
O13	O	-0.165724	1.197252	-0.079897
O14	O	0.334276	1.697252	0.420103
Zn15	Zn	-0.175597	1.066073	-0.105239
Zn16	Zn	0.324403	1.566073	0.394761
Zn17	Zn	-0.175590	1.066091	0.105122
Zn18	Zn	0.324410	1.566091	0.605122
O19	O	-0.360373	1.060067	-0.079886
O20	O	0.139627	1.560067	0.420114
C21	C	-0.184571	0.901313	-0.000049
C22	C	0.315429	1.401313	0.499951
C23	C	-0.181891	0.801214	-0.000043
C24	C	0.318109	1.301214	0.499957
C25	C	0.056477	1.071199	-0.000061
C26	C	0.556477	1.571199	0.499939
C27	C	0.197399	1.068530	-0.000057
C28	C	0.697399	1.568530	0.499943
C29	C	0.415905	1.163836	-0.000432
C30	C	0.915905	1.663836	0.499568
C31	C	0.269340	1.166682	-0.000065
C32	C	0.769340	1.666682	0.499935
C33	C	0.241608	1.018297	0.091118
C34	C	0.741608	1.518297	0.591118
C35	C	0.388346	1.016146	0.091187
C36	C	0.888346	1.516146	0.591187
C37	C	0.388126	1.014087	-0.090378
C38	C	0.888126	1.514087	0.409622
C39	C	0.241835	1.018735	-0.091576
C40	C	0.741835	1.518735	0.408424
C41	C	0.592338	1.060978	-0.000058
C42	C	1.092338	1.560978	0.499942
C43	C	0.451423	1.063682	-0.000067
C44	C	0.951423	1.563682	0.499933
C45	C	-0.170553	0.377975	0.086972
C46	C	0.329447	0.877975	0.586972
C47	C	-0.170559	0.377982	-0.087098
C48	C	0.329441	0.877982	0.412902
C49	C	-0.173076	0.472029	-0.087095
C50	C	0.326924	0.972029	0.412905
C51	C	-0.174333	0.519054	-0.000057
C52	C	0.325667	1.019054	0.499943
C53	C	-0.173073	0.472031	0.086977
C54	C	0.326927	0.972031	0.586977
C55	C	-0.174349	0.519058	-0.174128
C56	C	0.325651	1.019058	0.325872
C57	C	-0.176867	0.613112	-0.174128
C58	C	0.323133	1.113112	0.325872
C59	C	-0.178115	0.660139	-0.087090
C60	C	0.321885	1.160139	0.412910
C61	C	-0.176854	0.613110	-0.000051
C62	C	0.323146	1.113110	0.499949
C63	C	-0.178111	0.660135	0.086986
C64	C	0.321889	1.160135	0.586986
C65	C	-0.176840	0.613109	0.174025
C66	C	0.323160	1.113109	0.674025
C67	C	-0.174321	0.519059	0.174016
C68	C	0.325679	1.019059	0.674016
C69	C	-0.180634	0.754189	-0.087080
C70	C	0.319366	1.254189	0.412920
C71	C	-0.180632	0.754191	0.086992
C72	C	0.319368	1.254191	0.586992
C73	C	-0.166616	1.230852	-0.000066
C74	C	0.333384	1.730852	0.499934
C75	C	-0.169296	1.330950	-0.000066
C76	C	0.330704	1.830950	0.499934
N77	N	-0.175601	1.066068	-0.248805
N78	N	0.324399	1.566068	0.251195
C79	C	-0.261765	1.005314	-0.299063
C80	C	0.238235	1.505314	0.200937
C81	C	-0.089432	1.126827	-0.299052
C82	C	0.410568	1.626827	0.200948
C83	C	-0.089427	1.126837	-0.399548
C84	C	0.410573	1.626837	0.100452
C85	C	-0.175591	1.066083	-0.449806
C86	C	0.324409	1.566083	0.050194
C87	C	-0.261760	1.005320	-0.399569
C88	C	0.238240	1.505320	0.100431
C89	C	-0.003251	1.187593	-0.449793
C90	C	0.496749	1.687593	0.050207
C91	C	-0.003241	1.187604	-0.550295
C92	C	0.496759	1.687604	-0.050295
C93	C	-0.089412	1.126854	-0.600555
C94	C	0.410588	1.626854	-0.100555
C95	C	-0.175586	1.066089	-0.550311
C96	C	0.324414	1.566089	-0.050311
C97	C	-0.261750	1.005335	-0.600569
C98	C	0.238250	1.505335	-0.100569
C99	C	-0.347931	0.944574	-0.550327
C100	C	0.152069	1.444574	-0.050327
C101	C	-0.347931	0.944570	-0.449829
C102	C	0.152069	1.444570	0.050171
C103	C	-0.089412	1.126858	-0.701054
C104	C	0.410588	1.626858	-0.201054
C105	C	-0.261745	1.005341	-0.701074
C106	C	0.238255	1.505341	-0.201074
N107	N	-0.175576	1.066104	0.248688
N108	N	0.324424	1.566104	0.748688
H109	H	0.240426	1.205987	-0.065422
H110	H	0.740426	1.705987	0.434578
F111	F	-0.353461	0.940681	-0.754555
F112	F	0.146539	1.440681	-0.254555
F113	F	-0.169171	0.327930	0.179600
F114	F	0.330829	0.827930	0.679600
H115	H	0.066930	1.237079	-0.591195
H116	H	0.566930	1.737079	-0.091195
H117	H	-0.169545	0.339688	-0.157960
H118	H	0.330455	0.839688	0.342040
H119	H	-0.177899	0.651393	-0.245001
H120	H	0.322101	1.151393	0.254999
F121	F	0.002309	1.191515	-0.754518
F122	F	0.502309	1.691515	-0.254518
F123	F	0.002273	1.191477	-0.245564
F124	F	0.502273	1.691477	0.254436
F125	F	-0.439623	0.879912	-0.603827
F126	F	0.060377	1.379912	-0.103827
H127	H	0.428943	1.050490	0.159338
H128	H	0.928943	1.550490	0.659338
H129	H	-0.418096	0.895099	-0.408915
H130	H	0.081904	1.395099	0.091085
F131	F	0.204951	1.066504	-0.179742
F132	F	0.704951	1.566504	0.320258
F133	F	0.473318	1.213540	0.084543
F134	F	0.973318	1.713540	0.584543
F135	F	0.176673	0.925069	-0.098768
F136	F	0.676673	1.425069	0.401232
H137	H	0.409465	0.940397	-0.090989
H138	H	0.909465	1.440397	0.409011
F139	F	0.232777	1.218367	0.085507
F140	F	0.732777	1.718367	0.585507
F141	F	0.471289	1.213814	-0.085899
F142	F	0.971289	1.713814	0.414101
H143	H	0.211138	1.053194	0.158967
H144	H	0.711138	1.553194	0.658967
F145	F	-0.353486	0.940653	-0.245595
F146	F	0.146514	1.440653	0.254405
H147	H	-0.173286	0.480762	0.244879
H148	H	0.326714	0.980762	0.744879
H149	H	0.410534	0.942738	0.095322
H150	H	0.910534	1.442738	0.595322
H151	H	-0.181651	0.792473	0.157869
H152	H	0.318349	1.292473	0.657869
H153	H	0.066908	1.237052	-0.408869
H154	H	0.566908	1.737052	0.091131
H155	H	0.193423	0.946040	0.094513
H156	H	0.693423	1.446040	0.594513
H157	H	0.430649	1.045273	-0.159490
H158	H	0.930649	1.545273	0.340510
H159	H	-0.177873	0.651408	0.244891
H160	H	0.322127	1.151408	0.744891
F161	F	-0.173025	0.469006	-0.266752
F162	F	0.326975	0.969006	0.233248
F163	F	-0.181995	0.804233	-0.179707
F164	F	0.318005	1.304233	0.320293
