data_functionalizedCrystal
_audit_creation_method	'MofGen! by Chris Wilmer'
_symmetry_space_group_name_H-M	'P1'
_symmetry_Int_Tables_number	1
_symmetry_cell_setting	triclinic
loop_
_symmetry_equiv_pos_as_xyz
  x,y,z
_cell_length_a	13.635800
_cell_length_b	7.190339
_cell_length_c	7.076028
_cell_angle_alpha	96.846815
_cell_angle_beta	117.700652
_cell_angle_gamma	60.611724
loop_
_atom_site_label
_atom_site_type_symbol
_atom_site_fract_x
_atom_site_fract_y
_atom_site_fract_z
V1	V	-2.142688	0.291705	-0.663512
O2	O	-2.089350	-0.017514	-0.652433
O3	O	-2.160490	0.581764	-0.657482
O4	O	-2.155299	0.285683	-0.953573
O5	O	-2.094576	0.280616	-0.354292
V6	V	-2.374290	0.254900	-0.626708
O7	O	-2.295604	0.372439	-0.744245
O8	O	-2.446473	0.174165	-0.545976
O9	O	-2.244886	-0.035159	-0.632738
O10	O	-2.486327	0.564118	-0.637787
O11	O	-2.481101	0.265988	-0.935928
O12	O	-2.250076	0.260921	-0.336647
V13	V	-1.642688	0.291705	-0.663512
O14	O	-1.589350	-0.017514	-0.652433
O15	O	-1.660490	0.581764	-0.657482
O16	O	-1.655299	0.285683	-0.953573
O17	O	-1.594576	0.280616	-0.354292
V18	V	-1.874290	0.254900	-0.626708
O19	O	-1.795604	0.372439	-0.744245
O20	O	-1.946473	0.174165	-0.545976
O21	O	-1.744886	-0.035159	-0.632738
O22	O	-1.986327	0.564118	-0.637787
O23	O	-1.981101	0.265988	-0.935928
O24	O	-1.750076	0.260921	-0.336647
C25	C	-2.092026	0.652525	-0.646640
C26	C	-2.148513	0.894100	-0.643592
C27	C	-1.592026	0.652525	-0.646640
C28	C	-1.648513	0.894100	-0.643592
C29	C	-2.151644	0.271768	-0.265888
C30	C	-2.088876	0.274826	-0.024313
C31	C	-1.585399	0.274832	-1.024321
C32	C	-1.637591	0.271768	-1.265894
