data_functionalizedCrystal
_audit_creation_method	'MofGen! by Chris Wilmer'
_symmetry_space_group_name_H-M	'P1'
_symmetry_Int_Tables_number	1
_symmetry_cell_setting	triclinic
loop_
_symmetry_equiv_pos_as_xyz
  x,y,z
_cell_length_a	14.853567
_cell_length_b	26.210047
_cell_length_c	14.853567
_cell_angle_alpha	90.008304
_cell_angle_beta	96.365070
_cell_angle_gamma	90.006077
loop_
_atom_site_label
_atom_site_type_symbol
_atom_site_fract_x
_atom_site_fract_y
_atom_site_fract_z
O1	O	1.196372	0.042389	-0.117691
O2	O	0.933913	0.042398	-0.131713
O3	O	1.072153	0.042395	0.006528
O4	O	1.058132	0.042392	-0.255932
O5	O	1.072126	-0.042463	0.006506
O6	O	0.933886	-0.042460	-0.131734
O7	O	1.196345	-0.042469	-0.117713
Cu8	Cu	1.065113	-0.050213	-0.124725
Cu9	Cu	1.065145	0.050142	-0.124700
O10	O	1.058105	-0.042466	-0.255953
C11	C	0.900311	-0.000030	-0.131088
C12	C	0.800227	-0.000027	-0.129184
N13	N	1.065098	-0.120797	-0.124743
C14	C	0.387693	-0.000037	-0.039019
C15	C	0.366412	-0.000039	-0.203251
C16	C	0.460446	-0.000037	-0.205042
C17	C	0.518108	-0.000035	-0.123819
C18	C	0.481736	-0.000034	-0.040806
C19	C	0.496825	-0.000032	-0.288053
C20	C	0.590864	-0.000030	-0.289846
C21	C	0.648528	-0.000032	-0.208623
C22	C	0.612150	-0.000032	-0.125607
C23	C	0.669812	-0.000030	-0.044384
C24	C	0.633437	-0.000033	0.038633
C25	C	0.539399	-0.000036	0.040417
C26	C	0.742565	-0.000029	-0.210407
C27	C	0.763855	-0.000026	-0.046172
C28	C	1.126351	-0.473312	-0.063501
C29	C	1.126371	-0.686971	-0.063489
O30	O	1.178417	-0.714594	-0.011422
N31	N	1.065150	-0.713691	-0.124680
C32	C	1.003915	-0.686993	-0.185875
O33	O	0.951836	-0.714622	-0.237916
C34	C	1.003891	-0.473335	-0.185883
C35	C	1.065123	-0.446618	-0.124693
C36	C	1.187578	-0.446595	-0.002316
C37	C	1.187575	-0.393183	-0.002323
C38	C	1.126347	-0.366489	-0.063515
C39	C	1.065121	-0.393206	-0.124700
C40	C	0.942653	-0.446638	-0.247073
C41	C	0.942651	-0.393220	-0.247068
C42	C	1.003882	-0.366503	-0.185878
C43	C	1.003890	-0.313101	-0.185900
N44	N	1.065112	-0.286381	-0.124708
C45	C	1.126340	-0.313075	-0.063516
C46	C	1.003932	-0.799166	-0.185868
C47	C	1.003939	-0.852580	-0.185868
C48	C	1.126395	-0.852554	-0.063479
C49	C	1.126392	-0.799139	-0.063485
C50	C	1.065154	-0.772446	-0.124677
C51	C	1.126331	-0.200907	-0.063536
C52	C	1.126326	-0.147491	-0.063551
C53	C	1.003867	-0.147521	-0.185935
C54	C	1.003875	-0.200933	-0.185924
C55	C	1.065111	-0.227624	-0.124717
O56	O	0.951865	-0.285445	-0.237932
O57	O	1.178398	-0.285436	-0.011469
C58	C	1.126354	-0.526723	-0.063494
C59	C	1.065128	-0.553441	-0.124679
C60	C	1.003899	-0.526747	-0.185872
C61	C	1.065134	-0.606855	-0.124679
C62	C	1.126363	-0.633549	-0.063486
C63	C	1.187584	-0.606829	-0.002295
C64	C	1.187582	-0.553418	-0.002302
C65	C	0.942677	-0.553467	-0.247063
C66	C	0.942685	-0.606878	-0.247052
C67	C	1.003914	-0.633572	-0.185860
C68	C	1.229947	-0.000040	-0.118337
C69	C	1.330031	-0.000040	-0.120241
C70	C	1.071504	-0.000033	0.040106
C71	C	1.069601	-0.000028	0.140189
N72	N	1.065168	0.120726	-0.124676
C73	C	1.058754	-0.000037	-0.289531
C74	C	1.060657	-0.000038	-0.389615
C75	C	0.979435	-0.000035	0.552723
C76	C	1.143668	-0.000040	0.574004
C77	C	1.145458	-0.000037	0.479970
C78	C	1.064235	-0.000034	0.422309
C79	C	0.981223	-0.000034	0.458680
C80	C	1.228469	-0.000043	0.443591
C81	C	1.230262	-0.000040	0.349552
C82	C	1.149039	-0.000033	0.291889
C83	C	1.066023	-0.000033	0.328266
C84	C	0.984800	-0.000029	0.270604
C85	C	0.901783	-0.000025	0.306979
C86	C	0.899999	-0.000027	0.401017
C87	C	1.150823	-0.000031	0.197851
C88	C	0.986588	-0.000028	0.176561
H89	H	0.810798	-0.000027	0.019971
H90	H	0.680397	-0.000028	0.104764
N91	N	0.502228	-0.000039	0.125202
N92	N	0.418264	-0.000039	0.126783
H93	H	0.392007	-0.000040	0.186662
N94	N	0.437947	-0.000027	-0.371027
N95	N	0.441333	0.035745	-0.426194
H96	H	0.399750	0.035750	-0.484800
N97	N	0.880099	-0.365963	-0.309591
N98	N	0.881433	-0.371943	-0.392923
H99	H	0.837257	-0.352693	-0.437083
H100	H	1.209795	-0.000047	0.620958
H101	H	0.358072	-0.000042	0.028572
H102	H	1.294596	-0.000050	0.490546
N103	N	1.250180	-0.365926	0.060169
N104	N	1.248912	-0.371892	0.143509
H105	H	1.293153	-0.352653	0.187638
N106	N	0.307513	-0.000050	-0.286211
N107	N	0.310877	-0.035823	-0.341400
H108	H	0.269274	-0.035832	-0.399993
N109	N	0.880089	-0.473910	-0.309578
N110	N	0.796765	-0.467940	-0.308178
H111	H	0.752573	-0.487199	-0.352326
N112	N	0.628002	-0.000025	-0.374649
N113	N	0.576507	-0.000025	-0.447161
H114	H	0.602735	-0.000021	-0.507055
H115	H	0.772178	-0.000027	-0.277998
H116	H	1.176192	-0.125739	-0.013723
H117	H	1.176194	-0.222633	-0.013694
H118	H	0.954064	-0.777436	-0.235700
N119	N	1.250129	-0.473849	0.060207
N120	N	1.304782	-0.449977	0.114828
H121	H	1.348967	-0.469222	0.158986
H122	H	0.832411	-0.000024	0.430643
N123	N	0.818827	-0.000028	0.248062
N124	N	0.820444	-0.000032	0.164104
H125	H	0.761858	-0.000035	0.122489
N126	N	0.894648	-0.000037	0.589892
N127	N	0.875320	-0.035806	0.639983
H128	H	0.815440	-0.035808	0.666236
H129	H	0.892825	-0.628628	-0.296888
H130	H	1.176251	-0.777389	-0.013659
H131	H	1.176251	-0.874298	-0.013655
H132	H	0.954088	-0.874330	-0.235703
H133	H	1.297860	-0.000043	0.319944
H134	H	0.892817	-0.531736	-0.296893
N135	N	1.235611	-0.000049	0.160692
N136	N	1.290373	-0.035826	0.178303
H137	H	1.350258	-0.035839	0.152059
N138	N	0.941319	-0.228222	-0.248423
N139	N	0.857995	-0.222255	-0.247024
H140	H	0.813806	-0.241525	-0.291157
N141	N	0.941337	-0.120240	-0.248437
N142	N	0.941349	-0.072550	-0.248424
H143	H	0.897183	-0.053280	-0.292562
H144	H	1.237442	-0.628572	0.047528
N145	N	1.250136	-0.526139	0.060209
N146	N	1.304794	-0.549988	0.114836
H147	H	1.348975	-0.530726	0.158989
H148	H	0.920445	-0.000023	0.129618
