data_functionalizedCrystal
_audit_creation_method	'MofGen! by Chris Wilmer'
_symmetry_space_group_name_H-M	'P1'
_symmetry_Int_Tables_number	1
_symmetry_cell_setting	triclinic
loop_
_symmetry_equiv_pos_as_xyz
  x,y,z
_cell_length_a	14.908783
_cell_length_b	29.839131
_cell_length_c	14.908662
_cell_angle_alpha	93.266596
_cell_angle_beta	83.203450
_cell_angle_gamma	93.332050
loop_
_atom_site_label
_atom_site_type_symbol
_atom_site_fract_x
_atom_site_fract_y
_atom_site_fract_z
Zn1	Zn	1.413276	-0.155297	-0.591745
Zn2	Zn	1.404390	-0.226333	-0.440363
Zn3	Zn	1.253172	-0.155307	-0.431649
Zn4	Zn	1.261811	-0.234494	-0.582934
O5	O	1.333162	-0.192858	-0.511673
O6	O	1.538771	-0.161300	-0.578998
O7	O	1.376996	-0.213501	-0.312541
O8	O	1.274513	-0.092437	-0.452927
O9	O	1.532243	-0.213491	-0.467779
O10	O	1.392141	-0.092429	-0.570549
O11	O	1.265897	-0.161319	-0.306139
O12	O	1.127644	-0.169231	-0.444383
O13	O	1.289237	-0.227398	-0.710769
O14	O	1.133991	-0.227409	-0.555531
O15	O	1.400518	-0.169213	-0.717243
O16	O	1.385373	-0.290285	-0.459235
O17	O	1.280621	-0.296280	-0.563981
C18	C	1.097972	-0.199207	-0.498056
C19	C	0.997358	-0.201935	-0.492252
C20	C	0.815100	-0.152798	-0.597335
C21	C	0.720564	-0.155359	-0.591885
C22	C	0.713749	-0.209616	-0.475897
C23	C	0.808285	-0.207055	-0.481347
C24	C	0.858957	-0.178645	-0.542070
C25	C	0.953495	-0.176086	-0.547524
C26	C	0.946678	-0.230341	-0.431532
C27	C	0.852142	-0.232902	-0.426082
C28	C	1.332996	-0.309584	-0.511619
C29	C	1.333010	-0.359518	-0.511630
C30	C	1.387817	-0.666023	-0.457222
C31	C	1.387931	-0.853694	-0.457264
O32	O	1.434398	-0.875293	-0.410962
N33	N	1.333354	-0.880297	-0.511752
C34	C	1.278749	-0.859979	-0.566238
O35	O	1.232338	-0.886912	-0.612591
C36	C	1.278641	-0.672308	-0.566200
C37	C	1.333214	-0.645708	-0.511702
C38	C	1.442387	-0.639423	-0.402729
C39	C	1.442354	-0.592508	-0.402716
C40	C	1.387752	-0.572193	-0.457195
C41	C	1.333182	-0.598793	-0.511689
C42	C	1.224042	-0.651991	-0.620691
C43	C	1.224021	-0.605070	-0.620678
C44	C	1.278595	-0.578470	-0.566180
C45	C	1.278547	-0.531563	-0.566155
N46	N	1.333123	-0.504961	-0.511667
C47	C	1.387726	-0.525276	-0.457187
C48	C	1.278809	-0.958508	-0.566252
C49	C	1.278834	-1.005425	-0.566261
C50	C	1.388017	-0.999138	-0.457288
C51	C	1.387986	-0.952219	-0.457275
C52	C	1.333385	-0.931905	-0.511764
C53	C	1.387652	-0.426752	-0.457162
C54	C	1.387612	-0.379833	-0.457151
C55	C	1.278433	-0.386125	-0.566127
C56	C	1.278470	-0.433039	-0.566135
C57	C	1.333086	-0.453351	-0.511650
O58	O	1.232111	-0.509934	-0.612440
O59	O	1.434145	-0.498335	-0.410856
C60	C	1.387850	-0.712938	-0.457236
C61	C	1.333280	-0.739538	-0.511729
C62	C	1.278677	-0.719223	-0.566209
C63	C	1.333305	-0.786455	-0.511737
C64	C	1.387908	-0.806770	-0.457258
C65	C	1.442485	-0.780168	-0.402770
C66	C	1.442452	-0.733253	-0.402756
C67	C	1.224100	-0.745825	-0.620697
C68	C	1.224137	-0.792740	-0.620705
C69	C	1.278739	-0.813055	-0.566225
C70	C	1.569270	-0.186484	-0.525343
C71	C	1.669886	-0.183768	-0.531169
C72	C	1.346832	-0.199215	-0.747768
C73	C	1.352658	-0.201923	-0.848377
C74	C	1.333355	-0.075676	-0.511749
C75	C	1.333437	-0.025740	-0.511781
C76	C	1.418701	-0.232907	-0.993517
C77	C	1.413234	-0.230364	-0.898986
C78	C	1.297543	-0.176025	-0.892305
C79	C	1.303009	-0.178568	-0.986837
C80	C	1.363592	-0.207010	-1.037439
C81	C	1.369063	-0.209550	-1.131972
C82	C	1.253367	-0.155214	-1.125290
C83	C	1.247900	-0.152670	-1.030759
C84	C	1.319597	-0.186492	-0.276500
C85	C	1.313947	-0.183652	-0.175901
H86	H	0.982396	-0.251391	-0.386537
O87	O	0.664482	-0.237260	-0.417040
C88	C	0.612726	-0.269172	-0.465311
H89	H	0.645358	-0.273152	-0.538234
H90	H	0.541287	-0.257303	-0.464353
C91	C	0.568537	-0.309798	-0.331262
C92	C	0.608620	-0.314689	-0.420825
H93	H	0.566000	-0.337874	-0.303820
H94	H	0.603402	-0.288297	-0.298739
H95	H	0.509008	-0.299905	-0.330476
H96	H	0.668152	-0.324575	-0.421609
H97	H	0.573764	-0.336192	-0.453347
H98	H	1.486891	-0.711598	-0.358379
H99	H	1.468036	-0.256062	-1.034719
H100	H	0.810872	-0.256031	-0.376641
H101	H	1.198573	-0.129516	-0.989545
O102	O	1.171223	-0.818557	-0.673784
C103	C	1.196146	-0.808946	-0.765146
H104	H	1.268719	-0.794181	-0.773946
H105	H	1.148949	-0.783679	-0.785946
C106	C	1.099957	-0.870661	-0.814153
C107	C	1.189095	-0.852529	-0.824963
H108	H	1.095604	-0.897544	-0.851052
H109	H	1.083163	-0.877135	-0.752601
H110	H	1.060636	-0.849600	-0.831485
H111	H	1.228412	-0.873587	-0.807620
H112	H	1.205895	-0.846059	-0.886514
H113	H	1.432052	-0.358176	-0.412768
H114	H	1.432129	-0.443284	-0.412798
H115	H	1.486795	-0.570853	-0.358341
H116	H	1.234034	-0.454698	-0.610515
H117	H	1.486855	-0.655958	-0.358365
H118	H	0.994751	-0.152954	-0.596968
O119	O	1.441085	-0.926448	-0.404316
C120	C	1.489259	-0.954446	-0.356215
H121	H	1.494523	-0.988796	-0.393483
H122	H	1.452183	-0.958507	-0.285529
C123	C	1.578388	-0.890952	-0.303045
C124	C	1.584860	-0.933140	-0.348821
H125	H	1.637358	-0.877809	-0.298479
H126	H	1.545930	-0.872089	-0.335447
H127	H	1.547487	-0.894342	-0.244144
H128	H	1.615750	-0.929748	-0.407724
H129	H	1.617325	-0.952002	-0.316428
H130	H	0.684860	-0.134310	-0.636886
H131	H	1.458113	-0.251451	-0.863229
O132	O	1.225918	-1.031242	-0.619329
C133	C	1.250836	-1.021636	-0.710694
H134	H	1.323411	-1.006874	-0.719503
H135	H	1.203641	-0.996368	-0.731495
C136	C	1.154631	-1.083349	-0.759681
C137	C	1.243772	-1.065222	-0.770501
H138	H	1.150270	-1.110234	-0.796574
H139	H	1.137841	-1.089820	-0.698127
H140	H	1.115313	-1.062288	-0.777014
H141	H	1.283087	-1.086280	-0.753158
H142	H	1.260569	-1.058755	-0.832054
H143	H	1.432477	-1.015686	-0.412929
H144	H	1.208497	-0.134124	-1.161061
H145	H	1.234344	-0.941972	-0.610625
H146	H	0.856358	-0.129667	-0.646782
H147	H	1.179597	-0.673641	-0.665064
H148	H	1.179638	-0.729289	-0.665062
H149	H	1.179560	-0.588533	-0.665053
H150	H	1.233973	-0.369577	-0.610481
O151	O	1.495666	-0.799849	-0.349902
C152	C	1.587009	-0.786435	-0.375007
H153	H	1.590837	-0.753249	-0.409901
H154	H	1.620171	-0.813244	-0.423345
C155	C	1.632120	-0.821154	-0.247140
C156	C	1.636821	-0.780392	-0.289991
H157	H	1.662849	-0.817428	-0.194700
H158	H	1.570581	-0.830193	-0.230228
H159	H	1.659754	-0.843491	-0.287431
H160	H	1.609178	-0.758057	-0.249704
H161	H	1.698357	-0.771349	-0.306895
H162	H	1.248212	-0.152873	-0.851088
H163	H	1.418395	-0.232707	-1.173172
