data_functionalizedCrystal
_audit_creation_method	'MofGen! by Chris Wilmer'
_symmetry_space_group_name_H-M	'P1'
_symmetry_Int_Tables_number	1
_symmetry_cell_setting	triclinic
loop_
_symmetry_equiv_pos_as_xyz
  x,y,z
_cell_length_a	19.288865
_cell_length_b	17.766277
_cell_length_c	19.288865
_cell_angle_alpha	89.988397
_cell_angle_beta	83.136247
_cell_angle_gamma	89.992086
loop_
_atom_site_label
_atom_site_type_symbol
_atom_site_fract_x
_atom_site_fract_y
_atom_site_fract_z
O1	O	0.921353	-0.062577	0.086649
O2	O	1.254686	0.270756	0.419982
O3	O	1.588020	0.604090	0.753315
O4	O	0.719092	-0.062585	0.098337
O5	O	1.052426	0.270748	0.431671
O6	O	1.385759	0.604081	0.765004
O7	O	0.826067	-0.062566	-0.008637
O8	O	1.159400	0.270767	0.324696
O9	O	1.492734	0.604101	0.658029
O10	O	0.814378	-0.062596	0.193623
O11	O	1.147712	0.270737	0.526957
O12	O	1.481045	0.604070	0.860290
O13	O	0.826048	0.062622	-0.008643
O14	O	1.159382	0.395956	0.324691
O15	O	1.492715	0.729289	0.658024
O16	O	0.719074	0.062603	0.098332
O17	O	1.052407	0.395936	0.431665
O18	O	1.385740	0.729270	0.764999
O19	O	0.921334	0.062611	0.086643
O20	O	1.254668	0.395945	0.419977
O21	O	1.588001	0.729278	0.753310
Cu22	Cu	0.820202	0.074038	0.092487
Cu23	Cu	1.153536	0.407371	0.425821
Cu24	Cu	1.486869	0.740705	0.759154
Cu25	Cu	0.820224	-0.074012	0.092494
Cu26	Cu	1.153558	0.259321	0.425827
Cu27	Cu	1.486891	0.592655	0.759160
O28	O	0.814360	0.062592	0.193618
O29	O	1.147693	0.395925	0.526951
O30	O	1.481026	0.729259	0.860285
C31	C	0.693207	0.000008	0.097959
C32	C	1.026540	0.333341	0.431292
C33	C	1.359873	0.666675	0.764625
C34	C	0.616103	0.000005	0.096830
C35	C	0.949436	0.333339	0.430163
C36	C	1.282770	0.666672	0.763496
C37	C	0.825682	0.000030	-0.034516
C38	C	1.159015	0.333364	0.298817
C39	C	1.492348	0.666697	0.632150
C40	C	0.824553	0.000037	-0.111620
C41	C	1.157886	0.333370	0.221713
C42	C	1.491219	0.666704	0.555047
C43	C	0.947220	0.000016	0.087022
C44	C	1.280553	0.333350	0.420355
C45	C	1.613887	0.666683	0.753689
C46	C	1.024324	0.000014	0.088151
C47	C	1.357657	0.333347	0.421484
C48	C	1.690990	0.666681	0.754818
N49	N	0.820192	0.178168	0.092482
N50	N	1.153525	0.511502	0.425816
N51	N	1.486858	0.844835	0.759149
C52	C	1.069020	0.000017	0.025383
C53	C	1.402353	0.333350	0.358717
C54	C	1.735687	0.666683	0.692050
C55	C	1.141467	0.000021	0.026444
C56	C	1.474800	0.333354	0.359777
C57	C	1.808134	0.666688	0.693111
C58	C	1.169215	0.000007	0.090276
C59	C	1.502548	0.333341	0.423609
C60	C	1.835881	0.666674	0.756943
C61	C	1.124508	0.000009	0.153052
C62	C	1.457842	0.333342	0.486386
C63	C	1.791175	0.666675	0.819719
C64	C	1.052063	0.000012	0.151990
C65	C	1.385396	0.333345	0.485323
C66	C	1.718730	0.666679	0.818656
C67	C	1.277498	-0.043864	0.140457
C68	C	1.610831	0.289470	0.473791
C69	C	1.944165	0.622803	0.807124
C70	C	1.349942	-0.043872	0.141517
C71	C	1.683276	0.289462	0.474851
C72	C	2.016609	0.622795	0.808184
C73	C	1.392660	0.000000	0.093556
C74	C	1.725993	0.333334	0.426889
C75	C	2.059327	0.666667	0.760222
C76	C	1.362926	0.043871	0.044523
C77	C	1.696259	0.377204	0.377856
C78	C	2.029593	0.710537	0.711189
C79	C	1.290481	0.043874	0.043460
C80	C	1.623814	0.377207	0.376793
C81	C	1.957147	0.710541	0.710127
C82	C	1.247769	0.000004	0.091435
C83	C	1.581102	0.333337	0.424769
C84	C	1.914435	0.666671	0.758102
C85	C	1.515912	0.000009	0.031934
C86	C	1.849246	0.333342	0.365267
C87	C	2.182579	0.666676	0.698600
C88	C	1.588361	0.000018	0.032997
C89	C	1.921694	0.333351	0.366330
C90	C	2.255027	0.666685	0.699664
C91	C	1.571400	-0.000002	0.159607
C92	C	1.904734	0.333331	0.492940
C93	C	2.238067	0.666665	0.826274
C94	C	1.498954	-0.000003	0.158542
C95	C	1.832287	0.333330	0.491875
C96	C	2.165621	0.666663	0.825209
C97	C	1.471215	-0.000001	0.094703
C98	C	1.804548	0.333332	0.428037
C99	C	2.137881	0.666665	0.761370
N100	N	0.820240	-0.178142	0.092493
N101	N	1.153574	0.155191	0.425826
N102	N	1.486907	0.488524	0.759160
C103	C	0.867575	0.217564	0.045137
C104	C	1.200909	0.550897	0.378470
C105	C	1.534242	0.884230	0.711804
C106	C	0.867579	0.296366	0.045134
C107	C	1.200913	0.629699	0.378467
C108	C	1.534246	0.963032	0.711800
C109	C	0.820206	0.335769	0.092488
C110	C	1.153540	0.669102	0.425821
C111	C	1.486873	1.002436	0.759154
C112	C	0.772814	0.296364	0.139837
C113	C	1.106147	0.629697	0.473170
C114	C	1.439481	0.963031	0.806503
C115	C	0.772807	0.217564	0.139834
C116	C	1.106140	0.550897	0.473167
C117	C	1.439473	0.884230	0.806501
C118	C	0.810908	0.460597	0.155775
C119	C	1.144241	0.793930	0.489109
C120	C	1.477574	1.127264	0.822442
C121	C	0.810920	0.539396	0.155779
C122	C	1.144253	0.872729	0.489112
C123	C	1.477586	1.206063	0.822446
C124	C	0.820225	0.578815	0.092496
C125	C	1.153558	0.912149	0.425829
C126	C	1.486892	1.245482	0.759163
C127	C	0.829533	0.539426	0.029207
C128	C	1.162866	0.872759	0.362540
C129	C	1.496199	1.206093	0.695873
C130	C	0.829525	0.460626	0.029204
C131	C	1.162859	0.793959	0.362537
C132	C	1.496192	1.127292	0.695871
C133	C	0.820209	0.421215	0.092496
C134	C	1.153542	0.754548	0.425829
C135	C	1.486875	1.087881	0.759162
C136	C	0.867616	0.703657	0.045143
C137	C	1.200949	1.036990	0.378477
C138	C	1.534282	1.370323	0.711810
C139	C	0.867615	0.782460	0.045139
C140	C	1.200948	1.115793	0.378473
C141	C	1.534281	1.449126	0.711806
C142	C	0.772852	0.782457	0.139848
C143	C	1.106186	1.115790	0.473182
C144	C	1.439519	1.449123	0.806515
C145	C	0.772850	0.703655	0.139846
C146	C	1.106183	1.036988	0.473180
C147	C	1.439517	1.370322	0.806513
C148	C	0.820235	0.664260	0.092495
C149	C	1.153569	0.997593	0.425828
C150	C	1.486902	1.330926	0.759161
C151	C	0.887320	0.000043	-0.156316
C152	C	1.220654	0.333377	0.177017
C153	C	1.553987	0.666710	0.510350
C154	C	0.886260	0.000031	-0.228763
C155	C	1.219593	0.333365	0.104570
C156	C	1.552926	0.666698	0.437903
C157	C	0.822428	0.000028	-0.256511
C158	C	1.155761	0.333361	0.076822
C159	C	1.489094	0.666695	0.410156
C160	C	0.759651	0.000018	-0.211805
C161	C	1.092985	0.333351	0.121529
C162	C	1.426318	0.666684	0.454862
C163	C	0.760714	0.000022	-0.139359
C164	C	1.094047	0.333355	0.193974
C165	C	1.427381	0.666689	0.527307
C166	C	0.772242	0.043877	-0.364800
C167	C	1.105575	0.377210	-0.031467
C168	C	1.438908	0.710544	0.301867
C169	C	0.771182	0.043877	-0.437245
C170	C	1.104515	0.377210	-0.103911
C171	C	1.437848	0.710544	0.229422
C172	C	0.819148	0.000011	-0.479956
C173	C	1.152481	0.333344	-0.146623
C174	C	1.485815	0.666678	0.186710
C175	C	0.868186	-0.043845	-0.450216
C176	C	1.201519	0.289488	-0.116883
C177	C	1.534853	0.622821	0.216450
C178	C	0.869248	-0.043841	-0.377771
C179	C	1.202582	0.289492	-0.044438
C180	C	1.535915	0.622826	0.288896
C181	C	0.821268	0.000023	-0.335065
C182	C	1.154602	0.333356	-0.001732
C183	C	1.487935	0.666690	0.331602
C184	C	0.880770	0.000003	-0.603209
C185	C	1.214103	0.333337	-0.269875
C186	C	1.547437	0.666670	0.063458
C187	C	0.879707	-0.000013	-0.675657
C188	C	1.213040	0.333320	-0.342323
C189	C	1.546373	0.666653	-0.008990
C190	C	0.753097	-0.000019	-0.658697
C191	C	1.086430	0.333314	-0.325363
C192	C	1.419763	0.666647	0.007970
C193	C	0.754162	-0.000010	-0.586250
C194	C	1.087495	0.333323	-0.252917
C195	C	1.420828	0.666656	0.080417
C196	C	0.818000	0.000005	-0.558511
C197	C	1.151334	0.333338	-0.225177
C198	C	1.484667	0.666671	0.108156
C199	C	0.814745	-0.000006	0.219497
C200	C	1.148078	0.333327	0.552831
C201	C	1.481412	0.666661	0.886164
C202	C	0.815874	-0.000018	0.296601
C203	C	1.149207	0.333316	0.629934
C204	C	1.482541	0.666649	0.963267
H205	H	1.046440	0.000021	-0.026599
H206	H	1.379773	0.333354	0.306734
H207	H	1.713106	0.666688	0.640068
Cl208	Cl	0.841237	0.588972	-0.050355
Cl209	Cl	1.174570	0.922306	0.282979
Cl210	Cl	1.507903	1.255639	0.616312
H211	H	1.624752	0.000026	-0.018118
H212	H	1.958086	0.333359	0.315215
H213	H	2.291419	0.666692	0.648548
H214	H	0.906198	0.814536	0.006581
H215	H	1.239531	1.147870	0.339915
H216	H	1.572865	1.481203	0.673248
Cl217	Cl	0.927140	0.168039	-0.014393
Cl218	Cl	1.260474	0.501372	0.318941
Cl219	Cl	1.593807	0.834705	0.652274
Cl220	Cl	0.927181	0.654130	-0.014388
Cl221	Cl	1.260515	0.987463	0.318946
Cl222	Cl	1.593848	1.320796	0.652279
Cl223	Cl	1.197667	0.000022	-0.052470
Cl224	Cl	1.531000	0.333355	0.280863
Cl225	Cl	1.864334	0.666689	0.614196
H226	H	0.733180	0.079602	-0.330029
H227	H	1.066513	0.412935	0.003304
H228	H	1.399846	0.746269	0.336637
Cl229	Cl	1.159390	-0.000005	0.233298
Cl230	Cl	1.492723	0.333328	0.566632
Cl231	Cl	1.826057	0.666661	0.899965
Cl232	Cl	1.606276	-0.000007	0.239854
Cl233	Cl	1.939609	0.333326	0.573188
Cl234	Cl	2.272943	0.666660	0.906521
Cl235	Cl	0.927153	0.345900	-0.014391
Cl236	Cl	1.260487	0.679233	0.318943
Cl237	Cl	1.593820	1.012566	0.652276
H238	H	0.734241	0.328450	0.178392
H239	H	1.067574	0.661783	0.511725
H240	H	1.400908	0.995117	0.845059
Cl241	Cl	0.799274	0.411050	0.235341
Cl242	Cl	1.132607	0.744383	0.568674
Cl243	Cl	1.465940	1.077717	0.902008
Cl244	Cl	0.713235	0.168034	0.199359
Cl245	Cl	1.046568	0.501368	0.532693
Cl246	Cl	1.379901	0.834701	0.866026
H247	H	0.837102	0.428558	-0.022328
H248	H	1.170436	0.761891	0.311005
H249	H	1.503769	1.095225	0.644338
Cl250	Cl	0.967575	0.000041	-0.121448
Cl251	Cl	1.300908	0.333374	0.211886
Cl252	Cl	1.634241	0.666707	0.545219
Cl253	Cl	1.253101	0.099039	-0.018165
Cl254	Cl	1.586434	0.432373	0.315169
Cl255	Cl	1.919767	0.765706	0.648502
H256	H	0.731249	0.079583	-0.461453
H257	H	1.064582	0.412917	-0.128119
H258	H	1.397916	0.746250	0.205214
Cl259	Cl	1.416621	0.099020	-0.015783
Cl260	Cl	1.749955	0.432354	0.317551
Cl261	Cl	2.083288	0.765687	0.650884
Cl262	Cl	0.672850	-0.000028	-0.693572
Cl263	Cl	1.006183	0.333306	-0.360239
Cl264	Cl	1.339516	0.666639	-0.026906
Cl265	Cl	0.961022	0.000026	-0.568333
Cl266	Cl	1.294356	0.333360	-0.235000
Cl267	Cl	1.627689	0.666693	0.098334
H268	H	0.734278	0.814538	0.178402
H269	H	1.067611	1.147872	0.511735
H270	H	1.400944	1.481205	0.845069
Cl271	Cl	0.713283	0.654124	0.199373
Cl272	Cl	1.046616	0.987458	0.532706
Cl273	Cl	1.379949	1.320791	0.866039
Cl274	Cl	0.681799	0.000015	-0.083166
Cl275	Cl	1.015132	0.333348	0.250167
Cl276	Cl	1.348466	0.666681	0.583500
H277	H	1.493326	0.000014	-0.020048
H278	H	1.826659	0.333347	0.313286
H279	H	2.159993	0.666681	0.646619
H280	H	1.462561	-0.000010	0.209654
H281	H	1.795894	0.333323	0.542988
H282	H	2.129228	0.666656	0.876321
H283	H	0.937375	0.000033	-0.265162
H284	H	1.270708	0.333367	0.068171
H285	H	1.604041	0.666700	0.401505
Cl286	Cl	0.799224	0.588906	0.235342
Cl287	Cl	1.132557	0.922239	0.568675
Cl288	Cl	1.465890	1.255573	0.902008
Cl289	Cl	0.930889	-0.098977	-0.340385
Cl290	Cl	1.264222	0.234356	-0.007052
Cl291	Cl	1.597555	0.567690	0.326282
H292	H	0.907245	-0.079566	-0.484991
H293	H	1.240578	0.253768	-0.151658
H294	H	1.573911	0.587101	0.181675
H295	H	0.930822	-0.000012	-0.712049
H296	H	1.264155	0.333321	-0.378715
H297	H	1.597489	0.666654	-0.045382
Cl298	Cl	0.679405	0.000008	-0.246686
Cl299	Cl	1.012739	0.333341	0.086647
Cl300	Cl	1.346072	0.666674	0.419980
H301	H	0.703049	-0.000011	-0.549857
H302	H	1.036383	0.333322	-0.216524
H303	H	1.369716	0.666656	0.116810
H304	H	1.374147	-0.079599	0.181438
H305	H	1.707480	0.253734	0.514771
H306	H	2.040813	0.587067	0.848105
H307	H	1.242722	-0.079589	0.179519
H308	H	1.576055	0.253745	0.512852
H309	H	1.909388	0.587078	0.846186
H310	H	1.015670	0.000010	0.203105
H311	H	1.349004	0.333344	0.536438
H312	H	1.682337	0.666677	0.869771
