data_functionalizedCrystal
_audit_creation_method	'MofGen! by Chris Wilmer'
_symmetry_space_group_name_H-M	'P1'
_symmetry_Int_Tables_number	1
_symmetry_cell_setting	triclinic
loop_
_symmetry_equiv_pos_as_xyz
  x,y,z
_cell_length_a	11.792241
_cell_length_b	11.026607
_cell_length_c	9.482900
_cell_angle_alpha	101.363848
_cell_angle_beta	99.398500
_cell_angle_gamma	83.610284
loop_
_atom_site_label
_atom_site_type_symbol
_atom_site_fract_x
_atom_site_fract_y
_atom_site_fract_z
O1	O	0.461983	-1.632118	-0.120906
O2	O	0.407791	-1.278456	-0.120907
O3	O	0.271422	-1.463868	-0.120897
O4	O	0.598353	-1.446706	-0.120917
O5	O	0.299264	-1.426207	0.120894
O6	O	0.435633	-1.240795	0.120883
O7	O	0.489825	-1.594458	0.120884
Cu8	Cu	0.465271	-1.414188	0.142961
Cu9	Cu	0.432345	-1.458726	-0.142984
O10	O	0.626195	-1.409046	0.120873
C11	C	0.411715	-1.214349	-0.000012
C12	C	0.381912	-1.079439	-0.000012
C13	C	0.242838	-1.443960	-0.000002
C14	C	0.116183	-1.440733	-0.000003
C15	C	0.485901	-1.658565	-0.000014
C16	C	0.515703	-1.793477	-0.000024
C17	C	-0.115710	-1.434802	-0.000028
C18	C	0.013331	-1.438097	-0.000014
C19	C	0.654778	-1.428955	-0.000025
C20	C	0.781432	-1.432183	-0.000033
N21	N	0.488431	-1.382871	0.344079
C22	C	0.464202	-1.006176	-0.000018
C23	C	0.433401	-0.866739	-0.000018
N24	N	0.409178	-1.490052	-0.344102
C25	C	0.439169	-1.449480	0.416282
C26	C	0.458448	-1.423433	0.583698
H27	H	0.557456	-1.046680	-0.000015
O28	O	0.334397	-1.591140	0.573626
H29	H	0.245981	-1.570287	0.602764
O30	O	0.563232	-1.281811	0.426364
H31	H	0.596390	-1.236984	0.348007
H32	H	0.340138	-0.826244	-0.000049
H33	H	0.288655	-1.038939	-0.000043
O34	O	0.364380	-1.550560	0.334021
H35	H	0.275970	-1.529694	0.363175
O36	O	0.639243	-0.847097	-0.000024
H37	H	0.645408	-0.919547	-0.098578
O38	O	0.533234	-1.322347	0.665965
H39	H	0.536650	-1.317759	0.784550
