data_functionalizedCrystal
_audit_creation_method	'MofGen! by Chris Wilmer'
_symmetry_space_group_name_H-M	'P1'
_symmetry_Int_Tables_number	1
_symmetry_cell_setting	triclinic
loop_
_symmetry_equiv_pos_as_xyz
  x,y,z
_cell_length_a	10.654550
_cell_length_b	15.944551
_cell_length_c	9.130313
_cell_angle_alpha	89.997799
_cell_angle_beta	89.996220
_cell_angle_gamma	83.991820
loop_
_atom_site_label
_atom_site_type_symbol
_atom_site_fract_x
_atom_site_fract_y
_atom_site_fract_z
O1	O	1.666308	0.117973	-0.121923
O2	O	1.300684	0.129213	-0.121900
O3	O	1.493480	0.001376	-0.121899
O4	O	1.473511	0.245810	-0.121924
O5	O	1.493478	0.001379	0.121700
O6	O	1.300681	0.129216	0.121699
O7	O	1.666305	0.117976	0.121676
Cu8	Cu	1.483493	0.123596	0.143930
Cu9	Cu	1.483496	0.123592	-0.144154
O10	O	1.473509	0.245813	0.121675
C11	C	1.253895	0.128389	-0.000098
C12	C	1.114484	0.125920	-0.000088
C13	C	1.034024	0.201188	-0.000117
C14	C	0.903034	0.198863	-0.000142
C15	C	0.932975	0.045995	-0.000116
C16	C	1.063963	0.048321	-0.000080
C17	C	1.016737	0.289446	-0.000139
C18	C	0.885746	0.287121	-0.000164
C19	C	1.492650	-0.029921	-0.000099
C20	C	1.490165	-0.123182	-0.000098
C21	C	1.364720	-0.338765	-0.000111
C22	C	1.422971	-0.399443	0.119995
C23	C	1.485668	-0.293934	-0.000109
C24	C	1.423002	-0.399430	-0.120175
C25	C	1.481317	-0.458872	-0.000126
C26	C	1.543953	-0.353384	0.120095
C27	C	1.543967	-0.353364	-0.120182
C28	C	1.602306	-0.414024	-0.000048
C29	C	1.488172	-0.198917	-0.000098
C30	C	1.478822	-0.553887	-0.000127
C31	C	1.713094	0.118800	-0.000130
C32	C	1.852505	0.121269	-0.000149
C33	C	1.474339	0.277110	-0.000128
C34	C	1.476824	0.370371	-0.000139
N35	N	1.483500	0.123599	0.346552
N36	N	1.483499	0.123583	-0.346777
C37	C	1.568892	0.067012	0.423205
C38	C	1.568889	0.067002	0.576542
C39	C	1.398098	0.180173	0.576560
C40	C	1.398096	0.180178	0.423226
C41	C	1.667501	0.001676	0.423195
C42	C	1.667498	0.001666	0.576532
H43	H	0.843584	0.320373	-0.102121
N44	N	1.641630	-0.079302	0.370954
N45	N	1.637251	-0.093003	0.236351
H46	H	1.618977	-0.150192	0.199452
H47	H	1.702787	-0.446602	0.000014
N48	N	1.608083	-0.327956	0.247622
N49	N	1.720644	-0.355617	0.269618
H50	H	1.765934	-0.337658	0.359685
N51	N	1.310842	0.237972	0.344949
N52	N	1.234596	0.288480	0.413430
H53	H	1.172966	0.329299	0.358148
H54	H	1.371814	-0.419846	0.221540
N55	N	0.881345	-0.033260	-0.000098
N56	N	0.764391	-0.035328	-0.000117
H57	H	0.727927	-0.091303	-0.000104
N58	N	1.608083	-0.327747	-0.247586
N59	N	1.566861	-0.342264	-0.372205
H60	H	1.612135	-0.324171	-0.462196
N61	N	1.781532	0.027345	0.363465
N62	N	1.777659	0.090811	0.282569
H63	H	1.858189	0.108944	0.240374
N64	N	1.630227	-0.074869	0.636214
N65	N	1.704180	-0.119850	0.717105
H66	H	1.677853	-0.173899	0.759262
H67	H	1.371831	-0.419804	-0.221721
H68	H	1.328563	0.226238	0.639004
H69	H	1.264327	-0.306038	0.000016
N70	N	1.788331	0.019726	0.628729
N71	N	1.829565	0.087812	0.595667
H72	H	1.914901	0.100567	0.632533
N73	N	1.146133	-0.028572	-0.000023
N74	N	1.101005	-0.097847	-0.000014
H75	H	1.159037	-0.152157	0.000028
N76	N	1.060957	0.324732	-0.132077
N77	N	1.021832	0.398514	-0.167963
H78	H	1.053046	0.423441	-0.261149
N79	N	1.052970	0.332711	0.127794
N80	N	0.971080	0.361281	0.217906
H81	H	0.996671	0.391819	0.308275
H82	H	0.839729	0.313795	0.105001
