data_functionalizedCrystal
_audit_creation_method	'MofGen! by Chris Wilmer'
_symmetry_space_group_name_H-M	'P1'
_symmetry_Int_Tables_number	1
_symmetry_cell_setting	triclinic
loop_
_symmetry_equiv_pos_as_xyz
  x,y,z
_cell_length_a	23.196402
_cell_length_b	16.704494
_cell_length_c	23.196401
_cell_angle_alpha	90.005634
_cell_angle_beta	59.999265
_cell_angle_gamma	56.632774
loop_
_atom_site_label
_atom_site_type_symbol
_atom_site_fract_x
_atom_site_fract_y
_atom_site_fract_z
Zr1	Zr	0.570735	0.815209	-0.045492
O2	O	0.701008	0.680070	-0.142542
O3	O	0.447402	0.856633	-0.015744
O4	O	0.567690	0.856605	-0.136020
O5	O	0.580702	0.680124	0.072613
O6	O	0.557393	0.995863	-0.130871
O7	O	0.580720	0.680098	-0.022266
O8	O	0.342220	0.995913	0.084280
O9	O	0.795875	0.680074	-0.142538
O10	O	0.487876	0.978230	0.000790
O11	O	0.495546	0.874323	0.067755
O12	O	0.637170	0.874290	-0.073854
O13	O	0.644841	0.770383	-0.006889
Zr14	Zr	0.554284	1.037350	0.114042
Zr15	Zr	0.554313	1.037309	-0.037280
Zr16	Zr	0.570706	0.815250	0.105830
Zr17	Zr	0.722037	0.815215	-0.045485
Zr18	Zr	0.402982	1.037344	0.114036
O19	O	0.677617	0.995926	0.084295
O20	O	0.677658	0.995868	-0.130866
O21	O	0.700967	0.680129	0.072619
O22	O	0.424011	1.172489	0.211093
O23	O	0.424052	1.172430	-0.004068
O24	O	0.447360	0.856691	0.199416
O25	O	0.544317	1.172435	-0.004063
O26	O	0.557329	0.995954	0.204571
O27	O	0.567625	0.856696	0.199422
O28	O	0.544299	1.172461	0.090817
O29	O	0.782822	0.856614	-0.136011
O30	O	0.342197	0.995945	0.204561
O31	O	0.329144	1.172485	0.211088
O32	O	0.329167	1.172452	0.090807
O33	O	0.795852	0.680107	-0.022257
O34	O	0.782799	0.856647	-0.015730
O35	O	0.487849	0.978269	0.142405
O36	O	0.480178	1.082176	0.075440
O37	O	0.629472	0.978236	0.000796
O38	O	0.637143	0.874329	0.067761
C39	C	0.373254	0.926272	0.034267
C40	C	0.309022	0.926269	0.034264
C41	C	0.274848	0.980501	-0.000694
C42	C	0.214486	0.980511	-0.000688
C43	C	0.188314	0.926269	0.034266
C44	C	0.222492	0.872035	0.069232
C45	C	0.282846	0.872035	0.069231
C46	C	0.133004	0.835400	0.025631
C47	C	0.072655	0.835397	0.025627
C48	C	0.002159	0.926270	0.034273
C49	C	-0.007973	1.017146	0.042909
C50	C	0.052381	1.017146	0.042908
C51	C	0.122870	0.926264	0.034271
C52	C	-0.097467	0.980518	-0.000680
C53	C	-0.157834	0.980530	-0.000669
C54	C	-0.149821	0.872045	0.069246
C55	C	-0.089462	0.872042	0.069240
C56	C	-0.063286	0.926276	0.034273
C57	C	0.583051	0.648467	0.024003
C58	C	0.590022	0.554179	0.020517
C59	C	0.447245	0.485525	0.091912
C60	C	0.453792	0.396937	0.088638
C61	C	0.609660	0.288413	0.010701
C62	C	0.603114	0.377002	0.013974
C63	C	0.521904	0.475557	0.054581
C64	C	0.515358	0.564146	0.057850
C65	C	0.671226	0.455621	-0.020083
C66	C	0.677772	0.367033	-0.023357
C67	C	0.751765	0.926287	0.034284
C68	C	0.815997	0.926290	0.034287
C69	C	0.562546	0.926228	-0.155006
C70	C	0.562558	0.926211	-0.219246
C71	C	0.541968	1.204093	0.044547
C72	C	0.534996	1.298380	0.048033
C73	C	0.556887	1.002931	-0.246573
C74	C	0.556869	1.002954	-0.306918
C75	C	0.562539	0.926241	-0.339944
C76	C	0.568206	0.849513	-0.312608
C77	C	0.568216	0.849498	-0.252259
C78	C	0.616956	0.832618	-0.462785
C79	C	0.616952	0.832632	-0.523136
C80	C	0.562507	0.926286	-0.526079
C81	C	0.508076	1.019933	-0.468669
C82	C	0.508085	1.019918	-0.408320
C83	C	0.562529	0.926249	-0.405383
C84	C	0.556814	1.003038	-0.618838
C85	C	0.556791	1.003062	-0.679183
C86	C	0.568138	0.849613	-0.684876
C87	C	0.568152	0.849597	-0.624528
C88	C	0.562494	0.926309	-0.591515
C89	C	0.562473	0.926331	0.223556
C90	C	0.562461	0.926348	0.287797
C91	C	0.352712	1.204085	0.044539
C92	C	0.281509	1.298370	0.048022
C93	C	0.373217	0.926323	0.223548
C94	C	0.308973	0.926338	0.287785
C95	C	0.352676	1.204136	0.233820
C96	C	0.281460	1.298438	0.301543
C97	C	0.772343	0.648423	-0.165269
C98	C	0.843558	0.554121	-0.232993
C99	C	0.772306	0.648474	0.024012
C100	C	0.843509	0.554190	0.020529
C101	C	0.751801	0.926236	-0.154997
C102	C	0.816045	0.926221	-0.219235
C103	C	0.252089	1.288388	0.010685
C104	C	0.185195	1.376970	0.013943
C105	C	0.147718	1.475532	0.054543
C106	C	0.177144	1.485512	0.091882
C107	C	0.244041	1.396931	0.088619
C108	C	0.274785	0.980604	0.356925
C109	C	0.214430	0.980614	0.417288
C110	C	0.188259	0.926364	0.408511
C111	C	0.222453	0.872091	0.339364
C112	C	0.282812	0.872076	0.279002
C113	C	0.244012	1.396971	0.298392
C114	C	0.177105	1.485587	0.362020
C115	C	0.147644	1.475667	0.428799
C116	C	0.185099	1.377123	0.431948
C117	C	0.252009	1.288510	0.368321
C118	C	0.881014	0.455588	-0.229842
C119	C	0.947939	0.366972	-0.293470
C120	C	0.977404	0.376892	-0.360248
C121	C	0.939945	0.475436	-0.363397
C122	C	0.873025	0.564049	-0.299770
C123	C	0.872935	0.564171	0.057859
C124	C	0.939846	0.475589	0.054584
C125	C	0.977325	0.377027	0.013982
C126	C	0.947897	0.367047	-0.023353
C127	C	0.880992	0.455628	-0.020082
C128	C	0.842196	0.980482	-0.210434
C129	C	0.902551	0.980488	-0.270786
C130	C	0.936758	0.926227	-0.339937
C131	C	0.910601	0.871965	-0.348736
C132	C	0.850243	0.871965	-0.288385
H133	H	0.044127	1.091141	0.049942
N134	N	0.177634	1.038996	-0.038406
H135	H	0.191826	0.989220	-0.077436
H136	H	0.113018	1.093600	-0.002450
H137	H	0.675777	0.208158	-0.022349
N138	N	0.988312	0.260738	-0.067131
H139	H	1.035152	0.206146	-0.063526
H140	H	0.942815	0.252545	-0.048014
N141	N	0.136704	1.591868	0.358622
H142	H	0.182143	1.600157	0.332256
H143	H	0.111046	1.600084	0.332286
N144	N	0.153458	1.366189	-0.026320
H145	H	0.105394	1.437255	-0.018100
H146	H	0.202462	1.326985	-0.079454
H147	H	0.661277	0.756381	-0.569878
H148	H	0.392997	0.405062	0.119038
N149	N	0.971585	0.486358	0.094850
H150	H	0.922639	0.525497	0.148003
H151	H	1.019675	0.415252	0.086554
H152	H	0.661285	0.756346	-0.460394
H153	H	0.381121	0.565771	0.124979
N154	N	0.075567	1.571069	0.058058
H155	H	0.062620	1.549780	0.028243
H156	H	0.022365	1.613685	0.109708
N157	N	0.449380	1.120913	-0.346401
H158	H	0.485081	1.130347	-0.339213
H159	H	0.414900	1.180184	-0.357462
N160	N	0.849254	0.444869	-0.157823
H161	H	0.801176	0.515950	-0.117987
H162	H	0.827163	0.405684	-0.153683
H163	H	0.743891	0.286780	-0.056414
H164	H	0.732019	0.447510	-0.050483
H165	H	1.031895	0.304730	-0.412052
H166	H	0.938462	0.827787	-0.405047
N167	N	0.275791	1.407677	0.226370
H168	H	0.267829	1.373338	0.198408
H169	H	0.241898	1.483567	0.234094
N170	N	0.319701	0.813556	0.204420
H171	H	0.384325	0.758967	0.175718
H172	H	0.293914	0.779246	0.208061
H173	H	0.814354	1.024667	-0.154133
N174	N	0.075477	1.571247	0.497422
H175	H	0.056227	1.635169	0.485287
H176	H	0.025433	1.571210	0.526445
N177	N	0.275769	1.407702	0.128892
H178	H	0.226813	1.446856	0.182042
H179	H	0.323848	1.336600	0.120610
N180	N	0.574316	0.766776	-0.348221
H181	H	0.573451	0.778425	-0.390600
H182	H	0.629791	0.696370	-0.365420
N183	N	0.550686	1.085811	-0.708660
H184	H	0.497431	1.126152	-0.707066
H185	H	0.547145	1.134320	-0.678566
N186	N	0.574328	0.766750	-0.222779
H187	H	0.577914	0.718156	-0.252853
H188	H	0.627579	0.726500	-0.224371
N189	N	0.194262	0.813538	0.106938
H190	H	0.150843	0.821765	0.101633
H191	H	0.245966	0.737669	0.084730
H192	H	-0.065379	1.091147	0.049958
H193	H	0.985905	0.926235	-0.389073
N194	N	0.971728	0.486127	-0.435425
H195	H	1.019802	0.415035	-0.475248
H196	H	0.922746	0.525287	-0.439576
H197	H	0.282491	1.208283	0.370896
N198	N	-0.178047	0.813546	0.106950
H199	H	-0.147236	0.779189	0.129096
H200	H	-0.242320	0.863376	0.145949
H201	H	0.463741	1.096195	-0.471061
H202	H	1.031803	0.304907	0.011324
H203	H	0.842529	0.644277	-0.302344
N204	N	0.988331	0.260696	-0.290064
H205	H	0.959500	0.267866	-0.238104
H206	H	0.980733	0.221561	-0.314947
H207	H	0.842424	0.644418	0.090927
H208	H	0.857036	0.447487	-0.050480
H209	H	0.923841	1.024673	-0.263607
H210	H	0.552277	1.065397	-0.219693
H211	H	0.186595	1.024812	0.473585
H212	H	0.572750	0.787154	-0.711762
H213	H	0.161101	1.369062	0.486327
N214	N	0.123152	0.926388	0.473617
H215	H	0.146437	0.895528	0.501527
H216	H	0.067661	0.999895	0.505325
N217	N	0.303080	1.038994	-0.038406
H218	H	0.272268	1.073352	-0.060551
H219	H	0.288540	1.093544	-0.002455
N220	N	-0.069232	1.039012	-0.038389
H221	H	-0.100048	1.073377	-0.060530
H222	H	-0.083767	1.093555	-0.002438
N223	N	0.822042	0.813436	-0.297883
H224	H	0.852876	0.779064	-0.350849
H225	H	0.836581	0.758895	-0.276473
H226	H	-0.185663	1.024698	-0.029132
H227	H	-0.061634	0.827877	0.097704
H228	H	0.201136	0.827922	0.332228
H229	H	0.080914	0.761400	0.018591
N230	N	0.209036	0.737379	0.016307
H231	H	0.244594	0.681387	-0.031460
H232	H	0.245667	0.751260	0.017654
N233	N	0.319706	0.813545	0.106940
H234	H	0.293966	0.779187	0.129088
H235	H	0.384329	0.758996	0.070987
N236	N	0.303000	1.039124	0.366409
H237	H	0.330143	1.010666	0.392017
H238	H	0.346394	1.030874	0.317660
N239	N	0.427769	0.670440	0.101642
H240	H	0.394835	0.678752	0.153654
H241	H	0.435017	0.724989	0.097994
H242	H	0.552204	1.065505	-0.591956
N243	N	0.550748	1.085708	-0.336400
H244	H	0.547164	1.134303	-0.306328
H245	H	0.603498	1.052150	-0.387822
H246	H	0.282603	1.208142	-0.022385
N247	N	0.574268	0.766848	-0.595049
H248	H	0.577857	0.718253	-0.625125
H249	H	0.627517	0.726600	-0.596638
H250	H	0.146620	1.565773	0.124937
