data_functionalizedCrystal
_audit_creation_method	'MofGen! by Chris Wilmer'
_symmetry_space_group_name_H-M	'P1'
_symmetry_Int_Tables_number	1
_symmetry_cell_setting	triclinic
loop_
_symmetry_equiv_pos_as_xyz
  x,y,z
_cell_length_a	18.215407
_cell_length_b	29.839131
_cell_length_c	18.215399
_cell_angle_alpha	90.038527
_cell_angle_beta	90.019833
_cell_angle_gamma	90.035676
loop_
_atom_site_label
_atom_site_type_symbol
_atom_site_fract_x
_atom_site_fract_y
_atom_site_fract_z
Zn1	Zn	1.125019	-0.178853	0.416062
Zn2	Zn	1.625019	0.321147	0.916062
Zn3	Zn	1.124905	-0.253982	0.292973
Zn4	Zn	1.624905	0.246018	0.792973
Zn5	Zn	1.001952	-0.178867	0.293009
Zn6	Zn	1.501952	0.321133	0.793009
Zn7	Zn	1.001895	-0.253957	0.415998
Zn8	Zn	1.501895	0.246043	0.915998
O9	O	1.063443	-0.216415	0.354510
O10	O	1.563443	0.283585	0.854510
O11	O	1.227988	-0.188823	0.399745
O12	O	1.727988	0.311177	0.899745
O13	O	1.108571	-0.244034	0.189993
O14	O	1.608571	0.255966	0.689993
O15	O	1.018348	-0.115998	0.309374
O16	O	1.518348	0.384002	0.809374
O17	O	1.227905	-0.244020	0.309312
O18	O	1.727905	0.255980	0.809312
O19	O	1.108765	-0.115987	0.399781
O20	O	1.608765	0.384013	0.899781
O21	O	1.018238	-0.188848	0.190020
O22	O	1.518238	0.311152	0.690020
O23	O	0.898960	-0.188824	0.309312
O24	O	1.398960	0.311176	0.809312
O25	O	1.018252	-0.243978	0.518990
O26	O	1.518252	0.256022	1.018990
O27	O	0.898918	-0.243992	0.399671
O28	O	1.398918	0.256008	0.899671
O29	O	1.108710	-0.188799	0.519038
O30	O	1.608710	0.311201	1.019038
O31	O	1.108516	-0.316846	0.309250
O32	O	1.608516	0.183154	0.809250
O33	O	1.018142	-0.316827	0.399636
O34	O	1.518142	0.183173	0.899636
C35	C	0.872237	-0.216407	0.354489
C36	C	1.372237	0.283593	0.854489
C37	C	0.790438	-0.216414	0.354498
C38	C	1.290438	0.283586	0.854498
C39	C	0.602241	-0.245186	0.401489
C40	C	1.102241	0.254814	0.901489
C41	C	0.525383	-0.245187	0.401498
C42	C	1.025383	0.254813	0.901498
C43	C	0.525396	-0.187652	0.307548
C44	C	1.025396	0.312348	0.807548
C45	C	0.602254	-0.187648	0.307543
C46	C	1.102254	0.312352	0.807543
C47	C	0.640674	-0.216418	0.354512
C48	C	1.140674	0.283582	0.854512
C49	C	0.486958	-0.216423	0.354526
C50	C	0.986958	0.283577	0.854526
C51	C	0.403624	-0.216424	0.354536
C52	C	0.903624	0.283576	0.854536
C53	C	0.724013	-0.216416	0.354504
C54	C	1.224013	0.283584	0.854504
C55	C	1.063331	-0.333137	0.354448
C56	C	1.563331	0.166863	0.854448
C57	C	1.063350	-0.383072	0.354446
C58	C	1.563350	0.116928	0.854446
C59	C	1.110513	-0.692675	0.401652
C60	C	1.610513	-0.192675	0.901652
C61	C	1.110593	-0.880348	0.401696
C62	C	1.610593	-0.380348	0.901696
O63	O	1.150582	-0.904578	0.441786
O64	O	1.650582	-0.404578	0.941786
N65	N	1.063568	-0.903857	0.354592
N66	N	1.563568	-0.403857	0.854592
C67	C	1.016516	-0.880445	0.307477
C68	C	1.516516	-0.380445	0.807477
O69	O	0.976515	-0.904747	0.267418
O70	O	1.476515	-0.404747	0.767418
C71	C	1.016433	-0.692773	0.307437
C72	C	1.516433	-0.192773	0.807437
C73	C	1.063466	-0.669266	0.354539
C74	C	1.563466	-0.169266	0.854539
C75	C	1.157541	-0.669168	0.448751
C76	C	1.657541	-0.169168	0.948751
C77	C	1.157524	-0.622252	0.448736
C78	C	1.657524	-0.122252	0.948736
C79	C	1.110477	-0.598844	0.401623
C80	C	1.610477	-0.098844	0.901623
C81	C	1.063449	-0.622350	0.354524
C82	C	1.563449	-0.122350	0.854524
C83	C	0.969378	-0.669361	0.260326
C84	C	1.469378	-0.169361	0.760326
C85	C	0.969361	-0.622440	0.260321
C86	C	1.469361	-0.122440	0.760321
C87	C	1.016394	-0.598934	0.307423
C88	C	1.516394	-0.098934	0.807423
C89	C	1.016385	-0.552026	0.307397
C90	C	1.516385	-0.052026	0.807397
N91	N	1.063410	-0.528517	0.354501
N92	N	1.563410	-0.028517	0.854501
C93	C	1.110456	-0.551926	0.401614
C94	C	1.610456	-0.051926	0.901614
C95	C	1.016564	-0.978975	0.307500
C96	C	1.516564	-0.478975	0.807500
C97	C	1.016586	-1.025893	0.307509
C98	C	1.516586	-0.525893	0.807509
C99	C	1.110661	-1.025793	0.401730
C100	C	1.610661	-0.525793	0.901730
C101	C	1.110643	-0.978874	0.401716
C102	C	1.610643	-0.478874	0.901716
C103	C	1.063589	-0.955466	0.354604
C104	C	1.563589	-0.455466	0.854604
C105	C	1.110416	-0.453400	0.401580
C106	C	1.610416	0.046600	0.901580
C107	C	1.110396	-0.406480	0.401559
C108	C	1.610396	0.093520	0.901559
C109	C	1.016318	-0.406585	0.307342
C110	C	1.516318	0.093415	0.807342
C111	C	1.016340	-0.453500	0.307360
C112	C	1.516340	0.046500	0.807360
C113	C	1.063392	-0.476907	0.354485
C114	C	1.563392	0.023093	0.854485
O115	O	0.976410	-0.527767	0.267334
O116	O	1.476410	-0.027767	0.767334
O117	O	1.150439	-0.527615	0.441678
O118	O	1.650439	-0.027615	0.941678
C119	C	1.110530	-0.739590	0.401666
C120	C	1.610530	-0.239590	0.901666
C121	C	1.063502	-0.763097	0.354568
C122	C	1.563502	-0.263097	0.854568
C123	C	1.016455	-0.739688	0.307454
C124	C	1.516455	-0.239688	0.807454
C125	C	1.063523	-0.810015	0.354576
C126	C	1.563523	-0.310015	0.854576
C127	C	1.110569	-0.833423	0.401690
C128	C	1.610569	-0.333423	0.901690
C129	C	1.157594	-0.809914	0.448794
C130	C	1.657594	-0.309914	0.948794
C131	C	1.157577	-0.762999	0.448779
C132	C	1.657577	-0.262999	0.948779
C133	C	0.969430	-0.763197	0.260350
C134	C	1.469430	-0.263197	0.760350
C135	C	0.969452	-0.810113	0.260368
C136	C	1.469452	-0.310113	0.760368
C137	C	1.016499	-0.833521	0.307481
C138	C	1.516499	-0.333521	0.807481
C139	C	1.255396	-0.216423	0.354532
C140	C	1.755396	0.283577	0.854532
C141	C	1.337195	-0.216426	0.354541
C142	C	1.837195	0.283574	0.854541
C143	C	1.063488	-0.216384	0.546463
C144	C	1.563488	0.283616	1.046463
C145	C	1.063507	-0.216370	0.628262
C146	C	1.563507	0.283630	1.128262
C147	C	1.063576	-0.099236	0.354589
C148	C	1.563576	0.400764	0.854589
C149	C	1.063632	-0.049302	0.354622
C150	C	1.563632	0.450698	0.854622
C151	C	1.063440	-0.216413	0.163304
C152	C	1.563440	0.283587	0.663304
C153	C	1.063564	-0.216300	0.081506
C154	C	1.563564	0.283700	0.581506
C155	C	1.110625	-0.187612	0.816482
C156	C	1.610625	0.312388	1.316482
C157	C	1.110634	-0.187599	0.893341
C158	C	1.610634	0.312401	1.393341
C159	C	1.016440	-0.245059	0.893281
C160	C	1.516440	0.254941	1.393281
C161	C	1.016428	-0.245070	0.816423
C162	C	1.516428	0.254930	1.316423
C163	C	1.063525	-0.216347	0.778026
C164	C	1.563525	0.283653	1.278026
C165	C	1.063546	-0.216323	0.931742
C166	C	1.563546	0.283677	1.431742
C167	C	1.063555	-0.216309	1.015076
C168	C	1.563555	0.283691	1.515076
C169	C	1.063515	-0.216360	0.694687
C170	C	1.563515	0.283640	1.194687
H171	H	0.494105	-0.164229	0.269306
H172	H	0.994105	0.335771	0.769306
H173	H	1.148987	-0.164199	0.924648
H174	H	1.648987	0.335801	1.424648
C175	C	1.152432	-0.162112	0.698692
C176	C	1.652432	0.337888	1.198692
C177	C	1.162385	-0.156036	0.774274
C178	C	1.662385	0.343964	1.274274
H179	H	1.184389	-0.142618	0.672638
H180	H	1.684389	0.357382	1.172638
H181	H	1.102995	-0.155540	0.686096
H182	H	1.602995	0.344460	1.186096
H183	H	1.163174	-0.192299	0.686082
H184	H	1.663174	0.307701	1.186082
H185	H	1.151637	-0.125849	0.786885
H186	H	1.651637	0.374151	1.286885
H187	H	1.211833	-0.162605	0.786874
H188	H	1.711833	0.337395	1.286874
H189	H	0.978097	-0.268446	0.924553
H190	H	1.478097	0.231554	1.424553
C191	C	0.891997	-1.040417	0.271552
C192	C	1.391997	-0.540417	0.771552
C193	C	0.964889	-1.051729	0.255729
C194	C	1.464889	-0.551729	0.755729
H195	H	0.860079	-1.056368	0.239588
H196	H	1.360079	-0.556368	0.739588
H197	H	0.885262	-1.009127	0.264805
H198	H	1.385262	-0.509127	0.764805
H199	H	0.881212	-1.048092	0.320991
H200	H	1.381212	-0.548092	0.820991
H201	H	0.975676	-1.044050	0.206291
H202	H	1.475676	-0.544050	0.706291
H203	H	0.971627	-1.083025	0.262470
H204	H	1.471627	-0.583025	0.762470
H205	H	0.978068	-0.268469	0.785111
H206	H	1.478068	0.231531	1.285111
C207	C	0.917535	-0.926281	0.297155
C208	C	1.417535	-0.426281	0.797155
C209	C	0.964840	-0.953250	0.255705
C210	C	1.464840	-0.453250	0.755705
H211	H	0.885603	-0.910404	0.265175
H212	H	1.385603	-0.410404	0.765175
H213	H	0.945533	-0.905563	0.325195
H214	H	1.445533	-0.405563	0.825195
H215	H	0.889380	-0.944589	0.329197
H216	H	1.389380	-0.444589	0.829197
H217	H	0.993000	-0.934943	0.223666
H218	H	1.493000	-0.434943	0.723666
H219	H	0.936840	-0.973971	0.227652
H220	H	1.436840	-0.473971	0.727652
C221	C	0.959196	-0.722175	0.161333
C222	C	1.459196	-0.222175	0.661333
C223	C	0.917669	-0.695194	0.208560
C224	C	1.417669	-0.195194	0.708560
H225	H	0.927267	-0.738121	0.129374
H226	H	1.427267	-0.238121	0.629374
H227	H	0.987212	-0.742833	0.189386
H228	H	1.487212	-0.242833	0.689386
H229	H	0.991264	-0.703867	0.133202
H230	H	1.491264	-0.203867	0.633202
H231	H	0.885605	-0.713502	0.236695
H232	H	1.385605	-0.213502	0.736695
H233	H	0.889641	-0.674533	0.180504
H234	H	1.389641	-0.174533	0.680504
H235	H	0.633546	-0.164220	0.269289
H236	H	1.133546	0.335780	0.769289
C237	C	1.152153	-0.334516	0.443380
C238	C	1.652153	0.165484	0.943380
C239	C	1.162097	-0.380642	0.453339
C240	C	1.662097	0.119358	0.953339
H241	H	1.184073	-0.318567	0.475343
H242	H	1.684073	0.181433	0.975343
H243	H	1.102704	-0.326849	0.454104
H244	H	1.602704	0.173151	0.954104
H245	H	1.162952	-0.326851	0.393939
H246	H	1.662952	0.173149	0.893939
H247	H	1.151292	-0.388308	0.502778
H248	H	1.651292	0.111692	1.002778
H249	H	1.211558	-0.388312	0.442620
H250	H	1.711558	0.111688	0.942620
C251	C	0.594505	-0.302052	0.494362
C252	C	1.094505	0.197948	0.994362
C253	C	0.644474	-0.276803	0.453124
C254	C	1.144474	0.223197	0.953124
H255	H	0.620578	-0.321568	0.526245
H256	H	1.120578	0.178432	1.026245
H257	H	0.564502	-0.319214	0.462247
H258	H	1.064502	0.180786	0.962247
H259	H	0.564555	-0.282494	0.522570
H260	H	1.064555	0.217506	1.022570
H261	H	0.674421	-0.296361	0.424912
H262	H	1.174421	0.203639	0.924912
H263	H	0.674490	-0.259640	0.485243
H264	H	1.174490	0.240360	0.985243
H265	H	1.148724	-0.472452	0.439959
H266	H	1.648724	0.027548	0.939959
H267	H	1.195820	-0.603116	0.487093
H268	H	1.695820	-0.103116	0.987093
C269	C	0.438995	-0.251509	0.500481
C270	C	0.938995	0.248491	1.000481
C271	C	0.483138	-0.276810	0.453135
C272	C	0.983138	0.223190	0.953135
H273	H	0.412919	-0.271033	0.532364
H274	H	0.912919	0.228967	1.032364
H275	H	0.405114	-0.234383	0.472510
H276	H	0.905114	0.265617	0.972510
H277	H	0.469017	-0.231958	0.528688
H278	H	0.969017	0.268042	1.028688
H279	H	0.453115	-0.296359	0.424925
H280	H	0.953115	0.203641	0.924925
H281	H	0.517023	-0.293944	0.481109
H282	H	1.017023	0.206056	0.981109
H283	H	1.195852	-0.688222	0.487120
H284	H	1.695852	-0.188222	0.987120
H285	H	1.148969	-1.044860	0.440090
H286	H	1.648969	-0.544860	0.940090
C287	C	1.203628	-0.983498	0.494852
C288	C	1.703628	-0.483498	0.994852
C289	C	1.162334	-0.953038	0.453500
C290	C	1.662334	-0.453038	0.953500
H291	H	1.235536	-0.967549	0.526827
H292	H	1.735536	-0.467549	1.026827
H293	H	1.231806	-1.001794	0.462815
H294	H	1.731806	-0.501794	0.962815
H295	H	1.171545	-1.001805	0.522968
H296	H	1.671545	-0.501805	1.022968
H297	H	1.194417	-0.934733	0.425380
H298	H	1.694417	-0.434733	0.925380
H299	H	1.134154	-0.934734	0.485541
H300	H	1.634154	-0.434734	0.985541
C301	C	0.876364	-0.627256	0.167196
C302	C	1.376364	-0.127256	0.667196
C303	C	0.917636	-0.596711	0.208532
C304	C	1.417636	-0.096711	0.708532
H305	H	0.844436	-0.611372	0.135222
H306	H	1.344436	-0.111372	0.635222
H307	H	0.848208	-0.645553	0.199243
H308	H	1.348208	-0.145553	0.699243
H309	H	0.908459	-0.645554	0.139081
H310	H	1.408459	-0.145554	0.639081
H311	H	0.885541	-0.578416	0.236652
H312	H	1.385541	-0.078416	0.736652
H313	H	0.945794	-0.578407	0.176481
H314	H	1.445794	-0.078407	0.676481
C315	C	0.923347	-0.448884	0.214228
C316	C	1.423347	0.051116	0.714228
C317	C	0.964643	-0.479342	0.255584
C318	C	1.464643	0.020658	0.755584
H319	H	0.891424	-0.464836	0.182271
H320	H	1.391424	0.035164	0.682271
H321	H	0.955422	-0.430587	0.186099
H322	H	1.455422	0.069413	0.686099
H323	H	0.895178	-0.430579	0.246268
H324	H	1.395178	0.069421	0.746268
H325	H	0.992816	-0.497645	0.223543
H326	H	1.492816	0.002355	0.723543
H327	H	0.932564	-0.497647	0.283714
H328	H	1.432564	0.002353	0.783714
C329	C	0.974520	-0.334703	0.265506
C330	C	1.474520	0.165297	0.765506
C331	C	0.964603	-0.380848	0.255560
C332	C	1.464603	0.119152	0.755560
H333	H	0.942586	-0.318815	0.233543
H334	H	1.442586	0.181185	0.733543
H335	H	1.023964	-0.326997	0.254772
H336	H	1.523964	0.173003	0.754772
H337	H	0.963724	-0.327003	0.314946
H338	H	1.463724	0.172997	0.814946
H339	H	0.975404	-0.388548	0.206121
H340	H	1.475404	0.111452	0.706121
H341	H	0.915148	-0.388557	0.266289
H342	H	1.415148	0.111443	0.766289
C343	C	1.250561	-0.767627	0.541914
C344	C	1.750561	-0.267627	1.041914
C345	C	1.209272	-0.737164	0.500562
C346	C	1.709272	-0.237164	1.000562
H347	H	1.282472	-0.751679	0.573888
H348	H	1.782472	-0.251679	1.073888
H349	H	1.278735	-0.785925	0.509878
H350	H	1.778735	-0.285925	1.009878
H351	H	1.218475	-0.785931	0.570032
H352	H	1.718475	-0.285931	1.070032
H353	H	1.241357	-0.718862	0.472441
H354	H	1.741357	-0.218862	0.972441
H355	H	1.181095	-0.718858	0.532602
H356	H	1.681095	-0.218858	1.032602
H357	H	1.195904	-0.828982	0.487152
H358	H	1.695904	-0.328982	0.987152
H359	H	0.931153	-0.829248	0.222005
H360	H	1.431153	-0.329248	0.722005
H361	H	0.931119	-0.744141	0.221986
H362	H	1.431119	-0.244141	0.721986
