data_functionalizedCrystal
_audit_creation_method	'MofGen! by Chris Wilmer'
_symmetry_space_group_name_H-M	'P1'
_symmetry_Int_Tables_number	1
_symmetry_cell_setting	triclinic
loop_
_symmetry_equiv_pos_as_xyz
  x,y,z
_cell_length_a	29.839131
_cell_length_b	13.033304
_cell_length_c	13.032268
_cell_angle_alpha	89.077769
_cell_angle_beta	82.859460
_cell_angle_gamma	82.790878
loop_
_atom_site_label
_atom_site_type_symbol
_atom_site_fract_x
_atom_site_fract_y
_atom_site_fract_z
Zn1	Zn	-0.139790	-1.498327	0.781479
Zn2	Zn	0.360210	-0.998327	1.281479
Zn3	Zn	-0.204353	-1.520010	0.609486
Zn4	Zn	0.295647	-1.020010	1.109486
Zn5	Zn	-0.137416	-1.348190	0.587652
Zn6	Zn	0.362584	-0.848190	1.087652
Zn7	Zn	-0.223079	-1.326245	0.759515
Zn8	Zn	0.276921	-0.826245	1.259515
O9	O	-0.176160	-1.423193	0.684533
O10	O	0.323840	-0.923193	1.184533
O11	O	-0.141511	-1.645128	0.776994
O12	O	0.358489	-1.145128	1.276994
O13	O	-0.186643	-1.515477	0.462685
O14	O	0.313357	-1.015477	0.962685
O15	O	-0.074861	-1.368217	0.613418
O16	O	0.425139	-0.868217	1.113418
O17	O	-0.188945	-1.661059	0.650632
O18	O	0.311055	-1.161059	1.150632
O19	O	-0.076605	-1.478522	0.755822
O20	O	0.423395	-0.978522	1.255822
O21	O	-0.137465	-1.389242	0.446643
O22	O	0.362535	-0.889242	0.946643
O23	O	-0.155623	-1.201355	0.592120
O24	O	0.344377	-0.701355	1.092120
O25	O	-0.220862	-1.330813	0.906334
O26	O	0.279138	-0.830813	1.406334
O27	O	-0.218559	-1.185231	0.718387
O28	O	0.281441	-0.685231	1.218387
O29	O	-0.159669	-1.457241	0.922471
O30	O	0.340331	-0.957241	1.422471
O31	O	-0.269707	-1.494197	0.629334
O32	O	0.230293	-0.994197	1.129334
O33	O	-0.283465	-1.351838	0.739559
O34	O	0.216535	-0.851838	1.239559
C35	C	-0.188866	-1.155975	0.650501
C36	C	0.311134	-0.655975	1.150501
C37	C	-0.194314	-1.041655	0.635967
C38	C	0.305686	-0.541655	1.135967
C39	C	-0.173322	-0.982792	0.692105
C40	C	0.326678	-0.482792	1.192105
C41	C	-0.178952	-0.864636	0.677084
C42	C	0.321048	-0.364636	1.177084
C43	C	-0.292888	-1.423014	0.684459
C44	C	0.207112	-0.923014	1.184459
C45	C	-0.342822	-1.423027	0.684473
C46	C	0.157178	-0.923027	1.184473
C47	C	-0.645284	-1.497427	0.627250
C48	C	-0.145284	-0.997427	1.127250
C49	C	-0.832953	-1.497549	0.627306
C50	C	-0.332953	-0.997549	1.127306
O51	O	-0.851116	-1.560664	0.578595
O52	O	-0.351116	-1.060664	1.078595
N53	N	-0.863596	-1.423397	0.684638
N54	N	-0.363596	-0.923397	1.184638
C55	C	-0.847320	-1.349213	0.741965
C56	C	-0.347320	-0.849213	1.241965
O57	O	-0.877690	-1.286151	0.790739
O58	O	-0.377690	-0.786151	1.290739
C59	C	-0.659651	-1.349096	0.741914
C60	C	-0.159651	-0.849096	1.241914
C61	C	-0.629010	-1.423247	0.684570
C62	C	-0.129010	-0.923247	1.184570
C63	C	-0.614643	-1.571572	0.569912
C64	C	-0.114643	-1.071572	1.069912
C65	C	-0.567728	-1.571537	0.569894
C66	C	-0.067728	-1.071537	1.069894
C67	C	-0.551455	-1.497358	0.627214
C68	C	-0.051455	-0.997358	1.127214
C69	C	-0.582095	-1.423212	0.684553
C70	C	-0.082095	-0.923212	1.184553
C71	C	-0.643376	-1.274918	0.799246
C72	C	-0.143376	-0.774918	1.299246
C73	C	-0.596455	-1.274897	0.799231
C74	C	-0.096455	-0.774897	1.299231
C75	C	-0.565813	-1.349048	0.741887
C76	C	-0.065813	-0.849048	1.241887
C77	C	-0.518907	-1.348998	0.741855
C78	C	-0.018907	-0.848998	1.241855
N79	N	-0.488264	-1.423150	0.684523
N80	N	0.011736	-0.923150	1.184523
C81	C	-0.504538	-1.497330	0.627203
C82	C	-0.004538	-0.997330	1.127203
C83	C	-0.945848	-1.349278	0.741986
C84	C	-0.445848	-0.849278	1.241986
C85	C	-0.992765	-1.349306	0.741998
C86	C	-0.492765	-0.849306	1.241998
C87	C	-0.978395	-1.497643	0.627340
C88	C	-0.478395	-0.997643	1.127340
C89	C	-0.931477	-1.497610	0.627323
C90	C	-0.431477	-0.997610	1.127323
C91	C	-0.915205	-1.423430	0.684654
C92	C	-0.415205	-0.923430	1.184654
C93	C	-0.406014	-1.497251	0.627169
C94	C	0.093986	-0.997251	1.127169
C95	C	-0.359096	-1.497207	0.627153
C96	C	0.140904	-0.997207	1.127153
C97	C	-0.373470	-1.348873	0.741814
C98	C	0.126530	-0.848873	1.241814
C99	C	-0.420384	-1.348913	0.741826
C100	C	0.079616	-0.848913	1.241826
C101	C	-0.436654	-1.423111	0.684502
C102	C	0.063346	-0.923111	1.184502
O103	O	-0.500712	-1.285923	0.790549
O104	O	-0.000712	-0.785923	1.290549
O105	O	-0.474161	-1.560396	0.578455
O106	O	0.025839	-1.060396	1.078455
C107	C	-0.692198	-1.497462	0.627268
C108	C	-0.192198	-0.997462	1.127268
C109	C	-0.722839	-1.423316	0.684606
C110	C	-0.222839	-0.923316	1.184606
C111	C	-0.706565	-1.349136	0.741926
C112	C	-0.206565	-0.849136	1.241926
C113	C	-0.769756	-1.423344	0.684618
C114	C	-0.269756	-0.923344	1.184618
C115	C	-0.786030	-1.497524	0.627297
C116	C	-0.286030	-0.997524	1.127297
C117	C	-0.755386	-1.571676	0.569966
C118	C	-0.255386	-1.071676	1.069966
C119	C	-0.708472	-1.571641	0.569948
C120	C	-0.208472	-1.071641	1.069948
C121	C	-0.737208	-1.274984	0.799258
C122	C	-0.237208	-0.774984	1.299258
C123	C	-0.784122	-1.275024	0.799270
C124	C	-0.284122	-0.775024	1.299270
C125	C	-0.800396	-1.349204	0.741950
C126	C	-0.300396	-0.849204	1.241950
C127	C	-0.058976	-1.423398	0.684634
C128	C	0.441024	-0.923398	1.184634
C129	C	-0.009039	-1.423486	0.684677
C130	C	0.490961	-0.923486	1.184677
C131	C	-0.192619	-1.389160	0.952759
C132	C	0.307381	-0.889160	1.452759
C133	C	-0.199633	-1.374658	1.067060
C134	C	0.300367	-0.874658	1.567060
C135	C	-0.163401	-0.691456	0.718692
C136	C	0.336599	-0.191456	1.218692
C137	C	-0.157957	-0.805776	0.733230
C138	C	0.342043	-0.305776	1.233230
C139	C	-0.159729	-1.457153	0.417359
C140	C	0.340271	-0.957153	0.917359
C141	C	-0.152579	-1.471855	0.303083
C142	C	0.347421	-0.971855	0.803083
C143	C	-0.172484	-1.430746	1.126004
C144	C	0.327516	-0.930746	1.626004
C145	C	-0.179732	-1.415758	1.244141
C146	C	0.320268	-0.915758	1.744141
H147	H	-0.334148	-1.557590	0.580453
H148	H	0.165852	-1.057590	1.080453
C149	C	-0.238284	-1.294789	1.117035
C150	C	0.261716	-0.794789	1.617035
N151	N	-0.267397	-1.234630	1.154675
N152	N	0.232603	-0.734630	1.654675
H153	H	-0.683526	-1.632022	0.523253
H154	H	-0.183526	-1.132022	1.023253
H155	H	-0.143872	-1.489858	1.089007
H156	H	0.356128	-0.989858	1.589007
H157	H	-0.216454	-1.004574	0.576782
H158	H	0.283546	-0.504574	1.076782
H159	H	-0.627887	-1.631984	0.523235
H160	H	-0.127887	-1.131984	1.023235
C161	C	-0.128045	-0.855857	0.813192
C162	C	0.371955	-0.355857	1.313192
N163	N	-0.105515	-0.893579	0.873419
N164	N	0.394485	-0.393579	1.373419
H165	H	-0.932603	-1.288869	0.788673
H166	H	-0.432603	-0.788869	1.288673
H167	H	-0.583209	-1.214492	0.845920
H168	H	-0.083209	-0.714492	1.345920
C169	C	-0.143409	-1.032881	0.772057
C170	C	0.356591	-0.532881	1.272057
N171	N	-0.120877	-1.070607	0.832278
N172	N	0.379123	-0.570607	1.332278
H173	H	-0.201093	-0.827561	0.617895
H174	H	0.298907	-0.327561	1.117895
C175	C	-0.423904	-1.578866	0.564102
C176	C	0.076096	-1.078866	1.064102
N177	N	-0.437379	-1.640334	0.516593
N178	N	0.062621	-1.140334	1.016593
H179	H	-0.208342	-1.356632	1.281132
H180	H	0.291658	-0.856632	1.781132
H181	H	-0.123964	-1.530969	1.266092
H182	H	0.376036	-1.030969	1.766092
C183	C	-0.454091	-1.267341	0.804903
C184	C	0.045909	-0.767341	1.304903
N185	N	-0.479476	-1.205907	0.852422
N186	N	0.020524	-0.705907	1.352422
C187	C	-0.534028	-1.653103	0.506801
C188	C	-0.034028	-1.153103	1.006801
N189	N	-0.508648	-1.714539	0.459274
N190	N	-0.008648	-1.214539	0.959274
H191	H	-0.906531	-1.557990	0.580630
H192	H	-0.406531	-1.057990	1.080630
H193	H	-0.991653	-1.558044	0.580668
H194	H	-0.491653	-1.058044	1.080668
C195	C	-1.026466	-1.267726	0.805069
C196	C	-0.526466	-0.767726	1.305069
N197	N	-1.051848	-1.206280	0.852582
N198	N	-0.551848	-0.706280	1.352582
C199	C	-0.719315	-1.193400	0.862350
C200	C	-0.219315	-0.693400	1.362350
N201	N	-0.705840	-1.131951	0.909883
N202	N	-0.205840	-0.631951	1.409883
H203	H	-0.668316	-1.214532	0.845936
H204	H	-0.168316	-0.714532	1.345936
C205	C	-0.817824	-1.193445	0.862356
C206	C	-0.317824	-0.693445	1.362356
N207	N	-0.843206	-1.132007	0.909878
N208	N	-0.343206	-0.632007	1.409878
C209	C	-0.773297	-1.653273	0.506912
C210	C	-0.273297	-1.153273	1.006912
N211	N	-0.786789	-1.714732	0.459427
N212	N	-0.286789	-1.214732	0.959427
C213	C	-0.355560	-1.267283	0.804868
C214	C	0.144440	-0.767283	1.304868
N215	N	-0.342068	-1.205834	0.852368
N216	N	0.157932	-0.705834	1.352368
