data_functionalizedCrystal
_audit_creation_method	'MofGen! by Chris Wilmer'
_symmetry_space_group_name_H-M	'P1'
_symmetry_Int_Tables_number	1
_symmetry_cell_setting	triclinic
loop_
_symmetry_equiv_pos_as_xyz
  x,y,z
_cell_length_a	27.732048
_cell_length_b	26.210047
_cell_length_c	27.732048
_cell_angle_alpha	89.975290
_cell_angle_beta	97.357345
_cell_angle_gamma	90.015477
loop_
_atom_site_label
_atom_site_type_symbol
_atom_site_fract_x
_atom_site_fract_y
_atom_site_fract_z
O1	O	0.640937	0.042369	-0.057526
O2	O	0.974271	0.375702	0.275807
O3	O	1.307604	0.709035	0.609141
O4	O	0.500144	0.042385	-0.066272
O5	O	0.833477	0.375718	0.267062
O6	O	1.166811	0.709052	0.600395
O7	O	0.574913	0.042367	0.008498
O8	O	0.908247	0.375700	0.341831
O9	O	1.241580	0.709033	0.675165
O10	O	0.566168	0.042387	-0.132296
O11	O	0.899501	0.375720	0.201038
O12	O	1.232835	0.709054	0.534371
O13	O	0.574886	-0.042491	0.008518
O14	O	0.908220	0.290842	0.341852
O15	O	1.241553	0.624175	0.675185
O16	O	0.500117	-0.042473	-0.066251
O17	O	0.833450	0.290860	0.267082
O18	O	1.166784	0.624194	0.600416
O19	O	0.640910	-0.042489	-0.057506
O20	O	0.974244	0.290844	0.275828
O21	O	1.307577	0.624177	0.609161
Cu22	Cu	0.570511	-0.050229	-0.061876
Cu23	Cu	0.903844	0.283104	0.271457
Cu24	Cu	1.237178	0.616437	0.604790
Cu25	Cu	0.570543	0.050125	-0.061901
Cu26	Cu	0.903877	0.383458	0.271433
Cu27	Cu	1.237210	0.716792	0.604766
O28	O	0.566141	-0.042471	-0.132275
O29	O	0.899474	0.290862	0.201058
O30	O	1.232808	0.624196	0.534392
C31	C	0.482124	-0.000042	-0.066078
C32	C	0.815457	0.333291	0.267256
C33	C	1.148790	0.666624	0.600589
C34	C	0.428469	-0.000036	-0.065525
C35	C	0.761802	0.333297	0.267808
C36	C	1.095135	0.666630	0.601142
N37	N	0.570492	-0.120813	-0.061859
N38	N	0.903825	0.212520	0.271474
N39	N	1.237159	0.545853	0.604808
C40	C	0.574716	-0.000064	0.026515
C41	C	0.908050	0.333269	0.359848
C42	C	1.241383	0.666603	0.693182
C43	C	0.574164	-0.000068	0.080170
C44	C	0.907497	0.333265	0.413503
C45	C	1.240830	0.666599	0.746837
C46	C	0.089654	-0.000053	-0.106229
C47	C	0.422987	0.333281	0.227105
C48	C	0.756320	0.666614	0.560438
C49	C	-0.112006	-0.000057	-0.104178
C50	C	0.221327	0.333276	0.229156
C51	C	0.554661	0.666609	0.562489
O52	O	-0.143262	-0.000074	-0.141398
O53	O	0.190072	0.333259	0.191935
O54	O	0.523405	0.666592	0.525268
N55	N	-0.131130	-0.000063	-0.059843
N56	N	0.202204	0.333270	0.273491
N57	N	0.535537	0.666604	0.606824
C58	C	-0.099835	-0.000071	-0.016017
C59	C	0.233498	0.333263	0.317316
C60	C	0.566832	0.666596	0.650650
O61	O	-0.120728	-0.000081	0.021740
O62	O	0.212605	0.333253	0.355073
O63	O	0.545938	0.666586	0.688407
C64	C	0.101824	-0.000069	-0.018068
C65	C	0.435157	0.333264	0.315265
C66	C	0.768490	0.666597	0.648598
C67	C	0.120944	-0.000059	-0.062407
C68	C	0.454278	0.333275	0.270927
C69	C	0.787611	0.666608	0.604260
C70	C	0.108775	-0.000043	-0.150563
C71	C	0.442108	0.333291	0.182770
C72	C	0.775442	0.666624	0.516103
C73	C	0.159187	-0.000039	-0.151075
C74	C	0.492520	0.333295	0.182258
C75	C	0.825853	0.666628	0.515591
C76	C	0.190477	-0.000045	-0.107253
C77	C	0.523811	0.333289	0.226080
C78	C	0.857144	0.666622	0.559413
C79	C	0.171356	-0.000055	-0.062919
C80	C	0.504690	0.333279	0.270415
C81	C	0.838023	0.666612	0.603748
C82	C	0.133117	-0.000081	0.025757
C83	C	0.466451	0.333253	0.359090
C84	C	0.799784	0.666586	0.692423
C85	C	0.183534	-0.000082	0.025240
C86	C	0.516868	0.333252	0.358573
C87	C	0.850201	0.666585	0.691906
C88	C	0.202655	-0.000071	-0.019098
C89	C	0.535989	0.333262	0.314235
C90	C	0.869322	0.666596	0.647568
C91	C	0.253059	-0.000057	-0.019609
C92	C	0.586392	0.333276	0.313724
C93	C	0.919725	0.666610	0.647058
N94	N	0.272183	-0.000051	-0.063944
N95	N	0.605516	0.333282	0.269389
N96	N	0.938849	0.666615	0.602723
C97	C	0.240892	-0.000045	-0.107766
C98	C	0.574225	0.333288	0.225567
C99	C	0.907559	0.666621	0.558900
C100	C	-0.205709	-0.000070	-0.014943
C101	C	0.127624	0.333263	0.318390
C102	C	0.460957	0.666596	0.651724
C103	C	-0.256124	-0.000070	-0.014430
C104	C	0.077210	0.333264	0.318903
C105	C	0.410543	0.666597	0.652237
C106	C	-0.268291	-0.000057	-0.102591
C107	C	0.065042	0.333276	0.230742
C108	C	0.398376	0.666609	0.564076
C109	C	-0.217876	-0.000054	-0.103103
C110	C	0.115458	0.333279	0.230230
C111	C	0.448791	0.666612	0.563563
C112	C	-0.186585	-0.000065	-0.059278
C113	C	0.146748	0.333269	0.274055
C114	C	0.480081	0.666602	0.607388
C115	C	0.346761	-0.000036	-0.108839
C116	C	0.680094	0.333297	0.224495
C117	C	1.013428	0.666630	0.557828
C118	C	0.397178	-0.000030	-0.109347
C119	C	0.730511	0.333303	0.223986
C120	C	1.063845	0.666636	0.557319
C121	C	0.409341	-0.000045	-0.021186
C122	C	0.742674	0.333288	0.312147
C123	C	1.076008	0.666621	0.645480
C124	C	0.358929	-0.000049	-0.020678
C125	C	0.692262	0.333285	0.312656
C126	C	1.025595	0.666618	0.645989
C127	C	0.327639	-0.000046	-0.064508
C128	C	0.660973	0.333287	0.268825
C129	C	0.994306	0.666621	0.602159
O130	O	0.284343	-0.000046	0.017592
O131	O	0.617676	0.333287	0.350925
O132	O	0.951009	0.666621	0.684259
O133	O	0.261794	-0.000047	-0.145518
O134	O	0.595128	0.333287	0.187816
O135	O	0.928461	0.666620	0.521149
C136	C	0.039242	-0.000057	-0.105716
C137	C	0.372575	0.333277	0.227617
C138	C	0.705908	0.666610	0.560950
C139	C	0.020120	-0.000067	-0.061382
C140	C	0.353454	0.333267	0.271951
C141	C	0.686787	0.666600	0.605285
C142	C	0.051411	-0.000073	-0.017560
C143	C	0.384744	0.333260	0.315774
C144	C	0.718078	0.666594	0.649107
C145	C	-0.030294	-0.000066	-0.060869
C146	C	0.303039	0.333267	0.272464
C147	C	0.636373	0.666601	0.605798
C148	C	-0.061585	-0.000060	-0.104691
C149	C	0.271749	0.333273	0.228642
C150	C	0.605082	0.666607	0.561975
C151	C	-0.042461	-0.000054	-0.149026
C152	C	0.290872	0.333279	0.184307
C153	C	0.624206	0.666612	0.517640
C154	C	0.007951	-0.000050	-0.149539
C155	C	0.341284	0.333283	0.183795
C156	C	0.674618	0.666616	0.517128
C157	C	0.032287	-0.000078	0.026775
C158	C	0.365621	0.333255	0.360109
C159	C	0.698954	0.666588	0.693442
C160	C	-0.018125	-0.000082	0.027284
C161	C	0.315208	0.333251	0.360617
C162	C	0.648541	0.666585	0.693951
C163	C	-0.049416	-0.000076	-0.016538
C164	C	0.283917	0.333258	0.316795
C165	C	0.617251	0.666591	0.650129
C166	C	0.658931	-0.000061	-0.057699
C167	C	0.992264	0.333272	0.275634
C168	C	1.325598	0.666606	0.608967
C169	C	0.712586	-0.000064	-0.058252
C170	C	1.045919	0.333270	0.275081
C171	C	1.379252	0.666603	0.608414
C172	C	0.541439	-0.526792	-0.032762
C173	C	0.874773	-0.193458	0.300571
C174	C	1.208106	0.139875	0.633904
C175	C	0.541418	-0.313133	-0.032750
C176	C	0.874751	0.020200	0.300583
C177	C	1.208085	0.353533	0.633916
O178	O	0.516686	-0.285524	-0.007973
O179	O	0.850020	0.047809	0.325361
O180	O	1.183353	0.381143	0.658694
N181	N	0.570510	-0.286397	-0.061865
N182	N	0.903844	0.046936	0.271468
N183	N	1.237177	0.380269	0.604801
C184	C	0.599613	-0.313079	-0.090983
C185	C	0.932946	0.020254	0.242350
C186	C	1.266279	0.353588	0.575683
O187	O	0.624361	-0.285436	-0.115743
O188	O	0.957694	0.047897	0.217590
O189	O	1.291028	0.381231	0.550923
C190	C	0.599636	-0.526737	-0.090992
C191	C	0.932970	-0.193403	0.242341
C192	C	1.266303	0.139930	0.575674
C193	C	0.570538	-0.553470	-0.061879
C194	C	0.903872	-0.220137	0.271454
C195	C	1.237205	0.113197	0.604788
C196	C	0.512344	-0.553525	-0.003651
C197	C	0.845677	-0.220192	0.329682
C198	C	1.179011	0.113142	0.663016
C199	C	0.512348	-0.606937	-0.003656
C200	C	0.845681	-0.273603	0.329677
C201	C	1.179014	0.059730	0.663010
C202	C	0.541446	-0.633615	-0.032773
C203	C	0.874780	-0.300281	0.300560
C204	C	1.208113	0.033052	0.633894
C205	C	0.570542	-0.606881	-0.061884
C206	C	0.903875	-0.273548	0.271449
C207	C	1.237208	0.059785	0.604782
C208	C	0.628741	-0.553418	-0.120107
C209	C	0.962074	-0.220084	0.213226
C210	C	1.295408	0.113249	0.546559
C211	C	0.628745	-0.606835	-0.120106
C212	C	0.962078	-0.273502	0.213227
C213	C	1.295412	0.059831	0.546561
C214	C	0.599647	-0.633569	-0.090993
C215	C	0.932980	-0.300235	0.242341
C216	C	1.266314	0.033098	0.575674
C217	C	0.599644	-0.686971	-0.091006
C218	C	0.932978	-0.353638	0.242327
C219	C	1.266311	-0.020304	0.575660
N220	N	0.570552	-0.713707	-0.061891
N221	N	0.903885	-0.380374	0.271442
N222	N	1.237219	-0.047040	0.604775
C223	C	0.541453	-0.687029	-0.032775
C224	C	0.874786	-0.353696	0.300559
C225	C	1.208120	-0.020362	0.633892
C226	C	0.599598	-0.200906	-0.090977
C227	C	0.932931	0.132428	0.242356
C228	C	1.266264	0.465761	0.575690
C229	C	0.599591	-0.147492	-0.090976
C230	C	0.932924	0.185842	0.242358
C231	C	1.266258	0.519175	0.575691
C232	C	0.541397	-0.147549	-0.032742
C233	C	0.874730	0.185784	0.300592
C234	C	1.208064	0.519117	0.633925
C235	C	0.541401	-0.200965	-0.032746
C236	C	0.874734	0.132369	0.300587
C237	C	1.208068	0.465702	0.633920
C238	C	0.570505	-0.227642	-0.061862
C239	C	0.903838	0.105692	0.271471
C240	C	1.237172	0.439025	0.604805
C241	C	0.541462	-0.799197	-0.032788
C242	C	0.874796	-0.465863	0.300545
C243	C	1.208129	-0.132530	0.633878
C244	C	0.541467	-0.852613	-0.032798
C245	C	0.874800	-0.519280	0.300536
C246	C	1.208134	-0.185946	0.633869
C247	C	0.599663	-0.852550	-0.091029
C248	C	0.932996	-0.519217	0.242304
C249	C	1.266330	-0.185884	0.575637
C250	C	0.599657	-0.799139	-0.091022
C251	C	0.932990	-0.465806	0.242311
C252	C	1.266323	-0.132472	0.575645
C253	C	0.570555	-0.772463	-0.061898
C254	C	0.903888	-0.439130	0.271436
C255	C	1.237222	-0.105797	0.604769
O256	O	0.624367	-0.714613	-0.115767
O257	O	0.957701	-0.381280	0.217566
O258	O	1.291034	-0.047947	0.550900
O259	O	0.516717	-0.714681	-0.008010
O260	O	0.850050	-0.381348	0.325323
O261	O	1.183383	-0.048015	0.658657
C262	C	0.541436	-0.473380	-0.032757
C263	C	0.874769	-0.140047	0.300576
C264	C	1.208102	0.193286	0.633910
C265	C	0.570531	-0.446647	-0.061869
C266	C	0.903864	-0.113314	0.271465
C267	C	1.237198	0.220020	0.604798
C268	C	0.599630	-0.473325	-0.090985
C269	C	0.932963	-0.139992	0.242348
C270	C	1.266297	0.193342	0.575681
C271	C	0.570524	-0.393233	-0.061867
C272	C	0.903858	-0.059900	0.271466
C273	C	1.237191	0.273434	0.604800
C274	C	0.541426	-0.366555	-0.032750
C275	C	0.874759	-0.033221	0.300583
C276	C	1.208092	0.300112	0.633916
C277	C	0.512333	-0.393291	-0.003635
C278	C	0.845666	-0.059957	0.329698
C279	C	1.179000	0.273376	0.663032
C280	C	0.512337	-0.446702	-0.003640
C281	C	0.845670	-0.113369	0.329693
C282	C	1.179003	0.219964	0.663026
C283	C	0.628722	-0.446589	-0.120100
C284	C	0.962056	-0.113256	0.213233
C285	C	1.295389	0.220078	0.546566
C286	C	0.628716	-0.393178	-0.120093
C287	C	0.962049	-0.059844	0.213240
C288	C	1.295383	0.273489	0.546574
C289	C	0.599617	-0.366499	-0.090976
C290	C	0.932950	-0.033166	0.242357
C291	C	1.266284	0.300167	0.575690
N292	N	0.570566	0.120709	-0.061914
N293	N	0.903899	0.454042	0.271419
N294	N	1.237233	0.787376	0.604752
C295	C	0.566338	-0.000040	-0.150292
C296	C	0.899671	0.333294	0.183041
C297	C	1.233005	0.666627	0.516374
C298	C	0.566891	-0.000032	-0.203947
C299	C	0.900224	0.333301	0.129386
C300	C	1.233557	0.666635	0.462720
C301	C	0.614867	-0.000046	0.418985
C302	C	0.948201	0.333287	0.752318
C303	C	1.281534	0.666620	1.085652
C304	C	0.612816	-0.000039	0.620645
C305	C	0.946150	0.333294	0.953978
C306	C	1.279483	0.666628	1.287311
O307	O	0.650037	-0.000021	0.651900
O308	O	0.983370	0.333312	0.985234
O309	O	1.316704	0.666646	1.318567
N310	N	0.568481	-0.000034	0.639768
N311	N	0.901814	0.333299	0.973102
N312	N	1.235148	0.666632	1.306435
C313	C	0.524656	-0.000028	0.608474
C314	C	0.857989	0.333305	0.941807
C315	C	1.191322	0.666638	1.275140
O316	O	0.486899	-0.000019	0.629367
O317	O	0.820232	0.333314	0.962700
O318	O	1.153565	0.666648	1.296033
C319	C	0.526707	-0.000032	0.406815
C320	C	0.860040	0.333301	0.740148
C321	C	1.193374	0.666635	1.073482
C322	C	0.571045	-0.000042	0.387694
C323	C	0.904378	0.333291	0.721028
C324	C	1.237712	0.666625	1.054361
C325	C	0.659202	-0.000056	0.399864
C326	C	0.992535	0.333278	0.733197
C327	C	1.325868	0.666611	1.066530
C328	C	0.659714	-0.000060	0.349452
C329	C	0.993047	0.333273	0.682785
C330	C	1.326381	0.666606	1.016118
C331	C	0.615892	-0.000056	0.318161
C332	C	0.949225	0.333278	0.651494
C333	C	1.282559	0.666611	0.984828
C334	C	0.571557	-0.000046	0.337282
C335	C	0.904891	0.333287	0.670616
C336	C	1.238224	0.666620	1.003949
C337	C	0.482882	-0.000022	0.375521
C338	C	0.816215	0.333311	0.708855
C339	C	1.149549	0.666644	1.042188
C340	C	0.483399	-0.000022	0.325104
C341	C	0.816732	0.333311	0.658437
C342	C	1.150066	0.666645	0.991771
C343	C	0.527737	-0.000032	0.305983
C344	C	0.861070	0.333302	0.639317
C345	C	1.194404	0.666635	0.972650
C346	C	0.528247	-0.000046	0.255580
C347	C	0.861581	0.333287	0.588913
C348	C	1.194914	0.666620	0.922246
N349	N	0.572583	-0.000051	0.236456
N350	N	0.905916	0.333282	0.569789
N351	N	1.239249	0.666616	0.903123
C352	C	0.616405	-0.000056	0.267747
C353	C	0.949738	0.333278	0.601080
C354	C	1.283072	0.666611	0.934413
C355	C	0.523582	-0.000027	0.714348
C356	C	0.856915	0.333306	1.047681
C357	C	1.190248	0.666639	1.381014
C358	C	0.523069	-0.000027	0.764762
C359	C	0.856402	0.333306	1.098096
C360	C	1.189735	0.666639	1.431429
C361	C	0.611230	-0.000037	0.776930
C362	C	0.944563	0.333296	1.110263
C363	C	1.277896	0.666629	1.443596
C364	C	0.611742	-0.000041	0.726514
C365	C	0.945075	0.333292	1.059848
C366	C	1.278409	0.666626	1.393181
C367	C	0.567917	-0.000032	0.695224
C368	C	0.901250	0.333301	1.028557
C369	C	1.234583	0.666635	1.361891
C370	C	0.617477	-0.000066	0.161878
C371	C	0.950811	0.333267	0.495211
C372	C	1.284144	0.666601	0.828544
C373	C	0.617986	-0.000073	0.111461
C374	C	0.951319	0.333261	0.444794
C375	C	1.284652	0.666594	0.778127
C376	C	0.529825	-0.000060	0.099298
C377	C	0.863158	0.333273	0.432631
C378	C	1.196492	0.666607	0.765964
C379	C	0.529316	-0.000056	0.149710
C380	C	0.862650	0.333277	0.483043
C381	C	1.195983	0.666611	0.816377
C382	C	0.573146	-0.000057	0.180999
C383	C	0.906480	0.333276	0.514333
C384	C	1.239813	0.666609	0.847666
O385	O	0.491047	-0.000059	0.224296
O386	O	0.824380	0.333275	0.557629
O387	O	1.157713	0.666608	0.890962
O388	O	0.654156	-0.000054	0.246844
O389	O	0.987490	0.333280	0.580177
O390	O	1.320823	0.666613	0.913511
C391	C	0.614355	-0.000042	0.469397
C392	C	0.947688	0.333291	0.802730
C393	C	1.281022	0.666625	1.136064
C394	C	0.570021	-0.000033	0.488518
C395	C	0.903354	0.333301	0.821852
C396	C	1.236687	0.666634	1.155185
C397	C	0.526198	-0.000028	0.457228
C398	C	0.859532	0.333305	0.790561
C399	C	1.192865	0.666639	1.123894
C400	C	0.569508	-0.000033	0.538933
C401	C	0.902841	0.333301	0.872266
C402	C	1.236174	0.666634	1.205599
C403	C	0.613330	-0.000037	0.570223
C404	C	0.946663	0.333296	0.903557
C405	C	1.279996	0.666629	1.236890
C406	C	0.657665	-0.000042	0.551100
C407	C	0.990998	0.333291	0.884433
C408	C	1.324332	0.666625	1.217766
C409	C	0.658177	-0.000046	0.500688
C410	C	0.991511	0.333287	0.834021
C411	C	1.324844	0.666620	1.167354
C412	C	0.481863	-0.000023	0.476351
C413	C	0.815197	0.333310	0.809685
C414	C	1.148530	0.666643	1.143018
C415	C	0.481355	-0.000019	0.526764
C416	C	0.814688	0.333314	0.860097
C417	C	1.148021	0.666647	1.193430
C418	C	0.525177	-0.000024	0.558054
C419	C	0.858510	0.333309	0.891388
C420	C	1.191843	0.666643	1.224721
H421	H	0.412743	-0.000021	-0.145454
H422	H	0.746076	0.333312	0.187879
H423	H	1.079410	0.666645	0.521213
Br424	Br	0.718683	-0.000062	0.442321
Br425	Br	1.052017	0.333272	0.775655
Br426	Br	1.385350	0.666605	1.108988
H427	H	0.653168	-0.000065	0.187348
H428	H	0.986501	0.333269	0.520681
H429	H	1.319835	0.666602	0.854015
Br430	Br	0.066317	-0.000034	-0.210045
Br431	Br	0.399651	0.333299	0.123289
Br432	Br	0.732984	0.666633	0.456622
Br433	Br	0.225997	-0.000098	0.084721
Br434	Br	0.559331	0.333235	0.418054
Br435	Br	0.892664	0.666568	0.751387
Br436	Br	0.462893	-0.000026	0.790705
Br437	Br	0.796227	0.333307	1.124039
Br438	Br	1.129560	0.666640	1.457372
Br439	Br	-0.163250	-0.000084	0.044540
Br440	Br	0.170083	0.333249	0.377874
Br441	Br	0.503416	0.666582	0.711207
Br442	Br	0.107181	-0.000084	0.085934
Br443	Br	0.440514	0.333249	0.419267
Br444	Br	0.773848	0.666583	0.752600
H445	H	0.343360	-0.000050	0.015426
H446	H	0.676693	0.333283	0.348759
H447	H	1.010027	0.666617	0.682093
Br448	Br	0.670702	-0.000042	0.819405
Br449	Br	1.004036	0.333291	1.152738
Br450	Br	1.337369	0.666624	1.486072
Br451	Br	0.501910	-0.237240	0.006766
Br452	Br	0.835243	0.096094	0.340099
Br453	Br	1.168576	0.429427	0.673433
H454	H	-0.202311	-0.000049	-0.139207
H455	H	0.131022	0.333285	0.194126
H456	H	0.464355	0.666618	0.527459
Br457	Br	-0.282067	-0.000069	0.045745
Br458	Br	0.051267	0.333264	0.379079
Br459	Br	0.384600	0.666598	0.712412
Br460	Br	0.717137	-0.000052	0.593575
Br461	Br	1.050471	0.333281	0.926909
Br462	Br	1.383804	0.666615	1.260242
H463	H	-0.067947	-0.000047	-0.184708
H464	H	0.265386	0.333286	0.148625
H465	H	0.598720	0.666619	0.481959
Br466	Br	0.421176	-0.000010	0.552706
Br467	Br	0.754509	0.333323	0.886040
Br468	Br	1.087842	0.666657	1.219373
Br469	Br	-0.044068	-0.000088	0.087463
Br470	Br	0.289266	0.333246	0.420796
Br471	Br	0.622599	0.666579	0.754130
Br472	Br	0.422384	-0.000015	0.433892
Br473	Br	0.755717	0.333319	0.767226
Br474	Br	1.089050	0.666652	1.100559
H475	H	0.487892	-0.000020	0.688875
H476	H	0.821225	0.333313	1.022208
H477	H	1.154558	0.666646	1.355542
H478	H	0.174750	-0.000030	-0.187180
H479	H	0.508083	0.333304	0.146153
H480	H	0.841417	0.666637	0.479487
Br481	Br	0.423918	-0.000008	0.282641
Br482	Br	0.757251	0.333326	0.615975
Br483	Br	1.090585	0.666659	0.949308
Br484	Br	0.668218	-0.482787	-0.159620
Br485	Br	1.001551	-0.149453	0.173713
Br486	Br	1.334884	0.183880	0.507046
H487	H	0.517765	-0.777484	-0.009073
H488	H	0.851098	-0.444151	0.324261
H489	H	1.184432	-0.110817	0.657594
H490	H	0.488648	-0.531809	0.020062
H491	H	0.821981	-0.198476	0.353395
H492	H	1.155315	0.134857	0.686728
H493	H	-0.293777	-0.000053	-0.138273
H494	H	0.039557	0.333281	0.195061
H495	H	0.372890	0.666614	0.528394
Br496	Br	0.472857	-0.643209	0.035858
Br497	Br	0.806190	-0.309876	0.369192
Br498	Br	1.139523	0.023457	0.702525
H499	H	0.517702	-0.125819	-0.009035
H500	H	0.851035	0.207514	0.324298
H501	H	1.184369	0.540848	0.657631
H502	H	0.434827	-0.000048	0.014492
H503	H	0.768160	0.333285	0.347826
H504	H	1.101494	0.666618	0.681159
Br505	Br	0.639071	-0.111217	-0.130500
Br506	Br	0.972404	0.222116	0.202833
Br507	Br	1.305737	0.555449	0.536166
H508	H	0.647846	-0.000048	0.710950
H509	H	0.981179	0.333285	1.044283
H510	H	1.314513	0.666618	1.377617
H511	H	0.694282	-0.000054	0.485125
H512	H	1.027615	0.333279	0.818458
H513	H	1.360949	0.666612	1.151791
Br514	Br	0.501972	-0.888891	0.006713
Br515	Br	0.835305	-0.555557	0.340047
Br516	Br	1.168638	-0.222224	0.673380
Br517	Br	0.472839	-0.357074	0.035877
Br518	Br	0.806173	-0.023741	0.369211
Br519	Br	1.139506	0.309593	0.702544
Br520	Br	0.639098	-0.237103	-0.130497
Br521	Br	0.972431	0.096231	0.202836
Br522	Br	1.305765	0.429564	0.536170
H523	H	0.446777	-0.000011	0.391080
H524	H	0.780111	0.333322	0.724414
H525	H	1.113444	0.666655	1.057747
Br526	Br	0.668248	-0.643037	-0.159620
Br527	Br	1.001582	-0.309704	0.173713
Br528	Br	1.334915	0.023630	0.507047
Br529	Br	0.639153	-0.762857	-0.130527
Br530	Br	0.972487	-0.429523	0.202806
Br531	Br	1.305820	-0.096190	0.536140
H532	H	0.623354	-0.874281	-0.114737
H533	H	0.956687	-0.540948	0.218597
H534	H	1.290020	-0.207615	0.551930
H535	H	0.023514	-0.000042	-0.185643
H536	H	0.356847	0.333291	0.147690
H537	H	0.690181	0.666624	0.481023
Br538	Br	0.719890	-0.000059	0.323510
Br539	Br	1.053224	0.333274	0.656844
Br540	Br	1.386557	0.666607	0.990177
H541	H	0.493213	-0.000062	0.165279
H542	H	0.826546	0.333271	0.498612
H543	H	1.159879	0.666604	0.831945
Br544	Br	0.668202	-0.356903	-0.159616
Br545	Br	1.001536	-0.023570	0.173718
Br546	Br	1.334869	0.309763	0.507051
Br547	Br	0.472843	-0.482975	0.035872
Br548	Br	0.806177	-0.149642	0.369205
Br549	Br	1.139510	0.183692	0.702539
H550	H	0.654093	-0.000082	0.095896
H551	H	0.987426	0.333251	0.429229
H552	H	1.320759	0.666585	0.762562
Br553	Br	0.470355	-0.000054	0.056822
Br554	Br	0.803688	0.333279	0.390156
Br555	Br	1.137022	0.666613	0.723489
H556	H	0.321291	-0.000036	-0.144529
H557	H	0.654624	0.333297	0.188804
H558	H	0.987957	0.666631	0.522137
H559	H	0.057760	-0.000085	0.062462
H560	H	0.391093	0.333249	0.395795
H561	H	0.724427	0.666582	0.729128
H562	H	0.652437	-0.531660	-0.143814
H563	H	0.985770	-0.198327	0.189520
H564	H	1.319103	0.135006	0.522853
