data_functionalizedCrystal
_audit_creation_method	'MofGen! by Chris Wilmer'
_symmetry_space_group_name_H-M	'P1'
_symmetry_Int_Tables_number	1
_symmetry_cell_setting	triclinic
loop_
_symmetry_equiv_pos_as_xyz
  x,y,z
_cell_length_a	10.686220
_cell_length_b	12.759400
_cell_length_c	12.759393
_cell_angle_alpha	90.030239
_cell_angle_beta	85.650681
_cell_angle_gamma	94.396325
loop_
_atom_site_label
_atom_site_type_symbol
_atom_site_fract_x
_atom_site_fract_y
_atom_site_fract_z
Zn1	Zn	1.929122	-0.294845	0.470993
Zn2	Zn	1.928994	-0.470568	0.295322
Zn3	Zn	1.718107	-0.308391	0.308786
Zn4	Zn	1.718094	-0.483978	0.484409
O5	O	1.823579	-0.389446	0.389877
O6	O	2.105678	-0.306874	0.436441
O7	O	1.900972	-0.449111	0.150090
O8	O	1.746157	-0.159569	0.330323
O9	O	2.105584	-0.435977	0.307376
O10	O	1.901189	-0.149617	0.449496
O11	O	1.746034	-0.329960	0.159982
O12	O	1.541533	-0.342964	0.343331
O13	O	1.746136	-0.458833	0.629647
O14	O	1.541523	-0.471967	0.472361
O15	O	1.901177	-0.319877	0.619791
O16	O	1.900959	-0.619372	0.320384
O17	O	1.746012	-0.629224	0.459305
C18	C	1.495745	-0.410391	0.410764
C19	C	1.355495	-0.419377	0.419724
C20	C	1.823505	-0.662418	0.389860
C21	C	1.823588	-0.779189	0.389881
C22	C	1.904359	-0.828880	0.317613
C23	C	1.904436	-0.938599	0.317640
C24	C	1.742962	-0.948927	0.462207
C25	C	1.742891	-0.839209	0.462184
C26	C	1.985055	-0.768860	0.245310
C27	C	2.065831	-0.818551	0.173035
C28	C	2.065909	-0.928270	0.173063
C29	C	1.985210	-0.988298	0.245365
C30	C	2.152694	-0.368419	0.368910
C31	C	2.292944	-0.359458	0.359975
C32	C	1.823669	-0.389340	0.663905
C33	C	1.823707	-0.389295	0.780679
C34	C	1.823689	-0.115405	0.389915
C35	C	1.823736	0.001374	0.389931
C36	C	1.823563	-0.389470	0.116911
C37	C	1.823769	-0.389203	0.000122
C38	C	1.904471	-0.316878	0.940134
C39	C	1.904444	-0.316926	0.830411
C40	C	1.743001	-0.461628	0.840675
C41	C	1.743036	-0.461584	0.950395
C42	C	1.985205	-0.244498	0.989860
C43	C	2.065913	-0.172166	0.929872
C44	C	2.065886	-0.172214	0.820149
C45	C	1.985151	-0.244594	0.770415
H46	H	1.301747	-0.477561	0.477730
H47	H	1.984998	-0.679521	0.245277
H48	H	2.131541	-0.769670	0.114175
F49	F	1.657081	-1.012816	0.539148
H50	H	1.985290	-1.077638	0.245389
F51	F	1.656928	-0.786321	0.539101
H52	H	2.131689	-0.968724	0.114221
H53	H	1.985232	-0.244448	1.079201
H54	H	2.131651	-0.113243	0.970372
H55	H	1.985145	-0.244635	0.681071
F56	F	1.657080	-0.538650	0.787741
H57	H	1.346685	-0.301285	0.301966
F58	F	2.151790	-0.095242	0.756308
F59	F	1.657142	-0.538559	1.014242
