data_functionalizedCrystal
_audit_creation_method	'MofGen! by Chris Wilmer'
_symmetry_space_group_name_H-M	'P1'
_symmetry_Int_Tables_number	1
_symmetry_cell_setting	triclinic
loop_
_symmetry_equiv_pos_as_xyz
  x,y,z
_cell_length_a	12.759401
_cell_length_b	12.759400
_cell_length_c	12.759393
_cell_angle_alpha	89.968436
_cell_angle_beta	89.981504
_cell_angle_gamma	90.014845
loop_
_atom_site_label
_atom_site_type_symbol
_atom_site_fract_x
_atom_site_fract_y
_atom_site_fract_z
Zn1	Zn	1.606255	-0.418200	-0.593981
Zn2	Zn	1.606150	-0.593919	-0.418301
Zn3	Zn	1.430557	-0.418255	-0.418321
Zn4	Zn	1.430546	-0.593838	-0.593943
O5	O	1.518377	-0.506053	-0.506137
O6	O	1.753262	-0.441520	-0.570685
O7	O	1.582818	-0.570673	-0.271283
O8	O	1.453913	-0.271226	-0.441647
O9	O	1.753185	-0.570620	-0.441614
O10	O	1.582998	-0.271186	-0.570704
O11	O	1.453811	-0.441614	-0.271297
O12	O	1.283535	-0.441535	-0.441609
O13	O	1.453894	-0.570482	-0.740969
O14	O	1.283527	-0.570536	-0.570638
O15	O	1.582987	-0.441442	-0.740997
O16	O	1.582807	-0.740929	-0.441577
O17	O	1.453791	-0.740870	-0.570620
C18	C	1.245410	-0.506033	-0.506122
C19	C	1.128633	-0.506050	-0.506141
C20	C	1.073794	-0.573328	-0.573215
C21	C	0.964070	-0.573342	-0.573227
C22	C	0.964034	-0.438796	-0.439081
C23	C	1.073756	-0.438778	-0.439075
C24	C	1.073815	-0.651010	-0.650660
C25	C	0.964091	-0.651024	-0.650672
C26	C	1.518315	-0.779020	-0.506115
C27	C	1.518384	-0.895797	-0.506140
C28	C	1.585637	-0.950655	-0.439022
C29	C	1.585702	-1.060379	-0.439054
C30	C	1.451252	-1.060377	-0.573327
C31	C	1.451193	-0.950655	-0.573299
C32	C	1.663258	-0.950657	-0.361498
C33	C	1.663322	-1.060381	-0.361530
C34	C	1.792410	-0.506073	-0.506152
C35	C	1.909187	-0.506082	-0.506158
C36	C	1.518451	-0.505947	-0.780170
C37	C	1.518482	-0.505902	-0.896947
C38	C	1.518468	-0.232019	-0.506182
C39	C	1.518507	-0.115243	-0.506201
C40	C	1.585710	-0.438704	-0.951825
C41	C	1.585735	-0.438666	-1.061549
C42	C	1.451301	-0.573033	-1.061507
C43	C	1.451272	-0.573064	-0.951785
C44	C	1.663328	-0.361131	-0.951851
C45	C	1.663353	-0.361093	-1.061575
C46	C	1.518364	-0.506083	-0.233169
C47	C	1.518537	-0.505832	-0.116393
H48	H	1.107829	-0.728262	-0.621376
N49	N	1.378773	-1.119550	-0.645744
H50	H	1.336158	-1.068145	-0.688258
H51	H	1.421537	-1.165000	-0.694415
H52	H	0.919339	-0.384025	-0.384479
N53	N	1.634537	-1.099951	-0.253738
H54	H	1.562446	-1.073675	-0.234305
H55	H	1.634641	-1.179105	-0.253800
N56	N	1.624686	-0.905677	-0.259075
H57	H	1.606093	-0.964646	-0.209606
H58	H	1.681576	-0.861084	-0.226842
N59	N	1.624825	-0.258681	-1.106684
H60	H	1.626255	-0.262393	-1.185740
H61	H	1.550745	-0.245353	-1.082186
N62	N	1.378664	-0.891481	-0.645695
H63	H	1.394958	-0.910504	-0.720778
H64	H	1.303644	-0.910673	-0.629234
H65	H	0.930093	-0.621980	-0.728024
N66	N	0.924610	-0.758773	-0.621621
H67	H	0.986133	-0.806845	-0.608642
H68	H	0.880577	-0.753942	-0.556012
H69	H	1.396525	-0.627780	-0.907107
N70	N	1.771000	-0.911093	-0.390440
H71	H	1.819122	-0.972580	-0.403383
H72	H	1.766186	-0.867040	-0.456047
H73	H	1.740626	-1.094325	-0.390742
N74	N	1.378799	-0.645456	-1.120654
H75	H	1.389011	-0.635234	-1.198490
H76	H	1.395105	-0.720503	-1.101467
N77	N	1.634505	-0.253359	-0.912422
H78	H	1.621656	-0.205243	-0.973969
H79	H	1.568871	-0.258112	-0.868410
H80	H	1.740599	-0.390300	-0.917815
N81	N	1.771124	-0.389966	-1.101043
H82	H	1.823947	-0.337235	-1.074696
H83	H	1.790356	-0.462082	-1.074666
N84	N	1.132906	-0.366188	-0.366759
H85	H	1.081489	-0.323573	-0.324281
H86	H	1.178418	-0.408867	-0.318052
H87	H	1.103623	-0.629311	-0.732067
