data_functionalizedCrystal
_audit_creation_method	'MofGen! by Chris Wilmer'
_symmetry_space_group_name_H-M	'P1'
_symmetry_Int_Tables_number	1
_symmetry_cell_setting	triclinic
loop_
_symmetry_equiv_pos_as_xyz
  x,y,z
_cell_length_a	14.519731
_cell_length_b	23.532357
_cell_length_c	12.996460
_cell_angle_alpha	89.988323
_cell_angle_beta	89.994327
_cell_angle_gamma	83.258572
loop_
_atom_site_label
_atom_site_type_symbol
_atom_site_fract_x
_atom_site_fract_y
_atom_site_fract_z
O1	O	1.222951	0.074713	-0.085582
O2	O	0.954370	0.083492	-0.085585
O3	O	1.096784	-0.003794	-0.085562
O4	O	1.080538	0.162000	-0.085605
O5	O	1.096769	-0.003799	0.085571
O6	O	0.954356	0.083488	0.085549
O7	O	1.222936	0.074709	0.085552
Cu8	Cu	1.088645	0.079098	0.101176
Cu9	Cu	1.088662	0.079103	-0.101209
O10	O	1.080523	0.161995	0.085529
C11	C	0.920009	0.083079	-0.000018
C12	C	0.817643	0.081846	-0.000019
C13	C	0.734511	0.080844	-0.000022
C14	C	0.630218	0.079593	-0.000023
C15	C	0.547091	0.078600	-0.000022
C16	C	0.442790	0.077348	-0.000024
C17	C	1.096370	-0.025015	0.000008
C18	C	1.095148	-0.088239	0.000017
C19	C	1.087486	-0.480282	-0.093323
C20	C	1.086325	-0.539687	-0.093329
O21	O	1.085700	-0.570404	-0.172664
N22	N	1.085741	-0.569404	-0.000045
C23	C	1.086309	-0.539711	0.093250
O24	O	1.085705	-0.570442	0.172595
C25	C	1.087464	-0.480307	0.093255
C26	C	1.088057	-0.450595	-0.000035
C27	C	1.088078	-0.450570	-0.186606
C28	C	1.089242	-0.391169	-0.186599
C29	C	1.089812	-0.361481	-0.093311
C30	C	1.089220	-0.391194	-0.000028
C31	C	1.088025	-0.450616	0.186550
C32	C	1.089179	-0.391207	0.186547
C33	C	1.089773	-0.361495	0.093257
C34	C	1.090954	-0.302106	0.093266
N35	N	1.091538	-0.272389	-0.000017
C36	C	1.090967	-0.302077	-0.093306
C37	C	1.083882	-0.664464	0.093233
C38	C	1.082734	-0.723868	0.093229
C39	C	1.082748	-0.723839	-0.093350
C40	C	1.083903	-0.664435	-0.093346
C41	C	1.084466	-0.634748	-0.000051
C42	C	1.093410	-0.177332	-0.093286
C43	C	1.094577	-0.117926	-0.093271
C44	C	1.094558	-0.117960	0.093308
C45	C	1.093396	-0.177361	0.093294
C46	C	1.092819	-0.207045	-0.000011
O47	O	1.091576	-0.271351	0.172561
O48	O	1.091559	-0.271338	-0.172637
C49	C	1.257298	0.075122	-0.000017
C50	C	1.359663	0.076355	-0.000024
C51	C	1.080937	0.183216	-0.000043
C52	C	1.082158	0.246440	-0.000060
N53	N	1.088639	0.079093	0.243523
N54	N	1.088675	0.079103	-0.243557
C55	C	1.088661	0.079104	0.663337
C56	C	1.088652	0.079103	0.546532
C57	C	1.088650	0.079099	0.453434
C58	C	1.088641	0.079097	0.336621
H59	H	1.092936	-0.201494	-0.169264
H60	H	1.092922	-0.201554	0.169258
O61	O	1.095274	-0.089036	-0.183858
C62	C	1.176374	-0.028254	-0.292120
C63	C	1.175742	-0.060965	-0.189519
H64	H	1.241416	-0.005540	-0.296721
H65	H	1.175805	-0.059643	-0.358858
H66	H	1.112323	0.004672	-0.296708
H67	H	1.239782	-0.093891	-0.184831
H68	H	1.176264	-0.029541	-0.122830
O69	O	1.087579	-0.479513	0.277138
C70	C	1.166054	-0.553001	0.385433
C71	C	1.166706	-0.520308	0.282815
H72	H	1.230010	-0.585999	0.390047
H73	H	1.166701	-0.521606	0.452154
H74	H	1.100920	-0.575626	0.390039
H75	H	1.231828	-0.497681	0.278109
H76	H	1.166010	-0.551729	0.216143
H77	H	1.087610	-0.474735	-0.262576
O78	O	1.084330	-0.635506	-0.183907
C79	C	1.005659	-0.562101	-0.292226
C80	C	1.005088	-0.594802	-0.189610
H81	H	0.941589	-0.529194	-0.296880
H82	H	1.070694	-0.539385	-0.296938
H83	H	1.005092	-0.593551	-0.358869
H84	H	1.005622	-0.563391	-0.122909
H85	H	0.940058	-0.617528	-0.184988
O86	O	1.082022	-0.752695	-0.183949
C87	C	1.000837	-0.813411	-0.292192
C88	C	1.001532	-0.780746	-0.189572
H89	H	0.935778	-0.836108	-0.296763
H90	H	1.001394	-0.781994	-0.358912
H91	H	1.064871	-0.846347	-0.296841
H92	H	0.937510	-0.747810	-0.184822
H93	H	1.001023	-0.812197	-0.122901
H94	H	1.082265	-0.748056	0.169195
H95	H	1.089624	-0.367038	0.262520
H96	H	1.089721	-0.366982	-0.262566
O97	O	1.084478	-0.635720	0.183959
C98	C	1.084284	-0.642026	0.369018
C99	C	1.083634	-0.674647	0.266348
H100	H	1.083582	-0.673482	0.435656
H101	H	1.149387	-0.619378	0.373764
H102	H	1.020293	-0.609055	0.373634
H103	H	1.147581	-0.707644	0.261663
H104	H	1.018490	-0.697255	0.261645
O105	O	1.094942	-0.089072	0.183893
C106	C	1.016339	-0.015606	0.292101
C107	C	1.015791	-0.048292	0.189491
H108	H	0.952363	0.017380	0.296651
H109	H	1.015654	-0.047007	0.358830
H110	H	1.081453	0.007034	0.296754
H111	H	0.950688	-0.070933	0.184737
H112	H	1.016525	-0.016865	0.122811
