data_functionalizedCrystal
_audit_creation_method	'MofGen! by Chris Wilmer'
_symmetry_space_group_name_H-M	'P1'
_symmetry_Int_Tables_number	1
_symmetry_cell_setting	triclinic
loop_
_symmetry_equiv_pos_as_xyz
  x,y,z
_cell_length_a	10.654550
_cell_length_b	14.519731
_cell_length_c	9.130313
_cell_angle_alpha	89.994496
_cell_angle_beta	89.999724
_cell_angle_gamma	84.086892
loop_
_atom_site_label
_atom_site_type_symbol
_atom_site_fract_x
_atom_site_fract_y
_atom_site_fract_z
O1	O	1.666607	0.129531	-0.121694
O2	O	2.166607	0.629531	0.378306
O3	O	1.301012	0.141872	-0.121721
O4	O	1.801012	0.641872	0.378279
O5	O	1.493489	0.001515	-0.121693
O6	O	1.993489	0.501515	0.378307
O7	O	1.474130	0.269888	-0.121721
O8	O	1.974130	0.769888	0.378279
O9	O	1.493476	0.001510	0.121906
O10	O	1.993476	0.501510	0.621906
O11	O	1.300998	0.141868	0.121878
O12	O	1.800998	0.641868	0.621878
O13	O	1.666594	0.129527	0.121905
O14	O	2.166594	0.629527	0.621905
Cu15	Cu	1.483795	0.135697	0.144134
Cu16	Cu	1.983795	0.635697	0.644134
Cu17	Cu	1.483811	0.135702	-0.143950
Cu18	Cu	1.983811	0.635702	0.356050
O19	O	1.474117	0.269884	0.121877
O20	O	1.974117	0.769884	0.621877
C21	C	1.254216	0.140964	0.000075
C22	C	1.754216	0.640964	0.500075
C23	C	1.114798	0.138253	0.000065
C24	C	1.614798	0.638253	0.500065
C25	C	1.034527	0.220893	0.000061
C26	C	1.534527	0.720893	0.500061
C27	C	0.903530	0.218340	0.000086
C28	C	1.403530	0.718340	0.500086
C29	C	0.933090	0.050500	0.000115
C30	C	1.433090	0.550500	0.500115
C31	C	1.064084	0.053053	0.000100
C32	C	1.564084	0.553053	0.500100
C33	C	1.492575	-0.032852	0.000106
C34	C	1.992575	0.467148	0.500106
C35	C	1.489857	-0.135246	0.000107
C36	C	1.989857	0.364754	0.500107
C37	C	1.487648	-0.218402	0.000104
C38	C	1.987648	0.281598	0.500104
C39	C	1.484889	-0.322725	0.000092
C40	C	1.984889	0.177275	0.500092
C41	C	1.482698	-0.405875	0.000083
C42	C	1.982698	0.094125	0.500083
C43	C	1.479939	-0.510205	0.000074
C44	C	1.979939	-0.010205	0.500074
C45	C	1.713390	0.130435	0.000106
C46	C	2.213390	0.630435	0.500106
C47	C	1.852808	0.133146	0.000106
C48	C	2.352808	0.633146	0.500106
C49	C	1.475031	0.304251	0.000075
C50	C	1.975031	0.804251	0.500075
C51	C	1.477749	0.406645	0.000064
C52	C	1.977749	0.906645	0.500064
N53	N	1.483793	0.135693	0.346757
N54	N	1.983793	0.635693	0.846757
N55	N	1.483822	0.135699	-0.346572
N56	N	1.983822	0.635699	0.153428
C57	C	1.569051	0.073569	0.423421
C58	C	2.069051	0.573569	0.923421
C59	C	1.569063	0.073569	0.576758
C60	C	2.069063	0.573569	1.076758
C61	C	1.398556	0.197825	0.576753
C62	C	1.898556	0.697825	1.076753
C63	C	1.398539	0.197820	0.423419
C64	C	1.898539	0.697820	0.923419
H65	H	1.129445	-0.014246	0.000108
H66	H	1.629445	0.485754	0.500108
H67	H	1.075814	0.290268	0.000044
H68	H	1.575814	0.790268	0.500044
C69	C	0.815236	0.309251	0.000089
C70	C	1.315236	0.809251	0.500089
N71	N	0.748733	0.377730	0.000094
N72	N	1.248733	0.877730	0.500094
H73	H	1.638486	0.022981	0.639173
H74	H	2.138486	0.522981	1.139173
H75	H	0.891781	-0.018867	0.000152
H76	H	1.391781	0.481133	0.500152
C77	C	1.662823	0.005220	0.339098
C78	C	2.162823	0.505220	0.839098
N79	N	1.733452	-0.046265	0.275590
N80	N	2.233452	0.453735	0.775590
H81	H	1.329145	0.248409	0.639186
H82	H	1.829145	0.748409	1.139186
C83	C	1.304801	0.266207	0.339083
C84	C	1.804801	0.766207	0.839083
N85	N	1.234220	0.317728	0.275562
N86	N	1.734220	0.817728	0.775562
