data_functionalizedCrystal
_audit_creation_method	'MofGen! by Chris Wilmer'
_symmetry_space_group_name_H-M	'P1'
_symmetry_Int_Tables_number	1
_symmetry_cell_setting	triclinic
loop_
_symmetry_equiv_pos_as_xyz
  x,y,z
_cell_length_a	17.699083
_cell_length_b	10.540539
_cell_length_c	16.776229
_cell_angle_alpha	89.995514
_cell_angle_beta	89.998886
_cell_angle_gamma	83.904253
loop_
_atom_site_label
_atom_site_type_symbol
_atom_site_fract_x
_atom_site_fract_y
_atom_site_fract_z
O1	O	1.005122	0.160520	-0.066173
O2	O	0.784880	0.181404	-0.066198
O3	O	0.900026	-0.013836	-0.066184
O4	O	0.889976	0.355761	-0.066187
O5	O	0.900010	-0.013848	0.066393
O6	O	0.784864	0.181392	0.066378
O7	O	1.005107	0.160508	0.066404
Zn8	Zn	0.894983	0.170948	0.087440
Zn9	Zn	0.895003	0.170964	-0.087235
O10	O	0.889961	0.355749	0.066389
C11	C	0.756670	0.180650	0.000087
C12	C	0.672637	0.178405	0.000077
C13	C	0.624761	0.293007	0.000076
C14	C	0.545804	0.290890	0.000086
C15	C	0.514725	0.174170	0.000092
C16	C	0.562607	0.059559	0.000095
C17	C	0.641562	0.061677	0.000090
C18	C	0.244188	0.051014	0.000115
C19	C	0.165226	0.048904	0.000117
C20	C	0.148430	0.280227	0.000111
C21	C	0.227386	0.282345	0.000106
C22	C	0.275261	0.167735	0.000113
C23	C	0.360875	0.170032	0.000104
C24	C	0.429112	0.171872	0.000096
C25	C	0.899264	-0.061131	0.000103
C26	C	0.897009	-0.202038	0.000098
C27	C	0.810610	-0.383885	-0.000209
C28	C	0.812896	-0.237308	0.000089
C29	C	0.937480	-0.264443	0.075811
C30	C	0.934609	-0.410935	0.075874
C31	C	0.936337	-0.411471	-0.074890
C32	C	0.937112	-0.264503	-0.075891
C33	C	1.033316	0.161263	0.000117
C34	C	1.117349	0.163508	0.000122
C35	C	0.890722	0.403044	0.000101
C36	C	0.892977	0.543951	0.000100
N37	N	0.894974	0.170937	0.206652
N38	N	0.895018	0.170966	-0.206446
C39	C	0.945977	0.084520	0.248375
C40	C	0.945981	0.084519	0.331827
C41	C	0.894986	0.170942	0.373555
C42	C	0.843978	0.257363	0.331825
C43	C	0.843971	0.257357	0.248375
C44	C	0.844005	0.257388	0.668372
C45	C	0.844018	0.257390	0.751829
C46	C	0.946016	0.084550	0.751825
C47	C	0.946009	0.084544	0.668374
C48	C	0.894998	0.170960	0.626652
C49	C	0.894993	0.170958	0.536164
C50	C	0.894994	0.170950	0.464041
H51	H	0.506826	0.384211	0.000085
C52	C	0.766334	-0.423237	0.071700
C53	C	0.693131	-0.358196	0.070555
C54	C	0.652321	-0.394433	0.136778
H55	H	0.791611	-0.402617	0.119170
H56	H	0.763018	-0.512565	0.069919
H57	H	0.696450	-0.268889	0.072343
H58	H	0.667834	-0.378807	0.023099
H59	H	0.649005	-0.483760	0.134998
H60	H	0.677604	-0.373811	0.184244
H61	H	0.602647	-0.350317	0.136007
H62	H	0.999250	-0.243219	0.078633
C63	C	1.001397	-0.009141	0.203012
C64	C	1.048103	0.058325	0.155081
C65	C	1.099155	-0.027931	0.113283
H66	H	0.973938	-0.061925	0.170415
H67	H	1.031817	-0.060623	0.239773
H68	H	1.017686	0.109785	0.118324
H69	H	1.075579	0.111104	0.187659
H70	H	1.129575	-0.079414	0.150044
H71	H	1.071689	-0.080711	0.080690
H72	H	1.130855	0.017832	0.080763
H73	H	0.780815	-0.194971	0.054446
H74	H	0.252686	0.377390	0.000098
H75	H	0.802453	0.327726	0.365804
H76	H	0.995102	-0.460010	0.079316
H77	H	0.650060	0.388054	0.000071
H78	H	0.283159	-0.042309	0.000121
H79	H	0.802472	0.327753	0.634409
C80	C	1.017386	-0.475748	-0.075687
C81	C	1.055411	-0.435269	-0.142716
C82	C	1.130072	-0.494447	-0.143464
H83	H	1.016714	-0.565683	-0.077672
H84	H	1.042915	-0.453391	-0.028742
H85	H	1.029888	-0.457635	-0.189649
H86	H	1.056104	-0.345343	-0.140745
H87	H	1.155602	-0.472090	-0.096519
H88	H	1.129393	-0.584380	-0.145446
H89	H	1.155884	-0.466982	-0.188938
C90	C	0.788510	0.350983	0.203030
C91	C	0.741801	0.283456	0.155149
C92	C	0.690691	0.369659	0.113375
H93	H	0.815925	0.403798	0.170401
H94	H	0.758096	0.402438	0.239806
H95	H	0.772211	0.232022	0.118377
H96	H	0.714369	0.230646	0.187758
H97	H	0.660278	0.421115	0.150152
H98	H	0.718112	0.422469	0.080752
H99	H	0.658989	0.323855	0.080889
H100	H	0.781051	-0.194118	-0.054185
C101	C	0.131585	-0.077921	0.000004
C102	C	0.155873	-0.147209	-0.068187
C103	C	0.124906	-0.264044	-0.068314
H104	H	0.077707	-0.062945	-0.000038
H105	H	0.147995	-0.125165	0.046217
H106	H	0.139458	-0.099975	-0.114388
H107	H	0.209747	-0.162218	-0.068160
H108	H	0.141316	-0.311288	-0.022102
H109	H	0.071028	-0.249056	-0.068354
H110	H	0.141386	-0.311075	-0.114577
H111	H	0.987511	0.014151	0.365798
C112	C	1.001408	-0.009432	0.623216
C113	C	1.046062	-0.085139	0.677618
C114	C	1.097095	-0.171740	0.636048
H115	H	1.033225	0.036011	0.590649
H116	H	0.973912	-0.062286	0.590687
H117	H	1.073555	-0.032293	0.710132
H118	H	1.014264	-0.130610	0.710186
H119	H	1.069599	-0.224593	0.603520
H120	H	1.128907	-0.126286	0.603483
H121	H	1.127394	-0.223125	0.672953
H122	H	0.909354	-0.221334	0.132147
C123	C	0.899923	-0.452669	-0.151386
C124	C	0.824256	-0.398475	-0.154630
C125	C	0.790682	-0.436382	-0.225086
H126	H	0.901498	-0.543013	-0.152438
H127	H	0.926897	-0.424776	-0.195932
H128	H	0.797289	-0.426375	-0.110096
H129	H	0.822659	-0.308132	-0.153591
H130	H	0.817656	-0.408489	-0.269632
H131	H	0.792263	-0.526727	-0.226132
H132	H	0.739341	-0.399608	-0.227300
C133	C	0.528822	-0.067130	-0.000064
C134	C	0.484000	-0.075111	-0.068281
C135	C	0.452875	-0.191808	-0.068462
H136	H	0.498318	-0.072894	0.046115
H137	H	0.568624	-0.135119	-0.000106
H138	H	0.444204	-0.007141	-0.068231
H139	H	0.514487	-0.069371	-0.114470
H140	H	0.492677	-0.259797	-0.068504
H141	H	0.422375	-0.197561	-0.022280
H142	H	0.422466	-0.197244	-0.114749
H143	H	0.109440	0.373548	0.000109
C144	C	0.788606	0.351015	0.797237
C145	C	0.741941	0.283484	0.845176
C146	C	0.690897	0.369683	0.887026
H147	H	0.758149	0.402516	0.760530
H148	H	0.816095	0.403787	0.829829
H149	H	0.714454	0.230735	0.812587
H150	H	0.772377	0.231988	0.881898
H151	H	0.718387	0.422454	0.919617
H152	H	0.660446	0.421179	0.850313
H153	H	0.659234	0.323875	0.919562
C154	C	0.894651	-0.447559	0.151351
C155	C	0.873321	-0.337840	0.196470
C156	C	0.836499	-0.371518	0.265999
H157	H	0.928089	-0.505183	0.181717
H158	H	0.850691	-0.487193	0.137542
H159	H	0.917275	-0.298226	0.210280
H160	H	0.839875	-0.280203	0.166128
H161	H	0.792539	-0.411152	0.252190
H162	H	0.869941	-0.429143	0.296357
H163	H	0.822016	-0.297079	0.296617
H164	H	0.777390	-0.411872	-0.054504
C165	C	0.897833	-0.209150	-0.150647
C166	C	0.949941	-0.150500	-0.197074
C167	C	0.913786	-0.099498	-0.265947
H168	H	0.856895	-0.147873	-0.136109
H169	H	0.878909	-0.275628	-0.180423
H170	H	0.968854	-0.084030	-0.167304
H171	H	0.990881	-0.211752	-0.211633
H172	H	0.894863	-0.165976	-0.295723
H173	H	0.872849	-0.038226	-0.251401
H174	H	0.949138	-0.059709	-0.297459
H175	H	0.680543	-0.031644	0.000090
H176	H	0.998438	-0.241403	-0.080455
H177	H	0.987549	0.014181	0.785804
