data_functionalizedCrystal
_audit_creation_method	'MofGen! by Chris Wilmer'
_symmetry_space_group_name_H-M	'P1'
_symmetry_Int_Tables_number	1
_symmetry_cell_setting	triclinic
loop_
_symmetry_equiv_pos_as_xyz
  x,y,z
_cell_length_a	16.109301
_cell_length_b	15.944551
_cell_length_c	14.421503
_cell_angle_alpha	89.990248
_cell_angle_beta	89.997488
_cell_angle_gamma	83.480109
loop_
_atom_site_label
_atom_site_type_symbol
_atom_site_fract_x
_atom_site_fract_y
_atom_site_fract_z
O1	O	1.103167	0.107972	-0.077055
O2	O	0.861110	0.121408	-0.077070
O3	O	0.988748	-0.007587	-0.077054
O4	O	0.975528	0.236967	-0.077071
O5	O	0.988737	-0.007600	0.077170
O6	O	0.861098	0.121395	0.077153
O7	O	1.103155	0.107958	0.077168
Cu8	Cu	0.982126	0.114675	0.091243
Cu9	Cu	0.982139	0.114692	-0.091144
O10	O	0.975517	0.236954	0.077152
C11	C	0.830129	0.120857	0.000040
C12	C	0.737833	0.119226	0.000034
C13	C	0.515584	0.191975	0.000040
C14	C	0.428863	0.190435	0.000046
C15	C	0.448688	0.037387	0.000053
C16	C	0.535407	0.038927	0.000054
C17	C	0.568853	0.116224	0.000042
C18	C	0.395412	0.113143	0.000048
C19	C	0.301386	0.111473	0.000054
C20	C	0.662885	0.117894	0.000038
C21	C	0.988194	-0.038887	0.000058
C22	C	0.986548	-0.132133	0.000059
C23	C	0.903499	-0.346962	0.000041
C24	C	0.942059	-0.407999	0.076084
C25	C	0.983572	-0.302858	0.000051
C26	C	0.942089	-0.407969	-0.075968
C27	C	0.980691	-0.467769	0.000040
C28	C	1.022153	-0.362666	0.076158
C29	C	1.022173	-0.362630	-0.075963
C30	C	1.060790	-0.423649	0.000100
C31	C	0.985229	-0.207856	0.000058
C32	C	0.979039	-0.562770	0.000040
C33	C	1.134136	0.108510	0.000056
C34	C	1.226432	0.110141	0.000056
C35	C	0.976071	0.268254	0.000038
C36	C	0.977717	0.361500	0.000032
N37	N	0.982122	0.114663	0.219524
N38	N	0.982150	0.114697	-0.219426
C39	C	1.040699	0.054542	0.530960
C40	C	1.057513	0.130206	0.469120
C41	C	0.982141	0.114687	0.591413
C42	C	0.965356	0.039013	0.469160
C43	C	0.982134	0.114671	0.408692
C44	C	0.998992	0.190391	0.530933
C45	C	0.906802	0.099147	0.530979
C46	C	0.923585	0.174867	0.469166
C47	C	0.982147	0.114695	0.696674
C48	C	0.982127	0.114672	0.303433
H49	H	0.385495	0.252119	0.000046
H50	H	0.908216	-0.428029	-0.140261
F51	F	0.551176	0.274240	0.000032
H52	H	1.013254	0.254396	0.557955
H53	H	0.843113	0.085979	0.558170
F54	F	1.105472	-0.011857	0.566427
F55	F	1.140781	0.147376	0.433584
H56	H	0.421446	-0.025546	0.000068
F57	F	1.147739	-0.467021	0.000158
H58	H	0.578781	-0.022762	0.000058
F59	F	0.858851	0.241410	0.433920
H60	H	0.951163	-0.024978	0.442023
H61	H	0.837035	-0.313632	0.000112
H62	H	0.908186	-0.428102	0.140369
H63	H	1.055988	-0.342693	0.140518
H64	H	1.056016	-0.342505	-0.140251
