data_functionalizedCrystal
_audit_creation_method	'MofGen! by Chris Wilmer'
_symmetry_space_group_name_H-M	'P1'
_symmetry_Int_Tables_number	1
_symmetry_cell_setting	triclinic
loop_
_symmetry_equiv_pos_as_xyz
  x,y,z
_cell_length_a	15.944551
_cell_length_b	10.540510
_cell_length_c	9.616153
_cell_angle_alpha	90.002441
_cell_angle_beta	90.007460
_cell_angle_gamma	84.006024
loop_
_atom_site_label
_atom_site_type_symbol
_atom_site_fract_x
_atom_site_fract_y
_atom_site_fract_z
O1	O	0.118256	1.684294	0.115658
O2	O	0.129436	1.314724	0.115659
O3	O	0.001631	1.509602	0.115646
O4	O	0.246061	1.489417	0.115671
O5	O	0.001622	1.509594	-0.115646
O6	O	0.129427	1.314717	-0.115633
O7	O	0.118247	1.684287	-0.115634
Zn8	Zn	0.123836	1.499501	-0.152356
Zn9	Zn	0.123847	1.499511	0.152381
O10	O	0.246052	1.489410	-0.115621
C11	C	0.128598	1.267428	0.000013
C12	C	0.126106	1.126512	0.000013
C13	C	0.214891	0.907848	0.000554
C14	C	0.217550	1.054407	0.000024
C15	C	0.079290	1.082386	-0.132067
C16	C	0.077279	0.935652	-0.132169
C17	C	0.075385	0.935880	0.130852
C18	C	0.079722	1.082163	0.132590
C19	C	-0.029673	1.508760	-0.000000
C20	C	-0.122934	1.506248	-0.000001
C21	C	-0.338537	1.379449	0.000019
C22	C	-0.399212	1.438326	-0.114022
C23	C	-0.293686	1.501703	0.000010
C24	C	-0.399187	1.438363	0.114013
C25	C	-0.458625	1.497304	0.000026
C26	C	-0.353133	1.560614	-0.114125
C27	C	-0.353101	1.560633	0.114012
C28	C	-0.413758	1.619599	-0.000056
C29	C	-0.198669	1.504234	-0.000001
C30	C	-0.553641	1.494783	0.000027
C31	C	0.277356	1.490251	0.000028
C32	C	0.370617	1.492764	0.000038
C33	C	0.119085	1.731583	0.000015
C34	C	0.121577	1.872499	0.000024
N35	N	0.123827	1.499503	-0.360330
C36	C	0.055696	1.604133	-0.580664
C37	C	0.055436	1.603856	-0.419497
C38	C	0.103900	1.367068	-0.418863
C39	C	0.103422	1.367691	-0.580081
C40	C	0.212124	1.526144	-0.580195
C41	C	0.211547	1.529147	-0.418967
N42	N	0.123849	1.499518	0.360355
H43	H	0.008884	0.913588	-0.138176
Br44	Br	-0.319320	1.646729	-0.274994
Br45	Br	-0.032920	1.162878	-0.140264
Br46	Br	-0.319033	1.646753	0.274715
Br47	Br	0.075369	1.768778	-0.645248
Br48	Br	-0.052847	1.576195	-0.648216
Br49	Br	-0.468030	1.788879	-0.000154
H50	H	-0.419564	1.386642	0.210432
H51	H	0.067418	1.702301	-0.379921
H52	H	-0.010060	1.586842	-0.380950
H53	H	-0.419629	1.386615	-0.210434
H54	H	0.254389	1.082306	-0.094808
Br55	Br	0.130594	0.867883	-0.296715
Br56	Br	0.296673	1.398994	-0.643773
Br57	Br	-0.003918	1.328577	-0.642798
H58	H	0.231085	1.620653	-0.620842
Br59	Br	0.274282	0.837123	0.158434
Br60	Br	0.136465	1.129155	0.295458
Br61	Br	0.123462	0.864329	0.297711
H62	H	0.250308	0.863856	-0.093625
H63	H	0.152182	1.287343	-0.380540
Br64	Br	0.133464	1.133064	-0.295892
Br65	Br	-0.031556	1.165450	0.145872
Br66	Br	-0.039048	0.900527	0.132324
H67	H	-0.305827	1.277973	-0.000095
Br68	Br	0.182939	1.234045	-0.645122
Br69	Br	-0.002232	1.326984	-0.351606
Br70	Br	0.236729	1.691520	-0.355193
H71	H	0.264697	1.457887	-0.378688
H72	H	0.254174	1.083258	0.094708
