data_functionalizedCrystal
_audit_creation_method	'MofGen! by Chris Wilmer'
_symmetry_space_group_name_H-M	'P1'
_symmetry_Int_Tables_number	1
_symmetry_cell_setting	triclinic
loop_
_symmetry_equiv_pos_as_xyz
  x,y,z
_cell_length_a	10.685980
_cell_length_b	14.908178
_cell_length_c	10.686551
_cell_angle_alpha	97.435690
_cell_angle_beta	98.408259
_cell_angle_gamma	97.409567
loop_
_atom_site_label
_atom_site_type_symbol
_atom_site_fract_x
_atom_site_fract_y
_atom_site_fract_z
Zn1	Zn	1.977920	-0.204185	0.848828
Zn2	Zn	1.947056	-0.369216	0.622116
Zn3	Zn	1.747128	-0.229539	0.618072
Zn4	Zn	1.751187	-0.369127	0.818034
O5	O	1.855823	-0.293017	0.726762
O6	O	2.152385	-0.215502	0.833333
O7	O	1.905919	-0.361335	0.443015
O8	O	1.788962	-0.098691	0.659878
O9	O	2.129709	-0.336750	0.666769
O10	O	1.958523	-0.080063	0.829413
O11	O	1.759034	-0.258716	0.440044
O12	O	1.569108	-0.258630	0.630018
O13	O	1.795879	-0.336599	1.000683
O14	O	1.572090	-0.361185	0.776929
O15	O	1.962459	-0.215417	1.023307
O16	O	1.909855	-0.496688	0.636909
O17	O	1.765951	-0.496623	0.780850
C18	C	1.524301	-0.312649	0.699694
C19	C	1.382474	-0.321069	0.688142
C20	C	1.835031	-0.529708	0.706007
C21	C	1.826257	-0.630955	0.697181
C22	C	1.986224	-0.801661	0.857296
C23	C	1.977984	-0.896792	0.849007
C24	C	1.801533	-0.916350	0.672321
C25	C	1.809772	-0.821219	0.680610
C26	C	1.902122	-0.763877	0.773099
C27	C	1.910367	-0.668745	0.781381
C28	C	1.733911	-0.688304	0.604702
C29	C	1.725671	-0.783435	0.596413
C30	C	2.188639	-0.273308	0.753937
C31	C	2.330466	-0.264909	0.765517
C32	C	1.883065	-0.273170	1.059589
C33	C	1.894673	-0.264712	1.201420
C34	C	1.876733	-0.055398	0.747629
C35	C	1.885643	0.045861	0.756521
C36	C	1.828766	-0.312716	0.395242
C37	C	1.817427	-0.320903	0.253454
H38	H	1.985566	-0.622058	0.856687
H39	H	1.394441	-0.210383	0.840597
H40	H	2.061427	-0.754972	0.932596
H41	H	1.318492	-0.375593	0.613050
H42	H	1.969699	-0.210135	1.265384
F43	F	2.067494	-0.937000	0.938623
H44	H	1.726341	-0.963053	0.597026
H45	H	1.650480	-0.830135	0.521114
F46	F	1.644405	-0.648087	0.515080
F47	F	1.719378	-0.392244	1.169861
