data_functionalizedCrystal
_audit_creation_method	'MofGen! by Chris Wilmer'
_symmetry_space_group_name_H-M	'P1'
_symmetry_Int_Tables_number	1
_symmetry_cell_setting	triclinic
loop_
_symmetry_equiv_pos_as_xyz
  x,y,z
_cell_length_a	14.853567
_cell_length_b	11.792241
_cell_length_c	13.930277
_cell_angle_alpha	89.995317
_cell_angle_beta	89.995755
_cell_angle_gamma	83.914173
loop_
_atom_site_label
_atom_site_type_symbol
_atom_site_fract_x
_atom_site_fract_y
_atom_site_fract_z
O1	O	1.196945	0.148181	-0.079765
O2	O	0.934554	0.165833	-0.079782
O3	O	1.072117	-0.008203	-0.079766
O4	O	1.059382	0.322217	-0.079780
O5	O	1.072098	-0.008206	0.079896
O6	O	0.934535	0.165829	0.079880
O7	O	1.196926	0.148177	0.079897
Zn8	Zn	1.065728	0.157003	0.105238
Zn9	Zn	1.065753	0.157008	-0.105123
O10	O	1.059363	0.322213	0.079881
C11	C	0.900953	0.165032	0.000047
C12	C	0.800860	0.162635	0.000041
C13	C	1.071308	-0.050491	0.000064
C14	C	1.068913	-0.176489	0.000063
C15	C	0.387884	0.049122	0.000068
C16	C	0.367408	0.255880	0.000058
C17	C	0.461451	0.258134	0.000055
C18	C	0.518715	0.155880	0.000056
C19	C	0.481936	0.051372	0.000062
C20	C	0.498237	0.362640	0.000040
C21	C	0.592285	0.364898	0.000035
C22	C	0.649550	0.262642	0.000044
C23	C	0.612766	0.158131	0.000050
C24	C	0.670030	0.055877	0.000052
C25	C	0.633248	-0.048637	0.000065
C26	C	0.539201	-0.050883	0.000070
C27	C	0.743596	0.264889	0.000039
C28	C	0.764081	0.058127	0.000046
C29	C	1.064511	-0.407174	0.000047
C30	C	1.066957	-0.278804	0.000056
C31	C	1.230527	0.148979	0.000066
C32	C	1.330621	0.151376	0.000066
C33	C	1.060173	0.364501	0.000049
C34	C	1.062567	0.490500	0.000044
N35	N	1.065717	0.156999	0.248804
N36	N	1.065771	0.157003	-0.248689
C37	C	1.004838	0.234041	0.701067
C38	C	1.126693	0.079966	0.701050
C39	C	1.126682	0.079963	0.600554
C40	C	1.065749	0.157000	0.550310
C41	C	1.004827	0.234042	0.600562
C42	C	1.187610	0.002930	0.550295
C43	C	1.187602	0.002925	0.449793
C44	C	1.126664	0.079958	0.399547
C45	C	1.065738	0.157001	0.449805
C46	C	1.004805	0.234039	0.399561
C47	C	0.943875	0.311078	0.449817
C48	C	0.943889	0.311075	0.550316
C49	C	1.126650	0.079961	0.299048
C50	C	1.004794	0.234040	0.299056
H51	H	0.679884	-0.131891	0.000060
C52	C	0.348130	-0.064461	0.000125
C53	C	0.418411	-0.153523	0.000146
C54	C	0.381824	-0.258171	0.000211
H55	H	0.311879	-0.069798	-0.055533
H56	H	0.311895	-0.069703	0.055829
H57	H	0.454630	-0.148284	-0.055552
H58	H	0.454667	-0.148223	0.055801
H59	H	0.345589	-0.263413	0.055915
H60	H	0.345574	-0.263497	-0.055448
H61	H	0.429504	-0.318613	0.000234
C62	C	1.192836	-0.003797	0.244658
C63	C	1.246190	-0.071276	0.310170
C64	C	1.307164	-0.148462	0.260103
H65	H	1.230637	0.036989	0.205437
H66	H	1.160197	-0.051187	0.205487
H67	H	1.278826	-0.023892	0.349325
H68	H	1.208413	-0.112087	0.349394
H69	H	1.274526	-0.195852	0.220931
H70	H	1.344959	-0.107666	0.220883
H71	H	1.343366	-0.194263	0.304544
C72	C	0.877848	0.394669	0.605054
C73	C	0.890922	0.378202	0.703820
C74	C	0.830114	0.455200	0.754277
H75	H	0.817578	0.382283	0.588719
H76	H	0.888014	0.470464	0.588629
H77	H	0.880748	0.302424	0.720238
H78	H	0.951179	0.390597	0.720183
H79	H	0.840280	0.530995	0.737852
H80	H	0.769848	0.442808	0.737934
H81	H	0.838981	0.444045	0.821294
H82	H	1.176308	0.017250	0.741962
H83	H	0.773540	0.349982	0.000030
H84	H	0.509244	-0.135972	0.000104
C85	C	0.305131	0.366805	-0.000095
C86	C	0.250529	0.371541	-0.082224
C87	C	0.193135	0.473705	-0.082388
H88	H	0.340391	0.429463	-0.000146
H89	H	0.267962	0.370226	0.055555
H90	H	0.287693	0.368132	-0.137859
H91	H	0.215250	0.308908	-0.082190
H92	H	0.155966	0.477126	-0.026739
H93	H	0.228403	0.536355	-0.082437
H94	H	0.156075	0.476928	-0.138107
H95	H	0.451606	0.445889	0.000028
C96	C	0.632042	0.478479	0.000080
C97	C	0.561762	0.567544	0.000103
C98	C	0.598353	0.672190	0.000160
H99	H	0.668296	0.483822	-0.055582
H100	H	0.668273	0.483712	0.055781
H101	H	0.525546	0.562313	-0.055593
H102	H	0.525502	0.562239	0.055760
H103	H	0.634584	0.677423	0.055861
H104	H	0.634606	0.677522	-0.055502
H105	H	0.550674	0.732633	0.000185
H106	H	0.955172	0.296770	0.258153
C107	C	1.253663	-0.080653	0.605018
C108	C	1.240611	-0.064186	0.703786
C109	C	1.301436	-0.141176	0.754231
H110	H	1.313928	-0.068259	0.588656
H111	H	1.243500	-0.156451	0.588610
H112	H	1.250781	0.011594	0.720188
H113	H	1.180359	-0.076589	0.720177
H114	H	1.291273	-0.216974	0.737823
H115	H	1.361697	-0.128776	0.737862
H116	H	1.292583	-0.130022	0.821251
C117	C	0.877761	0.394593	0.395087
C118	C	0.890788	0.378083	0.296320
C119	C	0.829896	0.454984	0.245869
H120	H	0.887857	0.470417	0.411434
H121	H	0.817516	0.382115	0.411505
H122	H	0.951020	0.390570	0.279908
H123	H	0.880686	0.302275	0.279944
H124	H	0.769651	0.442506	0.262287
H125	H	0.839997	0.530803	0.262224
H126	H	0.838721	0.443786	0.178851
H127	H	0.810700	-0.025142	0.000052
H128	H	0.955226	0.296762	0.741988
H129	H	1.237214	-0.059805	0.408881
