data_functionalizedCrystal
_audit_creation_method	'MofGen! by Chris Wilmer'
_symmetry_space_group_name_H-M	'P1'
_symmetry_Int_Tables_number	1
_symmetry_cell_setting	triclinic
loop_
_symmetry_equiv_pos_as_xyz
  x,y,z
_cell_length_a	14.519709
_cell_length_b	12.376457
_cell_length_c	14.519731
_cell_angle_alpha	101.297478
_cell_angle_beta	83.684499
_cell_angle_gamma	78.691279
loop_
_atom_site_label
_atom_site_type_symbol
_atom_site_fract_x
_atom_site_fract_y
_atom_site_fract_z
O1	O	1.241505	-0.093858	0.103270
O2	O	1.741505	0.406142	0.603270
O3	O	0.973035	-0.093893	0.117500
O4	O	1.473035	0.406107	0.617500
O5	O	1.114376	-0.093864	-0.023850
O6	O	1.614376	0.406136	0.476150
O7	O	1.100164	-0.093886	0.244620
O8	O	1.600164	0.406114	0.744620
O9	O	1.079053	0.094141	0.011440
O10	O	1.579053	0.594141	0.511440
O11	O	0.937713	0.094112	0.152789
O12	O	1.437713	0.594112	0.652789
O13	O	1.206182	0.094147	0.138560
O14	O	1.706182	0.594147	0.638560
Zn15	Zn	1.066339	0.123980	0.151277
Zn16	Zn	1.566339	0.623980	0.651277
Zn17	Zn	1.112878	-0.123725	0.104782
Zn18	Zn	1.612878	0.376275	0.604782
O19	O	1.064842	0.094119	0.279910
O20	O	1.564842	0.594119	0.779910
C21	C	0.921015	0.000105	0.134481
C22	C	1.421015	0.500105	0.634481
C23	C	0.818636	0.000092	0.132490
C24	C	1.318636	0.500092	0.632490
N25	N	1.034584	0.293031	0.183009
N26	N	1.534584	0.793031	0.683009
C27	C	1.096049	0.000139	-0.040565
C28	C	1.596049	0.500139	0.459435
C29	C	1.094052	0.000139	-0.142945
C30	C	1.594052	0.500139	0.357055
C31	C	0.443730	0.000145	0.125180
C32	C	0.943730	0.500145	0.625180
C33	C	0.548041	0.000130	0.127210
C34	C	1.048041	0.500130	0.627210
C35	C	0.631180	0.000117	0.128835
C36	C	1.131180	0.500117	0.628835
C37	C	0.735497	0.000105	0.130865
C38	C	1.235497	0.500105	0.630865
C39	C	1.258203	0.000147	0.121579
C40	C	1.758203	0.500147	0.621579
C41	C	1.360583	0.000152	0.123568
C42	C	1.860583	0.500152	0.623568
N43	N	1.144641	-0.292777	0.073044
N44	N	1.644641	0.207223	0.573044
C45	C	1.218354	0.648054	-0.000632
C46	C	1.718354	1.148054	0.499368
C47	C	1.240574	0.529718	-0.022841
C48	C	1.740574	1.029718	0.477159
C49	C	1.189078	0.470541	0.028619
C50	C	1.689078	0.970541	0.528619
C51	C	1.115359	0.529710	0.102293
C52	C	1.615359	1.029710	0.602293
C53	C	1.093142	0.648057	0.124508
C54	C	1.593142	1.148057	0.624508
C55	C	1.063866	0.470544	0.153760
C56	C	1.563866	0.970544	0.653760
C57	C	0.990147	0.529714	0.227433
C58	C	1.490147	1.029714	0.727433
C59	C	0.967932	0.648049	0.249645
C60	C	1.467932	1.148049	0.749645
C61	C	1.019428	0.707227	0.198185
C62	C	1.519428	1.207227	0.698185
C63	C	1.086083	0.352197	0.131544
C64	C	1.586083	0.852197	0.631544
C65	C	0.960871	0.352201	0.256685
C66	C	1.460871	0.852201	0.756685
C67	C	0.938651	0.470536	0.278894
C68	C	1.438651	0.970536	0.778894
C69	C	1.092431	0.000136	-0.226089
C70	C	1.592431	0.500136	0.273911
C71	C	1.090406	0.000127	-0.330400
C72	C	1.590406	0.500127	0.169600
C73	C	1.088799	0.000120	-0.413540
C74	C	1.588799	0.500120	0.086460
C75	C	1.086774	0.000113	-0.517857
C76	C	1.586774	0.500113	-0.017857
C77	C	1.083170	0.000113	0.296624
C78	C	1.583170	0.500113	0.796624
C79	C	1.085167	0.000106	0.399003
C80	C	1.585167	0.500106	0.899003
H81	H	1.146106	0.304032	0.071559
H82	H	1.646106	0.804032	0.571559
F83	F	0.889483	0.711022	0.328064
F84	F	1.389483	1.211022	0.828064
F85	F	1.273159	0.711038	-0.055386
F86	F	1.773159	1.211038	0.444614
F87	F	0.995776	0.833175	0.221818
F88	F	1.495776	1.333175	0.721818
H89	H	0.918940	0.304019	0.298591
H90	H	1.418940	0.804019	0.798591
F91	F	0.860195	0.533521	0.357302
F92	F	1.360195	1.033521	0.857302
F93	F	1.212727	0.344597	0.004980
F94	F	1.712727	0.844597	0.504980
F95	F	1.319028	0.466750	-0.101245
F96	F	1.819028	0.966750	0.398755
