data_functionalizedCrystal
_audit_creation_method	'MofGen! by Chris Wilmer'
_symmetry_space_group_name_H-M	'P1'
_symmetry_Int_Tables_number	1
_symmetry_cell_setting	triclinic
loop_
_symmetry_equiv_pos_as_xyz
  x,y,z
_cell_length_a	26.455835
_cell_length_b	26.455273
_cell_length_c	26.451828
_cell_angle_alpha	60.005170
_cell_angle_beta	60.010757
_cell_angle_gamma	59.993435
loop_
_atom_site_label
_atom_site_type_symbol
_atom_site_fract_x
_atom_site_fract_y
_atom_site_fract_z
O1	O	0.069940	-0.738516	0.617604
O2	O	0.569940	-0.238516	1.117604
O3	O	0.026299	-0.574986	0.497618
O4	O	0.526299	-0.074986	0.997618
O5	O	0.129847	-0.678463	0.497546
O6	O	0.629847	-0.178463	0.997546
O7	O	-0.033607	-0.635040	0.617676
O8	O	0.466393	-0.135040	1.117676
O9	O	0.164197	-0.644116	0.531822
O10	O	0.664197	-0.144116	1.031822
O11	O	0.060649	-0.540639	0.531894
O12	O	0.560649	-0.040639	1.031894
O13	O	0.104290	-0.704170	0.651880
O14	O	0.604290	-0.204170	1.151880
Cu15	Cu	0.085606	-0.619268	0.595016
Cu16	Cu	0.585606	-0.119268	1.095016
Cu17	Cu	0.044984	-0.659887	0.554481
Cu18	Cu	0.544984	-0.159887	1.054481
O19	O	0.000742	-0.600693	0.651952
O20	O	0.500742	-0.100693	1.151952
N21	N	0.114179	-0.590703	0.623530
N22	N	0.614179	-0.090703	1.123530
N23	N	0.016416	-0.688458	0.525968
N24	N	0.516416	-0.188458	1.025968
C25	C	0.157553	-0.547535	0.933368
C26	C	0.657553	-0.047535	1.433368
C27	C	0.424104	-0.547506	0.666656
C28	C	0.924104	-0.047506	1.166656
C29	C	0.157413	-0.547503	0.666729
C30	C	0.657413	-0.047503	1.166729
C31	C	0.157397	-0.280846	0.666749
C32	C	0.657397	0.219154	1.166749
C33	C	0.200330	-0.409550	0.709625
C34	C	0.700330	0.090450	1.209625
C35	C	0.200339	-0.504608	0.709615
C36	C	0.700339	-0.004608	1.209615
C37	C	0.224118	-0.480848	0.733375
C38	C	0.724118	0.019152	1.233375
C39	C	0.327800	-0.462984	0.678792
C40	C	0.827800	0.037016	1.178792
C41	C	0.392611	-0.484588	0.657175
C42	C	0.892611	0.015412	1.157175
C43	C	0.392630	-0.589450	0.697162
C44	C	0.892630	-0.089450	1.197162
C45	C	0.327821	-0.567844	0.718781
C46	C	0.827821	-0.067844	1.218781
C47	C	0.215955	-0.377135	0.645910
C48	C	0.715955	0.122865	1.145910
C49	C	0.194327	-0.312320	0.624323
C50	C	0.694327	0.187680	1.124323
C51	C	0.141457	-0.312339	0.730169
C52	C	0.641457	0.187661	1.230169
C53	C	0.163084	-0.377154	0.751756
C54	C	0.663084	0.122846	1.251756
C55	C	0.136618	-0.488954	0.725292
C56	C	0.636618	0.011046	1.225292
C57	C	0.115007	-0.510553	0.703686
C58	C	0.615007	-0.010553	1.203686
C59	C	0.220833	-0.563461	0.650740
C60	C	0.720833	-0.063461	1.150740
C61	C	0.242447	-0.541861	0.672339
C62	C	0.742447	-0.041861	1.172339
C63	C	0.136680	-0.488971	0.837094
C64	C	0.636680	0.011029	1.337094
C65	C	0.115112	-0.510589	0.901907
C66	C	0.615112	-0.010589	1.401907
C67	C	0.220969	-0.563508	0.901868
C68	C	0.720969	-0.063508	1.401868
C69	C	0.242535	-0.541892	0.837053
C70	C	0.742535	-0.041892	1.337053
C71	C	0.200389	-0.504622	0.804668
C72	C	0.700389	-0.004622	1.304668
C73	C	0.295409	-0.504610	0.709593
C74	C	0.795409	-0.004610	1.209593
C75	C	0.132990	-0.570876	1.004655
C76	C	0.632990	-0.070876	1.504655
C77	C	0.495389	-0.570440	0.642547
C78	C	0.995389	-0.070440	1.142547
C79	C	0.132802	-0.570856	0.643399
C80	C	0.632802	-0.070856	1.143399
C81	C	0.133212	-0.209553	0.643833
C82	C	0.633212	0.290447	1.143833
C83	C	-0.097217	-0.706972	0.506986
C84	C	0.402783	-0.206972	1.006986
C85	C	-0.002040	-0.707108	0.412067
C86	C	0.497960	-0.207108	0.912067
C87	C	-0.002230	-0.802124	0.507163
C88	C	0.497770	-0.302124	1.007163
C89	C	-0.002214	-0.707101	0.507221
C90	C	0.497786	-0.207101	1.007221
C91	C	-0.025925	-0.730827	0.483360
C92	C	0.474075	-0.230827	0.983360
N93	N	0.553723	-0.590712	0.623415
N94	N	1.053723	-0.090712	1.123415
O95	O	0.751638	-0.596429	0.475603
O96	O	1.251638	-0.096429	0.975603
O97	O	0.751819	-0.716773	0.638980
O98	O	1.251819	-0.216773	1.138980
O99	O	0.751753	-0.716500	0.535361
O100	O	1.251753	-0.216500	1.035361
O101	O	0.751705	-0.596703	0.579222
O102	O	1.251705	-0.096703	1.079222
O103	O	0.648791	-0.682239	0.569747
O104	O	1.148791	-0.182239	1.069747
O105	O	0.648858	-0.682512	0.673366
O106	O	1.148858	-0.182512	1.173366
O107	O	0.648676	-0.562169	0.509989
O108	O	1.148676	-0.062169	1.009989
Cu109	Cu	0.639366	-0.619212	0.594817
Cu110	Cu	1.139366	-0.119212	1.094817
Cu111	Cu	0.761130	-0.659729	0.554152
Cu112	Cu	1.261130	-0.159729	1.054152
O113	O	0.648743	-0.562442	0.613609
O114	O	1.148743	-0.062442	1.113609
N115	N	0.846773	-0.688230	0.525548
N116	N	1.346773	-0.188230	1.025548
N117	N	0.114157	-0.151217	0.623565
N118	N	0.614157	0.348783	1.123565
O119	O	-0.033591	0.046803	0.617717
O120	O	0.466409	0.546803	1.117717
O121	O	0.129795	0.046806	0.497390
O122	O	0.629795	0.546806	0.997390
O123	O	0.026157	0.046789	0.497680
O124	O	0.526157	0.546789	0.997680
O125	O	0.070046	0.046819	0.617427
O126	O	0.570046	0.546819	1.117427
O127	O	0.060509	-0.056181	0.532004
O128	O	0.560509	0.443819	1.032004
O129	O	0.164146	-0.056164	0.531714
O130	O	0.664146	0.443836	1.031714
O131	O	0.000760	-0.056167	0.652041
O132	O	0.500760	0.443833	1.152041
Cu133	Cu	0.085590	-0.065568	0.595012
Cu134	Cu	0.585590	0.434432	1.095012
Cu135	Cu	0.044965	0.056206	0.554419
Cu136	Cu	0.544965	0.556206	1.054419
O137	O	0.104397	-0.056151	0.651751
O138	O	0.604397	0.443849	1.151751
N139	N	0.016390	0.141855	0.525867
N140	N	0.516390	0.641855	1.025867
N141	N	0.114410	-0.590756	1.062992
N142	N	0.614410	-0.090756	1.562992
O143	O	0.108565	-0.738494	1.260998
O144	O	0.608565	-0.238494	1.760998
O145	O	-0.011747	-0.575059	1.261012
O146	O	0.488253	-0.075059	1.761012
O147	O	-0.011470	-0.678679	1.260970
O148	O	0.488530	-0.178679	1.760970
O149	O	0.108287	-0.634874	1.261040
O150	O	0.608287	-0.134874	1.761040
O151	O	0.022849	-0.644347	1.158004
O152	O	0.522849	-0.144347	1.658004
O153	O	0.022572	-0.540726	1.158046
O154	O	0.522572	-0.040726	1.658046
O155	O	0.142884	-0.704162	1.158033
O156	O	0.642884	-0.204162	1.658033
Cu157	Cu	0.085861	-0.619309	1.148638
Cu158	Cu	0.585861	-0.119309	1.648638
Cu159	Cu	0.045275	-0.659911	1.270406
Cu160	Cu	0.545275	-0.159911	1.770406
O161	O	0.142606	-0.600541	1.158074
O162	O	0.642606	-0.100541	1.658074
N163	N	0.016726	-0.688471	1.356052
N164	N	0.516726	-0.188471	1.856052
C165	C	0.039385	-0.537207	0.498225
C166	C	0.539385	-0.037207	0.998225
C167	C	0.167616	-0.665350	0.498136
C168	C	0.667616	-0.165350	0.998136
C169	C	0.091204	-0.741950	0.651272
C170	C	0.591204	-0.241950	1.151272
C171	C	-0.037027	-0.613806	0.651361
C172	C	0.462973	-0.113806	1.151361
C173	C	0.700360	-0.716215	0.676756
C174	C	1.200360	-0.216215	1.176756
C175	C	0.700279	-0.715877	0.548436
C176	C	1.200279	-0.215877	1.048436
C177	C	0.700133	-0.562725	0.472214
C178	C	1.200133	-0.062725	0.972214
C179	C	0.700218	-0.563065	0.600533
C180	C	1.200218	-0.063065	1.100533
C181	C	0.167511	-0.004552	0.497940
C182	C	0.667511	0.495448	0.997940
C183	C	0.039211	-0.004699	0.498341
C184	C	0.539211	0.495301	0.998341
C185	C	-0.036999	-0.004682	0.651449
C186	C	0.463001	0.495318	1.151449
C187	C	0.091344	-0.004663	0.651090
C188	C	0.591344	0.495337	1.151090
C189	C	-0.011156	-0.537302	1.209530
C190	C	0.488844	-0.037302	1.709530
C191	C	-0.010806	-0.665617	1.209458
C192	C	0.489194	-0.165617	1.709458
C193	C	0.142293	-0.741918	1.209514
C194	C	0.642293	-0.241918	1.709514
C195	C	0.141950	-0.613596	1.209563
C196	C	0.641950	-0.113596	1.709563
H197	H	0.063231	-0.497836	0.928300
H198	H	0.563231	0.002164	1.428300
H199	H	0.214338	-0.004265	0.460069
H200	H	0.714338	0.495735	0.960069
H201	H	0.700208	-0.525435	0.609919
H202	H	1.200208	-0.025435	1.109919
O203	O	-0.055729	-0.676779	1.209490
O204	O	0.444271	-0.176779	1.709490
C205	C	-0.158836	-0.682499	1.262704
C206	C	0.341164	-0.182499	1.762704
C207	C	-0.108009	-0.669856	1.262751
C208	C	0.391991	-0.169856	1.762751
H209	H	-0.201122	-0.676893	1.305754
H210	H	0.298878	-0.176893	1.805754
H211	H	-0.140725	-0.731699	1.262718
H212	H	0.359275	-0.231699	1.762718
H213	H	-0.172303	-0.648218	1.219574
H214	H	0.327697	-0.148218	1.719574
H215	H	-0.094520	-0.704097	1.305873
H216	H	0.405480	-0.204097	1.805873
H217	H	-0.126149	-0.620639	1.262705
H218	H	0.373851	-0.120639	1.762705
O219	O	0.102411	-0.798033	0.696154
O220	O	0.602411	-0.298033	1.196154
C221	C	0.175878	-0.899948	0.724655
C222	C	0.675878	-0.399948	1.224655
C223	C	0.163265	-0.836466	0.673767
C224	C	0.663265	-0.336466	1.173767
H225	H	0.225082	-0.931034	0.706579
H226	H	0.725082	-0.431034	1.206579
H227	H	0.141611	-0.922298	0.738189
H228	H	0.641611	-0.422298	1.238189
H229	H	0.170289	-0.893490	0.766890
H230	H	0.670289	-0.393490	1.266890
H231	H	0.168862	-0.842870	0.631499
H232	H	0.668862	-0.342870	1.131499
H233	H	0.197530	-0.814138	0.660286
H234	H	0.697530	-0.314138	1.160286
H235	H	0.179573	-0.604224	1.209577
H236	H	0.679573	-0.104224	1.709577
O237	O	0.027921	-0.004754	0.453543
O238	O	0.527921	0.495246	0.953543
C239	C	-0.045649	-0.004774	0.425243
C240	C	0.454351	0.495226	0.925243
C241	C	-0.032944	-0.004714	0.476032
C242	C	0.467056	0.495286	0.976032
H243	H	-0.094861	-0.004728	0.443403
H244	H	0.405139	0.495272	0.943403
H245	H	-0.011407	-0.047887	0.411734
H246	H	0.488593	0.452113	0.911734
H247	H	-0.040093	0.038299	0.382970
H248	H	0.459907	0.538299	0.882970
H249	H	-0.038509	-0.047757	0.518338
H250	H	0.461491	0.452243	1.018338
H251	H	-0.067183	0.038428	0.489488
H252	H	0.432817	0.538428	0.989488
O253	O	-0.093023	-0.004644	0.696438
O254	O	0.406977	0.495356	1.196438
C255	C	-0.195007	-0.004668	0.725235
C256	C	0.304993	0.495332	1.225235
C257	C	-0.131591	-0.004704	0.674228
C258	C	0.368409	0.495296	1.174228
H259	H	-0.226203	-0.004730	0.707301
H260	H	0.273797	0.495270	1.207301
H261	H	-0.217273	0.038444	0.738716
H262	H	0.282727	0.538444	1.238716
H263	H	-0.188476	-0.047741	0.767469
H264	H	0.311524	0.452259	1.267469
H265	H	-0.138069	0.038341	0.631960
H266	H	0.361931	0.538341	1.131960
H267	H	-0.109347	-0.047844	0.660799
H268	H	0.390653	0.452156	1.160799
O269	O	-0.093058	-0.602656	0.696310
O270	O	0.406942	-0.102656	1.196310
C271	C	-0.195018	-0.529305	0.724912
C272	C	0.304982	-0.029305	1.224912
C273	C	-0.131588	-0.541845	0.673957
C274	C	0.368412	-0.041845	1.173957
H275	H	-0.226192	-0.480144	0.706854
H276	H	0.273808	0.019856	1.206854
H277	H	-0.188572	-0.534845	0.767134
H278	H	0.311428	-0.034845	1.267134
H279	H	-0.217264	-0.563665	0.738459
H280	H	0.282736	-0.063665	1.238459
H281	H	-0.109308	-0.507496	0.660357
H282	H	0.390692	-0.007496	1.160357
H283	H	-0.138074	-0.536326	0.631768
H284	H	0.361926	-0.036326	1.131768
O285	O	0.102662	-0.004692	0.695917
O286	O	0.602662	0.495308	1.195917
C287	C	0.176228	-0.004661	0.724213
C288	C	0.676228	0.495339	1.224213
C289	C	0.163495	-0.004637	0.673395
C290	C	0.663495	0.495363	1.173395
H291	H	0.225406	-0.004604	0.706019
H292	H	0.725406	0.495396	1.206019
H293	H	0.170751	-0.047767	0.766467
H294	H	0.670751	0.452233	1.266467
H295	H	0.141930	0.038418	0.737762
H296	H	0.641930	0.538418	1.237762
H297	H	0.197782	-0.047688	0.659793
H298	H	0.697782	0.452312	1.159793
H299	H	0.168951	0.038497	0.631175
H300	H	0.668951	0.538497	1.131175
O301	O	-0.056162	-0.481280	1.209561
O302	O	0.443838	0.018720	1.709561
C303	C	-0.084930	-0.379277	1.209550
C304	C	0.415070	0.120723	1.709550
C305	C	-0.033912	-0.442698	1.209531
C306	C	0.466088	0.057302	1.709531
H307	H	-0.066955	-0.348061	1.209513
H308	H	0.433045	0.151939	1.709513
H309	H	-0.127156	-0.385737	1.252643
H310	H	0.372844	0.114263	1.752643
H311	H	-0.098438	-0.357067	1.166461
H312	H	0.401562	0.142933	1.666461
H313	H	-0.020351	-0.464942	1.252591
H314	H	0.479649	0.035058	1.752591
H315	H	0.008280	-0.436197	1.166410
H316	H	0.508280	0.063803	1.666410
O317	O	0.700529	-0.761306	0.732706
O318	O	1.200529	-0.261306	1.232706
C319	C	0.753933	-0.826714	0.807248
C320	C	1.253933	-0.326714	1.307248
C321	C	0.753826	-0.775658	0.743868
C322	C	1.253826	-0.275658	1.243868
H323	H	0.797013	-0.838324	0.816298
H324	H	1.297013	-0.338324	1.316298
H325	H	0.754000	-0.869885	0.807337
H326	H	1.254000	-0.369885	1.307337
H327	H	0.710836	-0.809697	0.845054
H328	H	1.210836	-0.309697	1.345054
H329	H	0.796916	-0.792617	0.706026
H330	H	1.296916	-0.292617	1.206026
H331	H	0.753727	-0.732498	0.743831
H332	H	1.253727	-0.232498	1.243831
H333	H	0.030065	-0.490230	0.460543
H334	H	0.530065	0.009770	0.960543
O335	O	0.095713	-0.452858	0.805661
O336	O	0.595713	0.047142	1.305661
C337	C	0.011814	-0.444551	0.785886
C338	C	0.511814	0.055449	1.285886
C339	C	0.058179	-0.485516	0.821511
C340	C	0.558179	0.014484	1.321511
H341	H	-0.018554	-0.470934	0.798698
H342	H	0.481446	0.029066	1.298698
H343	H	0.038141	-0.431805	0.733986
H344	H	0.538141	0.068195	1.233986
H345	H	-0.018500	-0.400563	0.798633
H346	H	0.481500	0.099437	1.298633
H347	H	0.088504	-0.529530	0.808816
H348	H	0.588504	-0.029530	1.308816
H349	H	0.031813	-0.498213	0.873402
H350	H	0.531813	0.001787	1.373402
O351	O	0.261994	-0.599716	0.933226
O352	O	0.761994	-0.099716	1.433226
C353	C	0.369268	-0.649875	0.926338
C354	C	0.869268	-0.149875	1.426338
C355	C	0.322873	-0.608876	0.890748
C356	C	0.822873	-0.108876	1.390748
H357	H	0.418499	-0.657283	0.892010
H358	H	0.918499	-0.157283	1.392010
H359	H	0.361874	-0.696527	0.956661
H360	H	0.861874	-0.196527	1.456661
H361	H	0.361774	-0.626128	0.956700
H362	H	0.861774	-0.126128	1.456700
H363	H	0.330339	-0.632568	0.860353
H364	H	0.830339	-0.132568	1.360353
H365	H	0.330279	-0.562226	0.860464
H366	H	0.830279	-0.062226	1.360464
O367	O	0.095773	-0.452690	0.761432
O368	O	0.595773	0.047310	1.261432
C369	C	0.058706	-0.354017	0.772978
C370	C	0.558706	0.145983	1.272978
C371	C	0.105007	-0.395027	0.731996
C372	C	0.605007	0.104973	1.231996
H373	H	0.066147	-0.307384	0.749189
H374	H	0.566147	0.192616	1.249189
H375	H	0.066199	-0.377726	0.819590
H376	H	0.566199	0.122274	1.319590
H377	H	0.009458	-0.346571	0.780479
H378	H	0.509458	0.153429	1.280479
H379	H	0.154273	-0.402487	0.724446
H380	H	0.654273	0.097513	1.224446
H381	H	0.097460	-0.371299	0.685409
H382	H	0.597460	0.128701	1.185409
O383	O	0.700270	-0.760698	0.537149
O384	O	1.200270	-0.260698	1.037149
C385	C	0.700276	-0.789032	0.463584
C386	C	1.200276	-0.289032	0.963584
C387	C	0.700272	-0.738213	0.476288
C388	C	1.200272	-0.238213	0.976288
H389	H	0.700290	-0.770876	0.414375
H390	H	1.200290	-0.270876	0.914375
H391	H	0.657206	-0.802589	0.497836
H392	H	1.157206	-0.302589	0.997836
H393	H	0.743384	-0.831276	0.469128
H394	H	1.243384	-0.331276	0.969128
H395	H	0.657192	-0.695937	0.470736
H396	H	1.157192	-0.195937	0.970736
H397	H	0.743370	-0.724709	0.442038
H398	H	1.243370	-0.224709	0.942038
O399	O	0.700090	-0.517724	0.416198
O400	O	1.200090	-0.017724	0.916198
C401	C	0.699956	-0.488921	0.314239
C402	C	1.199956	0.011079	0.814239
C403	C	0.700021	-0.539945	0.377643
C404	C	1.200021	-0.039945	0.877643
H405	H	0.699887	-0.506864	0.283054
H406	H	1.199887	-0.006864	0.783054
H407	H	0.743031	-0.475390	0.291943
H408	H	1.243031	0.024610	0.791943
H409	H	0.656852	-0.446714	0.320799
H410	H	1.156852	0.053286	0.820799
H411	H	0.743095	-0.582185	0.371137
H412	H	1.243095	-0.082185	0.871137
H413	H	0.656917	-0.553424	0.399918
H414	H	1.156917	-0.053424	0.899918
O415	O	0.187435	-0.797871	1.209483
O416	O	0.687435	-0.297871	1.709483
C417	C	0.291790	-0.861341	1.209542
C418	C	0.791790	-0.361341	1.709542
C419	C	0.240727	-0.797943	1.209562
C420	C	0.740727	-0.297943	1.709562
H421	H	0.334885	-0.861424	1.209618
H422	H	0.834885	-0.361424	1.709618
H423	H	0.303535	-0.870418	1.166429
H424	H	0.803535	-0.370418	1.666429
H425	H	0.274733	-0.899133	1.252611
H426	H	0.774733	-0.399133	1.752611
H427	H	0.257743	-0.760111	1.166522
H428	H	0.757743	-0.260111	1.666522
H429	H	0.228990	-0.788919	1.252703
H430	H	0.728990	-0.288919	1.752703
H431	H	0.294416	-0.554643	0.810656
H432	H	0.794416	-0.054643	1.310656
H433	H	0.255124	-0.593799	0.620395
H434	H	0.755124	-0.093799	1.120395
O435	O	0.053104	-0.495429	0.719019
O436	O	0.553104	0.004571	1.219019
C437	C	-0.043935	-0.500366	0.801214
C438	C	0.456065	-0.000366	1.301214
C439	C	0.026163	-0.517544	0.783935
C440	C	0.526163	-0.017544	1.283935
H441	H	-0.065740	-0.518227	0.853700
H442	H	0.434260	-0.018227	1.353700
H443	H	-0.052180	-0.522224	0.779416
H444	H	0.447820	-0.022224	1.279416
H445	H	-0.065787	-0.447884	0.783313
H446	H	0.434213	0.052116	1.283313
H447	H	0.048061	-0.570017	0.801833
H448	H	0.548061	-0.070017	1.301833
H449	H	0.034364	-0.495642	0.805725
H450	H	0.534364	0.004358	1.305725
H451	H	0.294333	-0.554601	0.659567
H452	H	0.794333	-0.054601	1.159567
O453	O	0.296450	-0.608363	0.748664
O454	O	0.796450	-0.108363	1.248664
C455	C	0.303313	-0.714657	0.786072
C456	C	0.803313	-0.214657	1.286072
C457	C	0.338916	-0.668836	0.752207
C458	C	0.838916	-0.168836	1.252207
H459	H	0.337631	-0.763561	0.788959
H460	H	0.837631	-0.263561	1.288959
H461	H	0.272968	-0.701691	0.759583
H462	H	0.772968	-0.201691	1.259583
H463	H	0.272974	-0.712643	0.834791
H464	H	0.772974	-0.212643	1.334791
H465	H	0.369289	-0.670827	0.703488
H466	H	0.869289	-0.170827	1.203488
H467	H	0.369222	-0.681818	0.778744
H468	H	0.869222	-0.181818	1.278744
H469	H	0.419022	-0.640939	0.704632
H470	H	0.919022	-0.140939	1.204632
H471	H	0.301415	-0.411495	0.671309
H472	H	0.801415	0.088505	1.171309
O473	O	0.423982	-0.444065	0.627241
O474	O	0.923982	0.055935	1.127241
C475	C	0.417125	-0.337780	0.589888
C476	C	0.917125	0.162220	1.089888
C477	C	0.381518	-0.383604	0.623786
C478	C	0.881518	0.116396	1.123786
H479	H	0.382809	-0.288889	0.587095
H480	H	0.882809	0.211111	1.087095
H481	H	0.447432	-0.339715	0.541139
H482	H	0.947432	0.160285	1.041139
H483	H	0.447501	-0.350825	0.616378
H484	H	0.947501	0.149175	1.116378
H485	H	0.351108	-0.370590	0.597348
H486	H	0.851108	0.129410	1.097348
H487	H	0.351250	-0.381662	0.672538
H488	H	0.851250	0.118338	1.172538
O489	O	0.223575	-0.676395	0.453072
O490	O	0.723575	-0.176395	0.953072
C491	C	0.278903	-0.681929	0.349874
C492	C	0.778903	-0.181929	0.849874
C493	C	0.215493	-0.669419	0.400861
C494	C	0.715493	-0.169419	0.900861
H495	H	0.272389	-0.676281	0.307644
H496	H	0.772389	-0.176281	0.807644
H497	H	0.310088	-0.731115	0.367847
H498	H	0.810088	-0.231115	0.867847
H499	H	0.301175	-0.647608	0.336370
H500	H	0.801175	-0.147608	0.836370
H501	H	0.193167	-0.703701	0.414386
H502	H	0.693167	-0.203701	0.914386
H503	H	0.184351	-0.620217	0.382859
H504	H	0.684351	-0.120217	0.882859
H505	H	0.246280	-0.403511	0.611604
H506	H	0.746280	0.096489	1.111604
H507	H	0.207047	-0.285927	0.572438
H508	H	0.707047	0.214073	1.072438
H509	H	0.150353	-0.403547	0.803641
H510	H	0.650353	0.096453	1.303641
O511	O	0.105266	-0.280961	0.771176
O512	O	0.605266	0.219039	1.271176
C513	C	0.055156	-0.287817	0.878439
C514	C	0.555156	0.212183	1.378439
C515	C	0.096135	-0.323427	0.832067
C516	C	0.596135	0.176573	1.332067
H517	H	0.047772	-0.322135	0.927680
H518	H	0.547772	0.177865	1.427680
H519	H	0.008496	-0.257494	0.871041
H520	H	0.508496	0.242506	1.371041
H521	H	0.078901	-0.257451	0.870921
H522	H	0.578901	0.242549	1.370921
H523	H	0.072445	-0.353826	0.839557
H524	H	0.572445	0.146174	1.339557
H525	H	0.142793	-0.353710	0.839477
H526	H	0.642793	0.146290	1.339477
