data_functionalizedCrystal
_audit_creation_method	'MofGen! by Chris Wilmer'
_symmetry_space_group_name_H-M	'P1'
_symmetry_Int_Tables_number	1
_symmetry_cell_setting	triclinic
loop_
_symmetry_equiv_pos_as_xyz
  x,y,z
_cell_length_a	25.639243
_cell_length_b	21.395361
_cell_length_c	21.395355
_cell_angle_alpha	90.021511
_cell_angle_beta	90.027109
_cell_angle_gamma	90.033432
loop_
_atom_site_label
_atom_site_type_symbol
_atom_site_fract_x
_atom_site_fract_y
_atom_site_fract_z
Zn1	Zn	0.799312	-0.249466	0.354291
Zn2	Zn	1.299312	0.250534	0.854291
Zn3	Zn	0.799230	-0.354225	0.249508
Zn4	Zn	1.299230	0.145775	0.749508
Zn5	Zn	0.711871	-0.249471	0.249523
Zn6	Zn	1.211871	0.250529	0.749523
Zn7	Zn	0.711845	-0.354214	0.354244
Zn8	Zn	1.211845	0.145786	0.854244
O9	O	0.755564	-0.301844	0.301892
O10	O	1.255564	0.198156	0.801892
O11	O	0.872466	-0.263365	0.340405
O12	O	1.372466	0.236635	0.840405
O13	O	0.787619	-0.340336	0.161832
O14	O	1.287619	0.159664	0.661832
O15	O	0.723515	-0.161792	0.263447
O16	O	1.223515	0.338208	0.763447
O17	O	0.872406	-0.340331	0.263421
O18	O	1.372406	0.159669	0.763421
O19	O	0.787757	-0.161788	0.340420
O20	O	1.287757	0.338212	0.840420
O21	O	0.723436	-0.263373	0.161843
O22	O	1.223436	0.236627	0.661843
O23	O	0.638702	-0.263363	0.263401
O24	O	1.138702	0.236637	0.763401
O25	O	0.723471	-0.340312	0.441928
O26	O	1.223471	0.159688	0.941928
O27	O	0.638683	-0.340317	0.340339
O28	O	1.138683	0.159683	0.840339
O29	O	0.787732	-0.263354	0.441963
O30	O	1.287732	0.236646	0.941963
O31	O	0.787594	-0.441902	0.263375
O32	O	1.287594	0.058098	0.763375
O33	O	0.723392	-0.441894	0.340324
O34	O	1.223392	0.058106	0.840324
C35	C	0.755495	-0.464632	0.301857
C36	C	1.255495	0.035368	0.801857
C37	C	0.755514	-0.534273	0.301863
C38	C	1.255514	-0.034273	0.801863
C39	C	0.619722	-0.301840	0.301867
C40	C	1.119722	0.198160	0.801867
C41	C	0.561608	-0.301853	0.301871
C42	C	1.061608	0.198147	0.801871
C43	C	0.788973	-0.566969	0.261837
C44	C	1.288973	-0.066969	0.761837
C45	C	0.788997	-0.632405	0.261851
C46	C	1.288997	-0.132405	0.761851
C47	C	0.755553	-0.665141	0.301884
C48	C	1.255553	-0.165141	0.801884
C49	C	0.722091	-0.632437	0.341918
C50	C	1.222091	-0.132437	0.841918
C51	C	0.722072	-0.567003	0.341907
C52	C	1.222072	-0.067003	0.841907
C53	C	0.708476	-0.768859	0.306792
C54	C	1.208476	-0.268859	0.806792
C55	C	0.708495	-0.834292	0.306798
C56	C	1.208495	-0.334292	0.806798
C57	C	0.755614	-0.866962	0.301921
C58	C	1.255614	-0.366962	0.801921
C59	C	0.802716	-0.834191	0.297024
C60	C	1.302716	-0.334191	0.797024
C61	C	0.802696	-0.768757	0.297014
C62	C	1.302696	-0.268757	0.797014
C63	C	0.755571	-0.736094	0.301901
C64	C	1.255571	-0.236094	0.801901
C65	C	0.789102	-0.970611	0.261908
C66	C	1.289102	-0.470611	0.761908
C67	C	0.789128	-1.036048	0.261926
C68	C	1.289128	-0.536048	0.761926
C69	C	0.722217	-1.036078	0.341991
C70	C	1.222217	-0.536078	0.841991
C71	C	0.722196	-0.970643	0.341975
C72	C	1.222196	-0.470643	0.841975
C73	C	0.755638	-0.937913	0.301931
C74	C	1.255638	-0.437913	0.801931
C75	C	0.201270	-0.261830	0.342044
C76	C	0.701270	0.238170	0.842044
C77	C	0.146666	-0.261830	0.342048
C78	C	0.646666	0.238170	0.842048
O79	O	0.118451	-0.227790	0.376173
O80	O	0.618451	0.272210	0.876173
N81	N	0.119325	-0.301842	0.301909
N82	N	0.619325	0.198158	0.801909
C83	C	0.146592	-0.341853	0.261759
C84	C	0.646592	0.158147	0.761759
O85	O	0.118323	-0.375886	0.227618
O86	O	0.618323	0.124114	0.727618
C87	C	0.201195	-0.341850	0.261752
C88	C	0.701195	0.158150	0.761752
C89	C	0.228533	-0.301840	0.301898
C90	C	0.728533	0.198160	0.801898
C91	C	0.228608	-0.221823	0.382186
C92	C	0.728608	0.278177	0.882186
C93	C	0.283209	-0.221824	0.382183
C94	C	0.783209	0.278176	0.882183
C95	C	0.310471	-0.261833	0.342037
C96	C	0.810471	0.238167	0.842037
C97	C	0.283134	-0.301841	0.301895
C98	C	0.783134	0.198159	0.801895
C99	C	0.228461	-0.381857	0.221600
C100	C	0.728461	0.118143	0.721600
C101	C	0.283068	-0.381850	0.221596
C102	C	0.783068	0.118150	0.721596
C103	C	0.310406	-0.341840	0.261742
C104	C	0.810406	0.158160	0.761742
C105	C	0.364997	-0.341852	0.261746
C106	C	0.864997	0.158148	0.761746
N107	N	0.392337	-0.301839	0.301885
N108	N	0.892337	0.198161	0.801885
C109	C	0.365075	-0.261830	0.342031
C110	C	0.865075	0.238170	0.842031
C111	C	0.031921	-0.341856	0.261775
C112	C	0.531921	0.158144	0.761775
C113	C	-0.022681	-0.341862	0.261784
C114	C	0.477319	0.158138	0.761784
C115	C	-0.022603	-0.261838	0.342072
C116	C	0.477397	0.238162	0.842072
C117	C	0.032000	-0.261835	0.342066
C118	C	0.532000	0.238165	0.842066
C119	C	0.059262	-0.301843	0.301914
C120	C	0.559262	0.198157	0.801914
C121	C	0.479740	-0.261837	0.342021
C122	C	0.979740	0.238163	0.842021
C123	C	0.534345	-0.261844	0.342016
C124	C	1.034345	0.238156	0.842016
C125	C	0.534263	-0.341865	0.261726
C126	C	1.034263	0.158135	0.761726
C127	C	0.479662	-0.341861	0.261733
C128	C	0.979662	0.158139	0.761733
C129	C	0.452402	-0.301842	0.301883
C130	C	0.952402	0.198158	0.801883
O131	O	0.393246	-0.375873	0.227637
O132	O	0.893246	0.124127	0.727637
O133	O	0.393351	-0.227797	0.376160
O134	O	0.893351	0.272203	0.876160
C135	C	0.891937	-0.301849	0.301917
C136	C	1.391937	0.198151	0.801917
C137	C	0.950051	-0.301851	0.301928
C138	C	1.450051	0.198149	0.801928
C139	C	0.755608	-0.301831	0.465315
C140	C	1.255608	0.198169	0.965315
C141	C	0.755626	-0.301826	0.534956
C142	C	1.255626	0.198174	1.034956
C143	C	0.755648	-0.138421	0.301940
C144	C	1.255648	0.361579	0.801940
C145	C	0.755684	-0.068779	0.301961
C146	C	1.255684	0.431221	0.801961
C147	C	0.755551	-0.301811	0.139104
C148	C	1.255551	0.198189	0.639104
C149	C	0.755634	-0.301640	0.069463
C150	C	1.255634	0.198360	0.569463
C151	C	0.789086	-0.261752	0.567688
C152	C	1.289086	0.238248	1.067688
C153	C	0.789085	-0.261725	0.633124
C154	C	1.289085	0.238275	1.133124
C155	C	0.755630	-0.301783	0.665825
C156	C	1.255630	0.198217	1.165825
C157	C	0.722165	-0.341860	0.633084
C158	C	1.222165	0.158140	1.133084
C159	C	0.722163	-0.341881	0.567650
C160	C	1.222163	0.158119	1.067650
C161	C	0.751478	-0.358199	0.769487
C162	C	1.251478	0.141801	1.269487
C163	C	0.751484	-0.358178	0.834920
C164	C	1.251484	0.141822	1.334920
C165	C	0.755634	-0.301717	0.867645
C166	C	1.255634	0.198283	1.367645
C167	C	0.759789	-0.245274	0.834930
C168	C	1.259789	0.254726	1.334930
C169	C	0.759787	-0.245295	0.769496
C170	C	1.259787	0.254705	1.269496
C171	C	0.755629	-0.301764	0.736777
C172	C	1.255629	0.198236	1.236777
C173	C	0.789094	-0.261610	0.971330
C174	C	1.289094	0.238390	1.471330
C175	C	0.789090	-0.261582	1.036767
C176	C	1.289090	0.238418	1.536767
C177	C	0.722172	-0.341723	1.036726
C178	C	1.222172	0.158277	1.536726
C179	C	0.722174	-0.341745	0.971291
C180	C	1.222174	0.158255	1.471291
C181	C	0.755637	-0.301690	0.938597
C182	C	1.255637	0.198310	1.438597
H183	H	0.816205	-0.540323	0.229231
H184	H	1.316205	-0.040323	0.729231
Cl185	Cl	0.765006	-0.174342	0.728370
Cl186	Cl	1.265006	0.325658	1.228370
H187	H	-0.044810	-0.229259	0.374759
H188	H	0.455190	0.270741	0.874759
Cl189	Cl	-0.057042	-0.392169	0.211319
Cl190	Cl	0.442958	0.107831	0.711319
H191	H	0.694930	-0.374382	0.944640
H192	H	1.194930	0.125618	1.444640
H193	H	0.816377	-1.062668	0.229333
H194	H	1.316377	-0.562668	0.729333
H195	H	0.206417	-0.189239	0.414877
H196	H	0.706417	0.310761	0.914877
Cl197	Cl	0.649283	-0.875483	0.312952
Cl198	Cl	1.149283	-0.375483	0.812952
Cl199	Cl	0.194107	-0.432147	0.171115
Cl200	Cl	0.694107	0.067853	0.671115
Cl201	Cl	0.765008	-0.174289	0.876063
Cl202	Cl	1.265008	0.325711	1.376063
H203	H	0.841084	-0.860789	0.293053
H204	H	1.341084	-0.360789	0.793053
Cl205	Cl	0.649235	-0.727795	0.312923
Cl206	Cl	1.149235	-0.227795	0.812923
H207	H	0.841047	-0.742076	0.293029
H208	H	1.341047	-0.242076	0.793029
H209	H	0.816335	-0.943961	0.229303
H210	H	1.316335	-0.443961	0.729303
Cl211	Cl	0.066188	-0.392161	0.211297
Cl212	Cl	0.566188	0.107839	0.711297
Cl213	Cl	0.317336	-0.432151	0.171118
Cl214	Cl	0.817336	0.067849	0.671118
H215	H	0.694913	-0.374513	0.541000
H216	H	1.194913	0.125487	1.041000
H217	H	0.816334	-0.229135	0.541073
H218	H	1.316334	0.270865	1.041073
H219	H	0.556470	-0.374441	0.229042
H220	H	1.056470	0.125559	0.729042
H221	H	0.816246	-0.659032	0.229257
H222	H	1.316246	-0.159032	0.729257
Cl223	Cl	0.746265	-0.429135	0.876041
Cl224	Cl	1.246265	0.070865	1.376041
H225	H	0.694825	-0.540380	0.374502
H226	H	1.194825	-0.040380	0.874502
Cl227	Cl	0.445293	-0.392178	0.211282
Cl228	Cl	0.945293	0.107822	0.711282
Cl229	Cl	0.831165	-0.211209	1.077917
Cl230	Cl	1.331165	0.288791	1.577917
H231	H	0.457551	-0.229248	0.374713
H232	H	0.957551	0.270752	0.874713
H233	H	0.816331	-0.229089	0.659780
H234	H	1.316331	0.270911	1.159780
H235	H	0.054255	-0.229254	0.374755
H236	H	0.554255	0.270746	0.874755
H237	H	0.747959	-0.404165	0.742847
H238	H	1.247959	0.095835	1.242847
Cl239	Cl	0.680176	-1.077226	0.392324
Cl240	Cl	1.180176	-0.577226	0.892324
Cl241	Cl	0.568709	-0.211543	0.392491
Cl242	Cl	1.068709	0.288457	0.892491
H243	H	0.305462	-0.189243	0.414873
H244	H	0.805462	0.310757	0.914873
Cl245	Cl	0.680105	-0.392216	0.674193
Cl246	Cl	1.180105	0.107784	1.174193
Cl247	Cl	0.680128	-0.929536	0.392294
Cl248	Cl	1.180128	-0.429536	0.892294
H249	H	0.694862	-0.659095	0.374515
H250	H	1.194862	-0.159095	0.874515
Cl251	Cl	0.831159	-0.211253	0.930226
Cl252	Cl	1.331159	0.288747	1.430226
Cl253	Cl	0.680109	-0.392077	1.077829
Cl254	Cl	1.180109	0.107923	1.577829
