data_functionalizedCrystal
_audit_creation_method	'MofGen! by Chris Wilmer'
_symmetry_space_group_name_H-M	'P1'
_symmetry_Int_Tables_number	1
_symmetry_cell_setting	triclinic
loop_
_symmetry_equiv_pos_as_xyz
  x,y,z
_cell_length_a	20.875621
_cell_length_b	14.560438
_cell_length_c	14.560438
_cell_angle_alpha	60.000905
_cell_angle_beta	87.029428
_cell_angle_gamma	58.315038
loop_
_atom_site_label
_atom_site_type_symbol
_atom_site_fract_x
_atom_site_fract_y
_atom_site_fract_z
Zr1	Zr	0.617935	1.005281	-0.166437
O2	O	0.515511	1.196883	-0.305469
O3	O	0.649334	0.813680	-0.123818
O4	O	0.649330	1.005284	-0.315419
O5	O	0.515517	1.005277	0.037272
O6	O	0.754890	1.005284	-0.323265
O7	O	0.515514	1.005280	-0.113868
O8	O	0.754895	0.662540	0.019473
O9	O	0.515511	1.348021	-0.305466
O10	O	0.741502	0.892488	-0.111495
O11	O	0.662727	0.892486	0.007155
O12	O	0.662723	1.118075	-0.218430
O13	O	0.583948	1.118072	-0.099780
Zr14	Zr	0.786294	1.005278	0.062102
Zr15	Zr	0.786290	1.005282	-0.178950
Zr16	Zr	0.617940	1.005277	0.074615
Zr17	Zr	0.617936	1.246329	-0.166432
Zr18	Zr	0.786294	0.764230	0.062097
O19	O	0.754896	1.196879	0.019483
O20	O	0.754890	1.196885	-0.323261
O21	O	0.515517	1.196878	0.037276
O22	O	0.888718	0.813676	0.201134
O23	O	0.888712	0.813681	-0.141611
O24	O	0.649340	0.813674	0.218926
O25	O	0.888713	1.005282	-0.141607
O26	O	0.754899	1.005275	0.211084
O27	O	0.649340	1.005275	0.218930
O28	O	0.888715	1.005279	0.009533
O29	O	0.649331	1.348022	-0.315413
O30	O	0.754899	0.662537	0.211077
O31	O	0.888718	0.662538	0.201131
O32	O	0.888715	0.662541	0.009527
O33	O	0.515515	1.348018	-0.113862
O34	O	0.649334	1.348019	-0.123808
O35	O	0.741506	0.892484	0.114094
O36	O	0.820282	0.892487	-0.004555
O37	O	0.741503	1.118073	-0.111490
O38	O	0.662727	1.118071	0.007159
C39	C	0.702114	0.703766	-0.052173
C40	C	0.702114	0.601435	-0.052175
C41	C	0.491529	1.005278	-0.036515
C42	C	0.420058	1.005278	-0.031203
C43	C	0.743233	0.553360	-0.114109
C44	C	0.743236	0.457201	-0.114099
C45	C	0.660996	0.457203	0.009781
C46	C	0.660998	0.553354	0.009777
C47	C	0.386479	1.005282	-0.111974
C48	C	0.319326	1.005275	-0.106977
C49	C	0.285751	1.005273	-0.021213
C50	C	0.319336	1.005264	0.059566
C51	C	0.386491	1.005262	0.054573
C52	C	0.084911	1.005270	0.002654
C53	C	0.017751	1.005277	0.007639
C54	C	0.017747	1.005286	-0.158904
C55	C	0.084899	1.005291	-0.163893
C56	C	0.118481	1.005276	-0.083111
N57	N	0.217109	1.005270	-0.016105
N58	N	0.187125	1.005269	-0.088215
C59	C	0.912701	1.005281	-0.067820
C60	C	0.984172	1.005281	-0.073132
C61	C	0.702109	1.005285	-0.353687
C62	C	0.702108	1.005286	-0.456019
C63	C	0.702115	1.306793	-0.052162
C64	C	0.702115	1.409124	-0.052160
C65	C	0.660986	1.123038	-0.559915
C66	C	0.660996	1.123032	-0.656064
C67	C	0.743248	0.887512	-0.544410
C68	C	0.743243	0.887519	-0.448263
C69	C	0.702120	1.005274	0.249351
C70	C	0.702122	1.005273	0.351684
C71	C	0.912700	0.703767	-0.067826
C72	C	0.984171	0.601437	-0.073140
C73	C	0.702120	0.703761	0.249346
C74	C	0.702121	0.601428	0.351677
C75	C	0.912706	0.703762	0.233694
C76	C	0.984179	0.601430	0.330712
C77	C	0.491524	1.306797	-0.338029
C78	C	0.420051	1.409129	-0.435047
C79	C	0.491529	1.306792	-0.036510
C80	C	0.420058	1.409122	-0.031195
C81	C	0.702110	1.306798	-0.353681
C82	C	0.702108	1.409131	-0.456012
C83	C	0.976613	0.553382	-0.131467
C84	C	1.043761	0.457245	-0.136482
C85	C	1.118467	0.409158	-0.083163
C86	C	1.126024	0.457222	-0.024834
C87	C	1.058877	0.553364	-0.019826
C88	C	1.058870	0.553375	0.314339
C89	C	1.126033	0.457236	0.405488
C90	C	1.118502	0.409148	0.513010
C91	C	1.043803	0.457212	0.529382
C92	C	0.976642	0.553356	0.438234
C93	C	0.345360	1.457196	-0.418674
C94	C	0.278197	1.553364	-0.509823
C95	C	0.285728	1.601458	-0.617346
C96	C	0.360427	1.553387	-0.633718
C97	C	0.427588	1.457227	-0.542569
C98	C	0.427617	1.457187	0.027121
C99	C	0.360469	1.553351	0.032110
C100	C	0.285763	1.601441	-0.021212
C101	C	0.278206	1.553373	-0.079536
C102	C	0.345353	1.457217	-0.084531
C103	C	0.743244	0.553349	0.455573
C104	C	0.743236	0.457206	0.551721
C105	C	0.660983	0.457224	0.440062
C106	C	0.660987	0.553373	0.343917
H107	H	0.776714	0.592503	-0.164552
C108	C	0.788486	0.606216	0.464114
N109	N	0.822562	0.646036	0.470552
H110	H	1.065016	0.592514	0.226796
C111	C	0.337025	1.404342	-0.148672
N112	N	0.330747	1.364518	-0.196985
H113	H	-0.009583	1.005275	0.077483
H114	H	0.627513	0.592496	0.060216
H115	H	0.776738	0.791630	-0.538108
H116	H	0.217371	1.592543	-0.122949
C117	C	0.196035	1.606222	-0.491790
N118	N	0.134153	1.646032	-0.478203
C119	C	0.788459	0.404337	-0.182245
N120	N	0.822521	0.364525	-0.233580
H121	H	0.231094	1.679737	-0.017137
H122	H	0.231034	1.679757	-0.691555
H123	H	0.627494	0.418084	0.433757
C124	C	0.615744	1.252585	-0.568452
N125	N	0.581669	1.350163	-0.574888
H126	H	1.037683	0.418044	0.616939
H127	H	0.627519	0.418046	0.060219
C128	C	0.615748	0.606261	0.229620
N129	N	0.581674	0.646098	0.143534
C130	C	0.368697	1.606292	-0.752002
N131	N	0.374924	1.646135	-0.841097
H132	H	0.488440	1.418039	0.070551
H133	H	0.413808	1.005293	-0.181816
H134	H	0.366637	1.592472	0.079608
H135	H	0.291987	1.005278	-0.172747
H136	H	1.186850	0.418112	0.392138
H137	H	0.112235	1.005293	-0.233730
H138	H	0.776721	0.418066	0.636315
H139	H	1.173136	0.330872	-0.087248
C140	C	0.788481	0.757977	-0.333967
N141	N	0.822554	0.660409	-0.247882
C142	C	1.035430	0.404380	-0.200638
N143	N	1.029153	0.364562	-0.248956
C144	C	-0.019193	1.005287	-0.247751
N145	N	-0.047014	1.005281	-0.314671
C146	C	0.121862	1.005198	0.091543
N147	N	0.149702	1.005123	0.158509
H148	H	1.173195	0.330861	0.587220
H149	H	0.627512	1.218917	-0.740657
H150	H	0.915789	0.592533	-0.174900
H151	H	1.186858	0.418055	0.018575
H152	H	0.291998	1.005254	0.129402
C153	C	1.067205	0.606201	0.044354
N154	N	1.073483	0.645992	0.092699
C155	C	0.423427	1.005257	0.143427
N156	N	0.451248	1.005250	0.210357
H157	H	0.915827	0.592470	0.451581
H158	H	0.339213	1.418043	-0.331131
H159	H	0.488403	1.418092	-0.555914
