data_functionalizedCrystal
_audit_creation_method	'MofGen! by Chris Wilmer'
_symmetry_space_group_name_H-M	'P1'
_symmetry_Int_Tables_number	1
_symmetry_cell_setting	triclinic
loop_
_symmetry_equiv_pos_as_xyz
  x,y,z
_cell_length_a	14.971486
_cell_length_b	27.732048
_cell_length_c	13.448316
_cell_angle_alpha	89.988441
_cell_angle_beta	89.998199
_cell_angle_gamma	83.128392
loop_
_atom_site_label
_atom_site_type_symbol
_atom_site_fract_x
_atom_site_fract_y
_atom_site_fract_z
O1	O	1.185952	0.062991	-0.082589
O2	O	1.685952	0.562991	0.417411
O3	O	0.925433	0.070534	-0.082617
O4	O	1.425433	0.570534	0.417383
O5	O	1.063784	-0.003597	-0.082583
O6	O	1.563784	0.496403	0.417417
O7	O	1.047601	0.137122	-0.082623
O8	O	1.547601	0.637122	0.417377
O9	O	1.063766	-0.003601	0.082801
O10	O	1.563766	0.496399	0.582801
O11	O	0.925416	0.070530	0.082767
O12	O	1.425416	0.570530	0.582767
O13	O	1.185935	0.062986	0.082795
O14	O	1.685935	0.562986	0.582795
Cu15	Cu	1.055674	0.066758	0.097882
Cu16	Cu	1.555674	0.566758	0.597882
Cu17	Cu	1.055694	0.066763	-0.097704
Cu18	Cu	1.555694	0.566763	0.402296
O19	O	1.047584	0.137117	0.082761
O20	O	1.547584	0.637117	0.582761
C21	C	0.892105	0.070195	0.000071
C22	C	1.392105	0.570195	0.500071
C23	C	0.792824	0.069184	0.000061
C24	C	1.292824	0.569184	0.500061
C25	C	0.734910	0.112734	0.000051
C26	C	1.234910	0.612734	0.500051
C27	C	0.641626	0.111781	0.000066
C28	C	1.141626	0.611781	0.500066
C29	C	0.606257	0.067278	0.000084
C30	C	1.106257	0.567278	0.500084
C31	C	0.664177	0.023724	0.000098
C32	C	1.164177	0.523724	0.500098
C33	C	0.757460	0.024678	0.000090
C34	C	1.257460	0.524678	0.500090
C35	C	0.469746	0.021740	0.000113
C36	C	0.969746	0.521740	0.500113
C37	C	0.376457	0.020787	0.000119
C38	C	0.876457	0.520787	0.500119
C39	C	0.353912	0.108844	0.000088
C40	C	0.853912	0.608844	0.500088
C41	C	0.447195	0.109797	0.000080
C42	C	0.947195	0.609797	0.500080
C43	C	0.505109	0.066243	0.000092
C44	C	1.005109	0.566243	0.500092
C45	C	1.063435	-0.021608	0.000111
C46	C	1.563435	0.478392	0.500111
C47	C	1.062412	-0.075267	0.000120
C48	C	1.562412	0.424733	0.500120
C49	C	1.137729	-0.413735	0.000077
C50	C	1.637729	0.086265	0.500077
C51	C	1.133934	-0.615412	0.000062
C52	C	1.633934	-0.115412	0.500062
O53	O	1.202806	-0.646350	0.000026
O54	O	1.702806	-0.146350	0.500026
N55	N	1.051898	-0.634914	0.000054
N56	N	1.551898	-0.134914	0.500054
C57	C	0.970804	-0.603994	0.000043
C58	C	1.470804	-0.103994	0.500043
O59	O	0.900940	-0.625209	0.000026
O60	O	1.400940	-0.125209	0.500026
C61	C	0.974601	-0.402318	0.000051
C62	C	1.474601	0.097682	0.500051
C63	C	1.056642	-0.382818	0.000069
C64	C	1.556642	0.117182	0.500069
C65	C	1.219764	-0.394235	0.000094
C66	C	1.719764	0.105765	0.500094
C67	C	1.220712	-0.343819	0.000103
C68	C	1.720712	0.156181	0.500103
C69	C	1.139625	-0.312902	0.000095
C70	C	1.639625	0.187098	0.500095
C71	C	1.057590	-0.332402	0.000078
C72	C	1.557590	0.167598	0.500078
C73	C	0.893508	-0.371398	0.000033
C74	C	1.393508	0.128602	0.500033
C75	C	0.894464	-0.320976	0.000032
C76	C	1.394464	0.179024	0.500032
C77	C	0.976506	-0.301477	0.000050
C78	C	1.476506	0.198523	0.500050
C79	C	0.977451	-0.251069	0.000079
C80	C	1.477451	0.248931	0.500079
N81	N	1.059487	-0.231567	0.000087
N82	N	1.559487	0.268433	0.500087
C83	C	1.140574	-0.262483	0.000095
C84	C	1.640574	0.237517	0.500095
C85	C	0.968817	-0.709877	0.000042
C86	C	1.468817	-0.209877	0.500042
C87	C	0.967868	-0.760296	0.000042
C88	C	1.467868	-0.260296	0.500042
C89	C	1.130998	-0.771710	0.000059
C90	C	1.630998	-0.271710	0.500059
C91	C	1.131946	-0.721291	0.000066
C92	C	1.631946	-0.221291	0.500066
C93	C	1.050854	-0.690375	0.000050
C94	C	1.550854	-0.190375	0.500050
C95	C	1.142559	-0.156605	0.000114
C96	C	1.642559	0.343395	0.500114
C97	C	1.143500	-0.106184	0.000128
C98	C	1.643500	0.393816	0.500128
C99	C	0.980370	-0.094773	0.000105
C100	C	1.480370	0.405227	0.500105
C101	C	0.979429	-0.145190	0.000097
C102	C	1.479429	0.354810	0.500097
C103	C	1.060530	-0.176105	0.000099
C104	C	1.560530	0.323895	0.500099
O105	O	0.908616	-0.220103	0.000104
O106	O	1.408616	0.279897	0.500104
O107	O	1.210428	-0.241258	0.000090
O108	O	1.710428	0.258742	0.500090
C109	C	1.136781	-0.464151	0.000068
C110	C	1.636781	0.035849	0.500068
C111	C	1.054746	-0.483651	0.000051
C112	C	1.554746	0.016349	0.500051
C113	C	0.973659	-0.452734	0.000043
C114	C	1.473659	0.047266	0.500043
C115	C	1.053797	-0.534070	0.000051
C116	C	1.553797	-0.034070	0.500051
C117	C	1.134884	-0.564986	0.000059
C118	C	1.634884	-0.064986	0.500059
C119	C	1.216921	-0.545484	0.000067
C120	C	1.716921	-0.045484	0.500067
C121	C	1.217868	-0.495067	0.000076
C122	C	1.717868	0.004933	0.500076
C123	C	0.891623	-0.472237	0.000035
C124	C	1.391623	0.027763	0.500035
C125	C	0.890682	-0.522654	0.000027
C126	C	1.390682	-0.022654	0.500027
C127	C	0.971769	-0.553570	0.000035
C128	C	1.471769	-0.053570	0.500035
C129	C	1.219263	0.063326	0.000104
C130	C	1.719263	0.563326	0.500104
C131	C	1.318544	0.064337	0.000108
C132	C	1.818544	0.564337	0.500108
C133	C	1.047932	0.155128	0.000064
C134	C	1.547932	0.655128	0.500064
C135	C	1.048955	0.208788	0.000050
C136	C	1.548955	0.708788	0.500050
N137	N	1.055666	0.066753	0.235446
N138	N	1.555666	0.566753	0.735446
N139	N	1.055709	0.066763	-0.235268
N140	N	1.555709	0.566763	0.264732
C141	C	1.116946	0.033942	0.287501
C142	C	1.616946	0.533942	0.787501
C143	C	1.116952	0.033941	0.391605
C144	C	1.616952	0.533941	0.891605
C145	C	1.055681	0.066755	0.443651
C146	C	1.555681	0.566755	0.943651
C147	C	0.994394	0.099569	0.391588
C148	C	1.494394	0.599569	0.891588
C149	C	0.994385	0.099566	0.287487
C150	C	1.494385	0.599566	0.787487
C151	C	0.994418	0.099572	0.608568
C152	C	1.494418	0.599572	1.108568
C153	C	0.994428	0.099575	0.712676
C154	C	1.494428	0.599575	1.212676
C155	C	1.116986	0.033947	0.712686
C156	C	1.616986	0.533947	1.212686
C157	C	1.116977	0.033945	0.608585
C158	C	1.616977	0.533945	1.108585
C159	C	1.055691	0.066759	0.556529
C160	C	1.555691	0.566759	1.056529
H161	H	0.347663	-0.015451	0.000135
H162	H	0.847663	0.484549	0.500135
N163	N	0.485334	0.157799	0.000059
N164	N	0.985334	0.657799	0.500059
H165	H	0.523538	0.160156	0.061362
H166	H	1.023538	0.660156	0.561362
H167	H	0.523487	0.160130	-0.061294
H168	H	1.023487	0.660130	0.438706
N169	N	0.532214	-0.025234	0.000132
N170	N	1.032214	0.474766	0.500132
H171	H	0.495655	-0.053572	0.000142
H172	H	0.995655	0.446428	0.500142
H173	H	0.571406	-0.026754	-0.061180
H174	H	1.071406	0.473246	0.438820
N175	N	0.626023	-0.024273	0.000118
N176	N	1.126023	0.475727	0.500118
H177	H	0.647184	-0.043355	-0.061184
H178	H	1.147184	0.456645	0.438816
H179	H	0.647194	-0.043319	0.061472
H180	H	1.147194	0.456681	0.561472
N181	N	0.773055	0.160734	0.000019
N182	N	1.273055	0.660734	0.500019
H183	H	0.722208	0.188178	0.000015
H184	H	1.222208	0.688178	0.500015
H185	H	0.811272	0.163048	0.061323
H186	H	1.311272	0.663048	0.561323
H187	H	0.804613	-0.010785	0.000099
H188	H	1.304613	0.489215	0.500099
N189	N	0.879381	-0.781325	0.000049
N190	N	1.379381	-0.281325	0.500049
H191	H	0.828161	-0.754084	0.000044
H192	H	1.328161	-0.254084	0.500044
H193	H	0.875432	-0.801990	-0.061259
H194	H	1.375432	-0.301990	0.438741
H195	H	0.902778	-0.684709	0.000029
H196	H	1.402778	-0.184709	0.500029
H197	H	0.944483	0.126284	0.245104
H198	H	1.444483	0.626284	0.745104
H199	H	0.944510	0.126291	0.566188
H200	H	1.444510	0.626291	1.066188
N201	N	1.231990	-0.085152	0.000153
N202	N	1.731990	0.414848	0.500153
H203	H	1.283212	-0.112391	0.000154
H204	H	1.783212	0.387609	0.500154
H205	H	1.235947	-0.064474	-0.061152
H206	H	1.735947	0.435526	0.438848
H207	H	1.287519	-0.327947	0.000113
H208	H	1.787519	0.172053	0.500113
N209	N	0.291454	0.155821	0.000071
N210	N	0.791454	0.655821	0.500071
H211	H	0.226992	0.148466	0.000084
H212	H	0.726992	0.648466	0.500084
H213	H	0.302840	0.175214	0.061370
H214	H	0.802840	0.675214	0.561370
N215	N	0.805020	-0.392421	0.000026
N216	N	1.305020	0.107579	0.500026
H217	H	0.753804	-0.365179	0.000019
H218	H	1.253804	0.134821	0.500019
H219	H	0.801070	-0.413085	-0.061284
H220	H	1.301070	0.086915	0.438716
H221	H	0.823869	-0.538525	0.000021
H222	H	1.323869	-0.038525	0.500021
N223	N	0.806998	-0.287631	0.000009
N224	N	1.306998	0.212369	0.500009
H225	H	0.754888	-0.307638	-0.000003
H226	H	1.254888	0.192362	0.499997
H227	H	0.803825	-0.266471	0.061321
H228	H	1.303825	0.233529	0.561321
N229	N	1.304376	-0.578838	0.000082
N230	N	1.804376	-0.078838	0.500082
H231	H	1.307617	-0.600003	-0.061229
H232	H	1.807617	-0.100003	0.438771
H233	H	1.356449	-0.558806	0.000129
H234	H	1.856449	-0.058806	0.500129
H235	H	1.166844	0.007223	0.245133
H236	H	1.666844	0.507223	0.745133
H237	H	1.208600	-0.181771	0.000112
H238	H	1.708600	0.318229	0.500112
N239	N	1.307230	-0.427576	0.000103
N240	N	1.807230	0.072424	0.500103
H241	H	1.359334	-0.407565	0.000115
H242	H	1.859334	0.092435	0.500115
H243	H	1.310385	-0.448747	0.061417
H244	H	1.810385	0.051253	0.561417
N245	N	1.220432	-0.700261	0.000078
N246	N	1.720432	-0.200261	0.500078
H247	H	1.224458	-0.679603	0.061388
H248	H	1.724458	-0.179603	0.561388
H249	H	1.271599	-0.727528	0.000050
H250	H	1.771599	-0.227528	0.500050
N251	N	0.928353	0.134971	0.768816
N252	N	1.428353	0.634971	1.268816
H253	H	0.889526	0.155757	0.720044
H254	H	1.389526	0.655757	1.220044
H255	H	0.889079	0.116432	0.812032
H256	H	1.389079	0.616432	1.312032
H257	H	1.166887	0.007229	0.755076
H258	H	1.666887	0.507229	1.255076
N259	N	0.890944	-0.166226	0.000092
N260	N	1.390944	0.333774	0.500092
H261	H	0.839721	-0.138987	0.000091
H262	H	1.339721	0.361013	0.500091
H263	H	0.887005	-0.186885	-0.061227
H264	H	1.387005	0.313115	0.438773
H265	H	1.166872	0.007227	0.566209
H266	H	1.666872	0.507227	1.066209
H267	H	1.197022	-0.796891	0.000066
H268	H	1.697022	-0.296891	0.500066
N269	N	0.892915	-0.061423	0.000124
N270	N	1.392915	0.438577	0.500124
H271	H	0.905972	-0.026525	0.000135
H272	H	1.405972	0.473475	0.500135
H273	H	0.857127	-0.067729	-0.061187
H274	H	1.357127	0.432271	0.438813
H275	H	1.284675	-0.479196	0.000090
H276	H	1.784675	0.020804	0.500090
H277	H	0.825590	-0.447069	0.000026
H278	H	1.325590	0.052931	0.500026
H279	H	0.594476	0.147244	0.000056
H280	H	1.094476	0.647244	0.500056
N281	N	1.183077	-0.001432	0.447751
N282	N	1.683077	0.498568	0.947751
H283	H	1.221905	-0.022211	0.398984
H284	H	1.721905	0.477789	0.898984
H285	H	1.222345	0.017130	0.490909
H286	H	1.722345	0.517130	0.990909
H287	H	0.944501	0.126285	0.433970
H288	H	1.444501	0.626285	0.933970
