data_functionalizedCrystal
_audit_creation_method	'MofGen! by Chris Wilmer'
_symmetry_space_group_name_H-M	'P1'
_symmetry_Int_Tables_number	1
_symmetry_cell_setting	triclinic
loop_
_symmetry_equiv_pos_as_xyz
  x,y,z
_cell_length_a	17.077404
_cell_length_b	17.077402
_cell_length_c	17.077396
_cell_angle_alpha	89.972472
_cell_angle_beta	89.980499
_cell_angle_gamma	90.023718
loop_
_atom_site_label
_atom_site_type_symbol
_atom_site_fract_x
_atom_site_fract_y
_atom_site_fract_z
Zn1	Zn	1.200051	-0.312503	-0.443848
Zn2	Zn	1.199957	-0.443778	-0.312584
Zn3	Zn	1.068783	-0.312531	-0.312596
Zn4	Zn	1.068750	-0.443732	-0.443808
O5	O	1.134385	-0.378136	-0.378209
O6	O	1.309886	-0.329925	-0.426447
O7	O	1.182531	-0.426399	-0.202739
O8	O	1.086250	-0.202680	-0.330028
O9	O	1.309816	-0.426372	-0.330008
O10	O	1.182692	-0.202660	-0.426459
O11	O	1.086158	-0.329972	-0.202747
O12	O	0.958932	-0.329927	-0.329989
O13	O	1.086193	-0.426293	-0.553660
O14	O	0.958907	-0.426320	-0.426390
O15	O	1.182659	-0.329880	-0.553690
O16	O	1.182499	-0.553619	-0.329969
O17	O	1.086101	-0.553585	-0.426379
C18	C	0.930437	-0.378122	-0.378187
C19	C	0.843188	-0.378135	-0.378197
C20	C	0.802205	-0.428402	-0.428312
C21	C	0.720225	-0.428404	-0.428324
C22	C	0.679228	-0.378141	-0.378217
C23	C	0.720216	-0.327869	-0.328100
C24	C	0.802195	-0.327863	-0.328092
C25	C	0.549346	-0.327884	-0.328118
C26	C	0.467362	-0.327890	-0.328125
C27	C	0.467376	-0.428424	-0.428351
C28	C	0.549355	-0.428419	-0.428343
C29	C	0.590337	-0.378147	-0.378225
C30	C	1.134307	-0.582084	-0.378186
C31	C	1.134346	-0.669334	-0.378202
C32	C	1.184536	-0.710246	-0.428454
C33	C	1.184569	-0.792226	-0.428470
C34	C	1.134415	-0.833293	-0.378231
C35	C	1.084220	-0.792375	-0.327977
C36	C	1.084183	-0.710396	-0.327965
C37	C	1.084300	-0.963245	-0.328004
C38	C	1.084337	-1.045230	-0.328015
C39	C	1.184686	-1.045075	-0.428510
C40	C	1.184649	-0.963096	-0.428498
C41	C	1.134455	-0.922184	-0.378243
C42	C	1.339130	-0.378151	-0.378231
C43	C	1.426379	-0.378157	-0.378241
C44	C	1.134433	-0.378078	-0.582953
C45	C	1.134453	-0.378054	-0.670203
C46	C	1.134485	-0.173392	-0.378249
C47	C	1.134527	-0.086142	-0.378267
C48	C	1.184685	-0.327847	-0.711210
C49	C	1.184695	-0.327821	-0.793190
C50	C	1.134475	-0.378006	-0.834163
C51	C	1.084238	-0.428214	-0.793150
C52	C	1.084225	-0.428236	-0.711171
C53	C	1.084269	-0.428167	-0.964020
C54	C	1.084283	-0.428147	-1.046005
C55	C	1.184739	-0.327752	-1.046040
C56	C	1.184726	-0.327774	-0.964061
C57	C	1.134489	-0.377984	-0.923054
C58	C	1.134383	-0.378137	-0.174261
C59	C	1.134515	-0.377941	-0.087012
H60	H	0.686830	-0.286941	-0.287305
C61	C	1.028971	-0.665394	-0.272683
N62	N	0.987381	-0.631498	-0.231045
C63	C	1.239897	-1.090080	-0.483795
N64	N	1.281481	-1.123981	-0.525433
C65	C	1.029160	-1.090402	-0.272755
N66	N	0.987598	-1.124425	-0.231133
C67	C	0.594425	-0.272584	-0.272983
N68	N	0.628378	-0.230936	-0.231452
C69	C	1.239968	-0.272566	-0.918993
N70	N	1.281574	-0.230980	-0.885048
C71	C	1.029087	-0.918244	-0.272716
N72	N	0.987506	-0.884349	-0.231070
C73	C	1.239792	-0.837226	-0.483741
N74	N	1.281392	-0.871119	-0.525370
H75	H	1.225492	-0.929660	-0.469402
C76	C	0.422267	-0.272596	-0.273008
N77	N	0.388302	-0.230947	-0.231492
C78	C	1.239930	-0.272638	-0.666148
N79	N	1.281540	-0.231050	-0.632210
H80	H	1.043349	-0.469041	-0.930635
C81	C	0.847294	-0.483696	-0.483435
N82	N	0.881252	-0.525343	-0.524957
C83	C	1.239999	-0.272520	-1.091149
N84	N	1.281623	-0.230924	-1.125128
C85	C	0.422294	-0.483720	-0.483487
N86	N	0.388334	-0.525369	-0.525011
C87	C	1.239711	-0.665080	-0.483721
N88	N	1.281269	-0.631063	-0.525352
H89	H	1.043346	-0.469073	-0.826516
C90	C	0.847275	-0.272567	-0.272959
N91	N	0.881229	-0.230915	-0.231433
C92	C	1.029035	-0.483348	-1.091073
N93	N	0.987419	-0.524925	-1.125018
C94	C	1.028967	-0.483468	-0.666064
N95	N	0.987344	-0.525070	-0.632090
H96	H	0.582732	-0.469352	-0.469141
H97	H	0.686861	-0.469337	-0.469133
H98	H	1.043380	-0.825818	-0.287074
H99	H	1.225600	-0.286940	-0.826575
