data_functionalizedCrystal
_audit_creation_method	'MofGen! by Chris Wilmer'
_symmetry_space_group_name_H-M	'P1'
_symmetry_Int_Tables_number	1
_symmetry_cell_setting	triclinic
loop_
_symmetry_equiv_pos_as_xyz
  x,y,z
_cell_length_a	14.853567
_cell_length_b	14.853567
_cell_length_c	13.930277
_cell_angle_alpha	90.002109
_cell_angle_beta	90.001833
_cell_angle_gamma	96.365070
loop_
_atom_site_label
_atom_site_type_symbol
_atom_site_fract_x
_atom_site_fract_y
_atom_site_fract_z
O1	O	1.196366	-0.117700	0.079756
O2	O	0.933906	-0.131721	0.079772
O3	O	1.072147	0.006519	0.079767
O4	O	1.058125	-0.255941	0.079762
O5	O	1.072133	0.006515	-0.079895
O6	O	0.933892	-0.131725	-0.079890
O7	O	1.196352	-0.117704	-0.079905
Zn8	Zn	1.065120	-0.124715	-0.105247
Zn9	Zn	1.065138	-0.124710	0.105114
O10	O	1.058111	-0.255944	-0.079900
C11	C	0.900311	-0.131088	-0.000057
C12	C	0.800227	-0.129184	-0.000051
C13	C	0.387693	-0.039019	-0.000070
C14	C	0.366412	-0.203251	-0.000073
C15	C	0.460446	-0.205042	-0.000070
C16	C	0.518108	-0.123819	-0.000066
C17	C	0.481736	-0.040806	-0.000065
C18	C	0.496825	-0.288053	-0.000061
C19	C	0.590864	-0.289846	-0.000057
C20	C	0.648528	-0.208623	-0.000060
C21	C	0.612150	-0.125607	-0.000060
C22	C	0.669812	-0.044384	-0.000056
C23	C	0.633437	0.038633	-0.000063
C24	C	0.539399	0.040417	-0.000067
C25	C	0.742565	-0.210407	-0.000055
C26	C	0.763855	-0.046172	-0.000050
C27	C	1.071504	0.040106	-0.000061
C28	C	1.069601	0.140189	-0.000053
C29	C	1.229947	-0.118337	-0.000075
C30	C	1.330031	-0.120241	-0.000075
C31	C	1.058754	-0.289531	-0.000070
C32	C	1.060657	-0.389615	-0.000072
N33	N	1.065114	-0.124718	-0.248814
C34	C	0.979435	0.552723	-0.000066
C35	C	1.143668	0.574004	-0.000076
C36	C	1.145458	0.479971	-0.000070
C37	C	1.064235	0.422309	-0.000064
C38	C	0.981223	0.458680	-0.000063
C39	C	1.228469	0.443591	-0.000080
C40	C	1.230262	0.349552	-0.000076
C41	C	1.149039	0.291889	-0.000063
C42	C	1.066023	0.328266	-0.000061
C43	C	0.984800	0.270604	-0.000055
C44	C	0.901783	0.306979	-0.000047
C45	C	0.899999	0.401017	-0.000050
C46	C	1.150823	0.197851	-0.000059
C47	C	0.986588	0.176561	-0.000052
C48	C	1.003893	-0.185912	-0.299075
C49	C	1.126341	-0.063521	-0.299058
C50	C	1.126351	-0.063517	-0.399553
C51	C	1.065130	-0.124711	-0.449814
C52	C	1.003899	-0.185909	-0.399580
C53	C	1.187574	-0.002314	-0.449796
C54	C	1.187586	-0.002307	-0.550297
C55	C	1.126368	-0.063506	-0.600560
C56	C	1.065136	-0.124707	-0.550319
C57	C	1.003914	-0.185901	-0.600580
C58	C	0.942685	-0.247107	-0.550341
C59	C	0.942681	-0.247108	-0.449842
C60	C	1.126372	-0.063506	-0.701059
C61	C	1.003920	-0.185898	-0.701085
N62	N	1.065151	-0.124700	0.248680
H63	H	0.509774	0.108005	-0.000096
F64	F	0.348980	0.049330	-0.000082
F65	F	0.877520	-0.312241	-0.396371
H66	H	1.237414	0.047513	-0.408870
F67	F	0.305043	-0.289689	-0.000065
F68	F	0.938735	-0.251053	-0.245609
H69	H	1.237442	0.047529	-0.591196
F70	F	0.435454	-0.374489	-0.000051
H71	H	1.218414	0.168238	-0.000072
H72	H	1.176182	-0.013694	-0.258132
F73	F	1.230105	0.635374	-0.000096
H74	H	0.810798	0.019971	-0.000050
F75	F	0.938763	-0.251035	-0.754569
H76	H	0.892835	-0.296928	-0.591275
F77	F	1.314905	0.504963	-0.000105
F78	F	1.191527	0.001635	-0.754521
H79	H	0.680397	0.104764	-0.000053
H80	H	0.620472	-0.357443	-0.000051
F81	F	0.900137	0.115200	-0.000039
F82	F	0.781275	-0.298753	-0.000040
H83	H	0.835652	0.260019	-0.000048
H84	H	0.832411	0.430643	-0.000044
F85	F	1.318615	0.310847	-0.000073
F86	F	0.891087	0.591436	-0.000049
