data_functionalizedCrystal
_audit_creation_method	'MofGen! by Chris Wilmer'
_symmetry_space_group_name_H-M	'P1'
_symmetry_Int_Tables_number	1
_symmetry_cell_setting	triclinic
loop_
_symmetry_equiv_pos_as_xyz
  x,y,z
_cell_length_a	10.540539
_cell_length_b	16.109301
_cell_length_c	15.186229
_cell_angle_alpha	90.000638
_cell_angle_beta	90.001611
_cell_angle_gamma	83.993486
loop_
_atom_site_label
_atom_site_type_symbol
_atom_site_fract_x
_atom_site_fract_y
_atom_site_fract_z
O1	O	0.163159	1.104128	0.073169
O2	O	0.183464	0.862191	0.073182
O3	O	-0.011474	0.988679	0.073174
O4	O	0.358096	0.977640	0.073177
O5	O	-0.011477	0.988671	-0.073283
O6	O	0.183461	0.862182	-0.073275
O7	O	0.163156	1.104120	-0.073289
Zn8	Zn	0.173308	0.983150	-0.096535
Zn9	Zn	0.173312	0.983161	0.096429
O10	O	0.358094	0.977631	-0.073280
C11	C	0.182640	0.831206	-0.000045
C12	C	0.180174	0.738896	-0.000039
C13	C	0.290112	0.517296	-0.000049
C14	C	0.287785	0.430561	-0.000054
C15	C	0.056499	0.449021	-0.000053
C16	C	0.058827	0.535754	-0.000053
C17	C	0.175637	0.569889	-0.000047
C18	C	0.170982	0.396421	-0.000052
C19	C	0.168459	0.302380	-0.000058
C20	C	0.178162	0.663936	-0.000042
C21	C	-0.058767	0.987847	-0.000053
C22	C	-0.199679	0.985370	-0.000048
C23	C	-0.381753	0.890460	0.000286
C24	C	-0.235171	0.892971	-0.000044
C25	C	-0.261972	1.029832	-0.083685
C26	C	-0.408472	1.026678	-0.083755
C27	C	-0.409014	1.028567	0.082794
C28	C	-0.262044	1.029418	0.083900
C29	C	0.405386	0.978463	-0.000052
C30	C	0.546299	0.980940	-0.000051
C31	C	0.163980	1.135104	-0.000060
C32	C	0.166446	1.227414	-0.000059
N33	N	0.173305	0.983148	-0.228228
C34	C	0.087015	1.039177	-0.453954
C35	C	0.087012	1.039179	-0.546144
C36	C	0.259598	0.927134	-0.546146
C37	C	0.259594	0.927128	-0.453958
C38	C	0.173304	0.983154	-0.407864
C39	C	0.173305	0.983163	-0.592242
C40	C	0.173303	0.983165	-0.692198
C41	C	0.173305	0.983151	-0.307902
N42	N	0.173305	0.983169	0.228121
H43	H	-0.192068	0.857986	0.059910
H44	H	0.381003	0.387743	-0.000058
C45	C	-0.421823	0.841355	-0.080300
N46	N	-0.451993	0.804375	-0.141005
C47	C	-0.178078	0.845370	-0.081172
N48	N	-0.135077	0.809516	-0.142282
H49	H	-0.409832	0.853964	0.060263
H50	H	0.385227	0.545085	-0.000050
H51	H	0.016747	1.084796	-0.583668
H52	H	0.329855	0.881521	-0.583684
C53	C	-0.071986	0.411464	-0.000051
N54	N	-0.168764	0.383178	-0.000047
C55	C	-0.007916	1.100800	-0.403255
N56	N	-0.079425	1.147214	-0.365070
C57	C	-0.206146	0.985511	0.167490
N58	N	-0.164046	0.952432	0.230448
H59	H	-0.034398	0.578578	-0.000054
C60	C	-0.445938	0.982268	-0.168207
N61	N	-0.474151	0.948813	-0.231816
C62	C	-0.474558	1.116450	-0.088900
N63	N	-0.524329	1.184064	-0.092780
C64	C	0.354581	0.865534	-0.403256
N65	N	0.426141	0.819156	-0.365067
H66	H	-0.240586	1.097687	-0.086798
H67	H	-0.218934	0.998939	-0.145921
H68	H	-0.440139	0.998666	0.146185
C69	C	-0.230630	1.120431	0.090715
N70	N	-0.206975	1.188986	0.095840
H71	H	-0.457191	1.095307	0.083353
