data_functionalizedCrystal
_audit_creation_method	'MofGen! by Chris Wilmer'
_symmetry_space_group_name_H-M	'P1'
_symmetry_Int_Tables_number	1
_symmetry_cell_setting	triclinic
loop_
_symmetry_equiv_pos_as_xyz
  x,y,z
_cell_length_a	14.908571
_cell_length_b	12.759400
_cell_length_c	14.908803
_cell_angle_alpha	86.711405
_cell_angle_beta	89.810884
_cell_angle_gamma	86.710990
loop_
_atom_site_label
_atom_site_type_symbol
_atom_site_fract_x
_atom_site_fract_y
_atom_site_fract_z
Zn1	Zn	1.345209	-0.548506	0.587590
Zn2	Zn	1.353837	-0.714629	0.437237
Zn3	Zn	1.203558	-0.528266	0.428590
Zn4	Zn	1.194832	-0.713435	0.578887
O5	O	1.274359	-0.626209	0.508076
O6	O	1.472178	-0.579513	0.574907
O7	O	1.341165	-0.681936	0.310267
O8	O	1.222389	-0.383934	0.449704
O9	O	1.478517	-0.701563	0.464443
O10	O	1.326459	-0.398805	0.566521
O11	O	1.230756	-0.545016	0.303914
O12	O	1.076576	-0.543858	0.441265
O13	O	1.207517	-0.699528	0.705865
O14	O	1.070165	-0.679901	0.551688
O15	O	1.317998	-0.578356	0.712259
O16	O	1.332704	-0.861487	0.456005
O17	O	1.215884	-0.860610	0.560074
C18	C	1.040745	-0.609555	0.494595
C19	C	0.940803	-0.602457	0.488849
C20	C	0.746383	-0.730979	0.592880
C21	C	0.652478	-0.724313	0.587484
C22	C	0.659086	-0.582455	0.472666
C23	C	0.752991	-0.589121	0.478062
C24	C	0.796636	-0.663386	0.538170
C25	C	0.890543	-0.670056	0.543561
C26	C	0.897149	-0.528194	0.428748
C27	C	0.803244	-0.521528	0.423352
C28	C	1.274307	-0.899171	0.508054
C29	C	1.274365	-1.015954	0.508080
C30	C	1.335253	-1.071246	0.453958
C31	C	1.335307	-1.180976	0.453989
C32	C	1.213576	-1.180111	0.562265
C33	C	1.213527	-1.070383	0.562239
C34	C	1.396091	-1.016816	0.399799
C35	C	1.456983	-1.072109	0.345672
C36	C	1.457037	-1.181839	0.345703
C37	C	1.396198	-1.236276	0.399861
C38	C	1.508885	-0.642929	0.521611
C39	C	1.608826	-0.650054	0.527378
C40	C	1.260822	-0.641066	0.742599
C41	C	1.255053	-0.647398	0.842538
C42	C	1.274435	-0.352184	0.508119
C43	C	1.274467	-0.235411	0.508137
C44	C	1.359254	-0.533094	1.036995
C45	C	1.353837	-0.539039	1.130897
C46	C	1.238797	-0.665227	1.124246
C47	C	1.244215	-0.659282	1.030344
C48	C	1.304446	-0.593214	0.986722
C49	C	1.309867	-0.587275	0.892818
C50	C	1.194824	-0.713457	0.886169
C51	C	1.189406	-0.719403	0.980071
C52	C	1.287838	-0.611433	1.274465
C53	C	1.293611	-0.605105	1.174526
H54	H	0.938076	-0.473157	0.384197
H55	H	0.611565	-0.779352	0.632036
O56	O	0.616630	-0.510440	0.414214
C57	C	0.517476	-0.480809	0.286836
C58	C	0.565532	-0.562489	0.352943
H59	H	0.476137	-0.522857	0.237294
H60	H	0.569468	-0.433626	0.248586
H61	H	0.471195	-0.425458	0.325737
H62	H	0.611810	-0.617908	0.314112
H63	H	0.513491	-0.609595	0.391194
H64	H	1.140366	-0.773191	1.015601
H65	H	1.189759	-0.719016	1.159780
H66	H	1.408301	-0.479304	1.001477
O67	O	1.516332	-1.235417	0.293185
C68	C	1.671866	-1.276949	0.258560
C69	C	1.604798	-1.216221	0.318088
H70	H	1.743405	-1.261469	0.278684
H71	H	1.660389	-1.249683	0.185124
H72	H	1.661446	-1.364725	0.267842
H73	H	1.615177	-1.128435	0.308884
H74	H	1.616291	-1.243575	0.391502
O75	O	1.368466	-0.523250	0.850404
C76	C	1.495944	-0.511022	0.751343
C77	C	1.429658	-0.583660	0.799338
H78	H	1.545422	-0.559831	0.710030
H79	H	1.534252	-0.469089	0.803370
H80	H	1.457183	-0.450349	0.705047
H81	H	1.468349	-0.644391	0.845632
H82	H	1.391350	-0.625516	0.747262
H83	H	1.150197	-0.762415	0.845226
O84	O	1.407041	-0.480484	1.179630
C85	C	1.449032	-0.306699	1.210936
C86	C	1.388739	-0.372892	1.155673
H87	H	1.434243	-0.219697	1.191601
H88	H	1.522611	-0.329056	1.196635
H89	H	1.434833	-0.322348	1.285541
H90	H	1.402859	-0.357277	1.081052
H91	H	1.315179	-0.350523	1.170051
O92	O	0.788882	-0.802982	0.651311
C93	C	0.887888	-0.832550	0.778808
C94	C	0.839828	-0.750895	0.712683
H95	H	0.929074	-0.790467	0.828456
H96	H	0.934283	-0.887898	0.740023
H97	H	0.835826	-0.879741	0.816940
H98	H	0.891827	-0.703629	0.674534
H99	H	0.793417	-0.695619	0.751519
H100	H	0.767696	-0.461061	0.374416
O101	O	1.154342	-1.016544	0.614685
C102	C	1.032154	-0.884926	0.619653
C103	C	1.099142	-0.945802	0.560148
H104	H	0.987494	-0.827733	0.575584
H105	H	1.070614	-0.839338	0.669051
H106	H	0.988719	-0.942703	0.658382
H107	H	1.142593	-0.888098	0.521362
H108	H	1.060627	-0.991406	0.510807
O109	O	1.515957	-1.019171	0.292965
C110	C	1.535094	-0.888471	0.172285
C111	C	1.468206	-0.948362	0.231900
H112	H	1.496514	-0.831192	0.122912
H113	H	1.578612	-0.946789	0.133543
H114	H	1.579683	-0.843043	0.216319
H115	H	1.423558	-0.993792	0.187932
H116	H	1.424750	-0.889992	0.270649
O117	O	1.154510	-1.233146	0.614782
C118	C	1.100670	-1.401810	0.662844
C119	C	1.167600	-1.341879	0.603312
H120	H	1.111242	-1.489733	0.653605
H121	H	1.029066	-1.374222	0.642805
H122	H	1.112196	-1.385838	0.736251
H123	H	1.156156	-1.357823	0.529889
H124	H	1.239181	-1.369476	0.623427
H125	H	0.926077	-0.730529	0.592502
H126	H	1.396051	-0.927469	0.399765
O127	O	1.396416	-1.342880	0.399910
C128	C	1.481320	-1.507854	0.428153
C129	C	1.481205	-1.387141	0.428121
H130	H	1.549858	-1.543676	0.450977
H131	H	1.466812	-1.532028	0.357444
H132	H	1.427342	-1.537229	0.476124
H133	H	1.535181	-1.357680	0.380193
H134	H	1.495671	-1.363037	0.498860
