data_functionalizedCrystal
_audit_creation_method	'MofGen! by Chris Wilmer'
_symmetry_space_group_name_H-M	'P1'
_symmetry_Int_Tables_number	1
_symmetry_cell_setting	triclinic
loop_
_symmetry_equiv_pos_as_xyz
  x,y,z
_cell_length_a	14.519731
_cell_length_b	12.996460
_cell_length_c	14.519709
_cell_angle_alpha	90.005823
_cell_angle_beta	83.684499
_cell_angle_gamma	89.993340
loop_
_atom_site_label
_atom_site_type_symbol
_atom_site_fract_x
_atom_site_fract_y
_atom_site_fract_z
O1	O	1.223840	0.085571	0.120987
O2	O	1.473840	0.335571	0.370987
O3	O	1.723840	0.585571	0.620987
O4	O	1.973840	0.835571	0.870987
O5	O	0.955366	0.085573	0.135203
O6	O	1.205366	0.335573	0.385203
O7	O	1.455366	0.585573	0.635203
O8	O	1.705366	0.835573	0.885203
O9	O	1.096721	0.085563	-0.006143
O10	O	1.346721	0.335563	0.243857
O11	O	1.596721	0.585563	0.493857
O12	O	1.846721	0.835563	0.743857
O13	O	1.082485	0.085582	0.262333
O14	O	1.332485	0.335582	0.512333
O15	O	1.582485	0.585582	0.762333
O16	O	1.832485	0.835582	1.012333
O17	O	1.096739	-0.085571	-0.006151
O18	O	1.346739	0.164429	0.243849
O19	O	1.596739	0.414429	0.493849
O20	O	1.846739	0.664429	0.743849
O21	O	0.955384	-0.085561	0.135195
O22	O	1.205384	0.164439	0.385195
O23	O	1.455384	0.414439	0.635195
O24	O	1.705384	0.664439	0.885195
O25	O	1.223858	-0.085563	0.120979
O26	O	1.473858	0.164437	0.370979
O27	O	1.723858	0.414437	0.620979
O28	O	1.973858	0.664437	0.870979
Cu29	Cu	1.089623	-0.101187	0.128086
Cu30	Cu	1.339623	0.148813	0.378086
Cu31	Cu	1.589623	0.398813	0.628086
Cu32	Cu	1.839623	0.648813	0.878086
Cu33	Cu	1.089601	0.101198	0.128095
Cu34	Cu	1.339601	0.351198	0.378095
Cu35	Cu	1.589601	0.601198	0.628095
Cu36	Cu	1.839601	0.851198	0.878095
O37	O	1.082503	-0.085552	0.262324
O38	O	1.332503	0.164448	0.512324
O39	O	1.582503	0.414448	0.762324
O40	O	1.832503	0.664448	1.012324
C41	C	0.921016	0.000006	0.134532
C42	C	1.171016	0.250006	0.384532
C43	C	1.421016	0.500006	0.634532
C44	C	1.671016	0.750006	0.884532
C45	C	0.818635	0.000007	0.132536
C46	C	1.068635	0.250007	0.382536
C47	C	1.318635	0.500007	0.632536
C48	C	1.568635	0.750007	0.882536
C49	C	0.735491	0.000011	0.130915
C50	C	0.985491	0.250011	0.380915
C51	C	1.235491	0.500011	0.630915
C52	C	1.485491	0.750011	0.880915
C53	C	0.631182	0.000011	0.128888
C54	C	0.881182	0.250011	0.378888
C55	C	1.131182	0.500011	0.628888
C56	C	1.381182	0.750011	0.878888
C57	C	0.548043	0.000011	0.127280
C58	C	0.798043	0.250011	0.377280
C59	C	1.048043	0.500011	0.627280
C60	C	1.298043	0.750011	0.877280
C61	C	0.443728	0.000013	0.125253
C62	C	0.693728	0.250013	0.375253
C63	C	0.943728	0.500013	0.625253
C64	C	1.193728	0.750013	0.875253
C65	C	1.096067	-0.000004	-0.040507
C66	C	1.346067	0.249996	0.209493
C67	C	1.596067	0.499996	0.459493
C68	C	1.846067	0.749996	0.709493
C69	C	1.094079	-0.000005	-0.142889
C70	C	1.344079	0.249995	0.107111
C71	C	1.594079	0.499995	0.357111
C72	C	1.844079	0.749995	0.607111
C73	C	1.258209	0.000007	0.121649
C74	C	1.508209	0.250007	0.371649
C75	C	1.758209	0.500007	0.621649
C76	C	2.008209	0.750007	0.871649
C77	C	1.360589	0.000013	0.123645
C78	C	1.610589	0.250013	0.373645
C79	C	1.860589	0.500013	0.623645
C80	C	2.110589	0.750013	0.873645
N81	N	1.089645	-0.243535	0.128079
N82	N	1.339645	0.006465	0.378079
N83	N	1.589645	0.256465	0.628079
N84	N	1.839645	0.506465	0.878079
N85	N	1.089587	0.243545	0.128095
N86	N	1.339587	0.493545	0.378095
N87	N	1.589587	0.743545	0.628095
N88	N	1.839587	0.993545	0.878095
C89	C	1.089590	0.336651	0.128096
C90	C	1.339590	0.586651	0.378096
C91	C	1.589590	0.836651	0.628096
C92	C	1.839590	1.086651	0.878096
C93	C	1.089602	0.453456	0.128095
C94	C	1.339602	0.703456	0.378095
C95	C	1.589602	0.953456	0.628095
C96	C	1.839602	1.203456	0.878095
C97	C	1.089618	0.546555	0.128088
C98	C	1.339618	0.796555	0.378088
C99	C	1.589618	1.046555	0.628088
C100	C	1.839618	1.296555	0.878088
C101	C	1.089629	0.663367	0.128085
C102	C	1.339629	0.913367	0.378085
C103	C	1.589629	1.163367	0.628085
C104	C	1.839629	1.413367	0.878085
C105	C	1.086759	0.000022	-0.517785
C106	C	1.336759	0.250022	-0.267785
C107	C	1.586759	0.500022	-0.017785
C108	C	1.836759	0.750022	0.232215
C109	C	1.088792	0.000014	-0.413477
C110	C	1.338792	0.250014	-0.163477
C111	C	1.588792	0.500014	0.086523
C112	C	1.838792	0.750014	0.336523
C113	C	1.090419	0.000008	-0.330340
C114	C	1.340419	0.250008	-0.080340
C115	C	1.590419	0.500008	0.169660
C116	C	1.840419	0.750008	0.419660
C117	C	1.092452	0.000002	-0.226025
C118	C	1.342452	0.250002	0.023975
C119	C	1.592452	0.500002	0.273975
C120	C	1.842452	0.750002	0.523975
C121	C	1.083157	0.000017	0.296688
C122	C	1.333157	0.250017	0.546688
C123	C	1.583157	0.500017	0.796688
C124	C	1.833157	0.750017	1.046688
C125	C	1.085146	0.000024	0.399070
C126	C	1.335146	0.250024	0.649070
C127	C	1.585146	0.500024	0.899070
C128	C	1.835146	0.750024	1.149070
