data_functionalizedCrystal
_audit_creation_method	'MofGen! by Chris Wilmer'
_symmetry_space_group_name_H-M	'P1'
_symmetry_Int_Tables_number	1
_symmetry_cell_setting	triclinic
loop_
_symmetry_equiv_pos_as_xyz
  x,y,z
_cell_length_a	16.956995
_cell_length_b	16.992695
_cell_length_c	15.455313
_cell_angle_alpha	92.847427
_cell_angle_beta	87.515363
_cell_angle_gamma	83.361347
loop_
_atom_site_label
_atom_site_type_symbol
_atom_site_fract_x
_atom_site_fract_y
_atom_site_fract_z
O1	O	1.063365	0.028719	-0.072191
O2	O	1.396698	0.362053	0.261142
O3	O	1.730032	0.695386	0.594476
O4	O	0.832954	0.056133	-0.072180
O5	O	1.166288	0.389467	0.261153
O6	O	1.499621	0.722800	0.594487
O7	O	0.947236	-0.071656	-0.072179
O8	O	1.280569	0.261677	0.261155
O9	O	1.613902	0.595011	0.594488
O10	O	0.949084	0.156509	-0.072192
O11	O	1.282417	0.489842	0.261141
O12	O	1.615750	0.823175	0.594474
O13	O	0.940699	-0.064377	0.072083
O14	O	1.274032	0.268957	0.405417
O15	O	1.607365	0.602290	0.738750
O16	O	0.826417	0.063413	0.072082
O17	O	1.159751	0.396746	0.405415
O18	O	1.493084	0.730079	0.738749
O19	O	1.056828	0.035999	0.072071
O20	O	1.390162	0.369332	0.405404
O21	O	1.723495	0.702665	0.738738
Cu22	Cu	0.941026	0.050370	0.085249
Cu23	Cu	1.274359	0.383704	0.418582
Cu24	Cu	1.607693	0.717037	0.751915
Cu25	Cu	0.948757	0.041762	-0.085358
Cu26	Cu	1.282090	0.375095	0.247976
Cu27	Cu	1.615423	0.708428	0.581309
O28	O	0.942547	0.163788	0.072070
O29	O	1.275880	0.497121	0.405403
O30	O	1.609213	0.830455	0.738736
C31	C	0.800067	0.061177	-0.000048
C32	C	1.133401	0.394510	0.333286
C33	C	1.466734	0.727843	0.666619
C34	C	0.711813	0.065350	-0.000043
C35	C	1.045146	0.398683	0.333290
C36	C	1.378479	0.732017	0.666624
C37	C	0.214503	0.096566	-0.000077
C38	C	0.547836	0.429900	0.333256
C39	C	0.881170	0.763233	0.666589
C40	C	0.297428	0.092639	-0.000076
C41	C	0.630761	0.425973	0.333257
C42	C	0.964095	0.759306	0.666590
C43	C	0.343818	0.018927	-0.000065
C44	C	0.677152	0.352261	0.333268
C45	C	1.010485	0.685594	0.666601
C46	C	0.307280	-0.050863	-0.000064
C47	C	0.640614	0.282470	0.333269
C48	C	0.973947	0.615804	0.666603
C49	C	0.224357	-0.046935	-0.000071
C50	C	0.557691	0.286398	0.333262
C51	C	0.891024	0.619731	0.666595
C52	C	0.592351	-0.000513	-0.000049
C53	C	0.925685	0.332821	0.333284
C54	C	1.259018	0.666154	0.666618
C55	C	0.675280	-0.004435	-0.000039
C56	C	1.008613	0.328898	0.333294
C57	C	1.341946	0.662232	0.666627
C58	C	0.665422	0.139068	-0.000053
C59	C	0.998755	0.472401	0.333280
C60	C	1.332088	0.805735	0.666613
C61	C	0.582497	0.142989	-0.000055
C62	C	0.915830	0.476322	0.333278
C63	C	1.249164	0.809656	0.666612
C64	C	0.545967	0.073199	-0.000058
C65	C	0.879300	0.406532	0.333275
C66	C	1.212633	0.739866	0.666608
N67	N	0.428581	0.014912	-0.000062
N68	N	0.761914	0.348245	0.333272
N69	N	1.095248	0.681578	0.666605
N70	N	0.461206	0.077215	-0.000068
N71	N	0.794539	0.410548	0.333265
N72	N	1.127872	0.743882	0.666598
C73	C	0.941591	-0.097075	-0.000048
C74	C	1.274924	0.236258	0.333286
C75	C	1.608257	0.569592	0.666619
C76	C	0.934500	-0.183660	-0.000047
C77	C	1.267834	0.149674	0.333286
C78	C	1.601167	0.483007	0.666619
C79	C	1.002915	-0.238334	-0.000050
C80	C	1.336248	0.094999	0.333284
C81	C	1.669582	0.428333	0.666617
C82	C	0.996248	-0.319689	-0.000058
C83	C	1.329582	0.013644	0.333276
C84	C	1.662915	0.346978	0.666609
C85	C	0.921166	-0.346367	-0.000057
C86	C	1.254499	-0.013034	0.333276
C87	C	1.587832	0.320299	0.666610
C88	C	0.852746	-0.291686	-0.000057
C89	C	1.186079	0.041647	0.333276
C90	C	1.519412	0.374980	0.666609
C91	C	0.859413	-0.210333	-0.000056
C92	C	1.192747	0.123000	0.333278
C93	C	1.526080	0.456333	0.666611
C94	C	0.893531	-0.588175	-0.000068
C95	C	1.226864	-0.254841	0.333266
C96	C	1.560197	0.078492	0.666599
C97	C	0.886868	-0.669534	-0.000067
C98	C	1.220201	-0.336201	0.333267
C99	C	1.553534	-0.002868	0.666600
C100	C	1.030371	-0.697532	-0.000069
C101	C	1.363705	-0.364198	0.333265
C102	C	1.697038	-0.030865	0.666598
C103	C	1.037032	-0.616176	-0.000062
C104	C	1.370366	-0.282842	0.333271
C105	C	1.703699	0.050491	0.666605
C106	C	0.968612	-0.561502	-0.000067
C107	C	1.301946	-0.228168	0.333267
C108	C	1.635279	0.105165	0.666600
N109	N	0.914349	-0.429525	-0.000062
N110	N	1.247683	-0.096191	0.333271
N111	N	1.581016	0.237142	0.666604
N112	N	0.975430	-0.478346	-0.000068
N113	N	1.308763	-0.145013	0.333266
N114	N	1.642096	0.188320	0.666599
C115	C	1.089715	0.030955	-0.000063
C116	C	1.423049	0.364288	0.333270
C117	C	1.756382	0.697622	0.666603
C118	C	1.177970	0.026782	-0.000073
C119	C	1.511304	0.360115	0.333260
C120	C	1.844637	0.693448	0.666593
C121	C	0.948192	0.189207	-0.000063
C122	C	1.281525	0.522540	0.333270
C123	C	1.614858	0.855874	0.666603
C124	C	0.955283	0.275791	-0.000069
C125	C	1.288616	0.609124	0.333264
C126	C	1.621949	0.942458	0.666598
N127	N	0.935594	0.056424	0.205244
N128	N	1.268928	0.389758	0.538578
N129	N	1.602261	0.723091	0.871911
N130	N	0.954194	0.035701	-0.205353
N131	N	1.287527	0.369034	0.127980
N132	N	1.620861	0.702368	0.461313
C133	C	0.984164	0.002152	0.250639
C134	C	1.317498	0.335486	0.583972
C135	C	1.650831	0.668819	0.917306
C136	C	0.980064	0.006738	0.341447
C137	C	1.313398	0.340071	0.674780
C138	C	1.646731	0.673404	1.008113
C139	C	0.927398	0.065599	0.386858
C140	C	1.260731	0.398932	0.720192
C141	C	1.594065	0.732265	1.053525
C142	C	0.878823	0.119873	0.341457
C143	C	1.212156	0.453206	0.674791
C144	C	1.545489	0.786540	1.008124
C145	C	0.882919	0.115284	0.250651
C146	C	1.216253	0.448617	0.583984
C147	C	1.549586	0.781951	0.917318
C148	C	0.909715	0.085386	0.658440
C149	C	1.243049	0.418720	0.991773
C150	C	1.576382	0.752053	1.325106
C151	C	0.905624	0.089973	0.749252
C152	C	1.238957	0.423306	1.082585
C153	C	1.572291	0.756640	1.415919
C154	C	1.006865	-0.023164	0.749235
C155	C	1.340199	0.310169	1.082569
C156	C	1.673532	0.643503	1.415902
C157	C	1.010960	-0.027745	0.658427
C158	C	1.344294	0.305588	0.991761
C159	C	1.677627	0.638921	1.325094
C160	C	0.962382	0.026527	0.613034
C161	C	1.295715	0.359860	0.946368
C162	C	1.629049	0.693193	1.279701
N163	N	0.923208	0.070288	0.479678
N164	N	1.256541	0.403622	0.813012
N165	N	1.589875	0.736955	1.146345
N166	N	0.966569	0.021833	0.520216
N167	N	1.299902	0.355166	0.853549
N168	N	1.633235	0.688500	1.186882
H169	H	0.695174	0.195887	-0.000052
H170	H	1.028507	0.529221	0.333281
H171	H	1.361841	0.862554	0.666615
H172	H	0.835937	0.167797	0.378436
H173	H	1.169270	0.501130	0.711770
H174	H	1.502603	0.834464	1.045103
H175	H	1.053845	-0.075675	0.621455
H176	H	1.387179	0.257659	0.954789
H177	H	1.720512	0.590992	1.288122
H178	H	1.064055	-0.216620	-0.000045
H179	H	1.397389	0.116714	0.333288
H180	H	1.730722	0.450047	0.666622
F181	F	0.820711	-0.529997	-0.000075
F182	F	1.154045	-0.196664	0.333258
F183	F	1.487378	0.136670	0.666592
H184	H	1.019613	-0.037455	0.378407
H185	H	1.352947	0.295878	0.711740
H186	H	1.686280	0.629211	1.045073
F187	F	0.806951	-0.697924	-0.000062
F188	F	1.140284	-0.364591	0.333272
F189	F	1.473617	-0.031257	0.666605
F190	F	0.356655	-0.129314	-0.000055
F191	F	0.689988	0.204020	0.333278
F192	F	1.023322	0.537353	0.666611
F193	F	1.058560	-0.080922	0.797551
F194	F	1.391894	0.252411	1.130885
F195	F	1.725227	0.585745	1.464218
F196	F	1.103183	-0.755724	-0.000065
F197	F	1.436516	-0.422391	0.333268
F198	F	1.769850	-0.089057	0.666602
F199	F	0.786597	-0.152144	-0.000056
F200	F	1.119930	0.181189	0.333278
F201	F	1.453263	0.514522	0.666611
F202	F	0.185477	-0.121210	-0.000067
F203	F	0.518810	0.212123	0.333266
F204	F	0.852144	0.545457	0.666600
F205	F	0.533131	0.221444	-0.000072
F206	F	0.866464	0.554777	0.333261
F207	F	1.199797	0.888110	0.666594
F208	F	0.724651	-0.082893	-0.000028
F209	F	1.057984	0.250440	0.333305
F210	F	1.391318	0.583773	0.666638
H211	H	1.098172	-0.594461	-0.000062
H212	H	1.431506	-0.261128	0.333271
H213	H	1.764839	0.072206	0.666604
F214	F	0.849567	0.152626	0.797577
F215	F	1.182900	0.485960	1.130910
F216	F	1.516233	0.819293	1.464243
F217	F	1.040224	-0.060493	0.202317
F218	F	1.373557	0.272840	0.535651
F219	F	1.706890	0.606174	0.868984
H220	H	0.791612	-0.313414	-0.000062
H221	H	1.124945	0.019919	0.333271
H222	H	1.458279	0.353252	0.666604
H223	H	0.176737	0.156591	-0.000080
H224	H	0.510070	0.489925	0.333254
H225	H	0.843404	0.823258	0.666587
F226	F	0.336305	0.166914	-0.000085
F227	F	0.669638	0.500247	0.333249
F228	F	1.002972	0.833581	0.666582
F229	F	0.553484	-0.074791	-0.000069
F230	F	0.886817	0.258542	0.333264
F231	F	1.220151	0.591875	0.666598
F232	F	0.858017	0.143148	0.610136
F233	F	1.191351	0.476481	0.943469
F234	F	1.524684	0.809815	1.276802
H235	H	0.843367	0.159477	0.213691
H236	H	1.176701	0.492810	0.547025
H237	H	1.510034	0.826144	0.880358
H238	H	1.051959	-0.364203	-0.000058
H239	H	1.385293	-0.030869	0.333276
H240	H	1.718626	0.302464	0.666609
