data_functionalizedCrystal
_audit_creation_method	'MofGen! by Chris Wilmer'
_symmetry_space_group_name_H-M	'P1'
_symmetry_Int_Tables_number	1
_symmetry_cell_setting	triclinic
loop_
_symmetry_equiv_pos_as_xyz
  x,y,z
_cell_length_a	16.956984
_cell_length_b	6.394989
_cell_length_c	15.455313
_cell_angle_alpha	87.254133
_cell_angle_beta	87.518126
_cell_angle_gamma	98.724435
loop_
_atom_site_label
_atom_site_type_symbol
_atom_site_fract_x
_atom_site_fract_y
_atom_site_fract_z
O1	O	1.062305	-0.076670	-0.072133
O2	O	0.830883	-0.149877	-0.072133
O3	O	0.949879	0.191358	-0.072134
O4	O	0.943309	-0.417905	-0.072132
O5	O	0.943073	0.171920	0.072129
O6	O	0.824078	-0.169315	0.072130
O7	O	1.055500	-0.096108	0.072129
Cu8	Cu	0.939167	-0.134486	0.085302
Cu9	Cu	0.947215	-0.111498	-0.085305
O10	O	0.936504	-0.437343	0.072130
C11	C	0.797810	-0.163345	-0.000001
C12	C	0.709401	-0.174490	-0.000001
C13	C	0.675444	0.011856	-0.000000
C14	C	0.592375	0.001372	-0.000006
C15	C	0.543263	-0.195460	-0.000008
C16	C	0.577226	-0.381819	-0.000011
C17	C	0.660294	-0.371333	-0.000011
C18	C	0.294013	-0.247366	-0.000014
C19	C	0.210939	-0.257839	-0.000011
C20	C	0.226094	0.125354	-0.000008
C21	C	0.309163	0.135822	-0.000002
C22	C	0.343118	-0.050536	-0.000011
N23	N	0.458353	-0.206181	-0.000011
N24	N	0.428028	-0.039812	-0.000013
C25	C	1.088573	-0.082640	-0.000004
C26	C	1.176982	-0.071494	-0.000010
C27	C	0.945177	0.259237	-0.000006
C28	C	0.941208	0.494786	-0.000007
N29	N	0.933512	-0.150652	0.205297
N30	N	0.952877	-0.095315	-0.205301
C31	C	0.984084	-0.005730	0.250691
C32	C	0.979815	-0.017974	0.341499
C33	C	0.924978	-0.175150	0.386911
C34	C	0.874400	-0.320079	0.341511
C35	C	0.878666	-0.307824	0.250705
C36	C	0.906565	-0.227989	0.658493
C37	C	0.902304	-0.240237	0.749306
C38	C	1.007719	0.061872	0.749287
C39	C	1.011984	0.074105	0.658479
C40	C	0.961403	-0.070817	0.613087
N41	N	0.920614	-0.187673	0.479732
N42	N	0.965763	-0.058283	0.520268
H43	H	0.564731	0.153114	-0.000006
H44	H	1.056637	0.202090	0.621506
H45	H	0.865381	-0.345994	0.621542
H46	H	0.715426	0.172138	0.000004
H47	H	0.687940	-0.523075	-0.000008
H48	H	0.537233	-0.542083	-0.000018
C49	C	1.087846	0.291672	0.259803
C50	C	1.044363	0.167049	0.200778
H51	H	1.125055	0.398351	0.228988
H52	H	1.115686	0.204998	0.295206
H53	H	1.052286	0.356213	0.295235
H54	H	1.079923	0.102496	0.165350
H55	H	1.016523	0.253736	0.165360
C56	C	0.144972	0.345856	-0.074173
C57	C	0.188770	0.330193	-0.000011
H58	H	0.121936	0.472330	-0.074178
H59	H	0.103839	0.227147	-0.074164
H60	H	0.179446	0.348749	-0.124473
H61	H	0.154295	0.327284	0.050290
H62	H	0.229908	0.448933	-0.000011
C63	C	0.989464	0.255014	0.443613
C64	C	1.035412	0.141330	0.391389
H65	H	1.023791	0.353376	0.474406
H66	H	0.956203	0.159671	0.483655
H67	H	0.957246	0.329124	0.408190
H68	H	1.067626	0.067207	0.426813
H69	H	1.068687	0.236687	0.351342
C70	C	0.310127	-0.560762	-0.074179
C71	C	0.331314	-0.452233	-0.000020
H72	H	0.333151	-0.687256	-0.074180
H73	H	0.329237	-0.473550	-0.124476
H74	H	0.253624	-0.595115	-0.074166
H75	H	0.387818	-0.417866	-0.000037
H76	H	0.312209	-0.539463	0.050290
C77	C	1.049519	0.427074	0.777243
C78	C	1.063305	0.221186	0.799185
H79	H	1.083838	0.525435	0.808045
H80	H	0.995473	0.438589	0.792141
H81	H	1.059911	0.456836	0.716662
H82	H	1.052907	0.191417	0.859765
H83	H	1.117363	0.209663	0.784292
C84	C	0.798508	-0.537592	0.740208
C85	C	0.842010	-0.412990	0.799225
H86	H	0.761283	-0.644223	0.771029
H87	H	0.834049	-0.602177	0.704782
H88	H	0.770678	-0.450878	0.704798
H89	H	0.869845	-0.499702	0.834632
H90	H	0.806465	-0.348403	0.834666
H91	H	0.829746	-0.448049	0.378491
C92	C	0.774048	-0.607692	0.259839
C93	C	0.823079	-0.467136	0.200805
H94	H	0.739733	-0.706049	0.229031
H95	H	0.742882	-0.530576	0.295266
H96	H	0.806279	-0.681800	0.295246
H97	H	0.790848	-0.393017	0.165402
H98	H	0.854247	-0.544260	0.165362
H99	H	0.170953	-0.418132	-0.000008
H100	H	0.349144	0.296103	0.000002
