data_functionalizedCrystal
_audit_creation_method	'MofGen! by Chris Wilmer'
_symmetry_space_group_name_H-M	'P1'
_symmetry_Int_Tables_number	1
_symmetry_cell_setting	triclinic
loop_
_symmetry_equiv_pos_as_xyz
  x,y,z
_cell_length_a	12.759401
_cell_length_b	21.295416
_cell_length_c	12.759393
_cell_angle_alpha	90.036697
_cell_angle_beta	89.981504
_cell_angle_gamma	89.969508
loop_
_atom_site_label
_atom_site_type_symbol
_atom_site_fract_x
_atom_site_fract_y
_atom_site_fract_z
Zn1	Zn	1.606141	0.250569	-0.593944
Zn2	Zn	1.605988	0.355853	-0.418248
Zn3	Zn	1.430443	0.250602	-0.418283
Zn4	Zn	1.430384	0.355805	-0.593890
O5	O	1.518239	0.303208	-0.506091
O6	O	1.753142	0.264542	-0.570645
O7	O	1.582662	0.341926	-0.271232
O8	O	1.453839	0.162509	-0.441622
O9	O	1.753029	0.341894	-0.441563
O10	O	1.582924	0.162484	-0.570679
O11	O	1.453690	0.264598	-0.271257
O12	O	1.283414	0.264551	-0.441570
O13	O	1.453738	0.341811	-0.740918
O14	O	1.283371	0.341843	-0.570587
O15	O	1.582866	0.264495	-0.740958
O16	O	1.582604	0.443936	-0.441510
O17	O	1.453589	0.443901	-0.570553
C18	C	1.245272	0.303196	-0.506077
C19	C	1.128495	0.303206	-0.506096
C20	C	1.073638	0.343516	-0.573164
C21	C	0.963914	0.343524	-0.573175
C22	C	0.963914	0.262910	-0.439041
C23	C	1.073636	0.262899	-0.439036
C24	C	1.128497	0.383823	-0.640224
C25	C	1.073640	0.424137	-0.707296
C26	C	0.963916	0.424145	-0.707308
C27	C	0.909049	0.383839	-0.640247
C28	C	1.518102	0.466759	-0.506045
C29	C	1.518140	0.536727	-0.506060
C30	C	1.585378	0.569592	-0.438939
C31	C	1.585427	0.635334	-0.438967
C32	C	1.518220	0.668210	-0.506106
C33	C	1.450977	0.635338	-0.573240
C34	C	1.450937	0.569596	-0.573218
N35	N	1.426313	0.771475	-0.514118
N36	N	1.426355	0.833927	-0.514133
C37	C	1.518339	0.866284	-0.506180
N38	N	1.610282	0.833832	-0.498191
N39	N	1.610240	0.771375	-0.498170
C40	C	1.518257	0.739495	-0.506139
C41	C	1.585636	0.970434	-0.439086
C42	C	1.585688	1.036178	-0.439122
C43	C	1.451228	1.036180	-0.573390
C44	C	1.451186	0.970438	-0.573359
C45	C	1.518389	0.937569	-0.506202
C46	C	1.792272	0.303220	-0.506106
C47	C	1.909049	0.303225	-0.506113
C48	C	1.518406	1.139017	-0.506179
C49	C	1.518481	1.069049	-0.506263
C50	C	1.518313	0.303144	-0.780125
C51	C	1.518344	0.303117	-0.896901
C52	C	1.585590	0.262855	-0.951786
C53	C	1.585615	0.262832	-1.061510
C54	C	1.451145	0.343339	-1.061456
C55	C	1.451115	0.343358	-0.951733
C56	C	1.652819	0.222613	-0.896954
C57	C	1.720072	0.182348	-0.951838
C58	C	1.720097	0.182325	-1.061563
C59	C	1.652869	0.222568	-1.116402
C60	C	1.518226	0.303225	-0.233124
C61	C	1.518398	0.303075	-0.116348
H62	H	1.118319	0.456949	-0.761902
H63	H	1.640360	0.943671	-0.384406
C64	C	0.788348	0.383850	-0.640264
N65	N	0.697438	0.383862	-0.640273
H66	H	1.396341	0.376134	-0.907045
H67	H	0.919233	0.230095	-0.384442
H68	H	1.640448	1.062935	-0.384465
C69	C	1.377201	0.387604	-1.121784
N70	N	1.321507	0.420945	-1.167222
C71	C	1.794071	0.138031	-1.121933
N72	N	1.849795	0.104670	-1.167401
C73	C	1.659392	0.671492	-0.365120
N74	N	1.715100	0.698724	-0.309495
H75	H	1.118302	0.230070	-0.384431
C76	C	1.249195	0.383834	-0.640191
N77	N	1.340106	0.383847	-0.640156
C78	C	1.659292	0.533439	-0.365052
N79	N	1.714960	0.506209	-0.309395
C80	C	1.377045	0.671502	-0.647090
N81	N	1.321358	0.698741	-0.702716
H82	H	1.396183	0.542838	-0.627877
C83	C	1.377301	1.072340	-0.647246
N84	N	1.321619	1.099578	-0.702877
H85	H	1.396430	0.943678	-0.628012
H86	H	1.774799	0.149580	-0.907181
H87	H	1.652808	0.222629	-0.807611
H88	H	1.652883	0.222539	-1.205747
C89	C	0.903576	0.468493	-0.781085
N90	N	0.858130	0.501902	-0.836649
