data_functionalizedCrystal
_audit_creation_method	'MofGen! by Chris Wilmer'
_symmetry_space_group_name_H-M	'P1'
_symmetry_Int_Tables_number	1
_symmetry_cell_setting	triclinic
loop_
_symmetry_equiv_pos_as_xyz
  x,y,z
_cell_length_a	19.188930
_cell_length_b	18.266242
_cell_length_c	14.044220
_cell_angle_alpha	89.993114
_cell_angle_beta	91.833172
_cell_angle_gamma	90.022918
loop_
_atom_site_label
_atom_site_type_symbol
_atom_site_fract_x
_atom_site_fract_y
_atom_site_fract_z
O1	O	0.933784	0.061120	-0.118310
O2	O	0.731500	0.061071	-0.134236
O3	O	0.829606	0.061087	0.011699
O4	O	0.835678	0.061103	-0.264245
O5	O	0.829587	-0.060675	0.011707
O6	O	0.731482	-0.060691	-0.134229
O7	O	0.933765	-0.060642	-0.118302
Zn8	Zn	0.832620	-0.079999	-0.126264
Zn9	Zn	0.832645	0.080428	-0.126274
O10	O	0.835660	-0.060659	-0.264237
C11	C	0.705447	0.000183	-0.133716
C12	C	0.627842	0.000164	-0.132168
C13	C	0.588444	0.000180	-0.217798
C14	C	0.515526	0.000188	-0.216344
C15	C	0.482010	0.000194	-0.129254
C16	C	0.521417	0.000174	-0.043613
C17	C	0.594333	0.000159	-0.045070
N18	N	0.369740	0.041661	-0.062688
N19	N	0.300473	0.041677	-0.061310
C20	C	0.262318	0.000239	-0.124859
N21	N	0.296046	-0.041207	-0.189854
N22	N	0.365320	-0.041219	-0.191235
C23	C	0.402945	0.000211	-0.127665
C24	C	0.143854	0.000263	-0.208918
C25	C	0.070935	0.000266	-0.207460
C26	C	0.076827	0.000259	-0.034727
C27	C	0.149744	0.000249	-0.036188
C28	C	0.183253	0.000254	-0.123286
N29	N	0.832609	-0.189486	-0.126257
C30	C	0.876067	-0.227787	-0.061668
C31	C	0.876072	-0.304432	-0.061664
C32	C	0.832625	-0.342773	-0.126264
C33	C	0.789158	-0.304462	-0.190858
C34	C	0.789149	-0.227819	-0.190854
N35	N	0.828962	-0.463102	-0.210153
N36	N	0.828974	-0.535910	-0.210153
C37	C	0.832645	-0.573695	-0.126278
N38	N	0.836318	-0.535922	-0.042400
N39	N	0.836310	-0.463107	-0.042400
C40	C	0.832628	-0.425880	-0.126275
C41	C	0.876111	-0.695104	-0.061679
C42	C	0.876110	-0.771750	-0.061674
C43	C	0.789200	-0.771778	-0.190876
C44	C	0.789197	-0.695134	-0.190873
C45	C	0.832656	-0.656801	-0.126276
C46	C	0.959819	0.000247	-0.118822
C47	C	1.037423	0.000271	-0.120370
C48	C	0.826938	0.000206	0.047006
C49	C	0.819010	0.000203	0.152199
N50	N	0.832662	0.189915	-0.126274
C51	C	0.838327	0.000225	-0.299545
C52	C	0.846256	0.000233	-0.404737
C53	C	0.804514	0.000210	0.344801
C54	C	0.860749	0.000226	0.402667
C55	C	0.852683	0.000230	0.509837
C56	C	0.812578	0.000206	0.237621
H57	H	0.483442	0.000200	-0.286076
C58	C	0.625299	0.000171	-0.313609
N59	N	0.653060	0.000160	-0.385775
C60	C	0.933973	0.000233	0.360862
N61	N	0.989123	0.000235	0.329370
C62	C	0.731295	0.000182	0.386606
N63	N	0.676147	0.000155	0.418105
C64	C	0.180716	0.000260	-0.304727
N65	N	0.208478	0.000256	-0.376891
C66	C	0.484548	0.000181	0.052186
N67	N	0.456778	0.000185	0.124344
H68	H	0.911453	-0.196579	-0.009067
C69	C	0.741408	-0.813949	-0.261938
N70	N	0.705410	-0.845715	-0.315464
C71	C	0.027597	0.000274	-0.301665
N72	N	-0.005046	0.000277	-0.372622
H73	H	0.049539	0.000310	0.036183
C74	C	0.637673	0.000145	0.049134
N75	N	0.670317	0.000138	0.120090
H76	H	0.911462	-0.335623	-0.009066
C77	C	0.193084	0.000239	0.058014
N78	N	0.225728	0.000231	0.128970
C79	C	0.741372	-0.185686	-0.261951
N80	N	0.705398	-0.153950	-0.315518
C81	C	0.741363	-0.346638	-0.261914
N82	N	0.705359	-0.378405	-0.315433
H83	H	0.911496	-0.663892	-0.009077
C84	C	0.923908	-0.813881	0.009399
N85	N	0.959907	-0.845615	0.062936
H86	H	0.753811	-0.663947	-0.243471
