data_functionalizedCrystal
_audit_creation_method	'MofGen! by Chris Wilmer'
_symmetry_space_group_name_H-M	'P1'
_symmetry_Int_Tables_number	1
_symmetry_cell_setting	triclinic
loop_
_symmetry_equiv_pos_as_xyz
  x,y,z
_cell_length_a	19.188933
_cell_length_b	19.188924
_cell_length_c	13.448316
_cell_angle_alpha	89.991325
_cell_angle_beta	89.994651
_cell_angle_gamma	83.143767
loop_
_atom_site_label
_atom_site_type_symbol
_atom_site_fract_x
_atom_site_fract_y
_atom_site_fract_z
O1	O	0.926144	0.087176	-0.082663
O2	O	0.722832	0.098909	-0.082673
O3	O	0.830358	-0.008614	-0.082656
O4	O	0.818619	0.194698	-0.082680
O5	O	0.830344	-0.008620	0.082728
O6	O	0.722819	0.098902	0.082711
O7	O	0.926130	0.087169	0.082721
Cu8	Cu	0.824473	0.093035	0.097817
Cu9	Cu	0.824489	0.093043	-0.097769
O10	O	0.818605	0.194692	0.082704
C11	C	0.696815	0.098525	0.000018
C12	C	0.619310	0.097384	0.000014
C13	C	0.829972	-0.034628	0.000037
C14	C	0.828833	-0.112133	0.000039
C15	C	0.066062	0.089242	-0.090125
C16	C	0.138887	0.090311	-0.090129
C17	C	0.175296	0.090844	0.000022
C18	C	0.138878	0.090292	0.090183
C19	C	0.066056	0.089217	0.090184
N20	N	0.284310	0.132260	0.067120
N21	N	0.353487	0.133283	0.067112
C22	C	0.394705	0.094082	0.000023
N23	N	0.364130	0.053829	-0.067074
N24	N	0.294946	0.052809	-0.067069
C25	C	0.254260	0.092010	0.000030
C26	C	0.510079	0.095788	-0.090137
C27	C	0.582906	0.096852	-0.090137
C28	C	0.582895	0.096840	0.090177
C29	C	0.510071	0.095769	0.090175
C30	C	0.473667	0.095246	0.000015
C31	C	0.828309	-0.148528	-0.090112
C32	C	0.827229	-0.221351	-0.090119
C33	C	0.826687	-0.257777	0.000029
C34	C	0.827207	-0.221373	0.090192
C35	C	0.828280	-0.148550	0.090197
N36	N	0.864729	-0.377443	0.067126
N37	N	0.863712	-0.446621	0.067116
C38	C	0.823453	-0.477186	0.000019
N39	N	0.784259	-0.435961	-0.067080
N40	N	0.785280	-0.366777	-0.067072
C41	C	0.825523	-0.336741	0.000034
C42	C	0.821757	-0.592544	-0.090146
C43	C	0.820673	-0.665368	-0.090150
C44	C	0.820658	-0.665389	0.090164
C45	C	0.821736	-0.592566	0.090165
C46	C	0.822288	-0.556149	0.000008
C47	C	0.952148	0.087553	0.000028
C48	C	1.029653	0.088694	0.000024
C49	C	0.818991	0.220706	0.000009
C50	C	0.820130	0.298211	-0.000000
N51	N	0.824467	0.093029	0.235381
N52	N	0.824501	0.093043	-0.235333
C53	C	0.872094	0.045438	0.287429
C54	C	0.872099	0.045437	0.391532
C55	C	0.824479	0.093032	0.443585
C56	C	0.776847	0.140626	0.391530
C57	C	0.776840	0.140622	0.287429
C58	C	0.776866	0.140630	0.608510
C59	C	0.776874	0.140635	0.712619
C60	C	0.872125	0.045445	0.712613
C61	C	0.872118	0.045442	0.608512
C62	C	0.824487	0.093037	0.556464
H63	H	0.168537	0.090761	-0.163541
H64	H	0.738078	0.179385	0.566136
H65	H	0.738071	0.179376	0.433918
C66	C	0.479634	0.155475	-0.243829
C67	C	0.470058	0.095207	-0.189236
H68	H	0.454930	0.155114	-0.305010
H69	H	0.462248	0.195995	-0.206788
H70	H	0.528218	0.156181	-0.256727
H71	H	0.421474	0.094504	-0.176331
H72	H	0.487440	0.054676	-0.226285
C73	C	0.656773	0.158075	-0.194737
C74	C	0.622931	0.097454	-0.189236
H75	H	0.681487	0.158444	-0.255916
H76	H	0.622916	0.198355	-0.190989
H77	H	0.688877	0.158532	-0.141041
H78	H	0.590824	0.097000	-0.242928
H79	H	0.656792	0.057163	-0.192994
C80	C	0.829918	-0.036930	0.170264
C81	C	0.828860	-0.108540	0.189298
H82	H	0.830273	-0.012229	0.231446
H83	H	0.870802	-0.030447	0.133233
H84	H	0.789389	-0.019547	0.133216
H85	H	0.869392	-0.125924	0.226339
H86	H	0.787972	-0.115027	0.226344
H87	H	0.822203	-0.562891	-0.163558
H88	H	0.820242	-0.694999	-0.163565
H89	H	0.036411	0.088773	0.163597
C90	C	0.818980	-0.777022	0.170219
C91	C	0.820043	-0.705418	0.189259
H92	H	0.818596	-0.801735	0.231399
H93	H	0.778110	-0.783491	0.133162
H94	H	0.859523	-0.794404	0.133196
H95	H	0.779498	-0.688035	0.226276
H96	H	0.860917	-0.698945	0.226332
C97	C	0.694517	0.098482	0.170238
C98	C	0.622908	0.097424	0.189274
H99	H	0.719220	0.098844	0.231419
H100	H	0.711897	0.057957	0.133203
H101	H	0.700997	0.139370	0.133194
H102	H	0.616428	0.056533	0.226312
H103	H	0.605522	0.137953	0.226325
H104	H	0.822168	-0.562933	0.163576
C105	C	0.967162	0.030068	0.508590
C106	C	0.924452	-0.006871	0.448752
H107	H	0.999480	-0.002227	0.543921
H108	H	0.992179	0.059063	0.467964
H109	H	0.938790	0.058411	0.554480
H110	H	0.952824	-0.035210	0.402858
H111	H	0.899433	-0.035878	0.489382
H112	H	0.036427	0.088814	-0.163540
H113	H	0.168528	0.090725	0.163584
H114	H	0.910897	0.006690	0.566130
H115	H	0.910875	0.006684	0.245054
H116	H	0.910908	0.006692	0.754997
H117	H	0.480425	0.095325	0.163584
H118	H	0.828757	-0.118881	-0.163525
H119	H	0.738096	0.179391	0.754996
H120	H	0.738056	0.179375	0.245052
C121	C	0.827323	-0.214019	-0.268351
C122	C	0.826626	-0.261364	-0.189220
H123	H	0.826946	-0.238721	-0.329530
H124	H	0.787046	-0.180159	-0.264583
H125	H	0.868458	-0.191075	-0.264614
H126	H	0.785488	-0.284304	-0.192953
H127	H	0.866907	-0.295236	-0.192990
H128	H	0.826764	-0.251035	0.163592
