data_functionalizedCrystal
_audit_creation_method	'MofGen! by Chris Wilmer'
_symmetry_space_group_name_H-M	'P1'
_symmetry_Int_Tables_number	1
_symmetry_cell_setting	triclinic
loop_
_symmetry_equiv_pos_as_xyz
  x,y,z
_cell_length_a	18.101395
_cell_length_b	16.120566
_cell_length_c	16.120704
_cell_angle_alpha	90.137199
_cell_angle_beta	87.105894
_cell_angle_gamma	92.872739
loop_
_atom_site_label
_atom_site_type_symbol
_atom_site_fract_x
_atom_site_fract_y
_atom_site_fract_z
Zn1	Zn	-0.375355	-1.247277	0.534629
Zn2	Zn	-0.493202	-1.254237	0.395573
Zn3	Zn	-0.362794	-1.115298	0.388541
Zn4	Zn	-0.492564	-1.108168	0.527534
O5	O	-0.430979	-1.181245	0.461569
O6	O	-0.396511	-1.364564	0.522096
O7	O	-0.470914	-1.241703	0.278276
O8	O	-0.260832	-1.132876	0.407947
O9	O	-0.483093	-1.369678	0.419932
O10	O	-0.270060	-1.229841	0.515277
O11	O	-0.375104	-1.139625	0.273110
O12	O	-0.374485	-0.997988	0.401066
O13	O	-0.482006	-1.120725	0.644839
O14	O	-0.469826	-0.992750	0.503184
O15	O	-0.395893	-1.222927	0.650052
O16	O	-0.596746	-1.234790	0.413051
O17	O	-0.596277	-1.127474	0.510002
C18	C	-0.420724	-0.965197	0.450592
C19	C	-0.416355	-0.872770	0.445916
C20	C	-0.623383	-1.181135	0.461539
C21	C	-0.705699	-1.181163	0.461558
C22	C	-0.408362	-0.703544	0.437386
C23	C	-0.453659	-0.659786	0.485760
C24	C	-0.449212	-0.565623	0.481013
C25	C	-0.412809	-0.797716	0.442131
C26	C	-1.004801	-1.181343	0.461612
C27	C	-0.973225	-1.113963	0.522778
C28	C	-0.887584	-1.113669	0.522561
C29	C	-0.856413	-1.181253	0.461586
C30	C	-0.882661	-1.161989	0.372746
C31	C	-0.968303	-1.161556	0.373111
C32	C	-0.978282	-1.268167	0.488522
C33	C	-0.892689	-1.267551	0.490417
C34	C	-0.772550	-1.181204	0.461566
C35	C	-1.088663	-1.181390	0.461626
C36	C	-0.237825	-1.181377	0.461619
C37	C	-0.155515	-1.181434	0.461640
C38	C	-0.440279	-1.170254	0.678462
C39	C	-0.444242	-1.165571	0.770888
C40	C	-0.441276	-0.398137	0.472576
C41	C	-0.445669	-0.490565	0.477232
C42	C	-0.410591	-1.205473	0.983872
C43	C	-0.451446	-1.156992	0.940106
C44	C	-0.447437	-1.161767	0.845944
C45	C	-0.414600	-1.200700	1.078042
C46	C	-0.421738	-1.192192	1.245521
C47	C	-0.417797	-1.196892	1.153095
H48	H	-0.366246	-0.670289	0.392410
N49	N	-0.506504	-0.701489	0.542190
N50	N	-0.504555	-0.688008	0.618458
H51	H	-0.541877	-0.717464	0.658308
H52	H	-0.489430	-1.111895	0.973354
H53	H	-0.870026	-1.125205	0.588296
N54	N	-0.851027	-1.083406	0.344403
N55	N	-0.865271	-1.056678	0.274565
H56	H	-0.842932	-1.001177	0.254550
N57	N	-0.362940	-1.262033	0.942157
N58	N	-0.359714	-1.265877	0.864615
H59	H	-0.326063	-1.305823	0.835144
H60	H	-0.997281	-1.125341	0.588715
N61	N	-0.995665	-1.033606	0.500234
N62	N	-1.034810	-1.025745	0.439316
H63	H	-1.050661	-0.968993	0.423392
N64	N	-0.857288	-1.032819	0.499761
N65	N	-0.899403	-0.976436	0.483953
H66	H	-0.878007	-0.919332	0.467849
N67	N	-0.988602	-1.082110	0.345152
N68	N	-0.967166	-1.056785	0.274328
H69	H	-0.981499	-1.000674	0.254580
N70	N	-0.994256	-1.220737	0.313671
N71	N	-0.949116	-1.262223	0.272047
H72	H	-0.967441	-1.304010	0.230058
H73	H	-1.003563	-1.286600	0.552434
H74	H	-0.862308	-1.209717	0.325735
H75	H	-0.875955	-1.282160	0.555821
H76	H	-0.998772	-1.318312	0.444027
N77	N	-0.866464	-1.333406	0.439042
N78	N	-0.820408	-1.317737	0.380075
H79	H	-0.801888	-1.364245	0.343782
