data_functionalizedCrystal
_audit_creation_method	'MofGen! by Chris Wilmer'
_symmetry_space_group_name_H-M	'P1'
_symmetry_Int_Tables_number	1
_symmetry_cell_setting	triclinic
loop_
_symmetry_equiv_pos_as_xyz
  x,y,z
_cell_length_a	19.077236
_cell_length_b	19.121073
_cell_length_c	19.076919
_cell_angle_alpha	94.604058
_cell_angle_beta	89.887323
_cell_angle_gamma	94.857396
loop_
_atom_site_label
_atom_site_type_symbol
_atom_site_fract_x
_atom_site_fract_y
_atom_site_fract_z
Zn1	Zn	1.046913	-0.255828	-0.450992
Zn2	Zn	1.380246	0.077506	-0.117658
Zn3	Zn	1.713580	0.410839	0.215675
Zn4	Zn	1.046530	-0.368770	-0.338098
Zn5	Zn	1.379863	-0.035436	-0.004765
Zn6	Zn	1.713196	0.297897	0.328568
Zn7	Zn	0.934145	-0.255458	-0.328757
Zn8	Zn	1.267478	0.077875	0.004577
Zn9	Zn	1.600812	0.411208	0.337910
Zn10	Zn	0.923931	-0.378172	-0.451221
Zn11	Zn	1.257264	-0.044839	-0.117887
Zn12	Zn	1.590598	0.288495	0.215446
O13	O	0.987880	-0.314557	-0.392267
O14	O	1.321213	0.018776	-0.058934
O15	O	1.654546	0.352110	0.274400
O16	O	1.145364	-0.267030	-0.439830
O17	O	1.478697	0.066304	-0.106497
O18	O	1.812031	0.399637	0.226837
O19	O	1.035736	-0.349649	-0.238361
O20	O	1.369069	-0.016316	0.094972
O21	O	1.702403	0.317017	0.428305
O22	O	0.953539	-0.156885	-0.340966
O23	O	1.286872	0.176449	-0.007633
O24	O	1.620206	0.509782	0.325701
O25	O	1.145082	-0.350007	-0.356888
O26	O	1.478416	-0.016674	-0.023554
O27	O	1.811749	0.316659	0.309779
O28	O	1.036389	-0.157156	-0.430772
O29	O	1.369722	0.176177	-0.097438
O30	O	1.703056	0.509511	0.235895
O31	O	0.953167	-0.266400	-0.231498
O32	O	1.286501	0.066934	0.101835
O33	O	1.619834	0.400267	0.435169
O34	O	0.834288	-0.275517	-0.341188
O35	O	1.167622	0.057817	-0.007855
O36	O	1.500955	0.391150	0.325479
O37	O	0.936130	-0.366032	-0.549688
O38	O	1.269464	-0.032699	-0.216355
O39	O	1.602797	0.300634	0.116979
O40	O	0.826784	-0.365674	-0.431162
O41	O	1.160117	-0.032341	-0.097828
O42	O	1.493451	0.300993	0.235505
O43	O	1.026485	-0.276147	-0.549520
O44	O	1.359818	0.057187	-0.216187
O45	O	1.693152	0.390520	0.117147
O46	O	1.025832	-0.468640	-0.357110
O47	O	1.359165	-0.135306	-0.023776
O48	O	1.692498	0.198027	0.309557
O49	O	0.935759	-0.475547	-0.440220
O50	O	1.269092	-0.142214	-0.106887
O51	O	1.602425	0.191119	0.226447
C52	C	0.804996	-0.321576	-0.385186
C53	C	1.138329	0.011757	-0.051853
C54	C	1.471662	0.345091	0.281480
C55	C	0.726756	-0.324596	-0.382175
C56	C	1.060089	0.008737	-0.048842
C57	C	1.393422	0.342070	0.284492
C58	C	0.690139	-0.282888	-0.424015
C59	C	1.023473	0.050446	-0.090682
C60	C	1.356806	0.383779	0.242651
C61	C	0.616625	-0.285722	-0.421179
C62	C	0.949958	0.047611	-0.087846
C63	C	1.283292	0.380945	0.245487
C64	C	0.579728	-0.330269	-0.376506
C65	C	0.913061	0.003064	-0.043173
C66	C	1.246394	0.336397	0.290161
C67	C	0.616349	-0.371980	-0.334661
C68	C	0.949682	-0.038646	-0.001328
C69	C	1.283016	0.294687	0.332006
C70	C	0.689863	-0.369141	-0.337494
C71	C	1.023196	-0.035808	-0.004161
C72	C	1.356529	0.297526	0.329173
C73	C	0.359851	-0.343380	-0.363392
C74	C	0.693185	-0.010047	-0.030059
C75	C	1.026518	0.323287	0.303274
C76	C	0.286333	-0.346217	-0.360564
C77	C	0.619666	-0.012884	-0.027231
C78	C	0.952999	0.320450	0.306102
C79	C	0.286614	-0.259958	-0.447082
C80	C	0.619947	0.073375	-0.113748
C81	C	0.953280	0.406708	0.219585
C82	C	0.360128	-0.257127	-0.449914
C83	C	0.693461	0.076207	-0.116580
C84	C	1.026795	0.409540	0.216753
C85	C	0.396743	-0.298834	-0.408066
C86	C	0.730077	0.034499	-0.074733
C87	C	1.063410	0.367832	0.258601
N88	N	0.504584	-0.333169	-0.373608
N89	N	0.837917	0.000164	-0.040275
N90	N	1.171251	0.333497	0.293059
N91	N	0.471886	-0.295930	-0.410961
N92	N	0.805219	0.037403	-0.077628
N93	N	1.138553	0.370737	0.255706
C94	C	0.979664	-0.497665	-0.399720
C95	C	1.312997	-0.164332	-0.066386
C96	C	1.646330	0.169002	0.266947
C97	C	0.976212	-0.575998	-0.402934
C98	C	1.309546	-0.242665	-0.069601
C99	C	1.642879	0.090669	0.263733
C100	C	0.954359	-1.019217	-0.423339
C101	C	1.287692	-0.685883	-0.090006
C102	C	1.621026	-0.352550	0.243327
C103	C	0.957602	-0.945614	-0.420311
C104	C	1.290936	-0.612281	-0.086978
C105	C	1.624269	-0.278947	0.246355
C106	C	1.006152	-0.905196	-0.375560
C107	C	1.339486	-0.571862	-0.042226
C108	C	1.672819	-0.238529	0.291107
C109	C	1.051467	-0.938383	-0.333839
C110	C	1.384800	-0.605050	-0.000505
C111	C	1.718134	-0.271716	0.332828
C112	C	1.048227	-1.011984	-0.336871
C113	C	1.381560	-0.678651	-0.003537
C114	C	1.714893	-0.345317	0.329796
C115	C	1.018287	-0.682787	-0.364245
C116	C	1.351620	-0.349453	-0.030912
C117	C	1.684953	-0.016120	0.302422
C118	C	1.021522	-0.609181	-0.361214
C119	C	1.354856	-0.275847	-0.027881
C120	C	1.688189	0.057486	0.305452
C121	C	0.927658	-0.616417	-0.447688
C122	C	1.260991	-0.283084	-0.114355
C123	C	1.594325	0.050250	0.218978
C124	C	0.924419	-0.690019	-0.450713
C125	C	1.257752	-0.356686	-0.117380
C126	C	1.591086	-0.023352	0.215953
C127	C	0.969736	-0.723200	-0.408995
C128	C	1.303070	-0.389867	-0.075662
C129	C	1.636403	-0.056533	0.257671
C130	C	1.009467	-0.829962	-0.372462
C131	C	1.342800	-0.496629	-0.039129
C132	C	1.676134	-0.163295	0.294205
C133	C	0.966424	-0.798432	-0.412097
C134	C	1.299758	-0.465099	-0.078764
C135	C	1.633091	-0.131766	0.254570
C136	C	1.171478	-0.307511	-0.399375
C137	C	1.504811	0.025822	-0.066042
C138	C	1.838144	0.359156	0.267291
C139	C	1.249716	-0.304508	-0.402405
C140	C	1.583050	0.028825	-0.069071
C141	C	1.916383	0.362158	0.264262
C142	C	0.980211	-0.322179	-0.575858
C143	C	1.313544	0.011154	-0.242524
C144	C	1.646878	0.344487	0.090809
C145	C	0.976943	-0.325428	-0.654093
C146	C	1.310276	0.007906	-0.320760
C147	C	1.643610	0.341239	0.012574
C148	C	0.996146	-0.130734	-0.384801
C149	C	1.329480	0.202600	-0.051468
C150	C	1.662813	0.535933	0.281865
C151	C	0.999669	-0.052399	-0.381620
C152	C	1.333002	0.280934	-0.048286
C153	C	1.666336	0.614268	0.285047
C154	C	1.022448	-0.280157	-0.690762
C155	C	1.355782	0.053176	-0.357428
C156	C	1.689115	0.386510	-0.024095
C157	C	1.019369	-0.283207	-0.764272
C158	C	1.352703	0.050127	-0.430938
C159	C	1.686036	0.383460	-0.097605
C160	C	0.970788	-0.331531	-0.801112
C161	C	1.304121	0.001802	-0.467779
C162	C	1.637455	0.335136	-0.134445
C163	C	0.925278	-0.376803	-0.764438
C164	C	1.258611	-0.043470	-0.431105
C165	C	1.591945	0.289863	-0.097771
C166	C	0.928354	-0.373750	-0.690929
C167	C	1.261688	-0.040416	-0.357596
C168	C	1.595021	0.292917	-0.024262
C169	C	0.956541	-0.345679	-1.020969
C170	C	1.289874	-0.012345	-0.687636
C171	C	1.623207	0.320988	-0.354303
C172	C	0.953469	-0.348730	-1.094483
C173	C	1.286803	-0.015397	-0.761150
C174	C	1.620136	0.317936	-0.427817
C175	C	1.047560	-0.255132	-1.094312
C176	C	1.380893	0.078201	-0.760979
C177	C	1.714227	0.411534	-0.427645
C178	C	1.050634	-0.252086	-1.020802
C179	C	1.383968	0.081247	-0.687469
C180	C	1.717301	0.414581	-0.354135
C181	C	1.005122	-0.297356	-0.984134
C182	C	1.338456	0.035978	-0.650801
C183	C	1.671789	0.369311	-0.317467
N184	N	0.967641	-0.334651	-0.876251
N185	N	1.300974	-0.001318	-0.542918
N186	N	1.634308	0.332016	-0.209584
N187	N	1.008266	-0.294232	-0.908996
N188	N	1.341600	0.039101	-0.575663
N189	N	1.674933	0.372435	-0.242329
C190	C	0.995561	-0.306912	-0.209390
C191	C	1.328895	0.026422	0.123943
C192	C	1.662228	0.359755	0.457277
C193	C	0.998974	-0.303460	-0.131152
C194	C	1.332308	0.029874	0.202181
C195	C	1.665641	0.363207	0.535515
H196	H	0.719675	-0.403104	-0.303422
H197	H	1.053008	-0.069771	0.029911
H198	H	1.386341	0.263562	0.363244
H199	H	0.920708	-0.918598	-0.454283
H200	H	1.254041	-0.585264	-0.120950
H201	H	1.587375	-0.251931	0.212384
H202	H	0.891292	-0.410607	-0.661074
H203	H	1.224626	-0.077274	-0.327740
H204	H	1.557959	0.256060	0.005593
H205	H	0.884877	-0.722923	-0.487146
H206	H	1.218210	-0.389590	-0.153813
H207	H	1.551543	-0.056257	0.179520
H208	H	1.085125	-1.039000	-0.302900
H209	H	1.418458	-0.705667	0.030433
H210	H	1.751791	-0.372333	0.363767
Cl211	Cl	0.240579	-0.207528	-0.499685
Cl212	Cl	0.573912	0.125806	-0.166352
Cl213	Cl	0.907246	0.459139	0.166982
H214	H	0.720176	-0.246614	-0.460395
H215	H	1.053509	0.086719	-0.127061
H216	H	1.386842	0.420052	0.206272
H217	H	0.914825	-1.052121	-0.459782
H218	H	1.248158	-0.718787	-0.126448
H219	H	1.581492	-0.385454	0.206885
H220	H	1.084613	-0.218275	-1.124175
H221	H	1.417946	0.115058	-0.790841
H222	H	1.751279	0.448391	-0.457508
H223	H	1.062010	-0.240808	-0.660772
H224	H	1.395344	0.092525	-0.327438
H225	H	1.728677	0.425858	0.005895
Cl226	Cl	0.570596	-0.233288	-0.473783
Cl227	Cl	0.903929	0.100046	-0.140450
Cl228	Cl	1.237263	0.433379	0.192883
H229	H	0.390165	-0.220854	-0.486294
H230	H	0.723498	0.112479	-0.152960
H231	H	1.056831	0.445812	0.180373
Cl232	Cl	0.870696	-0.574699	-0.500136
Cl233	Cl	1.204029	-0.241366	-0.166802
Cl234	Cl	1.537363	0.091967	0.166531
H235	H	0.256293	-0.382496	-0.324186
H236	H	0.589626	-0.049163	0.009148
H237	H	0.922959	0.284170	0.342481
H238	H	0.389654	-0.377342	-0.329318
H239	H	0.722988	-0.044009	0.004016
H240	H	1.056321	0.289325	0.337349
H241	H	0.586302	-0.408248	-0.298284
H242	H	0.919635	-0.074914	0.035050
H243	H	1.252968	0.258419	0.368383
H244	H	0.913906	-0.388083	-1.124477
H245	H	1.247240	-0.054750	-0.791143
H246	H	1.580573	0.278583	-0.457810
H247	H	1.061060	-0.576274	-0.324770
H248	H	1.394393	-0.242941	0.008564
H249	H	1.727726	0.090392	0.341897
Cl250	Cl	1.075256	-0.724490	-0.311797
Cl251	Cl	1.408590	-0.391157	0.021536
Cl252	Cl	1.741923	-0.057824	0.354869
Cl253	Cl	0.899325	-0.402590	-0.974882
Cl254	Cl	1.232658	-0.069257	-0.641549
Cl255	Cl	1.565992	0.264076	-0.308216
H256	H	0.885720	-0.416147	-0.794439
H257	H	1.219053	-0.082814	-0.461106
H258	H	1.552387	0.250519	-0.127772
Cl259	Cl	0.905395	-0.849245	-0.468357
Cl260	Cl	1.238728	-0.515912	-0.135024
Cl261	Cl	1.572061	-0.182579	0.198310
Cl262	Cl	1.112506	-0.887571	-0.277583
Cl263	Cl	1.445839	-0.554237	0.055750
Cl264	Cl	1.779173	-0.220904	0.389083
H265	H	1.048996	-0.797047	-0.336023
H266	H	1.382330	-0.463714	-0.002690
H267	H	1.715663	-0.130380	0.330644
Cl268	Cl	1.076608	-0.226322	-0.810369
Cl269	Cl	1.409942	0.107011	-0.477036
Cl270	Cl	1.743275	0.440344	-0.143702
H271	H	1.090196	-0.212737	-0.990812
H272	H	1.423530	0.120596	-0.657478
H273	H	1.756863	0.453930	-0.324145
