data_functionalizedCrystal
_audit_creation_method	'MofGen! by Chris Wilmer'
_symmetry_space_group_name_H-M	'P1'
_symmetry_Int_Tables_number	1
_symmetry_cell_setting	triclinic
loop_
_symmetry_equiv_pos_as_xyz
  x,y,z
_cell_length_a	27.732048
_cell_length_b	27.732048
_cell_length_c	13.101039
_cell_angle_alpha	93.329410
_cell_angle_beta	86.675896
_cell_angle_gamma	82.642655
loop_
_atom_site_label
_atom_site_type_symbol
_atom_site_fract_x
_atom_site_fract_y
_atom_site_fract_z
O1	O	0.643602	0.054833	-0.085092
O2	O	1.143602	0.554833	0.414908
O3	O	0.502810	0.063577	-0.085125
O4	O	1.002810	0.563577	0.414875
O5	O	0.577578	-0.011191	-0.085088
O6	O	1.077578	0.488809	0.414912
O7	O	0.568834	0.129601	-0.085129
O8	O	1.068834	0.629601	0.414871
O9	O	0.572214	-0.005818	0.085339
O10	O	1.072214	0.494182	0.585339
O11	O	0.497445	0.068951	0.085302
O12	O	0.997445	0.568951	0.585302
O13	O	0.638238	0.060206	0.085335
O14	O	1.138238	0.560206	0.585335
Zn15	Zn	0.566990	0.065432	0.112378
Zn16	Zn	1.066990	0.565432	0.612378
Zn17	Zn	0.574058	0.058352	-0.112168
Zn18	Zn	1.074058	0.558352	0.387832
O19	O	0.563470	0.134975	0.085298
O20	O	1.063470	0.634975	0.585298
C21	C	0.482121	0.066080	0.000085
C22	C	0.982121	0.566080	0.500085
C23	C	0.428466	0.065527	0.000073
C24	C	0.928466	0.565527	0.500073
C25	C	0.089650	0.106232	0.000106
C26	C	0.589650	0.606232	0.500106
C27	C	-0.112010	0.104181	0.000115
C28	C	0.387990	0.604181	0.500115
O29	O	-0.143266	0.141403	0.000149
O30	O	0.356734	0.641403	0.500149
N31	N	-0.131134	0.059847	0.000127
N32	N	0.368866	0.559847	0.500127
C33	C	-0.099840	0.016021	0.000142
C34	C	0.400160	0.516021	0.500142
O35	O	-0.120733	-0.021735	0.000162
O36	O	0.379267	0.478265	0.500162
C37	C	0.101819	0.018073	0.000140
C38	C	0.601819	0.518073	0.500140
C39	C	0.120941	0.062410	0.000118
C40	C	0.620941	0.562410	0.500118
C41	C	0.108772	0.150566	0.000085
C42	C	0.608772	0.650566	0.500085
C43	C	0.159184	0.151078	0.000077
C44	C	0.659184	0.651078	0.500077
C45	C	0.190475	0.107256	0.000090
C46	C	0.690475	0.607256	0.500090
C47	C	0.171353	0.062922	0.000110
C48	C	0.671353	0.562922	0.500110
C49	C	0.133112	-0.025751	0.000162
C50	C	0.633112	0.474249	0.500162
C51	C	0.183529	-0.025235	0.000164
C52	C	0.683529	0.474765	0.500164
C53	C	0.202651	0.019103	0.000143
C54	C	0.702651	0.519103	0.500143
C55	C	0.253055	0.019612	0.000114
C56	C	0.753055	0.519612	0.500114
N57	N	0.272179	0.063947	0.000103
N58	N	0.772179	0.563947	0.500103
C59	C	0.240889	0.107769	0.000091
C60	C	0.740889	0.607769	0.500091
C61	C	-0.205714	0.014947	0.000141
C62	C	0.294286	0.514947	0.500141
C63	C	-0.256128	0.014434	0.000140
C64	C	0.243872	0.514434	0.500140
C65	C	-0.268295	0.102595	0.000115
C66	C	0.231705	0.602595	0.500115
C67	C	-0.217879	0.103107	0.000109
C68	C	0.282121	0.603107	0.500109
C69	C	-0.186590	0.059282	0.000130
C70	C	0.313410	0.559282	0.500130
C71	C	0.346759	0.108841	0.000073
C72	C	0.846759	0.608841	0.500073
C73	C	0.397176	0.109349	0.000061
C74	C	0.897176	0.609349	0.500061
C75	C	0.409338	0.021189	0.000091
C76	C	0.909338	0.521189	0.500091
C77	C	0.358925	0.020681	0.000098
C78	C	0.858925	0.520681	0.500098
C79	C	0.327636	0.064511	0.000092
C80	C	0.827636	0.564511	0.500092
O81	O	0.284340	-0.017589	0.000092
O82	O	0.784340	0.482411	0.500092
O83	O	0.261792	0.145521	0.000093
O84	O	0.761792	0.645521	0.500093
C85	C	0.039238	0.105720	0.000114
C86	C	0.539238	0.605720	0.500114
C87	C	0.020116	0.061386	0.000134
C88	C	0.520116	0.561386	0.500134
C89	C	0.051406	0.017564	0.000146
C90	C	0.551406	0.517564	0.500146
C91	C	-0.030298	0.060873	0.000133
C92	C	0.469702	0.560873	0.500133
C93	C	-0.061588	0.104695	0.000121
C94	C	0.438412	0.604695	0.500121
C95	C	-0.042464	0.149030	0.000109
C96	C	0.457536	0.649030	0.500109
C97	C	0.007948	0.149542	0.000101
C98	C	0.507948	0.649542	0.500101
C99	C	0.032282	-0.026770	0.000157
C100	C	0.532282	0.473230	0.500157
C101	C	-0.018130	-0.027279	0.000164
C102	C	0.481870	0.472721	0.500164
C103	C	-0.049421	0.016543	0.000152
C104	C	0.450579	0.516543	0.500152
C105	C	0.574712	-0.026511	0.000128
C106	C	1.074712	0.473489	0.500128
C107	C	0.574159	-0.080166	0.000137
C108	C	1.074159	0.419834	0.500137
C109	C	0.614864	-0.418982	0.000093
C110	C	1.114864	0.081018	0.500093
C111	C	0.612814	-0.620642	0.000079
C112	C	1.112814	-0.120642	0.500079
O113	O	0.650036	-0.651899	0.000042
O114	O	1.150036	-0.151899	0.500042
N115	N	0.568479	-0.639766	0.000069
N116	N	1.068479	-0.139766	0.500069
C117	C	0.524654	-0.608472	0.000057
C118	C	1.024654	-0.108472	0.500057
O119	O	0.486898	-0.629366	0.000038
O120	O	0.986898	-0.129366	0.500038
C121	C	0.526705	-0.406813	0.000064
C122	C	1.026705	0.093187	0.500064
C123	C	0.571043	-0.387692	0.000084
C124	C	1.071043	0.112308	0.500084
C125	C	0.659198	-0.399860	0.000112
C126	C	1.159198	0.100140	0.500112
C127	C	0.659710	-0.349448	0.000121
C128	C	1.159710	0.150552	0.500121
C129	C	0.615888	-0.318158	0.000112
C130	C	1.115888	0.181842	0.500112
C131	C	0.571554	-0.337279	0.000093
C132	C	1.071554	0.162721	0.500093
C133	C	0.482881	-0.375520	0.000045
C134	C	0.982881	0.124480	0.500045
C135	C	0.483397	-0.325103	0.000044
C136	C	0.983397	0.174897	0.500044
C137	C	0.527735	-0.305981	0.000064
C138	C	1.027735	0.194019	0.500064
C139	C	0.528245	-0.255577	0.000093
C140	C	1.028245	0.244423	0.500093
N141	N	0.572579	-0.236453	0.000103
N142	N	1.072579	0.263547	0.500103
C143	C	0.616401	-0.267743	0.000112
C144	C	1.116401	0.232257	0.500112
C145	C	0.523580	-0.714346	0.000055
C146	C	1.023580	-0.214346	0.500055
C147	C	0.523067	-0.764760	0.000055
C148	C	1.023067	-0.264760	0.500055
C149	C	0.611227	-0.776927	0.000075
C150	C	1.111227	-0.276927	0.500075
C151	C	0.611740	-0.726512	0.000082
C152	C	1.111740	-0.226512	0.500082
C153	C	0.567915	-0.695222	0.000064
C154	C	1.067915	-0.195222	0.500064
C155	C	0.617473	-0.161873	0.000132
C156	C	1.117473	0.338127	0.500132
C157	C	0.617981	-0.111456	0.000146
C158	C	1.117981	0.388544	0.500146
C159	C	0.529821	-0.099294	0.000121
C160	C	1.029821	0.400706	0.500121
C161	C	0.529313	-0.149707	0.000113
C162	C	1.029313	0.350293	0.500113
C163	C	0.573143	-0.180996	0.000115
C164	C	1.073143	0.319004	0.500115
O165	O	0.491043	-0.224292	0.000118
O166	O	0.991043	0.275708	0.500118
O167	O	0.654153	-0.246841	0.000108
O168	O	1.154153	0.253159	0.500108
C169	C	0.614352	-0.469394	0.000084
C170	C	1.114352	0.030606	0.500084
C171	C	0.570019	-0.488516	0.000066
C172	C	1.070019	0.011484	0.500066
C173	C	0.526197	-0.457226	0.000056
C174	C	1.026197	0.042774	0.500056
C175	C	0.569506	-0.538931	0.000065
C176	C	1.069506	-0.038931	0.500065
C177	C	0.613327	-0.570221	0.000075
C178	C	1.113327	-0.070221	0.500075
C179	C	0.657662	-0.551097	0.000084
C180	C	1.157662	-0.051097	0.500084
C181	C	0.658174	-0.500685	0.000093
C182	C	1.158174	-0.000685	0.500093
C183	C	0.481862	-0.476350	0.000047
C184	C	0.981862	0.023650	0.500047
C185	C	0.481353	-0.526763	0.000039
C186	C	0.981353	-0.026763	0.500039
C187	C	0.525175	-0.558053	0.000048
C188	C	1.025175	-0.058053	0.500048
C189	C	0.658927	0.057703	0.000123
C190	C	1.158927	0.557703	0.500123
C191	C	0.712582	0.058256	0.000128
C192	C	1.212582	0.558256	0.500128
C193	C	0.566336	0.150295	0.000079
C194	C	1.066336	0.650295	0.500079
C195	C	0.566889	0.203949	0.000064
C196	C	1.066889	0.703949	0.500064
N197	N	0.562170	0.070263	0.265624
N198	N	1.062170	0.570263	0.765624
N199	N	0.578882	0.053517	-0.265414
N200	N	1.078882	0.553517	0.234586
C201	C	0.555611	0.076841	0.474663
C202	C	1.055611	0.576841	0.974663
C203	C	0.585439	0.046941	0.525553
C204	C	1.085439	0.546941	1.025553
C205	C	0.581790	0.050601	0.641870
C206	C	1.081790	0.550601	1.141870
C207	C	0.559260	0.073181	0.358336
C208	C	1.059260	0.573181	0.858336
H209	H	0.412742	0.145455	0.000043
H210	H	0.912742	0.645455	0.500043
H211	H	0.695815	-0.333885	0.000133
H212	H	1.195815	0.166115	0.500133
C213	C	0.660514	-0.705484	0.000095
C214	C	1.160514	-0.205484	0.500095
N215	N	0.697253	-0.689648	0.000101
N216	N	1.197253	-0.189648	0.500101
C217	C	0.706950	-0.479659	0.000108
C218	C	1.206950	0.020341	0.500108
N219	N	0.743690	-0.463825	0.000117
N220	N	1.243690	0.036175	0.500117
H221	H	0.321288	0.144532	0.000072
H222	H	0.821288	0.644532	0.500072
H223	H	0.446176	-0.450878	0.000037
H224	H	0.946176	0.049122	0.500037
H225	H	0.613715	0.018595	0.481765
H226	H	1.113715	0.518595	0.981765
C227	C	0.517413	0.115133	0.533816
C228	C	1.017413	0.615133	1.033816
N229	N	0.488642	0.143974	0.578382
N230	N	0.988642	0.643974	1.078382
H231	H	0.174748	0.187182	0.000059
H232	H	0.674748	0.687182	0.500059
H233	H	-0.293780	0.138276	0.000106
H234	H	0.206220	0.638276	0.500106
H235	H	-0.033693	-0.063387	0.000174
H236	H	0.466307	0.436613	0.500174
C237	C	0.480540	-0.170740	0.000098
C238	C	0.980540	0.329260	0.500098
N239	N	0.443803	-0.186580	0.000075
N240	N	0.943803	0.313420	0.500075
C241	C	0.074360	0.198778	0.000076
C242	C	0.574360	0.698778	0.500076
N243	N	0.048443	0.235094	0.000062
N244	N	0.548443	0.735094	0.500062
H245	H	0.434824	-0.014489	0.000097
H246	H	0.934824	0.485511	0.500097
C247	C	0.705867	-0.585526	0.000092
C248	C	1.205867	-0.085526	0.500092
N249	N	0.742172	-0.611461	0.000092
N250	N	1.242172	-0.111461	0.500092
C251	C	0.217946	-0.073447	0.000183
C252	C	0.717946	0.426553	0.500183
N253	N	0.243867	-0.109760	0.000193
N254	N	0.743867	0.390240	0.500193
C255	C	0.474292	-0.785787	0.000046
C256	C	0.974292	-0.285787	0.500046
N257	N	0.437553	-0.801623	0.000033
N258	N	0.937553	-0.301623	0.500033
H259	H	-0.271691	-0.021670	0.000141
H260	H	0.228309	0.478330	0.500141
C261	C	-0.196851	0.151881	0.000097
C262	C	0.303149	0.651881	0.500097
N263	N	-0.181016	0.188620	0.000092
N264	N	0.318984	0.688620	0.500092
H265	H	-0.180241	-0.020742	0.000158
H266	H	0.319759	0.479258	0.500158
H267	H	0.117553	-0.061856	0.000181
H268	H	0.617553	0.438144	0.500181
C269	C	0.066696	-0.074981	0.000166
C270	C	0.566696	0.425019	0.500166
N271	N	0.092614	-0.111297	0.000166
N272	N	0.592614	0.388703	0.500166
H273	H	0.343357	-0.015423	0.000100
H274	H	0.843357	0.484577	0.500100
H275	H	0.487890	-0.688874	0.000041
H276	H	0.987890	-0.188874	0.500041
H277	H	0.023511	0.185646	0.000085
H278	H	0.523511	0.685646	0.500085
C279	C	-0.076894	0.197234	0.000100
C280	C	0.423106	0.697234	0.500100
N281	N	-0.102828	0.233540	0.000100
N282	N	0.397172	0.733540	0.500100
C283	C	0.665688	-0.196284	0.000144
C284	C	1.165688	0.303716	0.500144
N285	N	0.702004	-0.222202	0.000162
N286	N	1.202004	0.277798	0.500162
H287	H	0.654088	-0.095890	0.000164
H288	H	1.154088	0.404110	0.500164
H289	H	0.694886	-0.425333	0.000116
H290	H	1.194886	0.074667	0.500116
C291	C	0.435185	-0.290686	0.000028
C292	C	0.935185	0.209314	0.500028
N293	N	0.398872	-0.264765	0.000020
N294	N	0.898872	0.235235	0.500020
H295	H	0.646909	-0.802413	0.000083
H296	H	1.146909	-0.302413	0.500083
C297	C	0.434105	-0.396542	0.000016
C298	C	0.934105	0.103458	0.500016
N299	N	0.397365	-0.412374	-0.000009
N300	N	0.897365	0.087626	0.499991
H301	H	0.494143	-0.073808	0.000117
H302	H	0.994143	0.426192	0.500117
H303	H	0.445245	-0.542326	0.000032
H304	H	0.945245	-0.042326	0.500032
