data_functionalizedCrystal
_audit_creation_method	'MofGen! by Chris Wilmer'
_symmetry_space_group_name_H-M	'P1'
_symmetry_Int_Tables_number	1
_symmetry_cell_setting	triclinic
loop_
_symmetry_equiv_pos_as_xyz
  x,y,z
_cell_length_a	27.732048
_cell_length_b	11.792241
_cell_length_c	10.268362
_cell_angle_alpha	89.999626
_cell_angle_beta	89.989776
_cell_angle_gamma	83.418036
loop_
_atom_site_label
_atom_site_type_symbol
_atom_site_fract_x
_atom_site_fract_y
_atom_site_fract_z
O1	O	0.066248	1.504790	-0.108189
O2	O	0.073076	1.174230	-0.108221
O3	O	-0.000675	1.349776	-0.108179
O4	O	0.139999	1.329243	-0.108231
O5	O	-0.000678	1.349761	0.108421
O6	O	0.073073	1.174215	0.108379
O7	O	0.066245	1.504775	0.108411
Cu8	Cu	0.069659	1.339493	0.128173
Cu9	Cu	0.069662	1.339511	-0.127983
O10	O	0.139996	1.329228	0.108370
C11	C	0.072645	1.131945	0.000075
C12	C	0.071362	1.005973	0.000064
C13	C	-0.018686	1.349338	0.000124
C14	C	-0.072348	1.348040	0.000135
C15	C	0.069001	0.775336	0.000103
C16	C	0.070313	0.903679	0.000082
C17	C	-0.410609	1.443606	0.000077
C18	C	-0.612297	1.438790	0.000059
O19	O	-0.643045	1.526178	0.000010
N20	N	-0.632024	1.334698	0.000050
C21	C	-0.601327	1.231803	0.000037
O22	O	-0.622734	1.143157	0.000016
C23	C	-0.399640	1.236620	0.000046
C24	C	-0.379915	1.340718	0.000069
C25	C	-0.390884	1.547695	0.000098
C26	C	-0.340465	1.548898	0.000110
C27	C	-0.309771	1.446011	0.000101
C28	C	-0.329496	1.341921	0.000080
C29	C	-0.368943	1.133726	0.000024
C30	C	-0.318519	1.134940	0.000023
C31	C	-0.298794	1.239038	0.000045
C32	C	-0.248384	1.240237	0.000083
N33	N	-0.228656	1.344328	0.000092
C34	C	-0.259350	1.447215	0.000101
C35	C	-0.707215	1.229282	0.000035
C36	C	-0.757637	1.228077	0.000035
C37	C	-0.768603	1.435065	0.000054
C38	C	-0.718181	1.436268	0.000063
C39	C	-0.687488	1.333374	0.000044
C40	C	-0.153466	1.449733	0.000127
C41	C	-0.103042	1.450927	0.000144
C42	C	-0.092080	1.243941	0.000118
C43	C	-0.142500	1.242746	0.000108
C44	C	-0.173192	1.345652	0.000108
O45	O	-0.217607	1.152896	0.000117
O46	O	-0.237933	1.535849	0.000093
C47	C	-0.461028	1.442403	0.000066
C48	C	-0.480753	1.338313	0.000045
C49	C	-0.450060	1.235426	0.000036
C50	C	-0.531175	1.337108	0.000045
C51	C	-0.561868	1.439996	0.000054
C52	C	-0.542141	1.544087	0.000063
C53	C	-0.491722	1.545290	0.000074
C54	C	-0.469787	1.131334	0.000027
C55	C	-0.520207	1.130140	0.000017
C56	C	-0.550900	1.233027	0.000026
C57	C	0.158007	1.329667	0.000063
C58	C	0.211669	1.330965	0.000044
C59	C	0.066676	1.547059	0.000112
C60	C	0.067959	1.673032	0.000114
N61	N	0.069656	1.339489	0.308339
N62	N	0.069661	1.339525	-0.308148
C63	C	0.069661	1.339506	0.574009
C64	C	0.069660	1.339493	0.426171
H65	H	-0.086985	1.535700	0.000165
H66	H	-0.475667	1.630058	0.000092
C67	C	-0.424262	1.659327	0.000313
C68	C	-0.453543	1.664669	0.111736
C69	C	-0.484298	1.767486	0.111980
H70	H	-0.405347	1.721577	0.000391
H71	H	-0.444184	1.663187	-0.075179
H72	H	-0.433623	1.660819	0.187209
H73	H	-0.472468	1.602442	0.111682
H74	H	-0.504220	1.771347	0.036487
H75	H	-0.465379	1.829729	0.112053
H76	H	-0.504172	1.771120	0.187572
C77	C	-0.696741	1.549256	0.000342
C78	C	-0.668131	1.556011	0.111791
C79	C	-0.648381	1.660089	0.112096
H80	H	-0.677264	1.554150	-0.075106
H81	H	-0.722234	1.610386	0.000419
H82	H	-0.642642	1.494897	0.111701
H83	H	-0.687597	1.551136	0.187256
H84	H	-0.673874	1.721220	0.112174
H85	H	-0.628906	1.664975	0.036644
H86	H	-0.628970	1.664691	0.187718
C87	C	-0.436548	1.019499	0.000094
C88	C	-0.464622	0.928094	0.000118
C89	C	-0.434021	0.825047	0.000206
H90	H	-0.416631	1.015494	-0.075411
H91	H	-0.416666	1.015598	0.075665
H92	H	-0.484495	0.931993	-0.075446
H93	H	-0.484538	0.932061	0.075618
H94	H	-0.414139	0.821146	0.075777
H95	H	-0.414105	0.821054	-0.075301
H96	H	-0.453065	0.763017	0.000234
H97	H	-0.178450	1.533529	0.000122
H98	H	-0.567140	1.627862	0.000076
C99	C	-0.319083	1.661958	-0.000150
C100	C	-0.334644	1.724084	-0.111602
C101	C	-0.314956	1.828239	-0.111900
H102	H	-0.329595	1.704416	0.075295
H103	H	-0.284655	1.648006	-0.000220
H104	H	-0.369065	1.738039	-0.111520
H105	H	-0.324133	1.681661	-0.187066
H106	H	-0.280528	1.814288	-0.111969
H107	H	-0.325470	1.870687	-0.036449
H108	H	-0.325508	1.870400	-0.187523
C109	C	-0.801957	1.546739	-0.000218
C110	C	-0.831204	1.552088	-0.111677
C111	C	-0.861932	1.654946	-0.111994
H112	H	-0.821907	1.550683	0.075222
H113	H	-0.783008	1.608945	-0.000290
H114	H	-0.850152	1.489899	-0.111593
H115	H	-0.811267	1.548164	-0.187136
H116	H	-0.842983	1.717151	-0.112066
H117	H	-0.881879	1.658881	-0.036548
H118	H	-0.881777	1.658593	-0.187622
H119	H	-0.682229	1.145488	0.000019
C120	C	-0.778955	1.114938	-0.000040
C121	C	-0.741277	1.025100	-0.000085
C122	C	-0.760895	0.920856	-0.000181
H123	H	-0.798395	1.109990	0.075470
H124	H	-0.798377	1.110107	-0.075607
H125	H	-0.721864	1.029929	0.075473
H126	H	-0.721835	1.030010	-0.075590
H127	H	-0.780317	0.916025	-0.075747
H128	H	-0.780335	0.915920	0.075331
H129	H	-0.735334	0.859889	-0.000223
C130	C	-0.541684	1.017191	-0.000212
C131	C	-0.570307	1.010478	-0.111646
C132	C	-0.590102	0.906457	-0.111907
H133	H	-0.516228	0.955997	-0.000287
H134	H	-0.561161	1.012388	0.075273
H135	H	-0.550831	1.015269	-0.187111
H136	H	-0.595770	1.071647	-0.111595
H137	H	-0.609579	0.901654	-0.036422
H138	H	-0.564644	0.845271	-0.111978
H139	H	-0.609528	0.901892	-0.187506
C140	C	-0.285172	1.023256	-0.000262
C141	C	-0.255903	1.017896	-0.111710
C142	C	-0.225184	0.915026	-0.112023
H143	H	-0.265235	1.019301	0.075186
H144	H	-0.304127	0.961061	-0.000346
H145	H	-0.236950	1.080074	-0.111615
H146	H	-0.275827	1.021831	-0.187176
H147	H	-0.244138	0.852831	-0.112107
H148	H	-0.205250	0.911080	-0.036571
H149	H	-0.205325	0.911371	-0.187645
H150	H	-0.384994	1.048958	-0.000001
C151	C	-0.163944	1.129759	0.000363
C152	C	-0.192573	1.122992	0.111801
C153	C	-0.212325	1.018917	0.112076
H154	H	-0.183409	1.124877	-0.075092
H155	H	-0.138452	1.068625	0.000435
H156	H	-0.218061	1.184109	0.111718
H157	H	-0.173119	1.127853	0.187274
H158	H	-0.186834	0.957783	0.112148
H159	H	-0.231788	1.014044	0.036617
H160	H	-0.231749	1.014307	0.187691
H161	H	-0.067080	1.160173	0.000115
