data_functionalizedCrystal
_audit_creation_method	'MofGen! by Chris Wilmer'
_symmetry_space_group_name_H-M	'P1'
_symmetry_Int_Tables_number	1
_symmetry_cell_setting	triclinic
loop_
_symmetry_equiv_pos_as_xyz
  x,y,z
_cell_length_a	13.032831
_cell_length_b	29.839131
_cell_length_c	13.032268
_cell_angle_alpha	82.859460
_cell_angle_beta	89.113023
_cell_angle_gamma	82.845366
loop_
_atom_site_label
_atom_site_type_symbol
_atom_site_fract_x
_atom_site_fract_y
_atom_site_fract_z
Zn1	Zn	1.498202	-0.303377	0.780727
Zn2	Zn	1.519883	-0.370307	0.608723
Zn3	Zn	1.348078	-0.284611	0.586974
Zn4	Zn	1.326134	-0.367878	0.758849
O5	O	1.423074	-0.331543	0.683818
O6	O	1.644991	-0.321125	0.776168
O7	O	1.515350	-0.352102	0.461924
O8	O	1.368102	-0.224242	0.612730
O9	O	1.660920	-0.370299	0.649797
O10	O	1.478398	-0.238029	0.755079
O11	O	1.389125	-0.289141	0.445945
O12	O	1.201254	-0.286786	0.591516
O13	O	1.330702	-0.366159	0.905665
O14	O	1.185132	-0.347962	0.717792
O15	O	1.457120	-0.318770	0.921739
O16	O	1.494072	-0.432843	0.628583
O17	O	1.351725	-0.431059	0.738880
C18	C	1.155878	-0.315075	0.649920
C19	C	1.041567	-0.308042	0.635443
C20	C	0.982667	-0.335214	0.691374
C21	C	0.864520	-0.327945	0.676412
C22	C	1.422895	-0.448252	0.683744
C23	C	1.422908	-0.498188	0.683758
C24	C	1.497302	-0.808772	0.626498
C25	C	1.497423	-0.996455	0.626554
O26	O	1.560533	-1.021509	0.577811
N27	N	1.423278	-1.019002	0.683923
C28	C	1.349100	-0.994626	0.741287
O29	O	1.286044	-1.018111	0.790093
C30	C	1.348984	-0.806945	0.741236
C31	C	1.423128	-0.784399	0.683855
C32	C	1.571441	-0.786226	0.569122
C33	C	1.571406	-0.739308	0.569105
C34	C	1.497232	-0.714935	0.626462
C35	C	1.423093	-0.737481	0.683837
C36	C	1.274811	-0.782571	0.798606
C37	C	1.274790	-0.735648	0.798590
C38	C	1.348935	-0.713102	0.741209
C39	C	1.348885	-0.666190	0.741177
N40	N	1.423031	-0.643643	0.683808
C41	C	1.497205	-0.668015	0.626451
C42	C	1.349165	-1.093162	0.741308
C43	C	1.349193	-1.140082	0.741320
C44	C	1.497518	-1.141907	0.626588
C45	C	1.497485	-1.094986	0.626571
C46	C	1.423311	-1.070614	0.683939
C47	C	1.497126	-0.569483	0.626417
C48	C	1.497082	-0.522561	0.626401
C49	C	1.348761	-0.520740	0.741137
C50	C	1.348801	-0.567658	0.741149
C51	C	1.422992	-0.592029	0.683787
O52	O	1.285815	-0.641109	0.789903
O53	O	1.560265	-0.644524	0.577671
C54	C	1.497336	-0.855690	0.626516
C55	C	1.423197	-0.878236	0.683891
C56	C	1.349024	-0.853863	0.741249
C57	C	1.423225	-0.925156	0.683903
C58	C	1.497399	-0.949529	0.626545
C59	C	1.571545	-0.926981	0.569176
C60	C	1.571510	-0.880063	0.569158
C61	C	1.274878	-0.876411	0.798618
C62	C	1.274918	-0.923329	0.798630
C63	C	1.349091	-0.947702	0.741272
C64	C	1.691313	-0.348076	0.717849
C65	C	1.805621	-0.355122	0.732351
C66	C	1.389044	-0.344287	0.952061
C67	C	1.374543	-0.349718	1.066370
C68	C	1.423279	-0.214382	0.683919
C69	C	1.423367	-0.164454	0.683962
C70	C	1.457031	-0.318820	0.416627
C71	C	1.471732	-0.313275	0.302344
C72	C	1.430627	-0.328692	1.125285
C73	C	1.415640	-0.334304	1.243430
H74	H	0.827484	-0.299297	0.617452
H75	H	1.315426	-0.371870	1.103395
C76	C	0.991533	-0.269343	0.555789
N77	N	0.953849	-0.240194	0.495790
C78	C	0.855648	-0.393822	0.812011
N79	N	0.893330	-0.422972	0.872009
C80	C	1.578645	-0.497763	0.563269
N81	N	1.640077	-0.479087	0.515718
H82	H	1.557541	-0.589321	0.579709
H83	H	1.214390	-0.715807	0.845310
C84	C	1.551595	-0.283341	1.252335
N85	N	1.611750	-0.260796	1.214668
H86	H	1.631783	-0.720955	0.522384
C87	C	1.032701	-0.373913	0.771027
N88	N	1.070385	-0.403063	0.831022
C89	C	1.653040	-0.813029	0.506013
N90	N	1.714500	-0.833212	0.458466
C91	C	1.579051	-1.070190	0.563452
N92	N	1.640492	-1.051517	0.515909
C93	C	1.579115	-1.168726	0.563500
N94	N	1.640575	-1.188929	0.515992
C95	C	1.193346	-0.948123	0.861756
N96	N	1.131913	-0.966798	0.909309
C97	C	1.267620	-1.164875	0.804432
N98	N	1.206180	-1.183549	0.851976
C99	C	1.267586	-1.066362	0.804453
N100	N	1.206147	-1.046179	0.852023
H101	H	1.214431	-0.800919	0.845326
C102	C	1.267235	-0.592458	0.804266
N103	N	1.205806	-0.611136	0.851817
H104	H	1.288366	-0.500888	0.787833
C105	C	1.335774	-0.364236	1.293440
N106	N	1.275620	-0.386781	1.331110
H107	H	1.631885	-0.861710	0.522433
H108	H	1.631937	-0.946834	0.522470
C109	C	1.193300	-0.849610	0.861750
N110	N	1.131857	-0.829426	0.909314
C111	C	1.510482	-0.298758	1.075270
N112	N	1.570630	-0.276211	1.037599
