data_functionalizedCrystal
_audit_creation_method	'MofGen! by Chris Wilmer'
_symmetry_space_group_name_H-M	'P1'
_symmetry_Int_Tables_number	1
_symmetry_cell_setting	triclinic
loop_
_symmetry_equiv_pos_as_xyz
  x,y,z
_cell_length_a	13.897449
_cell_length_b	12.759399
_cell_length_c	13.897441
_cell_angle_alpha	89.974869
_cell_angle_beta	90.023394
_cell_angle_gamma	89.984923
loop_
_atom_site_label
_atom_site_type_symbol
_atom_site_fract_x
_atom_site_fract_y
_atom_site_fract_z
Zn1	Zn	1.474726	0.418210	0.545486
Zn2	Zn	1.474629	0.593920	0.384203
Zn3	Zn	1.313415	0.418258	0.384197
Zn4	Zn	1.313406	0.593850	0.545448
O5	O	1.394044	0.506059	0.464834
O6	O	1.609695	0.441527	0.524110
O7	O	1.453207	0.570668	0.249221
O8	O	1.334857	0.271231	0.405606
O9	O	1.609624	0.570621	0.405616
O10	O	1.453371	0.271195	0.524104
O11	O	1.334764	0.441610	0.249216
O12	O	1.178432	0.441542	0.405569
O13	O	1.334842	0.570501	0.680435
O14	O	1.178426	0.570548	0.524040
O15	O	1.453363	0.441459	0.680463
O16	O	1.453199	0.740932	0.405579
O17	O	1.334749	0.740880	0.524045
C18	C	1.143430	0.506043	0.464800
C19	C	1.036216	0.506062	0.464809
C20	C	1.393989	0.779027	0.464830
C21	C	1.394053	0.895803	0.464860
C22	C	1.455801	0.950657	0.403249
C23	C	1.455865	1.060381	0.403288
C24	C	1.332424	1.060388	0.526554
C25	C	1.332366	0.950666	0.526518
C26	C	1.569721	1.210257	0.368979
C27	C	1.631461	1.265115	0.307352
C28	C	1.646301	1.229572	0.213235
C29	C	1.599387	1.139172	0.180725
C30	C	1.537640	1.084320	0.242347
C31	C	1.522819	1.119862	0.336477
C32	C	1.218509	0.800788	0.560818
C33	C	1.156756	0.745934	0.622435
C34	C	1.141906	0.781475	0.716554
C35	C	1.188803	0.871878	0.749060
C36	C	1.250555	0.926732	0.687443
C37	C	1.265407	0.891183	0.593325
C38	C	0.949146	0.506065	0.464825
C39	C	0.839914	0.506072	0.464854
C40	C	1.645637	0.506076	0.464868
C41	C	1.752851	0.506084	0.464883
C42	C	1.394112	0.505966	0.716427
C43	C	1.394142	0.505927	0.823641
C44	C	1.394129	1.232026	0.464875
C45	C	1.394175	1.115249	0.464935
C46	C	1.394031	0.506076	0.214219
C47	C	1.394189	0.505820	0.107006
C48	C	1.394168	0.505856	1.019936
C49	C	1.394150	0.505898	0.910704
H50	H	1.499446	1.010718	0.215879
O51	O	1.081916	0.728042	0.776298
C52	C	1.043676	0.640650	0.727420
H53	H	1.093464	0.618195	0.665600
H54	H	0.969551	0.661174	0.697707
C55	C	0.973627	0.575374	0.873602
C56	C	1.034783	0.547789	0.797679
H57	H	0.968137	0.518094	0.916941
H58	H	0.999387	0.634253	0.906532
H59	H	0.911864	0.592478	0.848829
H60	H	1.096548	0.530698	0.822451
H61	H	1.009033	0.488904	0.764754
O62	O	1.272632	1.113800	0.586486
C63	C	1.327549	1.177148	0.648873
H64	H	1.400676	1.193547	0.614927
H65	H	1.338087	1.134793	0.720353
C66	C	1.184706	1.261264	0.708010
C67	C	1.274519	1.281413	0.666313
H68	H	1.151994	1.325578	0.718772
H69	H	1.147707	1.218583	0.665981
H70	H	1.193500	1.225966	0.767572
H71	H	1.265724	1.316698	0.606747
H72	H	1.311516	1.324103	0.708332
H73	H	1.611467	1.110246	0.104082
O74	O	1.296082	1.014496	0.719189
C75	C	1.269722	1.034121	0.815469
H76	H	1.244277	0.958162	0.850371
H77	H	1.209092	1.094289	0.817311
C78	C	1.388451	1.170185	0.828138
C79	C	1.357207	1.076888	0.871007
H80	H	1.442414	1.196570	0.862396
H81	H	1.406209	1.156966	0.763271
H82	H	1.337919	1.220313	0.829675
H83	H	1.407736	1.026758	0.869458
H84	H	1.339460	1.090099	0.935875
H85	H	1.506032	0.905991	0.353044
H86	H	1.118576	0.672318	0.595962
H87	H	1.176712	0.900816	0.825700
H88	H	1.696572	1.274244	0.163058
H89	H	1.669658	1.338718	0.333831
H90	H	1.557653	1.239198	0.445620
O91	O	1.232792	0.766146	0.469401
C92	C	1.178167	0.674586	0.453927
H93	H	1.115566	0.672345	0.506870
H94	H	1.225668	0.602758	0.465186
C95	C	1.215778	0.677380	0.285272
C96	C	1.138887	0.674632	0.350292
H97	H	1.191552	0.677404	0.221344
H98	H	1.252584	0.739063	0.295697
H99	H	1.255356	0.617522	0.294667
H100	H	1.099318	0.734495	0.340905
H101	H	1.102073	0.612958	0.339863
