data_functionalizedCrystal
_audit_creation_method	'MofGen! by Chris Wilmer'
_symmetry_space_group_name_H-M	'P1'
_symmetry_Int_Tables_number	1
_symmetry_cell_setting	triclinic
loop_
_symmetry_equiv_pos_as_xyz
  x,y,z
_cell_length_a	16.120484
_cell_length_b	16.120542
_cell_length_c	16.120704
_cell_angle_alpha	90.139269
_cell_angle_beta	84.364775
_cell_angle_gamma	89.836765
loop_
_atom_site_label
_atom_site_type_symbol
_atom_site_fract_x
_atom_site_fract_y
_atom_site_fract_z
Zn1	Zn	-0.422558	-1.224867	0.554851
Zn2	Zn	-0.555193	-1.224791	0.422154
Zn3	Zn	-0.408410	-1.093638	0.408088
Zn4	Zn	-0.554463	-1.078760	0.554084
O5	O	-0.485156	-1.155514	0.484795
O6	O	-0.446378	-1.340892	0.543456
O7	O	-0.530107	-1.213588	0.303655
O8	O	-0.293655	-1.117304	0.421991
O9	O	-0.543825	-1.340836	0.445964
O10	O	-0.304049	-1.213718	0.529817
O11	O	-0.422266	-1.117230	0.293321
O12	O	-0.421558	-0.975630	0.421248
O13	O	-0.542581	-1.091947	0.670820
O14	O	-0.528862	-0.964700	0.528510
O15	O	-0.445670	-1.199291	0.671383
O16	O	-0.671729	-1.199162	0.445221
O17	O	-0.671192	-1.091873	0.542150
C18	C	-0.473596	-0.940078	0.473270
C19	C	-0.468672	-0.847912	0.468361
C20	C	-0.510673	-0.632709	0.510214
C21	C	-0.459689	-0.679167	0.459397
C22	C	-0.464689	-0.773065	0.464386
C23	C	-0.505674	-0.538802	0.505226
C24	C	-0.701704	-1.143916	0.495148
C25	C	-0.794349	-1.139029	0.499609
C26	C	-0.963975	-1.130110	0.507771
C27	C	-1.005505	-1.181066	0.461840
C28	C	-1.099891	-1.176104	0.466381
C29	C	-0.869581	-1.135072	0.503231
C30	C	-0.267765	-1.167179	0.474420
C31	C	-0.175125	-1.172150	0.469999
C32	C	-0.495622	-1.143968	0.702189
C33	C	-0.500082	-1.139048	0.794829
C34	C	-0.496756	-0.371792	0.496352
C35	C	-0.501687	-0.463959	0.501248
C36	C	-0.462212	-1.180960	1.005996
C37	C	-0.508189	-1.130039	0.964436
C38	C	-0.503677	-1.135053	0.870058
C39	C	-0.466723	-1.175947	1.100383
C40	C	-0.474757	-1.167013	1.268247
C41	C	-0.470321	-1.171948	1.175608
H42	H	-0.412286	-0.648421	0.412143
C43	C	-0.565952	-1.066062	1.012118
C44	C	-0.570447	-1.061077	1.107862
C45	C	-0.628211	-0.997105	1.155547
C46	C	-0.681480	-0.938119	1.107488
C47	C	-0.676987	-0.943103	1.011739
C48	C	-0.619223	-1.007074	0.964053
H49	H	-0.531013	-1.104743	1.143443
H50	H	-0.631536	-0.993417	1.226428
H51	H	-0.724240	-0.890764	1.142788
H52	H	-0.716421	-0.899436	0.976158
H53	H	-0.615897	-1.010763	0.893173
H54	H	-0.558073	-0.663453	0.557463
H55	H	-0.999303	-1.082762	0.550501
H56	H	-0.970175	-1.228417	0.419105
H57	H	-0.419464	-1.228317	0.970699
