data_functionalizedCrystal
_audit_creation_method	'MofGen! by Chris Wilmer'
_symmetry_space_group_name_H-M	'P1'
_symmetry_Int_Tables_number	1
_symmetry_cell_setting	triclinic
loop_
_symmetry_equiv_pos_as_xyz
  x,y,z
_cell_length_a	10.489689
_cell_length_b	8.965430
_cell_length_c	10.489711
_cell_angle_alpha	89.995069
_cell_angle_beta	95.477585
_cell_angle_gamma	89.992709
loop_
_atom_site_label
_atom_site_type_symbol
_atom_site_fract_x
_atom_site_fract_y
_atom_site_fract_z
O1	O	-1.694074	0.124137	0.179642
O2	O	-1.322868	0.124114	0.196605
O3	O	-1.516937	0.124130	0.002522
O4	O	-1.500004	0.124121	0.373725
O5	O	-1.516919	-0.123949	0.002537
O6	O	-1.322850	-0.123965	0.196621
O7	O	-1.694056	-0.123942	0.179658
Cu8	Cu	-1.508451	-0.146605	0.188141
Cu9	Cu	-1.508472	0.146777	0.188122
O10	O	-1.499987	-0.123958	0.373741
C11	C	-1.275326	0.000072	0.195346
C12	C	-1.133694	0.000064	0.191555
N13	N	-1.508446	-0.352954	0.188153
C14	C	-0.951293	0.000072	0.308276
C15	C	-1.043455	0.122390	0.249964
C16	C	-1.043410	-0.122196	0.249949
C17	C	-0.973516	0.122507	0.126425
C18	C	-0.973462	-0.122190	0.126427
C19	C	-1.065596	0.000158	0.068026
C20	C	-1.419441	-0.549671	0.278611
C21	C	-1.392598	-0.450206	0.163470
C22	C	-1.535232	-0.450211	0.303284
C23	C	-1.481586	-0.549598	0.072900
C24	C	-1.624272	-0.549612	0.212790
C25	C	-1.597476	-0.450191	0.097566
C26	C	-0.741595	0.000095	0.180937
C27	C	-0.883220	0.000088	0.184788
C28	C	-1.515657	0.000095	-0.045003
C29	C	-1.511855	0.000107	-0.186633
N30	N	-1.508488	0.353126	0.188099
C31	C	-1.628563	0.000099	-0.369042
C32	C	-1.570257	-0.122219	-0.276879
C33	C	-1.570243	0.122367	-0.276918
C34	C	-1.446711	-0.122341	-0.346807
C35	C	-1.446715	0.122355	-0.346856
C36	C	-1.388319	0.000007	-0.254720
C37	C	-1.501266	0.000081	0.421265
C38	C	-1.505068	0.000078	0.562896
H39	H	-0.901591	0.000190	0.409782
H40	H	-1.557888	-0.406583	0.400676
O41	O	-1.384292	-0.245698	-0.383664
C42	C	-1.205945	-0.342014	-0.486967
C43	C	-1.276523	-0.202192	-0.445323
H44	H	-1.118785	-0.306889	-0.536802
H45	H	-1.273158	-0.410646	-0.555774
H46	H	-1.173596	-0.412031	-0.399058
H47	H	-1.308879	-0.132059	-0.533154
H48	H	-1.209265	-0.133672	-0.376471
H49	H	-1.672766	-0.406790	0.020963
H50	H	-1.286725	-0.000067	-0.205236
O51	O	-1.329648	-0.601614	0.369950
C52	C	-1.255081	-0.607932	0.594397
C53	C	-1.356836	-0.548974	0.491090
H54	H	-1.277041	-0.565422	0.692366
H55	H	-1.156372	-0.567048	0.573235
H56	H	-1.256546	-0.735077	0.594071
H57	H	-1.355488	-0.421832	0.491359
H58	H	-1.455498	-0.589972	0.512290
H59	H	-1.394511	0.225765	-0.377873
O60	O	-0.935938	-0.245389	0.064254
C61	C	-0.832104	-0.341321	-0.113888
C62	C	-0.874867	-0.201666	-0.043827
H63	H	-0.782696	-0.306020	-0.201270
H64	H	-0.919328	-0.412639	-0.145792
H65	H	-0.762547	-0.408703	-0.046402
H66	H	-0.944396	-0.134168	-0.111239
H67	H	-0.787582	-0.130458	-0.011902
H68	H	-1.730066	-0.000015	-0.418751
H69	H	-1.458833	-0.593072	-0.024509
H70	H	-1.074451	0.225793	0.302211
O71	O	-1.080285	-0.245722	0.312120
C72	C	-1.084641	-0.514321	0.318785
C73	C	-1.042843	-0.374564	0.248225
H74	H	-1.054363	-0.618524	0.267170
H75	H	-1.193170	-0.513827	0.320273
H76	H	-1.037253	-0.514065	0.421217
H77	H	-1.090141	-0.374728	0.145763
H78	H	-0.934304	-0.375111	0.246841
H79	H	-1.622526	0.225776	-0.245975
O80	O	-0.936564	0.245973	0.064225
C81	C	-0.760799	0.384454	-0.009254
C82	C	-0.802472	0.244584	0.061231
H83	H	-0.652386	0.383362	-0.011721
H84	H	-0.790125	0.488612	0.043032
H85	H	-0.809061	0.384886	-0.111345
H86	H	-0.754230	0.244008	0.163325
H87	H	-0.773168	0.140490	0.008846
O88	O	-1.124573	0.000498	-0.053197
C89	C	-1.155757	0.129719	-0.255206
C90	C	-1.088908	0.129530	-0.117949
H91	H	-1.126926	0.234014	-0.307607
H92	H	-1.264016	0.128823	-0.251470
H93	H	-1.125748	0.026384	-0.308186
H94	H	-1.118813	0.232848	-0.064891
H95	H	-0.980662	0.130349	-0.121778
O96	O	-1.632666	-0.245622	-0.240127
C97	C	-1.744372	-0.471385	-0.307055
C98	C	-1.673738	-0.331687	-0.348847
H99	H	-1.777575	-0.541024	-0.394930
H100	H	-1.830954	-0.436172	-0.256344
H101	H	-1.676788	-0.540436	-0.238926
H102	H	-1.741220	-0.262575	-0.417018
H103	H	-1.587140	-0.367003	-0.399487
O104	O	-1.275859	-0.398025	0.138353
C105	C	-1.156695	-0.252354	-0.002581
C106	C	-1.288975	-0.311374	0.025683
H107	H	-1.167258	-0.182259	-0.093659
H108	H	-1.089954	-0.350319	-0.015920
H109	H	-1.114950	-0.180701	0.080982
H110	H	-1.330834	-0.383003	-0.057840
H111	H	-1.355628	-0.213341	0.039073
O112	O	-1.741022	-0.601688	0.237952
C113	C	-1.901273	-0.610149	0.387797
C114	C	-1.769025	-0.551099	0.359459
H115	H	-1.923966	-0.569246	0.486022
H116	H	-1.900450	-0.737297	0.386680
H117	H	-1.977353	-0.567533	0.311612
H118	H	-1.692872	-0.593605	0.435613
H119	H	-1.769955	-0.423953	0.360529
