data_functionalizedCrystal
_audit_creation_method	'MofGen! by Chris Wilmer'
_symmetry_space_group_name_H-M	'P1'
_symmetry_Int_Tables_number	1
_symmetry_cell_setting	triclinic
loop_
_symmetry_equiv_pos_as_xyz
  x,y,z
_cell_length_a	13.897448
_cell_length_b	13.897449
_cell_length_c	19.805399
_cell_angle_alpha	90.022808
_cell_angle_beta	89.974981
_cell_angle_gamma	89.982380
loop_
_atom_site_label
_atom_site_type_symbol
_atom_site_fract_x
_atom_site_fract_y
_atom_site_fract_z
Zn1	Zn	-0.384039	-1.474672	-0.382790
Zn2	Zn	-0.545345	-1.474575	-0.269607
Zn3	Zn	-0.384065	-1.313370	-0.269608
Zn4	Zn	-0.545294	-1.313342	-0.382747
O5	O	-0.464686	-1.393990	-0.326188
O6	O	-0.405447	-1.609640	-0.367793
O7	O	-0.523984	-1.453162	-0.174891
O8	O	-0.249080	-1.334819	-0.284641
O9	O	-0.523958	-1.609569	-0.284638
O10	O	-0.249061	-1.453327	-0.367795
O11	O	-0.405492	-1.334725	-0.174892
O12	O	-0.405442	-1.178385	-0.284599
O13	O	-0.523870	-1.334772	-0.477470
O14	O	-0.523896	-1.178364	-0.367722
O15	O	-0.405397	-1.453300	-0.477501
O16	O	-0.680320	-1.453135	-0.284597
O17	O	-0.680282	-1.334678	-0.367720
C18	C	-0.464667	-1.143375	-0.326156
C19	C	-0.464682	-1.036161	-0.326159
C20	C	-0.464684	-0.949092	-0.326167
C21	C	-0.464689	-0.839859	-0.326184
C22	C	-0.715300	-1.393919	-0.326169
C23	C	-0.822514	-1.393977	-0.326183
C24	C	-1.018809	-1.394079	-0.326225
C25	C	-0.909577	-1.394020	-0.326204
C26	C	-0.213093	-1.394087	-0.326223
C27	C	-0.105879	-1.394128	-0.326237
C28	C	-0.464625	-1.394044	-0.502731
C29	C	-0.464599	-1.394067	-0.577963
C30	C	-0.464701	-0.645583	-0.326212
C31	C	-0.464698	-0.752797	-0.326202
C32	C	-0.402907	-1.455786	-0.613325
C33	C	-0.402879	-1.455796	-0.684013
C34	C	-0.464549	-1.394091	-0.719339
C35	C	-0.526243	-1.332365	-0.683972
C36	C	-0.526266	-1.332351	-0.613285
C37	C	-0.526154	-1.332420	-0.969046
C38	C	-0.526128	-1.332440	-1.039738
C39	C	-0.402767	-1.455864	-1.039774
C40	C	-0.402789	-1.455850	-0.969087
C41	C	-0.464480	-1.394121	-0.933726
C42	C	-0.464508	-1.394110	-0.857078
C43	C	-0.464526	-1.394106	-0.795986
C44	C	-0.464677	-1.393991	-0.150332
C45	C	-0.464431	-1.394155	-0.075101
H46	H	-0.352692	-1.506036	-0.584568
Br47	Br	-0.609830	-1.248694	-1.087680
Br48	Br	-0.319196	-1.539605	-0.732002
Br49	Br	-0.319097	-1.539600	-0.921148
H50	H	-0.576492	-1.282084	-0.584494
H51	H	-0.576400	-1.282170	-0.940264
H52	H	-0.576452	-1.282121	-0.712740
H53	H	-0.352532	-1.506123	-1.068573
