data_functionalizedCrystal
_audit_creation_method	'MofGen! by Chris Wilmer'
_symmetry_space_group_name_H-M	'P1'
_symmetry_Int_Tables_number	1
_symmetry_cell_setting	triclinic
loop_
_symmetry_equiv_pos_as_xyz
  x,y,z
_cell_length_a	14.908571
_cell_length_b	12.645329
_cell_length_c	14.908308
_cell_angle_alpha	86.730911
_cell_angle_beta	89.824947
_cell_angle_gamma	86.714286
loop_
_atom_site_label
_atom_site_type_symbol
_atom_site_fract_x
_atom_site_fract_y
_atom_site_fract_z
Zn1	Zn	1.345315	-0.553226	0.587598
Zn2	Zn	1.353901	-0.720904	0.437243
Zn3	Zn	1.203629	-0.532864	0.428595
Zn4	Zn	1.194929	-0.719645	0.578895
O5	O	1.274443	-0.631660	0.508083
O6	O	1.472280	-0.584517	0.574914
O7	O	1.341202	-0.687966	0.310271
O8	O	1.222472	-0.387223	0.449710
O9	O	1.478588	-0.707710	0.464449
O10	O	1.326568	-0.402182	0.566529
O11	O	1.230798	-0.549814	0.303917
O12	O	1.076649	-0.548592	0.441271
O13	O	1.207643	-0.705564	0.705874
O14	O	1.070256	-0.685819	0.551695
O15	O	1.318131	-0.583296	0.712268
O16	O	1.332765	-0.869080	0.456010
O17	O	1.215969	-0.868154	0.560081
C18	C	1.040827	-0.614861	0.494601
C19	C	0.940884	-0.607701	0.488855
C20	C	1.274378	-0.907084	0.508061
C21	C	1.274430	-1.024919	0.508086
C22	C	0.746481	-0.737341	0.592888
C23	C	0.652575	-0.730618	0.587492
C24	C	0.659165	-0.587525	0.472672
C25	C	0.753070	-0.594249	0.478068
C26	C	0.796725	-0.669161	0.538177
C27	C	0.890633	-0.675889	0.543568
C28	C	0.897220	-0.532791	0.428753
C29	C	0.803315	-0.526068	0.423357
C30	C	1.200923	-1.069258	0.573515
C31	C	1.201194	-1.191858	0.573833
C32	C	1.367887	-1.201134	0.539090
C33	C	1.367374	-1.078532	0.539537
C34	C	1.255490	-1.062382	0.411598
C35	C	1.253451	-1.184880	0.412018
C36	C	1.508972	-0.648526	0.521617
C37	C	1.608914	-0.655713	0.527385
C38	C	1.260959	-0.646561	0.742608
C39	C	1.255212	-0.652911	0.842549
C40	C	1.274533	-0.355164	0.508126
C41	C	1.274571	-0.237337	0.508144
C42	C	1.287927	-0.616744	0.274472
C43	C	1.293848	-0.610108	0.174542
C44	C	1.359463	-0.537501	1.037009
C45	C	1.354067	-0.543463	1.130912
C46	C	1.239019	-0.670793	1.124261
C47	C	1.244416	-0.664830	1.030358
C48	C	1.304641	-0.598183	0.986735
C49	C	1.310041	-0.592226	0.892830
C50	C	1.194990	-0.719549	0.886180
C51	C	1.189593	-0.725512	0.980084
H52	H	0.926175	-0.736888	0.592510
H53	H	1.408505	-0.483240	1.001491
H54	H	1.303537	-1.215385	0.360252
H55	H	1.423731	-1.049580	0.494238
H56	H	0.782026	-0.798343	0.641826
H57	H	1.150351	-0.768964	0.845237
H58	H	1.189987	-0.725053	1.159795
H59	H	1.423953	-1.230935	0.493154
H60	H	0.611669	-0.786136	0.632045
H61	H	1.398706	-0.494047	1.171842
H62	H	1.384997	-1.237664	0.609052
H63	H	0.938140	-0.477276	0.384202
H64	H	1.131834	-1.215981	0.553855
H65	H	1.212873	-1.044003	0.644488
H66	H	1.140558	-0.779772	1.015615
H67	H	1.188849	-1.025193	0.384425
H68	H	0.623604	-0.526529	0.423740
H69	H	1.131291	-1.033812	0.553697
H70	H	0.767758	-0.465074	0.374421
H71	H	1.213386	-1.226780	0.645228
H72	H	1.184802	-1.207833	0.388775
H73	H	1.359080	-0.537960	0.857314
H74	H	1.309089	-1.033666	0.362783
H75	H	1.384042	-1.055781	0.610225
