data_functionalizedCrystal
_audit_creation_method	'MofGen! by Chris Wilmer'
_symmetry_space_group_name_H-M	'P1'
_symmetry_Int_Tables_number	1
_symmetry_cell_setting	triclinic
loop_
_symmetry_equiv_pos_as_xyz
  x,y,z
_cell_length_a	19.077236
_cell_length_b	13.897448
_cell_length_c	13.897441
_cell_angle_alpha	90.030599
_cell_angle_beta	92.323336
_cell_angle_gamma	92.310527
loop_
_atom_site_label
_atom_site_type_symbol
_atom_site_fract_x
_atom_site_fract_y
_atom_site_fract_z
Zn1	Zn	1.076057	-0.324857	0.604760
Zn2	Zn	1.409391	0.008476	0.938093
Zn3	Zn	1.742724	0.341810	1.271426
Zn4	Zn	1.075980	-0.486183	0.443457
Zn5	Zn	1.409313	-0.152850	0.776790
Zn6	Zn	1.742647	0.180484	1.110124
Zn7	Zn	0.958352	-0.331367	0.436983
Zn8	Zn	1.291686	0.001966	0.770316
Zn9	Zn	1.625019	0.335300	1.103650
Zn10	Zn	0.958339	-0.492580	0.598218
Zn11	Zn	1.291672	-0.159247	0.931551
Zn12	Zn	1.625006	0.174086	1.264885
O13	O	1.017182	-0.408747	0.520854
O14	O	1.350515	-0.075414	0.854188
O15	O	1.683849	0.257920	1.187521
O16	O	1.174540	-0.340856	0.588810
O17	O	1.507873	-0.007522	0.922143
O18	O	1.841207	0.325811	1.255476
O19	O	1.060350	-0.465694	0.307615
O20	O	1.393683	-0.132360	0.640948
O21	O	1.727016	0.200973	0.974282
O22	O	0.974004	-0.195520	0.459267
O23	O	1.307337	0.137814	0.792601
O24	O	1.640671	0.471147	1.125934
O25	O	1.174483	-0.459381	0.470301
O26	O	1.507817	-0.126048	0.803634
O27	O	1.841150	0.207285	1.136968
O28	O	1.060481	-0.190737	0.582532
O29	O	1.393815	0.142596	0.915866
O30	O	1.727148	0.475930	1.249199
O31	O	0.973929	-0.351951	0.302859
O32	O	1.307262	-0.018618	0.636192
O33	O	1.640596	0.314716	0.969525
O34	O	0.859858	-0.358154	0.452924
O35	O	1.193191	-0.024821	0.786257
O36	O	1.526524	0.308513	1.119591
O37	O	0.973981	-0.470284	0.734069
O38	O	1.307315	-0.136951	1.067402
O39	O	1.640648	0.196382	1.400735
O40	O	0.859848	-0.476597	0.571383
O41	O	1.193181	-0.143263	0.904716
O42	O	1.526514	0.190070	1.238049
O43	O	1.060468	-0.347059	0.738875
O44	O	1.393802	-0.013725	1.072208
O45	O	1.727135	0.319608	1.405542
O46	O	1.060337	-0.622015	0.463958
O47	O	1.393670	-0.288682	0.797291
O48	O	1.727003	0.044651	1.130624
O49	O	0.973906	-0.626715	0.577660
O50	O	1.307240	-0.293382	0.910993
O51	O	1.640573	0.039951	1.244327
C52	C	0.834314	-0.418777	0.510741
C53	C	1.167648	-0.085443	0.844075
C54	C	1.500981	0.247890	1.177408
C55	C	0.756083	-0.423091	0.506438
C56	C	1.089416	-0.089757	0.839771
C57	C	1.422750	0.243576	1.173105
C58	C	0.719360	-0.363505	0.566211
C59	C	1.052693	-0.030172	0.899545
C60	C	1.386026	0.303161	1.232878
C61	C	0.645853	-0.367554	0.562159
C62	C	0.979186	-0.034221	0.895493
C63	C	1.312520	0.299113	1.228826
C64	C	0.609070	-0.431194	0.498338
C65	C	0.942404	-0.097860	0.831672
C66	C	1.275737	0.235473	1.165005
C67	C	0.645799	-0.490781	0.438558
C68	C	0.979132	-0.157448	0.771892
C69	C	1.312465	0.175885	1.105225
C70	C	0.719304	-0.486727	0.442606
C71	C	1.052638	-0.153394	0.775939
C72	C	1.385971	0.179940	1.109273
C73	C	0.389229	-0.449922	0.479602
C74	C	0.722563	-0.116588	0.812935
C75	C	1.055896	0.216745	1.146268
C76	C	0.315719	-0.453973	0.475560
C77	C	0.649052	-0.120640	0.808894
C78	C	0.982385	0.212693	1.142227
C79	C	0.315778	-0.330744	0.599161
C80	C	0.649111	0.002589	0.932494
C81	C	0.982444	0.335922	1.265827
C82	C	0.389285	-0.326700	0.603207
C83	C	0.722618	0.006633	0.936540
C84	C	1.055951	0.339967	1.269874
C85	C	0.426007	-0.386284	0.543423
C86	C	0.759340	-0.052950	0.876757
C87	C	1.092673	0.280383	1.210090
N88	N	0.533935	-0.435336	0.494197
N89	N	0.867268	-0.102003	0.827531
N90	N	1.200601	0.231331	1.160864
N91	N	0.501141	-0.382136	0.547560
N92	N	0.834474	-0.048803	0.880894
N93	N	1.167808	0.284531	1.214227
C94	C	1.017131	-0.659364	0.520824
C95	C	1.350464	-0.326031	0.854157
C96	C	1.683797	0.007303	1.187490
C97	C	1.017173	-0.766576	0.520846
C98	C	1.350507	-0.433242	0.854180
C99	C	1.683840	-0.099909	1.187513
C100	C	1.017247	-0.962867	0.520911
C101	C	1.350580	-0.629533	0.854244
C102	C	1.683914	-0.296200	1.187577
C103	C	1.017204	-0.853637	0.520878
C104	C	1.350537	-0.520303	0.854211
C105	C	1.683871	-0.186970	1.187544
C106	C	1.200764	-0.398679	0.531007
C107	C	1.534097	-0.065345	0.864341
C108	C	1.867430	0.267988	1.197674
C109	C	1.278995	-0.394388	0.535334
C110	C	1.612329	-0.061055	0.868667
C111	C	1.945662	0.272278	1.202001
C112	C	1.017253	-0.157150	0.520907
C113	C	1.350586	0.176183	0.854241
C114	C	1.683920	0.509517	1.187574
C115	C	1.017283	-0.049934	0.520930
C116	C	1.350616	0.283399	0.854263
C117	C	1.683950	0.616732	1.187597
C118	C	1.017232	-0.408659	0.772450
C119	C	1.350565	-0.075326	1.105784
C120	C	1.683899	0.258008	1.439117
C121	C	1.017253	-0.408621	0.879665
C122	C	1.350587	-0.075288	1.212999
C123	C	1.683920	0.258045	1.546332
C124	C	1.017173	-0.408763	0.270239
C125	C	1.350506	-0.075429	0.603573
C126	C	1.683840	0.257904	0.936906
C127	C	1.017288	-0.408521	0.163032
C128	C	1.350621	-0.075188	0.496366
C129	C	1.683955	0.258146	0.829699
C130	C	1.017272	-0.408555	1.075962
C131	C	1.350606	-0.075222	1.409295
C132	C	1.683939	0.258112	1.742628
C133	C	1.017260	-0.408595	0.966728
C134	C	1.350593	-0.075261	1.300062
C135	C	1.683926	0.258072	1.633395
H136	H	0.749303	-0.311686	0.618184
H137	H	1.082636	0.021648	0.951517
H138	H	1.415969	0.354981	1.284851
H139	H	0.615956	-0.319035	0.610835
H140	H	0.949290	0.014298	0.944169
H141	H	1.282623	0.347631	1.277502
H142	H	0.419228	-0.274881	0.655180
H143	H	0.752561	0.058452	0.988514
H144	H	1.085895	0.391785	1.321847
Cl145	Cl	0.269609	-0.255841	0.674310
Cl146	Cl	0.602942	0.077492	1.007643
Cl147	Cl	0.936276	0.410825	1.340976
H148	H	0.615845	-0.542593	0.386589
H149	H	0.949178	-0.209260	0.719922
H150	H	1.282511	0.124073	1.053256
Cl151	Cl	0.269479	-0.534006	0.395344
Cl152	Cl	0.602812	-0.200673	0.728678
Cl153	Cl	0.936145	0.132660	1.062011
H154	H	0.419119	-0.498440	0.430923
H155	H	0.752453	-0.165107	0.764256
H156	H	1.085786	0.168227	1.097589
Cl157	Cl	0.765471	-0.561638	0.367460
Cl158	Cl	1.098804	-0.228305	0.700793
Cl159	Cl	1.432137	0.105028	1.034126
