data_functionalizedCrystal
_audit_creation_method	'MofGen! by Chris Wilmer'
_symmetry_space_group_name_H-M	'P1'
_symmetry_Int_Tables_number	1
_symmetry_cell_setting	triclinic
loop_
_symmetry_equiv_pos_as_xyz
  x,y,z
_cell_length_a	19.188930
_cell_length_b	8.140239
_cell_length_c	9.065215
_cell_angle_alpha	89.997429
_cell_angle_beta	84.079739
_cell_angle_gamma	89.983403
loop_
_atom_site_label
_atom_site_type_symbol
_atom_site_fract_x
_atom_site_fract_y
_atom_site_fract_z
O1	O	0.927573	-0.137139	0.184174
O2	O	0.724454	-0.137026	0.208968
O3	O	0.830213	-0.137078	-0.018217
O4	O	0.821814	-0.137087	0.411359
O5	O	0.830207	0.136149	-0.018220
O6	O	0.724448	0.136201	0.208965
O7	O	0.927567	0.136088	0.184172
Zn8	Zn	0.826007	0.179525	0.196568
Zn9	Zn	0.826015	-0.180463	0.196571
O10	O	0.821808	0.136140	0.411357
C11	C	0.698434	-0.000398	0.208164
C12	C	0.620911	-0.000355	0.205753
N13	N	0.826007	0.425208	0.196565
N14	N	0.826020	-0.426146	0.196563
C15	C	0.577022	-0.000384	0.339058
C16	C	0.504181	-0.000402	0.336794
C17	C	0.475231	-0.000424	0.201217
C18	C	0.519130	-0.000386	0.067895
C19	C	0.591970	-0.000352	0.070163
N20	N	0.366449	-0.093479	0.097587
N21	N	0.297253	-0.093515	0.095441
C22	C	0.255770	-0.000524	0.194375
N23	N	0.286094	0.092484	0.295559
N24	N	0.355295	0.092513	0.297709
C25	C	0.396250	-0.000460	0.198743
C26	C	0.132897	-0.000570	0.325234
C27	C	0.060055	-0.000578	0.322964
C28	C	0.075006	-0.000579	0.054061
C29	C	0.147847	-0.000555	0.056335
C30	C	0.176788	-0.000558	0.191925
C31	C	0.953587	-0.000544	0.184976
C32	C	1.031111	-0.000598	0.187386
C33	C	0.829404	-0.000466	-0.073177
C34	C	0.826991	-0.000469	-0.236937
C35	C	0.822618	-0.000476	0.466317
C36	C	0.825030	-0.000483	0.630076
H37	H	0.600581	-0.000390	0.449466
N38	N	0.195183	-0.000530	-0.087453
H39	H	0.185796	-0.101820	-0.146626
H40	H	0.245701	-0.000439	-0.065331
N41	N	0.164121	-0.000545	0.471466
H42	H	0.194027	-0.101821	0.478405
H43	H	0.125223	-0.000489	0.555489
H44	H	0.468439	-0.000420	0.445350
H45	H	0.024320	-0.000592	0.431521
H46	H	0.495555	-0.000427	-0.042493
N47	N	0.043790	-0.000609	-0.092169
H48	H	0.082651	-0.000592	-0.176276
H49	H	0.013875	0.100668	-0.098967
N50	N	0.639313	-0.000313	-0.073621
H51	H	0.609924	-0.000322	-0.159856
H52	H	0.669880	-0.101588	-0.078540
