data_functionalizedCrystal
_audit_creation_method	'MofGen! by Chris Wilmer'
_symmetry_space_group_name_H-M	'P1'
_symmetry_Int_Tables_number	1
_symmetry_cell_setting	triclinic
loop_
_symmetry_equiv_pos_as_xyz
  x,y,z
_cell_length_a	17.038272
_cell_length_b	14.519709
_cell_length_c	13.596369
_cell_angle_alpha	89.999709
_cell_angle_beta	89.993837
_cell_angle_gamma	92.604149
loop_
_atom_site_label
_atom_site_type_symbol
_atom_site_fract_x
_atom_site_fract_y
_atom_site_fract_z
O1	O	0.102502	-1.231711	-0.081664
O2	O	0.435836	-0.898378	0.251670
O3	O	0.769169	-0.565044	0.585003
O4	O	0.114573	-0.964158	-0.081694
O5	O	0.447907	-0.630824	0.251640
O6	O	0.781240	-0.297491	0.584973
O7	O	-0.005280	-1.096344	-0.081671
O8	O	0.328053	-0.763011	0.251662
O9	O	0.661387	-0.429678	0.584996
O10	O	0.222356	-1.099525	-0.081686
O11	O	0.555689	-0.766191	0.251647
O12	O	0.889022	-0.432858	0.584980
O13	O	-0.005286	-1.096330	0.081912
O14	O	0.328047	-0.762996	0.415245
O15	O	0.661380	-0.429663	0.748579
O16	O	0.114567	-0.964143	0.081889
O17	O	0.447900	-0.630810	0.415223
O18	O	0.781234	-0.297476	0.748556
O19	O	0.102496	-1.231696	0.081919
O20	O	0.435829	-0.898363	0.415253
O21	O	0.769163	-0.565030	0.748586
Zn22	Zn	0.108530	-1.097918	0.107877
Zn23	Zn	0.441864	-0.764584	0.441210
Zn24	Zn	0.775197	-0.431251	0.774543
Zn25	Zn	0.108539	-1.097937	-0.107651
Zn26	Zn	0.441872	-0.764603	0.225682
Zn27	Zn	0.775206	-0.431270	0.559016
O28	O	0.222349	-1.099510	0.081897
O29	O	0.555683	-0.766177	0.415230
O30	O	0.889016	-0.432843	0.748563
C31	C	0.114008	-0.929748	0.000094
C32	C	0.447341	-0.596414	0.333427
C33	C	0.780674	-0.263081	0.666761
C34	C	0.112322	-0.827237	0.000083
C35	C	0.445655	-0.493904	0.333416
C36	C	0.778988	-0.160571	0.666749
C37	C	-0.034416	-1.093444	0.000120
C38	C	0.298917	-0.760111	0.333453
C39	C	0.632250	-0.426778	0.666787
C40	C	-0.121223	-1.084814	0.000119
C41	C	0.212110	-0.751481	0.333452
C42	C	0.545444	-0.418148	0.666785
N43	N	0.108524	-1.097911	0.254968
N44	N	0.441858	-0.764578	0.588302
N45	N	0.775191	-0.431244	0.921635
C46	C	-0.171209	-1.164047	0.000129
C47	C	0.162124	-0.830714	0.333462
C48	C	0.495458	-0.497381	0.666795
C49	C	-0.252773	-1.155933	0.000118
C50	C	0.080561	-0.822600	0.333452
C51	C	0.413894	-0.489266	0.666785
C52	C	-0.284349	-1.068585	0.000105
C53	C	0.048984	-0.735252	0.333439
C54	C	0.382318	-0.401919	0.666772
C55	C	-0.234357	-0.989347	0.000092
C56	C	0.098977	-0.656013	0.333426
C57	C	0.432310	-0.322680	0.666759
C58	C	-0.152795	-0.997462	0.000096
C59	C	0.180539	-0.664128	0.333429
C60	C	0.513872	-0.330795	0.666762
C61	C	-0.530153	-1.039916	0.000089
C62	C	-0.196820	-0.706583	0.333422
C63	C	0.136513	-0.373250	0.666755
C64	C	-0.611722	-1.031807	0.000088
C65	C	-0.278388	-0.698474	0.333422
C66	C	0.054945	-0.365140	0.666755
C67	C	-0.630132	-1.198394	0.000112
C68	C	-0.296799	-0.865061	0.333446
C69	C	0.036535	-0.531728	0.666779
C70	C	-0.548568	-1.206502	0.000122
C71	C	-0.215234	-0.873168	0.333455
C72	C	0.118099	-0.539835	0.666788
C73	C	-0.498583	-1.127263	0.000104
C74	C	-0.165249	-0.793930	0.333437
C75	C	0.168084	-0.460596	0.666770
C76	C	-0.367720	-1.060289	0.000098
C77	C	-0.034387	-0.726956	0.333431
C78	C	0.298947	-0.393623	0.666765
C79	C	-0.415213	-1.135560	0.000104
C80	C	-0.081880	-0.802227	0.333437
C81	C	0.251453	-0.468893	0.666771
C82	C	0.251486	-1.102410	0.000103
C83	C	0.584819	-0.769076	0.333437
C84	C	0.918152	-0.435743	0.666770
C85	C	0.338292	-1.111040	0.000098
C86	C	0.671626	-0.777706	0.333432
C87	C	1.004959	-0.444373	0.666765
C88	C	0.103062	-1.266107	0.000129
C89	C	0.436395	-0.932773	0.333463
C90	C	0.769728	-0.599440	0.666796
C91	C	0.104748	-1.368617	0.000134
C92	C	0.438081	-1.035284	0.333468
C93	C	0.771414	-0.701950	0.666801
C94	C	0.106116	-0.451867	0.000128
C95	C	0.439449	-0.118533	0.333461
C96	C	0.772782	0.214800	0.666794
C97	C	0.107839	-0.556307	0.000115
C98	C	0.441172	-0.222973	0.333448
C99	C	0.774506	0.110360	0.666782
C100	C	0.109219	-0.639549	0.000104
C101	C	0.442552	-0.306215	0.333438
C102	C	0.775885	0.027118	0.666771
C103	C	0.110942	-0.743995	0.000093
C104	C	0.444276	-0.410662	0.333427
C105	C	0.777609	-0.077329	0.666760
N106	N	0.108539	-1.097950	-0.254743
N107	N	0.441872	-0.764617	0.078591
N108	N	0.775206	-0.431283	0.411924
C109	C	0.108540	-1.097936	0.656259
C110	C	0.441873	-0.764602	0.989593
C111	C	0.775206	-0.431269	1.322926
C112	C	0.108538	-1.097926	0.544608
C113	C	0.441871	-0.764593	0.877941
C114	C	0.775205	-0.431260	1.211275
C115	C	0.108533	-1.097924	0.455617
C116	C	0.441866	-0.764590	0.788951
C117	C	0.775199	-0.431257	1.122284
C118	C	0.108530	-1.097913	0.343959
C119	C	0.441863	-0.764580	0.677292
C120	C	0.775196	-0.431247	1.010626
H121	H	-0.293468	-1.220453	0.000129
H122	H	0.039865	-0.887120	0.333462
H123	H	0.373198	-0.553786	0.666795
H124	H	-0.489465	-0.975394	0.000074
H125	H	-0.156131	-0.642061	0.333407
H126	H	0.177202	-0.308727	0.666741
H127	H	-0.260072	-0.918226	0.000075
H128	H	0.073261	-0.584893	0.333409
H129	H	0.406594	-0.251559	0.666742
N130	N	-0.382948	-1.224773	0.000129
N131	N	-0.049615	-0.891440	0.333462
N132	N	0.283718	-0.558107	0.666796
N133	N	-0.339492	-1.247863	0.069090
N134	N	-0.006159	-0.914529	0.402423
N135	N	0.327175	-0.581196	0.735757
H136	H	-0.316697	-1.310870	0.069112
H137	H	0.016636	-0.977537	0.402446
H138	H	0.349969	-0.644203	0.735779
H139	H	-0.670838	-1.262906	0.000125
H140	H	-0.337505	-0.929572	0.333459
H141	H	-0.004172	-0.596239	0.666792
N142	N	-0.101731	-0.916529	0.000064
N143	N	0.231602	-0.583196	0.333398
N144	N	0.564936	-0.249862	0.666731
N145	N	-0.104669	-0.859867	-0.068904
N146	N	0.228664	-0.526534	0.264429
N147	N	0.561997	-0.193200	0.597762
H148	H	-0.068605	-0.802706	-0.068934
H149	H	0.264728	-0.469372	0.264400
H150	H	0.598062	-0.136039	0.597733
H151	H	-0.393438	-0.989170	0.000089
H152	H	-0.060105	-0.655837	0.333423
H153	H	0.273228	-0.322503	0.666756
H154	H	-0.522865	-1.277629	0.000132
H155	H	-0.189531	-0.944296	0.333466
H156	H	0.143802	-0.610963	0.666799
H157	H	-0.145506	-1.235175	0.000145
H158	H	0.187827	-0.901842	0.333479
H159	H	0.521160	-0.568508	0.666812
H160	H	-0.637427	-0.960675	0.000093
H161	H	-0.304094	-0.627341	0.333427
H162	H	0.029239	-0.294008	0.666760
