data_functionalizedCrystal
_audit_creation_method	'MofGen! by Chris Wilmer'
_symmetry_space_group_name_H-M	'P1'
_symmetry_Int_Tables_number	1
_symmetry_cell_setting	triclinic
loop_
_symmetry_equiv_pos_as_xyz
  x,y,z
_cell_length_a	12.594516
_cell_length_b	18.101398
_cell_length_c	18.101389
_cell_angle_alpha	89.991407
_cell_angle_beta	90.012519
_cell_angle_gamma	89.989142
loop_
_atom_site_label
_atom_site_type_symbol
_atom_site_fract_x
_atom_site_fract_y
_atom_site_fract_z
Zn1	Zn	-0.424001	-1.132198	0.418558
Zn2	Zn	0.075999	-0.632198	0.918558
Zn3	Zn	-0.601969	-1.132127	0.294729
Zn4	Zn	-0.101969	-0.632127	0.794729
Zn5	Zn	-0.423989	-1.008357	0.294753
Zn6	Zn	0.076011	-0.508357	0.794753
Zn7	Zn	-0.601922	-1.008341	0.418552
Zn8	Zn	-0.101922	-0.508341	0.918552
O9	O	-0.512970	-1.070256	0.356648
O10	O	-0.012970	-0.570256	0.856648
O11	O	-0.447634	-1.235822	0.402125
O12	O	0.052366	-0.735822	0.902125
O13	O	-0.578374	-1.115686	0.191100
O14	O	-0.078374	-0.615686	0.691100
O15	O	-0.275045	-1.024822	0.311189
O16	O	0.224955	-0.524822	0.811189
O17	O	-0.578386	-1.235769	0.311148
O18	O	-0.078386	-0.735769	0.811148
O19	O	-0.275054	-1.115808	0.402148
O20	O	0.224946	-0.615808	0.902148
O21	O	-0.447613	-1.024753	0.191117
O22	O	0.052387	-0.524753	0.691117
O23	O	-0.447567	-0.904722	0.311183
O24	O	0.052433	-0.404722	0.811183
O25	O	-0.578306	-1.024794	0.522186
O26	O	-0.078306	-0.524794	1.022186
O27	O	-0.578294	-0.904710	0.402137
O28	O	-0.078294	-0.404710	0.902137
O29	O	-0.447588	-1.115791	0.522190
O30	O	0.052412	-0.615791	1.022190
O31	O	-0.750909	-1.115669	0.311142
O32	O	-0.250909	-0.615669	0.811142
O33	O	-0.750874	-1.024724	0.402114
O34	O	-0.250874	-0.524724	0.902114
C35	C	-0.512925	-0.877845	0.356662
C36	C	-0.012925	-0.377845	0.856662
C37	C	-0.512931	-0.795531	0.356686
C38	C	-0.012931	-0.295531	0.856686
C39	C	-0.512988	-0.496440	0.356661
C40	C	-0.012988	0.003560	0.856661
C41	C	-0.595636	-0.527782	0.413604
C42	C	-0.095636	-0.027782	0.913604
C43	C	-0.595379	-0.613401	0.413836
C44	C	-0.095379	-0.113401	0.913836
C45	C	-0.512961	-0.644823	0.356674
C46	C	-0.012961	-0.144823	0.856674
C47	C	-0.400857	-0.613748	0.377994
C48	C	0.099143	-0.113748	0.877994
C49	C	-0.401352	-0.528103	0.378401
C50	C	0.098648	-0.028103	0.878401
C51	C	-0.541456	-0.527993	0.278260
C52	C	-0.041456	-0.027993	0.778260
C53	C	-0.543918	-0.613643	0.278677
C54	C	-0.043918	-0.113643	0.778677
C55	C	-0.512938	-0.728682	0.356679
C56	C	-0.012938	-0.228682	0.856679
C57	C	-0.513003	-0.412581	0.356657
C58	C	-0.013003	0.087419	0.856657
C59	C	-0.789511	-1.070207	0.356641
C60	C	-0.289511	-0.570207	0.856641
C61	C	-0.907817	-1.070254	0.356663
C62	C	-0.407817	-0.570254	0.856663
C63	C	-0.977090	-1.020784	0.406108
C64	C	-0.477090	-0.520784	0.906108
C65	C	-1.047930	-1.002743	0.338535
C66	C	-0.547930	-0.502743	0.838535
C67	C	-1.047776	-1.088363	0.424247
C68	C	-0.547776	-0.588363	0.924247
C69	C	-0.977098	-1.052177	0.289054
C70	C	-0.477098	-0.552177	0.789054
C71	C	-0.976938	-1.137829	0.374812
C72	C	-0.476938	-0.637829	0.874812
C73	C	-1.047746	-1.119813	0.307193
C74	C	-0.547746	-0.619813	0.807193
C75	C	-0.235349	-1.070325	0.356672
C76	C	0.264651	-0.570325	0.856672
C77	C	-0.117044	-1.070354	0.356682
C78	C	0.382956	-0.570354	0.856682
C79	C	-0.512943	-1.070299	0.549810
C80	C	-0.012943	-0.570299	1.049810
C81	C	-0.512932	-1.070317	0.632124
C82	C	-0.012932	-0.570317	1.132124
C83	C	-0.513012	-0.263418	0.356639
C84	C	-0.013012	0.236582	0.856639
C85	C	-0.513018	-0.345732	0.356649
C86	C	-0.013018	0.154268	0.856649
C87	C	-0.512920	-1.070256	0.164238
C88	C	-0.012920	-0.570256	0.664238
C89	C	-0.512632	-1.070381	0.081924
C90	C	-0.012632	-0.570381	0.581924
C91	C	-0.512732	-1.070360	0.931216
C92	C	-0.012732	-0.570360	1.431216
C93	C	-0.594715	-1.012909	0.899887
C94	C	-0.094715	-0.512909	1.399887
C95	C	-0.595095	-1.013065	0.814269
C96	C	-0.095095	-0.513065	1.314269
C97	C	-0.512831	-1.070338	0.782833
C98	C	-0.012831	-0.570338	1.282833
C99	C	-0.543288	-1.148369	0.813919
C100	C	-0.043288	-0.648369	1.313919
C101	C	-0.543827	-1.148049	0.899564
C102	C	-0.043827	-0.648049	1.399564
C103	C	-0.400111	-1.050458	0.899637
C104	C	0.099889	-0.550458	1.399637
C105	C	-0.400761	-1.048722	0.813987
C106	C	0.099239	-0.548722	1.313987
C107	C	-0.512886	-1.070330	0.698973
C108	C	-0.012886	-0.570330	1.198973
C109	C	-0.512681	-1.070373	1.015075
C110	C	-0.012681	-0.570373	1.515075
H111	H	-0.377204	-0.508137	0.435715
H112	H	0.122796	-0.008137	0.935715
Br113	Br	-1.099131	-1.189616	0.237438
Br114	Br	-0.599131	-0.689616	0.737438
H115	H	-0.946181	-1.036835	0.231891
H116	H	-0.446181	-0.536835	0.731891
H117	H	-0.945735	-1.194916	0.390179
H118	H	-0.445735	-0.694916	0.890179
Br119	Br	-0.925375	-0.950937	0.475701
Br120	Br	-0.425375	-0.450937	0.975701
H121	H	-0.576035	-0.955202	0.793251
H122	H	-0.076035	-0.455202	1.293251
H123	H	-1.078821	-1.103639	0.481394
H124	H	-0.578821	-0.603639	0.981394
Br125	Br	-0.732987	-1.034543	0.935829
Br126	Br	-0.232987	-0.534543	1.435829
H127	H	-0.488091	-0.635033	0.233972
H128	H	0.011909	-0.135033	0.733972
H129	H	-0.481256	-0.507723	0.235832
H130	H	0.018744	-0.007723	0.735832
Br131	Br	-0.681044	-1.176165	0.932878
Br132	Br	-0.181044	-0.676165	1.432878
H133	H	-0.485453	-1.192324	0.793557
H134	H	0.014547	-0.692324	1.293557
Br135	Br	-1.099899	-0.907568	0.312951
Br136	Br	-0.599899	-0.407568	0.812951
Br137	Br	-0.563268	-0.916171	0.934213
Br138	Br	-0.063268	-0.416171	1.434213
Br139	Br	-0.734218	-1.035011	0.780127
Br140	Br	-0.234218	-0.535011	1.280127
H141	H	-0.339030	-1.092302	0.919897
H142	H	0.160970	-0.592302	1.419897
Br143	Br	-0.448556	-1.221767	0.934111
Br144	Br	0.051444	-0.721767	1.434111
Br145	Br	-0.679048	-1.176976	0.778185
Br146	Br	-0.179048	-0.676976	1.278185
Br147	Br	-0.353864	-0.957266	0.935634
Br148	Br	0.146136	-0.457266	1.435634
H149	H	-0.377794	-0.991298	0.793669
H150	H	0.122206	-0.491298	1.293669
H151	H	-0.336437	-1.087511	0.792587
H152	H	0.163563	-0.587511	1.292587
H153	H	-0.679038	-0.507182	0.400393
H154	H	-0.179038	-0.007182	0.900393
Br155	Br	-0.564673	-0.491906	0.509864
Br156	Br	-0.064673	0.008094	1.009864
Br157	Br	-0.733948	-0.648424	0.391599
Br158	Br	-0.233948	-0.148424	0.891599
H159	H	-0.337568	-0.507369	0.338827
H160	H	0.162432	-0.007369	0.838827
Br161	Br	-0.563990	-0.647574	0.510657
Br162	Br	-0.063990	-0.147574	1.010657
H163	H	-0.337611	-0.634100	0.337812
H164	H	0.162389	-0.134100	0.837812
H165	H	-0.621802	-0.506394	0.258884
H166	H	-0.121802	-0.006394	0.758884
Br167	Br	-0.359877	-0.649513	0.472482
Br168	Br	0.140123	-0.149513	0.972482
H169	H	-0.626409	-0.633962	0.262597
H170	H	-0.126409	-0.133962	0.762597
