data_functionalizedCrystal
_audit_creation_method	'MofGen! by Chris Wilmer'
_symmetry_space_group_name_H-M	'P1'
_symmetry_Int_Tables_number	1
_symmetry_cell_setting	triclinic
loop_
_symmetry_equiv_pos_as_xyz
  x,y,z
_cell_length_a	12.827892
_cell_length_b	19.077367
_cell_length_c	19.076919
_cell_angle_alpha	94.478002
_cell_angle_beta	87.724465
_cell_angle_gamma	87.686146
loop_
_atom_site_label
_atom_site_type_symbol
_atom_site_fract_x
_atom_site_fract_y
_atom_site_fract_z
Zn1	Zn	-0.373958	-1.061714	0.355438
Zn2	Zn	-0.541404	-1.066387	0.237564
Zn3	Zn	-0.373984	-0.948569	0.242289
Zn4	Zn	-0.555967	-0.943817	0.360130
O5	O	-0.461328	-1.005122	0.298855
O6	O	-0.390065	-1.160982	0.335860
O7	O	-0.513112	-1.054702	0.139544
O8	O	-0.227743	-0.963612	0.257312
O9	O	-0.513087	-1.164415	0.249259
O10	O	-0.227725	-1.046739	0.340442
O11	O	-0.390109	-0.968142	0.143015
O12	O	-0.404230	-0.849291	0.261862
O13	O	-0.537907	-0.955512	0.458155
O14	O	-0.537932	-0.845800	0.348439
O15	O	-0.404186	-1.042131	0.454707
O16	O	-0.689573	-1.050094	0.253809
O17	O	-0.700273	-0.960043	0.343858
C18	C	-0.472665	-0.821967	0.306173
C19	C	-0.477541	-0.743613	0.309320
C20	C	-0.410123	-0.708595	0.265796
C21	C	-0.414714	-0.634973	0.268753
C22	C	-0.486717	-0.596368	0.315238
C23	C	-0.554141	-0.631390	0.358763
C24	C	-0.549555	-0.705012	0.355802
C25	C	-0.507913	-0.375991	0.328916
C26	C	-0.512492	-0.302364	0.331875
C27	C	-0.373065	-0.305951	0.241864
C28	C	-0.368481	-0.379574	0.238910
C29	C	-0.435909	-0.414590	0.282433
N30	N	-0.491409	-0.521114	0.318263
N31	N	-0.431222	-0.489843	0.279404
C32	C	-0.732840	-1.005078	0.298845
C33	C	-0.848992	-1.005123	0.298861
C34	C	-0.895447	-1.049733	0.254348
C35	C	-1.015496	-1.049780	0.254364
C36	C	-0.188756	-1.005184	0.298881
C37	C	-0.072602	-1.005211	0.298891
C38	C	-0.472668	-0.997770	0.482724
C39	C	-0.477501	-0.994637	0.561079
C40	C	-0.449943	-0.188992	0.291503
C41	C	-0.445075	-0.267347	0.288352
C42	C	-0.449955	-1.012486	0.115700
C43	C	-0.444820	-1.015755	0.037340
C44	C	-0.410153	-1.038261	0.596096
C45	C	-0.414690	-1.035308	0.669718
C46	C	-0.486581	-0.988736	0.708322
C47	C	-0.553931	-0.945107	0.673300
C48	C	-0.549389	-0.948057	0.599679
C49	C	-0.507628	-0.975076	0.928697
C50	C	-0.512168	-0.972132	1.002323
C51	C	-0.372924	-1.062332	0.998737
C52	C	-0.368392	-1.065280	0.925115
C53	C	-0.435739	-1.021649	0.890099
N54	N	-0.491222	-0.985718	0.783576
N55	N	-0.431092	-1.024664	0.814846
H56	H	-0.359822	-0.606465	0.233308
H57	H	-0.604454	-0.733522	0.391244
H58	H	-0.562817	-0.404492	0.364355
F59	F	-0.630786	-0.590303	0.408227
F60	F	-0.333483	-0.749675	0.216324
F61	F	-0.579305	-0.928640	0.891440
F62	F	-0.291838	-0.420655	0.189440
H63	H	-1.032639	-0.967014	0.337001
F64	F	-0.291876	-1.114850	0.884035
F65	F	-0.301310	-0.268680	0.195546
F66	F	-1.067737	-1.099698	0.204546
F67	F	-0.589129	-0.261279	0.381354
F68	F	-0.913168	-0.955251	0.348694
F69	F	-0.831272	-1.099612	0.204522
F70	F	-0.630439	-0.895538	0.714386
H71	H	-0.351614	-1.076188	0.564670
F72	F	-0.343043	-1.081763	0.706982
H73	H	-0.318093	-1.097853	1.027255
H74	H	-0.570712	-0.934204	1.033753
F75	F	-0.621067	-0.901625	0.562411
