data_functionalizedCrystal
_audit_creation_method	'MofGen! by Chris Wilmer'
_symmetry_space_group_name_H-M	'P1'
_symmetry_Int_Tables_number	1
_symmetry_cell_setting	triclinic
loop_
_symmetry_equiv_pos_as_xyz
  x,y,z
_cell_length_a	6.817900
_cell_length_b	12.200863
_cell_length_c	18.218294
_cell_angle_alpha	98.289195
_cell_angle_beta	91.547665
_cell_angle_gamma	107.143441
loop_
_atom_site_label
_atom_site_type_symbol
_atom_site_fract_x
_atom_site_fract_y
_atom_site_fract_z
V1	V	-3.915993	-0.161421	-0.229287
O2	O	-3.886601	0.004971	-0.224846
O3	O	-3.886555	-0.317391	-0.227793
O4	O	-3.810940	-0.160160	-0.329254
O5	O	-3.962740	-0.153348	-0.122683
V6	V	-4.404505	-0.141374	-0.216528
O7	O	-4.166308	-0.205395	-0.257277
O8	O	-4.604388	-0.097400	-0.188538
O9	O	-4.210737	0.014596	-0.218022
O10	O	-4.551295	-0.307766	-0.220969
O11	O	-4.475156	-0.149446	-0.323132
O12	O	-4.286352	-0.142634	-0.116561
C13	C	-3.738002	-0.355375	-0.224195
C14	C	-3.794842	-0.482890	-0.223640
C15	C	-3.641558	-0.154806	-0.353617
C16	C	-3.636989	-0.154805	-0.436877
V17	V	-3.897232	-0.161436	-0.571937
O18	O	-3.932296	-0.153366	-0.678503
O19	O	-3.803343	-0.160172	-0.468201
O20	O	-3.866102	-0.317405	-0.601192
O21	O	-3.869103	0.004955	-0.544592
V22	V	-4.383604	-0.141397	-0.598319
O23	O	-4.149680	-0.205413	-0.561014
O24	O	-4.580481	-0.097426	-0.625230
O25	O	-4.254720	-0.142658	-0.694127
O26	O	-4.465710	-0.149468	-0.495922
O27	O	-4.528903	-0.307790	-0.629834
O28	O	-4.191961	0.014575	-0.561136
C29	C	-3.898867	-0.716355	-0.222629
C30	C	-3.840972	-0.586438	-0.223191
C31	C	-4.022634	0.052574	-0.221618
C32	C	-3.945030	0.180088	-0.222178
C33	C	-4.119091	-0.147988	-0.092194
C34	C	-4.102813	-0.147981	-0.010470
C35	C	-3.717054	-0.355380	-0.606520
C36	C	-3.772425	-0.482894	-0.632652
C37	C	-4.085056	-0.148006	-0.713491
C38	C	-4.059856	-0.148005	-0.794477
C39	C	-4.073067	-0.147994	0.139155
C40	C	-4.089628	-0.147986	0.055894
C41	C	-4.005002	0.052562	-0.543849
C42	C	-3.928909	0.180078	-0.516986
C43	C	-3.979161	-0.548669	-0.648771
C44	C	-4.031215	-0.668480	-0.673335
C45	C	-3.876530	-0.722516	-0.681775
C46	C	-3.669776	-0.656731	-0.665657
C47	C	-3.617724	-0.536921	-0.641098
C48	C	-3.719846	0.234090	-0.495618
C49	C	-3.648317	0.353907	-0.470386
C50	C	-3.785858	0.419709	-0.466519
C51	C	-3.994939	0.365689	-0.487891
C52	C	-4.066462	0.245876	-0.513127
H53	H	-4.105141	-0.504691	-0.641899
F54	F	-3.425794	0.411375	-0.447641
H55	H	-4.199573	-0.722026	-0.686454
H56	H	-3.918942	-0.820074	-0.701774
H57	H	-3.543845	-0.700745	-0.672533
H58	H	-3.449378	-0.483376	-0.627972
F59	F	-3.573427	0.164080	-0.499730
H60	H	-3.727593	0.517267	-0.445967
H61	H	-4.106908	0.419283	-0.484739
H62	H	-4.236703	0.201909	-0.530521
