data_functionalizedCrystal
_audit_creation_method	'MofGen! by Chris Wilmer'
_symmetry_space_group_name_H-M	'P1'
_symmetry_Int_Tables_number	1
_symmetry_cell_setting	triclinic
loop_
_symmetry_equiv_pos_as_xyz
  x,y,z
_cell_length_a	16.109301
_cell_length_b	13.330367
_cell_length_c	16.109304
_cell_angle_alpha	90.001834
_cell_angle_beta	83.462059
_cell_angle_gamma	90.004834
loop_
_atom_site_label
_atom_site_type_symbol
_atom_site_fract_x
_atom_site_fract_y
_atom_site_fract_z
O1	O	1.103137	0.083354	0.106866
O2	O	1.603137	0.583354	0.606866
O3	O	0.861075	0.083369	0.120166
O4	O	1.361075	0.583369	0.620166
O5	O	0.988754	0.083361	-0.007515
O6	O	1.488754	0.583361	0.492485
O7	O	0.975457	0.083361	0.234547
O8	O	1.475457	0.583361	0.734547
O9	O	0.988736	-0.083486	-0.007518
O10	O	1.488736	0.416514	0.492482
O11	O	0.861056	-0.083478	0.120163
O12	O	1.361056	0.416522	0.620163
O13	O	1.103118	-0.083493	0.106864
O14	O	1.603118	0.416507	0.606864
Cu15	Cu	0.982086	-0.098720	0.113513
Cu16	Cu	1.482086	0.401280	0.613513
Cu17	Cu	0.982107	0.098596	0.113516
Cu18	Cu	1.482107	0.598596	0.613516
O19	O	0.975439	-0.083486	0.234544
O20	O	1.475439	0.416514	0.734544
C21	C	0.830091	-0.000053	0.119626
C22	C	1.330091	0.499947	0.619626
C23	C	0.737795	-0.000047	0.118010
C24	C	1.237795	0.499953	0.618010
N25	N	0.982076	-0.237502	0.113510
N26	N	1.482076	0.262498	0.613510
C27	C	0.515524	-0.000058	0.190018
C28	C	1.015524	0.499942	0.690018
C29	C	0.428803	-0.000065	0.188494
C30	C	0.928803	0.499935	0.688494
C31	C	0.448676	-0.000060	0.037005
C32	C	0.948676	0.499940	0.537005
C33	C	0.535395	-0.000061	0.038530
C34	C	1.035395	0.499939	0.538530
C35	C	0.568816	-0.000055	0.115039
C36	C	1.068816	0.499945	0.615039
C37	C	0.395377	-0.000061	0.111990
C38	C	0.895377	0.499939	0.611990
C39	C	0.301351	-0.000068	0.110337
C40	C	0.801351	0.499932	0.610337
C41	C	0.662848	-0.000050	0.116693
C42	C	1.162848	0.499950	0.616693
C43	C	0.925569	-0.710121	0.170031
C44	C	1.425569	-0.210121	0.670031
C45	C	1.038669	-0.710096	0.056995
C46	C	1.538669	-0.210096	0.556995
C47	C	1.038659	-0.605078	0.056993
C48	C	1.538659	-0.105078	0.556993
C49	C	0.982105	-0.552576	0.113511
C50	C	1.482105	-0.052576	0.613511
C51	C	0.925559	-0.605093	0.170032
C52	C	1.425559	-0.105093	0.670032
C53	C	1.095209	-0.552553	0.000478
C54	C	1.595209	-0.052553	0.500478
C55	C	1.095203	-0.447528	0.000474
C56	C	1.595203	0.052472	0.500474
C57	C	1.038643	-0.395025	0.056989
C58	C	1.538643	0.104975	0.556989
C59	C	0.982095	-0.447548	0.113512
C60	C	1.482095	0.052452	0.613512
C61	C	0.925540	-0.395047	0.170030
C62	C	1.425540	0.104953	0.670030
C63	C	0.868987	-0.447568	0.226550
C64	C	1.368987	0.052432	0.726550
C65	C	0.869000	-0.552590	0.226547
C66	C	1.369000	-0.052590	0.726547
C67	C	1.038631	-0.290003	0.056992
C68	C	1.538631	0.209997	0.556992
C69	C	0.925531	-0.290019	0.170031
C70	C	1.425531	0.209981	0.670031
C71	C	1.134102	-0.000070	0.107404
C72	C	1.634102	0.499930	0.607404
C73	C	1.226398	-0.000069	0.109019
C74	C	1.726398	0.499931	0.609019
C75	C	0.988206	-0.000060	-0.038491
C76	C	1.488206	0.499940	0.461509
C77	C	0.986590	-0.000053	-0.130786
C78	C	1.486590	0.499947	0.369214
N79	N	0.982123	0.237377	0.113513
N80	N	1.482123	0.737377	0.613513
C81	C	0.982866	0.090892	-0.343122
C82	C	1.482866	0.590892	0.156878
C83	C	0.981340	0.090891	-0.429842
C84	C	1.481340	0.590891	0.070158
C85	C	0.981324	-0.091015	-0.429842
C86	C	1.481324	0.408985	0.070158
C87	C	0.982844	-0.091013	-0.343123
C88	C	1.482844	0.408987	0.156877
C89	C	0.983620	-0.000056	-0.299766
C90	C	1.483620	0.499944	0.200234
C91	C	0.980573	-0.000059	-0.473205
C92	C	1.480573	0.499941	0.026795
C93	C	0.978919	-0.000061	-0.567231
C94	C	1.478919	0.499939	-0.067231
C95	C	0.985273	-0.000055	-0.205734
C96	C	1.485273	0.499945	0.294266
C97	C	0.975987	-0.000062	0.265520
C98	C	1.475987	0.499938	0.765520
C99	C	0.977603	-0.000063	0.357816
C100	C	1.477603	0.499937	0.857816
H101	H	0.542732	-0.000061	0.252316
H102	H	1.042732	0.499939	0.752316
H103	H	0.980695	-0.165068	-0.465155
H104	H	1.480695	0.334932	0.034845
H105	H	0.983453	-0.165079	-0.307821
H106	H	1.483453	0.334921	0.192179
Cl107	Cl	0.602396	-0.000065	-0.055737
Cl108	Cl	1.102396	0.499935	0.444263
H109	H	0.980725	0.164951	-0.465139
H110	H	1.480725	0.664951	0.034861
H111	H	0.385416	-0.000069	0.249550
H112	H	0.885416	0.499931	0.749550
H113	H	0.421454	-0.000071	-0.025285
H114	H	0.921454	0.499929	0.474715
Cl115	Cl	0.983836	0.205237	-0.288618
Cl116	Cl	1.483836	0.705237	0.211382
Cl117	Cl	0.854425	-0.224026	0.241083
Cl118	Cl	1.354425	0.275974	0.741083
H119	H	0.822957	-0.595360	0.272564
H120	H	1.322957	-0.095360	0.772564
Cl121	Cl	0.854473	-0.776143	0.241078
Cl122	Cl	1.354473	-0.276143	0.741078
Cl123	Cl	0.797898	-0.381556	0.297604
Cl124	Cl	1.297898	0.118444	0.797604
H125	H	1.084718	-0.752846	0.010983
H126	H	1.584718	-0.252846	0.510983
H127	H	1.141259	-0.595303	-0.045533
H128	H	1.641259	-0.095303	0.454467
Cl129	Cl	1.166293	-0.381508	-0.070579
Cl130	Cl	1.666293	0.118492	0.429421
Cl131	Cl	1.109726	-0.223983	-0.014051
Cl132	Cl	1.609726	0.276017	0.485949
