data_functionalizedCrystal
_audit_creation_method	'MofGen! by Chris Wilmer'
_symmetry_space_group_name_H-M	'P1'
_symmetry_Int_Tables_number	1
_symmetry_cell_setting	triclinic
loop_
_symmetry_equiv_pos_as_xyz
  x,y,z
_cell_length_a	17.077404
_cell_length_b	21.295417
_cell_length_c	17.077396
_cell_angle_alpha	89.967021
_cell_angle_beta	89.983895
_cell_angle_gamma	90.027672
loop_
_atom_site_label
_atom_site_type_symbol
_atom_site_fract_x
_atom_site_fract_y
_atom_site_fract_z
Zn1	Zn	1.200000	-0.250638	-0.443799
Zn2	Zn	1.199897	-0.355913	-0.312524
Zn3	Zn	1.068737	-0.250658	-0.312549
Zn4	Zn	1.068684	-0.355870	-0.443751
O5	O	1.134329	-0.303270	-0.378156
O6	O	1.309833	-0.264613	-0.426395
O7	O	1.182477	-0.341977	-0.202681
O8	O	1.086215	-0.162566	-0.329991
O9	O	1.309757	-0.341958	-0.329948
O10	O	1.182653	-0.162551	-0.426419
O11	O	1.086114	-0.264646	-0.202699
O12	O	0.958883	-0.264604	-0.329944
O13	O	1.086125	-0.341884	-0.553604
O14	O	0.958844	-0.341903	-0.426337
O15	O	1.182602	-0.264571	-0.553639
O16	O	1.182426	-0.443996	-0.329901
O17	O	1.086024	-0.443965	-0.426313
C18	C	0.930382	-0.303252	-0.378138
C19	C	0.843132	-0.303259	-0.378149
C20	C	0.802182	-0.263057	-0.428446
C21	C	0.720201	-0.263061	-0.428449
C22	C	0.679172	-0.303271	-0.378160
C23	C	0.720128	-0.343475	-0.327858
C24	C	0.802107	-0.343467	-0.327851
C25	C	0.549258	-0.343489	-0.327877
C26	C	0.467273	-0.343498	-0.327885
C27	C	0.467352	-0.263083	-0.428476
C28	C	0.549331	-0.263076	-0.428469
C29	C	0.590281	-0.303280	-0.378168
C30	C	1.134229	-0.466821	-0.378116
C31	C	1.134258	-0.536789	-0.378125
C32	C	1.184445	-0.569591	-0.428371
C33	C	1.184473	-0.635334	-0.428391
C34	C	1.134322	-0.668272	-0.378150
C35	C	1.084126	-0.635462	-0.327900
C36	C	1.084094	-0.569721	-0.327888
N37	N	1.128396	-0.771536	-0.309452
N38	N	1.128430	-0.833987	-0.309466
C39	C	1.134414	-0.866346	-0.378186
N40	N	1.140376	-0.833895	-0.446892
N41	N	1.140345	-0.771438	-0.446877
C42	C	1.134351	-0.739557	-0.378158
C43	C	1.184633	-0.970434	-0.428457
C44	C	1.184655	-1.036178	-0.428478
C45	C	1.084312	-1.036304	-0.327980
C46	C	1.084286	-0.970562	-0.327966
C47	C	1.134451	-0.937631	-0.378204
C48	C	1.339074	-0.303288	-0.378174
C49	C	1.426323	-0.303296	-0.378182
C50	C	1.134369	-0.303221	-0.582900
C51	C	1.134386	-0.303200	-0.670150
C52	C	1.134451	-0.139079	-0.378213
C53	C	1.134503	-0.069111	-0.378237
C54	C	1.084225	-0.262929	-0.711149
C55	C	1.084238	-0.262915	-0.793130
C56	C	1.134416	-0.303169	-0.834110
C57	C	1.184579	-0.343444	-0.793105
C58	C	1.184561	-0.343461	-0.711126
C59	C	1.184613	-0.343405	-0.963975
C60	C	1.184631	-0.343387	-1.045960
C61	C	1.084289	-0.262859	-1.045979
C62	C	1.084272	-0.262876	-0.964000
C63	C	1.134436	-0.303150	-0.923001
C64	C	1.134335	-0.303273	-0.174208
C65	C	1.134471	-0.303116	-0.086959
H66	H	0.835447	-0.376203	-0.286894
H67	H	1.225334	-0.662046	-0.469316
C68	C	0.593759	-0.387037	-0.273169
C69	C	0.640807	-0.351342	-0.222917
C70	C	0.681804	-0.391438	-0.172508
H71	H	0.625801	-0.414504	-0.303042
H72	H	0.557607	-0.410976	-0.243176
H73	H	0.676955	-0.327414	-0.252907
H74	H	0.608785	-0.323877	-0.193027
H75	H	0.645652	-0.415377	-0.142515
H76	H	0.713841	-0.418903	-0.202387
H77	H	0.713725	-0.367225	-0.138401
C78	C	0.422680	-0.387224	-0.273411
C79	C	0.375629	-0.427634	-0.317766
C80	C	0.334545	-0.467927	-0.267611
H81	H	0.390634	-0.363179	-0.239260
H82	H	0.458781	-0.411202	-0.243459
H83	H	0.339533	-0.403658	-0.347705
H84	H	0.407656	-0.451693	-0.351916
H85	H	0.370645	-0.491905	-0.237660
H86	H	0.302503	-0.443876	-0.233462
H87	H	0.302622	-0.495354	-0.297699
H88	H	0.686716	-0.376211	-0.286908
H89	H	1.225430	-0.376222	-0.826477
H90	H	1.225468	-0.376195	-0.930596
H91	H	1.225491	-0.376165	-1.079323
C92	C	1.238934	-0.533952	-0.483003
C93	C	1.282879	-0.576755	-0.527025
C94	C	1.333074	-0.543946	-0.577366
H95	H	1.273211	-0.508297	-0.453088
H96	H	1.208893	-0.508321	-0.517218
H97	H	1.312918	-0.602375	-0.492813
H98	H	1.248623	-0.602411	-0.556956
H99	H	1.303033	-0.518315	-0.611582
H100	H	1.367346	-0.518292	-0.547444
H101	H	1.362891	-0.572982	-0.607246
H102	H	1.225413	-0.376249	-0.677745
H103	H	1.043291	-0.662284	-0.286996
C104	C	1.029576	-0.534217	-0.273243
C105	C	0.985670	-0.577129	-0.229235
C106	C	0.935449	-0.544445	-0.178879
H107	H	0.995276	-0.508573	-0.303147
H108	H	1.059597	-0.508585	-0.239019
H109	H	0.955652	-0.602750	-0.263454
H110	H	1.019950	-0.602775	-0.199314
H111	H	0.965470	-0.518814	-0.144655
H112	H	0.901154	-0.518802	-0.208789
H113	H	0.905658	-0.573556	-0.149008
H114	H	1.225478	-0.943620	-0.469366
C115	C	1.239236	-1.071681	-0.483061
C116	C	1.283175	-1.028766	-0.527034
C117	C	1.333472	-1.061449	-0.577316
H118	H	1.209293	-1.097329	-0.517316
H119	H	1.273506	-1.097307	-0.453081
H120	H	1.248909	-1.003151	-0.557012
H121	H	1.313134	-1.003116	-0.492800
H122	H	1.367742	-1.087075	-0.547335
H123	H	1.303523	-1.087096	-0.611565
H124	H	1.363296	-1.032337	-0.607152
H125	H	1.043473	-1.063122	-0.287078
H126	H	1.043422	-0.943853	-0.287048
H127	H	0.686864	-0.230326	-0.469407
C128	C	1.029657	-0.219201	-0.666802
C129	C	0.985715	-0.183944	-0.720258
C130	C	0.935427	-0.143663	-0.679437
H131	H	1.059607	-0.191726	-0.634831
H132	H	0.995388	-0.243273	-0.634828
H133	H	1.019979	-0.159875	-0.752219
H134	H	0.955749	-0.211403	-0.752231
H135	H	0.901159	-0.167735	-0.647463
H136	H	0.965384	-0.116192	-0.647467
H137	H	0.905602	-0.119741	-0.715701
C138	C	1.029668	-0.219300	-0.837676
C139	C	0.979320	-0.254934	-0.884695
C140	C	0.929024	-0.214780	-0.925730
H141	H	1.059619	-0.191852	-0.869740
H142	H	0.999740	-0.195344	-0.801547
H143	H	1.009245	-0.278880	-0.920820
H144	H	0.949352	-0.282381	-0.852650
H145	H	0.899095	-0.190823	-0.889601
H146	H	0.958981	-0.187334	-0.957790
H147	H	0.894852	-0.238952	-0.957632
C148	C	1.029840	-0.219211	-1.090630
C149	C	1.040569	-0.227828	-1.171194
C150	C	0.990417	-0.187640	-1.212354
H151	H	1.041299	-0.176891	-1.077314
H152	H	0.977075	-0.228434	-1.077223
H153	H	1.093322	-0.218600	-1.184595
H154	H	1.029104	-0.270139	-1.184533
H155	H	0.937652	-0.196863	-1.198948
H156	H	1.001881	-0.145322	-1.199032
H157	H	0.997685	-0.193485	-1.267021
H158	H	0.835582	-0.230316	-0.469399
H159	H	0.582735	-0.230337	-0.469424
H160	H	0.434007	-0.230346	-0.469431
H161	H	1.043416	-0.230095	-0.930636
