data_functionalizedCrystal
_audit_creation_method	'MofGen! by Chris Wilmer'
_symmetry_space_group_name_H-M	'P1'
_symmetry_Int_Tables_number	1
_symmetry_cell_setting	triclinic
loop_
_symmetry_equiv_pos_as_xyz
  x,y,z
_cell_length_a	14.044220
_cell_length_b	16.109302
_cell_length_c	12.503572
_cell_angle_alpha	86.480786
_cell_angle_beta	86.154684
_cell_angle_gamma	91.674671
loop_
_atom_site_label
_atom_site_type_symbol
_atom_site_fract_x
_atom_site_fract_y
_atom_site_fract_z
O1	O	-0.116351	1.116586	-0.089367
O2	O	-0.131513	0.875652	-0.089359
O3	O	0.014051	0.992502	-0.089358
O4	O	-0.261915	0.999736	-0.089368
O5	O	0.003086	0.983716	0.089284
O6	O	-0.142479	0.866865	0.089283
O7	O	-0.127317	1.107800	0.089275
Cu8	Cu	-0.135899	0.986530	0.105590
Cu9	Cu	-0.122931	0.996921	-0.105674
O10	O	-0.272881	0.990949	0.089274
C11	C	-0.136382	0.840238	-0.000037
C12	C	-0.134540	0.747806	-0.000033
C13	C	-0.136259	0.530359	0.097334
C14	C	-0.134518	0.443510	0.097330
C15	C	-0.122568	0.453100	-0.097435
C16	C	-0.124302	0.539948	-0.097430
C17	C	-0.131152	0.578575	-0.000043
C18	C	-0.127677	0.404877	-0.000051
C19	C	-0.125790	0.310711	-0.000056
C20	C	-0.133038	0.672747	-0.000037
C21	C	-0.302712	0.998509	-0.000048
C22	C	-0.407934	1.007953	-0.000053
C23	C	-0.600590	1.025218	-0.000048
C24	C	-0.658244	0.958238	-0.000045
C25	C	-0.765445	0.967845	-0.000043
C26	C	-0.493380	1.015612	-0.000051
C27	C	0.043882	0.984943	-0.000038
C28	C	0.149105	0.975500	-0.000041
C29	C	-0.122448	1.143214	-0.000050
C30	C	-0.124289	1.235647	-0.000060
N31	N	-0.145019	0.979228	0.254182
N32	N	-0.113803	1.004230	-0.254267
C33	C	-0.158444	0.968486	0.473298
C34	C	-0.100382	1.014969	0.526625
C35	C	-0.107851	1.008992	0.648548
C36	C	-0.150975	0.974462	0.351363
H37	H	-0.138676	0.404255	0.176624
H38	H	-0.631740	1.089770	-0.000047
C39	C	-0.025660	1.074806	0.464602
N40	N	0.030613	1.119878	0.417881
C41	C	-0.233169	0.908663	0.535320
N42	N	-0.289453	0.863605	0.582048
C43	C	-0.143783	0.572846	0.204463
N44	N	-0.149446	0.604844	0.285156
C45	C	-0.115040	0.410602	-0.204556
N46	N	-0.109374	0.378593	-0.285241
H47	H	-0.120140	0.579207	-0.176731
C48	C	-0.616163	0.871022	-0.000034
N49	N	-0.584463	0.805334	-0.000020
