data_functionalizedCrystal
_audit_creation_method	'MofGen! by Chris Wilmer'
_symmetry_space_group_name_H-M	'P1'
_symmetry_Int_Tables_number	1
_symmetry_cell_setting	triclinic
loop_
_symmetry_equiv_pos_as_xyz
  x,y,z
_cell_length_a	10.654549
_cell_length_b	11.792241
_cell_length_c	9.730217
_cell_angle_alpha	89.996588
_cell_angle_beta	89.997559
_cell_angle_gamma	84.340167
loop_
_atom_site_label
_atom_site_type_symbol
_atom_site_fract_x
_atom_site_fract_y
_atom_site_fract_z
O1	O	1.667382	0.159444	-0.114324
O2	O	1.301861	0.174627	-0.114320
O3	O	1.493492	0.001886	-0.114312
O4	O	1.475752	0.332186	-0.114331
O5	O	1.493486	0.001884	0.114268
O6	O	1.301855	0.174625	0.114261
O7	O	1.667376	0.159443	0.114256
Zn8	Zn	1.484615	0.167034	0.150550
Zn9	Zn	1.484623	0.167036	-0.150614
O10	O	1.475746	0.332184	0.114249
C11	C	1.255064	0.173510	-0.000029
C12	C	1.115630	0.170172	-0.000027
C13	C	0.825079	0.370463	-0.000077
C14	C	0.876319	0.475314	-0.000078
C15	C	1.007328	0.478455	-0.000060
C16	C	1.087102	0.376733	-0.000046
C17	C	1.035861	0.271882	-0.000045
C18	C	0.904848	0.268752	-0.000059
C19	C	1.064390	0.065320	-0.000027
C20	C	0.933381	0.062177	-0.000035
C21	C	1.144163	-0.036401	-0.000012
C22	C	1.092923	-0.141255	-0.000002
C23	C	0.961905	-0.144392	-0.000018
C24	C	0.882140	-0.042675	-0.000034
C25	C	1.492375	-0.040409	-0.000023
C26	C	1.489039	-0.166430	-0.000024
C27	C	1.482906	-0.397156	-0.000047
C28	C	1.486314	-0.268763	-0.000034
C29	C	1.714174	0.160560	-0.000038
C30	C	1.853608	0.163898	-0.000049
C31	C	1.476863	0.374478	-0.000044
C32	C	1.480198	0.500500	-0.000052
N33	N	1.484619	0.167032	0.356087
N34	N	1.484629	0.167029	-0.356150
C35	C	1.654377	0.014114	0.356084
C36	C	1.739265	-0.062341	0.428022
C37	C	1.739278	-0.062342	0.571902
C38	C	1.654391	0.014119	0.643847
C39	C	1.569504	0.090574	0.571908
C40	C	1.569502	0.090569	0.428025
C41	C	1.399741	0.243485	0.571911
C42	C	1.399732	0.243493	0.428031
C43	C	1.314854	0.319945	0.643856
C44	C	1.229971	0.396408	0.571917
C45	C	1.229962	0.396406	0.428029
C46	C	1.314845	0.319948	0.356093
H47	H	1.157883	-0.224068	0.000000
H48	H	1.250836	-0.033837	-0.000005
Cl49	Cl	1.654386	0.014122	0.175205
Cl50	Cl	1.071749	0.610269	-0.000070
Cl51	Cl	1.123261	0.492513	0.662365
Cl52	Cl	0.660379	0.366522	-0.000071
Cl53	Cl	1.845988	-0.158464	0.662341
H54	H	1.193775	0.379300	-0.000047
Cl55	Cl	1.314862	0.319942	0.824735
Cl56	Cl	0.897501	-0.276214	-0.000026
H57	H	0.811354	0.558133	-0.000094
H58	H	1.654396	0.014104	0.761001
Cl59	Cl	1.314847	0.319943	0.175214
Cl60	Cl	1.123232	0.492522	0.337605
H61	H	1.808377	-0.124597	0.369432
Cl62	Cl	0.717440	-0.046609	-0.000046
