data_functionalizedCrystal
_audit_creation_method	'MofGen! by Chris Wilmer'
_symmetry_space_group_name_H-M	'P1'
_symmetry_Int_Tables_number	1
_symmetry_cell_setting	triclinic
loop_
_symmetry_equiv_pos_as_xyz
  x,y,z
_cell_length_a	17.699083
_cell_length_b	14.044220
_cell_length_c	16.776229
_cell_angle_alpha	89.992645
_cell_angle_beta	89.998886
_cell_angle_gamma	88.235946
loop_
_atom_site_label
_atom_site_type_symbol
_atom_site_fract_x
_atom_site_fract_y
_atom_site_fract_z
O1	O	1.012346	0.119850	-0.066178
O2	O	0.793043	0.135443	-0.066204
O3	O	0.899403	-0.010330	-0.066183
O4	O	0.905986	0.265624	-0.066198
O5	O	0.899387	-0.010339	0.066393
O6	O	0.793027	0.135434	0.066372
O7	O	1.012330	0.119841	0.066399
Zn8	Zn	0.902676	0.127636	0.087435
Zn9	Zn	0.902697	0.127648	-0.087240
O10	O	0.905970	0.265615	0.066378
C11	C	0.764800	0.134880	0.000081
C12	C	0.680666	0.133204	0.000071
C13	C	0.637948	0.218769	0.000067
C14	C	0.558895	0.217189	0.000077
C15	C	0.522563	0.130041	0.000086
C16	C	0.565287	0.044469	0.000093
C17	C	0.644338	0.046050	0.000088
C18	C	0.246484	0.038089	0.000113
C19	C	0.167427	0.036514	0.000115
C20	C	0.161041	0.209227	0.000102
C21	C	0.240092	0.210809	0.000097
C22	C	0.282809	0.125237	0.000108
C23	C	0.368527	0.126952	0.000098
C24	C	0.436847	0.128325	0.000090
C25	C	0.896513	-0.045643	0.000105
C26	C	0.887917	-0.150849	0.000105
C27	C	0.872202	-0.343474	0.000091
C28	C	0.933168	-0.401248	0.000096
C29	C	0.924424	-0.508431	0.000089
C30	C	0.880945	-0.236281	0.000099
C31	C	1.040574	0.120404	0.000112
C32	C	1.124707	0.122081	0.000117
C33	C	0.908860	0.300927	0.000088
C34	C	0.917456	0.406133	0.000083
N35	N	0.902667	0.127628	0.206646
N36	N	0.902712	0.127649	-0.206452
C37	C	0.949781	0.063106	0.248372
C38	C	0.949785	0.063105	0.331825
C39	C	0.902679	0.127631	0.373549
C40	C	0.855560	0.192156	0.331817
C41	C	0.855552	0.192152	0.248366
C42	C	0.855589	0.192175	0.668364
C43	C	0.855601	0.192176	0.751821
C44	C	0.949821	0.063128	0.751822
C45	C	0.949813	0.063123	0.668372
C46	C	0.902692	0.127645	0.626647
C47	C	0.902687	0.127644	0.536159
C48	C	0.902687	0.127638	0.464036
H49	H	0.991930	-0.370212	0.000050
H50	H	0.817239	0.244723	0.785791
H51	H	0.281255	-0.031590	0.000123
H52	H	0.524117	0.286865	0.000073
O53	O	0.995446	0.000336	0.372389
C54	C	0.950989	-0.058064	0.420687
H55	H	0.891198	-0.059578	0.395550
H56	H	0.949031	-0.028401	0.483931
C57	C	1.059274	-0.158024	0.452842
C58	C	0.985839	-0.159890	0.421965
H59	H	1.080772	-0.220834	0.453634
H60	H	1.089226	-0.118677	0.420305
H61	H	1.057633	-0.133300	0.505543
H62	H	0.987482	-0.184602	0.369262
H63	H	0.955887	-0.199244	0.454493
H64	H	0.535699	-0.026488	0.000112
H65	H	0.813445	-0.374508	0.000082
H66	H	0.817222	0.244712	0.634398
H67	H	0.988143	0.010565	0.214406
H68	H	0.679119	-0.023626	0.000091
O69	O	0.809871	0.254802	0.372469
C70	C	0.819967	0.240959	0.455073
H71	H	0.877743	0.205443	0.466468
H72	H	0.773930	0.193493	0.478769
C73	C	0.744179	0.381552	0.483906
C74	C	0.815142	0.337938	0.497902
H75	H	0.741199	0.441372	0.510326
H76	H	0.737374	0.390877	0.428254
H77	H	0.705822	0.341987	0.503653
H78	H	0.853496	0.377497	0.478146
H79	H	0.821953	0.328622	0.553552
H80	H	0.126251	0.278904	0.000097
O81	O	0.275264	0.295547	0.000124
C82	C	0.220607	0.370733	0.000104
H83	H	0.165194	0.344288	0.025207
H84	H	0.211217	0.397125	-0.063500
C85	C	0.316503	0.485413	0.021260
C86	C	0.248445	0.452936	0.052098
H87	H	0.333675	0.536122	0.053329
H88	H	0.353327	0.434760	0.021271
H89	H	0.308668	0.507400	-0.031743
H90	H	0.256282	0.430939	0.105096
H91	H	0.211622	0.503588	0.052097
O92	O	0.995520	0.000478	0.792479
C93	C	0.985441	0.014326	0.875082
H94	H	0.927667	0.049839	0.886484
H95	H	1.031481	0.061796	0.898753
C96	C	1.061241	-0.126260	0.903930
C97	C	0.990279	-0.082651	0.917935
H98	H	1.064229	-0.186079	0.930366
H99	H	1.068034	-0.135589	0.848279
H100	H	1.099600	-0.086692	0.923656
H101	H	0.951922	-0.122213	0.898201
H102	H	0.983480	-0.073331	0.973584
H103	H	0.988174	0.010583	0.634402
O104	O	0.809766	0.254923	0.207954
C105	C	0.768177	0.311862	0.262674
H106	H	0.799281	0.312890	0.322156
H107	H	0.709887	0.281176	0.271562
C108	C	0.721270	0.412863	0.157032
C109	C	0.759476	0.414132	0.230088
H110	H	0.715899	0.475947	0.136931
H111	H	0.749287	0.374500	0.120166
H112	H	0.672699	0.387287	0.164449
H113	H	0.808049	0.439697	0.222668
H114	H	0.731467	0.452502	0.266952
H115	H	0.137848	-0.034456	0.000124
O116	O	0.673117	0.303509	0.000092
C117	C	0.618457	0.378692	0.000072
H118	H	0.563045	0.352244	0.025176
H119	H	0.609064	0.405081	-0.063533
C120	C	0.714348	0.493380	0.021223
C121	C	0.646292	0.460898	0.052063
H122	H	0.731518	0.544091	0.053290
H123	H	0.751174	0.442729	0.021234
H124	H	0.706511	0.515364	-0.031781
H125	H	0.654131	0.438903	0.105061
H126	H	0.609467	0.511547	0.052063
