data_functionalizedCrystal
_audit_creation_method	'MofGen! by Chris Wilmer'
_symmetry_space_group_name_H-M	'P1'
_symmetry_Int_Tables_number	1
_symmetry_cell_setting	triclinic
loop_
_symmetry_equiv_pos_as_xyz
  x,y,z
_cell_length_a	25.639239
_cell_length_b	14.908783
_cell_length_c	25.639243
_cell_angle_alpha	93.312090
_cell_angle_beta	90.014050
_cell_angle_gamma	93.329368
loop_
_atom_site_label
_atom_site_type_symbol
_atom_site_fract_x
_atom_site_fract_y
_atom_site_fract_z
Zn1	Zn	-0.162196	1.379074	0.341808
Zn2	Zn	-0.249611	1.378949	0.254368
Zn3	Zn	-0.167224	1.228227	0.249333
Zn4	Zn	-0.254641	1.228126	0.336720
O5	O	-0.208418	1.303594	0.295557
O6	O	-0.169582	1.505307	0.334445
O7	O	-0.238682	1.358945	0.180535
O8	O	-0.093388	1.248333	0.261623
O9	O	-0.233806	1.505215	0.270204
O10	O	-0.089694	1.359159	0.329563
O11	O	-0.178152	1.248211	0.176836
O12	O	-0.183030	1.101964	0.256689
O13	O	-0.242379	1.248160	0.410561
O14	O	-0.247255	1.101890	0.320892
O15	O	-0.174459	1.359061	0.414299
O16	O	-0.323447	1.358847	0.265270
O17	O	-0.327143	1.248038	0.325774
C18	C	-0.216234	1.069192	0.287692
C19	C	-0.219590	0.968914	0.284340
C20	C	-0.159112	0.780575	0.345037
C21	C	-0.162264	0.686355	0.341889
C22	C	-0.229042	0.686251	0.274893
C23	C	-0.225891	0.780472	0.278041
C24	C	-0.190925	0.827630	0.313115
C25	C	-0.187776	0.921852	0.316265
C26	C	-0.254552	0.921747	0.249267
C27	C	-0.257704	0.827527	0.246119
C28	C	-0.344266	1.303442	0.295528
C29	C	-0.402379	1.303460	0.295536
C30	C	-0.760796	1.361443	0.264115
C31	C	-0.815399	1.361478	0.264123
O32	O	-0.841986	1.410619	0.237377
N33	N	-0.844652	1.303753	0.295597
C34	C	-0.819299	1.245996	0.327069
O35	O	-0.849194	1.196900	0.353841
C36	C	-0.764696	1.245966	0.327064
C37	C	-0.735446	1.303688	0.295583
C38	C	-0.731546	1.419161	0.232638
C39	C	-0.676947	1.419125	0.232629
C40	C	-0.651597	1.361370	0.264098
C41	C	-0.680847	1.303652	0.295575
C42	C	-0.739344	1.188214	0.358538
C43	C	-0.684738	1.188190	0.358530
C44	C	-0.655488	1.245912	0.327050
C45	C	-0.600898	1.245861	0.327034
N46	N	-0.571645	1.303586	0.295560
C47	C	-0.596995	1.361340	0.264092
C48	C	-0.933967	1.246064	0.327080
C49	C	-0.988568	1.246088	0.327083
C50	C	-0.984665	1.361572	0.264138
C51	C	-0.930063	1.361542	0.264132
C52	C	-0.904714	1.303788	0.295606
C53	C	-0.482333	1.361259	0.264076
C54	C	-0.427729	1.361215	0.264068
C55	C	-0.431637	1.245735	0.327015
C56	C	-0.486236	1.245775	0.327021
C57	C	-0.511582	1.303545	0.295550
O58	O	-0.574276	1.196747	0.353769
O59	O	-0.567093	1.410436	0.237329
C60	C	-0.072039	1.303771	0.295599
C61	C	-0.013923	1.303846	0.295616
C62	C	-0.208419	1.303613	0.431931
C63	C	-0.208420	1.303621	0.490045
C64	C	-0.200572	1.538911	0.303454
C65	C	-0.197228	1.639190	0.306819
C66	C	-0.239942	1.361250	0.743156
C67	C	-0.239943	1.361252	0.688552
O68	O	-0.266757	1.410260	0.661946
N69	N	-0.208426	1.303604	0.659319
C70	C	-0.176911	1.245943	0.684692
O71	O	-0.150104	1.196909	0.654813
C72	C	-0.176913	1.245937	0.739295
C73	C	-0.208428	1.303595	0.768526
C74	C	-0.271455	1.418902	0.772387
C75	C	-0.271453	1.418901	0.826988
C76	C	-0.239939	1.361247	0.852357
C77	C	-0.208426	1.303594	0.823127
C78	C	-0.145401	1.188273	0.764667
C79	C	-0.145406	1.188271	0.819274
C80	C	-0.176921	1.245929	0.848505
C81	C	-0.176910	1.245938	0.903097
N82	N	-0.208427	1.303586	0.932330
C83	C	-0.239941	1.361240	0.906960
C84	C	-0.176909	1.245960	0.570022
C85	C	-0.176904	1.245970	0.515420
C86	C	-0.239936	1.361278	0.519284
C87	C	-0.239939	1.361271	0.573887
C88	C	-0.208426	1.303608	0.599255
C89	C	-0.239935	1.361233	1.021625
C90	C	-0.239929	1.361229	1.076231
C91	C	-0.176898	1.245919	1.072362
C92	C	-0.176902	1.245926	1.017761
C93	C	-0.208425	1.303586	0.992395
O94	O	-0.150112	1.196952	0.929738
O95	O	-0.266749	1.410258	0.936846
C96	C	-0.208425	1.303572	1.159714
C97	C	-0.208415	1.303575	1.101600
H98	H	-0.136357	0.648046	0.367882
C99	C	-0.510206	1.424803	0.229452
N100	N	-0.531199	1.472659	0.203371
H101	H	-0.159306	0.960247	0.344825
H102	H	-1.005314	1.408602	0.238516
H103	H	-0.257504	0.647839	0.246332
H104	H	-0.265601	1.408222	0.597683
H105	H	-0.286170	0.789118	0.217561
C106	C	-0.142232	1.182504	0.985607
N107	N	-0.116122	1.134726	0.961391
H108	H	-0.913331	1.199026	0.352707
H109	H	-1.012380	1.199076	0.352712
C110	C	-0.142235	1.182501	1.100279
N111	N	-0.116129	1.134730	1.121308
H112	H	-0.119739	1.141319	0.740877
C113	C	-0.120653	0.832451	0.383621
N114	N	-0.091684	0.871523	0.412682
C115	C	-0.306128	1.482320	0.859134
N116	N	-0.332249	1.530088	0.883344
H117	H	-0.763150	1.141206	0.384170
C118	C	-0.274607	1.424693	0.491366
N119	N	-0.300720	1.472453	0.470337
C120	C	-0.289549	0.973516	0.214151
N121	N	-0.315910	1.012509	0.187704
C122	C	-0.306113	1.482354	0.744490
N123	N	-0.332212	1.530161	0.723482
C124	C	-0.656858	1.124655	0.393154
N125	N	-0.635860	1.076799	0.419233
C126	C	-0.142230	1.182549	0.483272
N127	N	-0.116116	1.134774	0.459060
H128	H	-0.510052	1.198776	0.352656
H129	H	-0.410989	1.198709	0.352635
C130	C	-0.274601	1.424657	1.108381
N131	N	-0.300717	1.472428	1.132596
C132	C	-0.274606	1.424672	0.993730
N133	N	-0.300715	1.472461	0.972720
H134	H	-0.151242	1.199006	0.590673
H135	H	-0.119744	1.141313	0.839926
C136	C	-0.759422	1.482696	0.198015
N137	N	-0.780414	1.530549	0.171930
H138	H	-0.403915	1.408219	0.238431
H139	H	-0.906250	1.408545	0.238499
C140	C	-0.644779	1.482617	0.197994
N141	N	-0.620554	1.530440	0.171904
