data_functionalizedCrystal
_audit_creation_method	'MofGen! by Chris Wilmer'
_symmetry_space_group_name_H-M	'P1'
_symmetry_Int_Tables_number	1
_symmetry_cell_setting	triclinic
loop_
_symmetry_equiv_pos_as_xyz
  x,y,z
_cell_length_a	10.654545
_cell_length_b	10.654551
_cell_length_c	9.130313
_cell_angle_alpha	89.998309
_cell_angle_beta	89.996934
_cell_angle_gamma	84.484220
loop_
_atom_site_label
_atom_site_type_symbol
_atom_site_fract_x
_atom_site_fract_y
_atom_site_fract_z
O1	O	1.667843	0.176372	-0.121775
O2	O	1.302364	0.193184	-0.121780
O3	O	1.493506	0.002038	-0.121778
O4	O	1.476701	0.367517	-0.121777
O5	O	1.493493	0.002033	0.121821
O6	O	1.302351	0.193178	0.121819
O7	O	1.667830	0.176366	0.121824
Cu8	Cu	1.485089	0.184771	0.144064
Cu9	Cu	1.485105	0.184778	-0.144020
O10	O	1.476688	0.367511	0.121822
C11	C	1.255560	0.191948	0.000019
C12	C	1.116116	0.188258	0.000016
C13	C	1.050604	0.186518	0.132803
C14	C	0.919585	0.183030	0.132803
C15	C	0.919600	0.183028	-0.132782
C16	C	1.050618	0.186507	-0.132780
C17	C	1.492265	-0.044762	0.000018
C18	C	1.488573	-0.184206	0.000008
C19	C	1.486848	-0.249714	-0.132775
C20	C	1.483368	-0.380735	-0.132768
C21	C	1.483343	-0.380726	0.132817
C22	C	1.486814	-0.249707	0.132808
C23	C	1.488607	-0.184213	-0.265575
C24	C	1.486883	-0.249722	-0.398369
C25	C	1.483403	-0.380742	-0.398362
C26	C	1.481646	-0.446253	-0.265562
C27	C	1.714635	0.177602	0.000022
C28	C	1.854078	0.181292	0.000015
C29	C	1.477929	0.414312	0.000023
C30	C	1.481622	0.553755	0.000023
N31	N	1.485088	0.184766	0.346687
N32	N	1.485117	0.184774	-0.346642
C33	C	1.569754	0.100163	0.423339
C34	C	1.569766	0.100163	0.576676
C35	C	1.400441	0.269381	0.576694
C36	C	1.400424	0.269374	0.423360
H37	H	0.866251	0.181614	0.240931
H38	H	1.488301	-0.196373	-0.506490
H39	H	1.331512	0.338268	0.639137
C40	C	1.481421	-0.452791	0.278886
C41	C	1.370170	-0.529555	0.315400
C42	C	1.368253	-0.601620	0.461471
C43	C	1.477585	-0.596921	0.571027
C44	C	1.588844	-0.520154	0.534516
C45	C	1.590762	-0.448089	0.388445
H46	H	1.289228	-0.533036	0.234297
H47	H	1.285891	-0.658448	0.488498
H48	H	1.476166	-0.650268	0.679158
H49	H	1.669787	-0.516673	0.615619
H50	H	1.673124	-0.391261	0.361418
H51	H	1.638691	0.031269	0.360915
H52	H	1.638708	0.031270	0.639083
C53	C	1.488711	-0.177633	0.278866
C54	C	1.379357	-0.182326	0.388409
C55	C	1.381244	-0.110248	0.534469
C56	C	1.492485	-0.033478	0.570986
C57	C	1.601847	-0.028782	0.461440
C58	C	1.599960	-0.100860	0.315380
H59	H	1.297002	-0.239159	0.361380
H60	H	1.300287	-0.113725	0.615562
H61	H	1.493882	0.019878	0.679108
H62	H	1.684202	0.028051	0.488469
H63	H	1.680918	-0.097383	0.234287
H64	H	1.103960	0.187920	-0.240918
H65	H	1.491444	-0.077530	-0.265595
C66	C	1.307286	0.362444	0.339028
C67	C	1.214213	0.455565	0.423356
C68	C	1.121077	0.548626	0.339023
C69	C	1.121013	0.548566	0.170362
C70	C	1.214090	0.455441	0.086024
C71	C	1.307226	0.362381	0.170357
H72	H	1.214257	0.455612	0.548218
H73	H	1.052175	0.617562	0.401456
H74	H	1.052068	0.617455	0.107933
H75	H	1.214046	0.455394	-0.038837
H76	H	1.376128	0.293444	0.107924
H77	H	0.866255	0.181603	-0.240900
C78	C	1.122658	0.188437	0.278872
C79	C	1.091313	0.296822	0.388420
C80	C	1.163364	0.298740	0.534493
C81	C	1.266761	0.192272	0.571018
C82	C	1.298111	0.083879	0.461468
C83	C	1.226059	0.081962	0.315395
H84	H	1.014768	0.375643	0.361385
H85	H	1.140156	0.378980	0.615590
H86	H	1.320098	0.193692	0.679150
H87	H	1.374656	0.005058	0.488503
H88	H	1.249267	0.001721	0.234298
H89	H	1.481987	-0.434075	-0.506489
H90	H	1.478794	-0.552937	-0.265567
