data_functionalizedCrystal
_audit_creation_method	'MofGen! by Chris Wilmer'
_symmetry_space_group_name_H-M	'P1'
_symmetry_Int_Tables_number	1
_symmetry_cell_setting	triclinic
loop_
_symmetry_equiv_pos_as_xyz
  x,y,z
_cell_length_a	16.994747
_cell_length_b	12.759401
_cell_length_c	12.759393
_cell_angle_alpha	90.019802
_cell_angle_beta	89.989525
_cell_angle_gamma	89.989857
loop_
_atom_site_label
_atom_site_type_symbol
_atom_site_fract_x
_atom_site_fract_y
_atom_site_fract_z
Zn1	Zn	0.314009	1.606293	0.594134
Zn2	Zn	0.445934	1.606195	0.418516
Zn3	Zn	0.314045	1.430592	0.418473
Zn4	Zn	0.445873	1.430595	0.594157
O5	O	0.379965	1.518419	0.506320
O6	O	0.331519	1.753301	0.570847
O7	O	0.428479	1.582859	0.271489
O8	O	0.203659	1.453938	0.441748
O9	O	0.428444	1.753229	0.441821
O10	O	0.203633	1.583025	0.570805
O11	O	0.331581	1.453844	0.271458
O12	O	0.331522	1.283571	0.441769
O13	O	0.428340	1.453944	0.741175
O14	O	0.428376	1.283573	0.570843
O15	O	0.331460	1.583028	0.741158
O16	O	0.556307	1.582862	0.441842
O17	O	0.556262	1.453849	0.570885
C18	C	0.379947	1.245451	0.506305
C19	C	0.379958	1.128675	0.506323
C20	C	0.329599	0.964114	0.573618
C21	C	0.329583	1.073838	0.573611
C22	C	0.430357	1.073782	0.439045
C23	C	0.430376	0.964060	0.439058
C24	C	0.584905	1.518358	0.506367
C25	C	0.674227	1.518365	0.506364
C26	C	0.174225	1.518485	0.506266
C27	C	0.084903	1.518517	0.506244
Zn28	Zn	0.945132	1.430622	0.418444
Zn29	Zn	0.945074	1.606340	0.594088
Zn30	Zn	0.813265	1.430631	0.594139
Zn31	Zn	0.813189	1.606214	0.418482
O32	O	0.879165	1.518452	0.506288
O33	O	1.055505	1.453980	0.441706
O34	O	0.927597	1.583088	0.741116
O35	O	0.830814	1.283608	0.570838
O36	O	1.055463	1.583079	0.570751
O37	O	0.927696	1.283602	0.441755
O38	O	0.830758	1.453995	0.741153
O39	O	0.702874	1.453873	0.570875
O40	O	0.830684	1.582866	0.271455
O41	O	0.702818	1.582874	0.441820
O42	O	0.927622	1.453858	0.271427
O43	O	0.927523	1.753344	0.570788
O44	O	0.830627	1.753252	0.441771
C45	C	0.379890	1.518497	0.780353
C46	C	0.379857	1.518531	0.897130
C47	C	0.379984	1.792452	0.506336
C48	C	0.379992	1.909229	0.506343
C49	C	0.379984	1.518401	0.233353
C50	C	0.379794	1.518571	0.116576
C51	C	0.329404	1.585750	0.951985
C52	C	0.329370	1.585768	1.061709
C53	C	0.430249	1.451344	1.061714
C54	C	0.430279	1.451322	0.951991
C55	C	0.879063	1.791419	0.506281
C56	C	0.879042	1.908196	0.506309
C57	C	0.879151	1.518347	0.232255
C58	C	0.879144	1.518302	0.115478
C59	C	0.879270	1.244418	0.506298
C60	C	0.879314	1.127642	0.506302
C61	C	0.879224	1.518481	0.779255
C62	C	0.879381	1.518232	0.896032
C63	C	0.929517	1.963071	0.573439
C64	C	0.929496	2.072795	0.573459
C65	C	0.828517	2.072759	0.439214
C66	C	0.828543	1.963037	0.439190
C67	C	0.929611	1.451120	0.060600
C68	C	0.929600	1.451079	-0.049124
C69	C	0.828652	1.585412	-0.049082
C70	C	0.828660	1.585447	0.060640
H71	H	0.471376	1.118439	0.384262
H72	H	0.970598	2.117469	0.628122
O73	O	0.779628	1.909688	0.373846
C74	C	0.824523	1.846217	0.305933
H75	H	0.886637	1.879298	0.299394
H76	H	0.795960	1.844971	0.225108
H77	H	0.827277	1.763059	0.338379
O78	O	0.779508	1.650528	-0.102309
C79	C	0.700902	1.627559	-0.075455
H80	H	0.696952	1.543635	-0.045294
H81	H	0.661927	1.636571	-0.147600
H82	H	0.680265	1.683898	-0.011757
O83	O	0.280668	1.127037	0.639105
C84	C	0.298014	1.100289	0.743789
H85	H	0.328352	1.020626	0.745919
H86	H	0.241128	1.096551	0.791001
H87	H	0.338588	1.162059	0.779100
H88	H	0.787559	1.640156	0.105323
O89	O	0.280250	1.651016	1.114877
C90	C	0.201640	1.628066	1.088054
H91	H	0.200027	1.587661	1.008383
H92	H	0.166280	1.703904	1.084297
H93	H	0.175046	1.574075	1.149791
H94	H	0.970693	1.396369	-0.093801
O95	O	0.479314	1.386217	1.115056
C96	C	0.530236	1.446026	1.178562
H97	H	0.535125	1.528763	1.145507
H98	H	0.590936	1.408003	1.179817
H99	H	0.505826	1.449673	1.261714
H100	H	0.288345	1.640473	0.907320
O101	O	0.280774	0.910734	0.639034
C102	C	0.325758	0.847321	0.706832
H103	H	0.385503	0.830869	0.669666
H104	H	0.293654	0.770169	0.720984
H105	H	0.334490	0.889645	0.784668
O106	O	0.479407	1.386135	0.898745
C107	C	0.558018	1.409051	0.925592
H108	H	0.562002	1.492987	0.955771
H109	H	0.597003	1.399974	0.853439
H110	H	0.578617	1.352726	0.989274
O111	O	0.479356	0.910900	0.373603
C112	C	0.523831	0.982821	0.314226
H113	H	0.491507	1.061032	0.310631
H114	H	0.532178	0.951075	0.231439
H115	H	0.583770	0.994512	0.352590
O116	O	0.978532	1.909910	0.638776
C117	C	0.961341	1.936714	0.743518
H118	H	0.931004	2.016376	0.745754
H119	H	1.018298	1.940482	0.790551
H120	H	0.920823	1.874961	0.778948
H121	H	0.787402	2.117424	0.384571
H122	H	0.970717	1.396445	0.105246
