data_functionalizedCrystal
_audit_creation_method	'MofGen! by Chris Wilmer'
_symmetry_space_group_name_H-M	'P1'
_symmetry_Int_Tables_number	1
_symmetry_cell_setting	triclinic
loop_
_symmetry_equiv_pos_as_xyz
  x,y,z
_cell_length_a	18.215407
_cell_length_b	18.215405
_cell_length_c	18.215399
_cell_angle_alpha	90.029420
_cell_angle_beta	90.017368
_cell_angle_gamma	90.021264
loop_
_atom_site_label
_atom_site_type_symbol
_atom_site_fract_x
_atom_site_fract_y
_atom_site_fract_z
Zn1	Zn	1.125077	-0.293042	0.416060
Zn2	Zn	1.625077	0.206958	0.916060
Zn3	Zn	1.124988	-0.416113	0.292990
Zn4	Zn	1.624988	0.083887	0.792990
Zn5	Zn	1.002010	-0.293060	0.293013
Zn6	Zn	1.502010	0.206940	0.793013
Zn7	Zn	1.001978	-0.416066	0.416021
Zn8	Zn	1.501978	0.083934	0.916021
O9	O	1.063513	-0.354570	0.354521
O10	O	1.563513	0.145430	0.854521
O11	O	1.228050	-0.309380	0.399742
O12	O	1.728050	0.190620	0.899742
O13	O	1.108651	-0.399817	0.190009
O14	O	1.608651	0.100183	0.690009
O15	O	1.018386	-0.190073	0.309361
O16	O	1.518386	0.309927	0.809361
O17	O	1.227984	-0.399800	0.309323
O18	O	1.727984	0.100200	0.809323
O19	O	1.108803	-0.190060	0.399763
O20	O	1.608803	0.309940	0.899763
O21	O	1.018299	-0.309410	0.190025
O22	O	1.518299	0.190590	0.690025
O23	O	0.899021	-0.309364	0.309323
O24	O	1.399021	0.190636	0.809323
O25	O	1.018332	-0.399719	0.519010
O26	O	1.518332	0.100281	1.019010
O27	O	0.898998	-0.399736	0.399696
O28	O	1.398998	0.100264	0.899696
O29	O	1.108772	-0.309334	0.519039
O30	O	1.608772	0.190666	1.019039
O31	O	1.108620	-0.519091	0.309285
O32	O	1.608620	-0.019091	0.809285
O33	O	1.018245	-0.519056	0.399675
O34	O	1.518245	-0.019056	0.899675
C35	C	0.872307	-0.354548	0.354508
C36	C	1.372307	0.145452	0.854508
C37	C	0.790508	-0.354556	0.354520
C38	C	1.290508	0.145444	0.854520
C39	C	0.602347	-0.307571	0.401675
C40	C	1.102347	0.192429	0.901675
C41	C	0.525489	-0.307577	0.401678
C42	C	1.025489	0.192423	0.901678
C43	C	0.525431	-0.401590	0.307379
C44	C	1.025431	0.098410	0.807379
C45	C	0.602289	-0.401580	0.307374
C46	C	1.102289	0.098420	0.807374
C47	C	0.640745	-0.354571	0.354526
C48	C	1.140745	0.145429	0.854526
C49	C	0.487029	-0.354588	0.354534
C50	C	0.987029	0.145412	0.854534
C51	C	0.403695	-0.354595	0.354536
C52	C	0.903695	0.145405	0.854536
C53	C	0.724084	-0.354563	0.354523
C54	C	1.224084	0.145437	0.854523
C55	C	1.063439	-0.545777	0.354489
C56	C	1.563439	-0.045777	0.854489
C57	C	1.063475	-0.627575	0.354500
C58	C	1.563475	-0.127575	0.854500
C59	C	1.110671	-0.892627	0.307534
C60	C	1.610671	-0.392627	0.807534
C61	C	1.110641	-0.815768	0.307517
C62	C	1.610641	-0.315768	0.807517
C63	C	1.016447	-0.815773	0.401558
C64	C	1.516447	-0.315773	0.901558
C65	C	1.016474	-0.892630	0.401570
C66	C	1.516474	-0.392630	0.901570
C67	C	1.063590	-0.931055	0.354559
C68	C	1.563590	-0.431055	0.854559
C69	C	1.063533	-0.777339	0.354530
C70	C	1.563533	-0.277339	0.854530
C71	C	1.063500	-0.694005	0.354512
C72	C	1.563500	-0.194005	0.854512
C73	C	1.063623	-1.014394	0.354576
C74	C	1.563623	-0.514394	0.854576
C75	C	1.255466	-0.354593	0.354534
C76	C	1.755466	0.145407	0.854534
C77	C	1.337265	-0.354603	0.354540
C78	C	1.837265	0.145397	0.854540
C79	C	1.063558	-0.354519	0.546474
C80	C	1.563558	0.145481	1.046474
C81	C	1.063577	-0.354498	0.628273
C82	C	1.563577	0.145502	1.128273
C83	C	1.063608	-0.162617	0.354569
C84	C	1.563608	0.337383	0.854569
C85	C	1.063648	-0.080818	0.354589
C86	C	1.563648	0.419182	0.854589
C87	C	1.063511	-0.354568	0.163315
C88	C	1.563511	0.145432	0.663315
C89	C	1.063635	-0.354382	0.081516
C90	C	1.563635	0.145618	0.581516
C91	C	1.110687	-0.307390	0.816483
C92	C	1.610687	0.192610	1.316483
C93	C	1.110695	-0.307369	0.893342
C94	C	1.610695	0.192631	1.393342
C95	C	1.016520	-0.401492	0.893301
C96	C	1.516520	0.098508	1.393301
C97	C	1.016508	-0.401509	0.816443
C98	C	1.516508	0.098491	1.316443
C99	C	1.063596	-0.354459	0.778036
C100	C	1.563596	0.145541	1.278036
C101	C	1.063616	-0.354421	0.931753
C102	C	1.563616	0.145579	1.431753
C103	C	1.063625	-0.354398	1.015086
C104	C	1.563625	0.145602	1.515086
C105	C	1.063586	-0.354481	0.694697
C106	C	1.563586	0.145519	1.194697
H107	H	0.633553	-0.439854	0.268975
H108	H	1.133553	0.060146	0.768975
H109	H	0.494229	-0.269304	0.440070
H110	H	0.994229	0.230696	0.940070
H111	H	0.978087	-0.784479	0.439834
H112	H	1.478087	-0.284479	0.939834
H113	H	1.149035	-0.923910	0.269254
H114	H	1.649035	-0.423910	0.769254
O115	O	1.156307	-0.778325	0.261861
O116	O	1.656307	-0.278325	0.761861
C117	C	1.146194	-0.702249	0.271938
C118	C	1.646194	-0.202249	0.771938
H119	H	1.089379	-0.691776	0.295983
H120	H	1.589379	-0.191776	0.795983
H121	H	1.151212	-0.673075	0.216812
H122	H	1.651212	-0.173075	0.716812
H123	H	1.189811	-0.680377	0.311167
H124	H	1.689811	-0.180377	0.811167
H125	H	0.978156	-0.439837	0.785139
H126	H	1.478156	0.060163	1.285139
H127	H	0.978132	-0.923919	0.439866
H128	H	1.478132	-0.423919	0.939866
O129	O	1.156444	-0.261614	0.779288
O130	O	1.656444	0.238386	1.279288
C131	C	1.198021	-0.220078	0.829707
C132	C	1.698021	0.279922	1.329707
H133	H	1.167886	-0.217517	0.884490
H134	H	1.667886	0.282483	1.384490
H135	H	1.205892	-0.162100	0.807520
H136	H	1.705892	0.337900	1.307520
H137	H	1.253904	-0.247028	0.837882
H138	H	1.753904	0.252972	1.337882
O139	O	0.639784	-0.261868	0.447371
O140	O	1.139784	0.238132	0.947371
C141	C	0.684224	-0.214265	0.405552
C142	C	1.184224	0.285735	0.905552
H143	H	0.695714	-0.240151	0.349735
H144	H	1.195714	0.259849	0.849735
H145	H	0.738282	-0.204431	0.435543
H146	H	1.238282	0.295569	0.935543
H147	H	0.654612	-0.159723	0.397562
H148	H	1.154612	0.340277	0.897562
O149	O	0.487960	-0.447233	0.261652
O150	O	0.987960	0.052767	0.761652
C151	C	0.411889	-0.437153	0.271754
C152	C	0.911889	0.062847	0.771754
H153	H	0.401419	-0.413123	0.328592
H154	H	0.901419	0.086877	0.828592
H155	H	0.382666	-0.492276	0.266669
H156	H	0.882666	0.007724	0.766669
H157	H	0.390070	-0.397912	0.228173
H158	H	0.890070	0.102088	0.728173
O159	O	1.156335	-0.261566	0.930719
O160	O	1.656335	0.238434	1.430719
C161	C	1.114464	-0.214029	0.975193
C162	C	1.614464	0.285971	1.475193
H163	H	1.056500	-0.209487	0.952023
H164	H	1.556500	0.290513	1.452023
H165	H	1.141105	-0.157394	0.976079
H166	H	1.641105	0.342606	1.476079
H167	H	1.111928	-0.236763	1.033437
H168	H	1.611928	0.263237	1.533437
O169	O	0.970855	-0.447173	0.930724
O170	O	1.470855	0.052827	1.430724
C171	C	0.980950	-0.437054	1.006805
C172	C	1.480950	0.062946	1.506805
H173	H	1.037757	-0.412955	1.017318
H174	H	1.537757	0.087045	1.517318
H175	H	0.975937	-0.492172	1.035998
H176	H	1.475937	0.007828	1.535998
H177	H	0.937319	-0.397855	1.028622
H178	H	1.437319	0.102145	1.528622
