data_functionalizedCrystal
_audit_creation_method	'MofGen! by Chris Wilmer'
_symmetry_space_group_name_H-M	'P1'
_symmetry_Int_Tables_number	1
_symmetry_cell_setting	triclinic
loop_
_symmetry_equiv_pos_as_xyz
  x,y,z
_cell_length_a	10.489741
_cell_length_b	16.109301
_cell_length_c	8.965430
_cell_angle_alpha	89.998998
_cell_angle_beta	89.998843
_cell_angle_gamma	84.000327
loop_
_atom_site_label
_atom_site_type_symbol
_atom_site_fract_x
_atom_site_fract_y
_atom_site_fract_z
O1	O	-1.692352	-0.117292	0.123952
O2	O	-1.192352	0.382708	0.623952
O3	O	-1.320996	-0.128303	0.123976
O4	O	-0.820996	0.371697	0.623976
O5	O	-1.516875	-0.001830	0.123948
O6	O	-1.016875	0.498170	0.623948
O7	O	-1.496472	-0.243766	0.123980
O8	O	-0.996472	0.256234	0.623980
O9	O	-1.516859	-0.001838	-0.124130
O10	O	-1.016859	0.498162	0.375870
O11	O	-1.320980	-0.128311	-0.124103
O12	O	-0.820980	0.371689	0.375897
O13	O	-1.692335	-0.117301	-0.124126
O14	O	-1.192335	0.382699	0.375874
Cu15	Cu	-1.506656	-0.122807	-0.146766
Cu16	Cu	-1.006656	0.377193	0.353234
Cu17	Cu	-1.506675	-0.122797	0.146616
Cu18	Cu	-1.006675	0.377203	0.646616
O19	O	-1.496456	-0.243774	-0.124099
O20	O	-0.996456	0.256226	0.375901
C21	C	-1.516041	0.029146	-0.000092
C22	C	-1.016041	0.529146	0.499908
C23	C	-1.513563	0.121457	-0.000094
C24	C	-1.013563	0.621457	0.499906
C25	C	-1.273468	-0.127475	-0.000060
C26	C	-0.773468	0.372525	0.499940
C27	C	-1.131875	-0.124987	-0.000052
C28	C	-0.631875	0.375013	0.499948
C29	C	-1.739863	-0.118128	-0.000087
C30	C	-1.239863	0.381872	0.499913
C31	C	-1.881456	-0.120616	-0.000085
C32	C	-1.381456	0.379384	0.499915
C33	C	-1.064902	-0.044516	-0.000076
C34	C	-0.564902	0.455484	0.499924
C35	C	-0.972232	-0.082526	0.122241
C36	C	-0.472232	0.417474	0.622241
C37	C	-0.972250	-0.082553	-0.122345
C38	C	-0.472250	0.417447	0.377655
C39	C	-1.041070	-0.163030	0.122367
C40	C	-0.541070	0.336970	0.622367
C41	C	-1.041097	-0.163046	-0.122329
C42	C	-0.541097	0.336954	0.377671
C43	C	-0.948453	-0.201115	0.000018
C44	C	-0.448453	0.298885	0.500018
C45	C	-1.497291	-0.274750	-0.000055
C46	C	-0.997291	0.225250	0.499945
C47	C	-1.499769	-0.367060	-0.000043
C48	C	-0.999769	0.132940	0.499957
N49	N	-1.506652	-0.122813	-0.353115
N50	N	-1.006652	0.377187	0.146885
C51	C	-1.624032	0.343048	-0.000077
C52	C	-1.124032	0.843048	0.499923
C53	C	-1.621694	0.429783	-0.000065
C54	C	-1.121694	0.929783	0.499935
C55	C	-1.389290	0.411341	-0.000056
C56	C	-0.889290	0.911341	0.499944
C57	C	-1.391630	0.324608	-0.000057
C58	C	-0.891630	0.824608	0.499943
C59	C	-1.509004	0.290464	-0.000076
C60	C	-1.009004	0.790464	0.499924
C61	C	-1.504327	0.463932	-0.000061
C62	C	-1.004327	0.963932	0.499939
C63	C	-1.501791	0.557974	-0.000048
C64	C	-1.001791	1.057974	0.499952
C65	C	-1.511541	0.196417	-0.000086
C66	C	-1.011541	0.696417	0.499914
C67	C	-1.416036	-0.181283	-0.450408
C68	C	-0.916036	0.318717	0.049592
C69	C	-1.531289	-0.198106	-0.549827
C70	C	-1.031289	0.301894	-0.049827
C71	C	-1.391448	-0.105998	-0.549824
C72	C	-0.891448	0.394002	-0.049824
C73	C	-1.621962	-0.139674	-0.450345
C74	C	-1.121962	0.360326	0.049655
C75	C	-1.482045	-0.047532	-0.450333
C76	C	-0.982045	0.452468	0.049667
C77	C	-1.597381	-0.064324	-0.549707
C78	C	-1.097381	0.435676	-0.049707
N79	N	-1.506690	-0.122784	0.352965
N80	N	-1.006690	0.377216	0.852965
H81	H	-1.115552	0.021636	0.000068
H82	H	-0.615552	0.521636	0.500068
F83	F	-1.744123	0.485744	-0.000063
F84	F	-1.244123	0.985744	0.499937
F85	F	-1.315967	-0.245971	-0.393413
F86	F	-0.815967	0.254029	0.106587
H87	H	-0.941759	-0.048493	-0.225756
H88	H	-0.441759	0.451507	0.274244
F89	F	-1.269194	0.268640	-0.000045
F90	F	-0.769194	0.768640	0.499955
F91	F	-1.558529	-0.281301	-0.606950
F92	F	-1.058529	0.218699	-0.106950
H93	H	-1.071642	-0.197071	-0.225738
H94	H	-0.571642	0.302929	0.274262
F95	F	-1.697670	0.000325	-0.606346
F96	F	-1.197670	0.500325	-0.106346
H97	H	-0.941719	-0.048473	0.225645
H98	H	-0.441719	0.451527	0.725645
F99	F	-1.454761	0.035638	-0.393163
F100	F	-0.954761	0.535638	0.106837
F101	F	-1.748953	0.306713	-0.000095
F102	F	-1.248953	0.806713	0.499905
F103	F	-1.264379	0.447687	-0.000035
F104	F	-0.764379	0.947687	0.499965
F105	F	-1.749356	-0.158344	-0.393476
F106	F	-1.249356	0.341656	0.106524
F107	F	-1.264086	-0.087423	-0.606943
F108	F	-0.764086	0.412577	-0.106943
H109	H	-1.071411	-0.197049	0.225894
H110	H	-0.571411	0.302951	0.725894
H111	H	-0.898069	-0.267337	0.000094
H112	H	-0.398069	0.232663	0.500094
