data_functionalizedCrystal
_audit_creation_method	'MofGen! by Chris Wilmer'
_symmetry_space_group_name_H-M	'P1'
_symmetry_Int_Tables_number	1
_symmetry_cell_setting	triclinic
loop_
_symmetry_equiv_pos_as_xyz
  x,y,z
_cell_length_a	19.288866
_cell_length_b	9.130313
_cell_length_c	19.288865
_cell_angle_alpha	90.006464
_cell_angle_beta	96.863554
_cell_angle_gamma	90.001307
loop_
_atom_site_label
_atom_site_type_symbol
_atom_site_fract_x
_atom_site_fract_y
_atom_site_fract_z
O1	O	-0.921344	0.121763	0.086648
O2	O	-0.719083	0.121780	0.098336
O3	O	-0.826058	0.121742	-0.008638
O4	O	-0.814369	0.121801	0.193622
O5	O	-0.826057	-0.121857	-0.008636
O6	O	-0.719082	-0.121819	0.098339
O7	O	-0.921343	-0.121836	0.086651
Cu8	Cu	-0.820212	-0.144070	0.092495
Cu9	Cu	-0.820214	0.144014	0.092492
O10	O	-0.814368	-0.121798	0.193625
C11	C	-0.693206	-0.000018	0.097961
C12	C	-0.616103	-0.000013	0.096832
C13	C	-0.060538	0.132755	0.088696
C14	C	-0.132985	0.132760	0.089753
C15	C	-0.169213	-0.000025	0.090286
C16	C	-0.132990	-0.132826	0.089745
C17	C	-0.060545	-0.132828	0.088681
C18	C	-0.278540	-0.101744	0.132655
C19	C	-0.350983	-0.101736	0.133723
C20	C	-0.392659	-0.000025	0.093565
C21	C	-0.361881	0.101704	0.052347
C22	C	-0.289436	0.101702	0.051283
C23	C	-0.247768	-0.000038	0.091439
C24	C	-0.507430	0.132774	0.095247
C25	C	-0.579880	0.132774	0.096300
C26	C	-0.579882	-0.132816	0.096298
C27	C	-0.507435	-0.132812	0.095239
C28	C	-0.471213	-0.000013	0.094717
N29	N	-0.820216	-0.346692	0.092497
C30	C	-0.867596	-0.423361	0.045145
C31	C	-0.867595	-0.576698	0.045136
C32	C	-0.772830	-0.576684	0.139839
C33	C	-0.772829	-0.423350	0.139843
C34	C	-0.922310	-0.423370	-0.009529
C35	C	-0.922308	-0.576707	-0.009538
C36	C	0.052780	-0.000034	0.087026
C37	C	-0.024323	-0.000029	0.088158
C38	C	-0.825681	-0.000062	-0.034513
C39	C	-0.824552	-0.000074	-0.111617
N40	N	-0.820215	0.346637	0.092484
C41	C	-0.887320	-0.000087	-0.156313
C42	C	-0.886259	-0.000063	-0.228760
C43	C	-0.822427	-0.000057	-0.256508
C44	C	-0.759651	-0.000037	-0.211802
C45	C	-0.760714	-0.000045	-0.139357
C46	C	-0.772247	-0.085381	-0.364795
C47	C	-0.771187	-0.085381	-0.437239
C48	C	-0.819148	-0.000024	-0.479954
C49	C	-0.868179	0.085314	-0.450216
C50	C	-0.869242	0.085306	-0.377771
C51	C	-0.821268	-0.000047	-0.335062
C52	C	-0.880770	-0.000009	-0.603206
C53	C	-0.879706	0.000023	-0.675654
C54	C	-0.753096	0.000035	-0.658694
C55	C	-0.754161	0.000018	-0.586247
C56	C	-0.818000	-0.000012	-0.558508
C57	C	-0.814745	0.000009	0.219500
C58	C	-0.815874	0.000032	0.296604
H59	H	-0.477937	0.240907	0.094820
O60	O	-0.406819	0.211413	0.009023
H61	H	-0.462367	0.194315	0.016677
H62	H	-0.930822	0.000021	-0.712045
H63	H	-0.906029	-0.624268	-0.059794
H64	H	-0.975549	-0.618324	0.001733
O65	O	-0.956171	-0.000077	-0.126392
H66	H	-0.999640	-0.000061	-0.169648
O67	O	-0.988856	-0.360366	0.012077
H68	H	-0.995298	-0.397962	0.065652
H69	H	-0.911082	-0.381765	-0.062782
H70	H	-0.937374	-0.000068	-0.265159
O71	O	-0.922111	0.177364	-0.345692
H72	H	-0.955280	0.236735	-0.387559
O73	O	-0.684245	0.000035	-0.688609
H74	H	-0.694050	0.000029	-0.746495
H75	H	-0.477948	-0.240939	0.094804
H76	H	-0.609365	0.240907	0.096732
O77	O	-0.233587	-0.211471	0.175955
H78	H	-0.195452	-0.152524	0.213671
H79	H	-0.734242	-0.360927	0.178395
O80	O	-0.919911	0.177398	-0.496274
H81	H	-0.910930	0.163089	-0.551645
O82	O	-0.949619	-0.000011	-0.573277
H83	H	-0.993089	0.000012	-0.616532
H84	H	-0.703049	0.000019	-0.549855
O85	O	-0.718308	-0.177422	-0.469313
H86	H	-0.685128	-0.236755	-0.427440
H87	H	-0.162491	-0.240940	0.090178
O88	O	-0.720519	-0.177457	-0.318725
H89	H	-0.686256	-0.236814	-0.351573
H90	H	-0.707679	-0.000028	-0.234399
O91	O	-0.693009	-0.000060	-0.091145
H92	H	-0.662445	0.099225	-0.100975
O93	O	-0.021486	0.275997	0.088099
H94	H	-0.029052	0.339715	0.135625
O95	O	-0.172059	0.275981	0.090341
H96	H	-0.134699	0.368322	0.089804
H97	H	-0.264380	0.184531	0.017721
H98	H	-0.609378	-0.240932	0.096730
H99	H	-0.031058	-0.240959	0.088246
O100	O	-0.384190	-0.211595	0.178093
H101	H	-0.343047	-0.282394	0.205798
H102	H	-0.734248	-0.639115	0.178386
