data_functionalizedCrystal
_audit_creation_method	'MofGen! by Chris Wilmer'
_symmetry_space_group_name_H-M	'P1'
_symmetry_Int_Tables_number	1
_symmetry_cell_setting	triclinic
loop_
_symmetry_equiv_pos_as_xyz
  x,y,z
_cell_length_a	13.032951
_cell_length_b	13.034595
_cell_length_c	13.032268
_cell_angle_alpha	105.145368
_cell_angle_beta	90.885735
_cell_angle_gamma	76.680896
loop_
_atom_site_label
_atom_site_type_symbol
_atom_site_fract_x
_atom_site_fract_y
_atom_site_fract_z
Zn1	Zn	-1.577982	0.728830	0.883636
Zn2	Zn	-1.617263	0.889606	0.734325
Zn3	Zn	-1.422922	0.683743	0.683516
Zn4	Zn	-1.422875	0.883762	0.883621
O5	O	-1.510261	0.796485	0.796275
O6	O	-1.729438	0.771471	0.885100
O7	O	-1.607943	0.845875	0.581353
O8	O	-1.427072	0.538730	0.688805
O9	O	-1.758298	0.889593	0.775402
O10	O	-1.540994	0.571855	0.835832
O11	O	-1.465162	0.694629	0.544024
O12	O	-1.276671	0.688962	0.688790
O13	O	-1.426990	0.879632	1.029855
O14	O	-1.276636	0.835914	0.835806
O15	O	-1.540947	0.765804	1.029866
O16	O	-1.607897	1.039825	0.775387
O17	O	-1.465080	1.035531	0.885074
C18	C	-1.238733	0.756912	0.756784
C19	C	-1.122573	0.740011	0.739918
C20	C	-1.070817	0.805280	0.805059
C21	C	-0.950759	0.787814	0.787629
C22	C	-1.540771	1.076835	0.835769
C23	C	-1.553916	1.196788	0.852714
C24	C	-1.479582	0.827096	1.068837
C25	C	-1.466508	0.840140	1.184986
C26	C	-0.782848	0.836201	0.835911
C27	C	-0.899006	0.853092	0.852780
C28	C	-1.479657	0.515047	0.756653
C29	C	-1.466615	0.395115	0.739768
C30	C	-1.503477	1.233965	0.787490
C31	C	-1.517061	1.357942	0.805001
C32	C	-1.540872	0.765924	0.524771
C33	C	-1.554114	0.752606	0.408608
C34	C	-1.517063	0.789636	1.236775
C35	C	-1.503552	0.803117	1.356822
H36	H	-0.943572	0.921901	0.921464
C37	C	-1.624989	1.276548	0.944496
C38	C	-1.668906	1.218223	1.001263
C39	C	-1.734393	1.291658	1.085816
H40	H	-1.584739	1.319836	0.990450
H41	H	-1.679887	1.322629	0.917384
H42	H	-1.614016	1.172161	1.028376
H43	H	-1.709173	1.174939	0.955340
H44	H	-1.789291	1.337739	1.058704
H45	H	-1.694136	1.334943	1.131761
H46	H	-1.764206	1.252096	1.124337
H47	H	-1.413376	1.335164	0.670955
H48	H	-1.570308	1.417895	0.873808
H49	H	-1.078000	0.671198	0.671248
H50	H	-1.450241	1.174012	0.718681
C51	C	-0.891165	0.696162	0.696070
C52	C	-0.783941	0.697089	0.696955
C53	C	-0.729014	0.612693	0.612616
H54	H	-0.899247	0.627916	0.703732
H55	H	-0.918551	0.706543	0.630588
H56	H	-0.756564	0.686700	0.762421
H57	H	-0.775828	0.765316	0.689279
H58	H	-0.756400	0.623074	0.547135
H59	H	-0.737104	0.544452	0.620285
H60	H	-0.656259	0.613317	0.613200
H61	H	-1.570344	0.736413	1.192238
H62	H	-1.450257	0.856331	1.401352
C63	C	-1.625141	0.681703	1.349058
C64	C	-1.624436	0.682438	1.241832
C65	C	-1.689852	0.617137	1.186943
H66	H	-1.600026	0.608922	1.354351
H67	H	-1.695120	0.709704	1.379260
H68	H	-1.554471	0.654432	1.211638
H69	H	-1.649561	0.755202	1.236507
H70	H	-1.759831	0.645138	1.217145
H71	H	-1.664730	0.544361	1.192244
H72	H	-1.689390	0.617635	1.114187
C73	C	-1.395276	0.910941	1.244262
C74	C	-1.292271	0.869412	1.199463
C75	C	-1.226620	0.934598	1.254047
H76	H	-1.420309	0.983704	1.238891
H77	H	-1.395567	0.910549	1.317054
H78	H	-1.291983	0.869814	1.126689
H79	H	-1.267206	0.796657	1.204834
H80	H	-1.226911	0.934207	1.326839
H81	H	-1.251662	1.007357	1.248672
H82	H	-1.156722	0.906424	1.223665
C83	C	-1.130151	0.896911	0.896781
C84	C	-1.089532	0.881359	0.993111
C85	C	-1.144170	0.965741	1.077630
H86	H	-1.121978	0.965143	0.889164
H87	H	-1.202946	0.896453	0.896395
H88	H	-1.016754	0.881828	0.993495
H89	H	-1.097705	0.813144	1.000762
H90	H	-1.216966	0.965283	1.077244
H91	H	-1.135993	1.033967	1.070003
H92	H	-1.116625	0.955195	1.143000
