data_functionalizedCrystal
_audit_creation_method	'MofGen! by Chris Wilmer'
_symmetry_space_group_name_H-M	'P1'
_symmetry_Int_Tables_number	1
_symmetry_cell_setting	triclinic
loop_
_symmetry_equiv_pos_as_xyz
  x,y,z
_cell_length_a	8.559649
_cell_length_b	18.266242
_cell_length_c	8.559649
_cell_angle_alpha	90.005146
_cell_angle_beta	110.221336
_cell_angle_gamma	89.990795
loop_
_atom_site_label
_atom_site_type_symbol
_atom_site_fract_x
_atom_site_fract_y
_atom_site_fract_z
O1	O	2.126892	-0.060869	0.055034
O2	O	1.651407	-0.060872	-0.028747
O3	O	1.931040	-0.060870	0.250886
O4	O	1.847259	-0.060872	-0.224599
O5	O	1.930998	0.060892	0.250893
O6	O	1.651365	0.060890	-0.028740
O7	O	2.126850	0.060893	0.055041
Zn8	Zn	1.889101	0.080223	0.013152
Zn9	Zn	1.889157	-0.080203	0.013142
O10	O	1.847217	0.060890	-0.224592
C11	C	1.591077	0.000008	-0.035093
C12	C	1.411378	0.000007	-0.053992
N13	N	1.889075	0.189710	0.013160
C14	C	2.012925	0.228020	0.136932
C15	C	2.012936	0.304665	0.136940
C16	C	1.889107	0.342997	0.013151
C17	C	1.765235	0.304678	-0.110632
C18	C	1.765219	0.228035	-0.110627
N19	N	1.850842	0.463329	-0.132931
N20	N	1.850868	0.536137	-0.132929
C21	C	1.889147	0.573920	0.013131
N22	N	1.927432	0.536144	0.159198
N23	N	1.927414	0.463329	0.159196
C24	C	1.889111	0.426104	0.013133
C25	C	2.013016	0.695337	0.136922
C26	C	2.013015	0.771983	0.136931
C27	C	1.765320	0.771994	-0.110654
C28	C	1.765315	0.695350	-0.110650
C29	C	1.889171	0.657025	0.013137
C30	C	2.187180	0.000010	0.061387
C31	C	2.366879	0.000007	0.080286
C32	C	1.937369	0.000010	0.311198
C33	C	1.956268	0.000006	0.490898
N34	N	1.889184	0.810310	0.013142
C35	C	1.840889	0.000009	-0.284904
C36	C	1.821990	0.000008	-0.464604
H37	H	1.466258	0.000004	0.209705
H38	H	1.664410	0.335892	-0.211421
O39	O	1.279735	0.000005	-0.225437
H40	H	1.340596	0.000001	-0.320819
O41	O	1.650547	0.000003	0.403774
H42	H	1.662106	-0.000006	0.278552
O43	O	1.631802	0.813342	-0.244188
H44	H	1.636975	0.798615	-0.368115
H45	H	2.085696	0.000012	0.590286
H46	H	2.113793	0.335863	0.237734
O47	O	2.146492	0.186688	0.270463
H48	H	2.270409	0.201386	0.265244
O49	O	1.631644	0.186707	-0.244139
H50	H	1.545540	0.226235	-0.330225
O51	O	2.146575	0.653992	0.270443
H52	H	2.232684	0.693512	0.356532
O53	O	2.146624	0.813302	0.270427
H54	H	2.141517	0.798594	0.394383
O55	O	1.631749	0.654022	-0.244163
H56	H	1.545651	0.693550	-0.330252
