data_functionalizedCrystal
_audit_creation_method	'MofGen! by Chris Wilmer'
_symmetry_space_group_name_H-M	'P1'
_symmetry_Int_Tables_number	1
_symmetry_cell_setting	triclinic
loop_
_symmetry_equiv_pos_as_xyz
  x,y,z
_cell_length_a	16.109304
_cell_length_b	9.065218
_cell_length_c	7.540329
_cell_angle_alpha	89.997391
_cell_angle_beta	90.002729
_cell_angle_gamma	95.760705
loop_
_atom_site_label
_atom_site_type_symbol
_atom_site_fract_x
_atom_site_fract_y
_atom_site_fract_z
O1	O	0.121908	-1.957445	0.147561
O2	O	0.455242	-1.624112	0.480894
O3	O	0.788575	-1.290778	0.814227
O4	O	0.131907	-1.527918	0.147543
O5	O	0.465241	-1.194585	0.480877
O6	O	0.798574	-0.861252	0.814210
O7	O	0.005968	-1.754479	0.147553
O8	O	0.339301	-1.421146	0.480887
O9	O	0.672634	-1.087812	0.814220
O10	O	0.247848	-1.730884	0.147550
O11	O	0.581181	-1.397551	0.480884
O12	O	0.914515	-1.064218	0.814217
O13	O	0.005961	-1.754477	-0.147412
O14	O	0.339294	-1.421144	0.185922
O15	O	0.672627	-1.087811	0.519255
O16	O	0.131900	-1.527917	-0.147422
O17	O	0.465234	-1.194583	0.185911
O18	O	0.798567	-0.861250	0.519245
O19	O	0.121901	-1.957443	-0.147404
O20	O	0.455235	-1.624110	0.185929
O21	O	0.788568	-1.290777	0.519262
Cu22	Cu	0.126900	-1.742680	-0.174346
Cu23	Cu	0.460234	-1.409347	0.158988
Cu24	Cu	0.793567	-1.076013	0.492321
Cu25	Cu	0.126908	-1.742682	0.174485
Cu26	Cu	0.460242	-1.409349	0.507818
Cu27	Cu	0.793575	-1.076015	0.841151
O28	O	0.247841	-1.730883	-0.147415
O29	O	0.581174	-1.397549	0.185919
O30	O	0.914508	-1.064216	0.519252
C31	C	0.130943	-1.472954	0.000059
C32	C	0.464276	-1.139621	0.333392
C33	C	0.797610	-0.806288	0.666725
C34	C	0.128069	-1.309181	0.000052
C35	C	0.461403	-0.975847	0.333386
C36	C	0.794736	-0.642514	0.666719
C37	C	-0.025018	-1.753522	0.000075
C38	C	0.308315	-1.420188	0.333408
C39	C	0.641649	-1.086855	0.666741
C40	C	-0.117335	-1.750654	0.000087
C41	C	0.215998	-1.417321	0.333420
C42	C	0.549331	-1.083987	0.666753
C43	C	-0.329720	-1.744030	0.160865
C44	C	0.003614	-1.410697	0.494199
C45	C	0.336947	-1.077363	0.827532
C46	C	-0.416461	-1.741322	0.160864
C47	C	-0.083127	-1.407989	0.494197
C48	C	0.250206	-1.074655	0.827530
C49	C	-0.416465	-1.741328	-0.160724
C50	C	-0.083132	-1.407994	0.172610
C51	C	0.250201	-1.074661	0.505943
C52	C	-0.329725	-1.744025	-0.160720
C53	C	0.003608	-1.410692	0.172613
C54	C	0.336941	-1.077358	0.505947
C55	C	-0.286355	-1.745384	0.000080
C56	C	0.046978	-1.412050	0.333413
C57	C	0.380311	-1.078717	0.666746
C58	C	-0.459836	-1.739978	0.000074
C59	C	-0.126503	-1.406645	0.333408
C60	C	0.206830	-1.073312	0.666741
C61	C	-0.553885	-1.737042	0.000071
C62	C	-0.220551	-1.403709	0.333405
C63	C	0.112782	-1.070375	0.666738
C64	C	-0.192301	-1.748317	0.000084
C65	C	0.141033	-1.414984	0.333417
C66	C	0.474366	-1.081650	0.666750
C67	C	0.278827	-1.731840	0.000068
C68	C	0.612160	-1.398507	0.333401
C69	C	0.945493	-1.065173	0.666734
C70	C	0.371144	-1.734708	0.000068
C71	C	0.704477	-1.401374	0.333401
C72	C	1.037811	-1.068041	0.666734
N73	N	0.126908	-1.742684	0.419833
N74	N	0.460242	-1.409351	0.753166
N75	N	0.793575	-1.076018	1.086500
C76	C	0.122866	-1.012408	0.000073
C77	C	0.456199	-0.679074	0.333406
C78	C	0.789532	-0.345741	0.666740
C79	C	0.125739	-1.176181	0.000058
C80	C	0.459072	-0.842848	0.333391
C81	C	0.792406	-0.509514	0.666725
N82	N	0.126894	-1.742689	-0.419694
N83	N	0.460227	-1.409356	-0.086361
N84	N	0.793561	-1.076023	0.246972
H85	H	-0.294410	-1.745132	0.291799
H86	H	0.038923	-1.411799	0.625132
H87	H	0.372257	-1.078465	0.958466
F88	F	-0.283570	-1.745452	-0.331859
F89	F	0.049764	-1.412118	0.001474
F90	F	0.383097	-1.078785	0.334807
H91	H	-0.451764	-1.740217	0.291791
H92	H	-0.118431	-1.406883	0.625125
H93	H	0.214903	-1.073550	0.958458
H94	H	-0.451788	-1.740224	-0.291641
H95	H	-0.118455	-1.406891	0.041692
H96	H	0.214879	-1.073558	0.375026
