data_functionalizedCrystal
_audit_creation_method	'MofGen! by Chris Wilmer'
_symmetry_space_group_name_H-M	'P1'
_symmetry_Int_Tables_number	1
_symmetry_cell_setting	triclinic
loop_
_symmetry_equiv_pos_as_xyz
  x,y,z
_cell_length_a	10.654550
_cell_length_b	9.065218
_cell_length_c	9.130313
_cell_angle_alpha	89.997322
_cell_angle_beta	89.999724
_cell_angle_gamma	84.750408
loop_
_atom_site_label
_atom_site_type_symbol
_atom_site_fract_x
_atom_site_fract_y
_atom_site_fract_z
O1	O	1.668660	0.207235	-0.121684
O2	O	2.168660	0.707235	0.378316
O3	O	1.303260	0.226979	-0.121710
O4	O	1.803260	0.726979	0.378290
O5	O	1.493513	0.002423	-0.121693
O6	O	1.993513	0.502423	0.378307
O7	O	1.478407	0.431791	-0.121700
O8	O	1.978407	0.931791	0.378300
O9	O	1.493500	0.002417	0.121906
O10	O	1.993500	0.502417	0.621906
O11	O	1.303247	0.226972	0.121889
O12	O	1.803247	0.726972	0.621889
O13	O	1.668647	0.207228	0.121915
O14	O	2.168647	0.707228	0.621915
Cu15	Cu	1.485946	0.217100	0.144145
Cu16	Cu	1.985946	0.717100	0.644145
Cu17	Cu	1.485961	0.217107	-0.143939
Cu18	Cu	1.985961	0.717107	0.356061
O19	O	1.478394	0.431784	0.121899
O20	O	1.978394	0.931784	0.621899
C21	C	1.256450	0.225526	0.000086
C22	C	1.756450	0.725526	0.500086
C23	C	1.116989	0.221188	0.000076
C24	C	1.616989	0.721188	0.500076
C25	C	1.038027	0.353403	0.000078
C26	C	1.538027	0.853403	0.500078
C27	C	0.906990	0.349319	0.000104
C28	C	1.406990	0.849319	0.500104
C29	C	0.933890	0.080794	0.000119
C30	C	1.433890	0.580794	0.500119
C31	C	1.064924	0.084879	0.000104
C32	C	1.564924	0.584879	0.500104
C33	C	1.492055	-0.052559	0.000104
C34	C	1.992055	0.447441	0.500104
C35	C	1.487714	-0.216378	0.000096
C36	C	1.987714	0.283622	0.500096
C37	C	1.715457	0.208681	0.000116
C38	C	2.215457	0.708681	0.500116
C39	C	1.854918	0.213019	0.000117
C40	C	2.354918	0.713019	0.500117
C41	C	1.479852	0.486766	0.000098
C42	C	1.979852	0.986766	0.500098
C43	C	1.484193	0.650585	0.000096
C44	C	1.984193	1.150585	0.500096
N45	N	1.485944	0.217093	0.346767
N46	N	1.985944	0.717093	0.846767
N47	N	1.485973	0.217102	-0.346562
N48	N	1.985973	0.717102	0.153438
C49	C	1.570217	0.117702	0.423427
C50	C	2.070217	0.617702	0.923427
C51	C	1.570229	0.117703	0.576763
C52	C	2.070229	0.617703	1.076763
C53	C	1.401691	0.316498	0.576768
C54	C	1.901691	0.816498	1.076768
C55	C	1.401674	0.316489	0.423434
C56	C	1.901674	0.816489	0.923434
H57	H	1.080414	0.464395	0.000066
H58	H	1.580414	0.964395	0.500066
N59	N	1.310765	0.423682	0.340738
N60	N	1.810765	0.923682	0.840738
H61	H	1.257387	0.486656	0.412571
H62	H	1.757387	0.986656	0.912571
H63	H	1.359571	0.489435	0.277097
H64	H	1.859571	0.989435	0.777097
H65	H	0.891482	-0.030185	0.000151
H66	H	1.391482	0.469815	0.500151
N67	N	0.821823	0.491921	0.000187
N68	N	1.321823	0.991921	0.500187
H69	H	0.874694	0.578886	0.000194
H70	H	1.374694	1.078886	0.500194
H71	H	0.766827	0.496127	-0.090083
H72	H	1.266827	0.996127	0.409917
H73	H	1.129219	-0.022793	0.000106
H74	H	1.629219	0.477207	0.500106
H75	H	1.638833	0.036766	0.361008
H76	H	2.138833	0.536766	0.861008
H77	H	1.638850	0.036768	0.639175
H78	H	2.138850	0.536768	1.139175
N79	N	1.310820	0.423706	0.659474
N80	N	1.810820	0.923706	1.159474
H81	H	1.326466	0.528583	0.632772
H82	H	1.826466	1.028583	1.132772
H83	H	1.221526	0.405610	0.632781
H84	H	1.721526	0.905610	1.132781
