data_functionalizedCrystal
_audit_creation_method	'MofGen! by Chris Wilmer'
_symmetry_space_group_name_H-M	'P1'
_symmetry_Int_Tables_number	1
_symmetry_cell_setting	triclinic
loop_
_symmetry_equiv_pos_as_xyz
  x,y,z
_cell_length_a	18.215407
_cell_length_b	19.805405
_cell_length_c	18.215399
_cell_angle_alpha	89.969390
_cell_angle_beta	89.980167
_cell_angle_gamma	90.026858
loop_
_atom_site_label
_atom_site_type_symbol
_atom_site_fract_x
_atom_site_fract_y
_atom_site_fract_z
Zn1	Zn	1.125064	-0.269462	-0.416102
Zn2	Zn	1.375064	-0.019462	-0.166102
Zn3	Zn	1.625064	0.230538	0.083898
Zn4	Zn	1.875064	0.480538	0.333898
Zn5	Zn	1.124969	-0.382653	-0.293030
Zn6	Zn	1.374969	-0.132653	-0.043030
Zn7	Zn	1.624969	0.117347	0.206970
Zn8	Zn	1.874969	0.367347	0.456970
Zn9	Zn	1.001997	-0.269484	-0.293050
Zn10	Zn	1.251997	-0.019484	-0.043050
Zn11	Zn	1.501997	0.230516	0.206950
Zn12	Zn	1.751997	0.480516	0.456950
Zn13	Zn	1.001959	-0.382615	-0.416055
Zn14	Zn	1.251959	-0.132615	-0.166055
Zn15	Zn	1.501959	0.117385	0.083945
Zn16	Zn	1.751959	0.367385	0.333945
O17	O	1.063497	-0.326054	-0.354559
O18	O	1.313497	-0.076054	-0.104559
O19	O	1.563497	0.173946	0.145441
O20	O	1.813497	0.423946	0.395441
O21	O	1.228036	-0.284484	-0.399788
O22	O	1.478036	-0.034484	-0.149788
O23	O	1.728036	0.215516	0.100212
O24	O	1.978036	0.465516	0.350212
O25	O	1.108633	-0.367666	-0.190049
O26	O	1.358633	-0.117666	0.059951
O27	O	1.608633	0.132334	0.309951
O28	O	1.858633	0.382334	0.559951
O29	O	1.018377	-0.174765	-0.309401
O30	O	1.268377	0.075235	-0.059401
O31	O	1.518377	0.325235	0.190599
O32	O	1.768377	0.575235	0.440599
O33	O	1.227966	-0.367644	-0.309368
O34	O	1.477966	-0.117644	-0.059368
O35	O	1.727966	0.132356	0.190632
O36	O	1.977966	0.382356	0.440632
O37	O	1.108794	-0.174748	-0.399807
O38	O	1.358794	0.075252	-0.149807
O39	O	1.608794	0.325252	0.100193
O40	O	1.858794	0.575252	0.350193
O41	O	1.018285	-0.284521	-0.190063
O42	O	1.268285	-0.034521	0.059937
O43	O	1.518285	0.215479	0.309937
O44	O	1.768285	0.465479	0.559937
O45	O	0.899008	-0.284485	-0.309355
O46	O	1.149008	-0.034485	-0.059355
O47	O	1.399008	0.215515	0.190645
O48	O	1.649008	0.465515	0.440645
O49	O	1.018313	-0.367580	-0.519046
O50	O	1.268313	-0.117580	-0.269046
O51	O	1.518313	0.132420	-0.019046
O52	O	1.768313	0.382420	0.230954
O53	O	0.898980	-0.367602	-0.399727
O54	O	1.148980	-0.117602	-0.149727
O55	O	1.398980	0.132398	0.100273
O56	O	1.648980	0.382398	0.350273
O57	O	1.108758	-0.284447	-0.519080
O58	O	1.358758	-0.034447	-0.269080
O59	O	1.608758	0.215553	-0.019080
O60	O	1.858758	0.465553	0.230920
O61	O	1.108596	-0.477365	-0.309322
O62	O	1.358596	-0.227365	-0.059322
O63	O	1.608596	0.022635	0.190678
O64	O	1.858596	0.272635	0.440678
O65	O	1.018221	-0.477337	-0.399708
O66	O	1.268221	-0.227337	-0.149708
O67	O	1.518221	0.022663	0.100292
O68	O	1.768221	0.272663	0.350292
C69	C	0.872291	-0.326042	-0.354538
C70	C	1.122291	-0.076042	-0.104538
C71	C	1.372291	0.173958	0.145462
C72	C	1.622291	0.423958	0.395462
C73	C	0.790492	-0.326053	-0.354547
C74	C	1.040492	-0.076053	-0.104547
C75	C	1.290492	0.173947	0.145453
C76	C	1.540492	0.423947	0.395453
C77	C	1.063415	-0.501910	-0.354524
C78	C	1.313415	-0.251910	-0.104524
C79	C	1.563415	-0.001910	0.145476
C80	C	1.813415	0.248090	0.395476
C81	C	1.063446	-0.577142	-0.354533
C82	C	1.313446	-0.327142	-0.104533
C83	C	1.563446	-0.077142	0.145467
C84	C	1.813446	0.172858	0.395467
C85	C	0.602303	-0.369400	-0.401544
C86	C	0.852303	-0.119400	-0.151544
C87	C	1.102303	0.130600	0.098456
C88	C	1.352303	0.380600	0.348456
C89	C	0.525444	-0.369403	-0.401553
C90	C	0.775444	-0.119403	-0.151553
C91	C	1.025444	0.130597	0.098447
C92	C	1.275444	0.380597	0.348447
C93	C	0.525444	-0.282719	-0.307591
C94	C	0.775444	-0.032719	-0.057591
C95	C	1.025444	0.217281	0.192409
C96	C	1.275444	0.467281	0.442409
C97	C	0.602301	-0.282714	-0.307586
C98	C	0.852301	-0.032714	-0.057586
C99	C	1.102301	0.217286	0.192414
C100	C	1.352301	0.467286	0.442414
C101	C	0.640729	-0.326059	-0.354561
C102	C	0.890729	-0.076059	-0.104561
C103	C	1.140729	0.173941	0.145439
C104	C	1.390729	0.423941	0.395439
C105	C	0.487013	-0.326066	-0.354575
C106	C	0.737013	-0.076066	-0.104575
C107	C	0.987013	0.173934	0.145425
C108	C	1.237013	0.423934	0.395425
C109	C	0.403679	-0.326068	-0.354585
C110	C	0.653679	-0.076068	-0.104585
C111	C	0.903679	0.173932	0.145415
C112	C	1.153679	0.423932	0.395415
C113	C	0.724068	-0.326056	-0.354553
C114	C	0.974068	-0.076056	-0.104553
C115	C	1.224068	0.173944	0.145447
C116	C	1.474068	0.423944	0.395447
C117	C	1.110550	-0.612478	-0.307518
C118	C	1.360550	-0.362478	-0.057518
C119	C	1.610550	-0.112478	0.192482
C120	C	1.860550	0.137522	0.442482
C121	C	1.110582	-0.683166	-0.307535
C122	C	1.360582	-0.433166	-0.057535
C123	C	1.610582	-0.183166	0.192465
C124	C	1.860582	0.066834	0.442465
C125	C	1.063505	-0.718517	-0.354562
C126	C	1.313505	-0.468517	-0.104562
C127	C	1.563505	-0.218517	0.145438
C128	C	1.813505	0.031483	0.395438
C129	C	1.016399	-0.683176	-0.401582
C130	C	1.266399	-0.433176	-0.151582
C131	C	1.516399	-0.183176	0.098418
C132	C	1.766399	0.066824	0.348418
C133	C	1.016372	-0.612489	-0.401569
C134	C	1.266372	-0.362489	-0.151569
C135	C	1.516372	-0.112489	0.098431
C136	C	1.766372	0.137511	0.348431
C137	C	1.016507	-0.968249	-0.401637
C138	C	1.266507	-0.718249	-0.151637
C139	C	1.516507	-0.468249	0.098363
C140	C	1.766507	-0.218249	0.348363
C141	C	1.016536	-1.038941	-0.401645
C142	C	1.266536	-0.788941	-0.151645
C143	C	1.516536	-0.538941	0.098355
C144	C	1.766536	-0.288941	0.348355
C145	C	1.110717	-1.038927	-0.307602
C146	C	1.360717	-0.788927	-0.057602
C147	C	1.610717	-0.538927	0.192398
C148	C	1.860717	-0.288927	0.442398
C149	C	1.110690	-0.968239	-0.307589
C150	C	1.360690	-0.718239	-0.057589
C151	C	1.610690	-0.468239	0.192411
C152	C	1.860690	-0.218239	0.442411
C153	C	1.063587	-0.932905	-0.354611
C154	C	1.313587	-0.682905	-0.104611
C155	C	1.563587	-0.432905	0.145389
C156	C	1.813587	-0.182905	0.395389
C157	C	1.063555	-0.856256	-0.354594
C158	C	1.313555	-0.606256	-0.104594
C159	C	1.563555	-0.356256	0.145406
C160	C	1.813555	-0.106256	0.395406
C161	C	1.063533	-0.795164	-0.354577
C162	C	1.313533	-0.545164	-0.104577
C163	C	1.563533	-0.295164	0.145423
C164	C	1.813533	-0.045164	0.395423
C165	C	1.255450	-0.326066	-0.354581
C166	C	1.505450	-0.076066	-0.104581
C167	C	1.755450	0.173934	0.145419
C168	C	2.005450	0.423934	0.395419
C169	C	1.337249	-0.326071	-0.354590
C170	C	1.587249	-0.076071	-0.104590
C171	C	1.837249	0.173929	0.145410
C172	C	2.087249	0.423929	0.395410
C173	C	1.063542	-0.326007	-0.546512
C174	C	1.313542	-0.076007	-0.296512
C175	C	1.563542	0.173993	-0.046512
C176	C	1.813542	0.423993	0.203488
C177	C	1.063561	-0.325987	-0.628311
C178	C	1.313561	-0.075987	-0.378311
C179	C	1.563561	0.174013	-0.128311
C180	C	1.813561	0.424013	0.121689
C181	C	1.063601	-0.149511	-0.354611
C182	C	1.313601	0.100489	-0.104611
C183	C	1.563601	0.350489	0.145389
C184	C	1.813601	0.600489	0.395389
C185	C	1.063645	-0.074279	-0.354633
C186	C	1.313645	0.175721	-0.104633
C187	C	1.563645	0.425721	0.145367
C188	C	1.813645	0.675721	0.395367
C189	C	1.110673	-0.282659	-0.816524
C190	C	1.360673	-0.032659	-0.566524
C191	C	1.610673	0.217341	-0.316524
C192	C	1.860673	0.467341	-0.066524
C193	C	1.110682	-0.282639	-0.893383
C194	C	1.360682	-0.032639	-0.643383
C195	C	1.610682	0.217361	-0.393383
C196	C	1.860682	0.467361	-0.143383
C197	C	1.016502	-0.369210	-0.893336
C198	C	1.266502	-0.119210	-0.643336
C199	C	1.516502	0.130790	-0.393336
C200	C	1.766502	0.380790	-0.143336
C201	C	1.016490	-0.369226	-0.816479
C202	C	1.266490	-0.119226	-0.566479
C203	C	1.516490	0.130774	-0.316479
C204	C	1.766490	0.380774	-0.066479
C205	C	1.063580	-0.325952	-0.778075
C206	C	1.313580	-0.075952	-0.528075
C207	C	1.563580	0.174048	-0.278075
C208	C	1.813580	0.424048	-0.028075
C209	C	1.063600	-0.325916	-0.931791
C210	C	1.313600	-0.075916	-0.681791
C211	C	1.563600	0.174084	-0.431791
C212	C	1.813600	0.424084	-0.181791
C213	C	1.063609	-0.325895	-1.015125
C214	C	1.313609	-0.075895	-0.765125
C215	C	1.563609	0.174105	-0.515125
C216	C	1.813609	0.424105	-0.265125
C217	C	1.063570	-0.325972	-0.694736
C218	C	1.313570	-0.075972	-0.444736
C219	C	1.563570	0.174028	-0.194736
C220	C	1.813570	0.424028	0.055264
C221	C	1.063495	-0.326051	-0.163353
C222	C	1.313495	-0.076051	0.086647
C223	C	1.563495	0.173949	0.336647
C224	C	1.813495	0.423949	0.586647
C225	C	1.063619	-0.325880	-0.081555
C226	C	1.313619	-0.075880	0.168445
C227	C	1.563619	0.174120	0.418445
C228	C	1.813619	0.424120	0.668445
H229	H	0.633589	-0.404693	-0.439797
H230	H	0.883589	-0.154693	-0.189797
H231	H	1.133589	0.095307	0.060203
H232	H	1.383589	0.345307	0.310203
H233	H	1.148938	-0.711934	-0.269250
H234	H	1.398938	-0.461934	-0.019250
H235	H	1.648938	-0.211934	0.230750
H236	H	1.898938	0.038066	0.480750
F237	F	0.966361	-0.415303	-0.775555
F238	F	1.216361	-0.165303	-0.525555
F239	F	1.466361	0.084697	-0.275555
F240	F	1.716361	0.334697	-0.025555
H241	H	1.148883	-0.583700	-0.269220
H242	H	1.398883	-0.333700	-0.019220
H243	H	1.648883	-0.083700	0.230780
H244	H	1.898883	0.166300	0.480780
F245	F	0.484553	-0.415532	-0.451560
F246	F	0.734553	-0.165532	-0.201560
F247	F	0.984553	0.084468	0.048440
F248	F	1.234553	0.334468	0.298440
H249	H	1.149028	-0.247385	-0.924686
H250	H	1.399028	0.002615	-0.674686
H251	H	1.649028	0.252615	-0.424686
H252	H	1.899028	0.502615	-0.174686
H253	H	1.149022	-0.939459	-0.269292
H254	H	1.399022	-0.689459	-0.019292
H255	H	1.649022	-0.439459	0.230708
H256	H	1.899022	-0.189459	0.480708
F257	F	0.484539	-0.236592	-0.257598
F258	F	0.734539	0.013408	-0.007598
F259	F	0.984539	0.263408	0.242402
F260	F	1.234539	0.513408	0.492402
H261	H	0.978165	-0.404444	-0.924614
H262	H	1.228165	-0.154444	-0.674614
H263	H	1.478165	0.095556	-0.424614
H264	H	1.728165	0.345556	-0.174614
F265	F	1.160788	-0.236601	-0.775655
F266	F	1.410788	0.013399	-0.525655
F267	F	1.660788	0.263399	-0.275655
F268	F	1.910788	0.513399	-0.025655
H269	H	0.978153	-0.939485	-0.439923
H270	H	1.228153	-0.689485	-0.189923
H271	H	1.478153	-0.439485	0.060077
H272	H	1.728153	-0.189485	0.310077
H273	H	0.633588	-0.247416	-0.269327
H274	H	0.883588	0.002584	-0.019327
H275	H	1.133588	0.252584	0.230673
H276	H	1.383588	0.502584	0.480673
H277	H	0.978016	-0.583719	-0.439854
H278	H	1.228016	-0.333719	-0.189854
H279	H	1.478016	-0.083719	0.060146
H280	H	1.728016	0.166281	0.310146
H281	H	0.978071	-0.711965	-0.439876
H282	H	1.228071	-0.461965	-0.189876
H283	H	1.478071	-0.211965	0.060124
H284	H	1.728071	0.038035	0.310124
H285	H	1.149073	-1.067705	-0.269317
H286	H	1.399073	-0.817705	-0.019317
H287	H	1.649073	-0.567705	0.230683
H288	H	1.899073	-0.317705	0.480683
F289	F	0.966429	-1.076563	-0.451702
F290	F	1.216429	-0.826563	-0.201702
F291	F	1.466429	-0.576563	0.048298
F292	F	1.716429	-0.326563	0.298298
