data_functionalizedCrystal
_audit_creation_method	'MofGen! by Chris Wilmer'
_symmetry_space_group_name_H-M	'P1'
_symmetry_Int_Tables_number	1
_symmetry_cell_setting	triclinic
loop_
_symmetry_equiv_pos_as_xyz
  x,y,z
_cell_length_a	18.101395
_cell_length_b	18.101398
_cell_length_c	19.805398
_cell_angle_alpha	90.021302
_cell_angle_beta	89.973857
_cell_angle_gamma	89.973721
loop_
_atom_site_label
_atom_site_type_symbol
_atom_site_fract_x
_atom_site_fract_y
_atom_site_fract_z
Zn1	Zn	-0.294935	-1.132071	-0.382879
Zn2	Zn	0.205065	-0.632071	0.117121
Zn3	Zn	-0.418780	-1.131982	-0.269696
Zn4	Zn	0.081220	-0.631982	0.230304
Zn5	Zn	-0.294947	-1.008245	-0.269687
Zn6	Zn	0.205053	-0.508245	0.230313
Zn7	Zn	-0.418728	-1.008181	-0.382826
Zn8	Zn	0.081272	-0.508181	0.117174
O9	O	-0.356848	-1.070120	-0.326272
O10	O	0.143152	-0.570120	0.173728
O11	O	-0.311380	-1.235692	-0.367890
O12	O	0.188620	-0.735692	0.132110
O13	O	-0.402380	-1.115557	-0.174978
O14	O	0.097620	-0.615557	0.325022
O15	O	-0.191312	-1.024735	-0.284721
O16	O	0.308688	-0.524735	0.215279
O17	O	-0.402369	-1.235627	-0.284735
O18	O	0.097631	-0.735627	0.215265
O19	O	-0.191303	-1.115710	-0.367882
O20	O	0.308697	-0.615710	0.132118
O21	O	-0.311400	-1.024648	-0.174972
O22	O	0.188600	-0.524648	0.325028
O23	O	-0.311350	-0.904603	-0.284670
O24	O	0.188650	-0.404603	0.215330
O25	O	-0.402280	-1.024626	-0.477550
O26	O	0.097720	-0.524626	0.022450
O27	O	-0.402292	-0.904556	-0.367792
O28	O	0.097708	-0.404556	0.132208
O29	O	-0.311329	-1.115647	-0.477589
O30	O	0.188671	-0.615647	0.022411
O31	O	-0.522406	-1.115495	-0.284684
O32	O	-0.022406	-0.615495	0.215316
O33	O	-0.522368	-1.024539	-0.367800
O34	O	-0.022368	-0.524539	0.132200
C35	C	-0.356817	-0.877709	-0.326225
C36	C	0.143183	-0.377709	0.173775
C37	C	-0.356822	-0.795395	-0.326221
C38	C	0.143178	-0.295395	0.173779
C39	C	-0.356830	-0.644687	-0.326243
C40	C	0.143170	-0.144687	0.173757
C41	C	-0.299529	-0.613338	-0.274030
C42	C	0.200471	-0.113338	0.225970
C43	C	-0.299310	-0.527719	-0.274197
C44	C	0.200690	-0.027719	0.225803
C45	C	-0.356839	-0.496304	-0.326264
C46	C	0.143161	0.003696	0.173736
C47	C	-0.336008	-0.527435	-0.397678
C48	C	0.163992	-0.027435	0.102322
C49	C	-0.335588	-0.613080	-0.397364
C50	C	0.164412	-0.113080	0.102636
C51	C	-0.435109	-0.613085	-0.307671
C52	C	0.064891	-0.113085	0.192329
C53	C	-0.434693	-0.527434	-0.306110
C54	C	0.065307	-0.027434	0.193890
C55	C	-0.356845	-0.412445	-0.326281
C56	C	0.143155	0.087555	0.173719
C57	C	-0.356823	-0.728546	-0.326232
C58	C	0.143177	-0.228546	0.173768
C59	C	-0.549258	-1.070021	-0.326252
C60	C	-0.049258	-0.570021	0.173748
C61	C	-0.631572	-1.070046	-0.326266
C62	C	-0.131572	-0.570046	0.173734
C63	C	-0.930663	-1.070208	-0.326303
C64	C	-0.430663	-0.570208	0.173697
C65	C	-0.899345	-1.013114	-0.378727
C66	C	-0.399345	-0.513114	0.121273
C67	C	-0.813727	-1.012843	-0.378563
C68	C	-0.313727	-0.512843	0.121437
C69	C	-0.782281	-1.070128	-0.326285
C70	C	-0.282281	-0.570128	0.173715
C71	C	-0.813429	-1.049008	-0.254948
C72	C	-0.313429	-0.549008	0.245052
C73	C	-0.899074	-1.048640	-0.255261
C74	C	-0.399074	-0.548640	0.244739
C75	C	-0.899014	-1.148548	-0.344588
C76	C	-0.399014	-0.648548	0.155412
C77	C	-0.813363	-1.148087	-0.346152
C78	C	-0.313363	-0.648087	0.153848
C79	C	-0.698421	-1.070083	-0.326271
C80	C	-0.198421	-0.570083	0.173729
C81	C	-1.014523	-1.070251	-0.326312
C82	C	-0.514523	-0.570251	0.173688
C83	C	-0.163686	-1.070239	-0.326307
C84	C	0.336314	-0.570239	0.173693
C85	C	-0.081371	-1.070290	-0.326322
C86	C	0.418629	-0.570290	0.173678
C87	C	-0.356797	-1.070139	-0.502815
C88	C	0.143203	-0.570139	-0.002815
C89	C	-0.356776	-1.070148	-0.578047
C90	C	0.143224	-0.570148	-0.078047
C91	C	-0.356867	-0.263282	-0.326306
C92	C	0.143133	0.236718	0.173694
C93	C	-0.356847	-0.345596	-0.326287
C94	C	0.143153	0.154404	0.173713
C95	C	-0.404032	-1.117601	-1.039839
C96	C	0.095968	-0.617601	-0.539839
C97	C	-0.404052	-1.117580	-0.969150
C98	C	0.095948	-0.617580	-0.469150
C99	C	-0.356693	-1.070240	-0.933809
C100	C	0.143307	-0.570240	-0.433809
C101	C	-0.309316	-1.022911	-0.969159
C102	C	0.190684	-0.522911	-0.469159
C103	C	-0.309300	-1.022929	-1.039847
C104	C	0.190700	-0.522929	-0.539847
C105	C	-0.309379	-1.022840	-0.684086
C106	C	0.190621	-0.522840	-0.184086
C107	C	-0.309397	-1.022828	-0.613394
C108	C	0.190603	-0.522828	-0.113394
C109	C	-0.404131	-1.117492	-0.613390
C110	C	0.095869	-0.617492	-0.113390
C111	C	-0.404115	-1.117509	-0.684077
C112	C	0.095885	-0.617509	-0.184077
C113	C	-0.356741	-1.070178	-0.719421
C114	C	0.143259	-0.570178	-0.219421
C115	C	-0.356721	-1.070200	-0.796070
C116	C	0.143279	-0.570200	-0.296070
C117	C	-0.356709	-1.070221	-0.857162
C118	C	0.143291	-0.570221	-0.357162
C119	C	-0.356844	-1.070143	-0.150416
C120	C	0.143156	-0.570143	0.349584
C121	C	-0.356657	-1.070278	-0.075184
C122	C	0.143343	-0.570278	0.424816
H123	H	-0.479647	-0.506042	-0.341339
H124	H	0.020353	-0.006042	0.158661
H125	H	-0.793061	-1.089285	-0.214822
H126	H	-0.293061	-0.589285	0.285178
H127	H	-0.920926	-0.955400	-0.366767
H128	H	-0.420926	-0.455400	0.133233
N129	N	-0.315617	-0.639169	-0.207406
N130	N	0.184383	-0.139169	0.292594
N131	N	-0.268817	-0.676401	-0.175861
N132	N	0.231183	-0.176401	0.324139
H133	H	-0.280178	-0.694659	-0.128808
H134	H	0.219822	-0.194659	0.371192
H135	H	-0.375526	-0.633820	-0.437614
H136	H	0.124474	-0.133820	0.062386
H137	H	-0.270829	-0.984275	-0.584621
H138	H	0.229171	-0.484275	-0.084621
H139	H	-0.279429	-0.506012	-0.413651
H140	H	0.220571	-0.006012	0.086349
N141	N	-0.452481	-1.165876	-0.720177
N142	N	0.047519	-0.665876	-0.220177
N143	N	-0.447582	-1.234213	-0.712295
N144	N	0.052418	-0.734213	-0.212295
H145	H	-0.481743	-1.268373	-0.737790
H146	H	0.018257	-0.768373	-0.237790
H147	H	-0.793298	-0.954776	-0.366450
H148	H	-0.293298	-0.454776	0.133550
H149	H	-0.442707	-1.156029	-0.584604
H150	H	0.057293	-0.656029	-0.084604
H151	H	-0.920565	-1.167805	-0.395721
H152	H	-0.420565	-0.667805	0.104279
N153	N	-0.924406	-1.201913	-0.296685
N154	N	-0.424406	-0.701913	0.203315
N155	N	-0.909051	-1.194601	-0.235521
N156	N	-0.409051	-0.694601	0.264479
H157	H	-0.926985	-1.232286	-0.201688
H158	H	-0.426985	-0.732286	0.298312
N159	N	-0.452402	-1.165975	-1.075926
N160	N	0.047598	-0.665975	-0.575926
N161	N	-0.494694	-1.208228	-1.044355
N162	N	0.005306	-0.708228	-0.544355
H163	H	-0.528857	-1.242395	-1.069839
H164	H	-0.028857	-0.742395	-0.569839
N165	N	-0.260939	-0.974566	-0.933048
N166	N	0.239061	-0.474566	-0.433048
N167	N	-0.213763	-1.000648	-0.893619
N168	N	0.286237	-0.500648	-0.393619
H169	H	-0.179594	-0.966506	-0.868113
H170	H	0.320406	-0.466506	-0.368113
N171	N	-0.227178	-0.640362	-0.289314
N172	N	0.272822	-0.140362	0.210686
N173	N	-0.198409	-0.626484	-0.345274
N174	N	0.301591	-0.126484	0.154726
H175	H	-0.147312	-0.645571	-0.356072
H176	H	0.352688	-0.145571	0.143928
N177	N	-0.925115	-1.029571	-0.445293
N178	N	-0.425115	-0.529571	0.054707
N179	N	-0.992848	-1.029775	-0.457548
N180	N	-0.492848	-0.529775	0.042452
H181	H	-1.011045	-1.041417	-0.504561
H182	H	-0.511045	-0.541417	-0.004561
H183	H	-0.278378	-0.633082	-0.413062
H184	H	0.221622	-0.133082	0.086938
N185	N	-0.226543	-0.502053	-0.289657
N186	N	0.273457	-0.002053	0.210343
N187	N	-0.175763	-0.547393	-0.300363
N188	N	0.324237	-0.047393	0.199637
H189	H	-0.124368	-0.529268	-0.311283
H190	H	0.375632	-0.029268	0.188717
H191	H	-0.270721	-0.984394	-1.068624
H192	H	0.229279	-0.484394	-0.568624
N193	N	-0.315619	-0.501318	-0.207779
N194	N	0.184381	-0.001318	0.292221
N195	N	-0.327242	-0.546146	-0.160977
N196	N	0.172758	-0.046146	0.339023
H197	H	-0.338760	-0.527504	-0.114066
H198	H	0.161240	-0.027504	0.385934
N199	N	-0.386770	-0.501923	-0.447833
N200	N	0.113230	-0.001923	0.052167
N201	N	-0.453943	-0.516951	-0.442847
N202	N	0.046057	-0.016951	0.057153
H203	H	-0.489795	-0.498934	-0.478268
H204	H	0.010205	0.001066	0.021732
N205	N	-0.458966	-0.640141	-0.243435
N206	N	0.041034	-0.140141	0.256565
N207	N	-0.418560	-0.683049	-0.210560
N208	N	0.081440	-0.183049	0.289440
H209	H	-0.435400	-0.702158	-0.165190
H210	H	0.064600	-0.202158	0.334810
H211	H	-0.791953	-1.192875	-0.310753
H212	H	-0.291953	-0.692875	0.189247
H213	H	-0.477798	-0.633354	-0.345700
H214	H	0.022202	-0.133354	0.154300
H215	H	-0.792039	-0.992349	-0.239183
H216	H	-0.292039	-0.492349	0.260817
H217	H	-0.442638	-1.156107	-0.940375
H218	H	0.057362	-0.656107	-0.440375
H219	H	-0.450406	-0.507085	-0.253552
H220	H	0.049594	-0.007085	0.246448
N221	N	-0.787291	-1.029427	-0.444914
N222	N	-0.287291	-0.529427	0.055086
N223	N	-0.747410	-1.084849	-0.454465
N224	N	-0.247410	-0.584849	0.045535
H225	H	-0.728744	-1.096562	-0.501328
H226	H	-0.228744	-0.596562	-0.001328
N227	N	-0.925060	-1.098529	-0.204574
N228	N	-0.425060	-0.598529	0.295426
N229	N	-0.879942	-1.133504	-0.169078
N230	N	-0.379942	-0.633504	0.330922
H231	H	-0.898291	-1.168730	-0.133274
H232	H	-0.398291	-0.668730	0.366726
N233	N	-0.924205	-0.976801	-0.235827
N234	N	-0.424205	-0.476801	0.264173
N235	N	-0.878491	-0.927284	-0.222128
N236	N	-0.378491	-0.427284	0.277872
H237	H	-0.896236	-0.876545	-0.208402
H238	H	-0.396236	-0.376545	0.291598
N239	N	-0.787801	-1.168065	-0.412007
N240	N	-0.287801	-0.668065	0.087993
N241	N	-0.720070	-1.173419	-0.423327
N242	N	-0.220070	-0.673419	0.076673
H243	H	-0.702011	-1.187525	-0.469838
H244	H	-0.202011	-0.687525	0.030162
H245	H	-0.270805	-0.984299	-0.712855
H246	H	0.229195	-0.484299	-0.212855
