data_functionalizedCrystal
_audit_creation_method	'MofGen! by Chris Wilmer'
_symmetry_space_group_name_H-M	'P1'
_symmetry_Int_Tables_number	1
_symmetry_cell_setting	triclinic
loop_
_symmetry_equiv_pos_as_xyz
  x,y,z
_cell_length_a	23.532407
_cell_length_b	17.699083
_cell_length_c	16.776229
_cell_angle_alpha	89.992455
_cell_angle_beta	89.998190
_cell_angle_gamma	83.065846
loop_
_atom_site_label
_atom_site_type_symbol
_atom_site_fract_x
_atom_site_fract_y
_atom_site_fract_z
O1	O	0.755525	0.091879	-0.066190
O2	O	1.255525	0.591879	0.433810
O3	O	0.589700	0.105173	-0.066214
O4	O	1.089700	0.605173	0.433786
O5	O	0.677298	-0.011687	-0.066194
O6	O	1.177298	0.488313	0.433806
O7	O	0.667928	0.208739	-0.066210
O8	O	1.167928	0.708739	0.433790
O9	O	0.677286	-0.011694	0.066382
O10	O	1.177286	0.488306	0.566382
O11	O	0.589689	0.105166	0.066363
O12	O	1.089689	0.605166	0.566363
O13	O	0.755514	0.091872	0.066386
O14	O	1.255514	0.591872	0.566386
Zn15	Zn	0.672599	0.098518	0.087424
Zn16	Zn	1.172599	0.598518	0.587424
Zn17	Zn	0.672615	0.098527	-0.087252
Zn18	Zn	1.172615	0.598527	0.412748
O19	O	0.667916	0.208732	0.066367
O20	O	1.167916	0.708732	0.566367
C21	C	0.676956	-0.039886	0.000094
C22	C	1.176956	0.460114	0.500094
C23	C	0.675949	-0.123899	0.000094
C24	C	1.175949	0.376101	0.500094
C25	C	0.568478	0.104831	0.000071
C26	C	1.068478	0.604831	0.500071
C27	C	0.505258	0.103813	0.000063
C28	C	1.005258	0.603813	0.500063
C29	C	0.727367	-0.172781	0.000102
C30	C	1.227367	0.327219	0.500102
C31	C	0.726417	-0.251719	0.000095
C32	C	1.226417	0.248281	0.500095
C33	C	0.674049	-0.281774	0.000085
C34	C	1.174049	0.218226	0.500085
C35	C	0.622627	-0.232886	0.000074
C36	C	1.122627	0.267114	0.500074
C37	C	0.623577	-0.153949	0.000076
C38	C	1.123577	0.346051	0.500076
C39	C	0.618793	-0.551230	0.000067
C40	C	1.118793	-0.051230	0.500067
C41	C	0.617847	-0.630173	0.000068
C42	C	1.117847	-0.130173	0.500068
C43	C	0.721633	-0.649000	0.000087
C44	C	1.221633	-0.149000	0.500087
C45	C	0.722583	-0.570063	0.000088
C46	C	1.222583	-0.070063	0.500088
C47	C	0.671162	-0.521181	0.000073
C48	C	1.171162	-0.021181	0.500073
C49	C	0.672192	-0.435587	0.000079
C50	C	1.172192	0.064413	0.500079
C51	C	0.673018	-0.367366	0.000085
C52	C	1.173018	0.132634	0.500085
C53	C	0.106335	0.166585	0.000094
C54	C	0.606335	0.666585	0.500094
C55	C	0.046932	0.165639	0.000099
C56	C	0.546932	0.665639	0.500099
O57	O	0.010354	0.223829	0.000124
O58	O	0.510354	0.723829	0.500124
N59	N	0.024106	0.096166	0.000103
N60	N	0.524106	0.596166	0.500103
C61	C	0.060687	0.027634	0.000109
C62	C	0.560687	0.527634	0.500109
O63	O	0.035817	-0.031545	0.000114
O64	O	0.535817	0.468455	0.500114
C65	C	0.120089	0.028580	0.000110
C66	C	0.620089	0.528580	0.500110
C67	C	0.142911	0.098058	0.000099
C68	C	0.642911	0.598058	0.500099
C69	C	0.129158	0.236057	0.000084
C70	C	0.629158	0.736057	0.500084
C71	C	0.188557	0.237002	0.000077
C72	C	0.688557	0.737002	0.500077
C73	C	0.225133	0.168475	0.000081
C74	C	0.725133	0.668475	0.500081
C75	C	0.202310	0.099003	0.000092
C76	C	0.702310	0.599003	0.500092
C77	C	0.156668	-0.039951	0.000123
C78	C	0.656668	0.460049	0.500123
C79	C	0.216073	-0.038999	0.000124
C80	C	0.716073	0.461001	0.500124
C81	C	0.238896	0.030479	0.000112
C82	C	0.738896	0.530479	0.500112
C83	C	0.298285	0.031421	0.000090
C84	C	0.798285	0.531421	0.500090
N85	N	0.321110	0.100894	0.000086
N86	N	0.821110	0.600894	0.500086
C87	C	0.284534	0.169421	0.000082
C88	C	0.784534	0.669421	0.500082
C89	C	-0.064061	0.025652	0.000109
C90	C	0.435939	0.525652	0.500109
C91	C	-0.123462	0.024705	0.000103
C92	C	0.376538	0.524705	0.500103
C93	C	-0.137213	0.162710	0.000094
C94	C	0.362787	0.662710	0.500094
C95	C	-0.077811	0.163657	0.000095
C96	C	0.422189	0.663657	0.500095
C97	C	-0.041236	0.095125	0.000106
C98	C	0.458764	0.595125	0.500106
C99	C	0.409277	0.171401	0.000068
C100	C	0.909277	0.671401	0.500068
C101	C	0.468682	0.172340	0.000058
C102	C	0.968682	0.672340	0.500058
C103	C	0.482427	0.034335	0.000071
C104	C	0.982427	0.534335	0.500071
C105	C	0.423028	0.033395	0.000077
C106	C	0.923028	0.533395	0.500077
C107	C	0.386453	0.101935	0.000078
C108	C	0.886453	0.601935	0.500078
O109	O	0.334897	-0.026738	0.000068
O110	O	0.834897	0.473262	0.500068
O111	O	0.309412	0.228591	0.000088
O112	O	0.809412	0.728591	0.500088
C113	C	0.776737	0.092214	0.000099
C114	C	1.276737	0.592214	0.500099
C115	C	0.839957	0.093232	0.000103
C116	C	1.339957	0.593232	0.500103
C117	C	0.668258	0.236931	0.000077
C118	C	1.168258	0.736931	0.500077
C119	C	0.669265	0.320944	0.000071
C120	C	1.169265	0.820944	0.500071
N121	N	0.672593	0.098511	0.206635
N122	N	1.172593	0.598511	0.706635
N123	N	0.672626	0.098528	-0.206463
N124	N	1.172626	0.598528	0.293537
C125	C	0.711393	0.046787	0.248361
C126	C	1.211393	0.546787	0.748361
C127	C	0.711396	0.046786	0.331813
C128	C	1.211396	0.546786	0.831813
C129	C	0.672602	0.098514	0.373538
C130	C	1.172602	0.598514	0.873538
C131	C	0.633798	0.150241	0.331806
C132	C	1.133798	0.650241	0.831806
C133	C	0.633792	0.150237	0.248356
C134	C	1.133792	0.650237	0.748356
C135	C	0.633818	0.150256	0.668353
C136	C	1.133818	0.650256	1.168353
C137	C	0.633828	0.150257	0.751810
C138	C	1.133828	0.650257	1.251810
C139	C	0.711422	0.046804	0.751811
C140	C	1.211422	0.546804	1.251811
C141	C	0.711417	0.046801	0.668360
C142	C	1.211417	0.546801	1.168360
C143	C	0.672611	0.098525	0.626636
C144	C	1.172611	0.598525	1.126636
C145	C	0.672607	0.098524	0.536147
C146	C	1.172607	0.598524	1.036147
C147	C	0.672608	0.098519	0.464025
C148	C	1.172608	0.598519	0.964025
H149	H	0.770011	-0.148316	0.000115
H150	H	1.270011	0.351684	0.500115
Cl151	Cl	0.127993	-0.127300	0.000124
Cl152	Cl	0.627993	0.372700	0.500124
Cl153	Cl	0.585011	0.215263	0.195901
Cl154	Cl	1.085011	0.715263	0.695901
Cl155	Cl	0.585037	0.215281	0.615906
Cl156	Cl	1.085037	0.715281	1.115906
Cl157	Cl	0.788420	-0.532284	0.000098
Cl158	Cl	1.288420	-0.032284	0.500098
H159	H	0.512218	-0.021458	0.000072
H160	H	1.012218	0.478542	0.500072
H161	H	0.579988	-0.257363	0.000061
H162	H	1.079988	0.242637	0.500061
H163	H	0.768287	-0.291516	0.000104
H164	H	1.268287	0.208484	0.500104
H165	H	0.763503	-0.688809	0.000095
H166	H	1.263503	-0.188809	0.500095
Cl167	Cl	0.363307	0.257566	0.000068
Cl168	Cl	0.863307	0.757566	0.500068
Cl169	Cl	0.760174	-0.018241	0.384270
Cl170	Cl	1.260174	0.481759	0.884270
Cl171	Cl	0.554148	-0.489789	0.000047
Cl172	Cl	1.054148	0.010211	0.500047
H173	H	0.743019	0.004685	0.785792
H174	H	1.243019	0.504685	1.285792
H175	H	0.743009	0.004681	0.634390
H176	H	1.243009	0.504681	1.134390
Cl177	Cl	0.262051	-0.125159	0.000139
Cl178	Cl	0.762051	0.374841	0.500139
Cl179	Cl	0.585024	0.215268	0.384259
Cl180	Cl	1.085024	0.715268	0.884259
Cl181	Cl	0.585053	0.215290	0.804264
Cl182	Cl	1.085053	0.715290	1.304264
Cl183	Cl	0.558935	-0.092497	0.000062
Cl184	Cl	1.058935	0.407503	0.500062
H185	H	-0.142038	-0.031871	0.000100
H186	H	0.357962	0.468129	0.500100
H187	H	0.575200	-0.654640	0.000062
H188	H	1.075200	-0.154640	0.500062
Cl189	Cl	0.760169	-0.018244	0.195915
Cl190	Cl	1.260169	0.481756	0.695915
H191	H	0.099383	0.291863	0.000083
H192	H	0.599383	0.791863	0.500083
Cl193	Cl	0.217238	0.324350	0.000068
Cl194	Cl	0.717238	0.824350	0.500068
H195	H	0.487260	0.228920	0.000048
H196	H	0.987260	0.728920	0.500048
H197	H	-0.059234	0.220231	0.000090
H198	H	0.440766	0.720231	0.500090
Cl199	Cl	-0.183205	0.248859	0.000093
Cl200	Cl	0.316795	0.748859	0.500093
H201	H	-0.034284	-0.030159	0.000111
H202	H	0.465716	0.469841	0.500111
Cl203	Cl	0.394336	-0.053949	0.000095
Cl204	Cl	0.894336	0.446051	0.500095
