data_functionalizedCrystal
_audit_creation_method	'MofGen! by Chris Wilmer'
_symmetry_space_group_name_H-M	'P1'
_symmetry_Int_Tables_number	1
_symmetry_cell_setting	triclinic
loop_
_symmetry_equiv_pos_as_xyz
  x,y,z
_cell_length_a	6.817900
_cell_length_b	17.982783
_cell_length_c	10.943624
_cell_angle_alpha	94.170555
_cell_angle_beta	108.838799
_cell_angle_gamma	102.448572
loop_
_atom_site_label
_atom_site_type_symbol
_atom_site_fract_x
_atom_site_fract_y
_atom_site_fract_z
V1	V	-4.083143	-0.105392	-0.403087
O2	O	-4.074765	0.005085	-0.394862
O3	O	-4.029290	-0.208994	-0.400861
O4	O	-4.061606	-0.103762	-0.578645
O5	O	-4.042226	-0.100876	-0.215847
V6	V	-4.563997	-0.092179	-0.380627
O7	O	-4.350257	-0.134376	-0.452354
O8	O	-4.747080	-0.063194	-0.331360
O9	O	-4.394642	0.011424	-0.382854
O10	O	-4.689771	-0.202656	-0.388852
O11	O	-4.722311	-0.096695	-0.567867
O12	O	-4.362327	-0.093809	-0.205069
C13	C	-3.872096	-0.234251	-0.394639
C14	C	-3.909531	-0.318947	-0.393988
C15	C	-3.869351	-0.347863	-0.275394
C16	C	-3.904546	-0.427444	-0.274788
C17	C	-3.979906	-0.478109	-0.392776
C18	C	-4.020094	-0.449188	-0.511380
C19	C	-3.984913	-0.369608	-0.511986
C20	C	-4.161976	-0.770126	-0.508941
C21	C	-4.197148	-0.849711	-0.508326
C22	C	-4.081609	-0.827963	-0.271743
C23	C	-4.046428	-0.748383	-0.272348
C24	C	-4.086629	-0.719469	-0.390951
C25	C	-4.048470	-0.633178	-0.391608
C26	C	-4.018050	-0.564399	-0.392121
C27	C	-3.913316	-0.100015	-0.621419
C28	C	-3.976955	-0.099368	-0.764942
C29	C	-3.823123	-0.095009	-0.842067
C30	C	-3.992619	-0.159711	-0.948386
C31	C	-3.920875	-0.033519	-0.914358
C32	C	-4.145643	-0.164131	-0.869385
C33	C	-4.073836	-0.037882	-0.835333
C34	C	-4.243464	-0.102603	-0.941622
C35	C	-4.215179	0.036676	-0.389072
C36	C	-4.156983	0.121371	-0.389731
C37	C	-4.173958	-0.097558	-0.162289
C38	C	-4.089558	-0.098201	-0.018764
H39	H	-3.871830	-0.450983	-0.178217
H40	H	-4.107425	0.013626	-0.786087
C41	C	-3.839888	-0.289064	-0.643826
C42	C	-4.029075	-0.337818	-0.642346
H43	H	-3.867169	-0.269437	-0.724305
H44	H	-3.734220	-0.317177	-0.634550
H45	H	-3.789993	-0.247506	-0.573636
H46	H	-4.078962	-0.379380	-0.712531
H47	H	-4.134778	-0.309705	-0.651636
H48	H	-3.985055	-0.707134	-0.176269
C49	C	-4.527598	-0.043797	-0.940711
C50	C	-4.484191	-0.106954	-1.000030
H51	H	-4.676215	-0.046490	-0.976768
H52	H	-4.447644	0.002594	-0.955762
H53	H	-4.488402	-0.044670	-0.849372
H54	H	-4.523372	-0.106078	-1.091368
H55	H	-4.564173	-0.153357	-0.984989
C56	C	-4.411663	-0.284012	-0.960542
C57	C	-4.273114	-0.238734	-0.842045
H58	H	-4.490358	-0.330065	-0.943658
H59	H	-4.330619	-0.296525	-1.011555
H60	H	-4.508000	-0.256154	-1.006767
H61	H	-4.176766	-0.266589	-0.795824
H62	H	-4.354165	-0.226222	-0.791011
H63	H	-4.258517	-0.890962	-0.604412
H64	H	-3.807971	-0.306616	-0.179313
C65	C	-3.653352	0.086045	-0.823592
C66	C	-3.793439	0.041007	-0.941940
H67	H	-3.574681	0.132053	-0.840620
H68	H	-3.557095	0.057980	-0.778019
H69	H	-3.733283	0.098657	-0.771885
H70	H	-3.713507	0.028390	-0.993644
H71	H	-3.889708	0.069077	-0.987533
H72	H	-4.048886	-0.851513	-0.175170
C73	C	-4.009537	-0.228255	-1.149685
C74	C	-3.947178	-0.229238	-1.014837
H75	H	-3.981482	-0.271178	-1.190702
H76	H	-3.931083	-0.181923	-1.165868
H77	H	-4.158351	-0.231010	-1.183938
H78	H	-3.798359	-0.226477	-0.980582
H79	H	-4.025629	-0.275581	-0.998645
H80	H	-4.081469	-0.490446	-0.607449
C81	C	-4.279685	-0.799628	-0.742734
C82	C	-4.206134	-0.738351	-0.639306
H83	H	-4.306929	-0.780007	-0.823218
H84	H	-4.408012	-0.832693	-0.741714
H85	H	-4.173973	-0.827734	-0.733422
H86	H	-4.311853	-0.710248	-0.648613
H87	H	-4.077790	-0.705272	-0.640329
H88	H	-3.644881	-0.091884	-0.798603
