data_functionalizedCrystal
_audit_creation_method	'MofGen! by Chris Wilmer'
_symmetry_space_group_name_H-M	'P1'
_symmetry_Int_Tables_number	1
_symmetry_cell_setting	triclinic
loop_
_symmetry_equiv_pos_as_xyz
  x,y,z
_cell_length_a	16.974800
_cell_length_b	10.654559
_cell_length_c	15.455313
_cell_angle_alpha	92.693692
_cell_angle_beta	90.973911
_cell_angle_gamma	83.938039
loop_
_atom_site_label
_atom_site_type_symbol
_atom_site_fract_x
_atom_site_fract_y
_atom_site_fract_z
O1	O	1.049953	0.160090	0.001605
O2	O	0.820625	0.179269	-0.014500
O3	O	0.940558	-0.013114	-0.006077
O4	O	0.930020	0.352472	-0.006817
O5	O	0.933699	-0.002158	0.137703
O6	O	0.813767	0.190224	0.129280
O7	O	1.043094	0.171046	0.145386
Cu8	Cu	0.927804	0.181635	0.150461
Cu9	Cu	0.935915	0.168679	-0.019576
O10	O	0.923161	0.363428	0.136963
C11	C	0.787831	0.183816	0.055328
C12	C	0.700334	0.181030	0.049183
C13	C	0.655494	0.185690	0.124673
C14	C	0.573283	0.183051	0.118902
C15	C	0.535913	0.175762	0.037640
C16	C	0.580759	0.171098	-0.037856
C17	C	0.662970	0.173727	-0.032084
C18	C	0.290442	0.167249	0.011972
C19	C	0.208225	0.164624	0.006205
C20	C	0.200755	0.176575	0.162964
C21	C	0.282966	0.179212	0.168729
C22	C	0.327806	0.174541	0.093233
N23	N	0.451880	0.173069	0.031738
N24	N	0.411839	0.177225	0.099135
C25	C	0.936353	-0.054426	0.065757
C26	C	0.934034	-0.193845	0.065588
C27	C	0.861240	-0.244632	0.060474
C28	C	0.859065	-0.375631	0.060328
C29	C	1.002485	-0.405046	0.070407
C30	C	1.004659	-0.274049	0.070560
C31	C	0.790615	-0.164428	0.055503
C32	C	0.717814	-0.215213	0.050387
C33	C	0.715639	-0.346213	0.050241
C34	C	0.786265	-0.426426	0.055210
C35	C	1.075888	0.166498	0.075556
C36	C	1.163385	0.169284	0.081695
C37	C	0.927366	0.404740	0.065127
C38	C	0.929685	0.544159	0.065290
N39	N	0.922105	0.190748	0.270057
N40	N	0.941620	0.159557	-0.139170
C41	C	0.973075	0.109047	0.319030
C42	C	0.968772	0.115950	0.409536
C43	C	0.913503	0.204560	0.451067
C44	C	0.862528	0.286264	0.402086
C45	C	0.866827	0.279355	0.311582
C46	C	0.894945	0.234351	0.721345
C47	C	0.890651	0.241257	0.811856
C48	C	0.996894	0.070940	0.819299
C49	C	1.001192	0.064044	0.728793
C50	C	0.950214	0.145743	0.679821
N51	N	0.909105	0.211621	0.543578
N52	N	0.954609	0.138676	0.587311
H53	H	0.685914	0.191635	0.190845
H54	H	0.699478	0.169935	-0.093556
N55	N	1.078655	-0.491554	0.075769
H56	H	1.066232	-0.582247	0.074895
H57	H	1.112895	-0.479143	0.024695
N58	N	0.152399	0.181594	0.244390
H59	H	0.159957	0.261624	0.279813
H60	H	0.094544	0.180501	0.228338
N61	N	0.811848	0.367473	0.258762
H62	H	0.820659	0.457851	0.275170
H63	H	0.822981	0.349542	0.195143
N64	N	0.792961	-0.023139	0.055653
H65	H	0.737177	0.019966	0.051727
H66	H	0.819127	0.006606	0.110971
N67	N	1.032683	0.013452	0.274254
H68	H	1.004045	-0.045152	0.234584
H69	H	1.069614	0.058803	0.239205
N70	N	0.783924	-0.567719	0.055054
H71	H	0.809012	-0.600979	0.110296
H72	H	0.727075	-0.587624	0.051029
H73	H	1.010275	0.049422	0.449410
H74	H	0.817523	0.358409	0.435905
H75	H	1.046196	-0.008110	0.694981
N76	N	0.641642	-0.128706	0.045050
H77	H	0.654064	-0.038013	0.045922
H78	H	0.612482	-0.149238	-0.010472
H79	H	0.853438	0.300877	0.681478
N80	N	0.167915	0.156772	-0.081445
H81	H	0.208795	0.154213	-0.128396
H82	H	0.139927	0.077647	-0.086833
H83	H	0.536779	0.186825	0.180374
H84	H	0.656362	-0.387558	0.046084
H85	H	0.313388	0.185141	0.234901
H86	H	1.063935	-0.232698	0.074725
H87	H	0.845642	0.313420	0.845665
N88	N	0.338799	0.162202	-0.069451
H89	H	0.302648	0.157187	-0.121804
H90	H	0.367112	0.240807	-0.070898
N91	N	0.540459	0.163221	-0.125504
H92	H	0.481574	0.162264	-0.117708
H93	H	0.550496	0.238849	-0.159144
H94	H	1.038397	0.004423	0.859181
