data_functionalizedCrystal
_audit_creation_method	'MofGen! by Chris Wilmer'
_symmetry_space_group_name_H-M	'P1'
_symmetry_Int_Tables_number	1
_symmetry_cell_setting	triclinic
loop_
_symmetry_equiv_pos_as_xyz
  x,y,z
_cell_length_a	18.215407
_cell_length_b	13.897447
_cell_length_c	18.215399
_cell_angle_alpha	89.972535
_cell_angle_beta	89.983176
_cell_angle_gamma	90.019978
loop_
_atom_site_label
_atom_site_type_symbol
_atom_site_fract_x
_atom_site_fract_y
_atom_site_fract_z
Zn1	Zn	1.125077	-0.383990	-0.416131
Zn2	Zn	1.125004	-0.545307	-0.293071
Zn3	Zn	1.002017	-0.384029	-0.293078
Zn4	Zn	1.001987	-0.545246	-0.416096
O5	O	1.063521	-0.464643	-0.354594
O6	O	1.228052	-0.405399	-0.399818
O7	O	1.108671	-0.523954	-0.190087
O8	O	1.018384	-0.249042	-0.309419
O9	O	1.227998	-0.523917	-0.309406
O10	O	1.108796	-0.249014	-0.399825
O11	O	1.018312	-0.405464	-0.190093
O12	O	0.899028	-0.405405	-0.309385
O13	O	1.018334	-0.523814	-0.519084
O14	O	0.899007	-0.523851	-0.399765
O15	O	1.108768	-0.405340	-0.519110
O16	O	1.108642	-0.680280	-0.309372
O17	O	1.018263	-0.680236	-0.399758
C18	C	0.872315	-0.464627	-0.354573
C19	C	0.790516	-0.464643	-0.354581
C20	C	1.063461	-0.715257	-0.354577
C21	C	1.063503	-0.822471	-0.354594
C22	C	0.602330	-0.526414	-0.401583
C23	C	0.525472	-0.526417	-0.401592
C24	C	0.525464	-0.402889	-0.307620
C25	C	0.602322	-0.402882	-0.307616
C26	C	0.640753	-0.464650	-0.354596
C27	C	0.487037	-0.464660	-0.354610
C28	C	0.403703	-0.464663	-0.354619
C29	C	0.724092	-0.464646	-0.354587
C30	C	1.063539	-0.909541	-0.354611
C31	C	1.063590	-1.018773	-0.354630
C32	C	1.255474	-0.464660	-0.354615
C33	C	1.337273	-0.464668	-0.354625
C34	C	1.063556	-0.464566	-0.546547
C35	C	1.063571	-0.464533	-0.628346
C36	C	1.063601	-0.213050	-0.354627
C37	C	1.063636	-0.105836	-0.354641
C38	C	1.016561	-0.402794	-0.816543
C39	C	1.016574	-0.402774	-0.893402
C40	C	1.110669	-0.526158	-0.893386
C41	C	1.110652	-0.526181	-0.816528
C42	C	1.063599	-0.464494	-0.778109
C43	C	1.063629	-0.464451	-0.931825
C44	C	1.063643	-0.464430	-1.015159
C45	C	1.063584	-0.464515	-0.694770
C46	C	1.063529	-0.464650	-0.163387
C47	C	1.063657	-0.464411	-0.081589
H48	H	0.633619	-0.576708	-0.439839
H49	H	1.148957	-0.576429	-0.785234
O50	O	1.161417	-0.592690	-0.934824
H51	H	1.219177	-0.576162	-0.920073
O52	O	0.484009	-0.336277	-0.256949
H53	H	0.523641	-0.293319	-0.224280
O54	O	0.965808	-0.336267	-0.775106
H55	H	0.998754	-0.287196	-0.740109
H56	H	0.494192	-0.576711	-0.439855
H57	H	0.633606	-0.352580	-0.269353
O58	O	0.965846	-0.336220	-0.934859
H59	H	0.933132	-0.293326	-0.895229
