data_functionalizedCrystal
_audit_creation_method	'MofGen! by Chris Wilmer'
_symmetry_space_group_name_H-M	'P1'
_symmetry_Int_Tables_number	1
_symmetry_cell_setting	triclinic
loop_
_symmetry_equiv_pos_as_xyz
  x,y,z
_cell_length_a	10.654550
_cell_length_b	27.732048
_cell_length_c	9.730223
_cell_angle_alpha	89.993758
_cell_angle_beta	89.996251
_cell_angle_gamma	83.563778
loop_
_atom_site_label
_atom_site_type_symbol
_atom_site_fract_x
_atom_site_fract_y
_atom_site_fract_z
O1	O	1.664980	0.067884	-0.114419
O2	O	1.299230	0.074351	-0.114399
O3	O	1.493465	0.000792	-0.114384
O4	O	1.470746	0.141444	-0.114435
O5	O	1.493462	0.000793	0.114196
O6	O	1.299228	0.074353	0.114181
O7	O	1.664978	0.067886	0.114161
Zn8	Zn	1.482102	0.071120	0.150463
Zn9	Zn	1.482105	0.071117	-0.150701
O10	O	1.470743	0.141445	0.114145
C11	C	1.252451	0.073878	-0.000106
C12	C	1.113067	0.072457	-0.000097
C13	C	1.031761	0.115768	-0.000133
C14	C	0.900796	0.114430	-0.000156
C15	C	0.932457	0.026466	-0.000114
C16	C	1.063419	0.027805	-0.000080
C17	C	1.081409	0.160420	-0.000149
C18	C	1.000101	0.203734	-0.000187
C19	C	0.869136	0.202396	-0.000210
C20	C	0.819479	0.157744	-0.000196
C21	C	1.492987	-0.017217	-0.000090
C22	C	1.491551	-0.070881	-0.000078
C23	C	1.597290	-0.409038	-0.000155
C24	C	1.591962	-0.610731	-0.000174
O25	O	1.688653	-0.641384	-0.000239
N26	N	1.476789	-0.630572	-0.000166
C27	C	1.362940	-0.599986	-0.000163
O28	O	1.264856	-0.621490	-0.000171
C29	C	1.368269	-0.398294	-0.000154
C30	C	1.483449	-0.378456	-0.000147
C31	C	1.712461	-0.389199	-0.000150
C32	C	1.713792	-0.338779	-0.000138
C33	C	1.599951	-0.308197	-0.000131
C34	C	1.484780	-0.328036	-0.000135
C35	C	1.254421	-0.367709	-0.000160
C36	C	1.255764	-0.317284	-0.000161
C37	C	1.370944	-0.297446	-0.000155
C38	C	1.372271	-0.247034	-0.000115
N39	N	1.487444	-0.227193	-0.000123
C40	C	1.601284	-0.257775	-0.000131
C41	C	1.360150	-0.705877	-0.000165
C42	C	1.358817	-0.756300	-0.000164
C43	C	1.587840	-0.767041	-0.000178
C44	C	1.589171	-0.716618	-0.000169
C45	C	1.475323	-0.686036	-0.000172
C46	C	1.604070	-0.151888	-0.000104
C47	C	1.605391	-0.101463	-0.000086
C48	C	1.376369	-0.090726	-0.000080
C49	C	1.375047	-0.141147	-0.000090
C50	C	1.488908	-0.171727	-0.000107
O51	O	1.275631	-0.216352	-0.000065
O52	O	1.699354	-0.236261	-0.000153
C53	C	1.595959	-0.459458	-0.000167
C54	C	1.480788	-0.479296	-0.000172
C55	C	1.366948	-0.448715	-0.000164
C56	C	1.479455	-0.529719	-0.000172
C57	C	1.593296	-0.560301	-0.000179
C58	C	1.708469	-0.540460	-0.000187
C59	C	1.709800	-0.490040	-0.000175
C60	C	1.251774	-0.468556	-0.000157
C61	C	1.250453	-0.518976	-0.000167
C62	C	1.364293	-0.549558	-0.000175
C63	C	1.711757	0.068360	-0.000135
C64	C	1.851141	0.069780	-0.000153
C65	C	1.471221	0.159454	-0.000152
C66	C	1.472657	0.213118	-0.000172
N67	N	1.482110	0.071121	0.355999
N68	N	1.482108	0.071112	-0.356238
C69	C	1.568138	0.038560	0.427932
C70	C	1.568135	0.038554	0.571815
C71	C	1.396071	0.103675	0.571820
C72	C	1.396069	0.103678	0.427939
C73	C	1.654179	0.006003	0.355992
C74	C	1.740215	-0.026560	0.427925
C75	C	1.740212	-0.026566	0.571808
C76	C	1.654173	0.005991	0.643758
H77	H	0.892016	-0.009888	-0.000125
C78	C	1.252682	-0.057574	-0.000296
C79	C	1.183272	-0.066599	-0.117885
C80	C	1.069318	-0.036071	-0.118135
H81	H	1.269804	-0.024688	-0.000366
H82	H	1.205329	-0.063636	0.079369
H83	H	1.230615	-0.060532	-0.197529
H84	H	1.166116	-0.099478	-0.117840
H85	H	1.021966	-0.042133	-0.038471
H86	H	1.086453	-0.003187	-0.118202
H87	H	1.022205	-0.042193	-0.197911
H88	H	1.040540	0.240088	-0.000186
H89	H	1.654192	0.006006	0.238835
H90	H	1.803591	-0.473893	-0.000170
H91	H	1.326015	0.130192	0.369371
C92	C	1.653925	0.006043	0.799975
C93	C	1.560150	0.041518	0.847584
C94	C	1.559878	0.041576	0.991479
H95	H	1.733971	0.012963	0.832694
H96	H	1.637279	-0.024903	0.832574
H97	H	1.576804	0.072456	0.814999
H98	H	1.480090	0.034606	0.814903
H99	H	1.543232	0.010630	1.024078
H100	H	1.639929	0.048495	1.024184
H101	H	1.496246	0.065642	1.023800
H102	H	1.807584	-0.322632	-0.000139
C103	C	0.781066	0.249474	-0.000314
C104	C	0.852582	0.288862	-0.000355
C105	C	0.771498	0.332238	-0.000477
H106	H	0.729270	0.250852	0.079363
H107	H	0.729357	0.250804	-0.080069
H108	H	0.904269	0.287532	0.079392
H109	H	0.904375	0.287499	-0.080026
H110	H	0.719789	0.333569	-0.080231
H111	H	0.719706	0.333612	0.079202
H112	H	0.820010	0.358968	-0.000517
C113	C	1.302611	0.138946	0.650111
C114	C	1.226275	0.112922	0.732752
C115	C	1.140179	0.145399	0.804906
H116	H	1.251249	0.158353	0.586823
H117	H	1.347358	0.159219	0.706310
H118	H	1.181531	0.092657	0.676558
H119	H	1.277602	0.093516	0.796066
H120	H	1.184926	0.165672	0.861106
H121	H	1.088826	0.164804	0.741608
H122	H	1.088383	0.127746	0.860996
H123	H	1.188045	0.161514	-0.000137
C124	C	1.129404	-0.389268	0.000099
C125	C	1.121898	-0.417899	0.117705
C126	C	1.006737	-0.437760	0.117993
H127	H	1.124007	-0.408742	-0.079526
H128	H	1.061767	-0.363841	0.000167
H129	H	1.189516	-0.443322	0.117624
H130	H	1.127272	-0.398435	0.197349
H131	H	0.939100	-0.412333	0.118062
H132	H	1.001350	-0.457232	0.038363
H133	H	1.001624	-0.457184	0.197793
H134	H	1.129622	-0.007463	-0.000055
C135	C	1.132057	-0.284139	-0.000377
C136	C	1.062645	-0.293167	-0.117962
C137	C	0.948675	-0.262649	-0.118195
H138	H	1.149158	-0.251251	-0.000442
H139	H	1.084716	-0.290208	0.079291
H140	H	1.109976	-0.287094	-0.197609
H141	H	1.045509	-0.326049	-0.117921
H142	H	0.901334	-0.268718	-0.038528
H143	H	0.965789	-0.229763	-0.118257
H144	H	0.901560	-0.268773	-0.197968
H145	H	1.699189	-0.085314	-0.000077
H146	H	0.712838	0.156658	-0.000193
C147	C	1.836035	-0.422420	-0.000438
C148	C	1.842004	-0.451671	-0.118052
C149	C	1.955837	-0.482271	-0.118362
H150	H	1.840404	-0.442361	0.079181
H151	H	1.904841	-0.403392	-0.000511
H152	H	1.773216	-0.470697	-0.117966
H153	H	1.837656	-0.431743	-0.197690
H154	H	2.024643	-0.463243	-0.118435
H155	H	1.960196	-0.502208	-0.038738
H156	H	1.959907	-0.502118	-0.198167
H157	H	1.696787	-0.176781	-0.000123
H158	H	1.265026	-0.772447	-0.000146
C159	C	1.236398	-0.672759	-0.000084
C160	C	1.135264	-0.700934	-0.000036
C161	C	1.021246	-0.670445	0.000065
H162	H	1.231962	-0.652851	-0.079770
H163	H	1.232086	-0.652877	0.079662
H164	H	1.139574	-0.720807	-0.079774
H165	H	1.139658	-0.720841	0.079645
H166	H	1.016933	-0.650563	0.079811
H167	H	1.016823	-0.650539	-0.079622
H168	H	0.952613	-0.689557	0.000111
C169	C	1.833514	-0.061874	0.349567
C170	C	1.815107	-0.054902	0.208165
C171	C	1.901019	-0.087430	0.135943
H172	H	1.820540	-0.094196	0.373012
H173	H	1.917262	-0.056341	0.373033
H174	H	1.731379	-0.060439	0.184708
H175	H	1.828091	-0.022587	0.184678
H176	H	1.984767	-0.081897	0.159409
H177	H	1.888038	-0.119749	0.159399
H178	H	1.888549	-0.082700	0.039995
H179	H	1.682961	-0.700469	-0.000165
H180	H	1.680533	-0.791950	-0.000184
H181	H	1.281258	-0.157300	-0.000057
H182	H	1.801162	-0.565369	-0.000187
C183	C	1.125480	-0.540577	-0.000391
C184	C	1.118044	-0.569209	-0.117986
C185	C	1.002950	-0.589118	-0.118244
H186	H	1.057771	-0.515188	-0.000460
H187	H	1.120171	-0.560057	0.079270
H188	H	1.123341	-0.549730	-0.197626
H189	H	1.185726	-0.594606	-0.117942
H190	H	0.997640	-0.608598	-0.038584
H191	H	0.935250	-0.563726	-0.118309
H192	H	0.997894	-0.608551	-0.198024
H193	H	1.159070	-0.443660	-0.000153
H194	H	1.810258	-0.053084	0.630374
