data_functionalizedCrystal
_audit_creation_method	'MofGen! by Chris Wilmer'
_symmetry_space_group_name_H-M	'P1'
_symmetry_Int_Tables_number	1
_symmetry_cell_setting	triclinic
loop_
_symmetry_equiv_pos_as_xyz
  x,y,z
_cell_length_a	10.654541
_cell_length_b	10.654550
_cell_length_c	9.130313
_cell_angle_alpha	89.999512
_cell_angle_beta	90.002770
_cell_angle_gamma	95.515570
loop_
_atom_site_label
_atom_site_type_symbol
_atom_site_fract_x
_atom_site_fract_y
_atom_site_fract_z
O1	O	0.176396	-1.667839	0.121689
O2	O	0.193202	-1.302360	0.121716
O3	O	0.002060	-1.493504	0.121693
O4	O	0.367539	-1.476695	0.121712
O5	O	0.002060	-1.493489	-0.121906
O6	O	0.193202	-1.302345	-0.121883
O7	O	0.176396	-1.667824	-0.121910
Cu8	Cu	0.184799	-1.485083	-0.144139
Cu9	Cu	0.184799	-1.485101	0.143945
O10	O	0.367539	-1.476680	-0.121887
C11	C	0.191968	-1.255555	-0.000080
C12	C	0.188276	-1.116112	-0.000070
C13	C	-0.044738	-1.492263	-0.000105
C14	C	-0.184182	-1.488572	-0.000103
C15	C	0.177630	-1.714629	-0.000110
C16	C	0.181322	-1.854072	-0.000111
C17	C	-0.212153	-1.717137	-0.000138
C18	C	-0.291647	-1.829680	-0.000158
C19	C	-0.422665	-1.826204	-0.000154
C20	C	-0.474190	-1.710173	-0.000124
C21	C	-0.394696	-1.597630	-0.000103
C22	C	-0.263676	-1.601118	-0.000113
C23	C	-0.366725	-1.369069	-0.000057
C24	C	-0.235707	-1.372541	-0.000073
C25	C	-0.418251	-1.253037	-0.000028
C26	C	-0.338756	-1.140492	-0.000018
C27	C	-0.207731	-1.143972	-0.000024
C28	C	-0.156213	-1.259998	-0.000052
C29	C	0.414337	-1.477921	-0.000085
C30	C	0.553780	-1.481612	-0.000078
N31	N	0.184799	-1.485080	-0.346761
C32	C	0.300818	-1.036625	-0.000068
C33	C	0.297342	-0.905604	-0.000094
C34	C	0.068772	-0.933569	-0.000117
C35	C	0.072250	-1.064588	-0.000102
C36	C	0.261681	-1.561911	-0.423409
C37	C	0.261674	-1.561931	-0.576746
C38	C	0.107899	-1.408280	-0.576773
C39	C	0.107901	-1.408267	-0.423439
N40	N	0.184790	-1.485113	0.346568
H41	H	-0.105472	-1.719978	-0.000162
H42	H	0.045287	-1.345701	-0.361030
H43	H	-0.049533	-1.262843	-0.000067
H44	H	-0.249680	-1.924150	-0.000195
H45	H	-0.025693	-0.891602	-0.000151
C46	C	0.345200	-1.645451	-0.340422
C47	C	0.412502	-1.712765	-0.440375
C48	C	0.489438	-1.789751	-0.363986
H49	H	0.402630	-1.594618	-0.280605
H50	H	0.294295	-1.702866	-0.280634
H51	H	0.463402	-1.655357	-0.500138
H52	H	0.355103	-1.763621	-0.500196
H53	H	0.438533	-1.847166	-0.304198
H54	H	0.546860	-1.738909	-0.304171
H55	H	0.535103	-1.835441	-0.431792
H56	H	-0.487390	-1.917847	-0.000159
H57	H	0.324277	-1.624496	-0.639147
H58	H	-0.580873	-1.707354	-0.000102
H59	H	0.395294	-1.078571	-0.000053
H60	H	-0.524933	-1.250216	-0.000015
H61	H	-0.380719	-1.046028	0.000016
H62	H	-0.143012	-1.052325	-0.000001
H63	H	0.388985	-0.840891	-0.000095
H64	H	-0.019401	-1.129309	-0.000107
H65	H	0.045293	-1.345740	-0.639223
