data_functionalizedCrystal
_audit_creation_method	'MofGen! by Chris Wilmer'
_symmetry_space_group_name_H-M	'P1'
_symmetry_Int_Tables_number	1
_symmetry_cell_setting	triclinic
loop_
_symmetry_equiv_pos_as_xyz
  x,y,z
_cell_length_a	6.817900
_cell_length_b	16.255699
_cell_length_c	16.255661
_cell_angle_alpha	95.343798
_cell_angle_beta	103.488922
_cell_angle_gamma	103.489404
loop_
_atom_site_label
_atom_site_type_symbol
_atom_site_fract_x
_atom_site_fract_y
_atom_site_fract_z
V1	V	-4.026708	-0.117774	-0.264153
O2	O	-4.014191	0.004956	-0.258836
O3	O	-3.978255	-0.232849	-0.262625
O4	O	-3.978270	-0.116271	-0.379233
O5	O	-4.014176	-0.112429	-0.141420
V6	V	-4.510347	-0.103057	-0.249440
O7	O	-4.287710	-0.150055	-0.296429
O8	O	-4.699542	-0.070776	-0.217164
O9	O	-4.335593	0.012018	-0.250969
O10	O	-4.640261	-0.225787	-0.254757
O11	O	-4.640276	-0.108402	-0.372173
O12	O	-4.335579	-0.104560	-0.134360
C13	C	-3.823245	-0.260892	-0.258529
C14	C	-3.864916	-0.354970	-0.258046
C15	C	-3.775496	-0.577782	-0.252513
C16	C	-3.859152	-0.625224	-0.184316
C17	C	-3.941316	-0.527222	-0.257203
C18	C	-3.931935	-0.647410	-0.324549
C19	C	-4.015103	-0.693609	-0.256392
C20	C	-4.024394	-0.573415	-0.188954
C21	C	-4.097180	-0.595606	-0.329250
C22	C	-4.180955	-0.643023	-0.261038
C23	C	-3.898803	-0.431370	-0.257670
C24	C	-4.057627	-0.789458	-0.255920
C25	C	-3.823262	-0.112184	-0.407274
C26	C	-3.864942	-0.111717	-0.501354
C27	C	-3.775498	-0.106134	-0.724159
C28	C	-3.931912	-0.178190	-0.793808
C29	C	-3.941326	-0.110841	-0.673600
C30	C	-3.859203	-0.037959	-0.771587
C31	C	-4.015094	-0.109990	-0.839982
C32	C	-4.097222	-0.182961	-0.742019
C33	C	-4.024451	-0.042667	-0.719783
C34	C	-4.181001	-0.114744	-0.789412
C35	C	-3.898825	-0.111331	-0.577752
C36	C	-4.057612	-0.109506	-0.935829
C37	C	-4.153946	0.040057	-0.255062
C38	C	-4.091513	0.134133	-0.255550
C39	C	-4.153929	-0.108650	-0.106315
C40	C	-4.091487	-0.109113	-0.012234
H41	H	-4.352788	-0.671366	-0.264621
O42	O	-4.216852	-0.579488	-0.402274
C43	C	-4.484169	-0.512239	-0.464104
C44	C	-4.348817	-0.530442	-0.381331
H45	H	-4.590865	-0.472568	-0.447200
H46	H	-4.583172	-0.575361	-0.505647
H47	H	-4.378547	-0.475258	-0.500749
H48	H	-4.454282	-0.567396	-0.344616
H49	H	-4.249796	-0.467291	-0.339851
H50	H	-3.893208	-0.679625	-0.381837
H51	H	-3.758971	0.023305	-0.785050
O52	O	-3.739756	-0.641185	-0.111131
C53	C	-3.651481	-0.620189	0.043117
C54	C	-3.786790	-0.602024	-0.039689
H55	H	-3.689491	-0.588552	0.100899
H56	H	-3.479064	-0.593240	0.046763
H57	H	-3.685821	-0.692285	0.042985
H58	H	-3.752632	-0.529941	-0.039613
H59	H	-3.959166	-0.629032	-0.043302
H60	H	-4.063048	0.014633	-0.687537
H61	H	-3.893237	-0.235487	-0.826031
H62	H	-3.603670	-0.549269	-0.248827
H63	H	-4.352873	-0.118403	-0.817768
H64	H	-4.197436	-0.244308	-0.728700
O65	O	-4.070294	-0.534968	-0.120539
C66	C	-4.082348	-0.402616	-0.044251
C67	C	-4.030251	-0.446047	-0.121754
H68	H	-4.050035	-0.330719	-0.045218
H69	H	-3.981317	-0.414895	0.017460
H70	H	-4.254422	-0.430100	-0.047650
H71	H	-3.858223	-0.418590	-0.118438
H72	H	-4.131421	-0.433773	-0.183432
H73	H	-3.603745	-0.102587	-0.695670
