data_functionalizedCrystal
_audit_creation_method	'MofGen! by Chris Wilmer'
_symmetry_space_group_name_H-M	'P1'
_symmetry_Int_Tables_number	1
_symmetry_cell_setting	triclinic
loop_
_symmetry_equiv_pos_as_xyz
  x,y,z
_cell_length_a	17.699077
_cell_length_b	17.699083
_cell_length_c	15.186229
_cell_angle_alpha	89.995368
_cell_angle_beta	89.997203
_cell_angle_gamma	83.281795
loop_
_atom_site_label
_atom_site_type_symbol
_atom_site_fract_x
_atom_site_fract_y
_atom_site_fract_z
O1	O	1.004078	0.095689	-0.073219
O2	O	1.337411	0.429022	0.260115
O3	O	1.670744	0.762355	0.593448
O4	O	0.783698	0.108146	-0.073223
O5	O	1.117032	0.441479	0.260110
O6	O	1.450365	0.774813	0.593443
O7	O	0.900114	-0.008272	-0.073213
O8	O	1.233448	0.325061	0.260120
O9	O	1.566781	0.658395	0.593454
O10	O	0.887662	0.212107	-0.073229
O11	O	1.220995	0.545440	0.260105
O12	O	1.554328	0.878773	0.593438
O13	O	0.900107	-0.008274	0.073244
O14	O	1.233440	0.325060	0.406578
O15	O	1.566773	0.658393	0.739911
O16	O	0.783691	0.108144	0.073234
O17	O	1.117024	0.441478	0.406567
O18	O	1.450357	0.774811	0.739901
O19	O	1.004070	0.095687	0.073239
O20	O	1.337403	0.429020	0.406572
O21	O	1.670736	0.762354	0.739905
Zn22	Zn	0.893879	0.101915	0.096490
Zn23	Zn	1.227212	0.435249	0.429823
Zn24	Zn	1.560546	0.768582	0.763156
Zn25	Zn	0.893889	0.101918	-0.096474
Zn26	Zn	1.227223	0.435251	0.236859
Zn27	Zn	1.560556	0.768584	0.570193
O28	O	0.887654	0.212105	0.073228
O29	O	1.220987	0.545438	0.406562
O30	O	1.554321	0.878772	0.739895
C31	C	0.755498	0.107700	0.000005
C32	C	1.088831	0.441033	0.333338
C33	C	1.422164	0.774366	0.666672
C34	C	0.671479	0.106363	0.000003
C35	C	1.004813	0.439696	0.333337
C36	C	1.338146	0.773029	0.666670
C37	C	0.632008	0.105732	0.079838
C38	C	0.965341	0.439065	0.413172
C39	C	1.298674	0.772399	0.746505
C40	C	0.553065	0.104464	0.079839
C41	C	0.886398	0.437797	0.413173
C42	C	1.219732	0.771130	0.746506
C43	C	0.513595	0.103832	0.000005
C44	C	0.846928	0.437165	0.333338
C45	C	1.180262	0.770498	0.666671
C46	C	0.553072	0.104460	-0.079836
C47	C	0.886406	0.437794	0.253497
C48	C	1.219739	0.771127	0.586830
C49	C	0.632014	0.105723	-0.079837
C50	C	0.965347	0.439056	0.253497
C51	C	1.298681	0.772390	0.586830
C52	C	0.234709	0.099367	-0.079838
C53	C	0.568042	0.432700	0.253496
C54	C	0.901376	0.766034	0.586829
C55	C	0.155761	0.098107	-0.079831
C56	C	0.489095	0.431440	0.253502
C57	C	0.822428	0.764773	0.586835
C58	C	0.155760	0.098108	0.079838
C59	C	0.489093	0.431441	0.413171
C60	C	0.822427	0.764774	0.746505
C61	C	0.234702	0.099370	0.079838
C62	C	0.568035	0.432704	0.413171
C63	C	0.901368	0.766037	0.746505
C64	C	0.274173	0.099995	-0.000002
C65	C	0.607506	0.433328	0.333331
C66	C	0.940840	0.766662	0.666664
C67	C	0.359772	0.101369	-0.000003
C68	C	0.693105	0.434702	0.333331
C69	C	1.026438	0.768035	0.666664
C70	C	0.427997	0.102464	0.000004
C71	C	0.761330	0.435797	0.333337
C72	C	1.094664	0.769130	0.666670
C73	C	0.899664	-0.036470	0.000016
C74	C	1.232998	0.296864	0.333349
C75	C	1.566331	0.630197	0.666682
C76	C	0.898326	-0.120488	0.000016
C77	C	1.231659	0.212845	0.333349
C78	C	1.564992	0.546179	0.666683
C79	C	0.966659	-0.169110	0.000019
C80	C	1.299993	0.164223	0.333352
C81	C	1.633326	0.497556	0.666685
C82	C	0.965397	-0.248054	0.000011
C83	C	1.298730	0.085280	0.333344
C84	C	1.632064	0.418613	0.666678
C85	C	0.895800	-0.278373	0.000007
C86	C	1.229134	0.054960	0.333340
C87	C	1.562467	0.388294	0.666673
C88	C	0.827461	-0.229744	0.000001
C89	C	1.160795	0.103589	0.333335
C90	C	1.494128	0.436922	0.666668
C91	C	0.828724	-0.150803	0.000003
C92	C	1.162058	0.182531	0.333336
C93	C	1.495391	0.515864	0.666670
C94	C	0.822366	-0.548107	-0.000006
C95	C	1.155699	-0.214774	0.333328
C96	C	1.489033	0.118559	0.666661
C97	C	0.821108	-0.627055	-0.000005
C98	C	1.154442	-0.293722	0.333329
C99	C	1.487775	0.039612	0.666662
C100	C	0.959039	-0.645358	0.000002
C101	C	1.292372	-0.312025	0.333335
C102	C	1.625705	0.021308	0.666669
C103	C	0.960302	-0.566417	0.000004
C104	C	1.293635	-0.233083	0.333337
C105	C	1.626968	0.100250	0.666670
C106	C	0.891963	-0.517795	-0.000006
C107	C	1.225297	-0.184461	0.333327
C108	C	1.558630	0.148872	0.666660
C109	C	0.893333	-0.432196	0.000001
C110	C	1.226666	-0.098862	0.333334
C111	C	1.559999	0.234471	0.666667
C112	C	0.894430	-0.363971	0.000006
C113	C	1.227763	-0.030637	0.333340
C114	C	1.561097	0.302696	0.666673
C115	C	1.032271	0.096133	0.000009
C116	C	1.365604	0.429467	0.333342
C117	C	1.698937	0.762800	0.666675
C118	C	1.116289	0.097470	0.000004
C119	C	1.449622	0.430804	0.333338
C120	C	1.782956	0.764137	0.666671
C121	C	0.888104	0.240303	-0.000002
C122	C	1.221437	0.573636	0.333331
C123	C	1.554771	0.906969	0.666664
C124	C	0.889443	0.324321	-0.000008
C125	C	1.222776	0.657654	0.333325
C126	C	1.556109	0.990988	0.666658
N127	N	0.893878	0.101913	0.228182
N128	N	1.227211	0.435247	0.561516
N129	N	1.560544	0.768580	0.894849
N130	N	0.893897	0.101914	-0.228167
N131	N	1.227230	0.435247	0.105167
N132	N	1.560563	0.768580	0.438500
C133	C	0.945444	0.050381	0.453910
C134	C	1.278777	0.383714	0.787243
C135	C	1.612111	0.717048	1.120576
C136	C	0.945446	0.050379	0.546099
C137	C	1.278780	0.383712	0.879433
C138	C	1.612113	0.717046	1.212766
C139	C	0.842325	0.153449	0.546099
C140	C	1.175658	0.486782	0.879433
C141	C	1.508991	0.820115	1.212766
C142	C	0.842319	0.153446	0.453911
C143	C	1.175653	0.486779	0.787245
C144	C	1.508986	0.820113	1.120578
C145	C	0.893883	0.101913	0.407819
C146	C	1.227217	0.435247	0.741152
C147	C	1.560550	0.768580	1.074486
C148	C	0.893891	0.101914	0.592197
C149	C	1.227224	0.435247	0.925530
C150	C	1.560558	0.768580	1.258863
C151	C	0.893893	0.101912	0.692153
C152	C	1.227227	0.435246	1.025486
C153	C	1.560560	0.768579	1.358819
C154	C	0.893880	0.101914	0.307856
C155	C	1.227214	0.435247	0.641190
C156	C	1.560547	0.768580	0.974523
H157	H	0.664151	0.106238	-0.144846
H158	H	0.997484	0.439572	0.188487
H159	H	1.330817	0.772905	0.521820
O160	O	0.792336	0.203542	0.409037
O161	O	1.125669	0.536875	0.742371
O162	O	1.459002	0.870209	1.075704
C163	C	0.832780	0.250192	0.355717
C164	C	1.166113	0.583525	0.689050
C165	C	1.499447	0.916859	1.022383
H166	H	0.892057	0.219968	0.341904
H167	H	1.225390	0.553301	0.675238
H168	H	1.558724	0.886634	1.008571
H169	H	0.801166	0.262205	0.290892
H170	H	1.134499	0.595538	0.624225
H171	H	1.467833	0.928871	0.957558
H172	H	0.837820	0.306125	0.391236
H173	H	1.171154	0.639458	0.724569
H174	H	1.504487	0.972792	1.057903
H175	H	0.764431	-0.651737	-0.000006
H176	H	1.097764	-0.318404	0.333327
H177	H	1.431098	0.014929	0.666660
H178	H	1.016974	-0.541735	0.000011
H179	H	1.350308	-0.208402	0.333345
H180	H	1.683641	0.124931	0.666678
H181	H	0.123614	0.097596	0.144848
H182	H	0.456947	0.430929	0.478181
H183	H	0.790280	0.764262	0.811515
H184	H	0.123627	0.097591	-0.144846
H185	H	0.456960	0.430925	0.188487
H186	H	0.790294	0.764258	0.521820
O187	O	0.792271	0.203612	0.590776
O188	O	1.125604	0.536945	0.924109
O189	O	1.458938	0.870278	1.257443
C190	C	0.804444	0.278520	0.568252
C191	C	1.137777	0.611853	0.901585
C192	C	1.471110	0.945186	1.234918
H193	H	0.833615	0.278386	0.501314
H194	H	1.166948	0.611719	0.834648
H195	H	1.500282	0.945052	1.167981
H196	H	0.747484	0.315866	0.565097
H197	H	1.080818	0.649199	0.898430
H198	H	1.414151	0.982532	1.231763
H199	H	0.842073	0.301881	0.620129
H200	H	1.175406	0.635214	0.953462
H201	H	1.508739	0.968547	1.286795
H202	H	0.520932	0.103937	0.144849
H203	H	0.854266	0.437271	0.478182
H204	H	1.187599	0.770604	0.811516
O205	O	0.670233	0.106309	0.157470
O206	O	1.003567	0.439643	0.490803
O207	O	1.336900	0.772976	0.824137
C208	C	0.618460	0.105498	0.227934
C209	C	0.951794	0.438831	0.561267
C210	C	1.285127	0.772164	0.894600
H211	H	0.565368	0.080647	0.204528
H212	H	0.898701	0.413980	0.537861
H213	H	1.232035	0.747313	0.871194
H214	H	0.646141	0.069129	0.283772
H215	H	0.979474	0.402462	0.617106
H216	H	1.312808	0.735795	0.950439
H217	H	0.602007	0.166059	0.252480
H218	H	0.935341	0.499392	0.585813
H219	H	1.268674	0.832725	0.919146
H220	H	0.773080	-0.111214	0.000001
H221	H	1.106413	0.222119	0.333334
H222	H	1.439747	0.555452	0.666667
O223	O	1.025355	-0.692699	-0.000037
O224	O	1.358689	-0.359365	0.333296
O225	O	1.692022	-0.026032	0.666629
C226	C	1.009323	-0.768877	-0.000022
C227	C	1.342656	-0.435544	0.333312
C228	C	1.675989	-0.102211	0.666645
H229	H	0.949882	-0.771792	-0.027754
H230	H	1.283216	-0.438459	0.305579
H231	H	1.616549	-0.105126	0.638912
H232	H	1.052894	-0.804719	-0.042541
H233	H	1.386227	-0.471386	0.290793
H234	H	1.719560	-0.138052	0.624126
H235	H	1.012228	-0.791721	0.070240
H236	H	1.345562	-0.458387	0.403574
H237	H	1.678895	-0.125054	0.736907
H238	H	0.266834	0.099889	0.144848
H239	H	0.600167	0.433222	0.478181
H240	H	0.933501	0.766555	0.811514
H241	H	0.266837	0.099873	-0.144849
H242	H	0.600171	0.433206	0.188485
H243	H	0.933504	0.766540	0.521818
H244	H	0.520930	0.103941	-0.144839
H245	H	0.854263	0.437274	0.188494
H246	H	1.187597	0.770607	0.521827
H247	H	0.987429	0.008419	0.416383
H248	H	1.320763	0.341752	0.749717
H249	H	1.654096	0.675085	1.083050
H250	H	0.766721	-0.508528	-0.000014
H251	H	1.100054	-0.175195	0.333320
H252	H	1.433387	0.158138	0.666653
H253	H	1.023333	-0.144431	0.000028
H254	H	1.356666	0.188902	0.333361
H255	H	1.690000	0.522236	0.666694
O256	O	0.759921	-0.259320	0.000036
O257	O	1.093254	0.074014	0.333369
O258	O	1.426587	0.407347	0.666703
C259	C	0.773457	-0.339422	0.000016
C260	C	1.106790	-0.006089	0.333350
C261	C	1.440123	0.327244	0.666683
H262	H	0.832554	-0.358073	0.027746
H263	H	1.165887	-0.024740	0.361079
H264	H	1.499220	0.308593	0.694412
H265	H	0.728929	-0.363580	0.042536
H266	H	1.062262	-0.030246	0.375870
H267	H	1.395596	0.303087	0.709203
H268	H	0.769833	-0.361387	-0.070246
H269	H	1.103166	-0.028054	0.263087
H270	H	1.436500	0.305279	0.596420
O271	O	0.995461	0.000351	0.591008
O272	O	1.328795	0.333684	0.924341
O273	O	1.662128	0.667018	1.257675
C274	C	0.984424	0.011411	0.682260
C275	C	1.317757	0.344744	1.015593
C276	C	1.651090	0.678078	1.348927
H277	H	0.924200	0.039775	0.694856
H278	H	1.257533	0.373109	1.028190
H279	H	1.590867	0.706442	1.361523
H280	H	0.992954	-0.045919	0.717300
H281	H	1.326288	0.287414	1.050633
H282	H	1.659621	0.620748	1.383966
H283	H	1.027190	0.049318	0.708413
H284	H	1.360523	0.382651	1.041746
H285	H	1.693857	0.715984	1.375079
H286	H	1.021041	-0.287639	0.000015
H287	H	1.354374	0.045694	0.333348
H288	H	1.687708	0.379027	0.666682
