data_functionalizedCrystal
_audit_creation_method	'MofGen! by Chris Wilmer'
_symmetry_space_group_name_H-M	'P1'
_symmetry_Int_Tables_number	1
_symmetry_cell_setting	triclinic
loop_
_symmetry_equiv_pos_as_xyz
  x,y,z
_cell_length_a	14.908795
_cell_length_b	14.908520
_cell_length_c	14.908308
_cell_angle_alpha	83.639235
_cell_angle_beta	90.211334
_cell_angle_gamma	96.791092
loop_
_atom_site_label
_atom_site_type_symbol
_atom_site_fract_x
_atom_site_fract_y
_atom_site_fract_z
Zn1	Zn	1.325977	-0.317657	0.605033
Zn2	Zn	1.325875	-0.460307	0.462398
Zn3	Zn	1.184351	-0.316672	0.445951
Zn4	Zn	1.165842	-0.477696	0.604961
O5	O	1.250511	-0.393083	0.529586
O6	O	1.452209	-0.329714	0.593026
O7	O	1.314804	-0.433565	0.333977
O8	O	1.210927	-0.189714	0.460201
O9	O	1.452134	-0.434519	0.488232
O10	O	1.314979	-0.190437	0.577078
O11	O	1.210827	-0.328037	0.321893
O12	O	1.055650	-0.344898	0.460131
O13	O	1.179382	-0.464156	0.731210
O14	O	1.042052	-0.463202	0.576955
O15	O	1.297032	-0.346575	0.731263
O16	O	1.296858	-0.589703	0.488162
O17	O	1.179282	-0.602479	0.592903
C18	C	1.016117	-0.405831	0.516751
C19	C	0.915839	-0.411307	0.511282
C20	C	1.236074	-0.629043	0.542330
C21	C	1.229978	-0.729985	0.547817
C22	C	0.774476	-0.473490	0.448920
C23	C	0.868696	-0.468348	0.454058
C24	C	0.868757	-0.359403	0.563370
C25	C	0.774537	-0.364545	0.558233
C26	C	0.727400	-0.421592	0.501007
C27	C	0.633178	-0.426738	0.495874
C28	C	0.633242	-0.317788	0.605181
C29	C	0.727461	-0.312646	0.610319
C30	C	1.341067	-0.906301	0.449161
C31	C	1.335343	-1.001145	0.454313
C32	C	1.212810	-1.014518	0.563279
C33	C	1.218534	-0.919675	0.558126
C34	C	1.282664	-0.865569	0.501064
C35	C	1.288383	-0.770724	0.495907
C36	C	1.165855	-0.784099	0.604878
C37	C	1.160131	-0.878942	0.610030
C38	C	1.485821	-0.380287	0.542471
C39	C	1.586096	-0.374833	0.547963
C40	C	1.236154	-0.407415	0.764884
C41	C	1.230035	-0.413522	0.865155
C42	C	1.265029	-0.156201	0.516813
C43	C	1.271215	-0.055257	0.511369
C44	C	1.264869	-0.378739	0.295202
C45	C	1.271178	-0.372366	0.194928
C46	C	1.341046	-0.302541	1.053629
C47	C	1.335301	-0.308276	1.147842
C48	C	1.212794	-0.430723	1.147794
C49	C	1.218540	-0.424988	1.053581
C50	C	1.282669	-0.360896	1.006502
C51	C	1.288419	-0.355165	0.912288
C52	C	1.165909	-0.477607	0.912242
C53	C	1.160163	-0.483342	1.006455
H54	H	0.594800	-0.473191	0.449281
C55	C	0.859364	-0.252235	0.670912
C56	C	0.920579	-0.296704	0.626272
H57	H	0.891360	-0.213525	0.709742
H58	H	0.818103	-0.295961	0.705489
H59	H	0.827126	-0.217046	0.627775
H60	H	0.952813	-0.331898	0.669409
H61	H	0.961857	-0.252971	0.591693
H62	H	1.160604	-1.058587	0.609742
H63	H	1.107920	-0.923008	0.656491
C64	C	1.461566	-0.182088	1.063135
C65	C	1.411536	-0.232096	1.001873
H66	H	1.505080	-0.138595	1.031182
H67	H	1.491408	-0.222017	1.103902
H68	H	1.422139	-0.151725	1.095858
H69	H	1.450963	-0.262465	0.969155
H70	H	1.381693	-0.192162	0.961090
H71	H	1.382902	-1.034305	0.412050
C72	C	0.488838	-0.277297	0.645853
C73	C	0.581493	-0.260737	0.662442
H74	H	0.456893	-0.242076	0.681201
H75	H	0.468880	-0.339972	0.661411
H76	H	0.477904	-0.261059	0.583695
H77	H	0.592428	-0.276982	0.724598
H78	H	0.601458	-0.198048	0.646890
C79	C	1.120219	-0.644650	0.645368
C80	C	1.101655	-0.739324	0.661938
H81	H	1.080586	-0.617011	0.680597
H82	H	1.111700	-0.626172	0.583188
H83	H	1.180957	-0.626562	0.661096
H84	H	1.040918	-0.757413	0.646203
H85	H	1.110166	-0.757810	0.724132
C86	C	1.351623	-0.292001	0.767887
C87	C	1.358903	-0.284713	0.860534
H88	H	1.395140	-0.248506	0.735940
H89	H	1.292768	-0.281074	0.748419
H90	H	1.362039	-0.351363	0.756470
H91	H	1.348479	-0.225353	0.871952
H92	H	1.417772	-0.295634	0.880008
H93	H	0.736096	-0.519947	0.402332
C94	C	0.859166	-0.576559	0.345501
C95	C	0.920442	-0.525403	0.396810
H96	H	0.891114	-0.611787	0.310162
H97	H	0.826937	-0.536845	0.306913
H98	H	0.817900	-0.615751	0.384636
H99	H	0.961704	-0.486206	0.357674
H100	H	0.952686	-0.565122	0.435401
H101	H	1.160584	-0.482903	1.186143
H102	H	1.382835	-0.260756	1.186208
H103	H	1.107949	-0.535522	1.044800
C104	C	1.152349	-0.594009	0.812203
C105	C	1.101731	-0.541756	0.860441
H106	H	1.112729	-0.633608	0.780221
H107	H	1.187278	-0.628841	0.852985
H108	H	1.191356	-0.555012	0.770679
H109	H	1.062728	-0.580752	0.901970
H110	H	1.066786	-0.506921	0.819655
C111	C	1.408931	-0.767035	0.388723
C112	C	1.358875	-0.711248	0.433188
H113	H	1.452454	-0.730317	0.350008
H114	H	1.369528	-0.804108	0.354045
H115	H	1.438771	-0.804503	0.431965
H116	H	1.329030	-0.673785	0.389946
H117	H	1.398284	-0.674160	0.467869
H118	H	0.765853	-0.266198	0.656908
H119	H	1.393279	-0.862248	0.402692
