data_functionalizedCrystal
_audit_creation_method	'MofGen! by Chris Wilmer'
_symmetry_space_group_name_H-M	'P1'
_symmetry_Int_Tables_number	1
_symmetry_cell_setting	triclinic
loop_
_symmetry_equiv_pos_as_xyz
  x,y,z
_cell_length_a	17.638336
_cell_length_b	12.645330
_cell_length_c	17.640968
_cell_angle_alpha	78.768500
_cell_angle_beta	65.689241
_cell_angle_gamma	78.778365
loop_
_atom_site_label
_atom_site_type_symbol
_atom_site_fract_x
_atom_site_fract_y
_atom_site_fract_z
Zn1	Zn	1.354220	-0.594539	-0.720326
Zn2	Zn	1.326283	-0.801608	-0.582508
Zn3	Zn	1.188539	-0.594483	-0.554711
Zn4	Zn	1.216384	-0.741878	-0.692464
O5	O	1.271356	-0.683127	-0.637502
O6	O	1.465845	-0.647028	-0.725337
O7	O	1.284666	-0.799107	-0.463493
O8	O	1.210555	-0.446147	-0.576707
O9	O	1.445320	-0.799161	-0.624082
O10	O	1.332280	-0.446188	-0.698384
O11	O	1.183466	-0.646933	-0.443071
O12	O	1.076902	-0.589015	-0.549691
O13	O	1.258013	-0.697359	-0.811488
O14	O	1.097359	-0.697305	-0.650898
O15	O	1.359281	-0.589110	-0.831958
O16	O	1.311666	-0.942029	-0.597066
O17	O	1.230924	-0.898145	-0.677851
C18	C	1.057227	-0.636673	-0.594256
C19	C	0.965625	-0.616821	-0.575774
C20	C	0.825858	-0.532338	-0.497113
C21	C	0.911933	-0.550998	-0.514486
C22	C	0.933255	-0.664014	-0.619711
C23	C	0.847180	-0.645368	-0.602344
C24	C	0.793488	-0.579527	-0.541045
C25	C	0.814809	-0.692557	-0.646276
C26	C	0.728742	-0.673907	-0.628914
C27	C	0.675045	-0.608068	-0.567619
C28	C	0.707420	-0.560878	-0.523683
C29	C	0.868503	-0.758391	-0.707579
C30	C	0.836133	-0.805580	-0.751511
C31	C	0.750063	-0.786937	-0.734144
C32	C	0.696366	-0.721098	-0.672850
C33	C	0.717687	-0.834127	-0.778081
C34	C	0.631620	-0.815477	-0.760718
C35	C	0.610299	-0.702448	-0.655488
C36	C	1.271311	-0.958552	-0.637474
C37	C	1.271373	-1.076391	-0.637505
C38	C	1.322039	-1.271523	-0.586534
C39	C	1.322278	-1.148974	-0.586732
C40	C	1.312489	-1.107097	-0.729128
C41	C	1.312925	-1.229878	-0.728891
C42	C	1.179738	-1.229620	-0.597706
C43	C	1.179762	-1.107528	-0.595842
C44	C	1.486322	-0.729764	-0.680918
C45	C	1.577928	-0.749637	-0.699419
C46	C	1.314869	-0.636578	-0.852462
C47	C	1.333412	-0.616741	-0.944065
C48	C	1.271428	-0.406628	-0.637553
C49	C	1.271458	-0.288800	-0.637574
C50	C	1.130806	-0.833315	-1.192055
C51	C	1.148247	-0.814666	-1.278134
C52	C	1.253687	-0.701956	-1.299437
C53	C	1.236252	-0.720591	-1.213358
C54	C	1.174811	-0.786273	-1.159673
C55	C	1.280258	-0.673549	-1.180976
C56	C	1.262827	-0.692188	-1.094905
C57	C	1.201391	-0.757869	-1.041216
C58	C	1.157381	-0.804911	-1.073603
C59	C	1.341703	-0.607874	-1.234662
C60	C	1.385708	-0.560832	-1.202280
C61	C	1.368274	-0.579464	-1.116207
C62	C	1.306837	-0.645145	-1.062518
C63	C	1.412284	-0.532421	-1.083820
C64	C	1.394853	-0.551060	-0.997749
C65	C	1.289406	-0.663784	-0.976447
C66	C	1.228060	-0.729429	-0.423388
C67	C	1.209677	-0.749002	-0.331818
H68	H	0.663701	-0.507264	-0.473767
H69	H	1.080755	-0.886770	-1.148338
H70	H	0.604964	-0.592879	-0.553488
H71	H	0.782139	-0.478724	-0.447198
C72	C	1.266572	-1.353250	-0.783581
C73	C	1.266640	-1.242626	-0.783255
H74	H	1.237997	-1.361114	-0.817141
H75	H	1.322729	-1.387492	-0.805970
H76	H	1.238932	-1.386163	-0.727850
H77	H	1.294286	-1.209715	-0.838986
H78	H	1.210473	-1.208370	-0.760870
H79	H	1.294519	-1.129703	-0.519346
H80	H	1.187203	-0.773048	-0.971132
H81	H	0.938286	-0.512554	-0.478714
H82	H	1.389237	-1.313041	-0.614064
C83	C	1.074658	-0.742797	-0.693048
C84	C	0.992277	-0.736390	-0.687085
H85	H	1.111091	-0.787488	-0.734637
H86	H	1.091226	-0.672027	-0.708060
H87	H	1.077526	-0.773241	-0.640490
H88	H	0.989407	-0.705939	-0.739641
H89	H	0.975704	-0.807174	-0.672077
H90	H	1.112408	-0.852978	-1.304494
H91	H	0.879860	-0.859184	-0.801422
H92	H	1.145735	-1.269443	-0.531141
C93	C	0.752275	-1.010815	-0.823339
C94	C	0.776709	-0.906489	-0.845465
H95	H	0.788709	-1.055483	-0.864944
H96	H	0.755164	-1.041260	-0.770798
H97	H	0.696381	-1.006452	-0.819283
H98	H	0.832601	-0.910851	-0.849514
H99	H	0.773828	-0.876037	-0.898020
H100	H	0.938585	-0.773565	-0.721719
C101	C	1.320219	-0.979014	-0.851207
C102	C	1.265300	-1.040397	-0.782874
H103	H	1.291083	-0.937850	-0.884389
H104	H	1.341273	-0.931231	-0.831370
H105	H	1.365539	-1.026335	-0.884210
H106	H	1.219982	-0.993074	-0.749867
H107	H	1.244233	-1.088184	-0.802711
C108	C	1.327228	-0.623329	-1.440837
C109	C	1.321219	-0.629757	-1.358450
H110	H	1.368915	-0.578748	-1.477265
H111	H	1.342133	-0.694110	-1.457361
H112	H	1.274709	-0.592751	-1.443758
H113	H	1.373736	-0.660342	-1.355527
H114	H	1.306318	-0.558962	-1.341921
H115	H	1.389855	-1.130393	-0.614497
H116	H	0.605264	-0.853900	-0.796495
C117	C	1.215864	-1.375826	-0.483891
C118	C	1.284769	-1.326016	-0.495358
H119	H	1.192855	-1.409472	-0.427601
H120	H	1.174530	-1.322621	-0.495324
H121	H	1.233480	-1.429179	-0.520963
H122	H	1.267151	-1.272657	-0.458291
H123	H	1.326111	-1.379227	-0.483916
H124	H	1.380491	-1.268140	-0.760618
C125	C	1.116133	-1.177570	-0.450303
C126	C	1.138386	-1.081901	-0.504687
H127	H	1.090611	-1.161761	-0.394024
H128	H	1.077758	-1.207113	-0.462923
H129	H	1.164942	-1.228711	-0.457071
H130	H	1.089575	-1.030762	-0.497924
H131	H	1.176763	-1.052342	-0.492063
C132	C	1.458650	-1.172739	-0.795324
C133	C	1.402819	-1.078410	-0.772191
H134	H	1.514415	-1.155027	-0.821911
H135	H	1.453588	-1.223727	-0.746749
H136	H	1.445817	-1.203423	-0.833012
H137	H	1.415647	-1.047729	-0.734498
H138	H	1.407884	-1.027403	-0.820773
C139	C	1.459249	-0.482205	-1.343680
C140	C	1.453240	-0.488633	-1.261294
H141	H	1.500936	-0.437624	-1.380109
H142	H	1.474154	-0.552986	-1.360205
H143	H	1.406730	-0.451627	-1.346602
H144	H	1.505757	-0.519218	-1.258371
H145	H	1.438339	-0.417838	-1.244765
C146	C	1.094185	-1.107772	-0.672116
C147	C	1.124215	-1.039028	-0.640438
H148	H	1.059893	-1.065482	-0.699650
H149	H	1.140171	-1.147957	-0.710891
H150	H	1.062114	-1.156487	-0.627287
H151	H	1.156291	-0.990318	-0.685268
H152	H	1.078222	-0.998824	-0.601661
H153	H	1.141835	-1.238311	-0.634666
C154	C	1.243876	-0.840337	-0.941798
C155	C	1.221885	-0.736000	-0.917419
H156	H	1.202201	-0.884925	-0.905350
H157	H	1.247935	-0.835967	-0.997678
H158	H	1.296402	-0.870886	-0.938884
H159	H	1.169362	-0.705448	-0.920339
H160	H	1.217816	-0.740367	-0.861524
H161	H	1.107329	-0.858366	-1.029885
C162	C	1.457849	-0.355891	-1.118464
C163	C	1.479822	-0.460231	-1.142835
H164	H	1.499548	-0.311328	-1.154894
H165	H	1.405345	-0.325317	-1.121403
H166	H	1.453765	-0.360268	-1.062567
H167	H	1.483900	-0.455856	-1.198730
H168	H	1.532340	-0.490813	-1.139904
H169	H	1.430686	-0.512751	-0.971384
C170	C	0.555509	-0.674969	-0.510645
C171	C	0.551266	-0.630076	-0.588107
H172	H	0.519066	-0.630286	-0.469054
H173	H	0.538938	-0.745738	-0.495649
H174	H	0.611400	-0.679312	-0.514698
H175	H	0.495376	-0.625741	-0.584056
H176	H	0.567832	-0.559288	-0.603107
H177	H	1.355895	-0.592703	-1.304747
