data_functionalizedCrystal
_audit_creation_method	'MofGen! by Chris Wilmer'
_symmetry_space_group_name_H-M	'P1'
_symmetry_Int_Tables_number	1
_symmetry_cell_setting	triclinic
loop_
_symmetry_equiv_pos_as_xyz
  x,y,z
_cell_length_a	21.395364
_cell_length_b	19.120786
_cell_length_c	21.395355
_cell_angle_alpha	92.459295
_cell_angle_beta	90.024552
_cell_angle_gamma	92.480057
loop_
_atom_site_label
_atom_site_type_symbol
_atom_site_fract_x
_atom_site_fract_y
_atom_site_fract_z
Zn1	Zn	0.947247	-0.279432	0.343622
Zn2	Zn	1.447247	0.220568	0.843622
Zn3	Zn	0.942690	-0.396873	0.234373
Zn4	Zn	1.442690	0.103127	0.734373
Zn5	Zn	0.842461	-0.279463	0.238857
Zn6	Zn	1.342461	0.220537	0.738857
Zn7	Zn	0.837971	-0.396885	0.339112
Zn8	Zn	1.337971	0.103115	0.839112
O9	O	0.892592	-0.338163	0.288991
O10	O	1.392592	0.161837	0.788991
O11	O	1.034321	-0.294993	0.329140
O12	O	1.534321	0.205007	0.829140
O13	O	0.929366	-0.381306	0.147289
O14	O	1.429366	0.118694	0.647289
O15	O	0.860148	-0.181168	0.256519
O16	O	1.360148	0.318832	0.756519
O17	O	1.030973	-0.381276	0.248875
O18	O	1.530973	0.118724	0.748875
O19	O	0.937134	-0.181146	0.333489
O20	O	1.437134	0.318854	0.833489
O21	O	0.855728	-0.295045	0.150584
O22	O	1.355728	0.204955	0.650584
O23	O	0.754187	-0.295057	0.252146
O24	O	1.254187	0.204943	0.752146
O25	O	0.852495	-0.381297	0.427389
O26	O	1.352495	0.118703	0.927389
O27	O	0.750888	-0.381327	0.325803
O28	O	1.250888	0.118673	0.825803
O29	O	0.932780	-0.295005	0.430702
O30	O	1.432780	0.204995	0.930702
O31	O	0.925012	-0.495165	0.244503
O32	O	1.425012	0.004835	0.744503
O33	O	0.848076	-0.495174	0.321454
O34	O	1.348076	0.004826	0.821454
C35	C	0.729803	-0.338197	0.288972
C36	C	1.229803	0.161803	0.788972
C37	C	0.660161	-0.338229	0.288978
C38	C	1.160161	0.161771	0.788978
C39	C	0.629211	-0.293375	0.330831
C40	C	1.129211	0.206625	0.830831
C41	C	0.563776	-0.293356	0.330835
C42	C	1.063776	0.206644	0.830835
C43	C	0.529294	-0.338204	0.288991
C44	C	1.029294	0.161796	0.788991
C45	C	0.560251	-0.383061	0.247130
C46	C	1.060251	0.116939	0.747130
C47	C	0.625685	-0.383074	0.247124
C48	C	1.125685	0.116926	0.747124
C49	C	0.423167	-0.401459	0.281545
C50	C	0.923167	0.098541	0.781545
C51	C	0.357734	-0.401447	0.281555
C52	C	0.857734	0.098553	0.781555
C53	C	0.327474	-0.338165	0.289006
C54	C	0.827474	0.161835	0.789006
C55	C	0.362655	-0.274893	0.296460
C56	C	0.862655	0.225107	0.796460
C57	C	0.428088	-0.274905	0.296454
C58	C	0.928088	0.225095	0.796454
C59	C	0.458341	-0.338195	0.288992
C60	C	0.958341	0.161805	0.788992
C61	C	0.225573	-0.293287	0.330865
C62	C	0.725573	0.206713	0.830865
C63	C	0.160137	-0.293268	0.330864
C64	C	0.660137	0.206732	0.830864
C65	C	0.156613	-0.382979	0.247162
C66	C	0.656613	0.117021	0.747162
C67	C	0.222048	-0.382992	0.247160
C68	C	0.722048	0.117008	0.747160
C69	C	0.256524	-0.338148	0.289015
C70	C	0.756524	0.161852	0.789015
C71	C	0.885579	-0.520655	0.282016
C72	C	1.385579	-0.020655	0.782016
C73	C	0.882636	-0.598726	0.279053
C74	C	1.382636	-0.098726	0.779053
C75	C	0.921306	-0.635331	0.317768
C76	C	1.421306	-0.135331	0.817768
C77	C	0.918538	-0.708687	0.314985
C78	C	1.418538	-0.208687	0.814985
C79	C	0.877103	-0.745436	0.273484
C80	C	1.377103	-0.245436	0.773484
C81	C	0.838429	-0.708825	0.234768
C82	C	1.338429	-0.208825	0.734768
C83	C	0.841194	-0.635471	0.237554
C84	C	1.341194	-0.135471	0.737554
C85	C	0.866748	-0.966923	0.263067
C86	C	1.366748	-0.466923	0.763067
C87	C	0.863987	-1.040282	0.260282
C88	C	1.363987	-0.540282	0.760282
C89	C	0.944096	-1.040139	0.340501
C90	C	1.444096	-0.540139	0.840501
C91	C	0.946860	-0.966783	0.343281
C92	C	1.446860	-0.466783	0.843281
C93	C	0.908184	-0.930179	0.304567
C94	C	1.408184	-0.430179	0.804567
C95	C	0.874275	-0.820417	0.270637
C96	C	1.374275	-0.320417	0.770637
C97	C	0.911010	-0.855199	0.307417
C98	C	1.411010	-0.355199	0.807417
C99	C	1.056017	-0.338129	0.289010
C100	C	1.556017	0.161871	0.789010
C101	C	1.125659	-0.338115	0.289019
C102	C	1.625659	0.161885	0.789019
C103	C	0.892645	-0.338149	0.452415
C104	C	1.392645	0.161851	0.952415
C105	C	0.892667	-0.338143	0.522057
C106	C	1.392667	0.161857	1.022057
C107	C	0.899650	-0.154959	0.296007
C108	C	1.399650	0.345041	0.796007
C109	C	0.902657	-0.076888	0.298997
C110	C	1.402657	0.423112	0.798997
C111	C	0.892578	-0.338127	0.126205
C112	C	1.392578	0.161873	0.626205
C113	C	0.892684	-0.337935	0.056571
C114	C	1.392684	0.162065	0.556571
C115	C	0.934470	-0.293209	0.556496
C116	C	1.434470	0.206791	1.056496
C117	C	0.934470	-0.293179	0.621932
C118	C	1.434470	0.206821	1.121932
C119	C	0.892674	-0.338095	0.652927
C120	C	1.392674	0.161905	1.152927
C121	C	0.850863	-0.383032	0.618479
C122	C	1.350863	0.116968	1.118479
C123	C	0.850860	-0.383056	0.553044
C124	C	1.350860	0.116944	1.053044
C125	C	0.885296	-0.401340	0.754184
C126	C	1.385296	0.098660	1.254184
C127	C	0.885304	-0.401318	0.819618
C128	C	1.385304	0.098682	1.319618
C129	C	0.892681	-0.338021	0.854750
C130	C	1.392681	0.161979	1.354750
C131	C	0.900063	-0.274745	0.824441
C132	C	1.400063	0.225255	1.324441
C133	C	0.900060	-0.274769	0.759006
C134	C	1.400060	0.225231	1.259006
C135	C	0.892673	-0.338074	0.723880
C136	C	1.392673	0.161926	1.223880
C137	C	0.934486	-0.293050	0.960144
C138	C	1.434486	0.206950	1.460144
C139	C	0.934482	-0.293019	1.025582
C140	C	1.434482	0.206981	1.525582
C141	C	0.850878	-0.382879	1.022127
C142	C	1.350878	0.117121	1.522127
C143	C	0.850879	-0.382904	0.956691
C144	C	1.350879	0.117096	1.456691
C145	C	0.892686	-0.337991	0.925703
C146	C	1.392686	0.162009	1.425703
H147	H	0.134939	-0.256738	0.364945
H148	H	0.634939	0.243262	0.864945
O149	O	0.908018	-0.206528	0.726312
O150	O	1.408018	0.293472	1.226312
H151	H	0.913146	-0.162506	0.761729
H152	H	1.413146	0.337494	1.261729
H153	H	0.980600	-0.936864	0.377074
H154	H	1.480600	-0.436864	0.877074
H155	H	0.816841	-0.419444	1.047362
H156	H	1.316841	0.080556	1.547362
O157	O	0.965999	-0.595698	0.362530
O158	O	1.465999	-0.095698	0.862530
H159	H	0.999154	-0.562258	0.335783
H160	H	1.499154	-0.062258	0.835783
H161	H	0.247247	-0.419520	0.213081
H162	H	0.747247	0.080480	0.713081
H163	H	0.816831	-0.419601	0.643719
H164	H	1.316831	0.080399	1.143719
H165	H	0.835257	-0.937125	0.231543
H166	H	1.335257	-0.437125	0.731543
O167	O	0.979556	-0.244762	0.523075
O168	O	1.479556	0.255238	1.023075
H169	H	1.010223	-0.276205	0.492082
H170	H	1.510223	0.223795	0.992082
H171	H	0.950032	-0.738488	0.346506
H172	H	1.450032	-0.238488	0.846506
O173	O	0.262765	-0.244913	0.375996
O174	O	0.762765	0.255087	0.875996
H175	H	0.230248	-0.213709	0.405093
H176	H	0.730248	0.286291	0.905093
H177	H	0.816842	-0.419498	0.928650
H178	H	1.316842	0.080502	1.428650
H179	H	0.128538	-0.419495	0.213092
H180	H	0.628538	0.080505	0.713092
H181	H	0.975584	-1.069950	0.372020
H182	H	1.475584	-0.569950	0.872020
H183	H	0.906071	-0.223202	0.853045
H184	H	1.406071	0.276798	1.353045
H185	H	0.830243	-1.070201	0.226486
H186	H	1.330243	-0.570201	0.726486
O187	O	0.455798	-0.469719	0.273495
O188	O	0.955798	0.030281	0.773495
H189	H	0.507208	-0.459098	0.274732
H190	H	1.007208	0.040902	0.774732
O191	O	0.877335	-0.469560	0.852308
O192	O	1.377335	0.030440	1.352308
H193	H	0.872190	-0.513577	0.816887
H194	H	1.372190	-0.013577	1.316887
O195	O	0.319791	-0.469685	0.273505
O196	O	0.819791	0.030315	0.773505
H197	H	0.351824	-0.513689	0.268305
H198	H	0.851824	-0.013689	0.768305
O199	O	0.799491	-0.595987	0.195791
O200	O	1.299491	-0.095987	0.695791
H201	H	0.749778	-0.610127	0.205949
H202	H	1.249778	-0.110127	0.705949
O203	O	0.523065	-0.431434	0.201996
O204	O	1.023065	0.068566	0.701996
H205	H	0.472364	-0.423896	0.209036
H206	H	0.972364	0.076104	0.709036
H207	H	0.650884	-0.419600	0.213041
H208	H	1.150884	0.080400	0.713041
O209	O	0.955707	-0.815566	0.352171
O210	O	1.455707	-0.315566	0.852171
H211	H	0.944414	-0.829625	0.400805
H212	H	1.444414	-0.329625	0.900805
O213	O	0.979564	-0.244719	0.659090
O214	O	1.479564	0.255281	1.159090
H215	H	1.008637	-0.213496	0.626549
H216	H	1.508637	0.286504	1.126549
O217	O	0.793745	-0.748456	0.189996
O218	O	1.293745	-0.248456	0.689996
H219	H	0.798326	-0.805614	0.194553
H220	H	1.298326	-0.305614	0.694553
O221	O	0.979568	-0.244603	0.926714
O222	O	1.479568	0.255397	1.426714
H223	H	1.008629	-0.213343	0.961658
H224	H	1.508629	0.286657	1.461658
H225	H	0.840540	-0.850347	0.236845
H226	H	1.340540	-0.350347	0.736845
O227	O	0.979572	-0.244553	1.062732
O228	O	1.479572	0.255447	1.562732
H229	H	1.008645	-0.213334	1.030188
H230	H	1.508645	0.286666	1.530188
O231	O	0.877331	-0.469614	0.716292
O232	O	1.377331	0.030386	1.216292
H233	H	0.872206	-0.513608	0.748359
H234	H	1.372206	-0.013608	1.248359
H235	H	0.538572	-0.256827	0.364915
H236	H	1.038572	0.243173	0.864915
O237	O	0.805758	-0.431507	0.515893
O238	O	1.305758	0.068493	1.015893
H239	H	0.776689	-0.462732	0.548436
H240	H	1.276689	0.037268	1.048436
H241	H	0.456730	-0.223387	0.302521
H242	H	0.956730	0.276613	0.802521
O243	O	0.666398	-0.244996	0.375961
O244	O	1.166398	0.255004	0.875961
H245	H	0.633879	-0.213796	0.405059
H246	H	1.133879	0.286204	0.905059
H247	H	0.338019	-0.223363	0.302527
H248	H	0.838019	0.276637	0.802527
