data_functionalizedCrystal
_audit_creation_method	'MofGen! by Chris Wilmer'
_symmetry_space_group_name_H-M	'P1'
_symmetry_Int_Tables_number	1
_symmetry_cell_setting	triclinic
loop_
_symmetry_equiv_pos_as_xyz
  x,y,z
_cell_length_a	19.805407
_cell_length_b	19.805405
_cell_length_c	19.805399
_cell_angle_alpha	89.970699
_cell_angle_beta	89.980427
_cell_angle_gamma	90.026410
loop_
_atom_site_label
_atom_site_type_symbol
_atom_site_fract_x
_atom_site_fract_y
_atom_site_fract_z
Zn1	Zn	1.034736	-0.269479	-0.382712
Zn2	Zn	1.534736	0.230521	0.117288
Zn3	Zn	1.034651	-0.382667	-0.269520
Zn4	Zn	1.534651	0.117333	0.230480
Zn5	Zn	0.921550	-0.269498	-0.269536
Zn6	Zn	1.421550	0.230502	0.230464
Zn7	Zn	0.921514	-0.382631	-0.382667
Zn8	Zn	1.421514	0.117369	0.117333
O9	O	0.978113	-0.326069	-0.326109
O10	O	1.478113	0.173931	0.173891
O11	O	1.129441	-0.284501	-0.367708
O12	O	1.629441	0.215499	0.132292
O13	O	1.019627	-0.367678	-0.174805
O14	O	1.519627	0.132322	0.325195
O15	O	0.936616	-0.174778	-0.284575
O16	O	1.436616	0.325222	0.215425
O17	O	1.129378	-0.367660	-0.284547
O18	O	1.629378	0.132340	0.215453
O19	O	1.019772	-0.174765	-0.367724
O20	O	1.519772	0.325235	0.132276
O21	O	0.936533	-0.284533	-0.174817
O22	O	1.436533	0.215467	0.325183
O23	O	0.826829	-0.284498	-0.284531
O24	O	1.326829	0.215502	0.215469
O25	O	0.936553	-0.367598	-0.477389
O26	O	1.436553	0.132402	0.022611
O27	O	0.826802	-0.367617	-0.367648
O28	O	1.326802	0.132383	0.132352
O29	O	1.019737	-0.284466	-0.477422
O30	O	1.519737	0.215534	0.022578
O31	O	1.019592	-0.477379	-0.284503
O32	O	1.519592	0.022621	0.215497
O33	O	0.936471	-0.477353	-0.367632
O34	O	1.436471	0.022647	0.132368
C35	C	0.802257	-0.326056	-0.326087
C36	C	1.302257	0.173944	0.173913
C37	C	0.727025	-0.326067	-0.326093
C38	C	1.227025	0.173933	0.173907
C39	C	0.691684	-0.369412	-0.369302
C40	C	1.191684	0.130588	0.130698
C41	C	0.620996	-0.369413	-0.369312
C42	C	1.120996	0.130587	0.130688
C43	C	0.585649	-0.326072	-0.326109
C44	C	1.085649	0.173928	0.173891
C45	C	0.620994	-0.282722	-0.282898
C46	C	1.120994	0.217278	0.217102
C47	C	0.691681	-0.282718	-0.282892
C48	C	1.191681	0.217282	0.217108
C49	C	0.335921	-0.282737	-0.282920
C50	C	0.835921	0.217263	0.217080
C51	C	0.265229	-0.282746	-0.282928
C52	C	0.765229	0.217254	0.217072
C53	C	0.265235	-0.369432	-0.369340
C54	C	0.765235	0.130568	0.130660
C55	C	0.335922	-0.369428	-0.369334
C56	C	0.835922	0.130572	0.130666
C57	C	0.371262	-0.326076	-0.326126
C58	C	0.871262	0.173924	0.173874
C59	C	0.447910	-0.326074	-0.326117
C60	C	0.947910	0.173926	0.173883
C61	C	0.509002	-0.326076	-0.326114
C62	C	1.009002	0.173924	0.173886
C63	C	0.978036	-0.501925	-0.326076
C64	C	1.478036	-0.001925	0.173924
C65	C	0.978066	-0.577157	-0.326084
C66	C	1.478066	-0.077157	0.173916
C67	C	1.021389	-0.612492	-0.282845
C68	C	1.521389	-0.112492	0.217155
C69	C	1.021418	-0.683181	-0.282860
C70	C	1.521418	-0.183181	0.217140
C71	C	0.978119	-0.718532	-0.326111
C72	C	1.478119	-0.218532	0.173889
C73	C	0.934794	-0.683192	-0.369356
C74	C	1.434794	-0.183192	0.130644
C75	C	0.934769	-0.612505	-0.369344
C76	C	1.434769	-0.112505	0.130656
C77	C	0.934894	-0.968265	-0.369406
C78	C	1.434894	-0.468265	0.130594
C79	C	0.934921	-1.038957	-0.369413
C80	C	1.434921	-0.538957	0.130587
C81	C	1.021542	-1.038941	-0.282922
C82	C	1.521542	-0.538941	0.217078
C83	C	1.021517	-0.968254	-0.282910
C84	C	1.521517	-0.468254	0.217090
C85	C	0.978195	-0.932920	-0.326157
C86	C	1.478195	-0.432920	0.173843
C87	C	0.978166	-0.856271	-0.326141
C88	C	1.478166	-0.356271	0.173859
C89	C	0.978145	-0.795179	-0.326124
C90	C	1.478145	-0.295179	0.173876
C91	C	1.154655	-0.326082	-0.326131
C92	C	1.654655	0.173918	0.173869
C93	C	1.229887	-0.326088	-0.326140
C94	C	1.729887	0.173912	0.173860
C95	C	0.978151	-0.326026	-0.502651
C96	C	1.478151	0.173974	-0.002651
C97	C	0.978167	-0.326008	-0.577883
C98	C	1.478167	0.173992	-0.077883
C99	C	0.978207	-0.149526	-0.326156
C100	C	1.478207	0.350474	0.173844
C101	C	0.978248	-0.074294	-0.326177
C102	C	1.478248	0.425706	0.173823
C103	C	1.021481	-0.282719	-0.613246
C104	C	1.521481	0.217281	-0.113246
C105	C	1.021488	-0.282699	-0.683934
C106	C	1.521488	0.217301	-0.183934
C107	C	0.978184	-0.325973	-0.719259
C108	C	1.478184	0.174027	-0.219259
C109	C	0.934864	-0.369264	-0.683892
C110	C	1.434864	0.130736	-0.183892
C111	C	0.934854	-0.369279	-0.613204
C112	C	1.434854	0.130721	-0.113204
C113	C	0.934902	-0.369201	-0.968965
C114	C	1.434902	0.130799	-0.468965
C115	C	0.934917	-0.369183	-1.039657
C116	C	1.434917	0.130817	-0.539657
C117	C	1.021536	-0.282620	-1.039695
C118	C	1.521536	0.217380	-0.539695
C119	C	1.021527	-0.282636	-0.969008
C120	C	1.521527	0.217364	-0.469008
C121	C	0.978205	-0.325924	-0.933647
C122	C	1.478205	0.174076	-0.433647
C123	C	0.978197	-0.325944	-0.856998
C124	C	1.478197	0.174056	-0.356998
C125	C	0.978194	-0.325957	-0.795906
C126	C	1.478194	0.174043	-0.295906
C127	C	0.978114	-0.326062	-0.150253
C128	C	1.478114	0.173938	0.349747
C129	C	0.978229	-0.325890	-0.075021
C130	C	1.478229	0.174110	0.424979
H131	H	0.720458	-0.404707	-0.404481
H132	H	1.220458	0.095293	0.095519
O133	O	0.892734	-0.411322	-0.718099
O134	O	1.392734	0.088678	-0.218099
C135	C	0.806847	-0.497218	-0.710595
C136	C	1.306847	0.002782	-0.210595
C137	C	0.854512	-0.449606	-0.671774
C138	C	1.354512	0.050394	-0.171774
H139	H	0.775942	-0.528193	-0.673158
H140	H	1.275942	-0.028193	-0.173158
H141	H	0.771432	-0.466167	-0.743675
H142	H	1.271432	0.033833	-0.243675
H143	H	0.837920	-0.532576	-0.743702
H144	H	1.337920	-0.032576	-0.243702
H145	H	0.823493	-0.414239	-0.638631
H146	H	1.323493	0.085761	-0.138631
H147	H	0.889929	-0.480699	-0.638737
H148	H	1.389929	0.019301	-0.138737
H149	H	1.056820	-1.067719	-0.247711
H150	H	1.556820	-0.567719	0.252289
O151	O	0.892841	-1.073194	-0.411498
O152	O	1.392841	-0.573194	0.088502
C153	C	0.806898	-1.065755	-0.497269
C154	C	1.306898	-0.565755	0.002731
C155	C	0.854527	-1.026898	-0.449657
C156	C	1.354527	-0.526898	0.050343
H157	H	0.775898	-1.028341	-0.528122
H158	H	1.275898	-0.528341	-0.028122
H159	H	0.837936	-1.098783	-0.532734
H160	H	1.337936	-0.598783	-0.032734
H161	H	0.771563	-1.098917	-0.466156
H162	H	1.271563	-0.598917	0.033844
H163	H	0.889871	-0.993700	-0.480715
H164	H	1.389871	-0.493700	0.019285
H165	H	0.823446	-0.993913	-0.414190
H166	H	1.323446	-0.493913	0.085810
O167	O	0.892903	-0.933921	-0.411482
O168	O	1.392903	-0.433921	0.088518
C169	C	0.883698	-0.854040	-0.502825
C170	C	1.383698	-0.354040	-0.002825
C171	C	0.931335	-0.892906	-0.455225
C172	C	1.431335	-0.392906	0.044775
H173	H	0.914750	-0.820859	-0.538194
H174	H	1.414750	-0.320859	-0.038194
H175	H	0.852769	-0.891425	-0.533783
H176	H	1.352769	-0.391425	-0.033783
H177	H	0.848298	-0.821026	-0.471699
H178	H	1.348298	-0.321026	0.028301
H179	H	0.966776	-0.925921	-0.486299
H180	H	1.466776	-0.425921	0.013701
H181	H	0.962217	-0.855485	-0.424265
H182	H	1.462217	-0.355485	0.075735
H183	H	0.899576	-0.404523	-0.584413
H184	H	1.399576	0.095477	-0.084413
H185	H	0.592225	-0.404709	-0.404496
H186	H	1.092225	0.095291	0.095504
O187	O	0.230978	-0.411504	-0.411414
O188	O	0.730978	0.088496	0.088586
C189	C	0.209360	-0.444482	-0.526493
C190	C	0.709360	0.055518	-0.026493
C191	C	0.248208	-0.396806	-0.478923
C192	C	0.748208	0.103194	0.021077
H193	H	0.223264	-0.432606	-0.581085
H194	H	0.723264	0.067394	-0.081085
H195	H	0.223241	-0.499055	-0.514563
H196	H	0.723241	0.000945	-0.014563
H197	H	0.152770	-0.437049	-0.519046
H198	H	0.652770	0.062951	-0.019046
H199	H	0.304806	-0.404178	-0.486344
H200	H	0.804806	0.095822	0.013656
H201	H	0.234270	-0.342250	-0.490865
H202	H	0.734270	0.157750	0.009135
H203	H	0.364698	-0.404723	-0.404512
H204	H	0.864698	0.095277	0.095488
O205	O	0.892807	-0.717501	-0.411469
O206	O	1.392807	-0.217501	0.088531
C207	C	0.859865	-0.739050	-0.526573
C208	C	1.359865	-0.239050	-0.026573
C209	C	0.907470	-0.700167	-0.478959
C210	C	1.407470	-0.200167	0.021041
H211	H	0.871694	-0.725039	-0.581148
H212	H	1.371694	-0.225039	-0.081148
H213	H	0.867326	-0.795650	-0.519212
H214	H	1.367326	-0.295650	-0.019212
H215	H	0.805294	-0.725211	-0.514600
H216	H	1.305294	-0.225211	-0.014600
H217	H	0.962059	-0.713949	-0.490902
H218	H	1.462059	-0.213949	0.009098
H219	H	0.899951	-0.643576	-0.486329
H220	H	1.399951	-0.143576	0.013671
O221	O	1.063663	-0.717484	-0.241002
O222	O	1.563663	-0.217484	0.258998
C223	C	1.155215	-0.797087	-0.232161
C224	C	1.655215	-0.297087	0.267839
C225	C	1.107361	-0.758302	-0.279610
C226	C	1.607361	-0.258302	0.220390
H227	H	1.190547	-0.830109	-0.263355
H228	H	1.690547	-0.330109	0.236645
H229	H	1.186199	-0.759649	-0.201322
H230	H	1.686199	-0.259649	0.298678
H231	H	1.124287	-0.830252	-0.196669
H232	H	1.624287	-0.330252	0.303331
H233	H	1.138237	-0.725136	-0.315143
H234	H	1.638237	-0.225136	0.184857
H235	H	1.076375	-0.795777	-0.310402
H236	H	1.576375	-0.295777	0.189598
H237	H	0.236452	-0.247448	-0.247747
H238	H	0.736452	0.252552	0.252253
H239	H	0.364686	-0.247442	-0.247733
H240	H	0.864686	0.252558	0.252267
H241	H	1.056773	-0.939473	-0.247688
H242	H	1.556773	-0.439473	0.252312
O243	O	0.586556	-0.240680	-0.240955
O244	O	1.086556	0.259320	0.259045
C245	C	0.477659	-0.202232	-0.202699
C246	C	0.977659	0.297768	0.297301
C247	C	0.516573	-0.249891	-0.250222
C248	C	1.016573	0.250109	0.249778
H249	H	0.421071	-0.209653	-0.210185
H250	H	0.921071	0.290347	0.289815
H251	H	0.491478	-0.214042	-0.148082
H252	H	0.991478	0.285958	0.351918
H253	H	0.491626	-0.147678	-0.214681
H254	H	0.991626	0.352322	0.285319
H255	H	0.502627	-0.304461	-0.238301
H256	H	1.002627	0.195539	0.261699
H257	H	0.502751	-0.238023	-0.304825
H258	H	1.002751	0.261977	0.195175
O259	O	1.063655	-0.240691	-0.934659
O260	O	1.563655	0.259309	-0.434659
C261	C	1.154985	-0.231588	-0.854822
C262	C	1.654985	0.268412	-0.354822
C263	C	1.107336	-0.279174	-0.893693
C264	C	1.607336	0.220826	-0.393693
H265	H	1.190304	-0.262681	-0.821681
H266	H	1.690304	0.237319	-0.321681
H267	H	1.185995	-0.200647	-0.892203
H268	H	1.685995	0.299353	-0.392203
H269	H	1.123895	-0.196196	-0.821768
H270	H	1.623895	0.303804	-0.321768
H271	H	1.138374	-0.314607	-0.926748
H272	H	1.638374	0.185393	-0.426748
H273	H	1.076324	-0.310067	-0.856276
H274	H	1.576324	0.189933	-0.356276
O275	O	1.063551	-0.240584	-1.074151
O276	O	1.563551	0.259416	-0.574151
C277	C	1.101986	-0.202215	-1.183064
C278	C	1.601986	0.297785	-0.683064
C279	C	1.054361	-0.249840	-1.144130
C280	C	1.554361	0.250160	-0.644130
H281	H	1.094583	-0.209692	-1.239649
H282	H	1.594583	0.290308	-0.739649
H283	H	1.090128	-0.147625	-1.169225
H284	H	1.590128	0.352375	-0.669225
H285	H	1.156548	-0.214103	-1.169133
H286	H	1.656548	0.285897	-0.669133
H287	H	0.999783	-0.238013	-1.158040
H288	H	1.499783	0.261987	-0.658040
H289	H	1.066277	-0.304416	-1.157972
H290	H	1.566277	0.195584	-0.657972
O291	O	0.892782	-0.578146	-0.411418
O292	O	1.392782	-0.078146	0.088582
C293	C	0.883601	-0.498251	-0.502751
C294	C	1.383601	0.001749	-0.002751
C295	C	0.931226	-0.537132	-0.455151
C296	C	1.431226	-0.037132	0.044849
H297	H	0.914663	-0.465071	-0.538112
H298	H	1.414663	0.034929	-0.038112
H299	H	0.852668	-0.535626	-0.533717
H300	H	1.352668	-0.035626	-0.033717
H301	H	0.848204	-0.465235	-0.471624
H302	H	1.348204	0.034765	0.028376
H303	H	0.966664	-0.570149	-0.486226
H304	H	1.466664	-0.070149	0.013774
H305	H	0.962111	-0.499720	-0.424183
H306	H	1.462111	0.000280	0.075817
O307	O	1.063570	-0.240618	-0.579039
O308	O	1.563570	0.259382	-0.079039
C309	C	1.149515	-0.154781	-0.586545
C310	C	1.649515	0.345219	-0.086545
C311	C	1.101873	-0.202417	-0.625366
C312	C	1.601873	0.297583	-0.125366
H313	H	1.180505	-0.123892	-0.623984
H314	H	1.680505	0.376108	-0.123984
H315	H	1.118487	-0.119349	-0.553474
H316	H	1.618487	0.380651	-0.053474
H317	H	1.184857	-0.185876	-0.553431
H318	H	1.684857	0.314124	-0.053431
H319	H	1.066522	-0.171376	-0.658516
H320	H	1.566522	0.328624	-0.158516
H321	H	1.132943	-0.237850	-0.658395
H322	H	1.632943	0.262150	-0.158395
O323	O	0.725985	-0.240688	-0.240819
O324	O	1.225985	0.259312	0.259181
C325	C	0.747551	-0.207657	-0.125746
C326	C	1.247551	0.292343	0.374254
C327	C	0.708673	-0.255310	-0.173315
C328	C	1.208673	0.244690	0.326685
H329	H	0.733558	-0.219452	-0.071160
H330	H	1.233558	0.280548	0.428840
H331	H	0.804152	-0.215102	-0.133106
H332	H	1.304152	0.284898	0.366894
H333	H	0.733689	-0.153100	-0.137766
H334	H	1.233689	0.346900	0.362234
H335	H	0.722479	-0.309886	-0.161325
H336	H	1.222479	0.190114	0.338675
H337	H	0.652082	-0.247807	-0.165947
H338	H	1.152082	0.252193	0.334053
O339	O	1.063512	-0.578259	-0.240806
O340	O	1.563512	-0.078259	0.259194
C341	C	1.149405	-0.585712	-0.154987
C342	C	1.649405	-0.085712	0.345013
C343	C	1.101745	-0.624562	-0.202573
C344	C	1.601745	-0.124562	0.297427
H345	H	1.180318	-0.623131	-0.124053
H346	H	1.680318	-0.123131	0.375947
H347	H	1.184812	-0.552586	-0.186055
H348	H	1.684812	-0.052586	0.313945
H349	H	1.118327	-0.552651	-0.119590
H350	H	1.618327	-0.052651	0.380410
H351	H	1.132768	-0.657660	-0.237980
H352	H	1.632768	-0.157660	0.262020
H353	H	1.066335	-0.657646	-0.171463
H354	H	1.566335	-0.157646	0.328537
O355	O	0.892754	-0.411152	-0.934584
O356	O	1.392754	0.088848	-0.434584
C357	C	0.801385	-0.420257	-0.854721
C358	C	1.301385	0.079743	-0.354721
C359	C	0.849065	-0.372671	-0.893635
C360	C	1.349065	0.127329	-0.393635
H361	H	0.766060	-0.389165	-0.821593
H362	H	1.266060	0.110835	-0.321593
H363	H	0.770384	-0.451176	-0.892074
H364	H	1.270384	0.048824	-0.392074
H365	H	0.832450	-0.455669	-0.821649
H366	H	1.332450	0.044331	-0.321649
H367	H	0.818052	-0.337218	-0.926707
H368	H	1.318052	0.162782	-0.426707
H369	H	0.880068	-0.341799	-0.856245
H370	H	1.380068	0.158201	-0.356245
H371	H	0.899650	-0.404423	-1.068417
H372	H	1.399650	0.095577	-0.568417
H373	H	1.056761	-0.247450	-0.712723
H374	H	1.556761	0.252550	-0.212723
