data_functionalizedCrystal
_audit_creation_method	'MofGen! by Chris Wilmer'
_symmetry_space_group_name_H-M	'P1'
_symmetry_Int_Tables_number	1
_symmetry_cell_setting	triclinic
loop_
_symmetry_equiv_pos_as_xyz
  x,y,z
_cell_length_a	16.992694
_cell_length_b	15.995350
_cell_length_c	15.455313
_cell_angle_alpha	92.667328
_cell_angle_beta	87.142206
_cell_angle_gamma	87.080299
loop_
_atom_site_label
_atom_site_type_symbol
_atom_site_fract_x
_atom_site_fract_y
_atom_site_fract_z
O1	O	1.043823	0.174116	-0.072015
O2	O	0.815539	0.172167	-0.072041
O3	O	0.935921	0.051671	-0.072026
O4	O	0.923440	0.294611	-0.072029
O5	O	0.929037	0.058531	0.072235
O6	O	0.808655	0.179027	0.072221
O7	O	1.036939	0.180976	0.072246
Cu8	Cu	0.922168	0.180628	0.085406
Cu9	Cu	0.930309	0.172515	-0.085200
O10	O	0.916556	0.301471	0.072232
C11	C	0.782884	0.173091	0.000087
C12	C	0.695840	0.165614	0.000077
C13	C	0.645600	0.237750	0.000077
C14	C	0.563813	0.230720	0.000089
C15	C	0.532268	0.151555	0.000095
C16	C	0.582515	0.079414	0.000098
C17	C	0.664300	0.086445	0.000092
C18	C	0.288669	0.122418	0.000118
C19	C	0.206878	0.115393	0.000122
C20	C	0.188181	0.266700	0.000114
C21	C	0.269969	0.273723	0.000103
C22	C	0.320208	0.201582	0.000111
N23	N	0.448669	0.144368	0.000104
N24	N	0.403806	0.208770	0.000107
C25	C	0.931963	0.023872	0.000103
C26	C	0.930416	-0.069182	0.000098
C27	C	0.924861	-0.407301	0.000100
C28	C	0.839142	-0.365620	-0.000233
C29	C	0.840674	-0.268811	0.000092
C30	C	0.927617	-0.239556	0.000098
C31	C	0.965973	-0.273887	0.082482
C32	C	0.963816	-0.370663	0.082550
C33	C	0.973415	-0.378704	-0.081501
C34	C	0.973447	-0.281812	-0.082590
C35	C	0.929178	-0.144754	0.000100
C36	C	0.923301	-0.502103	0.000104
C37	C	1.069593	0.180052	0.000117
C38	C	1.156637	0.187528	0.000121
C39	C	0.920514	0.329271	0.000101
C40	C	0.922061	0.422324	0.000101
N41	N	0.916448	0.186334	0.205401
N42	N	0.936036	0.166802	-0.205195
C43	C	0.967608	0.135164	0.250801
C44	C	0.963289	0.139488	0.341608
C45	C	0.907813	0.194986	0.387014
C46	C	0.856647	0.246157	0.341607
C47	C	0.860963	0.241829	0.250801
C48	C	0.889185	0.213646	0.658593
C49	C	0.884875	0.217972	0.749405
C50	C	0.991517	0.111301	0.749400
C51	C	0.995831	0.106981	0.658592
C52	C	0.944662	0.158150	0.613194
N53	N	0.903399	0.199408	0.479833
N54	N	0.949073	0.153722	0.520376
H55	H	0.181198	0.050923	0.000126
H56	H	1.041003	0.061791	0.621625
O57	O	1.013016	0.089909	0.385810
C58	C	1.058894	0.140529	0.438308
H59	H	1.027011	0.204585	0.451903
H60	H	1.118506	0.148468	0.403307
C61	C	1.110714	0.019892	0.507873
C62	C	1.071551	0.098565	0.524577
H63	H	1.118525	-0.005993	0.561087
H64	H	1.079808	-0.014212	0.472502
H65	H	1.160386	0.026520	0.478704
H66	H	1.021876	0.091936	0.553736
H67	H	1.102449	0.132668	0.559955
H68	H	1.033175	0.069641	0.786372
H69	H	0.705206	0.027704	0.000091
H70	H	0.556824	0.014957	0.000115
H71	H	0.329565	0.063675	0.000125
H72	H	0.933677	-0.244555	0.143784
H73	H	0.810251	-0.245421	-0.058964
O74	O	0.802791	0.300178	0.385613
C75	C	0.816595	0.382870	0.363425
H76	H	0.849953	0.381665	0.297492
H77	H	0.853189	0.413839	0.414524
C78	C	0.696208	0.434471	0.440209
C79	C	0.737174	0.432991	0.359225
H80	H	0.647218	0.465390	0.437622
H81	H	0.686909	0.378760	0.455161
H82	H	0.726712	0.460277	0.482783
H83	H	0.706674	0.407177	0.316655
H84	H	0.746466	0.488699	0.344266
H85	H	0.807694	-0.389254	-0.059312
H86	H	0.804387	-0.240372	0.059241
O87	O	0.839419	0.263236	0.614457
C88	C	0.793555	0.212634	0.561923
H89	H	0.790922	0.147816	0.589296
H90	H	0.821367	0.206620	0.493102
C91	C	0.712675	0.332653	0.526911
C92	C	0.709436	0.253044	0.560534
H93	H	0.660787	0.357580	0.526050
H94	H	0.743576	0.366745	0.562301
H95	H	0.735855	0.327630	0.469563
H96	H	0.686265	0.258068	0.617885
H97	H	0.678528	0.218953	0.525154
H98	H	0.839698	0.263168	0.786370
O99	O	1.038645	-0.404044	0.086994
C100	C	1.037404	-0.492107	0.087128
H101	H	0.981683	-0.513369	0.056449
H102	H	1.038022	-0.512743	0.156719
C103	C	1.178920	-0.505593	0.072390
C104	C	1.110486	-0.531707	0.034703
H105	H	1.224002	-0.530021	0.040056
H106	H	1.179757	-0.446263	0.072303
H107	H	1.179425	-0.522791	0.130381
H108	H	1.109978	-0.514500	-0.023283
H109	H	1.109650	-0.591036	0.034779
O110	O	0.514968	0.300773	0.000233
C111	C	0.463531	0.304786	0.074939
H112	H	0.491000	0.266468	0.127166
H113	H	0.404865	0.278325	0.058054
C114	C	0.415750	0.443739	0.044653
C115	C	0.449491	0.396682	0.108803
H116	H	0.407086	0.500425	0.065541
H117	H	0.450401	0.441035	-0.005679
H118	H	0.366865	0.421678	0.030589
H119	H	0.498379	0.418736	0.122858
H120	H	0.414847	0.399392	0.159138
H121	H	0.802224	-0.384703	0.058509
H122	H	0.819302	0.283495	0.213837
O123	O	0.923439	-0.391568	0.155919
C124	C	0.857313	-0.436082	0.133419
H125	H	0.867962	-0.465730	0.065055
H126	H	0.802823	-0.391235	0.135848
C127	C	0.831223	-0.468822	0.281873
C128	C	0.844305	-0.505242	0.197910
H129	H	0.823196	-0.511482	0.321655
H130	H	0.875771	-0.438830	0.297033
H131	H	0.785815	-0.431451	0.283885
H132	H	0.889717	-0.542604	0.195896
H133	H	0.799764	-0.535243	0.182751
H134	H	1.029701	-0.255341	0.085550
O135	O	0.943411	-0.409018	-0.155914
C136	C	0.878051	-0.456624	-0.135343
H137	H	0.852267	-0.436169	-0.067710
H138	H	0.897751	-0.525911	-0.136987
C139	C	0.846545	-0.467783	-0.285083
C140	C	0.814871	-0.442656	-0.202017
H141	H	0.807573	-0.459171	-0.326211
H142	H	0.890581	-0.435713	-0.298943
H143	H	0.862961	-0.525521	-0.286440
H144	H	0.798465	-0.384917	-0.200657
H145	H	0.770831	-0.474716	-0.188158
H146	H	0.945437	-0.259530	-0.143535
O147	O	1.049357	-0.258657	-0.088372
C148	C	1.062742	-0.203442	-0.017466
H149	H	1.018090	-0.213284	0.038169
H150	H	1.055961	-0.135991	-0.037899
C151	C	1.201685	-0.208858	-0.055894
C152	C	1.146846	-0.220952	0.012440
H153	H	1.253565	-0.219656	-0.037449
H154	H	1.192667	-0.246055	-0.103667
H155	H	1.196024	-0.152649	-0.072916
H156	H	1.152501	-0.277163	0.029452
H157	H	1.155867	-0.183765	0.060216
O158	O	1.048851	-0.411622	-0.082321
C159	C	1.065455	-0.462493	-0.158663
H160	H	1.023822	-0.442516	-0.210417
H161	H	1.056903	-0.530794	-0.144272
C162	C	1.202516	-0.477320	-0.128021
C163	C	1.151387	-0.452779	-0.191588
H164	H	1.255524	-0.471331	-0.148329
H165	H	1.191330	-0.443050	-0.076585
H166	H	1.195380	-0.534235	-0.116034
H167	H	1.158516	-0.395862	-0.203566
H168	H	1.162576	-0.487039	-0.243026
H169	H	0.671277	0.302214	0.000071
O170	O	1.021522	0.081181	0.206832
C171	C	1.065763	0.036959	0.266381
H172	H	1.030539	0.036929	0.331114
H173	H	1.123548	0.068540	0.276027
C174	C	1.126873	-0.053929	0.151446
C175	C	1.083608	-0.053972	0.230951
H176	H	1.137885	-0.110019	0.129591
H177	H	1.097070	-0.024134	0.111326
H178	H	1.175022	-0.027607	0.159496
H179	H	1.035456	-0.080284	0.222899
H180	H	1.113404	-0.083773	0.271069
O181	O	0.300642	0.350604	-0.000076
C182	C	0.350947	0.355619	-0.074797
H183	H	0.334092	0.308061	-0.126992
H184	H	0.414645	0.341448	-0.057916
C185	C	0.363321	0.502892	-0.044606
C186	C	0.342615	0.444486	-0.108716
H187	H	0.358185	0.557711	-0.065527
H188	H	0.329433	0.499514	0.005737
H189	H	0.416401	0.491073	-0.030545
H190	H	0.289533	0.456300	-0.122768
H191	H	0.376494	0.447869	-0.159061
H192	H	0.147268	0.325432	0.000110
