data_functionalizedCrystal
_audit_creation_method	'MofGen! by Chris Wilmer'
_symmetry_space_group_name_H-M	'P1'
_symmetry_Int_Tables_number	1
_symmetry_cell_setting	triclinic
loop_
_symmetry_equiv_pos_as_xyz
  x,y,z
_cell_length_a	16.992694
_cell_length_b	15.944551
_cell_length_c	15.455313
_cell_angle_alpha	92.664316
_cell_angle_beta	87.142206
_cell_angle_gamma	87.083481
loop_
_atom_site_label
_atom_site_type_symbol
_atom_site_fract_x
_atom_site_fract_y
_atom_site_fract_z
O1	O	1.043832	0.174669	-0.072025
O2	O	0.815548	0.172714	-0.072051
O3	O	0.935924	0.051836	-0.072029
O4	O	0.923457	0.295548	-0.072046
O5	O	0.929040	0.058718	0.072232
O6	O	0.808664	0.179596	0.072210
O7	O	1.036949	0.181551	0.072236
Cu8	Cu	0.922178	0.181202	0.085395
Cu9	Cu	0.930319	0.173063	-0.085210
O10	O	0.916573	0.302430	0.072215
C11	C	0.782894	0.173641	0.000077
C12	C	0.695850	0.166141	0.000067
C13	C	0.645613	0.238506	0.000063
C14	C	0.563826	0.231454	0.000075
C15	C	0.532276	0.152037	0.000086
C16	C	0.582519	0.079667	0.000093
C17	C	0.664305	0.086719	0.000087
C18	C	0.288676	0.122807	0.000111
C19	C	0.206884	0.115760	0.000115
C20	C	0.188196	0.267548	0.000099
C21	C	0.269984	0.274593	0.000087
C22	C	0.320220	0.202223	0.000099
N23	N	0.448677	0.144827	0.000096
N24	N	0.403817	0.209434	0.000095
C25	C	0.931964	0.023948	0.000101
C26	C	0.930413	-0.069402	0.000102
C27	C	0.852089	-0.289513	0.000081
C28	C	0.885066	-0.344697	0.071214
C29	C	0.927606	-0.240317	0.000095
C30	C	0.891871	-0.351465	-0.071016
C31	C	0.924889	-0.405412	0.000084
C32	C	0.960600	-0.294269	0.071287
C33	C	0.967397	-0.301034	-0.071007
C34	C	1.000428	-0.356196	0.000144
C35	C	0.929168	-0.145209	0.000101
C36	C	0.923332	-0.500518	0.000084
C37	C	1.069603	0.180624	0.000107
C38	C	1.156647	0.188124	0.000110
C39	C	0.920532	0.330318	0.000082
C40	C	0.922084	0.423668	0.000076
N41	N	0.916458	0.186926	0.205390
N42	N	0.936045	0.167333	-0.205204
C43	C	0.967616	0.135594	0.250793
C44	C	0.963297	0.139932	0.341600
C45	C	0.907824	0.195606	0.387002
C46	C	0.856661	0.246940	0.341593
C47	C	0.860976	0.242598	0.250787
C48	C	0.889197	0.214325	0.658581
C49	C	0.884887	0.218665	0.749392
C50	C	0.991523	0.111655	0.749393
C51	C	0.995836	0.107321	0.658586
C52	C	0.944671	0.158653	0.613185
N53	N	0.903410	0.200042	0.479822
N54	N	0.949081	0.154211	0.520367
H55	H	0.181200	0.051085	0.000123
H56	H	0.847537	0.256123	0.621622
H57	H	0.329568	0.063878	0.000121
H58	H	0.839712	0.264005	0.786355
H59	H	0.295665	0.339262	0.000069
C60	C	1.056852	0.046075	0.608650
H61	H	1.086697	0.016118	0.648697
H62	H	1.091174	0.076806	0.573214
H63	H	1.030323	0.007502	0.573240
C64	C	0.680314	0.325863	0.000049
H65	H	0.736218	0.319702	0.000037
H66	H	0.660678	0.358293	0.050353
H67	H	0.665462	0.353486	-0.050267
C68	C	1.028641	0.074360	0.200854
H69	H	1.023892	0.079131	0.140270
H70	H	1.019424	0.018433	0.215745
H71	H	1.080262	0.087751	0.215731
H72	H	0.862790	-0.376554	-0.131158
H73	H	0.522926	0.290381	0.000071
H74	H	0.556825	0.015004	0.000114
C75	C	1.047792	0.055188	0.799337
H76	H	1.037275	0.065740	0.859919
H77	H	1.100829	0.067139	0.784446
H78	H	1.039975	-0.002162	0.784464
C79	C	0.719565	0.007118	0.000083
H80	H	0.689064	-0.041191	0.000081
H81	H	0.749468	0.009112	0.050386
H82	H	0.754249	0.004317	-0.050234
C83	C	1.019578	0.083474	0.391540
H84	H	1.053241	0.049705	0.351495
H85	H	0.989698	0.048286	0.426976
H86	H	1.050532	0.117608	0.426950
C87	C	0.795643	0.308182	0.391533
H88	H	0.800405	0.303424	0.452116
H89	H	0.744021	0.294805	0.376663
H90	H	0.804873	0.364109	0.376636
C91	C	0.804706	0.299067	0.200844
H92	H	0.771055	0.332852	0.240888
H93	H	0.773751	0.264946	0.165430
H94	H	0.834600	0.334253	0.165411
C95	C	0.132940	0.347150	0.000091
H96	H	0.163444	0.395456	0.000077
H97	H	0.098251	0.349957	0.050398
H98	H	0.103043	0.345152	-0.050222
C99	C	0.767412	-0.250185	0.000165
H100	H	0.738292	-0.264984	0.050765
H101	H	0.742702	-0.270560	-0.049854
H102	H	0.769005	-0.190738	-0.000345
H103	H	0.850256	-0.364079	0.131345
H104	H	0.989641	-0.269266	0.131491
H105	H	1.063164	-0.385145	0.000191
H106	H	1.002180	-0.281632	-0.131141
