data_functionalizedCrystal
_audit_creation_method	'MofGen! by Chris Wilmer'
_symmetry_space_group_name_H-M	'P1'
_symmetry_Int_Tables_number	1
_symmetry_cell_setting	triclinic
loop_
_symmetry_equiv_pos_as_xyz
  x,y,z
_cell_length_a	16.959455
_cell_length_b	19.121063
_cell_length_c	16.959447
_cell_angle_alpha	87.593376
_cell_angle_beta	90.020374
_cell_angle_gamma	92.466224
loop_
_atom_site_label
_atom_site_type_symbol
_atom_site_fract_x
_atom_site_fract_y
_atom_site_fract_z
Zn1	Zn	1.194915	-0.279655	0.460438
Zn2	Zn	1.528248	0.053679	0.793771
Zn3	Zn	1.861582	0.387012	1.127105
Zn4	Zn	1.189180	-0.397115	0.333888
Zn5	Zn	1.522514	-0.063782	0.667222
Zn6	Zn	1.855847	0.269551	1.000555
Zn7	Zn	1.062742	-0.279677	0.328262
Zn8	Zn	1.396076	0.053656	0.661596
Zn9	Zn	1.729409	0.386990	0.994929
Zn10	Zn	1.057054	-0.397063	0.466010
Zn11	Zn	1.390387	-0.063730	0.799344
Zn12	Zn	1.723720	0.269604	1.132677
O13	O	1.125973	-0.338378	0.397150
O14	O	1.459306	-0.005044	0.730483
O15	O	1.792640	0.328289	1.063816
O16	O	1.304765	-0.295249	0.443673
O17	O	1.638098	0.038085	0.777006
O18	O	1.971431	0.371418	1.110340
O19	O	1.172389	-0.381568	0.222533
O20	O	1.505722	-0.048235	0.555866
O21	O	1.839056	0.285098	0.889199
O22	O	1.085056	-0.181390	0.341109
O23	O	1.418390	0.151944	0.674443
O24	O	1.751723	0.485277	1.007776
O25	O	1.300551	-0.381547	0.350698
O26	O	1.633885	-0.048213	0.684031
O27	O	1.967218	0.285120	1.017364
O28	O	1.182163	-0.181374	0.438218
O29	O	1.515496	0.151960	0.771551
O30	O	1.848830	0.485293	1.104885
O31	O	1.079496	-0.295287	0.218399
O32	O	1.412829	0.038047	0.551733
O33	O	1.746162	0.371380	0.885066
O34	O	0.951378	-0.295236	0.346513
O35	O	1.284711	0.038097	0.679846
O36	O	1.618044	0.371431	1.013179
O37	O	1.075360	-0.381457	0.575881
O38	O	1.408694	-0.048124	0.909214
O39	O	1.742027	0.285209	1.242547
O40	O	0.947198	-0.381479	0.447715
O41	O	1.280531	-0.048146	0.781049
O42	O	1.613865	0.285188	1.114382
O43	O	1.176647	-0.295198	0.571787
O44	O	1.509980	0.038135	0.905120
O45	O	1.843313	0.371469	1.238453
O46	O	1.166873	-0.495393	0.356101
O47	O	1.500206	-0.162059	0.689434
O48	O	1.833539	0.171274	1.022768
O49	O	1.069800	-0.495354	0.453171
O50	O	1.403133	-0.162021	0.786504
O51	O	1.736466	0.171312	1.119837
C52	C	0.920608	-0.338355	0.397109
C53	C	1.253941	-0.005021	0.730442
C54	C	1.587274	0.328312	1.063775
C55	C	0.832751	-0.338362	0.397111
C56	C	1.166084	-0.005028	0.730444
C57	C	1.499417	0.328305	1.063778
C58	C	0.459072	-0.383268	0.348709
C59	C	0.792405	-0.049935	0.682043
C60	C	1.125739	0.283398	1.015376
C61	C	0.463474	-0.293545	0.445689
C62	C	0.796807	0.039788	0.779022
C63	C	1.130141	0.373122	1.112356
C64	C	0.546020	-0.293534	0.445669
C65	C	0.879354	0.039800	0.779003
C66	C	1.212687	0.373133	1.112336
C67	C	0.585096	-0.338391	0.397170
C68	C	0.918430	-0.005057	0.730503
C69	C	1.251763	0.328276	1.063836
C70	C	0.541626	-0.383260	0.348690
C71	C	0.874959	-0.049926	0.682023
C72	C	1.208293	0.283407	1.015357
C73	C	0.589497	-0.248671	0.494154
C74	C	0.922830	0.084663	0.827487
C75	C	1.256163	0.417996	1.160821
C76	C	0.672048	-0.248658	0.494137
C77	C	1.005382	0.084676	0.827470
C78	C	1.338715	0.418009	1.160803
C79	C	0.711126	-0.293512	0.445632
C80	C	1.044459	0.039821	0.778966
C81	C	1.377793	0.373155	1.112299
C82	C	0.667650	-0.338382	0.397150
C83	C	1.000984	-0.005049	0.730483
C84	C	1.334317	0.328285	1.063817
C85	C	0.706726	-0.383239	0.348651
C86	C	1.040060	-0.049906	0.681984
C87	C	1.373393	0.283427	1.015317
C88	C	0.663252	-0.428106	0.300164
C89	C	0.996586	-0.094773	0.633497
C90	C	1.329919	0.238560	0.966830
C91	C	0.580704	-0.428114	0.300186
C92	C	0.914037	-0.094781	0.633519
C93	C	1.247370	0.238553	0.966852
C94	C	0.793675	-0.293505	0.445610
C95	C	1.127008	0.039829	0.778944
C96	C	1.460341	0.373162	1.112277
C97	C	0.789280	-0.383231	0.348631
C98	C	1.122614	-0.049897	0.681964
C99	C	1.455947	0.283436	1.015298
C100	C	1.117118	-0.520857	0.405868
C101	C	1.450451	-0.187524	0.739202
C102	C	1.783785	0.145809	1.072535
C103	C	1.113402	-0.598923	0.409624
C104	C	1.446735	-0.265590	0.742958
C105	C	1.780069	0.067744	1.076291
C106	C	1.162236	-0.635595	0.360892
C107	C	1.495570	-0.302262	0.694225
C108	C	1.828903	0.031071	1.027559
C109	C	1.158746	-0.708946	0.364429
C110	C	1.492080	-0.375613	0.697763
C111	C	1.825413	-0.042280	1.031096
C112	C	1.106418	-0.745624	0.416696
C113	C	1.439751	-0.412290	0.750029
C114	C	1.773084	-0.078957	1.083362
C115	C	1.057581	-0.708947	0.465433
C116	C	1.390915	-0.375613	0.798767
C117	C	1.724248	-0.042280	1.132100
C118	C	1.061076	-0.635597	0.461899
C119	C	1.394409	-0.302264	0.795233
C120	C	1.727742	0.031070	1.128566
C121	C	1.093339	-0.967092	0.429896
C122	C	1.426673	-0.633759	0.763229
C123	C	1.760006	-0.300426	1.096563
C124	C	1.089847	-1.040447	0.433424
C125	C	1.423180	-0.707114	0.766758
C126	C	1.756513	-0.373781	1.100091
C127	C	1.191013	-1.040442	0.332421
C128	C	1.524347	-0.707109	0.665754
C129	C	1.857680	-0.373775	0.999088
C130	C	1.194500	-0.967091	0.328888
C131	C	1.527833	-0.633758	0.662222
C132	C	1.861167	-0.300424	0.995555
C133	C	1.145667	-0.930420	0.377629
C134	C	1.479000	-0.597087	0.710962
C135	C	1.812333	-0.263753	1.044296
C136	C	1.102847	-0.820600	0.420311
C137	C	1.436180	-0.487267	0.753644
C138	C	1.769514	-0.153934	1.086978
C139	C	1.149242	-0.855445	0.374017
C140	C	1.482575	-0.522112	0.707351
C141	C	1.815908	-0.188778	1.040684
C142	C	1.332140	-0.338401	0.397191
C143	C	1.665473	-0.005068	0.730525
C144	C	1.998807	0.328266	1.063858
C145	C	1.419996	-0.338411	0.397209
C146	C	1.753329	-0.005078	0.730542
C147	C	2.086663	0.328256	1.063876
C148	C	1.126009	-0.338319	0.603315
C149	C	1.459342	-0.004986	0.936649
C150	C	1.792675	0.328347	1.269982
C151	C	1.126024	-0.338295	0.691171
C152	C	1.459357	-0.004961	1.024504
C153	C	1.792690	0.328372	1.357837
C154	C	1.134884	-0.155185	0.388415
C155	C	1.468217	0.178148	0.721748
C156	C	1.801550	0.511482	1.055081
C157	C	1.138681	-0.077119	0.384692
C158	C	1.472014	0.256214	0.718025
C159	C	1.805348	0.589547	1.051359
C160	C	1.125985	-0.338385	0.191784
C161	C	1.459319	-0.005051	0.525117
C162	C	1.792652	0.328282	0.858450
C163	C	1.126133	-0.338212	0.103919
C164	C	1.459466	-0.004878	0.437253
C165	C	1.792799	0.328455	0.770586
C166	C	1.073387	-0.383132	1.064777
C167	C	1.406720	-0.049799	1.398110
C168	C	1.740053	0.283535	1.731444
C169	C	1.178857	-0.293309	1.060509
C170	C	1.512190	0.040024	1.393842
C171	C	1.845524	0.373357	1.727176
C172	C	1.178835	-0.293324	0.977964
C173	C	1.512169	0.040009	1.311297
C174	C	1.845502	0.373342	1.644630
C175	C	1.126089	-0.338244	0.938821
C176	C	1.459422	-0.004911	1.272155
C177	C	1.792756	0.328422	1.605488
C178	C	1.073365	-0.383150	0.982224
C179	C	1.406698	-0.049816	1.315558
C180	C	1.740031	0.283517	1.648891
C181	C	1.231564	-0.248425	0.934555
C182	C	1.564897	0.084909	1.267888
C183	C	1.898231	0.418242	1.601222
C184	C	1.231545	-0.248438	0.852005
C185	C	1.564878	0.084895	1.185338
C186	C	1.898212	0.418228	1.518671
C187	C	1.178794	-0.293356	0.812861
C188	C	1.512128	0.039978	1.146194
C189	C	1.845461	0.373311	1.479527
C190	C	1.126067	-0.338262	0.856269
C191	C	1.459401	-0.004929	1.189602
C192	C	1.792734	0.328405	1.522935
C193	C	1.073321	-0.383182	0.817126
C194	C	1.406655	-0.049849	1.150460
C195	C	1.739988	0.283484	1.483793
C196	C	1.020590	-0.428086	0.860533
C197	C	1.353923	-0.094752	1.193866
C198	C	1.687256	0.238581	1.527199
C199	C	1.020614	-0.428067	0.943080
C200	C	1.353948	-0.094733	1.276414
C201	C	1.687281	0.238600	1.609747
C202	C	1.178770	-0.293375	0.730313
C203	C	1.512103	0.039959	1.063646
C204	C	1.845436	0.373292	1.396980
C205	C	1.073299	-0.383200	0.734574
C206	C	1.406633	-0.049867	1.067907
C207	C	1.739966	0.283467	1.401240
H208	H	0.829067	-0.256976	0.485089
H209	H	1.162401	0.076357	0.818423
H210	H	1.495734	0.409691	1.151756
H211	H	0.545300	-0.464642	0.260710
H212	H	0.878633	-0.131309	0.594043
H213	H	1.211967	0.202025	0.927376
H214	H	1.230772	-1.070307	0.292740
H215	H	1.564105	-0.736974	0.626074
H216	H	1.897439	-0.403641	0.959407
Cl217	Cl	1.245060	-0.236934	0.675749
Cl218	Cl	1.578393	0.096399	1.009082
Cl219	Cl	1.911727	0.429733	1.342416
H220	H	0.695079	-0.464633	0.260680
H221	H	1.028412	-0.131300	0.594013
H222	H	1.361745	0.202034	0.927346
H223	H	1.047244	-1.070308	0.476000
H224	H	1.380577	-0.736975	0.809333
H225	H	1.713910	-0.403641	1.142666
H226	H	0.707438	-0.212124	0.533617
H227	H	1.040771	0.121209	0.866951
H228	H	1.374105	0.454543	1.200284
Cl229	Cl	0.404422	-0.439667	0.287754
Cl230	Cl	0.737756	-0.106333	0.621087
Cl231	Cl	1.071089	0.227000	0.954421
Cl232	Cl	0.414349	-0.237164	0.506665
Cl233	Cl	0.747682	0.096169	0.839998
Cl234	Cl	1.081015	0.429503	1.173332
Cl235	Cl	0.540369	-0.192292	0.555131
Cl236	Cl	0.873702	0.141041	0.888465
Cl237	Cl	1.207036	0.474375	1.221798
H238	H	1.191851	-0.825580	0.331465
H239	H	1.525184	-0.492247	0.664798
H240	H	1.858518	-0.158913	0.998132
H241	H	1.021311	-0.605739	0.501583
H242	H	1.354644	-0.272406	0.834917
H243	H	1.687977	0.060928	1.168250
Cl244	Cl	1.228020	-0.589494	0.295177
Cl245	Cl	1.561353	-0.256160	0.628511
Cl246	Cl	1.894687	0.077173	0.961844
Cl247	Cl	1.297874	-0.191963	0.983766
Cl248	Cl	1.631207	0.141370	1.317099
Cl249	Cl	1.964541	0.474704	1.650432
H250	H	1.221805	-0.256741	1.092384
H251	H	1.555138	0.076592	1.425717
H252	H	1.888471	0.409925	1.759050
H253	H	1.053576	-0.937241	0.469581
H254	H	1.386909	-0.603907	0.802914
H255	H	1.720242	-0.270574	1.136248
H256	H	1.060239	-0.850471	0.462865
H257	H	1.393573	-0.517138	0.796198
H258	H	1.726906	-0.183805	1.129531
Cl259	Cl	0.991800	-0.755056	0.531145
Cl260	Cl	1.325134	-0.421722	0.864478
Cl261	Cl	1.658467	-0.088389	1.197811
H262	H	1.030340	-0.419774	0.702710
H263	H	1.363673	-0.086440	1.036043
H264	H	1.697006	0.246893	1.369376
Cl265	Cl	1.220144	-0.755045	0.303165
Cl266	Cl	1.553477	-0.421712	0.636499
Cl267	Cl	1.886811	-0.088379	0.969832
Cl268	Cl	1.297831	-0.191987	0.797444
Cl269	Cl	1.631165	0.141346	1.130777
Cl270	Cl	1.964498	0.474680	1.464111
Cl271	Cl	1.260299	-0.920987	0.263191
Cl272	Cl	1.593632	-0.587654	0.596524
Cl273	Cl	1.926965	-0.254321	0.929857
H274	H	0.977647	-0.464663	0.828652
H275	H	1.310981	-0.131329	1.161986
H276	H	1.644314	0.202004	1.495319
Cl277	Cl	0.954334	-0.484515	0.997653
Cl278	Cl	1.287667	-0.151182	1.330986
Cl279	Cl	1.621001	0.182152	1.664319
H280	H	1.030452	-0.419689	1.100122
H281	H	1.363785	-0.086356	1.433455
H282	H	1.697119	0.246977	1.766789
H283	H	0.821090	-0.419757	0.309134
H284	H	1.154423	-0.086424	0.642467
H285	H	1.487757	0.246910	0.975800
