data_functionalizedCrystal
_audit_creation_method	'MofGen! by Chris Wilmer'
_symmetry_space_group_name_H-M	'P1'
_symmetry_Int_Tables_number	1
_symmetry_cell_setting	triclinic
loop_
_symmetry_equiv_pos_as_xyz
  x,y,z
_cell_length_a	15.297475
_cell_length_b	12.594516
_cell_length_c	15.296720
_cell_angle_alpha	99.650531
_cell_angle_beta	91.617114
_cell_angle_gamma	80.319586
loop_
_atom_site_label
_atom_site_type_symbol
_atom_site_fract_x
_atom_site_fract_y
_atom_site_fract_z
Zn1	Zn	1.253466	-0.828402	-0.726662
Zn2	Zn	1.278741	-0.981670	-0.580189
Zn3	Zn	1.132339	-0.768606	-0.554898
Zn4	Zn	1.106966	-0.971207	-0.701317
O5	O	1.192878	-0.887471	-0.640767
O6	O	1.379399	-0.878137	-0.728424
O7	O	1.280516	-0.932761	-0.454258
O8	O	1.148448	-0.627605	-0.577705
O9	O	1.397968	-0.990742	-0.620811
O10	O	1.237439	-0.671537	-0.703900
O11	O	1.172956	-0.776223	-0.435677
O12	O	1.006393	-0.766078	-0.553130
O13	O	1.105203	-0.972910	-0.827255
O14	O	0.987752	-0.914928	-0.660703
O15	O	1.212836	-0.867992	-0.845876
O16	O	1.255913	-1.129215	-0.596235
O17	O	1.129711	-1.121528	-0.685227
C18	C	0.965289	-0.832880	-0.601422
C19	C	0.867921	-0.809554	-0.584611
C20	C	0.554794	-1.054189	-0.760920
C21	C	0.646276	-1.076112	-0.776712
C22	C	0.701692	-1.009475	-0.728689
C23	C	0.665617	-0.920910	-0.664869
C24	C	0.574127	-0.898991	-0.649070
C25	C	0.721024	-0.854276	-0.616839
C26	C	0.684949	-0.765712	-0.553020
C27	C	0.593468	-0.743795	-0.537225
C28	C	0.538052	-0.810433	-0.585248
C29	C	0.812514	-0.876196	-0.632638
C30	C	0.831847	-0.720997	-0.520789
C31	C	0.740365	-0.699074	-0.504996
C32	C	1.192822	-1.163997	-0.640748
C33	C	1.192873	-1.282320	-0.640783
C34	C	1.124233	-1.347423	-0.689144
C35	C	1.116732	-1.399680	-0.605532
C36	C	1.200452	-1.440883	-0.724423
C37	C	1.185337	-1.333002	-0.557122
C38	C	1.269085	-1.374217	-0.676073
C39	C	1.261623	-1.426440	-0.592411
C40	C	1.421356	-0.942277	-0.680265
C41	C	1.518720	-0.965632	-0.697097
C42	C	1.153370	-0.925954	-0.869237
C43	C	1.136534	-0.942353	-0.966597
C44	C	1.192955	-0.609875	-0.640809
C45	C	1.192987	-0.491580	-0.640826
C46	C	1.313239	-0.770087	-1.279821
C47	C	1.329063	-0.754682	-1.188347
C48	C	1.280932	-0.801598	-1.132905
C49	C	1.216975	-0.863922	-1.168946
C50	C	1.201155	-0.879335	-1.260430
C51	C	1.168847	-0.910847	-1.113514
C52	C	1.104891	-0.973170	-1.149555
C53	C	1.089073	-0.988580	-1.241030
C54	C	1.137203	-0.941664	-1.296472
C55	C	1.184668	-0.895433	-1.022030
C56	C	1.072583	-1.004682	-1.002639
C57	C	1.056760	-1.020086	-1.094113
C58	C	1.232282	-0.849074	-0.413194
C59	C	1.249288	-0.832416	-0.315863
H60	H	0.675642	-1.148223	-0.828672
H61	H	1.124323	-0.954203	-1.370959
H62	H	0.509668	-1.108442	-0.800008
O63	O	0.790533	-1.030888	-0.744168
C64	C	0.810494	-1.123360	-0.810778
H65	H	0.748934	-1.134357	-0.852830
H66	H	0.865951	-1.111580	-0.854635
H67	H	0.832737	-1.198918	-0.778734
H68	H	0.564100	-0.671690	-0.485250
H69	H	0.710979	-0.626964	-0.453034
O70	O	0.449157	-0.789186	-0.570061
C71	C	0.404078	-0.768821	-0.648765
H72	H	0.448089	-0.808204	-0.708302
H73	H	0.340204	-0.804837	-0.653699
H74	H	0.387488	-0.676957	-0.647935
O75	O	0.847612	-0.962316	-0.694514
C76	C	0.909170	-1.035216	-0.653692
H77	H	0.893522	-1.023430	-0.579930
H78	H	0.904741	-1.122751	-0.685438
H79	H	0.979022	-1.018415	-0.662697
H80	H	0.876967	-0.666736	-0.481682
O81	O	1.054797	-1.306159	-0.737712
C82	C	0.974651	-1.318332	-0.700221
H83	H	0.985633	-1.325594	-0.627292
H84	H	0.922113	-1.244106	-0.706136
H85	H	0.951398	-1.395135	-0.736918
O86	O	1.039894	-1.414074	-0.570062
C87	C	0.995523	-1.481014	-0.633250
H88	H	1.045319	-1.532480	-0.683899
H89	H	0.962284	-1.537007	-0.598517
H90	H	0.943089	-1.427685	-0.668428
H91	H	1.178897	-1.286343	-0.486374
H92	H	1.037002	-1.039339	-1.270373
O93	O	1.359858	-0.724388	-1.333695
C94	C	1.300856	-0.652625	-1.378024
H95	H	1.236636	-0.624844	-1.338528
H96	H	1.332386	-0.578502	-1.384564
H97	H	1.285836	-0.696496	-1.446822
H98	H	1.319729	-1.460800	-0.551475
H99	H	1.333461	-1.362260	-0.705927
H100	H	1.206818	-1.487649	-0.795139
O101	O	1.246686	-0.834720	-0.987051
C102	C	1.223714	-0.727832	-1.006140
H103	H	1.149387	-0.709912	-1.019186
H104	H	1.241680	-0.666921	-0.947299
H105	H	1.261499	-0.720231	-1.067368
O106	O	1.296380	-0.786482	-1.044062
C107	C	1.363164	-0.721435	-1.024141
H108	H	1.366338	-0.671084	-1.078993
H109	H	1.347326	-0.664393	-0.958381
H110	H	1.429829	-0.776227	-1.018940
O111	O	1.391187	-0.694071	-1.153479
C112	C	1.430291	-0.655988	-1.222028
H113	H	1.383135	-0.654679	-1.281034
H114	H	1.444232	-0.569924	-1.197227
H115	H	1.495124	-0.712562	-1.243253
O116	O	0.994757	-1.080783	-1.129190
C117	C	1.035457	-1.170382	-1.190733
H118	H	1.109212	-1.188864	-1.175088
H119	H	1.003571	-1.244862	-1.186285
H120	H	1.026498	-1.149875	-1.260589
H121	H	1.033393	-1.042887	-0.957499
