data_functionalizedCrystal
_audit_creation_method	'MofGen! by Chris Wilmer'
_symmetry_space_group_name_H-M	'P1'
_symmetry_Int_Tables_number	1
_symmetry_cell_setting	triclinic
loop_
_symmetry_equiv_pos_as_xyz
  x,y,z
_cell_length_a	19.121275
_cell_length_b	19.121063
_cell_length_c	19.120904
_cell_angle_alpha	85.258387
_cell_angle_beta	85.036128
_cell_angle_gamma	89.926756
loop_
_atom_site_label
_atom_site_type_symbol
_atom_site_fract_x
_atom_site_fract_y
_atom_site_fract_z
Zn1	Zn	1.043498	-0.339785	0.367039
Zn2	Zn	1.543498	0.160215	0.867039
Zn3	Zn	1.043411	-0.452429	0.254393
Zn4	Zn	1.543411	0.047571	0.754393
Zn5	Zn	0.931289	-0.330197	0.253987
Zn6	Zn	1.431289	0.169803	0.753987
Zn7	Zn	0.920783	-0.452394	0.377035
Zn8	Zn	1.420783	0.047606	0.877035
O9	O	0.984745	-0.393701	0.313113
O10	O	1.484745	0.106299	0.813113
O11	O	1.141766	-0.358755	0.348083
O12	O	1.641766	0.141245	0.848083
O13	O	1.032898	-0.432216	0.155700
O14	O	1.532898	0.067784	0.655700
O15	O	0.950607	-0.233188	0.264630
O16	O	1.450607	0.266812	0.764630
O17	O	1.141702	-0.441513	0.265322
O18	O	1.641702	0.058487	0.765322
O19	O	1.033046	-0.240232	0.347688
O20	O	1.533046	0.259768	0.847688
O21	O	0.950523	-0.342413	0.155402
O22	O	1.450523	0.157587	0.655402
O23	O	0.831616	-0.342380	0.274323
O24	O	1.331616	0.157620	0.774323
O25	O	0.932700	-0.441454	0.474348
O26	O	1.432700	0.058546	0.974348
O27	O	0.823896	-0.432157	0.364726
O28	O	1.323896	0.067843	0.864726
O29	O	1.022859	-0.358721	0.467004
O30	O	1.522859	0.141279	0.967004
O31	O	1.022710	-0.550705	0.275015
O32	O	1.522710	-0.050705	0.775015
O33	O	0.932616	-0.550680	0.365120
O34	O	1.432616	-0.050680	0.865120
C35	C	0.802273	-0.386225	0.320565
C36	C	1.302273	0.113775	0.820565
C37	C	0.724209	-0.383044	0.323771
C38	C	1.224209	0.116956	0.823771
C39	C	0.687505	-0.424561	0.282118
C40	C	1.187505	0.075439	0.782118
C41	C	0.614155	-0.421573	0.285139
C42	C	1.114155	0.078427	0.785139
C43	C	0.577512	-0.377063	0.329810
C44	C	1.077512	0.122937	0.829810
C45	C	0.614221	-0.335544	0.371468
C46	C	1.114221	0.164456	0.871468
C47	C	0.687569	-0.338536	0.368450
C48	C	1.187569	0.161464	0.868450
C49	C	0.356049	-0.365879	0.341085
C50	C	0.856049	0.134121	0.841085
C51	C	0.282696	-0.362888	0.344098
C52	C	0.782696	0.137112	0.844098
C53	C	0.282635	-0.448919	0.257770
C54	C	0.782635	0.051081	0.757770
C55	C	0.355985	-0.451905	0.254753
C56	C	0.855985	0.048095	0.754753
C57	C	0.392688	-0.410388	0.296413
C58	C	0.892688	0.089612	0.796413
C59	C	0.502537	-0.374006	0.332898
C60	C	1.002537	0.125994	0.832898
C61	C	0.467661	-0.413449	0.293329
C62	C	0.967661	0.086551	0.793329
C63	C	0.976532	-0.576177	0.321211
C64	C	1.476532	-0.076177	0.821211
C65	C	0.973082	-0.654245	0.324697
C66	C	1.473082	-0.154245	0.824697
C67	C	1.018401	-0.690914	0.279457
C68	C	1.518401	-0.190914	0.779457
C69	C	1.015160	-0.764267	0.282739
C70	C	1.515160	-0.264267	0.782739
C71	C	0.966596	-0.800950	0.331257
C72	C	1.466596	-0.300950	0.831257
C73	C	0.921274	-0.764275	0.376501
C74	C	1.421274	-0.264275	0.876501
C75	C	0.924519	-0.690924	0.373223
C76	C	1.424519	-0.190924	0.873223
C77	C	0.954453	-1.022425	0.343506
C78	C	1.454453	-0.522425	0.843506
C79	C	0.951210	-1.095781	0.346780
C80	C	1.451210	-0.595781	0.846780
C81	C	1.045098	-1.095768	0.253018
C82	C	1.545098	-0.595768	0.753018
C83	C	1.048335	-1.022415	0.249740
C84	C	1.548335	-0.522415	0.749740
C85	C	1.003016	-0.985747	0.294987
C86	C	1.503016	-0.485747	0.794987
C87	C	0.963280	-0.875928	0.334611
C88	C	1.463280	-0.375928	0.834611
C89	C	1.006336	-0.910770	0.291636
C90	C	1.506336	-0.410770	0.791636
C91	C	1.167929	-0.401208	0.305633
C92	C	1.667929	0.098792	0.805633
C93	C	1.245992	-0.404406	0.302445
C94	C	1.745992	0.095594	0.802445
C95	C	0.976617	-0.401153	0.496967
C96	C	1.476617	0.098847	0.996967
C97	C	0.973154	-0.404329	0.575314
C98	C	1.473154	0.095671	1.075314
C99	C	0.993008	-0.210514	0.304999
C100	C	1.493008	0.289486	0.804999
C101	C	0.996530	-0.132450	0.301541
C102	C	1.496530	0.367550	0.801541
C103	C	0.992884	-0.386229	0.129971
C104	C	1.492884	0.113771	0.629971
C105	C	0.996492	-0.382861	0.051610
C106	C	1.496492	0.117139	0.551610
C107	C	1.018465	-0.362748	0.608300
C108	C	1.518465	0.137252	1.108300
C109	C	1.015202	-0.365729	0.681916
C110	C	1.515202	0.134271	1.181916
C111	C	0.966631	-0.410295	0.722545
C112	C	1.466631	0.089705	1.222545
C113	C	0.921315	-0.451877	0.689555
C114	C	1.421315	0.048123	1.189555
C115	C	0.924575	-0.448892	0.615940
C116	C	1.424575	0.051108	1.115940
C117	C	0.954437	-0.421459	0.945005
C118	C	1.454437	0.078541	1.445005
C119	C	0.951181	-0.424442	1.018625
C120	C	1.451181	0.075558	1.518625
C121	C	1.045068	-0.338293	1.010980
C122	C	1.545068	0.161707	1.510980
C123	C	1.048326	-0.335315	0.937364
C124	C	1.548326	0.164685	1.437364
C125	C	1.003008	-0.376894	0.904381
C126	C	1.503008	0.123106	1.404381
C127	C	0.963296	-0.413344	0.797792
C128	C	1.463296	0.086656	1.297792
C129	C	1.006340	-0.373841	0.829135
C130	C	1.506340	0.126159	1.329135
H131	H	0.717335	-0.460804	0.245739
H132	H	1.217335	0.039196	0.745739
H133	H	1.058018	-0.326460	0.575224
H134	H	1.558018	0.173540	1.075224
H135	H	1.052100	-0.331871	0.708769
H136	H	1.552100	0.168129	1.208769
C137	C	0.867880	-0.500893	0.734250
C138	C	1.367880	-0.000893	1.234250
N139	N	0.827631	-0.537812	0.767914
N140	N	1.327631	-0.037812	1.267914
C141	C	0.909853	-0.916285	0.387973
C142	C	1.409853	-0.416285	0.887973
N143	N	0.869611	-0.946685	0.428164
N144	N	1.369611	-0.446685	0.928164
H145	H	1.087879	-0.299027	0.904289
H146	H	1.587879	0.200973	1.404289
H147	H	1.057945	-0.661052	0.239945
H148	H	1.557945	-0.161052	0.739945
H149	H	0.917545	-0.455327	0.918159
H150	H	1.417545	0.044673	1.418159
H151	H	0.881735	-0.794148	0.416009
H152	H	1.381735	-0.294148	0.916009
C153	C	0.897788	-1.136131	0.400161
C154	C	1.397788	-0.636131	0.900161
N155	N	0.857552	-1.166522	0.440365
N156	N	1.357552	-0.666522	0.940365
H157	H	0.252863	-0.326637	0.380473
H158	H	0.752863	0.173363	0.880473
C159	C	0.874664	-0.650588	0.422990
C160	C	1.374664	-0.150588	0.922990
N161	N	0.837114	-0.620208	0.460478
N162	N	1.337114	-0.120208	0.960478
C163	C	1.059766	-0.324819	0.784440
C164	C	1.559766	0.175181	1.284440
N165	N	1.100009	-0.287899	0.750770
N166	N	1.600009	0.212101	1.250770
C167	C	1.094906	-0.292549	1.047268
C168	C	1.594906	0.207451	1.547268
N169	N	1.132443	-0.258089	1.074601
N170	N	1.632443	0.241911	1.574601
C171	C	0.396414	-0.320200	0.386904
C172	C	0.896414	0.179800	0.886904
N173	N	0.426819	-0.285789	0.421414
N174	N	0.926819	0.214211	0.921414
C175	C	0.897745	-0.473468	1.063316
C176	C	1.397745	0.026532	1.563316
N177	N	0.857500	-0.510392	1.096977
N178	N	1.357500	-0.010392	1.596977
H179	H	0.923753	-0.449633	0.830881
H180	H	1.423753	0.050367	1.330881
H181	H	0.584380	-0.299306	0.407843
H182	H	1.084380	0.200694	0.907843
C183	C	0.396287	-0.500869	0.205611
C184	C	0.896287	-0.000869	0.705611
N185	N	0.426643	-0.537748	0.168594
N186	N	0.926643	-0.037748	0.668594
H187	H	1.045879	-0.880902	0.252135
H188	H	1.545879	-0.380902	0.752135
H189	H	0.584274	-0.455381	0.251220
H190	H	1.084274	0.044619	0.751220
C191	C	0.874731	-0.494636	0.579657
C192	C	1.374731	0.005364	1.079657
N193	N	0.837185	-0.529090	0.552330
N194	N	1.337185	-0.029090	1.052330
H195	H	0.252744	-0.482721	0.223853
H196	H	0.752744	0.017279	0.723853
H197	H	0.497499	-0.449693	0.256961
H198	H	0.997499	0.050307	0.756961
C199	C	1.065012	-0.804600	0.232967
C200	C	1.565012	-0.304600	0.732967
N201	N	1.102561	-0.834978	0.195476
N202	N	1.602561	-0.334978	0.695476
C203	C	0.727944	-0.292861	0.414270
C204	C	1.227944	0.207139	0.914270
N205	N	0.758353	-0.258458	0.448785
N206	N	1.258353	0.241542	0.948785
C207	C	1.101743	-0.982069	0.196349
C208	C	1.601743	-0.482069	0.696349
N209	N	1.141962	-0.951679	0.156126
N210	N	1.641962	-0.451679	0.656126
H211	H	1.081995	-1.125631	0.216182
H212	H	1.581995	-0.625631	0.716182
H213	H	0.472693	-0.337765	0.369268
H214	H	0.972693	0.162235	0.869268
H215	H	0.917551	-0.992575	0.380346
H216	H	1.417551	-0.492575	0.880346
