data_functionalizedCrystal
_audit_creation_method	'MofGen! by Chris Wilmer'
_symmetry_space_group_name_H-M	'P1'
_symmetry_Int_Tables_number	1
_symmetry_cell_setting	triclinic
loop_
_symmetry_equiv_pos_as_xyz
  x,y,z
_cell_length_a	14.044191
_cell_length_b	14.044220
_cell_length_c	13.596369
_cell_angle_alpha	89.993157
_cell_angle_beta	89.997249
_cell_angle_gamma	93.190327
loop_
_atom_site_label
_atom_site_type_symbol
_atom_site_fract_x
_atom_site_fract_y
_atom_site_fract_z
O1	O	1.277174	0.230202	-0.081748
O2	O	1.610507	0.563535	0.251585
O3	O	1.943840	0.896868	0.584918
O4	O	1.000501	0.221889	-0.081761
O5	O	1.333834	0.555222	0.251573
O6	O	1.667168	0.888556	0.584906
O7	O	1.134685	0.087709	-0.081745
O8	O	1.468018	0.421043	0.251589
O9	O	1.801351	0.754376	0.584922
O10	O	1.142990	0.364381	-0.081764
O11	O	1.476324	0.697714	0.251569
O12	O	1.809657	1.031048	0.584903
O13	O	1.134669	0.087700	0.081838
O14	O	1.468003	0.421034	0.415171
O15	O	1.801336	0.754367	0.748505
O16	O	1.000486	0.221880	0.081822
O17	O	1.333819	0.555213	0.415156
O18	O	1.667153	0.888547	0.748489
O19	O	1.277158	0.230193	0.081835
O20	O	1.610492	0.563526	0.415168
O21	O	1.943825	0.896859	0.748501
Zn22	Zn	1.138820	0.226035	0.107801
Zn23	Zn	1.472153	0.559368	0.441134
Zn24	Zn	1.805486	0.892701	0.774468
Zn25	Zn	1.138840	0.226047	-0.107727
Zn26	Zn	1.472173	0.559380	0.225607
Zn27	Zn	1.805506	0.892713	0.558940
O28	O	1.142975	0.364372	0.081819
O29	O	1.476308	0.697705	0.415152
O30	O	1.809642	1.031039	0.748486
C31	C	0.964872	0.218248	0.000029
C32	C	1.298205	0.551581	0.333363
C33	C	1.631538	0.884914	0.666696
C34	C	0.858728	0.207401	0.000025
C35	C	1.192062	0.540734	0.333358
C36	C	1.525395	0.874067	0.666692
C37	C	0.613270	0.264501	0.000031
C38	C	0.946603	0.597834	0.333364
C39	C	1.279937	0.931168	0.666698
C40	C	0.664395	0.187585	0.000035
C41	C	0.997729	0.520918	0.333368
C42	C	1.331062	0.854251	0.666701
C43	C	0.772532	0.198613	0.000029
C44	C	1.105866	0.531946	0.333363
C45	C	1.439199	0.865280	0.666696
C46	C	0.505123	0.253474	0.000036
C47	C	0.838457	0.586808	0.333370
C48	C	1.171790	0.920141	0.666703
C49	C	1.131041	0.052083	0.000047
C50	C	1.464375	0.385416	0.333380
C51	C	1.797708	0.718750	0.666714
C52	C	1.120197	-0.054060	0.000048
C53	C	1.453530	0.279273	0.333381
C54	C	1.786863	0.612607	0.666714
C55	C	1.100370	-0.248398	0.000033
C56	C	1.433704	0.084935	0.333366
C57	C	1.767037	0.418268	0.666699
C58	C	1.177285	-0.299526	0.000033
C59	C	1.510618	0.033807	0.333366
C60	C	1.843952	0.367140	0.666700
C61	C	1.166253	-0.407663	0.000025
C62	C	1.499587	-0.074329	0.333358
C63	C	1.832920	0.259004	0.666691
C64	C	1.111400	-0.140252	0.000041
C65	C	1.444734	0.193081	0.333374
C66	C	1.778067	0.526415	0.666708
C67	C	1.312788	0.233834	0.000043
C68	C	1.646121	0.567167	0.333376
C69	C	1.979455	0.900500	0.666709
C70	C	1.418931	0.244681	0.000040
C71	C	1.752264	0.578014	0.333374
C72	C	2.085598	0.911348	0.666707
C73	C	1.146618	0.399998	0.000025
C74	C	1.479952	0.733332	0.333358
C75	C	1.813285	1.066665	0.666692
C76	C	1.157463	0.506142	0.000018
C77	C	1.490796	0.839475	0.333351
C78	C	1.824130	1.172808	0.666685
N79	N	1.138813	0.226027	0.254893
N80	N	1.472146	0.559360	0.588226
N81	N	1.805480	0.892693	0.921559
N82	N	1.138853	0.226048	-0.254819
N83	N	1.472187	0.559381	0.078515
N84	N	1.805520	0.892714	0.411848
C85	C	1.138839	0.226048	0.656184
C86	C	1.472172	0.559381	0.989517
C87	C	1.805505	0.892714	1.322850
C88	C	1.138829	0.226045	0.544532
C89	C	1.472162	0.559378	0.877866
C90	C	1.805496	0.892711	1.211199
C91	C	1.138826	0.226038	0.455542
C92	C	1.472160	0.559371	0.788875
C93	C	1.805493	0.892705	1.122208
C94	C	1.138816	0.226034	0.343883
C95	C	1.472149	0.559367	0.677217
C96	C	1.805482	0.892700	1.010550
H97	H	0.626952	0.113452	-0.000030
H98	H	0.960285	0.446786	0.333304
H99	H	1.293619	0.780119	0.666637
C100	C	0.663845	0.364645	0.000004
C101	C	0.997179	0.697979	0.333337
C102	C	1.330512	1.031312	0.666670
C103	C	0.773554	0.375674	-0.000015
C104	C	1.106887	0.709007	0.333319
C105	C	1.440221	1.042340	0.666652
C106	C	0.824143	0.475817	-0.000050
C107	C	1.157476	0.809150	0.333283
C108	C	1.490810	1.142483	0.666616
C109	C	0.765023	0.564931	-0.000068
C110	C	1.098357	0.898264	0.333266
C111	C	1.431690	1.231597	0.666599
C112	C	0.655309	0.553905	-0.000049
C113	C	0.988642	0.887239	0.333284
C114	C	1.321975	1.220572	0.666617
C115	C	0.604720	0.453762	-0.000014
C116	C	0.938053	0.787096	0.333320
C117	C	1.271386	1.120429	0.666653
H118	H	0.817323	0.309703	-0.000002
H119	H	1.150657	0.643037	0.333331
H120	H	1.483990	0.976370	0.666665
H121	H	0.905361	0.483978	-0.000064
H122	H	1.238695	0.817311	0.333269
H123	H	1.572028	1.150645	0.666603
H124	H	0.802472	0.639062	-0.000094
H125	H	1.135806	0.972396	0.333239
H126	H	1.469139	1.305729	0.666572
H127	H	0.611539	0.619875	-0.000062
H128	H	0.944872	0.953209	0.333271
H129	H	1.278206	1.286542	0.666605
H130	H	0.523501	0.445601	0.000000
H131	H	0.856835	0.778934	0.333333
H132	H	1.190168	1.112268	0.666667
C133	C	1.277438	-0.248954	0.000053
C134	C	1.610771	0.084379	0.333387
C135	C	1.944104	0.417713	0.666720
C136	C	1.288480	-0.139246	0.000071
C137	C	1.621813	0.194087	0.333404
C138	C	1.955146	0.527420	0.666737
C139	C	1.388628	-0.088669	0.000097
C140	C	1.721962	0.244664	0.333430
C141	C	2.055295	0.577997	0.666763
C142	C	1.477735	-0.147800	0.000106
C143	C	1.811068	0.185533	0.333439
C144	C	2.144402	0.518866	0.666772
C145	C	1.466696	-0.257514	0.000089
C146	C	1.800029	0.075819	0.333422
C147	C	2.133363	0.409153	0.666755
C148	C	1.366547	-0.308091	0.000063
C149	C	1.699881	0.025242	0.333396
C150	C	2.033214	0.358576	0.666729
H151	H	1.222515	-0.095469	0.000064
H152	H	1.555849	0.237865	0.333397
H153	H	1.889182	0.571198	0.666730
H154	H	1.396800	-0.007452	0.000109
H155	H	1.730133	0.325882	0.333443
H156	H	2.063466	0.659215	0.666776
H157	H	1.551871	-0.110360	0.000125
H158	H	1.885204	0.222973	0.333458
H159	H	2.218537	0.556306	0.666792
H160	H	1.532660	-0.301292	0.000095
H161	H	1.865994	0.032041	0.333429
H162	H	2.199327	0.365375	0.666762
H163	H	1.358376	-0.389309	0.000050
H164	H	1.691709	-0.055975	0.333383
H165	H	2.025043	0.277358	0.666717
H166	H	1.026242	-0.285837	0.000027
H167	H	1.359576	0.047496	0.333360
H168	H	1.692909	0.380830	0.666694
