data_functionalizedCrystal
_audit_creation_method	'MofGen! by Chris Wilmer'
_symmetry_space_group_name_H-M	'P1'
_symmetry_Int_Tables_number	1
_symmetry_cell_setting	triclinic
loop_
_symmetry_equiv_pos_as_xyz
  x,y,z
_cell_length_a	16.109293
_cell_length_b	16.109301
_cell_length_c	14.586319
_cell_angle_alpha	90.003802
_cell_angle_beta	89.993082
_cell_angle_gamma	96.540073
loop_
_atom_site_label
_atom_site_type_symbol
_atom_site_fract_x
_atom_site_fract_y
_atom_site_fract_z
O1	O	-1.103135	0.106835	0.076313
O2	O	-0.769802	0.440168	0.409646
O3	O	-0.436468	0.773502	0.742979
O4	O	-0.861072	0.120141	0.076299
O5	O	-0.527739	0.453474	0.409632
O6	O	-0.194405	0.786808	0.742965
O7	O	-0.988753	-0.007543	0.076300
O8	O	-0.655420	0.325790	0.409633
O9	O	-0.322086	0.659124	0.742967
O10	O	-0.975454	0.234519	0.076311
O11	O	-0.642121	0.567853	0.409645
O12	O	-0.308787	0.901186	0.742978
O13	O	-0.988744	-0.007545	-0.076181
O14	O	-0.655411	0.325788	0.257153
O15	O	-0.322078	0.659122	0.590486
O16	O	-0.861063	0.120139	-0.076182
O17	O	-0.527730	0.453473	0.257151
O18	O	-0.194397	0.786806	0.590485
O19	O	-1.103126	0.106833	-0.076168
O20	O	-0.769793	0.440166	0.257165
O21	O	-0.436459	0.773500	0.590499
Cu22	Cu	-0.982094	0.113486	-0.090098
Cu23	Cu	-0.648761	0.446819	0.243236
Cu24	Cu	-0.315427	0.780153	0.576569
Cu25	Cu	-0.982104	0.113488	0.090228
Cu26	Cu	-0.648771	0.446822	0.423562
Cu27	Cu	-0.315438	0.780155	0.756895
O28	O	-0.975445	0.234517	-0.076169
O29	O	-0.642112	0.567851	0.257164
O30	O	-0.308778	0.901184	0.590497
C31	C	-0.830093	0.119602	0.000056
C32	C	-0.496759	0.452936	0.333390
C33	C	-0.163426	0.786269	0.666723
C34	C	-0.737797	0.117990	0.000051
C35	C	-0.404464	0.451323	0.333384
C36	C	-0.071130	0.784656	0.666718
C37	C	-0.525450	0.114260	-0.083063
C38	C	-0.192117	0.447594	0.250270
C39	C	0.141216	0.780927	0.583603
C40	C	-0.438730	0.112736	-0.083063
C41	C	-0.105397	0.446069	0.250271
C42	C	0.227937	0.779403	0.583604
C43	C	-0.438750	0.112742	0.083180
C44	C	-0.105417	0.446076	0.416514
C45	C	0.227917	0.779409	0.749847
C46	C	-0.525470	0.114261	0.083179
C47	C	-0.192136	0.447594	0.416512
C48	C	0.141197	0.780927	0.749845
C49	C	-0.568817	0.115024	0.000054
C50	C	-0.235484	0.448357	0.333387
C51	C	0.097850	0.781690	0.666721
C52	C	-0.395377	0.111981	0.000056
C53	C	-0.062044	0.445315	0.333390
C54	C	0.271290	0.778648	0.666723
C55	C	-0.301351	0.110329	0.000058
C56	C	0.031982	0.443662	0.333391
C57	C	0.365316	0.776996	0.666724
C58	C	-0.662849	0.116675	0.000052
C59	C	-0.329516	0.450008	0.333386
C60	C	0.003817	0.783341	0.666719
C61	C	-0.988210	-0.038519	0.000060
C62	C	-0.654877	0.294814	0.333393
C63	C	-0.321543	0.628148	0.666727
C64	C	-0.986595	-0.130814	0.000061
C65	C	-0.653261	0.202519	0.333394
C66	C	-0.319928	0.535853	0.666728
C67	C	-1.057078	-0.439814	0.000081
C68	C	-0.723745	-0.106481	0.333414
C69	C	-0.390411	0.226852	0.666748
C70	C	-1.058603	-0.353094	0.000076
C71	C	-0.725270	-0.019761	0.333409
C72	C	-0.391937	0.313572	0.666743
C73	C	-0.907114	-0.333217	0.000055
C74	C	-0.573781	0.000117	0.333388
C75	C	-0.240448	0.333450	0.666722
C76	C	-0.905590	-0.419935	0.000054
C77	C	-0.572256	-0.086602	0.333387
C78	C	-0.238923	0.246731	0.666720
C79	C	-0.980574	-0.473232	0.000071
C80	C	-0.647241	-0.139899	0.333405
C81	C	-0.313908	0.193434	0.666738
C82	C	-0.983624	-0.299793	0.000067
C83	C	-0.650291	0.033540	0.333401
C84	C	-0.316957	0.366873	0.666734
C85	C	-0.985277	-0.205767	0.000062
C86	C	-0.651944	0.127566	0.333395
C87	C	-0.318611	0.460899	0.666728
C88	C	-0.978921	-0.567264	0.000075
C89	C	-0.645588	-0.233931	0.333409
C90	C	-0.312254	0.099402	0.666742
C91	C	-0.134105	0.107380	0.000069
C92	C	0.199229	0.440713	0.333402
C93	C	0.532562	0.774046	0.666736
C94	C	-0.226397	0.109015	0.000059
C95	C	0.106936	0.442349	0.333393
C96	C	0.440270	0.775682	0.666726
C97	C	-0.975988	0.265493	0.000073
C98	C	-0.642655	0.598826	0.333406
C99	C	-0.309322	0.932160	0.666739
C100	C	-0.977603	0.357788	0.000078
C101	C	-0.644270	0.691122	0.333411
C102	C	-0.310937	1.024455	0.666744
N103	N	-0.982093	0.113484	-0.216930
N104	N	-0.648759	0.446817	0.116404
N105	N	-0.315426	0.780151	0.449737
C106	C	-1.038648	0.056964	-0.451935
C107	C	-0.705315	0.390298	-0.118602
C108	C	-0.371982	0.723631	0.214731
C109	C	-1.038651	0.056962	-0.547917
C110	C	-0.705317	0.390296	-0.214583
C111	C	-0.371984	0.723629	0.118750
C112	C	-0.925550	0.170006	-0.547927
C113	C	-0.592217	0.503339	-0.214594
C114	C	-0.258884	0.836673	0.118739
C115	C	-0.925545	0.170003	-0.451948
C116	C	-0.592211	0.503337	-0.118614
C117	C	-0.258878	0.836670	0.214719
C118	C	-0.982098	0.113484	-0.403954
C119	C	-0.648765	0.446817	-0.070621
C120	C	-0.315432	0.780150	0.262712
C121	C	-0.982106	0.113484	-0.595915
C122	C	-0.648773	0.446817	-0.262582
C123	C	-0.315440	0.780151	0.070752
C124	C	-0.982109	0.113482	-0.699982
C125	C	-0.648775	0.446816	-0.366649
C126	C	-0.315442	0.780149	-0.033316
C127	C	-0.982095	0.113484	-0.299881
C128	C	-0.648762	0.446817	0.033453
C129	C	-0.315429	0.780151	0.366786
N130	N	-0.982112	0.113484	0.217060
N131	N	-0.648779	0.446817	0.550394
N132	N	-0.315446	0.780150	0.883727
H133	H	-0.403446	0.112122	0.150857
H134	H	-0.070113	0.445455	0.484191
H135	H	0.263221	0.778789	0.817524
O136	O	-0.572253	0.115087	0.172830
O137	O	-0.238920	0.448420	0.506164
O138	O	0.094413	0.781754	0.839497
H139	H	-0.527542	0.114314	0.230632
H140	H	-0.194209	0.447648	0.563966
H141	H	0.139124	0.780981	0.897299
H142	H	-0.403425	0.112115	-0.150745
H143	H	-0.070091	0.445448	0.182588
H144	H	0.263242	0.778781	0.515921
H145	H	-1.118135	-0.483207	0.000096
H146	H	-0.784802	-0.149874	0.333429
H147	H	-0.451469	0.183460	0.666762
O148	O	-0.572201	0.115084	-0.172718
O149	O	-0.238867	0.448417	0.160615
O150	O	0.094466	0.781751	0.493948
H151	H	-0.619144	0.059148	-0.176699
H152	H	-0.285810	0.392481	0.156634
H153	H	0.047523	0.725815	0.489967
H154	H	-1.120901	-0.325890	0.000082
H155	H	-0.787567	0.007443	0.333416
H156	H	-0.454234	0.340776	0.666749
H157	H	-0.879491	0.216029	-0.412879
H158	H	-0.546157	0.549362	-0.079546
H159	H	-0.212824	0.882695	0.253788
O160	O	-0.864566	0.230972	-0.599697
O161	O	-0.531233	0.564305	-0.266364
O162	O	-0.197900	0.897639	0.066969
H163	H	-0.875142	0.295785	-0.581256
H164	H	-0.541809	0.629118	-0.247923
H165	H	-0.208476	0.962451	0.085411
H166	H	-0.846065	-0.289812	0.000043
H167	H	-0.512731	0.043521	0.333376
H168	H	-0.179398	0.376855	0.666709
H169	H	-1.084698	0.010938	-0.586980
H170	H	-0.751365	0.344272	-0.253647
H171	H	-0.418031	0.677605	0.079686
O172	O	-0.823071	-0.455989	0.000042
O173	O	-0.489738	-0.122655	0.333376
O174	O	-0.156405	0.210678	0.666709
H175	H	-0.771186	-0.404361	0.000043
H176	H	-0.437853	-0.071027	0.333377
H177	H	-0.104519	0.262306	0.666710
O178	O	-1.099633	-0.004002	-0.400166
O179	O	-0.766299	0.329331	-0.066833
O180	O	-0.432966	0.662665	0.266500
H181	H	-1.138949	-0.043310	-0.449660
H182	H	-0.805616	0.290023	-0.116326
H183	H	-0.472282	0.623357	0.217007
