data_functionalizedCrystal
_audit_creation_method	'MofGen! by Chris Wilmer'
_symmetry_space_group_name_H-M	'P1'
_symmetry_Int_Tables_number	1
_symmetry_cell_setting	triclinic
loop_
_symmetry_equiv_pos_as_xyz
  x,y,z
_cell_length_a	15.995343
_cell_length_b	15.995350
_cell_length_c	14.048226
_cell_angle_alpha	89.995798
_cell_angle_beta	89.997860
_cell_angle_gamma	83.490779
loop_
_atom_site_label
_atom_site_type_symbol
_atom_site_fract_x
_atom_site_fract_y
_atom_site_fract_z
O1	O	1.110992	0.107897	-0.079060
O2	O	1.610992	0.607897	0.420940
O3	O	0.867216	0.121232	-0.079083
O4	O	1.367216	0.621232	0.420917
O5	O	0.995767	-0.007323	-0.079070
O6	O	1.495767	0.492677	0.420930
O7	O	0.982440	0.236452	-0.079073
O8	O	1.482440	0.736452	0.420927
O9	O	0.995752	-0.007331	0.079251
O10	O	1.495752	0.492669	0.579251
O11	O	0.867200	0.121224	0.079239
O12	O	1.367200	0.621224	0.579239
O13	O	1.110976	0.107890	0.079261
O14	O	1.610976	0.607890	0.579261
Zn15	Zn	0.989086	0.114556	0.104387
Zn16	Zn	1.489086	0.614556	0.604387
Zn17	Zn	0.989106	0.114566	-0.104208
Zn18	Zn	1.489106	0.614566	0.395792
O19	O	0.982424	0.236445	0.079248
O20	O	1.482424	0.736445	0.579248
C21	C	0.836013	0.120678	0.000075
C22	C	1.336013	0.620678	0.500075
C23	C	0.743062	0.119028	0.000067
C24	C	1.243062	0.619028	0.500067
C25	C	0.995209	-0.038522	0.000089
C26	C	1.495209	0.461478	0.500089
C27	C	0.993557	-0.131472	0.000083
C28	C	1.493557	0.368528	0.500083
C29	C	0.572876	0.116035	0.000079
C30	C	1.072876	0.616035	0.500079
C31	C	0.549530	0.023238	0.000080
C32	C	1.049530	0.523238	0.500080
C33	C	0.452852	0.021492	0.000445
C34	C	0.952852	0.521492	0.500445
C35	C	0.405316	0.113086	0.000091
C36	C	0.905316	0.613086	0.500091
C37	C	0.434399	0.159742	0.090320
C38	C	0.934399	0.659742	0.590320
C39	C	0.531191	0.160842	0.090390
C40	C	1.031191	0.660842	0.590390
C41	C	0.531119	0.162210	-0.089657
C42	C	1.031119	0.662210	0.410343
C43	C	0.434624	0.158784	-0.090838
C44	C	0.934624	0.658784	0.409162
C45	C	0.310618	0.111425	0.000100
C46	C	0.810618	0.611425	0.500100
C47	C	0.667574	0.117699	0.000076
C48	C	1.167574	0.617699	0.500076
C49	C	0.987625	-0.469220	0.000086
C50	C	1.487625	0.030780	0.500086
C51	C	0.896072	-0.421783	-0.000277
C52	C	1.396072	0.078217	0.499723
C53	C	0.897725	-0.325093	0.000080
C54	C	1.397725	0.174907	0.500080
C55	C	0.990567	-0.301659	0.000084
C56	C	1.490567	0.198341	0.500084
C57	C	1.035715	-0.342742	0.090496
C58	C	1.535715	0.157258	0.590496
C59	C	1.033415	-0.439378	0.090571
C60	C	1.533415	0.060622	0.590571
C61	C	1.035324	-0.439727	-0.089470
C62	C	1.535324	0.060273	0.410530
C63	C	1.035303	-0.342782	-0.090664
C64	C	1.535303	0.157218	0.409336
C65	C	0.992235	-0.206962	0.000086
C66	C	1.492235	0.293038	0.500086
C67	C	0.985960	-0.563917	0.000090
C68	C	1.485960	-0.063917	0.500090
C69	C	1.142179	0.108444	0.000101
C70	C	1.642179	0.608444	0.500101
C71	C	1.235130	0.110093	0.000104
C72	C	1.735130	0.610093	0.500104
C73	C	0.982983	0.267643	0.000087
C74	C	1.482983	0.767643	0.500087
C75	C	0.984635	0.360594	0.000087
C76	C	1.484635	0.860594	0.500087
N77	N	0.989078	0.114548	0.246747
N78	N	1.489078	0.614548	0.746747
N79	N	0.989121	0.114566	-0.246569
N80	N	1.489121	0.614566	0.253431
C81	C	1.046019	0.057648	0.296571
C82	C	1.546019	0.557648	0.796571
C83	C	1.046024	0.057647	0.396229
C84	C	1.546024	0.557647	0.896229
C85	C	0.989093	0.114552	0.446061
C86	C	1.489093	0.614552	0.946061
C87	C	0.932146	0.171455	0.396230
C88	C	1.432146	0.671455	0.896230
C89	C	0.932137	0.171451	0.296575
C90	C	1.432137	0.671451	0.796575
C91	C	0.932170	0.171461	0.603945
C92	C	1.432170	0.671461	1.103945
C93	C	0.932180	0.171467	0.703607
C94	C	1.432180	0.671467	1.203607
C95	C	1.046057	0.057657	0.703599
C96	C	1.546057	0.557657	1.203599
C97	C	1.046048	0.057653	0.603943
C98	C	1.546048	0.557653	1.103943
C99	C	0.989103	0.114558	0.554119
C100	C	1.489103	0.614558	1.054119
H101	H	0.433839	-0.015030	-0.064221
H102	H	0.933839	0.484970	0.435779
Cl103	Cl	0.842930	-0.281201	-0.099983
Cl104	Cl	1.342930	0.218799	0.400017
Cl105	Cl	0.594265	-0.031399	0.099831
Cl106	Cl	1.094265	0.468601	0.599831
H107	H	1.004345	-0.314363	0.157774
H108	H	1.504345	0.185637	0.657774
Cl109	Cl	0.860603	0.243006	0.766246
Cl110	Cl	1.360603	0.743006	1.266246
Cl111	Cl	0.592781	-0.032296	-0.099803
Cl112	Cl	1.092781	0.467704	0.400197
H113	H	0.861983	-0.297230	0.064994
H114	H	1.361983	0.202770	0.564994
H115	H	1.092424	0.011324	0.744171
H116	H	1.592424	0.511324	1.244171
H117	H	0.859486	-0.440311	-0.065114
H118	H	1.359486	0.059689	0.434886
H119	H	0.885769	0.217784	0.256009
H120	H	1.385769	0.717784	0.756009
Cl121	Cl	0.406012	0.106311	-0.193901
Cl122	Cl	0.906012	0.606311	0.306099
Cl123	Cl	0.424369	-0.034622	0.100905
Cl124	Cl	0.924369	0.465378	0.600905
Cl125	Cl	0.860577	0.242999	0.541313
Cl126	Cl	1.360577	0.742999	1.041313
Cl127	Cl	1.139539	-0.488768	-0.090406
Cl128	Cl	1.639539	0.011232	0.409594
Cl129	Cl	0.403374	0.110310	0.194390
Cl130	Cl	0.903374	0.610310	0.694390
Cl131	Cl	1.117598	-0.013891	0.233935
Cl132	Cl	1.617598	0.486109	0.733935
H133	H	0.859636	-0.441379	0.064191
H134	H	1.359636	0.058621	0.564191
H135	H	0.557970	0.128903	0.158095
H136	H	1.057970	0.628903	0.658095
Cl137	Cl	0.553696	0.265904	0.096336
Cl138	Cl	1.053696	0.765904	0.596336
Cl139	Cl	0.982562	-0.467641	0.194907
Cl140	Cl	1.482562	0.032359	0.694907
Cl141	Cl	0.989112	-0.471419	-0.195270
Cl142	Cl	1.489112	0.028581	0.304730
H143	H	0.885787	0.217786	0.436809
H144	H	1.385787	0.717786	0.936809
Cl145	Cl	0.385233	0.263820	0.095113
Cl146	Cl	0.885233	0.763820	0.595113
H147	H	0.559396	0.132936	-0.158070
H148	H	1.059396	0.632936	0.341930
Cl149	Cl	0.984758	-0.300216	-0.193946
Cl150	Cl	1.484758	0.199784	0.306054
Cl151	Cl	1.139835	-0.319064	-0.099094
Cl152	Cl	1.639835	0.180936	0.400906
H153	H	1.092389	0.011314	0.436795
H154	H	1.592389	0.511314	0.936795
H155	H	0.401668	0.225617	-0.096566
H156	H	0.901668	0.725617	0.403434
Cl157	Cl	1.141025	-0.320939	0.095698
Cl158	Cl	1.641025	0.179061	0.595698
H159	H	1.100631	-0.471628	0.094677
H160	H	1.600631	0.028372	0.594677
Cl161	Cl	0.552717	0.267677	-0.090977
Cl162	Cl	1.052717	0.767677	0.409023
Cl163	Cl	1.117625	-0.013879	0.541295
Cl164	Cl	1.617625	0.486121	1.041295
