data_functionalizedCrystal
_audit_creation_method	'MofGen! by Chris Wilmer'
_symmetry_space_group_name_H-M	'P1'
_symmetry_Int_Tables_number	1
_symmetry_cell_setting	triclinic
loop_
_symmetry_equiv_pos_as_xyz
  x,y,z
_cell_length_a	17.038278
_cell_length_b	17.038272
_cell_length_c	15.500235
_cell_angle_alpha	93.045329
_cell_angle_beta	86.963480
_cell_angle_gamma	91.111028
loop_
_atom_site_label
_atom_site_type_symbol
_atom_site_fract_x
_atom_site_fract_y
_atom_site_fract_z
O1	O	1.052150	0.167110	-0.071952
O2	O	1.552150	0.667110	0.428048
O3	O	0.824339	0.164404	-0.071953
O4	O	1.324339	0.664404	0.428047
O5	O	0.936890	0.051851	-0.071946
O6	O	1.436890	0.551851	0.428054
O7	O	0.939599	0.279662	-0.071959
O8	O	1.439599	0.779662	0.428041
O9	O	0.930088	0.058681	0.071942
O10	O	1.430088	0.558681	0.571942
O11	O	0.817537	0.171233	0.071935
O12	O	1.317537	0.671233	0.571935
O13	O	1.045348	0.173939	0.071936
O14	O	1.545348	0.673939	0.571936
Cu15	Cu	0.930821	0.173210	0.085074
Cu16	Cu	1.430821	0.673210	0.585074
Cu17	Cu	0.938865	0.165133	-0.085091
Cu18	Cu	1.438865	0.665133	0.414909
O19	O	0.932797	0.286492	0.071929
O20	O	1.432797	0.786492	0.571929
C21	C	0.791645	0.165356	-0.000009
C22	C	1.291645	0.665356	0.499991
C23	C	0.704361	0.158009	-0.000008
C24	C	1.204361	0.658009	0.499992
C25	C	0.210936	0.112871	-0.000009
C26	C	0.710936	0.612871	0.499991
C27	C	0.292947	0.119781	-0.000004
C28	C	0.792947	0.619781	0.499996
C29	C	0.329347	0.194154	-0.000013
C30	C	0.829347	0.694154	0.499987
C31	C	0.283731	0.261622	-0.000017
C32	C	0.783731	0.761622	0.499983
C33	C	0.201721	0.254712	-0.000016
C34	C	0.701721	0.754712	0.499984
C35	C	0.576735	0.218567	-0.000012
C36	C	1.076735	0.718567	0.499988
C37	C	0.658751	0.225472	-0.000015
C38	C	1.158751	0.725472	0.499985
C39	C	0.667962	0.083630	-0.000001
C40	C	1.167962	0.583630	0.499999
C41	C	0.585950	0.076726	-0.000005
C42	C	1.085950	0.576726	0.499995
C43	C	0.540340	0.144194	-0.000005
C44	C	1.040340	0.644194	0.499995
C45	C	0.413176	0.201219	-0.000010
C46	C	0.913176	0.701219	0.499990
C47	C	0.456513	0.137129	-0.000001
C48	C	0.956513	0.637129	0.499999
C49	C	0.931026	0.025973	-0.000002
C50	C	1.431026	0.525973	0.499998
C51	C	0.923678	-0.061310	-0.000002
C52	C	1.423678	0.438690	0.499998
C53	C	0.991142	-0.106920	-0.000001
C54	C	1.491142	0.393080	0.499999
C55	C	0.984233	-0.188932	-0.000009
C56	C	1.484233	0.311068	0.499991
C57	C	0.909860	-0.225333	-0.000012
C58	C	1.409860	0.274667	0.499988
C59	C	0.842392	-0.179717	-0.000016
C60	C	1.342392	0.320283	0.499984
C61	C	0.849301	-0.097706	-0.000014
C62	C	1.349301	0.402294	0.499986
C63	C	0.885450	-0.472721	-0.000024
C64	C	1.385450	0.027279	0.499976
C65	C	0.878545	-0.554737	-0.000024
C66	C	1.378545	-0.054737	0.499976
C67	C	1.020388	-0.563947	-0.000019
C68	C	1.520388	-0.063947	0.499981
C69	C	1.027291	-0.481934	-0.000011
C70	C	1.527291	0.018066	0.499989
C71	C	0.959822	-0.436326	-0.000020
C72	C	1.459822	0.063674	0.499980
C73	C	0.902797	-0.309162	-0.000018
C74	C	1.402797	0.190838	0.499982
C75	C	0.966887	-0.352498	-0.000020
C76	C	1.466887	0.147502	0.499980
C77	C	1.078042	0.172987	-0.000010
C78	C	1.578042	0.672987	0.499990
C79	C	1.165326	0.180334	-0.000016
C80	C	1.665326	0.680334	0.499984
C81	C	0.938661	0.312370	-0.000017
C82	C	1.438661	0.812370	0.499983
C83	C	0.946009	0.399653	-0.000023
C84	C	1.446009	0.899653	0.499977
N85	N	0.925169	0.178890	0.204758
N86	N	1.425169	0.678890	0.704758
N87	N	0.944523	0.159447	-0.204775
N88	N	1.444523	0.659447	0.295225
C89	C	0.896819	0.207125	0.749944
C90	C	1.396819	0.707125	1.249944
C91	C	0.901111	0.202846	0.659372
C92	C	1.401111	0.702846	1.159372
C93	C	0.953113	0.150891	0.614082
C94	C	1.453113	0.650891	1.114082
C95	C	1.000820	0.103207	0.659369
C96	C	1.500820	0.603207	1.159369
C97	C	0.996522	0.107484	0.749940
C98	C	1.496522	0.607484	1.249940
C99	C	0.968579	0.135483	0.340616
C100	C	1.468579	0.635483	0.840616
C101	C	0.972874	0.131212	0.250039
C102	C	1.472874	0.631212	0.750039
C103	C	0.873164	0.230850	0.250048
C104	C	1.373164	0.730850	0.750048
C105	C	0.868875	0.235125	0.340620
C106	C	1.368875	0.735125	0.840620
C107	C	0.916578	0.187438	0.385900
C108	C	1.416578	0.687438	0.885900
C109	C	0.957504	0.146517	0.521502
C110	C	1.457504	0.646517	1.021502
C111	C	0.912183	0.191809	0.478478
C112	C	1.412183	0.691809	0.978478
H113	H	0.442823	0.261774	-0.000020
H114	H	0.942823	0.761774	0.499980
H115	H	0.999846	0.104215	0.484620
H116	H	1.499846	0.604215	0.984620
Br117	Br	0.729863	-0.007929	0.000003
Br118	Br	1.229863	0.492071	0.500003
Br119	Br	1.071389	0.032689	0.597907
Br120	Br	1.571389	0.532689	1.097907
H121	H	1.087853	-0.452303	-0.000009
H122	H	1.587853	0.047697	0.499991
H123	H	0.164586	0.309648	-0.000018
H124	H	0.664586	0.809648	0.499982
H125	H	1.035367	0.068658	0.786806
H126	H	1.535367	0.568658	1.286806
H127	H	1.027442	-0.322858	-0.000037
H128	H	1.527442	0.177142	0.499963
Br129	Br	0.741456	-0.229117	-0.000034
Br130	Br	1.241456	0.270883	0.499966
H131	H	0.313374	0.322179	-0.000019
H132	H	0.813374	0.822179	0.499981
Br133	Br	0.793885	-0.410834	-0.000041
Br134	Br	1.293885	0.089166	0.499959
Br135	Br	0.808425	0.295563	0.188595
Br136	Br	1.308425	0.795563	0.688595
Br137	Br	1.043458	0.060699	0.188579
Br138	Br	1.543458	0.560699	0.688579
H139	H	0.794365	-0.060572	-0.000015
H140	H	1.294365	0.439428	0.499985
Br141	Br	0.514847	0.310131	-0.000022
Br142	Br	1.014847	0.810131	0.499978
H143	H	1.075316	-0.601090	-0.000014
H144	H	1.575316	-0.101090	0.499986
Br145	Br	1.092081	-0.057527	0.000016
Br146	Br	1.592081	0.442473	0.500016
H147	H	1.039169	-0.226064	-0.000007
H148	H	1.539169	0.273936	0.499993
H149	H	0.330080	0.064845	0.000005
H150	H	0.830080	0.564845	0.500005
Br151	Br	0.536557	-0.024215	-0.000031
Br152	Br	1.036557	0.475785	0.499969
Br153	Br	0.161544	0.011931	-0.000004
Br154	Br	0.661544	0.511931	0.499996
Br155	Br	0.836366	0.267550	0.597916
Br156	Br	1.336366	0.767550	1.097916
H157	H	0.688385	0.286039	-0.000010
H158	H	1.188385	0.786039	0.499990
H159	H	0.817978	-0.584371	-0.000012
H160	H	1.317978	-0.084371	0.499988
H161	H	1.007422	0.096656	0.377475
H162	H	1.507422	0.596656	0.877475
H163	H	0.869840	0.234108	0.515355
H164	H	1.369840	0.734108	1.015355
Br165	Br	0.407111	0.036198	0.000018
Br166	Br	0.907111	0.536198	0.500018
H167	H	0.854477	0.249436	0.786813
H168	H	1.354477	0.749436	1.286813
Br169	Br	0.798304	0.305638	0.402087
Br170	Br	1.298304	0.805638	0.902087
H171	H	0.842241	-0.338809	-0.000018
H172	H	1.342241	0.161191	0.499982
