data_functionalizedCrystal
_audit_creation_method	'MofGen! by Chris Wilmer'
_symmetry_space_group_name_H-M	'P1'
_symmetry_Int_Tables_number	1
_symmetry_cell_setting	triclinic
loop_
_symmetry_equiv_pos_as_xyz
  x,y,z
_cell_length_a	13.635800
_cell_length_b	11.102183
_cell_length_c	17.078481
_cell_angle_alpha	84.888595
_cell_angle_beta	99.306161
_cell_angle_gamma	71.396124
loop_
_atom_site_label
_atom_site_type_symbol
_atom_site_fract_x
_atom_site_fract_y
_atom_site_fract_z
V1	V	2.002845	-0.175542	0.247360
O2	O	1.983374	0.008741	0.242653
O3	O	1.991590	-0.348364	0.245667
O4	O	1.968158	-0.172708	0.355243
O5	O	2.006969	-0.168131	0.132318
V6	V	2.244340	-0.153515	0.233600
O7	O	2.134058	-0.223859	0.277543
O8	O	2.338226	-0.105198	0.203417
O9	O	2.143992	0.019306	0.235294
O10	O	2.322510	-0.337798	0.238308
O11	O	2.298915	-0.160926	0.348642
O12	O	2.167425	-0.156350	0.125718
V13	V	2.502845	-0.175542	0.247360
O14	O	2.483374	0.008741	0.242653
O15	O	2.491590	-0.348364	0.245667
O16	O	2.468158	-0.172708	0.355243
O17	O	2.506969	-0.168131	0.132318
V18	V	2.744340	-0.153515	0.233600
O19	O	2.634058	-0.223859	0.277543
O20	O	2.838226	-0.105198	0.203417
O21	O	2.643992	0.019306	0.235294
O22	O	2.822510	-0.337798	0.238308
O23	O	2.798915	-0.160926	0.348642
O24	O	2.667425	-0.156350	0.125718
C25	C	1.917579	-0.390498	0.241765
C26	C	1.948951	-0.531781	0.241099
C27	C	1.919858	-0.495678	0.095788
C28	C	1.920047	-0.544001	0.022823
C29	C	1.949527	-0.676750	0.022202
C30	C	1.978822	-0.761181	0.094554
C31	C	1.978632	-0.712858	0.167520
C32	C	1.949147	-0.580104	0.168133
C33	C	2.007732	-0.748961	0.312830
C34	C	1.978246	-0.616212	0.313452
C35	C	2.037027	-0.833392	0.385182
C36	C	2.036831	-0.785070	0.458149
C37	C	2.007348	-0.652312	0.458767
C38	C	1.978056	-0.567890	0.386417
C39	C	1.887688	-0.166430	0.381539
C40	C	1.900055	-0.165256	0.469734
C41	C	2.049675	0.061434	0.239194
C42	C	2.007922	0.202716	0.239864
C43	C	2.079566	-0.162632	0.099418
C44	C	2.056818	-0.163799	0.011222
C45	C	2.417579	-0.390498	0.241765
C46	C	2.448951	-0.531781	0.241099
C47	C	2.387688	-0.166430	0.381539
C48	C	2.400055	-0.165256	0.469734
C49	C	1.997006	-0.171049	0.515209
C50	C	2.008619	-0.169945	0.598077
C51	C	1.923283	-0.163058	0.635469
C52	C	1.826323	-0.157261	0.589987
C53	C	1.814708	-0.158355	0.507120
C54	C	1.948244	-0.159096	0.882872
C55	C	1.959867	-0.158006	0.965746
C56	C	2.142163	-0.170688	0.973831
C57	C	2.130541	-0.171790	0.890962
C58	C	2.033581	-0.165986	0.845487
N59	N	1.935152	-0.161934	0.720174
N60	N	2.021711	-0.167101	0.760782
C61	C	2.549675	0.061434	0.239194
C62	C	2.507922	0.202716	0.239864
C63	C	2.579566	-0.162632	0.099418
C64	C	2.556818	-0.163799	0.011222
C65	C	2.497011	-0.171037	0.515195
C66	C	2.508640	-0.169917	0.598062
C67	C	2.423315	-0.163026	0.635468
C68	C	2.326350	-0.157242	0.590000
C69	C	2.314719	-0.158352	0.507133
C70	C	2.459910	-0.170675	-0.026163
C71	C	2.438518	-0.171757	-0.109033
C72	C	2.514037	-0.165971	-0.154516
C73	C	2.610952	-0.159091	-0.117125
C74	C	2.632341	-0.158000	-0.034258
C75	C	2.631278	-0.544737	0.249008
C76	C	2.737174	-0.617588	0.252648
C77	C	2.766645	-0.750335	0.252023
C78	C	2.690209	-0.810235	0.247762
C79	C	2.584312	-0.737384	0.244122
C80	C	2.554851	-0.604634	0.244745
C81	C	2.401989	-0.724430	0.236219
C82	C	2.372515	-0.591681	0.236838
C83	C	2.325554	-0.784329	0.231958
C84	C	2.219653	-0.711477	0.228313
C85	C	2.190185	-0.578722	0.228936
C86	C	2.266619	-0.518830	0.233198
H87	H	1.896195	-0.475243	-0.036085
H88	H	2.607288	-0.436645	0.249505
C89	C	2.069459	-0.979418	0.384505
C90	C	2.006841	-1.056203	0.420366
C91	C	2.039272	-1.202231	0.419693
C92	C	2.134320	-1.271474	0.383158
C93	C	2.196944	-1.194690	0.347294
C94	C	2.164513	-1.048662	0.347967
H95	H	1.936475	-1.004945	0.447414
H96	H	1.992913	-1.259071	0.446242
H97	H	2.158327	-1.379573	0.382659
H98	H	2.267310	-1.245948	0.320246
H99	H	2.210872	-0.991821	0.321418
H100	H	1.895823	-0.387583	0.096285
H101	H	2.007209	-0.612979	0.518185
C102	C	1.949739	-0.729913	-0.058059
C103	C	1.917523	-0.637056	-0.137643
C104	C	1.917737	-0.690220	-0.217903
C105	C	1.950167	-0.836241	-0.218578
C106	C	1.982385	-0.929107	-0.138991
C107	C	1.982171	-0.875943	-0.058731
H108	H	1.893515	-0.528955	-0.137145
H109	H	1.893887	-0.621474	-0.276818
H110	H	1.950325	-0.875597	-0.277991
H111	H	2.006394	-1.037209	-0.139488
H112	H	2.006021	-0.944689	0.000184
H113	H	2.359600	-0.177359	-0.139464
H114	H	2.587602	-0.174633	0.635071
C115	C	2.115272	-0.176322	0.648096
C116	C	2.162527	-0.070851	0.629239
C117	C	2.269185	-0.077226	0.679254
C118	C	2.328587	-0.189070	0.748127
C119	C	2.281333	-0.294549	0.766988
C120	C	2.174675	-0.288175	0.716972
H121	H	2.118553	0.011950	0.578252
H122	H	2.304165	0.000857	0.665292
H123	H	2.407542	-0.193789	0.785151
H124	H	2.325307	-0.377350	0.817975
H125	H	2.139694	-0.366258	0.730935
C126	C	1.841592	-0.152725	0.832862
C127	C	1.741650	-0.036492	0.830144
C128	C	1.634991	-0.030123	0.780132
C129	C	1.628275	-0.139987	0.732839
C130	C	1.728221	-0.256228	0.735556
C131	C	1.834879	-0.262597	0.785567
H132	H	1.746618	0.044843	0.865155
H133	H	1.561005	0.055928	0.778121
H134	H	1.549320	-0.135272	0.695817
H135	H	1.723252	-0.337563	0.700545
H136	H	1.908866	-0.348648	0.787578
H137	H	2.002837	-0.869271	0.094043
H138	H	2.060690	-0.853823	0.517053
H139	H	1.954033	-0.459795	0.386913
H140	H	2.711256	-0.152408	-0.003825
H141	H	2.066500	-0.176666	0.484772
H142	H	2.432800	-0.162124	0.702944
H143	H	2.200033	-0.177397	0.860524
H144	H	2.221104	-0.175411	1.010866
H145	H	2.799403	-0.568803	0.256120
H146	H	1.890369	-0.152393	0.996187
H147	H	2.256883	-0.151632	0.620469
H148	H	1.756839	-0.151645	0.620437
H149	H	1.735754	-0.153607	0.470091
H150	H	2.398406	-0.175386	0.010859
H151	H	2.566499	-0.176651	0.484751
H152	H	2.852875	-0.809651	0.254991
H153	H	2.235766	-0.153647	0.470125
H154	H	2.496613	-0.166876	-0.221990
H155	H	2.672433	-0.154376	-0.154170
H156	H	2.714216	-0.918327	0.247264
H157	H	2.349557	-0.892421	0.231455
H158	H	2.157431	-0.760260	0.224848
H159	H	2.103955	-0.519415	0.225978
H160	H	2.242633	-0.410740	0.233701
