data_functionalizedCrystal
_audit_creation_method	'MofGen! by Chris Wilmer'
_symmetry_space_group_name_H-M	'P1'
_symmetry_Int_Tables_number	1
_symmetry_cell_setting	triclinic
loop_
_symmetry_equiv_pos_as_xyz
  x,y,z
_cell_length_a	18.050589
_cell_length_b	17.639617
_cell_length_c	17.639306
_cell_angle_alpha	65.670249
_cell_angle_beta	101.190077
_cell_angle_gamma	101.213932
loop_
_atom_site_label
_atom_site_type_symbol
_atom_site_fract_x
_atom_site_fract_y
_atom_site_fract_z
Zn1	Zn	-0.175797	1.354220	-0.721151
Zn2	Zn	0.324203	1.854220	-0.221151
Zn3	Zn	-0.279116	1.326268	-0.583326
Zn4	Zn	0.220884	1.826268	-0.083326
Zn5	Zn	-0.175769	1.188543	-0.555443
Zn6	Zn	0.324231	1.688543	-0.055443
Zn7	Zn	-0.320792	1.216330	-0.693195
Zn8	Zn	0.179208	1.716330	-0.193195
O9	O	-0.237869	1.271340	-0.638279
O10	O	0.262131	1.771340	-0.138279
O11	O	-0.172073	1.465858	-0.726237
O12	O	0.327927	1.965858	-0.226237
O13	O	-0.247953	1.284671	-0.464298
O14	O	0.252047	1.784671	0.035702
O15	O	-0.071841	1.210589	-0.577455
O16	O	0.428159	1.710589	-0.077455
O17	O	-0.247980	1.445321	-0.624978
O18	O	0.252020	1.945321	-0.124978
O19	O	-0.071862	1.332312	-0.699200
O20	O	0.428138	1.832312	-0.199200
O21	O	-0.172025	1.183485	-0.443813
O22	O	0.327975	1.683485	0.056187
O23	O	-0.212437	1.076883	-0.550348
O24	O	0.287563	1.576883	-0.050348
O25	O	-0.319012	1.257949	-0.812233
O26	O	0.180988	1.757949	-0.312233
O27	O	-0.318985	1.097299	-0.651553
O28	O	0.181015	1.597299	-0.151553
O29	O	-0.212485	1.359256	-0.832772
O30	O	0.287515	1.859256	-0.332772
O31	O	-0.388576	1.311615	-0.597870
O32	O	0.111424	1.811615	-0.097870
O33	O	-0.419196	1.230845	-0.678590
O34	O	0.080804	1.730845	-0.178590
C35	C	-0.270231	1.057183	-0.594892
C36	C	0.229769	1.557183	-0.094892
C37	C	-0.284096	0.965570	-0.576350
C38	C	0.215904	1.465570	-0.076350
C39	C	-0.132549	0.717773	-0.779342
C40	C	0.367451	1.217773	-0.279342
C41	C	-0.145594	0.631685	-0.761903
C42	C	0.354406	1.131685	-0.261903
C43	C	-0.224456	0.610291	-0.656310
C44	C	0.275544	1.110291	-0.156310
C45	C	-0.211421	0.696380	-0.673743
C46	C	0.288579	1.196380	-0.173743
C47	C	-0.165466	0.750114	-0.735260
C48	C	0.334534	1.250114	-0.235260
C49	C	-0.244337	0.728721	-0.629661
C50	C	0.255663	1.228721	-0.129661
C51	C	-0.231300	0.814802	-0.647090
C52	C	0.268700	1.314802	-0.147090
C53	C	-0.185345	0.868541	-0.708602
C54	C	0.314655	1.368541	-0.208602
C55	C	-0.152428	0.836195	-0.752689
C56	C	0.347572	1.336195	-0.252689
C57	C	-0.290288	0.674985	-0.568141
C58	C	0.209712	1.174985	-0.068141
C59	C	-0.323205	0.707326	-0.524058
C60	C	0.176795	1.207326	-0.024058
C61	C	-0.310172	0.793409	-0.541492
C62	C	0.189828	1.293409	-0.041492
C63	C	-0.264217	0.847148	-0.603003
C64	C	0.235783	1.347148	-0.103003
C65	C	-0.343089	0.825755	-0.497405
C66	C	0.156911	1.325755	0.002595
C67	C	-0.330051	0.911836	-0.514834
C68	C	0.169949	1.411836	-0.014834
C69	C	-0.251179	0.933228	-0.620432
C70	C	0.248821	1.433228	-0.120432
C71	C	-0.430834	1.271238	-0.638245
C72	C	0.069166	1.771238	-0.138245
C73	C	-0.513378	1.271275	-0.638273
C74	C	-0.013378	1.771275	-0.138273
C75	C	-0.729495	1.227402	-0.682161
C76	C	-0.229495	1.727402	-0.182161
C77	C	-0.770572	1.192116	-0.602891
C78	C	-0.270572	1.692116	-0.102891
C79	C	-0.664498	1.271358	-0.638301
C80	C	-0.164498	1.771358	-0.138301
C81	C	-0.770498	1.306687	-0.717587
C82	C	-0.270498	1.806687	-0.217587
C83	C	-0.810474	1.271438	-0.638333
C84	C	-0.310474	1.771438	-0.138333
C85	C	-0.704487	1.236025	-0.558984
C86	C	-0.204487	1.736025	-0.058984
C87	C	-0.704411	1.350640	-0.673737
C88	C	-0.204411	1.850640	-0.173737
C89	C	-0.745453	1.315372	-0.594421
C90	C	-0.245453	1.815372	-0.094421
C91	C	-0.580405	1.271310	-0.638282
C92	C	-0.080405	1.771310	-0.138282
C93	C	-0.894563	1.271485	-0.638343
C94	C	-0.394563	1.771485	-0.138343
C95	C	-0.044149	1.271469	-0.638335
C96	C	0.455851	1.771469	-0.138335
C97	C	0.038402	1.271524	-0.638360
C98	C	0.538402	1.771524	-0.138360
C99	C	-0.270400	1.314820	-0.853242
C100	C	0.229600	1.814820	-0.353242
C101	C	-0.284264	1.333348	-0.944847
C102	C	0.215736	1.833348	-0.444847
C103	C	-0.205381	1.486334	-0.681836
C104	C	0.294619	1.986334	-0.181836
C105	C	-0.191536	1.577951	-0.700397
C106	C	0.308464	2.077951	-0.200397
C107	C	-0.132227	1.130902	-1.192822
C108	C	0.367773	1.630902	-0.692822
C109	C	-0.145266	1.148331	-1.278903
C110	C	0.354734	1.648331	-0.778903
C111	C	-0.224322	1.253685	-1.300212
C112	C	0.275678	1.753685	-0.800212
C113	C	-0.211287	1.236268	-1.214133
C114	C	0.288713	1.736268	-0.714133
C115	C	-0.165239	1.174875	-1.160444
C116	C	0.334761	1.674875	-0.660444
C117	C	-0.244299	1.280240	-1.181754
C118	C	0.255701	1.780240	-0.681754
C119	C	-0.231267	1.262821	-1.095682
C120	C	0.268733	1.762821	-0.595682
C121	C	-0.185223	1.201429	-1.041987
C122	C	0.314777	1.701429	-0.541987
C123	C	-0.152207	1.157456	-1.074371
C124	C	0.347793	1.657456	-0.574371
C125	C	-0.290350	1.341629	-1.235443
C126	C	0.209650	1.841629	-0.735443
C127	C	-0.323362	1.385601	-1.203065
C128	C	0.176638	1.885601	-0.703065
C129	C	-0.310327	1.368187	-1.116992
C130	C	0.189673	1.868187	-0.616992
C131	C	-0.264283	1.306795	-1.063298
C132	C	0.235717	1.806795	-0.563298
C133	C	-0.343343	1.412160	-1.084608
C134	C	0.156657	1.912160	-0.584608
C135	C	-0.330311	1.394741	-0.998535
C136	C	0.169689	1.894741	-0.498535
C137	C	-0.251251	1.289376	-0.977225
C138	C	0.248749	1.789376	-0.477225
C139	C	-0.205403	1.228077	-0.424162
C140	C	0.294597	1.728077	0.075838
C141	C	-0.191306	1.209709	-0.332590
C142	C	0.308694	1.709709	0.167410
H143	H	-0.360618	0.663564	-0.473969
H144	H	0.139382	1.163564	0.026031
C145	C	-0.200593	1.221843	-0.918163
C146	C	0.299407	1.721843	-0.418163
N147	N	-0.162441	1.170979	-0.873677
N148	N	0.337559	1.670979	-0.373677
H149	H	-0.094722	1.080918	-1.149107
H150	H	0.405278	1.580918	-0.649107
H151	H	-0.114702	1.107472	-1.030656
H152	H	0.385298	1.607472	-0.530656
H153	H	-0.261817	1.303668	-1.343936
H154	H	0.238183	1.803668	-0.843936
H155	H	-0.213762	0.976983	-0.670528
H156	H	0.286238	1.476983	-0.170528
H157	H	-0.118377	1.112522	-1.305261
H158	H	0.381623	1.612522	-0.805261
H159	H	-0.675618	1.417641	-0.703717
H160	H	-0.175618	1.917641	-0.203717
H161	H	-0.174620	1.187242	-0.971901
H162	H	0.325380	1.687242	-0.471901
H163	H	-0.174728	0.938632	-0.722789
H164	H	0.325272	1.438632	-0.222789
C165	C	-0.719280	1.177074	-0.732158
C166	C	-0.219280	1.677074	-0.232158
N167	N	-0.711582	1.139164	-0.769810
N168	N	-0.211582	1.639164	-0.269810
H169	H	-0.118781	0.605357	-0.797800
H170	H	0.381219	1.105357	-0.297800
C171	C	-0.304681	1.360792	-1.330127
C172	C	0.195319	1.860792	-0.830127
N173	N	-0.315471	1.375227	-1.401443
N174	N	0.184529	1.875227	-0.901443
H175	H	-0.360857	1.435584	-1.246789
H176	H	0.139143	1.935584	-0.746789
H177	H	-0.380841	1.462140	-1.128332
H178	H	0.119159	1.962140	-0.628332
H179	H	-0.357181	1.430559	-0.972175
H180	H	0.142819	1.930559	-0.472175
C181	C	-0.393632	0.766636	-0.429734
C182	C	0.106368	1.266636	0.070266
N183	N	-0.431703	0.722107	-0.378764
N184	N	0.068297	1.222107	0.121236
H185	H	-0.752860	1.352568	-0.557290
H186	H	-0.252860	1.852568	-0.057290
H187	H	-0.799221	1.336534	-0.784625
H188	H	-0.299221	1.836534	-0.284625
H189	H	-0.799374	1.125108	-0.572944
H190	H	-0.299374	1.625108	-0.072944
C191	C	-0.101880	0.895309	-0.820365
C192	C	0.398120	1.395309	-0.320365
N193	N	-0.063808	0.939833	-0.871335
N194	N	0.436192	1.439833	-0.371335
H195	H	-0.261869	0.566529	-0.606221
H196	H	0.238131	1.066529	-0.106221
C197	C	-0.304630	0.580294	-0.548971
C198	C	0.195370	1.080294	-0.048971
N199	N	-0.315433	0.508973	-0.534535
N200	N	0.184567	1.008973	-0.034535
C201	C	-0.082001	0.776887	-0.847018
C202	C	0.417999	1.276887	-0.347018
N203	N	-0.043929	0.821411	-0.897989
N204	N	0.456071	1.321411	-0.397989
H205	H	-0.356856	0.938168	-0.478937
H206	H	0.143144	1.438168	0.021063
H207	H	-0.675862	1.206100	-0.491912
H208	H	-0.175862	1.706100	0.008088
