data_functionalizedCrystal
_audit_creation_method	'MofGen! by Chris Wilmer'
_symmetry_space_group_name_H-M	'P1'
_symmetry_Int_Tables_number	1
_symmetry_cell_setting	triclinic
loop_
_symmetry_equiv_pos_as_xyz
  x,y,z
_cell_length_a	13.897447
_cell_length_b	13.032831
_cell_length_c	13.897441
_cell_angle_alpha	97.193526
_cell_angle_beta	90.029327
_cell_angle_gamma	82.824382
loop_
_atom_site_label
_atom_site_type_symbol
_atom_site_fract_x
_atom_site_fract_y
_atom_site_fract_z
Zn1	Zn	-0.571545	1.597699	0.732379
Zn2	Zn	-0.321545	1.847699	0.982379
Zn3	Zn	-0.071545	2.097699	1.232379
Zn4	Zn	0.178455	2.347699	1.482379
Zn5	Zn	-0.732853	1.597579	0.571070
Zn6	Zn	-0.482853	1.847579	0.821070
Zn7	Zn	-0.232853	2.097579	1.071070
Zn8	Zn	0.017147	2.347579	1.321070
Zn9	Zn	-0.551071	1.422933	0.550643
Zn10	Zn	-0.301071	1.672933	0.800643
Zn11	Zn	-0.051071	1.922933	1.050643
Zn12	Zn	0.198929	2.172933	1.300643
Zn13	Zn	-0.712280	1.422908	0.711880
Zn14	Zn	-0.462280	1.672908	0.961880
Zn15	Zn	-0.212280	1.922908	1.211880
Zn16	Zn	0.037720	2.172908	1.461880
O17	O	-0.641937	1.510280	0.641493
O18	O	-0.391937	1.760280	0.891493
O19	O	-0.141937	2.010280	1.141493
O20	O	0.108063	2.260280	1.391493
O21	O	-0.610121	1.743924	0.728109
O22	O	-0.360121	1.993924	0.978109
O23	O	-0.110121	2.243924	1.228109
O24	O	0.139879	2.493924	1.478109
O25	O	-0.708780	1.574372	0.433374
O26	O	-0.458780	1.824372	0.683374
O27	O	-0.208780	2.074372	0.933374
O28	O	0.041220	2.324372	1.183374
O29	O	-0.418812	1.446177	0.574781
O30	O	-0.168812	1.696177	0.824781
O31	O	0.081188	1.946177	1.074781
O32	O	0.331188	2.196177	1.324781
O33	O	-0.728633	1.743836	0.609596
O34	O	-0.478633	1.993836	0.859596
O35	O	-0.228633	2.243836	1.109596
O36	O	0.021367	2.493836	1.359596
O37	O	-0.433855	1.574577	0.708302
O38	O	-0.183855	1.824577	0.958302
O39	O	0.066145	2.074577	1.208302
O40	O	0.316145	2.324577	1.458302
O41	O	-0.575226	1.446060	0.418367
O42	O	-0.325226	1.696060	0.668367
O43	O	-0.075226	1.946060	0.918367
O44	O	0.174774	2.196060	1.168367
O45	O	-0.555278	1.276689	0.554904
O46	O	-0.305278	1.526689	0.804904
O47	O	-0.055278	1.776689	1.054904
O48	O	0.194722	2.026689	1.304904
O49	O	-0.693571	1.446134	0.849585
O50	O	-0.443571	1.696134	1.099585
O51	O	-0.193571	1.946134	1.349585
O52	O	0.056429	2.196134	1.599585
O53	O	-0.673717	1.276670	0.673363
O54	O	-0.423717	1.526670	0.923363
O55	O	-0.173717	1.776670	1.173363
O56	O	0.076283	2.026670	1.423363
O57	O	-0.590173	1.574553	0.864646
O58	O	-0.340173	1.824553	1.114646
O59	O	-0.090173	2.074553	1.364646
O60	O	0.159827	2.324553	1.614646
O61	O	-0.865098	1.574347	0.589718
O62	O	-0.615098	1.824347	0.839718
O63	O	-0.365098	2.074347	1.089718
O64	O	-0.115098	2.324347	1.339718
O65	O	-0.849984	1.446017	0.693170
O66	O	-0.599984	1.696017	0.943170
O67	O	-0.349984	1.946017	1.193170
O68	O	-0.099984	2.196017	1.443170
C69	C	-0.610044	1.238761	0.609693
C70	C	-0.360044	1.488761	0.859693
C71	C	-0.110044	1.738761	1.109693
C72	C	0.139956	1.988761	1.359693
C73	C	-0.596423	1.122604	0.596112
C74	C	-0.346423	1.372604	0.846112
C75	C	-0.096423	1.622604	1.096112
C76	C	0.153577	1.872604	1.346112
C77	C	-0.892542	1.510195	0.641461
C78	C	-0.642542	1.760195	0.891461
C79	C	-0.392542	2.010195	1.141461
C80	C	-0.142542	2.260195	1.391461
C81	C	-0.999763	1.510254	0.641490
C82	C	-0.749763	1.760254	0.891490
C83	C	-0.499763	2.010254	1.141490
C84	C	-0.249763	2.260254	1.391490
C85	C	-0.649046	1.070836	0.648581
C86	C	-0.399046	1.320836	0.898581
C87	C	-0.149046	1.570836	1.148581
C88	C	0.100954	1.820836	1.398581
C89	C	-0.634970	0.950781	0.634545
C90	C	-0.384970	1.200781	0.884545
C91	C	-0.134970	1.450781	1.134545
C92	C	0.115030	1.700781	1.384545
C93	C	-1.086838	1.510305	0.641518
C94	C	-0.836838	1.760305	0.891518
C95	C	-0.586838	2.010305	1.141518
C96	C	-0.336838	2.260305	1.391518
C97	C	-1.196079	1.510378	0.641551
C98	C	-0.946079	1.760378	0.891551
C99	C	-0.696079	2.010378	1.141551
C100	C	-0.446079	2.260378	1.391551
C101	C	-0.390358	1.510394	0.641550
C102	C	-0.140358	1.760394	0.891550
C103	C	0.109642	2.010394	1.141550
C104	C	0.359642	2.260394	1.391550
C105	C	-0.283150	1.510442	0.641574
C106	C	-0.033150	1.760442	0.891574
C107	C	0.216850	2.010442	1.141574
C108	C	0.466850	2.260442	1.391574
C109	C	-0.641861	1.510354	0.893095
C110	C	-0.391861	1.760354	1.143095
C111	C	-0.141861	2.010354	1.393095
C112	C	0.108139	2.260354	1.643095
C113	C	-0.641828	1.510386	1.000312
C114	C	-0.391828	1.760386	1.250312
C115	C	-0.141828	2.010386	1.500312
C116	C	0.108172	2.260386	1.750312
C117	C	-0.673956	1.782859	0.673417
C118	C	-0.423956	2.032859	0.923417
C119	C	-0.173956	2.282859	1.173417
C120	C	0.076044	2.532859	1.423417
C121	C	-0.687600	1.899016	0.687022
C122	C	-0.437600	2.149016	0.937022
C123	C	-0.187600	2.399016	1.187022
C124	C	0.062400	2.649016	1.437022
C125	C	-0.641951	1.510266	0.390877
C126	C	-0.391951	1.760266	0.640877
C127	C	-0.141951	2.010266	0.890877
C128	C	0.108049	2.260266	1.140877
C129	C	-0.641736	1.510437	0.283684
C130	C	-0.391736	1.760437	0.533684
C131	C	-0.141736	2.010437	0.783684
C132	C	0.108264	2.260437	1.033684
C133	C	-0.641766	1.510414	1.196611
C134	C	-0.391766	1.760414	1.446611
C135	C	-0.141766	2.010414	1.696611
C136	C	0.108234	2.260414	1.946611
C137	C	-0.641803	1.510395	1.087376
C138	C	-0.391803	1.760395	1.337376
C139	C	-0.141803	2.010395	1.587376
C140	C	0.108197	2.260395	1.837376
H141	H	-0.704517	1.115395	0.703896
H142	H	-0.454517	1.365395	0.953896
H143	H	-0.204517	1.615395	1.203896
H144	H	0.045483	1.865395	1.453896
H145	H	-0.540946	1.078045	0.540805
H146	H	-0.290946	1.328045	0.790805
H147	H	-0.040946	1.578045	1.040805
H148	H	0.209054	1.828045	1.290805
N149	N	-0.565367	0.894881	0.565164
N150	N	-0.315367	1.144881	0.815164
N151	N	-0.065367	1.394881	1.065164
N152	N	0.184633	1.644881	1.315164
N153	N	-0.554027	0.797436	0.553865
N154	N	-0.304027	1.047436	0.803865
N155	N	-0.054027	1.297436	1.053865
N156	N	0.195973	1.547436	1.303865
H157	H	-0.504870	0.757954	0.504867
H158	H	-0.254870	1.007954	0.754867
H159	H	-0.004870	1.257954	1.004867
H160	H	0.245130	1.507954	1.254867
H161	H	-0.743073	0.943570	0.742343
H162	H	-0.493073	1.193570	0.992343
H163	H	-0.243073	1.443570	1.242343
H164	H	0.006927	1.693570	1.492343
