data_functionalizedCrystal
_audit_creation_method	'MofGen! by Chris Wilmer'
_symmetry_space_group_name_H-M	'P1'
_symmetry_Int_Tables_number	1
_symmetry_cell_setting	triclinic
loop_
_symmetry_equiv_pos_as_xyz
  x,y,z
_cell_length_a	14.044220
_cell_length_b	12.811457
_cell_length_c	11.892095
_cell_angle_alpha	91.498327
_cell_angle_beta	94.243827
_cell_angle_gamma	88.595730
loop_
_atom_site_label
_atom_site_type_symbol
_atom_site_fract_x
_atom_site_fract_y
_atom_site_fract_z
O1	O	0.130897	1.401369	0.049656
O2	O	0.142797	1.099114	0.018668
O3	O	-0.001185	1.245704	0.033708
O4	O	0.274879	1.254779	0.034616
O5	O	0.010802	1.233480	0.220461
O6	O	0.154783	1.086890	0.205421
O7	O	0.142883	1.389144	0.236410
Zn8	Zn	0.150736	1.236077	0.250566
Zn9	Zn	0.134944	1.252182	0.004511
O10	O	0.286865	1.242555	0.221369
C11	C	0.147756	1.054087	0.108055
C12	C	0.144663	0.938129	0.096167
C13	C	0.151903	0.706904	0.277449
C14	C	0.148997	0.597952	0.266284
C15	C	0.135939	0.611270	0.062675
C16	C	0.138845	0.720222	0.073839
C17	C	0.146828	0.768035	0.181229
C18	C	0.149741	0.876990	0.192393
C19	C	0.136676	0.890306	-0.011216
C20	C	0.133770	0.781354	-0.022380
C21	C	-0.030548	1.235620	0.126678
C22	C	-0.135899	1.223773	0.125465
C23	C	-0.328789	1.202114	0.123228
C24	C	-0.385537	1.286141	0.131839
C25	C	-0.492868	1.274090	0.130595
C26	C	-0.221448	1.214164	0.124472
C27	C	0.316228	1.252639	0.128397
C28	C	0.421578	1.264487	0.129603
C29	C	0.137924	1.434172	0.147020
C30	C	0.141016	1.550130	0.158901
N31	N	0.161514	1.225092	0.418493
N32	N	0.124159	1.263174	-0.163415
C33	C	0.049111	1.339602	0.666890
C34	C	0.056651	1.331932	0.784445
C35	C	0.184129	1.202079	0.771160
C36	C	0.176589	1.209748	0.653605
C37	C	0.109079	1.278513	0.601475
C38	C	0.101544	1.286188	0.483918
C39	C	0.229017	1.156329	0.470635
C40	C	0.236557	1.148659	0.588190
H41	H	0.158416	0.745833	0.364890
H42	H	0.132550	0.940091	-0.089565
H43	H	-0.353516	1.367134	0.140067
H44	H	0.291520	1.092669	0.630648
H45	H	0.277849	1.106590	0.417360
H46	H	-0.360813	1.121132	0.114922
H47	H	0.046576	1.342183	0.441475
H48	H	-0.005853	1.395601	0.624446
H49	H	0.129423	0.572322	-0.024757
H50	H	0.156247	0.915917	0.279835
H51	H	0.239088	1.146084	0.813619
H52	H	0.153134	0.548182	0.344636
H53	H	0.127266	0.742409	-0.109814
H54	H	0.007818	1.381676	0.837704
