data_functionalizedCrystal
_audit_creation_method	'MofGen! by Chris Wilmer'
_symmetry_space_group_name_H-M	'P1'
_symmetry_Int_Tables_number	1
_symmetry_cell_setting	triclinic
loop_
_symmetry_equiv_pos_as_xyz
  x,y,z
_cell_length_a	12.594516
_cell_length_b	12.594517
_cell_length_c	12.645323
_cell_angle_alpha	90.023683
_cell_angle_beta	90.023946
_cell_angle_gamma	90.015485
loop_
_atom_site_label
_atom_site_type_symbol
_atom_site_fract_x
_atom_site_fract_y
_atom_site_fract_z
Zn1	Zn	-0.423750	1.627282	0.599482
Zn2	Zn	-0.601753	1.627169	0.422225
Zn3	Zn	-0.423787	1.449282	0.422223
Zn4	Zn	-0.601685	1.449268	0.599437
O5	O	-0.512744	1.538250	0.510841
O6	O	-0.447375	1.776213	0.575988
O7	O	-0.578190	1.603530	0.273877
O8	O	-0.274836	1.472947	0.445755
O9	O	-0.578153	1.776130	0.445757
O10	O	-0.274809	1.603723	0.575986
O11	O	-0.447439	1.472837	0.273876
O12	O	-0.447373	1.300334	0.445711
O13	O	-0.578037	1.472924	0.747790
O14	O	-0.578074	1.300324	0.575910
O15	O	-0.447309	1.603711	0.747823
O16	O	-0.750690	1.603517	0.445714
O17	O	-0.750640	1.472814	0.575911
C18	C	-0.512721	1.261709	0.510806
C19	C	-0.512736	1.143404	0.510816
C20	C	-0.441570	1.003362	0.440163
C21	C	-0.415641	1.074223	0.536898
C22	C	-0.538618	1.074114	0.414092
C23	C	-0.486799	1.003480	0.607680
C24	C	-0.609821	1.003365	0.484808
C25	C	-0.583928	1.074194	0.581610
C26	C	-0.789285	1.538181	0.510831
C27	C	-0.907590	1.538248	0.510862
C28	C	-0.976855	1.467152	0.581626
C29	C	-1.047716	1.441216	0.484893
C30	C	-1.047528	1.564281	0.607612
C31	C	-0.976893	1.512261	0.414078
C32	C	-0.976699	1.635371	0.536861
C33	C	-1.047528	1.609472	0.440062
C34	C	-0.235123	1.538349	0.510875
C35	C	-0.116817	1.538392	0.510889
C36	C	-0.512661	1.538329	0.787347
C37	C	-0.512626	1.538362	0.905177
C38	C	-0.512768	1.815871	0.510878
C39	C	-0.512778	1.934177	0.510893
C40	C	-0.512749	1.538233	0.235412
C41	C	-0.512484	1.538406	0.117582
C42	C	-0.594480	1.455831	1.072720
C43	C	-0.594885	1.456047	0.950160
C44	C	-0.543068	1.650513	0.949699
C45	C	-0.543582	1.650061	1.072298
C46	C	-0.399873	1.509803	1.072373
C47	C	-0.400549	1.507301	0.949766
H48	H	-0.644129	1.105097	0.641460
C49	C	-0.362392	1.401237	1.114108
N50	N	-0.334173	1.319460	1.145543
H51	H	-0.624526	1.675173	0.919012
H52	H	-0.575613	1.372420	1.102192
C53	C	-0.934920	1.385784	0.662349
N54	N	-0.903330	1.324495	0.723143
C55	C	-0.720679	0.961275	0.454994
N56	N	-0.804177	0.929570	0.432526
C57	C	-0.360182	0.961337	0.359507
N58	N	-0.298878	0.929681	0.298763
C59	C	-0.934507	1.746207	0.566612
N60	N	-0.902720	1.829687	0.589035
H61	H	-0.464830	0.972580	0.689535
C62	C	-0.313647	1.582601	0.908379
N63	N	-0.248193	1.639320	0.877199
H64	H	-0.945994	1.490205	0.332246
H65	H	-0.338783	1.569947	1.101386
H66	H	-0.485235	1.713688	0.920564
C67	C	-0.654796	1.682805	1.110954
N68	N	-0.738566	1.707465	1.140066
C69	C	-1.089444	1.593950	0.718132
N70	N	-1.121011	1.616290	0.801378
C71	C	-0.569146	1.343696	0.909489
N72	N	-0.549764	1.259068	0.878861
H73	H	-0.560491	1.105145	0.332260
C74	C	-1.089196	1.690776	0.359140
N75	N	-1.120584	1.752008	0.298187
H76	H	-0.333552	1.105328	0.558947
C77	C	-1.089858	1.330340	0.455192
N78	N	-1.121596	1.246827	0.432828
H79	H	-0.677442	1.474530	1.103541
H80	H	-0.678369	1.474930	0.920848
C81	C	-0.466422	1.736012	1.112395
N82	N	-0.408314	1.800756	1.142592
H83	H	-0.377591	1.424767	0.920665
