data_functionalizedCrystal
_audit_creation_method	'MofGen! by Chris Wilmer'
_symmetry_space_group_name_H-M	'P1'
_symmetry_Int_Tables_number	1
_symmetry_cell_setting	triclinic
loop_
_symmetry_equiv_pos_as_xyz
  x,y,z
_cell_length_a	21.395362
_cell_length_b	12.827892
_cell_length_c	21.395355
_cell_angle_alpha	90.010431
_cell_angle_beta	89.956060
_cell_angle_gamma	89.966979
loop_
_atom_site_label
_atom_site_type_symbol
_atom_site_fract_x
_atom_site_fract_y
_atom_site_fract_z
Zn1	Zn	0.957919	0.415711	-0.354621
Zn2	Zn	0.957846	0.590438	-0.249858
Zn3	Zn	0.853133	0.415760	-0.249822
Zn4	Zn	0.853127	0.590459	-0.354563
O5	O	0.905506	0.503092	-0.302216
O6	O	1.045587	0.438860	-0.340763
O7	O	0.943928	0.567278	-0.162175
O8	O	0.867066	0.269517	-0.263733
O9	O	1.045533	0.567231	-0.263794
O10	O	0.944052	0.269482	-0.340728
O11	O	0.866996	0.438943	-0.162149
O12	O	0.765455	0.438963	-0.263677
O13	O	0.867056	0.567267	-0.442248
O14	O	0.765450	0.567314	-0.340629
O15	O	0.944046	0.438881	-0.442291
O16	O	0.943922	0.736677	-0.263738
O17	O	0.866986	0.736693	-0.340664
C18	C	0.742719	0.503147	-0.302143
C19	C	0.673077	0.503196	-0.302127
C20	C	0.640378	0.570117	-0.342136
C21	C	0.574943	0.570091	-0.342164
C22	C	0.542209	0.503156	-0.302172
C23	C	0.574916	0.436222	-0.262160
C24	C	0.640350	0.436242	-0.262137
C25	C	0.438483	0.494737	-0.245766
C26	C	0.373050	0.494724	-0.245787
C27	C	0.340388	0.503088	-0.302241
C28	C	0.373168	0.511486	-0.358675
C29	C	0.438602	0.511506	-0.358653
C30	C	0.471257	0.503126	-0.302192
C31	C	0.236737	0.569984	-0.342284
C32	C	0.171300	0.569951	-0.342313
C33	C	0.171275	0.436087	-0.262303
C34	C	0.236710	0.436115	-0.262279
C35	C	0.269437	0.503069	-0.302269
C36	C	0.905462	0.774602	-0.302213
C37	C	0.905501	0.890755	-0.302232
C38	C	0.943654	1.062542	-0.264232
C39	C	0.943615	0.942491	-0.264211
C40	C	1.068930	0.503037	-0.302289
C41	C	1.138571	0.503014	-0.302321
C42	C	0.905558	0.503071	-0.465639
C43	C	0.905581	0.503062	-0.535281
C44	C	0.905563	1.230522	-0.302241
C45	C	0.905574	1.114369	-0.302271
C46	C	0.945667	0.436208	-0.568017
C47	C	0.945666	0.436163	-0.633452
C48	C	0.905585	0.502991	-0.666149
C49	C	0.865491	0.569849	-0.633405
C50	C	0.865488	0.569885	-0.567971
C51	C	0.900623	0.597087	-0.769821
C52	C	0.900630	0.597053	-0.835254
C53	C	0.905589	0.502880	-0.867970
C54	C	0.910555	0.408738	-0.835245
C55	C	0.910553	0.408774	-0.769811
C56	C	0.905583	0.502959	-0.737101
C57	C	0.945677	0.435972	-0.971659
C58	C	0.945672	0.435925	-1.037095
C59	C	0.865500	0.569621	-1.037047
C60	C	0.865502	0.569658	-0.971611
C61	C	0.905594	0.502835	-0.938921
C62	C	0.905491	0.503038	-0.139428
C63	C	0.905590	0.502752	-0.069787
H64	H	0.666973	0.381744	-0.229557
C65	C	0.987661	0.882294	-0.220214
H66	H	1.011582	0.930327	-0.196365
H67	H	0.963672	0.839778	-0.192900
H68	H	1.014915	0.839650	-0.244236
H69	H	0.872899	0.935318	-0.334803
H70	H	0.346576	0.518294	-0.404646
H71	H	0.872940	1.069864	-0.334820
H72	H	0.465071	0.487923	-0.199791
H73	H	0.832855	0.624257	-0.660031
C74	C	0.989762	0.362698	-0.532061
H75	H	1.013632	0.322869	-0.560934
H76	H	1.017050	0.402675	-0.506557
H77	H	0.965800	0.317180	-0.506517
C78	C	0.989768	0.362629	-0.669470
H79	H	1.013648	0.322844	-0.640629
H80	H	0.965818	0.317089	-0.694978
H81	H	1.017058	0.402601	-0.695015
C82	C	0.538966	0.643646	-0.386212
H83	H	0.567829	0.683508	-0.410034
H84	H	0.513507	0.603675	-0.413548
H85	H	0.513375	0.689133	-0.362236
C86	C	0.916007	0.305230	-0.733812
H87	H	0.915299	0.318744	-0.690158
H88	H	0.881934	0.261278	-0.744506
H89	H	0.954162	0.271795	-0.744558
H90	H	0.832842	0.624324	-0.541317
C91	C	0.916418	0.305205	-0.871223
H92	H	0.915826	0.318680	-0.914879
H93	H	0.954669	0.272241	-0.860373
H94	H	0.882489	0.260845	-0.860620
H95	H	0.144623	0.381582	-0.229743
C96	C	0.676375	0.643752	-0.386130
H97	H	0.647525	0.683597	-0.409967
H98	H	0.701856	0.689233	-0.362112
H99	H	0.701946	0.603842	-0.413464
H100	H	0.263385	0.624497	-0.374849
C101	C	0.987739	1.122655	-0.220258
H102	H	0.981986	1.195456	-0.226045
H103	H	0.978599	1.104870	-0.178136
H104	H	1.029838	1.104732	-0.229475
H105	H	0.978319	0.381555	-0.945041
H106	H	0.978314	0.381479	-1.063748
H107	H	0.832859	0.624022	-1.063667
H108	H	0.832862	0.624104	-0.944957
H109	H	0.896590	0.673709	-0.861893
C110	C	0.895030	0.700663	-0.733839
H111	H	0.892041	0.756718	-0.762699
H112	H	0.858678	0.699182	-0.708337
H113	H	0.930891	0.709989	-0.708291
H114	H	0.465288	0.518341	-0.404604
H115	H	0.263334	0.381626	-0.229696
C116	C	0.135331	0.643583	-0.386316
H117	H	0.164196	0.683469	-0.410121
H118	H	0.109850	0.603686	-0.413671
H119	H	0.109762	0.689042	-0.362298
H120	H	0.346366	0.487893	-0.199835
H121	H	0.548260	0.381721	-0.229599
