data_functionalizedCrystal
_audit_creation_method	'MofGen! by Chris Wilmer'
_symmetry_space_group_name_H-M	'P1'
_symmetry_Int_Tables_number	1
_symmetry_cell_setting	triclinic
loop_
_symmetry_equiv_pos_as_xyz
  x,y,z
_cell_length_a	15.995292
_cell_length_b	15.995343
_cell_length_c	16.176319
_cell_angle_alpha	89.988477
_cell_angle_beta	89.991411
_cell_angle_gamma	83.478900
loop_
_atom_site_label
_atom_site_type_symbol
_atom_site_fract_x
_atom_site_fract_y
_atom_site_fract_z
O1	O	1.111016	0.107697	-0.068778
O2	O	0.867234	0.121076	-0.068776
O3	O	0.995792	-0.007503	-0.068761
O4	O	0.982458	0.236276	-0.068792
O5	O	0.995775	-0.007511	0.068732
O6	O	0.867216	0.121067	0.068718
O7	O	1.110998	0.107689	0.068715
Cu8	Cu	0.989106	0.114378	0.081271
Cu9	Cu	0.989127	0.114387	-0.081331
O10	O	0.982440	0.236268	0.068701
C11	C	0.995233	-0.038702	-0.000013
C12	C	0.993584	-0.131652	-0.000006
C13	C	0.836029	0.120527	-0.000028
C14	C	0.743077	0.118895	-0.000027
C15	C	0.990590	-0.301838	-0.000025
C16	C	0.897791	-0.325164	-0.000026
C17	C	0.896045	-0.421842	-0.000347
C18	C	0.987642	-0.469397	-0.000042
C19	C	1.034313	-0.440303	-0.078400
C20	C	1.035414	-0.343511	-0.078457
C21	C	1.036752	-0.343625	0.077904
C22	C	1.033326	-0.440119	0.078925
C23	C	0.985980	-0.564095	-0.000055
C24	C	0.992255	-0.207140	-0.000018
C25	C	0.405338	0.112893	-0.000036
C26	C	0.428648	0.205698	-0.000354
C27	C	0.525324	0.207462	-0.000041
C28	C	0.572894	0.115871	-0.000032
C29	C	0.543783	0.069469	0.078487
C30	C	0.446993	0.068351	0.078549
C31	C	0.447158	0.066466	-0.077806
C32	C	0.543650	0.069905	-0.078841
C33	C	0.667590	0.117549	-0.000027
C34	C	0.310643	0.111213	-0.000035
C35	C	1.142203	0.108238	-0.000033
C36	C	1.235156	0.109870	-0.000040
C37	C	0.982999	0.267467	-0.000049
C38	C	0.984648	0.360417	-0.000061
N39	N	0.989097	0.114370	0.195636
N40	N	0.989142	0.114388	-0.195696
C41	C	1.046040	0.057459	0.238906
C42	C	1.046044	0.057458	0.325454
C43	C	0.989109	0.114373	0.368729
C44	C	0.932160	0.171287	0.325452
C45	C	0.932152	0.171283	0.238907
C46	C	0.932189	0.171303	0.674480
C47	C	0.932202	0.171304	0.761032
C48	C	1.046080	0.057477	0.761027
C49	C	1.046073	0.057474	0.674482
C50	C	0.989121	0.114384	0.631213
C51	C	0.989116	0.114384	0.537369
C52	C	0.989117	0.114379	0.462571
H53	H	0.859504	-0.440861	0.055807
H54	H	0.400658	0.241473	-0.056664
H55	H	0.420167	0.100481	0.137236
H56	H	1.101726	-0.472163	-0.081096
H57	H	0.576623	0.003053	-0.083576
H58	H	0.399621	0.241267	0.055630
H59	H	0.885798	0.217626	0.360692
H60	H	1.003485	-0.316710	-0.137253
H61	H	0.433167	-0.001845	-0.078330
H62	H	0.885818	0.217643	0.639257
H63	H	1.092407	0.011115	0.203678
H64	H	1.002304	-0.460378	-0.136938
H65	H	1.092411	0.011116	0.360684
H66	H	1.092451	0.011135	0.796266
H67	H	1.007466	-0.315358	0.137318
H68	H	0.859701	-0.440263	-0.056850
H69	H	0.432444	0.000307	0.082123
H70	H	0.885783	0.217625	0.203677
H71	H	1.103467	-0.328951	-0.081797
H72	H	0.999340	-0.458681	0.136895
H73	H	0.544356	0.243798	-0.056328
H74	H	0.885836	0.217653	0.796265
H75	H	0.861814	-0.297157	0.056158
H76	H	0.862414	-0.296164	-0.056133
H77	H	1.100164	-0.473082	0.083891
H78	H	1.105056	-0.329619	0.078665
H79	H	0.575653	0.002070	0.081413
H80	H	0.563834	0.101686	0.136913
H81	H	0.418837	0.095477	-0.137318
H82	H	0.543719	0.244015	0.056331
H83	H	0.562226	0.103691	-0.136928
H84	H	1.092438	0.011131	0.639250
