data_functionalizedCrystal
_audit_creation_method	'MofGen! by Chris Wilmer'
_symmetry_space_group_name_H-M	'P1'
_symmetry_Int_Tables_number	1
_symmetry_cell_setting	triclinic
loop_
_symmetry_equiv_pos_as_xyz
  x,y,z
_cell_length_a	23.532361
_cell_length_b	23.532407
_cell_length_c	14.586319
_cell_angle_alpha	89.991566
_cell_angle_beta	90.000779
_cell_angle_gamma	82.839173
loop_
_atom_site_label
_atom_site_type_symbol
_atom_site_fract_x
_atom_site_fract_y
_atom_site_fract_z
O1	O	0.755276	0.069008	-0.076158
O2	O	1.255276	0.569008	0.423842
O3	O	0.589409	0.079039	-0.076181
O4	O	1.089409	0.579039	0.423819
O5	O	0.677344	-0.008909	-0.076152
O6	O	1.177344	0.491091	0.423848
O7	O	0.667341	0.156956	-0.076187
O8	O	1.167341	0.656956	0.423813
O9	O	0.677338	-0.008910	0.076329
O10	O	1.177338	0.491090	0.576329
O11	O	0.589403	0.079038	0.076300
O12	O	1.089403	0.579038	0.576300
O13	O	0.755270	0.069007	0.076323
O14	O	1.255270	0.569007	0.576323
Cu15	Cu	0.672336	0.074022	0.090234
Cu16	Cu	1.172336	0.574022	0.590234
Cu17	Cu	0.672343	0.074023	-0.090092
Cu18	Cu	1.172343	0.574023	0.409908
O19	O	0.667335	0.156955	0.076294
O20	O	1.167335	0.656955	0.576294
C21	C	0.568189	0.078787	0.000057
C22	C	1.068189	0.578787	0.500057
C23	C	0.504971	0.078032	0.000049
C24	C	1.004971	0.578032	0.500049
C25	C	0.231730	0.074729	-0.083063
C26	C	0.731730	0.574729	0.416937
C27	C	0.291130	0.075444	-0.083065
C28	C	0.791130	0.575444	0.416935
O29	O	0.321859	0.075794	-0.153751
O30	O	0.821859	0.575794	0.346249
N31	N	0.320832	0.075804	0.000053
N32	N	0.820832	0.575804	0.500053
C33	C	0.291133	0.075444	0.083178
C34	C	0.791133	0.575444	0.583178
O35	O	0.321851	0.075816	0.153876
O36	O	0.821851	0.575816	0.653876
C37	C	0.231735	0.074725	0.083179
C38	C	0.731735	0.574725	0.583179
C39	C	0.202035	0.074370	0.000056
C40	C	0.702035	0.574370	0.500056
C41	C	0.202030	0.074374	-0.166179
C42	C	0.702030	0.574374	0.333821
C43	C	0.142635	0.073660	-0.166176
C44	C	0.642635	0.573660	0.333824
C45	C	0.112939	0.073301	-0.083057
C46	C	0.612939	0.573301	0.416943
C47	C	0.142639	0.073657	0.000059
C48	C	0.642639	0.573657	0.500059
C49	C	0.202037	0.074361	0.166304
C50	C	0.702037	0.574361	0.666304
C51	C	0.142635	0.073641	0.166298
C52	C	0.642635	0.573641	0.666298
C53	C	0.112934	0.073286	0.083175
C54	C	0.612934	0.573286	0.583175
C55	C	0.053547	0.072584	0.083181
C56	C	0.553547	0.572584	0.583181
N57	N	0.023845	0.072224	0.000063
N58	N	0.523845	0.572224	0.500063
C59	C	0.053541	0.072582	-0.083056
C60	C	0.553541	0.572582	0.416944
C61	C	0.415873	0.076953	0.083169
C62	C	0.915873	0.576953	0.583169
C63	C	0.475269	0.077676	0.083168
C64	C	0.975269	0.577676	0.583168
C65	C	0.475263	0.077675	-0.083075
C66	C	0.975263	0.577675	0.416925
C67	C	0.415865	0.076956	-0.083074
C68	C	0.915865	0.576956	0.416926
C69	C	0.386171	0.076593	0.000051
C70	C	0.886171	0.576593	0.500051
C71	C	-0.071195	0.071084	-0.083044
C72	C	0.428805	0.571084	0.416956
C73	C	-0.130596	0.070372	-0.083033
C74	C	0.369404	0.570372	0.416967
C75	C	-0.130584	0.070371	0.083209
C76	C	0.369416	0.570371	0.583209
C77	C	-0.071188	0.071085	0.083200
C78	C	0.428812	0.571085	0.583200
C79	C	-0.041495	0.071440	0.000066
C80	C	0.458505	0.571440	0.500066
O81	O	0.022781	0.072231	0.153831
O82	O	0.522781	0.572231	0.653831
O83	O	0.022816	0.072203	-0.153741
O84	O	0.522816	0.572203	0.346259
C85	C	0.677086	-0.030126	0.000091
C86	C	1.177086	0.469874	0.500091
C87	C	0.676320	-0.093343	0.000098
C88	C	1.176320	0.406657	0.500098
C89	C	0.723555	-0.492454	0.000054
C90	C	1.223555	0.007546	0.500054
C91	C	0.722844	-0.551854	0.000047
C92	C	1.222844	-0.051854	0.500047
O93	O	0.766630	-0.588606	0.000019
O94	O	1.266630	-0.088606	0.500019
N95	N	0.670566	-0.574471	0.000041
N96	N	1.170566	-0.074471	0.500041
C97	C	0.618997	-0.537685	0.000032
C98	C	1.118997	-0.037685	0.500032
O99	O	0.574465	-0.562377	0.000024
O100	O	1.074465	-0.062377	0.500024
C101	C	0.619709	-0.478286	0.000032
C102	C	1.119709	0.021714	0.500032
C103	C	0.671990	-0.455672	0.000048
C104	C	1.171990	0.044328	0.500048
C105	C	0.775832	-0.469839	0.000069
C106	C	1.275832	0.030161	0.500069
C107	C	0.776543	-0.410443	0.000078
C108	C	1.276543	0.089557	0.500078
C109	C	0.724977	-0.373662	0.000072
C110	C	1.224977	0.126338	0.500072
C111	C	0.672701	-0.396276	0.000057
C112	C	1.172701	0.103724	0.500057
C113	C	0.568140	-0.441501	0.000017
C114	C	1.068140	0.058499	0.500017
C115	C	0.568857	-0.382099	0.000016
C116	C	1.068857	0.117901	0.500016
C117	C	0.621137	-0.359485	0.000032
C118	C	1.121137	0.140515	0.500032
C119	C	0.621847	-0.300099	0.000059
C120	C	1.121847	0.199901	0.500059
N121	N	0.674124	-0.277481	0.000066
N122	N	1.174124	0.222519	0.500066
C123	C	0.725690	-0.314263	0.000072
C124	C	1.225690	0.185737	0.500072
C125	C	0.617505	-0.662427	0.000029
C126	C	1.117505	-0.162427	0.500029
C127	C	0.616793	-0.721825	0.000035
C128	C	1.116793	-0.221825	0.500035
C129	C	0.720640	-0.735990	0.000049
C130	C	1.220640	-0.235990	0.500049
C131	C	0.721352	-0.676591	0.000049
C132	C	1.221352	-0.176591	0.500049
C133	C	0.669783	-0.639810	0.000036
C134	C	1.169783	-0.139810	0.500036
C135	C	0.727179	-0.189526	0.000091
C136	C	1.227179	0.310474	0.500091
C137	C	0.727886	-0.130124	0.000104
C138	C	1.227886	0.369876	0.500104
C139	C	0.624039	-0.115965	0.000085
C140	C	1.124039	0.384035	0.500085
C141	C	0.623332	-0.175361	0.000078
C142	C	1.123332	0.324639	0.500078
C143	C	0.674907	-0.212141	0.000078
C144	C	1.174907	0.287859	0.500078
O145	O	0.578083	-0.263312	0.000083
O146	O	1.078083	0.236688	0.500083
O147	O	0.770214	-0.289562	0.000067
O148	O	1.270214	0.210438	0.500067
C149	C	0.776489	0.069258	0.000083
C150	C	1.276489	0.569258	0.500083
C151	C	0.839708	0.070014	0.000086
C152	C	1.339708	0.570014	0.500086
C153	C	0.667592	0.178171	0.000049
C154	C	1.167592	0.678171	0.500049
C155	C	0.668358	0.241388	0.000036
C156	C	1.168358	0.741388	0.500036
N157	N	0.672335	0.074020	0.217066
N158	N	1.172335	0.574020	0.717066
N159	N	0.672348	0.074020	-0.216924
N160	N	1.172348	0.574020	0.283076
C161	C	0.711285	0.035090	0.452085
C162	C	1.211285	0.535090	0.952085
C163	C	0.711287	0.035089	0.548067
C164	C	1.211287	0.535089	1.048067
C165	C	0.633394	0.112953	0.548050
C166	C	1.133394	0.612953	1.048050
C167	C	0.633390	0.112951	0.452071
C168	C	1.133390	0.612951	0.952071
C169	C	0.672339	0.074020	0.404091
C170	C	1.172339	0.574020	0.904091
C171	C	0.672344	0.074021	0.596051
C172	C	1.172344	0.574021	1.096051
C173	C	0.672346	0.074019	0.700119
C174	C	1.172346	0.574019	1.200119
C175	C	0.672337	0.074021	0.300017
C176	C	1.172337	0.574021	0.800017
H177	H	0.226203	0.074664	-0.233868
H178	H	0.726203	0.574664	0.266132
C179	C	0.234694	0.074752	0.257741
C180	C	0.734694	0.574752	0.757741
H181	H	0.208494	0.074430	0.307235
H182	H	0.708494	0.574430	0.807235
H183	H	0.253330	0.108247	0.261198
H184	H	0.753330	0.608247	0.761198
H185	H	0.262399	0.041812	0.261209
H186	H	0.762399	0.541812	0.761209
H187	H	-0.154776	0.070085	-0.150725
H188	H	0.345224	0.570085	0.349275
C189	C	0.785396	-0.105250	0.000122
C190	C	1.285396	0.394750	0.500122
H191	H	0.778438	-0.064606	0.000136
H192	H	1.278438	0.435394	0.500136
H193	H	0.806617	-0.117888	-0.053047
H194	H	1.306617	0.382112	0.446953
H195	H	0.806607	-0.117904	0.053306
H196	H	1.306607	0.382096	0.553306
C197	C	0.590552	0.155779	0.399269
C198	C	1.090552	0.655779	0.899269
H199	H	0.596126	0.150198	0.335236
H200	H	1.096126	0.650198	0.835236
H201	H	0.596523	0.193756	0.414986
H202	H	1.096523	0.693756	0.914986
H203	H	0.552576	0.149794	0.414999
H204	H	1.052576	0.649794	0.914999
C205	C	0.754130	-0.007732	0.600857
C206	C	1.254130	0.492268	1.100857
H207	H	0.777327	-0.030914	0.558532
H208	H	1.277327	0.469086	1.058532
H209	H	0.733782	-0.031334	0.638307
H210	H	1.233782	0.468666	1.138307
H211	H	0.777723	0.012635	0.638290
H212	H	1.277723	0.512635	1.138290
H213	H	0.391687	0.076667	-0.150760
H214	H	0.891687	0.576667	0.349240
C215	C	0.590559	0.155778	0.600831
C216	C	1.090559	0.655778	1.100831
H217	H	0.596142	0.150208	0.664867
H218	H	1.096142	0.650208	1.164867
H219	H	0.552584	0.149796	0.585109
H220	H	1.052584	0.649796	1.085109
H221	H	0.596533	0.193756	0.585087
H222	H	1.096533	0.693756	1.085087
H223	H	0.526862	-0.352154	0.000004
H224	H	1.026862	0.147846	0.500004
C225	C	0.507934	0.078065	-0.174508
C226	C	1.007934	0.578065	0.325492
H227	H	0.481741	0.077753	-0.224016
H228	H	0.981741	0.577753	0.275984
H229	H	0.535640	0.045129	-0.177950
H230	H	1.035640	0.545129	0.322050
H231	H	0.526570	0.111564	-0.177968
H232	H	1.026570	0.611564	0.322032
C233	C	0.832559	-0.510291	0.000083
C234	C	1.332559	-0.010291	0.500083
H235	H	0.863790	-0.488306	0.000099
H236	H	1.363790	0.011694	0.500099
H237	H	0.834452	-0.533756	-0.053086
H238	H	1.334452	-0.033756	0.446914
H239	H	0.834438	-0.533758	0.053268
H240	H	1.334438	-0.033758	0.553268
H241	H	0.580761	-0.193774	0.000090
H242	H	1.080761	0.306226	0.500090
H243	H	-0.047026	0.071373	-0.150739
H244	H	0.452974	0.571373	0.349261
H245	H	0.499445	0.077974	0.150855
H246	H	0.999445	0.577974	0.650855
H247	H	0.391699	0.076665	0.150863
H248	H	0.891699	0.576665	0.650863
C249	C	0.510632	-0.466366	-0.000012
C250	C	1.010632	0.033634	0.499988
H251	H	0.517584	-0.507010	-0.000009
H252	H	1.017584	-0.007010	0.499991
H253	H	0.489424	-0.453709	-0.053193
H254	H	0.989424	0.046291	0.446807
H255	H	0.489409	-0.453724	0.053161
H256	H	0.989409	0.046276	0.553161
H257	H	0.118460	0.073350	0.233990
H258	H	0.618460	0.573350	0.733990
C259	C	0.754122	-0.007737	0.399310
C260	C	1.254122	0.492263	0.899310
H261	H	0.777313	-0.030926	0.441644
H262	H	1.277313	0.469074	0.941644
H263	H	0.777713	0.012622	0.361859
H264	H	1.277713	0.512622	0.861859
H265	H	0.733763	-0.031338	0.361880
H266	H	1.233763	0.468662	0.861880
C267	C	0.567322	-0.075498	0.000073
C268	C	1.067322	0.424502	0.500073
H269	H	0.575238	-0.036885	0.000069
H270	H	1.075238	0.463115	0.500069
H271	H	0.545862	-0.082323	0.053238
H272	H	1.045862	0.417677	0.553238
H273	H	0.545878	-0.082315	-0.053116
H274	H	1.045878	0.417685	0.446884
H275	H	0.763923	-0.658183	0.000062
H276	H	1.263923	-0.158183	0.500062
C277	C	0.109974	0.073255	-0.257612
C278	C	0.609974	0.573255	0.242388
H279	H	0.136175	0.073563	-0.307108
H280	H	0.636175	0.573563	0.192892
H281	H	0.082264	0.106187	-0.261094
H282	H	0.582264	0.606187	0.238906
H283	H	0.091344	0.039752	-0.261053
H284	H	0.591344	0.539752	0.238947
C285	C	-0.038514	0.071457	0.174632
C286	C	0.461486	0.571457	0.674632
H287	H	-0.064709	0.071133	0.224134
H288	H	0.435291	0.571133	0.724134
H289	H	-0.019863	0.104942	0.178105
H290	H	0.480137	0.604942	0.678105
H291	H	-0.010821	0.038506	0.178070
H292	H	0.489179	0.538506	0.678070
H293	H	-0.154773	0.070081	0.150883
H294	H	0.345227	0.570081	0.650883
C295	C	0.783910	-0.229976	0.000099
C296	C	1.283910	0.270024	0.500099
H297	H	0.815142	-0.207993	0.000118
H298	H	1.315142	0.292007	0.500118
H299	H	0.785801	-0.253437	-0.053074
H300	H	1.285801	0.246563	0.446926
H301	H	0.785789	-0.253446	0.053279
H302	H	1.285789	0.246554	0.553279
C303	C	0.834052	-0.385575	0.000078
C304	C	1.334052	0.114425	0.500078
H305	H	0.864656	-0.415995	0.000070
H306	H	1.364656	0.084005	0.500070
H307	H	0.836496	-0.362703	0.053249
H308	H	1.336496	0.137297	0.553249
H309	H	0.836489	-0.362696	-0.053104
H310	H	1.336489	0.137304	0.446896
C311	C	0.777363	-0.776455	0.000049
C312	C	1.277363	-0.276455	0.500049
H313	H	0.808603	-0.754483	0.000061
H314	H	1.308603	-0.254483	0.500061
H315	H	0.779242	-0.799915	-0.053126
H316	H	1.279242	-0.299915	0.446874
H317	H	0.779239	-0.799926	0.053228
H318	H	1.279239	-0.299926	0.553228
C319	C	0.559284	-0.746694	0.000025
C320	C	1.059284	-0.246694	0.500025
H321	H	0.528678	-0.716276	0.000016
H322	H	1.028678	-0.216276	0.500016
H323	H	0.556841	-0.769579	0.053193
H324	H	1.056841	-0.269579	0.553193
H325	H	0.556849	-0.769561	-0.053161
H326	H	1.056849	-0.269561	0.446839
H327	H	0.575509	-0.632483	0.000026
H328	H	1.075509	-0.132483	0.500026
