data_functionalizedCrystal
_audit_creation_method	'MofGen! by Chris Wilmer'
_symmetry_space_group_name_H-M	'P1'
_symmetry_Int_Tables_number	1
_symmetry_cell_setting	triclinic
loop_
_symmetry_equiv_pos_as_xyz
  x,y,z
_cell_length_a	13.262390
_cell_length_b	14.519731
_cell_length_c	11.804402
_cell_angle_alpha	101.853276
_cell_angle_beta	62.657248
_cell_angle_gamma	84.075143
loop_
_atom_site_label
_atom_site_type_symbol
_atom_site_fract_x
_atom_site_fract_y
_atom_site_fract_z
O1	O	1.519308	0.013553	-0.591107
O2	O	1.191015	0.046965	-0.484781
O3	O	1.363851	-0.104483	-0.540747
O4	O	1.346472	0.165002	-0.535140
O5	O	1.318348	-0.064649	-0.327957
O6	O	1.145512	0.086800	-0.271991
O7	O	1.473806	0.053388	-0.378317
Cu8	Cu	1.305504	0.073731	-0.305724
Cu9	Cu	1.359316	0.026622	-0.557373
O10	O	1.300970	0.204836	-0.322350
C11	C	1.126248	0.068673	-0.364778
C12	C	1.001056	0.073998	-0.324231
C13	C	0.747386	0.002135	-0.673924
C14	C	0.865012	-0.002872	-0.712022
C15	C	0.899029	0.016345	-0.615077
C16	C	0.815408	0.040570	-0.480028
C17	C	0.697772	0.045571	-0.441927
C18	C	0.849415	0.059781	-0.383080
C19	C	0.765794	0.084006	-0.248031
C20	C	0.648170	0.089006	-0.209936
C21	C	0.614153	0.069789	-0.306881
C22	C	0.967051	0.054780	-0.421182
C23	C	0.917437	0.098216	-0.189185
C24	C	0.799811	0.103223	-0.151087
C25	C	1.340285	-0.118878	-0.434088
C26	C	1.337844	-0.221115	-0.433297
C27	C	1.335861	-0.304144	-0.432657
C28	C	1.333385	-0.408310	-0.431865
C29	C	1.331420	-0.491336	-0.431236
C30	C	1.328944	-0.595508	-0.430441
C31	C	1.538573	0.031679	-0.498322
C32	C	1.663767	0.026353	-0.538878
C33	C	1.324536	0.219230	-0.429012
C34	C	1.326979	0.321466	-0.429812
N35	N	1.267664	0.106864	-0.128730
C36	C	1.488024	-0.086092	0.173863
C37	C	1.516649	-0.111160	0.039932
C38	C	1.454405	-0.056657	-0.002240
C39	C	1.363531	0.022920	0.089532
C40	C	1.334909	0.047996	0.223474
C41	C	1.301290	0.077431	0.047370
C42	C	1.210417	0.157008	0.139142
C43	C	1.181799	0.182079	0.273071
C44	C	1.244044	0.127576	0.315243
C45	C	1.329912	0.052355	-0.086572
C46	C	1.176798	0.186443	-0.036961
C47	C	1.148173	0.211512	0.096970
N48	N	1.397158	-0.006512	0.265633
H49	H	0.945132	0.113863	-0.110245
N50	N	1.213172	0.154622	0.459700
H51	H	1.129632	0.151584	0.516802
H52	H	1.266463	0.107998	0.472365
H53	H	1.107814	0.246882	0.347790
N54	N	1.050160	0.297337	0.195957
H55	H	1.041478	0.304947	0.287199
H56	H	1.068318	0.357636	0.168281
H57	H	1.126115	0.230827	-0.071296
H58	H	1.590637	-0.175950	-0.034784
N59	N	0.557978	0.115118	-0.064281
H60	H	0.597471	0.125878	-0.008680
H61	H	0.499528	0.176158	-0.040291
N62	N	1.057226	0.028651	-0.566834
H63	H	1.038575	0.077672	-0.608000
H64	H	1.136871	0.028380	-0.576162
H65	H	1.538701	-0.130457	0.208209
H66	H	0.994806	0.012268	-0.646105
H67	H	0.933088	-0.022601	-0.821979
H68	H	1.477715	-0.077071	-0.111294
H69	H	0.518374	0.073868	-0.275868
N70	N	0.710699	-0.018605	-0.778474
H71	H	0.623494	-0.011766	-0.733843
H72	H	0.733064	0.028680	-0.832881
H73	H	0.731712	0.122947	-0.041128
N74	N	1.427909	-0.033470	-0.185555
H75	H	1.502989	-0.023021	-0.188197
H76	H	1.409701	-0.093776	-0.157927
