data_functionalizedCrystal
_audit_creation_method	'MofGen! by Chris Wilmer'
_symmetry_space_group_name_H-M	'P1'
_symmetry_Int_Tables_number	1
_symmetry_cell_setting	triclinic
loop_
_symmetry_equiv_pos_as_xyz
  x,y,z
_cell_length_a	12.759401
_cell_length_b	21.295416
_cell_length_c	21.295412
_cell_angle_alpha	89.971805
_cell_angle_beta	90.020427
_cell_angle_gamma	89.969242
loop_
_atom_site_label
_atom_site_type_symbol
_atom_site_fract_x
_atom_site_fract_y
_atom_site_fract_z
Zn1	Zn	1.606160	0.250618	0.355870
Zn2	Zn	2.106160	0.750618	0.855870
Zn3	Zn	1.606001	0.355886	0.250600
Zn4	Zn	2.106001	0.855886	0.750600
Zn5	Zn	1.430456	0.250636	0.250621
Zn6	Zn	1.930456	0.750636	0.750621
Zn7	Zn	1.430403	0.355854	0.355838
Zn8	Zn	1.930403	0.855854	0.855838
O9	O	1.518255	0.303248	0.303232
O10	O	2.018255	0.803248	0.803232
O11	O	1.753160	0.264588	0.341911
O12	O	2.253160	0.764588	0.841911
O13	O	1.582670	0.341945	0.162514
O14	O	2.082670	0.841945	0.662514
O15	O	1.453853	0.162544	0.264605
O16	O	1.953853	0.662544	0.764605
O17	O	1.753043	0.341928	0.264570
O18	O	2.253043	0.841928	0.764570
O19	O	1.582942	0.162531	0.341931
O20	O	2.082942	0.662531	0.841931
O21	O	1.453699	0.264618	0.162529
O22	O	1.953699	0.764618	0.662529
O23	O	1.283428	0.264587	0.264573
O24	O	1.783428	0.764587	0.764573
O25	O	1.453761	0.341873	0.443931
O26	O	1.953761	0.841873	0.943931
O27	O	1.283389	0.341890	0.341876
O28	O	1.783389	0.841890	0.841876
O29	O	1.582890	0.264557	0.443955
O30	O	2.082890	0.764557	0.943955
O31	O	1.582618	0.443971	0.264538
O32	O	2.082618	0.943971	0.764538
O33	O	1.453607	0.443947	0.341855
O34	O	1.953607	0.943947	0.841855
C35	C	1.245288	0.303237	0.303223
C36	C	1.745288	0.803237	0.803223
C37	C	1.128511	0.303248	0.303235
C38	C	1.628511	0.803248	0.803235
C39	C	1.073710	0.263050	0.343568
C40	C	1.573710	0.763050	0.843568
C41	C	0.963986	0.263056	0.343573
C42	C	1.463986	0.763056	0.843573
C43	C	0.963873	0.343465	0.262907
C44	C	1.463873	0.843465	0.762907
C45	C	1.073595	0.343454	0.262901
C46	C	1.573595	0.843454	0.762901
C47	C	1.518118	0.466800	0.303205
C48	C	2.018118	0.966800	0.803205
C49	C	1.518156	0.536768	0.303214
C50	C	2.018156	1.036768	0.803214
C51	C	1.585392	0.569626	0.262997
C52	C	2.085392	1.069626	0.762997
C53	C	1.585441	0.635369	0.263014
C54	C	2.085441	1.135369	0.763014
C55	C	1.518236	0.668251	0.303241
C56	C	2.018236	1.168251	0.803241
C57	C	1.450995	0.635384	0.343465
C58	C	1.950995	1.135384	0.843465
C59	C	1.450955	0.569643	0.343452
C60	C	1.950955	1.069643	0.843452
N61	N	1.426330	0.771517	0.308041
N62	N	1.926330	1.271517	0.808041
N63	N	1.426371	0.833968	0.308051
N64	N	1.926371	1.333968	0.808051
C65	C	1.518355	0.866325	0.303286
C66	C	2.018355	1.366325	0.803286
N67	N	1.610298	0.833871	0.298499
N68	N	2.110298	1.333871	0.798499
N69	N	1.610256	0.771414	0.298486
N70	N	2.110256	1.271414	0.798486
C71	C	1.518273	0.739536	0.303261
C72	C	2.018273	1.239536	0.803261
C73	C	1.585650	0.970469	0.263085
C74	C	2.085650	1.470469	0.763085
C75	C	1.585702	1.036213	0.263107
C76	C	2.085702	1.536213	0.763107
C77	C	1.451246	1.036227	0.343555
C78	C	1.951246	1.536227	0.843555
C79	C	1.451204	0.970485	0.343537
C80	C	1.951204	1.470485	0.843537
C81	C	1.518405	0.937609	0.303299
C82	C	2.018405	1.437609	0.803299
C83	C	1.792288	0.303260	0.303242
C84	C	2.292288	0.803260	0.803242
C85	C	1.909065	0.303264	0.303246
C86	C	2.409065	0.803264	0.803246
C87	C	1.518337	0.303209	0.467423
C88	C	2.018337	0.803209	0.967423
C89	C	1.518372	0.303192	0.537391
C90	C	2.018372	0.803192	1.037391
C91	C	1.518422	1.139058	0.303285
C92	C	2.018422	1.639058	0.803285
C93	C	1.518497	1.069090	0.303335
C94	C	2.018497	1.569090	0.803335
C95	C	1.518234	0.303242	0.139681
C96	C	2.018234	0.803242	0.639681
C97	C	1.518402	0.303081	0.069713
C98	C	2.018402	0.803081	0.569713
C99	C	1.451235	0.262924	0.570256
C100	C	1.951235	0.762924	1.070256
C101	C	1.451231	0.262912	0.635998
C102	C	1.951231	0.762912	1.135998
C103	C	1.518384	0.303162	0.668873
C104	C	2.018384	0.803162	1.168873
C105	C	1.585526	0.343439	0.636001
C106	C	2.085526	0.843439	1.136001
C107	C	1.585520	0.343454	0.570259
C108	C	2.085520	0.843454	1.070259
N109	N	1.610353	0.307970	0.772109
N110	N	2.110353	0.807970	1.272109
N111	N	1.610355	0.307952	0.834560
N112	N	2.110355	0.807952	1.334560
C113	C	1.518403	0.303121	0.866948
C114	C	2.018403	0.803121	1.366948
N115	N	1.426446	0.298296	0.834525
N116	N	1.926446	0.798296	1.334525
N117	N	1.426445	0.298310	0.772068
N118	N	1.926445	0.798310	1.272068
C119	C	1.518397	0.303151	0.740159
C120	C	2.018397	0.803151	1.240159
C121	C	1.451255	0.262837	0.971098
C122	C	1.951255	0.762837	1.471098
C123	C	1.451250	0.262830	1.036842
C124	C	1.951250	0.762830	1.536842
C125	C	1.585554	0.343353	1.036844
C126	C	2.085554	0.843353	1.536844
C127	C	1.585551	0.343364	0.971101
C128	C	2.085551	0.843364	1.471101
C129	C	1.518403	0.303102	0.938233
C130	C	2.018403	0.803102	1.438233
H131	H	1.118215	0.376189	0.230053
H132	H	1.618215	0.876189	0.730053
Cl133	Cl	1.142744	0.212502	0.394271
Cl134	Cl	1.642744	0.712502	0.894271
H135	H	1.640196	0.376245	0.543501
H136	H	2.140196	0.876245	1.043501
H137	H	1.640113	0.542861	0.230235
H138	H	2.140113	1.042861	0.730235
H139	H	1.396450	0.943730	0.376282
H140	H	1.896450	1.443730	0.876282
Cl141	Cl	1.669965	0.393986	0.929783
Cl142	Cl	2.169965	0.893986	1.429783
Cl143	Cl	1.366766	1.077558	0.394131
Cl144	Cl	1.866766	1.577558	0.894131
H145	H	0.919373	0.230322	0.376415
H146	H	1.419373	0.730322	0.876415
Cl147	Cl	1.670128	0.929137	0.212501
Cl148	Cl	2.170128	1.429137	0.712501
H149	H	1.640197	0.662127	0.230265
H150	H	2.140197	1.162127	0.730265
Cl151	Cl	1.366514	0.676721	0.394039
Cl152	Cl	1.866514	1.176721	0.894039
Cl153	Cl	0.894828	0.394009	0.212207
Cl154	Cl	1.394828	0.894009	0.712207
H155	H	1.396553	0.230142	0.543498
H156	H	1.896553	0.730142	1.043498
H157	H	1.396203	0.542890	0.376202
H158	H	1.896203	1.042890	0.876202
Cl159	Cl	1.670243	1.077521	0.212549
Cl160	Cl	2.170243	1.577521	0.712549
H161	H	1.640202	0.376211	0.662772
H162	H	2.140202	0.876211	1.162772
H163	H	1.396571	0.230040	1.063600
H164	H	1.896571	0.730040	1.563600
Cl165	Cl	1.366837	0.212227	0.929775
Cl166	Cl	1.866837	0.712227	1.429775
H167	H	1.396561	0.230117	0.662762
H168	H	1.896561	0.730117	1.162762
Cl169	Cl	1.669969	0.393959	1.078167
Cl170	Cl	2.169969	0.893959	1.578167
