data_functionalizedCrystal
_audit_creation_method	'MofGen! by Chris Wilmer'
_symmetry_space_group_name_H-M	'P1'
_symmetry_Int_Tables_number	1
_symmetry_cell_setting	triclinic
loop_
_symmetry_equiv_pos_as_xyz
  x,y,z
_cell_length_a	12.759401
_cell_length_b	17.077402
_cell_length_c	12.759393
_cell_angle_alpha	89.965312
_cell_angle_beta	89.979062
_cell_angle_gamma	90.024408
loop_
_atom_site_label
_atom_site_type_symbol
_atom_site_fract_x
_atom_site_fract_y
_atom_site_fract_z
Zn1	Zn	1.606207	-0.312438	-0.593990
Zn2	Zn	1.606073	-0.443724	-0.418297
Zn3	Zn	1.430505	-0.312480	-0.418325
Zn4	Zn	1.430472	-0.443669	-0.593934
O5	O	1.518314	-0.378078	-0.506136
O6	O	1.753210	-0.329859	-0.570695
O7	O	1.582741	-0.426355	-0.271279
O8	O	1.453882	-0.202628	-0.441662
O9	O	1.753111	-0.426314	-0.441614
O10	O	1.582969	-0.202597	-0.570722
O11	O	1.453753	-0.329930	-0.271300
O12	O	1.283480	-0.329877	-0.441608
O13	O	1.453826	-0.426221	-0.740962
O14	O	1.283456	-0.426261	-0.570627
O15	O	1.582937	-0.329806	-0.741003
O16	O	1.582709	-0.553564	-0.441560
O17	O	1.453696	-0.553524	-0.570600
C18	C	1.245347	-0.378068	-0.506115
C19	C	1.128570	-0.378083	-0.506131
C20	C	1.518213	-0.582026	-0.506094
C21	C	1.518266	-0.669276	-0.506111
C22	C	1.073723	-0.428347	-0.573206
C23	C	0.963999	-0.428350	-0.573227
C24	C	0.963979	-0.327823	-0.439089
C25	C	1.073701	-0.327817	-0.439075
C26	C	1.585511	-0.710261	-0.438993
C27	C	1.585563	-0.792241	-0.439019
C28	C	1.518362	-0.833235	-0.506161
C29	C	1.451114	-0.792244	-0.573287
C30	C	1.451068	-0.710265	-0.573265
C31	C	1.451211	-0.963114	-0.573327
C32	C	1.451255	-1.045099	-0.573348
C33	C	1.585705	-1.045090	-0.439082
C34	C	1.585660	-0.963111	-0.439059
C35	C	1.518410	-0.922126	-0.506184
C36	C	1.792347	-0.378088	-0.506158
C37	C	1.909124	-0.378093	-0.506167
C38	C	1.518393	-0.378003	-0.780170
C39	C	1.518426	-0.377971	-0.896946
C40	C	1.518445	-0.173334	-0.506201
C41	C	1.518500	-0.086084	-0.506229
C42	C	1.585660	-0.327759	-0.951831
C43	C	1.585677	-0.327725	-1.061555
C44	C	1.451226	-0.428121	-1.061500
C45	C	1.451203	-0.428150	-0.951778
C46	C	1.518296	-0.378096	-0.233169
C47	C	1.518466	-0.377907	-0.116393
H48	H	1.118394	-0.469275	-0.627811
H49	H	1.396402	-0.825628	-0.627959
H50	H	1.118359	-0.286881	-0.384454
H51	H	1.640320	-0.825608	-0.384364
H52	H	0.919291	-0.286900	-0.384493
C53	C	1.378138	-0.482636	-1.120845
C54	C	1.319233	-0.526601	-1.049290
C55	C	1.251886	-0.576824	-1.103917
H56	H	1.418199	-0.516899	-1.163644
H57	H	1.332333	-0.452614	-1.163630
H58	H	1.365032	-0.556621	-1.006523
H59	H	1.279151	-0.492359	-1.006488
H60	H	1.206081	-0.546802	-1.146702
H61	H	1.291955	-0.611082	-1.146714
H62	H	1.211904	-0.606655	-1.055376
C63	C	1.658298	-0.665715	-0.365963
C64	C	1.598819	-0.618745	-0.298538
C65	C	1.665837	-0.577708	-0.231241
H66	H	1.704056	-0.633617	-0.406062
H67	H	1.698337	-0.701843	-0.325933
H68	H	1.558798	-0.582621	-0.338564
H69	H	1.553063	-0.650823	-0.258416
H70	H	1.705876	-0.613837	-0.191211
H71	H	1.711592	-0.545615	-0.271349
H72	H	1.625490	-0.545840	-0.185479
C73	C	1.658732	-0.273336	-1.121282
C74	C	1.726033	-0.317764	-1.184299
C75	C	1.793335	-0.267683	-1.239345
H76	H	1.698862	-0.243437	-1.073033
H77	H	1.618598	-0.239132	-1.164145
H78	H	1.766164	-0.351955	-1.141439
H79	H	1.685933	-0.347662	-1.232568
H80	H	1.753200	-0.233479	-1.282208
H81	H	1.833457	-0.237786	-1.191088
H82	H	1.839000	-0.297820	-1.282115
H83	H	1.640394	-0.286897	-0.907191
H84	H	1.396447	-0.469038	-0.907090
C85	C	1.658600	-1.089595	-0.366090
C86	C	1.635806	-1.069810	-0.262079
C87	C	1.702921	-1.110826	-0.194837
H88	H	1.729215	-1.076153	-0.381400
H89	H	1.648958	-1.144287	-0.375711
H90	H	1.645457	-1.015130	-0.252463
H91	H	1.565204	-1.083254	-0.246736
H92	H	1.693279	-1.165518	-0.204457
H93	H	1.773532	-1.097381	-0.210156
H94	H	1.687459	-1.097413	-0.124257
C95	C	0.904640	-0.483010	-0.646089
C96	C	0.976181	-0.527040	-0.704789
C97	C	0.921539	-0.577410	-0.771915
H98	H	0.861873	-0.453115	-0.692041
H99	H	0.861822	-0.517220	-0.605845
H100	H	1.018982	-0.492835	-0.745030
H101	H	1.018951	-0.556951	-0.658865
H102	H	0.878721	-0.611619	-0.731671
H103	H	0.878774	-0.547508	-0.817860
H104	H	0.970071	-0.607295	-0.811744
H105	H	1.640374	-0.929734	-0.384383
H106	H	1.396554	-1.078474	-0.628040
C107	C	1.378088	-0.918756	-0.646252
C108	C	1.319227	-0.972201	-0.705038
C109	C	1.251848	-0.931367	-0.772214
H110	H	1.418124	-0.886722	-0.692147
H111	H	1.332257	-0.886843	-0.606040
H112	H	1.365053	-1.004100	-0.745247
H113	H	1.279170	-1.004236	-0.659171
H114	H	1.206017	-0.899454	-0.732003
H115	H	1.291892	-0.899334	-0.818103
H116	H	1.211896	-0.967622	-0.812102
H117	H	1.396311	-0.676896	-0.627921
