data_functionalizedCrystal
_audit_creation_method	'MofGen! by Chris Wilmer'
_symmetry_space_group_name_H-M	'P1'
_symmetry_Int_Tables_number	1
_symmetry_cell_setting	triclinic
loop_
_symmetry_equiv_pos_as_xyz
  x,y,z
_cell_length_a	14.519709
_cell_length_b	11.026607
_cell_length_c	10.065875
_cell_angle_alpha	79.302338
_cell_angle_beta	81.195396
_cell_angle_gamma	83.866919
loop_
_atom_site_label
_atom_site_type_symbol
_atom_site_fract_x
_atom_site_fract_y
_atom_site_fract_z
O1	O	0.375708	-1.628737	0.113512
O2	O	0.709042	-1.295403	0.446845
O3	O	1.042375	-0.962070	0.780178
O4	O	0.331718	-1.275335	0.113511
O5	O	0.665051	-0.942002	0.446845
O6	O	0.998385	-0.608668	0.780178
O7	O	0.221020	-1.461404	0.113499
O8	O	0.554353	-1.128071	0.446833
O9	O	0.887686	-0.794737	0.780166
O10	O	0.486407	-1.442668	0.113524
O11	O	0.819740	-1.109335	0.446857
O12	O	1.153073	-0.776001	0.780190
O13	O	0.242237	-1.425923	-0.113487
O14	O	0.575570	-1.092590	0.219846
O15	O	0.908904	-0.759257	0.553179
O16	O	0.352935	-1.239855	-0.113475
O17	O	0.686268	-0.906521	0.219858
O18	O	1.019602	-0.573188	0.553192
O19	O	0.396926	-1.593256	-0.113475
O20	O	0.730259	-1.259923	0.219859
O21	O	1.063592	-0.926590	0.553192
Zn22	Zn	0.378299	-1.410922	-0.149514
Zn23	Zn	0.711632	-1.077589	0.183819
Zn24	Zn	1.044966	-0.744255	0.517153
Zn25	Zn	0.350345	-1.457669	0.149550
Zn26	Zn	0.683678	-1.124336	0.482884
Zn27	Zn	1.017011	-0.791003	0.816217
O28	O	0.507624	-1.407187	-0.113463
O29	O	0.840957	-1.073854	0.219871
O30	O	1.174290	-0.740521	0.553204
C31	C	0.197125	-1.442790	0.000006
C32	C	0.530458	-1.109457	0.333339
C33	C	0.863791	-0.776124	0.666672
C34	C	0.094312	-1.440173	0.000005
C35	C	0.427646	-1.106840	0.333338
C36	C	0.760979	-0.773506	0.666672
C37	C	0.334211	-1.212366	0.000018
C38	C	0.667545	-0.879033	0.333351
C39	C	1.000878	-0.545700	0.666685
C40	C	0.310019	-1.077600	0.000017
C41	C	0.643352	-0.744266	0.333351
C42	C	0.976685	-0.410933	0.666684
C43	C	0.394432	-1.656225	0.000022
C44	C	0.727765	-1.322892	0.333355
C45	C	1.061099	-0.989559	0.666688
C46	C	0.418624	-1.790993	0.000031
C47	C	0.751957	-1.457660	0.333364
C48	C	1.085290	-1.124327	0.666698
C49	C	-0.282174	-1.430544	0.000040
C50	C	0.051159	-1.097210	0.333374
C51	C	0.384492	-0.763877	0.666707
C52	C	-0.177425	-1.433218	0.000030
C53	C	0.155909	-1.099884	0.333363
C54	C	0.489242	-0.766551	0.666697
C55	C	-0.093934	-1.435358	0.000021
C56	C	0.239399	-1.102025	0.333355
C57	C	0.572732	-0.768691	0.666688
C58	C	0.010822	-1.438033	0.000014
C59	C	0.344155	-1.104700	0.333347
C60	C	0.677489	-0.771366	0.666680
C61	C	0.531519	-1.425802	0.000034
C62	C	0.864852	-1.092468	0.333367
C63	C	1.198185	-0.759135	0.666700
C64	C	0.634330	-1.428420	0.000043
C65	C	0.967664	-1.095087	0.333377
C66	C	1.300997	-0.761753	0.666710
N67	N	0.397378	-1.379027	-0.353617
N68	N	0.730711	-1.045694	-0.020284
N69	N	1.064045	-0.712361	0.313049
C70	C	0.376818	-1.003940	0.000024
C71	C	0.710151	-0.670607	0.333358
C72	C	1.043484	-0.337273	0.666691
C73	C	0.351815	-0.864652	0.000024
C74	C	0.685148	-0.531318	0.333357
C75	C	1.018482	-0.197985	0.666691
C76	C	0.356976	-1.446564	-0.421401
C77	C	0.690309	-1.113231	-0.088067
C78	C	1.023642	-0.779898	0.245266
C79	C	0.371668	-1.422027	-0.578566
C80	C	0.705001	-1.088693	-0.245233
C81	C	1.038335	-0.755360	0.088100
N82	N	0.331260	-1.489574	0.353654
N83	N	0.664593	-1.156240	0.686987
N84	N	0.997927	-0.822907	1.020321
H85	H	0.452517	-1.043996	0.000024
H86	H	0.785850	-0.710662	0.333357
H87	H	1.119184	-0.377329	0.666690
Br88	Br	0.255736	-1.616520	-0.549162
Br89	Br	0.589069	-1.283187	-0.215829
Br90	Br	0.922402	-0.949853	0.117505
H91	H	0.276108	-0.824606	0.000052
H92	H	0.609442	-0.491272	0.333385
H93	H	0.942775	-0.157939	0.666719
Br94	Br	0.544806	-0.857730	0.000017
Br95	Br	0.878140	-0.524396	0.333350
Br96	Br	1.211473	-0.191063	0.666684
H97	H	0.311504	-1.522548	-0.363081
H98	H	0.644837	-1.189214	-0.029748
H99	H	0.978171	-0.855881	0.303585
Br100	Br	0.183846	-1.010848	-0.000010
Br101	Br	0.517179	-0.677514	0.333324
Br102	Br	0.850512	-0.344181	0.666657
Br103	Br	0.447446	-1.295357	-0.675755
Br104	Br	0.780780	-0.962024	-0.342421
Br105	Br	1.114113	-0.628690	-0.009088
H106	H	0.442841	-1.303036	-0.411939
H107	H	0.776175	-0.969702	-0.078605
H108	H	1.109508	-0.636369	0.254728
