data_functionalizedCrystal
_audit_creation_method	'MofGen! by Chris Wilmer'
_symmetry_space_group_name_H-M	'P1'
_symmetry_Int_Tables_number	1
_symmetry_cell_setting	triclinic
loop_
_symmetry_equiv_pos_as_xyz
  x,y,z
_cell_length_a	11.026607
_cell_length_b	14.519709
_cell_length_c	10.065875
_cell_angle_alpha	98.804604
_cell_angle_beta	79.302338
_cell_angle_gamma	96.133081
loop_
_atom_site_label
_atom_site_type_symbol
_atom_site_fract_x
_atom_site_fract_y
_atom_site_fract_z
O1	O	1.628737	0.375708	-0.113512
O2	O	2.128737	0.875708	0.386488
O3	O	1.275335	0.331718	-0.113511
O4	O	1.775335	0.831718	0.386489
O5	O	1.461404	0.221020	-0.113499
O6	O	1.961404	0.721020	0.386501
O7	O	1.442668	0.486407	-0.113524
O8	O	1.942668	0.986407	0.386476
O9	O	1.425923	0.242237	0.113487
O10	O	1.925923	0.742237	0.613487
O11	O	1.239855	0.352935	0.113475
O12	O	1.739855	0.852935	0.613475
O13	O	1.593256	0.396926	0.113475
O14	O	2.093256	0.896926	0.613475
Zn15	Zn	1.410922	0.378299	0.149514
Zn16	Zn	1.910922	0.878299	0.649514
Zn17	Zn	1.457669	0.350345	-0.149550
Zn18	Zn	1.957669	0.850345	0.350450
O19	O	1.407187	0.507624	0.113463
O20	O	1.907187	1.007624	0.613463
C21	C	1.212366	0.334211	-0.000018
C22	C	1.712366	0.834211	0.499982
C23	C	1.077600	0.310019	-0.000017
C24	C	1.577600	0.810019	0.499983
C25	C	1.442790	0.197125	-0.000006
C26	C	1.942790	0.697125	0.499994
C27	C	1.440173	0.094312	-0.000005
C28	C	1.940173	0.594312	0.499995
C29	C	1.003940	0.376818	-0.000024
C30	C	1.503940	0.876818	0.499976
C31	C	0.864652	0.351815	-0.000024
C32	C	1.364652	0.851815	0.499976
C33	C	1.430544	-0.282174	-0.000040
C34	C	1.930544	0.217826	0.499960
C35	C	1.433218	-0.177425	-0.000030
C36	C	1.933218	0.322575	0.499970
C37	C	1.435358	-0.093934	-0.000021
C38	C	1.935358	0.406066	0.499979
C39	C	1.438033	0.010822	-0.000014
C40	C	1.938033	0.510822	0.499986
C41	C	1.656225	0.394432	-0.000022
C42	C	2.156225	0.894432	0.499978
C43	C	1.790993	0.418624	-0.000031
C44	C	2.290993	0.918624	0.499969
C45	C	1.425802	0.531519	-0.000034
C46	C	1.925802	1.031519	0.499966
C47	C	1.428420	0.634330	-0.000043
C48	C	1.928420	1.134330	0.499957
N49	N	1.379027	0.397378	0.353617
N50	N	1.879027	0.897378	0.853617
N51	N	1.489574	0.331260	-0.353654
N52	N	1.989574	0.831260	0.146346
C53	C	1.446564	0.356976	0.421401
C54	C	1.946564	0.856976	0.921401
C55	C	1.422027	0.371668	0.578566
C56	C	1.922027	0.871668	1.078566
H57	H	1.043996	0.452517	-0.000024
H58	H	1.543996	0.952517	0.499976
H59	H	0.824606	0.276108	-0.000052
H60	H	1.324606	0.776108	0.499948
O61	O	1.288213	0.451495	0.423122
O62	O	1.788213	0.951495	0.923122
C63	C	1.173332	0.413519	0.388307
C64	C	1.673332	0.913519	0.888307
H65	H	1.178425	0.335878	0.348939
H66	H	1.678425	0.835878	0.848939
H67	H	1.097849	0.422861	0.482353
H68	H	1.597849	0.922861	0.982353
H69	H	1.150824	0.451110	0.305478
H70	H	1.650824	0.951110	0.805478
O71	O	1.029805	0.219699	-0.000253
O72	O	1.529805	0.719699	0.499747
C73	C	0.975741	0.190755	-0.117793
C74	C	1.475741	0.690755	0.382207
H75	H	1.018723	0.236232	-0.199963
H76	H	1.518723	0.736232	0.300037
H77	H	0.992982	0.114580	-0.157249
H78	H	1.492982	0.614580	0.342751
H79	H	0.871804	0.198045	-0.091214
H80	H	1.371804	0.698045	0.408786
H81	H	1.522548	0.311504	0.363081
H82	H	2.022548	0.811504	0.863081
O83	O	1.331292	0.425793	0.648277
O84	O	1.831292	0.925793	1.148277
C85	C	1.243240	0.371740	0.730926
C86	C	1.743240	0.871740	1.230926
H87	H	1.287883	0.309451	0.752185
H88	H	1.787883	0.809451	1.252185
H89	H	1.208642	0.416448	0.831467
H90	H	1.708642	0.916448	1.331467
H91	H	1.161997	0.345614	0.675960
H92	H	1.661997	0.845614	1.175960
O93	O	0.838850	0.508904	-0.000298
O94	O	1.338850	1.008904	0.499702
C95	C	0.929652	0.515868	-0.117848
C96	C	1.429652	1.015868	0.382152
H97	H	0.912360	0.455019	-0.199994
H98	H	1.412360	0.955019	0.300006
H99	H	0.924734	0.584657	-0.157334
H100	H	1.424734	1.084657	0.342666
H101	H	1.025285	0.513561	-0.091270
H102	H	1.525285	1.013561	0.408730
O103	O	1.579955	0.276761	0.576779
O104	O	2.079955	0.776761	1.076779
C105	C	1.527189	0.201448	0.494372
C106	C	2.027189	0.701448	0.994372
H107	H	1.435816	0.220770	0.472987
H108	H	1.935816	0.720770	0.972987
H109	H	1.593381	0.185563	0.393878
H110	H	2.093381	0.685563	0.893878
H111	H	1.509703	0.137112	0.549613
H112	H	2.009703	0.637112	1.049613
