data_functionalizedCrystal
_audit_creation_method	'MofGen! by Chris Wilmer'
_symmetry_space_group_name_H-M	'P1'
_symmetry_Int_Tables_number	1
_symmetry_cell_setting	triclinic
loop_
_symmetry_equiv_pos_as_xyz
  x,y,z
_cell_length_a	14.421503
_cell_length_b	19.288864
_cell_length_c	19.288865
_cell_angle_alpha	96.863755
_cell_angle_beta	90.000948
_cell_angle_gamma	89.978553
loop_
_atom_site_label
_atom_site_type_symbol
_atom_site_fract_x
_atom_site_fract_y
_atom_site_fract_z
O1	O	0.077420	-0.921353	0.086638
O2	O	0.077358	-0.719092	0.098327
O3	O	0.077372	-0.826067	-0.008648
O4	O	0.077405	-0.814378	0.193613
O5	O	-0.076851	-0.826049	-0.008632
O6	O	-0.076866	-0.719074	0.098343
O7	O	-0.076804	-0.921335	0.086654
Cu8	Cu	-0.090917	-0.820203	0.092500
Cu9	Cu	0.091470	-0.820224	0.092481
O10	O	-0.076818	-0.814360	0.193629
C11	C	0.000238	-0.693207	0.097959
C12	C	0.000213	-0.616103	0.096830
N13	N	-0.219198	-0.820193	0.092513
C14	C	0.000257	-0.825682	-0.034516
C15	C	0.000249	-0.824553	-0.111620
C16	C	-0.468858	-0.770720	0.141956
C17	C	-0.530639	-0.833441	0.155241
C18	C	-0.408359	-0.820210	0.092496
C19	C	-0.530673	-0.757505	0.079227
C20	C	-0.591081	-0.820221	0.092481
C21	C	-0.468779	-0.882963	0.105812
C22	C	-0.468808	-0.806986	0.029771
C23	C	-0.530560	-0.869753	0.043030
C24	C	-0.303098	-0.820203	0.092506
C25	C	-0.696340	-0.820235	0.092471
N26	N	0.219752	-0.820239	0.092463
C27	C	0.000318	-0.947220	0.087022
C28	C	0.000349	-1.024324	0.088151
C29	C	0.000238	-0.571407	0.159598
C30	C	0.000248	-0.498960	0.158537
C31	C	0.000252	-0.471212	0.094705
C32	C	0.000222	-0.515918	0.031929
C33	C	0.000202	-0.588364	0.032991
C34	C	0.054306	-0.362956	0.044520
C35	C	0.054331	-0.290512	0.043460
C36	C	0.000308	-0.247767	0.091425
C37	C	-0.053729	-0.277473	0.140462
C38	C	-0.053749	-0.349919	0.141524
C39	C	0.000272	-0.392658	0.093546
C40	C	0.000342	-0.124514	0.153047
C41	C	0.000346	-0.052066	0.151984
C42	C	0.000329	-0.069026	0.025374
C43	C	0.000316	-0.141473	0.026439
C44	C	0.000326	-0.169212	0.090277
C45	C	0.000264	-0.887321	-0.156316
C46	C	0.000278	-0.886260	-0.228763
C47	C	0.000259	-0.822428	-0.256511
C48	C	0.000250	-0.759652	-0.211805
C49	C	0.000244	-0.760714	-0.139359
C50	C	-0.053778	-0.772242	-0.364793
C51	C	-0.053778	-0.771182	-0.437237
C52	C	0.000279	-0.819148	-0.479956
C53	C	0.054324	-0.868186	-0.450224
C54	C	0.054319	-0.869248	-0.377778
C55	C	0.000265	-0.821269	-0.335065
C56	C	0.000310	-0.880770	-0.603209
C57	C	0.000330	-0.879707	-0.675657
C58	C	0.000293	-0.753097	-0.658697
C59	C	0.000282	-0.754162	-0.586250
C60	C	0.000286	-0.818001	-0.558511
C61	C	0.000298	-0.814745	0.219497
C62	C	0.000313	-0.815874	0.296601
H63	H	-0.441766	-0.728909	0.183815
Cl64	Cl	-0.572572	-0.850726	0.237126
Cl65	Cl	0.122265	-0.930888	-0.340402
H66	H	0.000270	-0.939303	-0.133736
H67	H	0.000390	-0.046435	-0.026600
H68	H	-0.097780	-0.731250	-0.461439
Cl69	Cl	-0.426987	-0.964861	0.123226
H70	H	0.000266	-0.462561	0.209652
Cl71	Cl	0.000172	-0.644557	-0.045924
H72	H	-0.557862	-0.704472	0.068011
H73	H	0.000301	-0.177866	-0.024674
Cl74	Cl	0.122272	-0.253173	-0.018179
H75	H	0.000232	-0.709599	-0.102967
Cl76	Cl	0.000297	-0.965174	-0.284963
H77	H	0.098343	-0.907244	-0.485005
Cl78	Cl	-0.572134	-0.934445	-0.021560
Cl79	Cl	-0.121649	-0.223744	0.200765
Cl80	Cl	-0.426838	-0.789672	-0.052090
Cl81	Cl	0.000247	-0.606275	0.239852
Cl82	Cl	-0.121682	-0.387262	0.203164
Cl83	Cl	0.000346	-0.159390	0.233300
Cl84	Cl	0.000373	0.004125	0.230900
H85	H	0.098304	-0.397755	0.005460
Cl86	Cl	0.000311	-0.961023	-0.568333
H87	H	0.000347	-0.930822	-0.712049
H88	H	-0.097802	-0.733180	-0.330016
Cl89	Cl	0.000221	-0.481037	-0.048318
H90	H	0.000282	-0.701123	-0.681288
H91	H	0.000265	-0.703049	-0.549857
Cl92	Cl	0.000233	-0.679405	-0.246686
