data_functionalizedCrystal
_audit_creation_method	'MofGen! by Chris Wilmer'
_symmetry_space_group_name_H-M	'P1'
_symmetry_Int_Tables_number	1
_symmetry_cell_setting	triclinic
loop_
_symmetry_equiv_pos_as_xyz
  x,y,z
_cell_length_a	11.026607
_cell_length_b	10.540539
_cell_length_c	10.065875
_cell_angle_alpha	98.880198
_cell_angle_beta	79.302338
_cell_angle_gamma	96.555754
loop_
_atom_site_label
_atom_site_type_symbol
_atom_site_fract_x
_atom_site_fract_y
_atom_site_fract_z
O1	O	1.632406	0.517971	-0.113482
O2	O	1.278575	0.457324	-0.113485
O3	O	1.463562	0.304709	-0.113482
O4	O	1.447418	0.670585	-0.113485
O5	O	1.428289	0.333960	0.113506
O6	O	1.243301	0.486575	0.113503
O7	O	1.597132	0.547222	0.113506
Zn8	Zn	1.414616	0.521543	0.149544
Zn9	Zn	1.461091	0.483003	-0.149523
O10	O	1.412145	0.699836	0.113503
C11	C	1.215630	0.460761	0.000009
C12	C	1.080627	0.427408	0.000007
C13	C	1.007620	0.519500	0.000005
C14	C	0.868087	0.485031	0.000004
C15	C	1.444715	0.271766	0.000010
C16	C	1.441094	0.130024	0.000002
C17	C	1.302369	-0.083873	-0.000508
C18	C	1.305961	0.063616	0.000003
C19	C	1.485983	0.099314	0.129624
C20	C	1.481354	-0.048226	0.129734
C21	C	1.524215	-0.081406	-0.128394
C22	C	1.525726	0.065627	-0.130108
C23	C	1.660077	0.543784	0.000010
C24	C	1.795082	0.577136	0.000002
C25	C	1.430992	0.732779	0.000008
C26	C	1.434615	0.874520	0.000007
N27	N	1.382908	0.547846	0.353649
N28	N	1.492809	0.456692	-0.353628
C29	C	1.450050	0.492145	0.421429
C30	C	1.425656	0.512401	0.578596
H31	H	1.269230	0.083037	-0.092915
H32	H	1.048415	0.623863	0.000012
H33	H	1.263433	-0.136144	-0.093462
H34	H	1.625464	0.110420	-0.137935
H35	H	1.234841	-0.113813	0.091924
F36	F	1.548574	0.409938	0.345200
H37	H	0.835869	0.681507	0.000010
F38	F	1.027309	0.290997	0.000017
H39	H	1.621956	-0.107365	-0.129265
H40	H	1.307360	0.610524	0.411974
H41	H	0.827302	0.380657	-0.000030
F42	F	1.326903	0.594331	0.654820
H43	H	1.568352	0.393999	0.588053
H44	H	1.239969	0.106079	0.093075
H45	H	1.418236	-0.074467	0.226628
H46	H	1.577626	-0.074149	0.135615
H47	H	1.584472	0.144027	0.134445
H48	H	1.495746	-0.135199	-0.226639
F49	F	1.483499	0.089957	-0.255463
F50	F	1.407345	0.158305	0.255707
