data_functionalizedCrystal
_audit_creation_method	'MofGen! by Chris Wilmer'
_symmetry_space_group_name_H-M	'P1'
_symmetry_Int_Tables_number	1
_symmetry_cell_setting	triclinic
loop_
_symmetry_equiv_pos_as_xyz
  x,y,z
_cell_length_a	15.995350
_cell_length_b	19.288859
_cell_length_c	18.366186
_cell_angle_alpha	89.990083
_cell_angle_beta	90.002118
_cell_angle_gamma	96.686950
loop_
_atom_site_label
_atom_site_type_symbol
_atom_site_fract_x
_atom_site_fract_y
_atom_site_fract_z
O1	O	-0.104427	0.921626	-0.060557
O2	O	-0.118522	0.719402	-0.060555
O3	O	0.010434	0.826042	-0.060559
O4	O	-0.233383	0.814986	-0.060553
O5	O	0.010440	0.826024	0.060540
O6	O	-0.118516	0.719384	0.060544
O7	O	-0.104420	0.921608	0.060542
Zn8	Zn	-0.111467	0.820493	0.079770
Zn9	Zn	-0.111476	0.820517	-0.079783
O10	O	-0.233377	0.814968	0.060546
C11	C	-0.118067	0.693515	-0.000005
C12	C	-0.116708	0.616408	-0.000004
C13	C	-0.183181	0.052540	-0.000004
C14	C	-0.184465	0.124989	-0.000008
C15	C	-0.108799	0.169500	-0.000008
C16	C	-0.031843	0.141555	-0.000023
C17	C	-0.030561	0.069106	-0.000027
C18	C	-0.052366	0.290617	0.042420
C19	C	-0.053651	0.363064	0.042428
C20	C	-0.112750	0.392956	-0.000000
C21	C	-0.170578	0.350390	-0.042427
C22	C	-0.169296	0.277942	-0.042431
C23	C	-0.110181	0.248059	-0.000005
C24	C	-0.191093	0.499451	0.000006
C25	C	-0.192374	0.571902	-0.000003
C26	C	-0.039751	0.588467	-0.000011
C27	C	-0.038472	0.516016	-0.000010
C28	C	-0.114146	0.471513	0.000002
C29	C	-0.264573	0.815434	-0.000003
C30	C	-0.357518	0.816805	-0.000001
C31	C	-0.695247	0.821726	-0.000012
C32	C	-0.647525	0.897673	-0.000284
C33	C	-0.550840	0.896302	-0.000007
C34	C	-0.527696	0.819285	-0.000007
C35	C	-0.568917	0.781814	0.069144
C36	C	-0.665546	0.783722	0.069198
C37	C	-0.665907	0.782174	-0.068514
C38	C	-0.568961	0.782192	-0.069424
C39	C	-0.433004	0.817901	-0.000002
C40	C	-0.789940	0.823107	-0.000013
C41	C	0.041630	0.825576	-0.000012
C42	C	0.134575	0.824206	-0.000018
C43	C	-0.104876	0.947495	-0.000010
C44	C	-0.106235	1.024602	-0.000015
N45	N	-0.111461	0.820482	0.188661
N46	N	-0.111475	0.820534	-0.188674
C47	C	-0.054387	0.867718	0.226760
C48	C	-0.054383	0.867722	0.302988
C49	C	-0.111468	0.820497	0.341114
C50	C	-0.168546	0.773253	0.303006
C51	C	-0.168543	0.773245	0.226780
C52	C	-0.187759	0.811397	0.461876
C53	C	-0.187764	0.811410	0.538101
C54	C	-0.111479	0.820517	0.576222
C55	C	-0.035185	0.829627	0.538108
C56	C	-0.035182	0.829619	0.461881
C57	C	-0.111478	0.820500	0.423769
C58	C	-0.054396	0.867760	0.696975
C59	C	-0.054391	0.867760	0.773204
C60	C	-0.168561	0.773294	0.773222
C61	C	-0.168559	0.773291	0.696994
C62	C	-0.111477	0.820528	0.658875
H63	H	-0.247125	0.147740	0.000008
Br64	Br	-0.719190	0.688843	-0.069290
H65	H	-0.665930	0.928032	-0.049882
Br66	Br	-0.246025	0.709195	0.824958
H67	H	-0.667082	0.927913	0.048982
H68	H	-0.555007	0.725231	0.071716
Br69	Br	-0.246014	0.709156	0.354746
H70	H	-0.006568	0.397716	0.076978
H71	H	-0.553808	0.726030	-0.073602
Br72	Br	-0.699992	0.823565	-0.155877
H73	H	-0.698006	0.727963	0.072342
Br74	Br	-0.246005	0.709134	0.175070
Br75	Br	-0.504204	0.945695	0.082760
H76	H	-0.007914	0.906222	0.665938
Br77	Br	-0.291301	0.799106	0.410149
Br78	Br	-0.695884	0.829236	0.155357
Br79	Br	-0.293790	0.439049	0.000021
H80	H	-0.007905	0.906188	0.334013
Br81	Br	-0.285880	-0.007855	0.000004
Br82	Br	-0.247769	0.220176	-0.100010
Br83	Br	0.027896	0.250063	0.099957
H84	H	-0.007906	0.906179	0.195726
H85	H	0.029764	0.177800	-0.000026
Br86	Br	-0.246022	0.709184	0.645283
H87	H	-0.218704	0.374726	-0.076975
H88	H	0.026938	0.837034	0.430852
H89	H	-0.540446	0.807830	0.120608
Br90	Br	0.073873	0.031189	-0.000047
Br91	Br	-0.296810	0.609818	0.000001
H92	H	-0.007910	0.906223	0.804225
Br93	Br	-0.523286	0.827791	-0.154694
Br94	Br	0.062941	0.648866	-0.000027
H95	H	-0.522304	0.925759	-0.049575
H96	H	0.026933	0.837042	0.569144
Br97	Br	-0.291302	0.799055	0.589820
H98	H	0.024186	0.493271	-0.000015
