data_functionalizedCrystal
_audit_creation_method	'MofGen! by Chris Wilmer'
_symmetry_space_group_name_H-M	'P1'
_symmetry_Int_Tables_number	1
_symmetry_cell_setting	triclinic
loop_
_symmetry_equiv_pos_as_xyz
  x,y,z
_cell_length_a	16.625548
_cell_length_b	29.839131
_cell_length_c	16.625539
_cell_angle_alpha	89.969769
_cell_angle_beta	89.982945
_cell_angle_gamma	90.042488
loop_
_atom_site_label
_atom_site_type_symbol
_atom_site_fract_x
_atom_site_fract_y
_atom_site_fract_z
Zn1	Zn	1.232546	-0.178848	-0.455888
Zn2	Zn	1.232413	-0.253976	-0.321046
Zn3	Zn	1.097716	-0.178863	-0.321069
Zn4	Zn	1.097634	-0.253953	-0.455836
O5	O	1.165077	-0.216410	-0.388460
O6	O	1.345361	-0.188818	-0.438013
O7	O	1.214524	-0.244028	-0.208217
O8	O	1.115692	-0.115994	-0.338984
O9	O	1.345263	-0.244014	-0.338946
O10	O	1.214751	-0.115983	-0.438035
O11	O	1.115563	-0.188843	-0.208233
O12	O	0.984873	-0.188820	-0.338933
O13	O	1.115552	-0.243974	-0.568676
O14	O	0.984813	-0.243989	-0.437947
O15	O	1.214671	-0.188795	-0.568714
O16	O	1.214444	-0.316841	-0.338896
O17	O	1.115423	-0.316823	-0.437925
C18	C	0.955587	-0.216404	-0.388437
C19	C	0.865966	-0.216412	-0.388447
C20	C	0.537790	-0.216415	-0.388481
C21	C	0.629098	-0.216413	-0.388469
C22	C	0.701875	-0.216413	-0.388463
C23	C	0.793189	-0.216411	-0.388452
C24	C	1.164932	-0.333133	-0.388420
C25	C	1.164943	-0.383067	-0.388430
C26	C	1.216732	-0.692707	-0.336971
C27	C	1.216831	-0.880380	-0.337002
O28	O	1.260748	-0.904641	-0.293219
N29	N	1.165245	-0.903852	-0.388521
C30	C	1.113633	-0.880403	-0.440039
O31	O	1.069764	-0.904674	-0.483866
C32	C	1.113538	-0.692731	-0.440011
C33	C	1.165123	-0.669261	-0.388483
C34	C	1.268313	-0.669237	-0.285447
C35	C	1.268284	-0.622321	-0.285437
C36	C	1.216675	-0.598876	-0.336950
C37	C	1.165094	-0.622346	-0.388473
C38	C	1.061931	-0.669283	-0.491533
C39	C	1.061914	-0.622362	-0.491523
C40	C	1.113498	-0.598892	-0.439995
C41	C	1.113456	-0.551985	-0.439975
N42	N	1.165043	-0.528512	-0.388456
C43	C	1.216652	-0.551958	-0.336944
C44	C	1.113685	-0.978934	-0.440049
C45	C	1.113708	-1.025852	-0.440055
C46	C	1.216908	-1.025825	-0.337019
C47	C	1.216880	-0.978906	-0.337009
C48	C	1.165272	-0.955462	-0.388530
C49	C	1.216588	-0.453432	-0.336925
C50	C	1.216553	-0.406513	-0.336917
C51	C	1.113356	-0.406543	-0.439956
C52	C	1.113389	-0.453459	-0.439962
C53	C	1.165011	-0.476902	-0.388443
O54	O	1.069569	-0.527694	-0.483742
O55	O	1.260528	-0.527679	-0.293136
C56	C	1.216760	-0.739622	-0.336981
C57	C	1.165180	-0.763092	-0.388504
C58	C	1.113570	-0.739647	-0.440017
C59	C	1.165202	-0.810010	-0.388510
C60	C	1.216811	-0.833455	-0.336997
C61	C	1.268398	-0.809983	-0.285479
C62	C	1.268370	-0.763068	-0.285468
C63	C	1.061984	-0.763119	-0.491536
C64	C	1.062016	-0.810034	-0.491541
C65	C	1.113625	-0.833480	-0.440028
C66	C	1.375386	-0.216417	-0.388483
C67	C	1.465007	-0.216420	-0.388493
C68	C	1.165117	-0.216380	-0.598769
C69	C	1.165134	-0.216368	-0.688390
C70	C	1.165246	-0.099232	-0.388518
C71	C	1.165317	-0.049297	-0.388542
C72	C	1.165147	-0.216358	-0.761172
C73	C	1.165166	-0.216341	-0.852481
C74	C	1.165185	-0.216325	-0.925257
C75	C	1.165205	-0.216309	-1.016572
C76	C	1.165085	-0.216407	-0.178969
C77	C	1.165224	-0.216293	-0.089348
H78	H	1.258559	-0.387405	-0.294954
H79	H	1.019889	-0.603276	-0.533480
N80	N	1.272527	-0.953598	-0.281439
H81	H	1.309865	-0.934101	-0.314238
H82	H	1.239723	-0.934187	-0.244047
N83	N	1.058056	-1.051159	-0.495622
H84	H	1.070540	-1.042966	-0.553242
H85	H	1.065918	-1.084432	-0.487748
H86	H	1.310291	-0.603215	-0.243481
H87	H	1.310343	-0.688321	-0.243499
N88	N	1.006367	-0.835346	-0.547114
H89	H	0.973672	-0.813370	-0.579743
H90	H	1.039175	-0.854778	-0.584465
H91	H	1.019922	-0.688384	-0.533489
N92	N	1.324013	-0.737756	-0.229900
H93	H	1.311535	-0.745951	-0.172279
H94	H	1.381595	-0.745898	-0.242553
H95	H	1.310418	-0.829081	-0.243533
N96	N	1.058009	-0.953653	-0.495616
H97	H	1.020653	-0.934220	-0.462810
H98	H	1.090791	-0.934182	-0.533007
H99	H	1.258930	-1.044922	-0.295075
H100	H	1.071387	-0.472569	-0.481922
N101	N	1.006314	-0.737835	-0.547096
H102	H	0.973642	-0.759828	-0.579730
H103	H	0.969008	-0.718405	-0.514234
N104	N	1.057694	-0.381247	-0.495508
H105	H	1.090436	-0.361749	-0.532894
H106	H	1.025026	-0.403258	-0.528101
N107	N	1.272265	-0.478713	-0.281361
H108	H	1.304932	-0.456720	-0.248723
H109	H	1.239480	-0.498212	-0.244019
