data_functionalizedCrystal
_audit_creation_method	'MofGen! by Chris Wilmer'
_symmetry_space_group_name_H-M	'P1'
_symmetry_Int_Tables_number	1
_symmetry_cell_setting	triclinic
loop_
_symmetry_equiv_pos_as_xyz
  x,y,z
_cell_length_a	6.817900
_cell_length_b	9.582860
_cell_length_c	10.773894
_cell_angle_alpha	94.946203
_cell_angle_beta	96.645922
_cell_angle_gamma	111.206767
loop_
_atom_site_label
_atom_site_type_symbol
_atom_site_fract_x
_atom_site_fract_y
_atom_site_fract_z
V1	V	-3.987869	-0.201559	-0.388722
O2	O	-3.934976	0.015345	-0.381557
O3	O	-3.979226	-0.405101	-0.385837
O4	O	-3.904451	-0.195976	-0.558360
O5	O	-4.010268	-0.195228	-0.207840
V6	V	-4.470883	-0.175909	-0.367114
O7	O	-4.250244	-0.257827	-0.436119
O8	O	-4.658705	-0.119641	-0.319717
O9	O	-4.256320	0.027633	-0.369999
O10	O	-4.641173	-0.392813	-0.374279
O11	O	-4.565881	-0.182240	-0.547996
O12	O	-4.331094	-0.181492	-0.197476
C13	C	-3.835031	-0.454798	-0.379646
C14	C	-3.909018	-0.621180	-0.378418
C15	C	-3.739648	-0.188036	-0.599715
C16	C	-3.752992	-0.184818	-0.738393
C17	C	-3.932156	-0.190395	-0.806249
C18	C	-3.945951	-0.187069	-0.949581
C19	C	-4.063858	0.077322	-0.376186
C20	C	-3.969109	0.243702	-0.377422
C21	C	-4.159242	-0.189437	-0.156114
C22	C	-4.125136	-0.192648	-0.017435
H23	H	-3.802757	-0.179821	-0.997593
O24	O	-4.314805	-0.202215	-0.953843
H25	H	-4.448135	-0.205778	-1.025352
H26	H	-4.075327	-0.197623	-0.758230
O27	O	-3.563322	-0.175238	-0.801981
H28	H	-3.603928	-0.174142	-0.904583
