data_functionalizedCrystal
_audit_creation_method	'MofGen! by Chris Wilmer'
_symmetry_space_group_name_H-M	'P1'
_symmetry_Int_Tables_number	1
_symmetry_cell_setting	triclinic
loop_
_symmetry_equiv_pos_as_xyz
  x,y,z
_cell_length_a	16.109301
_cell_length_b	19.188925
_cell_length_c	15.186229
_cell_angle_alpha	89.996613
_cell_angle_beta	89.999362
_cell_angle_gamma	83.302015
loop_
_atom_site_label
_atom_site_type_symbol
_atom_site_fract_x
_atom_site_fract_y
_atom_site_fract_z
O1	O	1.102831	0.089744	-0.073172
O2	O	0.860732	0.100913	-0.073186
O3	O	0.988770	-0.006311	-0.073174
O4	O	0.974793	0.196968	-0.073185
O5	O	0.988762	-0.006313	0.073284
O6	O	0.860723	0.100911	0.073271
O7	O	1.102823	0.089743	0.073285
Zn8	Zn	0.981772	0.095327	0.096531
Zn9	Zn	0.981783	0.095329	-0.096432
O10	O	0.974784	0.196966	0.073273
C11	C	0.829754	0.100460	0.000041
C12	C	0.737463	0.099103	0.000036
C13	C	0.988314	-0.032324	0.000054
C14	C	0.986958	-0.109832	0.000052
C15	C	0.514989	0.159574	0.000043
C16	C	0.428273	0.158294	0.000048
C17	C	0.448572	0.031077	0.000051
C18	C	0.535287	0.032357	0.000052
C19	C	0.568493	0.096608	0.000043
C20	C	0.395062	0.094047	0.000048
C21	C	0.301041	0.092659	0.000054
C22	C	0.662520	0.097996	0.000039
C23	C	1.053003	-0.671448	0.000034
C24	C	1.054285	-0.598622	0.000042
C25	C	0.979156	-0.553863	0.000037
C26	C	0.902740	-0.581935	0.000047
C27	C	0.901460	-0.654760	0.000048
N28	N	0.924769	-0.433309	-0.049816
N29	N	0.925990	-0.364129	-0.049819
C30	C	0.983007	-0.334445	0.000037
N31	N	1.038771	-0.376556	0.049884
N32	N	1.037552	-0.445742	0.049883
C33	C	0.980535	-0.474895	0.000037
C34	C	1.060809	-0.227414	0.000042
C35	C	1.062087	-0.154586	0.000056
C36	C	0.910540	-0.137901	0.000052
C37	C	0.909263	-0.210728	0.000047
C38	C	0.984400	-0.255480	0.000038
C39	C	1.133800	0.090196	0.000056
C40	C	1.226091	0.091552	0.000056
C41	C	0.975240	0.222979	0.000043
C42	C	0.976597	0.300487	0.000039
N43	N	0.981770	0.095325	0.228224
N44	N	0.981791	0.095325	-0.228125
C45	C	1.038485	0.047862	0.453952
C46	C	1.038487	0.047860	0.546142
C47	C	0.925070	0.142790	0.546140
C48	C	0.925064	0.142788	0.453952
C49	C	0.981776	0.095325	0.407861
C50	C	0.981785	0.095325	0.592238
C51	C	0.981787	0.095324	0.692194
C52	C	0.981773	0.095325	0.307898
H53	H	0.542022	0.211891	0.000042
C54	C	0.875799	0.263651	0.425549
C55	C	0.862728	0.194965	0.403281
H56	H	0.837318	0.295859	0.394261
H57	H	0.867683	0.270443	0.487041
H58	H	0.931258	0.271237	0.410431
H59	H	0.807271	0.187378	0.418405
H60	H	0.870838	0.188170	0.341775
C61	C	0.439169	-0.077755	0.075340
C62	C	0.412069	-0.039546	0.000051
H63	H	0.416630	-0.121353	0.075338
H64	H	0.498462	-0.086002	0.075336
H65	H	0.420778	-0.051826	0.126407
H66	H	0.430465	-0.065472	-0.051016
H67	H	0.352762	-0.031301	0.000047
C68	C	0.416925	0.284170	0.000032
C69	C	0.369462	0.227508	0.000041
H70	H	0.380616	0.326901	0.000023
H71	H	0.451167	0.282023	0.051101
H72	H	0.451171	0.282016	-0.051045
H73	H	0.335220	0.229659	0.051122
H74	H	0.335206	0.229656	-0.051033
H75	H	1.084663	0.009211	0.583667
C76	C	0.874726	0.184950	0.687458
C77	C	0.862743	0.194966	0.596807
H78	H	0.836251	0.217167	0.718734
H79	H	0.865865	0.138357	0.702570
H80	H	0.930188	0.192546	0.702549
H81	H	0.807283	0.187366	0.581716
H82	H	0.871597	0.241571	0.581689
H83	H	1.114186	-0.707881	0.000031
C84	C	0.579299	-0.075681	-0.075241
C85	C	0.594106	-0.036860	0.000049
H86	H	0.615616	-0.118408	-0.075241
H87	H	0.522911	-0.085640	-0.075235
H88	H	0.589343	-0.049326	-0.126307
H89	H	0.584056	-0.063214	0.051116
H90	H	0.650508	-0.026903	0.000051
C91	C	1.183832	-0.590406	-0.075274
C92	C	1.138274	-0.567758	0.000023
H93	H	1.235680	-0.571349	-0.075289
H94	H	1.193828	-0.640177	-0.075263
H95	H	1.152889	-0.575042	-0.126335
H96	H	1.169215	-0.583127	0.051085
H97	H	1.128281	-0.517977	0.000021
C98	C	0.816264	-0.490360	-0.075255
C99	C	0.820155	-0.532740	0.000037
H100	H	0.765275	-0.459993	-0.075259
H101	H	0.861948	-0.463223	-0.075250
H102	H	0.818916	-0.519124	-0.126319
H103	H	0.817510	-0.503975	0.051102
H104	H	0.774459	-0.559879	0.000040
C105	C	0.751792	-0.630952	0.000042
C106	C	0.817468	-0.685613	0.000043
H107	H	0.699940	-0.650001	0.000032
H108	H	0.755440	-0.602901	0.051115
H109	H	0.755451	-0.602888	-0.051032
H110	H	0.813813	-0.713674	0.051121
H111	H	0.813819	-0.713675	-0.051034
C112	C	1.189590	-0.264053	-0.075240
C113	C	1.143396	-0.276611	0.000043
H114	H	1.240577	-0.294422	-0.075235
H115	H	1.158250	-0.272559	-0.126306
H116	H	1.201282	-0.216662	-0.075226
H117	H	1.131698	-0.324001	0.000026
H118	H	1.174742	-0.268111	0.051121
C119	C	1.151436	-0.082362	-0.075234
C120	C	1.146080	-0.123734	0.000050
H121	H	1.203288	-0.063312	-0.075233
H122	H	1.147786	-0.110421	-0.126298
H123	H	1.106870	-0.045286	-0.075218
H124	H	1.190642	-0.160812	0.000031
H125	H	1.149738	-0.095673	0.051128
C126	C	0.845212	-0.018861	0.000041
C127	C	0.827955	-0.088710	0.000043
H128	H	0.794225	0.011508	0.000031
H129	H	0.876545	-0.010359	0.051112
H130	H	0.876558	-0.010360	-0.051034
H131	H	0.796614	-0.097213	0.051121
H132	H	0.796609	-0.097215	-0.051034
H133	H	0.847045	-0.233577	0.000045
C134	C	1.150585	-0.045977	0.463217
C135	C	1.100813	-0.004315	0.403288
H136	H	1.189059	-0.078193	0.431939
H137	H	1.180385	-0.016907	0.499165
H138	H	1.116061	-0.071095	0.499182
H139	H	1.135336	0.020807	0.367327
H140	H	1.071011	-0.033389	0.367325
