data_functionalizedCrystal
_audit_creation_method	'MofGen! by Chris Wilmer'
_symmetry_space_group_name_H-M	'P1'
_symmetry_Int_Tables_number	1
_symmetry_cell_setting	triclinic
loop_
_symmetry_equiv_pos_as_xyz
  x,y,z
_cell_length_a	15.944545
_cell_length_b	16.992695
_cell_length_c	16.053802
_cell_angle_alpha	87.258926
_cell_angle_beta	87.417695
_cell_angle_gamma	92.917803
loop_
_atom_site_label
_atom_site_type_symbol
_atom_site_fract_x
_atom_site_fract_y
_atom_site_fract_z
O1	O	1.124631	-0.097802	-0.069449
O2	O	0.880917	-0.110275	-0.069446
O3	O	1.001797	0.010104	-0.069441
O4	O	1.003751	-0.218180	-0.069454
O5	O	0.995141	0.003506	0.069418
O6	O	0.874262	-0.116873	0.069412
O7	O	1.117976	-0.104400	0.069410
Zn8	Zn	0.995062	-0.111684	0.091458
Zn9	Zn	1.003831	-0.102990	-0.091494
O10	O	0.997096	-0.224779	0.069405
C11	C	0.995955	0.036018	-0.000012
C12	C	0.988455	0.123062	-0.000012
C13	C	0.846261	-0.113057	-0.000017
C14	C	0.752910	-0.111507	-0.000016
C15	C	1.152632	-0.101618	-0.000021
C16	C	1.245983	-0.103167	-0.000028
C17	C	1.521930	-0.182415	-0.000028
C18	C	1.465508	-0.147462	0.068442
C19	C	1.581997	-0.108694	-0.000018
C20	C	1.472081	-0.140936	-0.068462
C21	C	1.416902	-0.105983	-0.000024
C22	C	1.526802	-0.073764	0.068508
C23	C	1.533381	-0.067246	-0.068457
C24	C	1.476987	-0.032240	0.000029
C25	C	1.677104	-0.110259	-0.000014
C26	C	1.321797	-0.104413	-0.000023
C27	C	1.002937	-0.250692	-0.000027
C28	C	1.010438	-0.337737	-0.000032
N29	N	0.989084	-0.117617	0.216318
C30	C	1.060820	0.173300	-0.000012
C31	C	1.053769	0.255087	-0.000019
C32	C	0.974351	0.286634	-0.000021
C33	C	0.901981	0.236390	-0.000024
C34	C	0.909033	0.154605	-0.000022
C35	C	0.945120	0.530234	-0.000033
C36	C	0.938073	0.612025	-0.000032
C37	C	1.089862	0.630717	-0.000029
C38	C	1.096907	0.548929	-0.000022
C39	C	1.024537	0.498692	-0.000029
N40	N	0.967141	0.370234	-0.000027
N41	N	1.031748	0.415095	-0.000030
N42	N	1.009815	-0.097051	-0.216354
C43	C	1.040539	-0.066414	0.260014
C44	C	1.036366	-0.070572	0.347421
C45	C	0.980740	-0.125937	0.391130
C46	C	0.929279	-0.177143	0.347427
C47	C	0.933449	-0.172981	0.260022
C48	C	0.962524	-0.144095	0.652538
C49	C	0.958360	-0.148254	0.739949
C50	C	1.065446	-0.041682	0.739937
C51	C	1.069615	-0.037528	0.652530
C52	C	1.018150	-0.088731	0.608836
N53	N	0.976475	-0.130190	0.480473
N54	N	1.022412	-0.084474	0.519494
H55	H	1.541834	-0.245908	0.000032
H56	H	1.457233	0.031296	0.000073
H57	H	0.873397	0.637707	-0.000020
H58	H	1.085839	-0.021333	0.224432
H59	H	1.078264	-0.028878	0.382998
H60	H	1.435893	-0.181347	0.126323
H61	H	1.112696	0.295989	-0.000017
Br62	Br	1.204694	0.506122	-0.000046
Br63	Br	1.566711	-0.026495	0.165088
H64	H	1.107345	0.000005	0.775521
Br65	Br	0.846903	0.462065	-0.000048
Br66	Br	0.794198	0.279203	-0.000041
H67	H	0.913060	-0.193343	0.775533
Br68	Br	0.810820	0.086423	-0.000029
H69	H	1.114909	0.007554	0.616945
H70	H	1.148781	0.671629	-0.000025
H71	H	0.920621	-0.185787	0.616969
Br72	Br	0.853778	-0.252277	0.406743
Br73	Br	1.168606	0.130494	0.000003
Br74	Br	0.863607	-0.242469	0.200720
H75	H	1.563006	-0.033384	-0.126341
H76	H	1.448020	-0.169333	-0.126341
