data_functionalizedCrystal
_audit_creation_method	'MofGen! by Chris Wilmer'
_symmetry_space_group_name_H-M	'P1'
_symmetry_Int_Tables_number	1
_symmetry_cell_setting	triclinic
loop_
_symmetry_equiv_pos_as_xyz
  x,y,z
_cell_length_a	17.077404
_cell_length_b	15.297327
_cell_length_c	17.077396
_cell_angle_alpha	99.646061
_cell_angle_beta	89.982756
_cell_angle_gamma	99.707136
loop_
_atom_site_label
_atom_site_type_symbol
_atom_site_fract_x
_atom_site_fract_y
_atom_site_fract_z
Zn1	Zn	1.145934	-0.359152	-0.497893
Zn2	Zn	1.123118	-0.510028	-0.389334
Zn3	Zn	1.014666	-0.359186	-0.366647
Zn4	Zn	0.991914	-0.509973	-0.520549
O5	O	1.068908	-0.434585	-0.443606
O6	O	1.252753	-0.379176	-0.483506
O7	O	1.108705	-0.490056	-0.276483
O8	O	1.051149	-0.232935	-0.365081
O9	O	1.235991	-0.490024	-0.403748
O10	O	1.147591	-0.232910	-0.461507
O11	O	1.029026	-0.379233	-0.259815
O12	O	0.901803	-0.379179	-0.387049
O13	O	1.012372	-0.489929	-0.627385
O14	O	0.885087	-0.489961	-0.500120
O15	O	1.125530	-0.379121	-0.610740
O16	O	1.086644	-0.636268	-0.425716
O17	O	0.990249	-0.636227	-0.522119
C18	C	0.864963	-0.434569	-0.443581
C19	C	0.777711	-0.434583	-0.443593
C20	C	1.033523	-0.668982	-0.478855
C21	C	1.018457	-0.769258	-0.493961
C22	C	0.728024	-0.492355	-0.502402
C23	C	0.646044	-0.492357	-0.502415
C24	C	0.613750	-0.434591	-0.443615
C25	C	0.663444	-0.376813	-0.384803
C26	C	0.745423	-0.376808	-0.384794
C27	C	0.492571	-0.376831	-0.384824
C28	C	0.410585	-0.376838	-0.384832
C29	C	0.393191	-0.492380	-0.502445
C30	C	0.475171	-0.492374	-0.502436
C31	C	0.524858	-0.434598	-0.443623
C32	C	1.176913	-1.051879	-0.335909
C33	C	1.191068	-0.957665	-0.321712
C34	C	1.147916	-0.910559	-0.364773
C35	C	1.090607	-0.957676	-0.422033
C36	C	1.076446	-1.051899	-0.436227
C37	C	1.047450	-0.910579	-0.465091
C38	C	0.990141	-0.957696	-0.522351
C39	C	0.975983	-1.051910	-0.536543
C40	C	1.019134	-1.099017	-0.493482
C41	C	1.061611	-0.816355	-0.450897
C42	C	0.961145	-0.816375	-0.551215
C43	C	0.946990	-0.910589	-0.565412
C44	C	1.273650	-0.434602	-0.443630
C45	C	1.360899	-0.434609	-0.443641
C46	C	1.068958	-0.434515	-0.648339
C47	C	1.068980	-0.434485	-0.735585
C48	C	1.104453	-0.199273	-0.408236
C49	C	1.119601	-0.098997	-0.393164
C50	C	1.027507	-0.376773	-0.767894
C51	C	1.027523	-0.376752	-0.849872
C52	C	1.069016	-0.434440	-0.899538
C53	C	1.110490	-0.492159	-0.867223
C54	C	1.110469	-0.492184	-0.785248
C55	C	1.110533	-0.492103	-1.038085
C56	C	1.110555	-0.492078	-1.120066
C57	C	1.027586	-0.376671	-1.102709
C58	C	1.027565	-0.376696	-1.020733
C59	C	1.069041	-0.434414	-0.988425
C60	C	1.068914	-0.434589	-0.239658
C61	C	1.069083	-0.434365	-0.152375
H62	H	0.605591	-0.539401	-0.550302
O63	O	1.150815	-0.548120	-0.753756
C64	C	1.209275	-0.496780	-0.698638
H65	H	1.191918	-0.428411	-0.676077
H66	H	1.214226	-0.533549	-0.646518
H67	H	1.268952	-0.486865	-0.728746
H68	H	1.144271	-0.539135	-0.907669
H69	H	1.159444	-0.833845	-0.353210
H70	H	0.754310	-0.539397	-0.550282
H71	H	0.501460	-0.539417	-0.550313
H72	H	0.352732	-0.539422	-0.550335
O73	O	0.987227	-0.320602	-0.881122
C74	C	0.950589	-0.269701	-0.819709
H75	H	0.983199	-0.266601	-0.760810
H76	H	0.952963	-0.198612	-0.832712
H77	H	0.885978	-0.302730	-0.815946
O78	O	0.987180	-0.320741	-1.134139
C79	C	0.928741	-0.372091	-1.189276
H80	H	0.913164	-0.443153	-1.175249
H81	H	0.873257	-0.339463	-1.185285
H82	H	0.952546	-0.375179	-1.251877
H83	H	0.993723	-0.329791	-0.727460
H84	H	0.929309	-1.090270	-0.583158
O85	O	0.987192	-0.320627	-0.972603
C86	C	0.950605	-0.269663	-1.018693
H87	H	0.942315	-0.306594	-1.082682
H88	H	0.890208	-0.260040	-0.993551
H89	H	0.989704	-0.201146	-1.017117
O90	O	1.150968	-0.548075	-1.168226
C91	C	1.232182	-0.528377	-1.145265
H92	H	1.239046	-0.493724	-1.080531
H93	H	1.257533	-0.593499	-1.152264
H94	H	1.265640	-0.481980	-1.184432
O95	O	0.379349	-0.320636	-0.327681
C96	C	0.440780	-0.269649	-0.275761
H97	H	0.499696	-0.266566	-0.307447
H98	H	0.427815	-0.198559	-0.256809
H99	H	0.444502	-0.302591	-0.221046
O100	O	1.150761	-0.548296	-1.006802
C101	C	1.120015	-0.638206	-1.040328
H102	H	1.089576	-0.640057	-1.100128
H103	H	1.170556	-0.678665	-1.049214
H104	H	1.075054	-0.668600	-0.998755
H105	H	0.533026	-0.329775	-0.336938
O106	O	1.246791	-0.912038	-0.266096
C107	C	1.281830	-0.973815	-0.231121
H108	H	1.274437	-1.040950	-0.273388
H109	H	1.347782	-0.946541	-0.218698
H110	H	1.251606	-0.983907	-0.172997
O111	O	0.793739	-0.320595	-0.327762
C112	C	0.849974	-0.262400	-0.363778
H113	H	0.826122	-0.256919	-0.424789
H114	H	0.861377	-0.192930	-0.325039
H115	H	0.907897	-0.290291	-0.370629
O116	O	1.218753	-1.097777	-0.294156
C117	C	1.193934	-1.191038	-0.318934
H118	H	1.166291	-1.203889	-0.381439
H119	H	1.247345	-1.226816	-0.319010
H120	H	1.148099	-1.217824	-0.276391
H121	H	1.108272	-0.778001	-0.404276
O122	O	0.632211	-0.320615	-0.327646
C123	C	0.693646	-0.269638	-0.275726
H124	H	0.752560	-0.266554	-0.307415
H125	H	0.680685	-0.198547	-0.256764
H126	H	0.697369	-0.302589	-0.221017
O127	O	1.005531	-1.190539	-0.507274
C128	C	1.076032	-1.221919	-0.532249
H129	H	1.129415	-1.167585	-0.510696
H130	H	1.080540	-1.284964	-0.506352
H131	H	1.075152	-1.238585	-0.599893
H132	H	0.900327	-0.948966	-0.612033
H133	H	0.926005	-0.778022	-0.586278
