data_functionalizedCrystal
_audit_creation_method	'MofGen! by Chris Wilmer'
_symmetry_space_group_name_H-M	'P1'
_symmetry_Int_Tables_number	1
_symmetry_cell_setting	triclinic
loop_
_symmetry_equiv_pos_as_xyz
  x,y,z
_cell_length_a	12.759401
_cell_length_b	16.120484
_cell_length_c	16.120256
_cell_angle_alpha	95.616173
_cell_angle_beta	92.880020
_cell_angle_gamma	92.926992
loop_
_atom_site_label
_atom_site_type_symbol
_atom_site_fract_x
_atom_site_fract_y
_atom_site_fract_z
Zn1	Zn	1.552086	-0.356728	-0.489418
Zn2	Zn	1.551954	-0.489414	-0.356728
Zn3	Zn	1.385776	-0.349664	-0.349667
Zn4	Zn	1.366964	-0.496464	-0.496456
O5	O	1.464195	-0.423067	-0.423067
O6	O	1.699088	-0.374336	-0.471826
O7	O	1.537727	-0.464969	-0.238828
O8	O	1.415765	-0.233635	-0.362306
O9	O	1.698991	-0.471819	-0.374339
O10	O	1.537952	-0.238826	-0.464980
O11	O	1.415637	-0.362295	-0.233641
O12	O	1.236260	-0.369131	-0.369130
O13	O	1.383704	-0.483834	-0.612485
O14	O	1.222440	-0.476984	-0.476974
O15	O	1.519712	-0.381171	-0.607314
O16	O	1.519487	-0.607315	-0.381163
O17	O	1.383576	-0.612494	-0.483820
C18	C	1.191229	-0.423056	-0.423050
C19	C	1.074451	-0.423073	-0.423064
C20	C	1.449503	-0.640233	-0.434040
C21	C	1.443312	-0.733139	-0.438762
C22	C	1.012420	-0.479309	-0.479138
C23	C	0.902695	-0.479313	-0.479155
C24	C	0.917041	-0.366842	-0.367015
C25	C	1.026764	-0.366835	-0.367003
C26	C	0.744154	-0.514318	-0.579212
C27	C	0.682119	-0.570566	-0.635280
C28	C	0.711369	-0.652783	-0.652096
C29	C	0.802651	-0.678767	-0.612832
C30	C	0.864680	-0.622522	-0.556758
C31	C	0.835432	-0.540295	-0.539957
C32	C	1.185306	-0.331838	-0.266945
C33	C	1.247337	-0.275597	-0.210867
C34	C	1.218091	-0.193379	-0.194042
C35	C	1.126806	-0.167397	-0.233292
C36	C	1.064775	-0.223639	-0.289370
C37	C	1.094029	-0.305856	-0.306196
C38	C	1.432013	-0.903239	-0.447400
C39	C	1.496563	-0.942055	-0.398748
C40	C	1.490277	-1.036705	-0.403554
C41	C	1.438298	-0.808581	-0.442595
C42	C	1.738226	-0.423079	-0.423085
C43	C	1.855002	-0.423084	-0.423092
C44	C	1.449624	-0.434077	-0.641075
C45	C	1.443415	-0.438769	-0.733976
C46	C	1.478972	-0.205055	-0.412070
C47	C	1.485269	-0.112151	-0.407384
C48	C	1.496575	-0.398579	-0.942901
C49	C	1.432046	-0.447300	-0.904062
C50	C	1.438373	-0.442552	-0.809417
C51	C	1.490248	-0.403326	-1.037554
C52	C	1.478773	-0.412040	-0.205905
C53	C	1.485202	-0.407113	-0.112992
H54	H	1.051243	-0.525100	-0.524788
H55	H	1.209134	-0.398786	-0.280647
H56	H	1.556568	-0.353306	-0.905075
H57	H	1.268602	-0.147590	-0.148372
C58	C	1.351001	-0.508477	-0.955165
N59	N	1.289966	-0.554557	-0.993660
H60	H	0.826451	-0.745719	-0.626521
C61	C	0.965088	-0.651098	-0.513572
N62	N	1.040721	-0.672623	-0.481050
H63	H	1.372033	-0.941090	-0.492658
C64	C	0.643128	-0.714654	-0.713774
N65	N	0.591727	-0.761251	-0.760233
C66	C	0.711978	-0.423872	-0.560727
N67	N	0.687737	-0.355747	-0.546802
C68	C	0.864575	-0.304988	-0.305347
N69	N	0.825059	-0.258399	-0.258896
C70	C	0.581717	-0.541979	-0.678474
N71	N	0.506093	-0.520451	-0.711007
C72	C	1.094632	-0.076952	-0.214786
N73	N	1.070402	-0.008827	-0.200844
H74	H	0.990451	-0.202475	-0.321335
C75	C	1.577593	-0.890919	-0.337594
N76	N	1.638618	-0.852400	-0.291531
C77	C	1.347763	-0.304177	-0.167702
N78	N	1.423408	-0.325701	-0.135196
