data_functionalizedCrystal
_audit_creation_method	'MofGen! by Chris Wilmer'
_symmetry_space_group_name_H-M	'P1'
_symmetry_Int_Tables_number	1
_symmetry_cell_setting	triclinic
loop_
_symmetry_equiv_pos_as_xyz
  x,y,z
_cell_length_a	6.817900
_cell_length_b	9.582860
_cell_length_c	12.200875
_cell_angle_alpha	91.576811
_cell_angle_beta	107.143593
_cell_angle_gamma	111.206767
loop_
_atom_site_label
_atom_site_type_symbol
_atom_site_fract_x
_atom_site_fract_y
_atom_site_fract_z
V1	V	-4.108298	-0.207395	-0.357450
V2	V	-3.774965	0.125938	-0.024117
V3	V	-3.441632	0.459271	0.309216
O4	O	-4.053186	0.009616	-0.350862
O5	O	-3.719852	0.342950	-0.017529
O6	O	-3.386519	0.676283	0.315804
O7	O	-4.098761	-0.410894	-0.354798
O8	O	-3.765428	-0.077560	-0.021464
O9	O	-3.432095	0.255773	0.311869
O10	O	-4.077436	-0.204359	-0.513442
O11	O	-3.744103	0.128975	-0.180108
O12	O	-3.410769	0.462308	0.153225
O13	O	-4.074658	-0.198348	-0.191120
O14	O	-3.741325	0.134985	0.142213
O15	O	-3.407992	0.468318	0.475547
V16	V	-4.584618	-0.181420	-0.337581
V17	V	-4.251285	0.151913	-0.004248
V18	V	-3.917951	0.485247	0.329085
O19	O	-4.385358	-0.264374	-0.401035
O20	O	-4.052025	0.068959	-0.067702
O21	O	-3.718691	0.402292	0.265632
O22	O	-4.757756	-0.124441	-0.293997
O23	O	-4.424423	0.208892	0.039337
O24	O	-4.091089	0.542225	0.372670
O25	O	-4.370949	0.022078	-0.340234
O26	O	-4.037615	0.355412	-0.006901
O27	O	-3.704282	0.688745	0.326433
O28	O	-4.757128	-0.398432	-0.344169
O29	O	-4.423795	-0.065098	-0.010836
O30	O	-4.090461	0.268235	0.322497
O31	O	-4.735655	-0.190467	-0.503912
O32	O	-4.402322	0.142866	-0.170578
O33	O	-4.068988	0.476200	0.162755
O34	O	-4.392274	-0.184457	-0.181590
O35	O	-4.058941	0.148877	0.151744
O36	O	-3.725607	0.482210	0.485077
C37	C	-3.952649	-0.460497	-0.349105
C38	C	-3.619316	-0.127164	-0.015772
C39	C	-3.285982	0.206169	0.317562
C40	C	-4.026255	-0.626861	-0.347976
C41	C	-3.692922	-0.293528	-0.014643
C42	C	-3.359588	0.039806	0.318691
C43	C	-3.925445	-0.197040	-0.551470
C44	C	-3.592112	0.136294	-0.218137
C45	C	-3.258778	0.469627	0.115197
C46	C	-3.981752	-0.195903	-0.678992
C47	C	-3.648419	0.137430	-0.345659
C48	C	-3.315086	0.470763	-0.012326
C49	C	-4.084803	-0.193825	-0.912469
C50	C	-3.751470	0.139509	-0.579135
C51	C	-3.418137	0.472842	-0.245802
C52	C	-4.027450	-0.194981	-0.782546
C53	C	-3.694117	0.138353	-0.449212
C54	C	-3.360783	0.471686	-0.115879
C55	C	-4.180404	0.071674	-0.345923
C56	C	-3.847071	0.405007	-0.012590
C57	C	-3.513738	0.738341	0.320743
C58	C	-4.086038	0.238036	-0.347060
C59	C	-3.752704	0.571369	-0.013727
C60	C	-3.419371	0.904703	0.319607
C61	C	-4.207607	-0.191781	-0.143556
C62	C	-3.874274	0.141553	0.189778
C63	C	-3.540941	0.474886	0.523111
C64	C	-4.130537	-0.192909	-0.016032
C65	C	-3.797204	0.140424	0.317301
C66	C	-3.463870	0.473757	0.650634
