data_functionalizedCrystal
_audit_creation_method	'MofGen! by Chris Wilmer'
_symmetry_space_group_name_H-M	'P1'
_symmetry_Int_Tables_number	1
_symmetry_cell_setting	triclinic
loop_
_symmetry_equiv_pos_as_xyz
  x,y,z
_cell_length_a	19.077367
_cell_length_b	18.215405
_cell_length_c	18.215399
_cell_angle_alpha	90.030551
_cell_angle_beta	87.726474
_cell_angle_gamma	92.323608
loop_
_atom_site_label
_atom_site_type_symbol
_atom_site_fract_x
_atom_site_fract_y
_atom_site_fract_z
Zn1	Zn	-1.075970	0.247817	-0.371034
Zn2	Zn	-0.575970	0.747817	0.128966
Zn3	Zn	-1.075882	0.370892	-0.247965
Zn4	Zn	-0.575882	0.870892	0.252035
Zn5	Zn	-0.958274	0.252781	-0.252911
Zn6	Zn	-0.458274	0.752781	0.247089
Zn7	Zn	-0.958241	0.375789	-0.375918
Zn8	Zn	-0.458241	0.875789	0.124082
O9	O	-1.017092	0.311820	-0.311957
O10	O	-0.517092	0.811820	0.188043
O11	O	-1.174448	0.260016	-0.350594
O12	O	-0.674448	0.760016	0.149406
O13	O	-1.060258	0.355252	-0.145638
O14	O	-0.560258	0.855252	0.354362
O15	O	-0.973936	0.149136	-0.268606
O16	O	-0.473936	0.649136	0.231394
O17	O	-1.174384	0.350438	-0.260177
O18	O	-0.674384	0.850438	0.239823
O19	O	-1.060407	0.145489	-0.355390
O20	O	-0.560407	0.645489	0.144610
O21	O	-0.973852	0.268477	-0.149271
O22	O	-0.473852	0.768477	0.350729
O23	O	-0.859780	0.273226	-0.273342
O24	O	-0.359780	0.773226	0.226658
O25	O	-0.973881	0.358785	-0.478253
O26	O	-0.473881	0.858785	0.021747
O27	O	-0.859756	0.363599	-0.363715
O28	O	-0.359756	0.863599	0.136285
O29	O	-1.060376	0.264764	-0.474665
O30	O	-0.560376	0.764764	0.025335
O31	O	-1.060227	0.474528	-0.264913
O32	O	-0.560227	0.974528	0.235087
O33	O	-0.973796	0.478126	-0.358919
O34	O	-0.473796	0.978126	0.141081
C35	C	-0.834230	0.319483	-0.319595
C36	C	-0.334230	0.819483	0.180405
C37	C	-0.756001	0.322779	-0.322880
C38	C	-0.256001	0.822779	0.177120
C39	C	-0.719241	0.277204	-0.277449
C40	C	-0.219241	0.777204	0.222551
C41	C	-0.645737	0.280308	-0.280535
C42	C	-0.145737	0.780308	0.219465
C43	C	-0.608994	0.328983	-0.329058
C44	C	-0.108994	0.828983	0.170942
C45	C	-0.645759	0.374563	-0.374491
C46	C	-0.145759	0.874563	0.125509
C47	C	-0.719262	0.371463	-0.371400
C48	C	-0.219262	0.871463	0.128600
C49	C	-0.389164	0.343312	-0.343336
C50	C	0.110836	0.843312	0.156664
C51	C	-0.315656	0.346407	-0.346425
C52	C	0.184344	0.846407	0.153575
C53	C	-0.315639	0.252153	-0.252467
C54	C	0.184361	0.752153	0.247533
C55	C	-0.389143	0.249054	-0.249384
C56	C	0.110857	0.749054	0.250616
C57	C	-0.425902	0.294636	-0.294815
C58	C	0.074098	0.794636	0.205185
N59	N	-0.533861	0.332155	-0.332216
N60	N	-0.033861	0.832155	0.167784
N61	N	-0.501034	0.291468	-0.291653
N62	N	-0.001034	0.791468	0.208347
C63	C	-1.017017	0.503029	-0.311925
C64	C	-0.517017	1.003029	0.188075
C65	C	-1.017050	0.584827	-0.311933
C66	C	-0.517050	1.084827	0.188067
C67	C	-1.017134	0.311767	-0.503908
C68	C	-0.517134	0.811767	-0.003908
C69	C	-1.017153	0.311745	-0.585706
C70	C	-0.517153	0.811745	-0.085706
C71	C	-0.200667	0.304123	-0.304282
C72	C	0.299333	0.804123	0.195718
C73	C	-0.278896	0.300832	-0.300993
C74	C	0.221104	0.800832	0.199007
C75	C	-1.017185	0.119863	-0.312005
C76	C	-0.517185	0.619863	0.187995
C77	C	-1.017225	0.038062	-0.312025
C78	C	-0.517225	0.538062	0.187975
C79	C	-1.062160	0.771118	-0.263066
C80	C	-0.562160	1.271118	0.236934
C81	C	-1.062191	0.847975	-0.263082
C82	C	-0.562191	1.347975	0.236918
C83	C	-0.972113	0.851765	-0.360897
C84	C	-0.472113	1.351765	0.139103
C85	C	-0.972086	0.774909	-0.360884
C86	C	-0.472086	1.274909	0.139116
C87	C	-1.017108	0.734588	-0.311964
C88	C	-0.517108	1.234588	0.188036
C89	C	-1.017167	0.888301	-0.311994
C90	C	-0.517167	1.388301	0.188006
C91	C	-1.017201	0.971633	-0.312012
C92	C	-0.517201	1.471633	0.187988
C93	C	-1.017076	0.651250	-0.311946
C94	C	-0.517076	1.151250	0.188054
C95	C	-1.062207	0.262743	-0.772032
C96	C	-0.562207	0.762743	-0.272032
C97	C	-1.062215	0.262722	-0.848891
C98	C	-0.562215	0.762722	-0.348891
C99	C	-0.972148	0.360630	-0.852616
C100	C	-0.472148	0.860630	-0.352616
C101	C	-0.972137	0.360648	-0.775759
C102	C	-0.472137	0.860648	-0.275759
C103	C	-1.017170	0.311705	-0.735469
C104	C	-0.517170	0.811705	-0.235469
C105	C	-1.017190	0.311666	-0.889184
C106	C	-0.517190	0.811666	-0.389184
C107	C	-1.017199	0.311643	-0.972518
C108	C	-0.517199	0.811643	-0.472518
C109	C	-1.017161	0.311727	-0.652131
C110	C	-0.517161	0.811727	-0.152131
C111	C	-1.017089	0.311817	-0.120751
C112	C	-0.517089	0.811817	0.379249
C113	C	-1.017208	0.311626	-0.038947
C114	C	-0.517208	0.811626	0.461053
H115	H	-0.749152	0.237562	-0.237942
H116	H	-0.249152	0.737562	0.262058
N117	N	-0.606134	0.427069	-0.426822
N118	N	-0.106134	0.927069	0.073178
H119	H	-0.553992	0.422117	-0.421888
H120	H	-0.053992	0.922117	0.078112
H121	H	-0.619010	0.415142	-0.478861
H122	H	-0.119010	0.915142	0.021139
N123	N	-0.428771	0.196538	-0.197065
N124	N	0.071229	0.696538	0.302935
H125	H	-0.394330	0.168132	-0.168756
H126	H	0.105670	0.668132	0.331244
H127	H	-0.459254	0.225149	-0.161667
H128	H	0.040746	0.725149	0.338333
H129	H	-0.935457	0.884604	-0.400725
H130	H	-0.435457	1.384604	0.099275
H131	H	-1.098888	0.222851	-0.878657
H132	H	-0.598888	0.722851	-0.378657
N133	N	-1.110780	0.209960	-0.728577
N134	N	-0.610780	0.709960	-0.228577
H135	H	-1.103945	0.217404	-0.674340
H136	H	-0.603945	0.717404	-0.174340
H137	H	-1.161038	0.219314	-0.739921
H138	H	-0.661038	0.719314	-0.239921
N139	N	-0.758915	0.420621	-0.420398
N140	N	-0.258915	0.920621	0.079602
H141	H	-0.724486	0.451927	-0.451606
H142	H	-0.224486	0.951927	0.048394
H143	H	-0.789437	0.389424	-0.453226
H144	H	-0.289437	0.889424	0.046774
N145	N	-0.923568	0.413405	-0.896072
N146	N	-0.423568	0.913405	-0.396072
H147	H	-0.930406	0.405963	-0.950310
H148	H	-0.430406	0.905963	-0.450310
H149	H	-0.934485	0.465514	-0.882172
H150	H	-0.434485	0.965514	-0.382172
H151	H	-1.098821	0.738290	-0.223234
H152	H	-0.598821	1.238290	0.276766
H153	H	-1.098878	0.877715	-0.223266
H154	H	-0.598878	1.377715	0.276734
N155	N	-0.923545	0.413445	-0.736317
N156	N	-0.423545	0.913445	-0.236317
H157	H	-0.895018	0.444447	-0.773502
H158	H	-0.395018	0.944447	-0.273502
H159	H	-0.952163	0.446312	-0.703217
H160	H	-0.452163	0.946312	-0.203217
H161	H	-0.935399	0.745164	-0.400706
H162	H	-0.435399	1.245164	0.099294
H163	H	-0.615810	0.243200	-0.243536
H164	H	-0.115810	0.743200	0.256464
H165	H	-0.285742	0.386044	-0.385942
H166	H	0.214258	0.886044	0.114058
N167	N	-0.275992	0.203006	-0.203455
N168	N	0.224008	0.703006	0.296545
H169	H	-0.223853	0.212359	-0.212768
H170	H	0.276147	0.712359	0.287232
H171	H	-0.288821	0.213867	-0.150341
H172	H	0.211179	0.713867	0.349659
H173	H	-0.419085	0.380428	-0.380329
H174	H	0.080915	0.880428	0.119671
