data_functionalizedCrystal
_audit_creation_method	'MofGen! by Chris Wilmer'
_symmetry_space_group_name_H-M	'P1'
_symmetry_Int_Tables_number	1
_symmetry_cell_setting	triclinic
loop_
_symmetry_equiv_pos_as_xyz
  x,y,z
_cell_length_a	15.944551
_cell_length_b	10.268362
_cell_length_c	11.792241
_cell_angle_alpha	90.005428
_cell_angle_beta	96.153923
_cell_angle_gamma	89.999906
loop_
_atom_site_label
_atom_site_type_symbol
_atom_site_fract_x
_atom_site_fract_y
_atom_site_fract_z
O1	O	1.115185	-0.108165	-0.146381
O2	O	0.870717	-0.108197	-0.164428
O3	O	0.998883	-0.108171	0.009815
O4	O	0.987018	-0.108191	-0.320624
O5	O	0.998872	0.108429	0.009822
O6	O	0.870705	0.108403	-0.164421
O7	O	1.115173	0.108436	-0.146373
Cu8	Cu	0.992938	0.128197	-0.155396
Cu9	Cu	0.992952	-0.127958	-0.155405
O10	O	0.987007	0.108410	-0.320616
C11	C	0.839414	0.000099	-0.163675
C12	C	0.746157	0.000087	-0.161429
N13	N	0.992935	0.308363	-0.155390
N14	N	0.992961	-0.308124	-0.155402
C15	C	0.530789	0.000119	-0.048056
C16	C	0.470012	-0.106680	-0.100706
C17	C	0.575413	0.000102	-0.157365
C18	C	0.470023	0.106871	-0.100725
C19	C	0.410483	0.000123	-0.153432
C20	C	0.515865	-0.106785	-0.210045
C21	C	0.515882	0.106863	-0.210049
C22	C	0.455123	0.000038	-0.262778
C23	C	0.670426	0.000089	-0.159628
C24	C	0.315471	0.000127	-0.151178
C25	C	1.146476	0.000137	-0.147126
C26	C	1.239733	0.000140	-0.149372
C27	C	0.998132	0.000129	0.052104
C28	C	0.995901	0.000127	0.178099
C29	C	0.992947	0.574033	-0.155403
C30	C	0.992938	0.426195	-0.155399
C31	C	0.987758	0.000107	-0.362905
C32	C	0.989989	0.000100	-0.488900
C33	C	0.991799	0.000105	0.408777
C34	C	0.994079	0.000117	0.280411
H35	H	0.449698	-0.196965	-0.054476
O36	O	0.542829	0.226453	-0.271241
H37	H	0.612277	0.224825	-0.273052
O38	O	0.574372	0.000029	0.072124
H39	H	0.555211	0.087817	0.117855
O40	O	0.542614	-0.226548	-0.271203
H41	H	0.612130	-0.225651	-0.272333
O42	O	0.411748	-0.000022	-0.383070
H43	H	0.430114	-0.088754	-0.428164
H44	H	0.449724	0.197158	-0.054468
