data_functionalizedCrystal
_audit_creation_method	'MofGen! by Chris Wilmer'
_symmetry_space_group_name_H-M	'P1'
_symmetry_Int_Tables_number	1
_symmetry_cell_setting	triclinic
loop_
_symmetry_equiv_pos_as_xyz
  x,y,z
_cell_length_a	16.956995
_cell_length_b	15.625429
_cell_length_c	16.053802
_cell_angle_alpha	74.515382
_cell_angle_beta	87.607939
_cell_angle_gamma	80.348218
loop_
_atom_site_label
_atom_site_type_symbol
_atom_site_fract_x
_atom_site_fract_y
_atom_site_fract_z
O1	O	1.061920	0.032734	-0.079396
O2	O	0.830252	0.063833	-0.088799
O3	O	0.950392	-0.081132	-0.044917
O4	O	0.941781	0.177699	-0.123277
O5	O	0.943778	-0.073184	0.091536
O6	O	0.823639	0.071781	0.047654
O7	O	1.055307	0.040682	0.057057
Zn8	Zn	0.938423	0.057494	0.074021
Zn9	Zn	0.947136	0.047021	-0.105762
O10	O	0.935167	0.185648	0.013175
C11	C	0.797263	0.069399	-0.021053
C12	C	0.708817	0.074133	-0.022481
C13	C	0.210076	0.109546	-0.033234
C14	C	0.293181	0.105091	-0.031884
C15	C	0.342951	0.021471	-0.006562
C16	C	0.309612	-0.057699	0.017404
C17	C	0.226509	-0.053244	0.016048
C18	C	0.592375	-0.000582	0.000129
C19	C	0.675483	-0.005031	0.001485
C20	C	0.659047	0.157760	-0.047804
C21	C	0.575942	0.162208	-0.049153
C22	C	0.542611	0.083037	-0.025191
N23	N	0.427897	0.016916	-0.005180
N24	N	0.457666	0.087593	-0.026580
C25	C	0.946041	-0.110122	0.033288
C26	C	0.942919	-0.208345	0.063019
C27	C	0.950653	-0.553046	-0.211070
C28	C	0.947715	-0.645338	-0.183107
C29	C	0.940506	-0.636660	-0.034356
C30	C	0.943447	-0.544366	-0.062306
C31	C	0.948520	-0.502566	-0.150664
C32	C	0.941314	-0.493886	-0.001900
C33	C	0.944251	-0.401599	-0.029848
C34	C	0.949321	-0.359792	-0.118202
C35	C	0.951457	-0.410279	-0.178612
C36	C	0.936236	-0.535686	0.086458
C37	C	0.934103	-0.485206	0.146864
C38	C	0.937045	-0.392919	0.118916
C39	C	0.942115	-0.351112	0.030562
C40	C	0.934910	-0.342431	0.179326
C41	C	0.937846	-0.250144	0.151377
C42	C	0.945052	-0.258825	0.002613
C43	C	1.088296	0.035116	-0.010690
C44	C	1.176743	0.030381	-0.009267
C45	C	0.939518	0.214638	-0.065031
C46	C	0.942640	0.312859	-0.094768
N47	N	0.932482	0.064640	0.196718
N48	N	0.953083	0.039868	-0.228457
C49	C	0.983621	0.002976	0.259078
C50	C	0.979473	0.007983	0.344969
C51	C	0.924189	0.074658	0.368497
C52	C	0.873045	0.136325	0.306130
C53	C	0.877190	0.131313	0.220242
C54	C	0.906084	0.096523	0.623288
C55	C	0.901944	0.101532	0.709183
C56	C	1.008372	-0.026812	0.748016
C57	C	1.012515	-0.031814	0.662124
C58	C	0.961368	0.029850	0.599765
N59	N	0.919950	0.079779	0.456291
N60	N	0.965604	0.024724	0.511975
H61	H	0.716005	-0.073128	0.022102
C62	C	0.928520	-0.531196	0.244055
N63	N	0.924316	-0.565835	0.317261
H64	H	0.350141	-0.125784	0.038016
H65	H	0.169559	0.177639	-0.053847
C66	C	0.329843	0.192179	-0.058238
N67	N	0.357456	0.257778	-0.078085
H68	H	0.565247	-0.065048	0.019642
H69	H	1.050012	-0.077017	0.798796
H70	H	0.199370	-0.117708	0.035563
H71	H	0.856924	0.155830	0.728333
C72	C	0.934923	-0.682650	0.062836
N73	N	0.930719	-0.717289	0.136042
C74	C	1.035710	-0.059872	0.413568
N75	N	1.078064	-0.110992	0.465240
C76	C	0.950636	-0.212841	-0.094585
N77	N	0.954840	-0.178205	-0.167792
C78	C	0.957041	-0.364295	-0.275811
N79	N	0.961244	-0.329659	-0.349018
C80	C	0.820939	0.199155	0.151643
N81	N	0.778570	0.250256	0.099975
C82	C	0.812225	0.209661	0.332017
N83	N	0.766413	0.264898	0.351513
C84	C	0.956237	-0.507062	-0.308268
N85	N	0.960440	-0.472426	-0.381475
C86	C	1.073327	-0.105166	0.636252
N87	N	1.119132	-0.160415	0.616765
H88	H	0.951704	-0.284644	-0.140957
H89	H	0.864439	0.146734	0.572522
H90	H	0.949445	-0.686435	-0.232305
H91	H	0.933836	-0.610830	0.109210
H92	H	0.930771	-0.376477	0.251266
H93	H	0.535425	0.230300	-0.069775
H94	H	0.936092	-0.209038	0.200565
H95	H	0.686195	0.222216	-0.067314
H96	H	1.028642	-0.051314	0.239928
