data_functionalizedCrystal
_audit_creation_method	'MofGen! by Chris Wilmer'
_symmetry_space_group_name_H-M	'P1'
_symmetry_Int_Tables_number	1
_symmetry_cell_setting	triclinic
loop_
_symmetry_equiv_pos_as_xyz
  x,y,z
_cell_length_a	13.032831
_cell_length_b	16.625545
_cell_length_c	13.032268
_cell_angle_alpha	97.146495
_cell_angle_beta	90.886977
_cell_angle_gamma	82.830132
loop_
_atom_site_label
_atom_site_type_symbol
_atom_site_fract_x
_atom_site_fract_y
_atom_site_fract_z
Zn1	Zn	1.498388	-0.544519	-0.780799
Zn2	Zn	1.831722	-0.211186	-0.447466
Zn3	Zn	2.165055	0.122148	-0.114133
Zn4	Zn	1.520110	-0.664649	-0.608812
Zn5	Zn	1.853444	-0.331316	-0.275478
Zn6	Zn	2.186777	0.002018	0.057855
Zn7	Zn	1.348252	-0.510837	-0.587043
Zn8	Zn	1.681586	-0.177503	-0.253709
Zn9	Zn	2.014919	0.155830	0.079624
Zn10	Zn	1.326359	-0.660290	-0.758937
Zn11	Zn	1.659693	-0.326956	-0.425604
Zn12	Zn	1.993026	0.006377	-0.092270
O13	O	1.423278	-0.595074	-0.683898
O14	O	1.756611	-0.261740	-0.350564
O15	O	2.089944	0.071593	-0.017231
O16	O	1.645188	-0.576375	-0.776245
O17	O	1.978521	-0.243042	-0.442911
O18	O	2.311854	0.090292	-0.109578
O19	O	1.515566	-0.631974	-0.462008
O20	O	1.848900	-0.298640	-0.128675
O21	O	2.182233	0.034693	0.204659
O22	O	1.368240	-0.402483	-0.612784
O23	O	1.701573	-0.069150	-0.279451
O24	O	2.034906	0.264184	0.053883
O25	O	1.661147	-0.664634	-0.649886
O26	O	1.994480	-0.331301	-0.316553
O27	O	2.327814	0.002033	0.016781
O28	O	1.478544	-0.427229	-0.755136
O29	O	1.811877	-0.093896	-0.421803
O30	O	2.145211	0.239437	-0.088470
O31	O	1.389303	-0.518968	-0.446014
O32	O	1.722636	-0.185635	-0.112681
O33	O	2.055969	0.147698	0.220652
O34	O	1.201430	-0.514741	-0.591585
O35	O	1.534764	-0.181408	-0.258252
O36	O	1.868097	0.151925	0.075082
O37	O	1.330926	-0.657204	-0.905753
O38	O	1.664260	-0.323871	-0.572420
O39	O	1.997593	0.009463	-0.239086
O40	O	1.185345	-0.624544	-0.717875
O41	O	1.518679	-0.291210	-0.384542
O42	O	1.852012	0.042123	-0.051208
O43	O	1.457315	-0.572148	-0.921815
O44	O	1.790648	-0.238815	-0.588482
O45	O	2.123982	0.094519	-0.255149
O46	O	1.494338	-0.776892	-0.628687
O47	O	1.827671	-0.443559	-0.295354
O48	O	2.161004	-0.110226	0.037980
O49	O	1.351989	-0.773690	-0.738984
O50	O	1.685323	-0.440356	-0.405650
O51	O	2.018656	-0.107023	-0.072317
C52	C	1.156071	-0.565515	-0.649996
C53	C	1.489405	-0.232182	-0.316663
C54	C	1.822738	0.101152	0.016671
C55	C	1.041756	-0.552891	-0.635517
C56	C	1.375090	-0.219558	-0.302184
C57	C	1.708423	0.113775	0.031150
C58	C	0.982872	-0.601662	-0.691454
C59	C	1.316206	-0.268329	-0.358121
C60	C	1.649539	0.065005	-0.024788
C61	C	0.864721	-0.588616	-0.676491
C62	C	1.198055	-0.255283	-0.343158
C63	C	1.531388	0.078051	-0.009824
C64	C	1.423170	-0.804549	-0.683851
C65	C	1.756503	-0.471216	-0.350518
C66	C	2.089837	-0.137883	-0.017185
C67	C	1.423214	-0.894177	-0.683878
C68	C	1.756547	-0.560844	-0.350544
C69	C	2.089880	-0.227511	-0.017211
C70	C	1.423251	-0.966966	-0.683903
C71	C	1.756584	-0.633632	-0.350570
C72	C	2.089918	-0.300299	-0.017236
C73	C	1.423308	-1.058283	-0.683933
C74	C	1.756641	-0.724949	-0.350600
C75	C	2.089975	-0.391616	-0.017267
C76	C	1.423360	-1.131066	-0.683953
C77	C	1.756693	-0.797733	-0.350620
C78	C	2.090026	-0.464400	-0.017287
C79	C	1.423416	-1.222389	-0.683982
C80	C	1.756749	-0.889055	-0.350648
C81	C	2.090082	-0.555722	-0.017315
C82	C	1.691527	-0.624748	-0.717932
C83	C	2.024860	-0.291415	-0.384599
C84	C	2.358194	0.041919	-0.051266
C85	C	1.805839	-0.637394	-0.732436
C86	C	2.139172	-0.304060	-0.399103
C87	C	2.472506	0.029273	-0.065769
C88	C	1.389256	-0.617947	-0.952143
C89	C	1.722589	-0.284614	-0.618810
C90	C	2.055922	0.048720	-0.285477
C91	C	1.374757	-0.627694	-1.066454
C92	C	1.708091	-0.294361	-0.733120
C93	C	2.041424	0.038973	-0.399787
C94	C	1.423411	-0.384785	-0.683971
C95	C	1.756744	-0.051451	-0.350637
C96	C	2.090077	0.281882	-0.017304
C97	C	1.423468	-0.295172	-0.684002
C98	C	1.756801	0.038161	-0.350668
C99	C	2.090134	0.371494	-0.017335
C100	C	1.430828	-0.589956	-1.125364
C101	C	1.764162	-0.256622	-0.792031
C102	C	2.097495	0.076711	-0.458697
C103	C	1.415845	-0.600029	-1.243510
C104	C	1.749178	-0.266696	-0.910177
C105	C	2.082512	0.066638	-0.576843
C106	C	1.457226	-0.572238	-0.416703
C107	C	1.790560	-0.238904	-0.083370
C108	C	2.123893	0.094429	0.249964
C109	C	1.471924	-0.562285	-0.302419
C110	C	1.805257	-0.228952	0.030915
C111	C	2.138591	0.104381	0.364248
H112	H	0.827668	-0.537197	-0.617524
H113	H	1.161001	-0.203863	-0.284190
H114	H	1.494335	0.129470	0.049143
C115	C	1.294919	-0.681417	-1.116465
C116	C	1.628252	-0.348084	-0.783131
C117	C	1.961585	-0.014750	-0.449798
H118	H	1.261678	-0.703783	-1.064183
H119	H	1.595011	-0.370450	-0.730850
H120	H	1.928345	-0.037116	-0.397517
H121	H	1.328959	-0.724443	-1.163355
H122	H	1.662292	-0.391110	-0.830022
H123	H	1.995625	-0.057777	-0.496688
H124	H	1.244847	-0.649159	-1.152694
H125	H	1.578180	-0.315826	-0.819360
H126	H	1.911513	0.017508	-0.486027
H127	H	1.489921	-0.550185	-1.088332
H128	H	1.823255	-0.216852	-0.754999
H129	H	2.156588	0.116481	-0.421665
H130	H	0.842890	-0.688806	-0.791414
H131	H	1.176223	-0.355473	-0.458081
H132	H	1.509556	-0.022139	-0.124747
C133	C	1.032923	-0.671117	-0.771117
C134	C	1.366257	-0.337784	-0.437784
C135	C	1.699590	-0.004450	-0.104450
H136	H	1.105769	-0.670777	-0.770719
H137	H	1.439102	-0.337443	-0.437386
H138	H	1.772435	-0.004110	-0.104052
H139	H	1.006619	-0.663374	-0.838038
H140	H	1.339952	-0.330041	-0.504704
H141	H	1.673285	0.003292	-0.171371
H142	H	1.017271	-0.722056	-0.753727
H143	H	1.350604	-0.388723	-0.420394
H144	H	1.683938	-0.055389	-0.087060
H145	H	1.004698	-0.501476	-0.576554
H146	H	1.338032	-0.168142	-0.243220
H147	H	1.671365	0.165191	0.090113
H148	H	1.356737	-0.639793	-1.280536
H149	H	1.690071	-0.306459	-0.947203
H150	H	2.023404	0.026874	-0.613869
C151	C	1.551765	-0.508559	-1.252410
C152	C	1.885098	-0.175226	-0.919076
C153	C	2.218431	0.158108	-0.585743
H154	H	1.551368	-0.508839	-1.179564
H155	H	1.884701	-0.175506	-0.846230
H156	H	2.218034	0.157827	-0.512897
H157	H	1.534540	-0.454211	-1.268076
H158	H	1.867873	-0.120877	-0.934742
H159	H	2.201206	0.212456	-0.601409
H160	H	1.618651	-0.529495	-1.278727
H161	H	1.951985	-0.196162	-0.945394
H162	H	2.285318	0.137172	-0.612061
