data_functionalizedCrystal
_audit_creation_method	'MofGen! by Chris Wilmer'
_symmetry_space_group_name_H-M	'P1'
_symmetry_Int_Tables_number	1
_symmetry_cell_setting	triclinic
loop_
_symmetry_equiv_pos_as_xyz
  x,y,z
_cell_length_a	18.215407
_cell_length_b	16.625545
_cell_length_c	18.215399
_cell_angle_alpha	90.026887
_cell_angle_beta	90.017368
_cell_angle_gamma	90.023001
loop_
_atom_site_label
_atom_site_type_symbol
_atom_site_fract_x
_atom_site_fract_y
_atom_site_fract_z
Zn1	Zn	1.125068	-0.321065	0.416073
Zn2	Zn	1.375068	-0.071065	0.666073
Zn3	Zn	1.625068	0.178935	0.916073
Zn4	Zn	1.875068	0.428935	1.166073
Zn5	Zn	1.124975	-0.455905	0.293009
Zn6	Zn	1.374975	-0.205905	0.543009
Zn7	Zn	1.624975	0.044095	0.793009
Zn8	Zn	1.874975	0.294095	1.043009
Zn9	Zn	1.002001	-0.321084	0.293026
Zn10	Zn	1.252001	-0.071084	0.543026
Zn11	Zn	1.502001	0.178916	0.793026
Zn12	Zn	1.752001	0.428916	1.043026
Zn13	Zn	1.001965	-0.455853	0.416039
Zn14	Zn	1.251965	-0.205853	0.666039
Zn15	Zn	1.501965	0.044147	0.916039
Zn16	Zn	1.751965	0.294147	1.166039
O17	O	1.063503	-0.388477	0.354537
O18	O	1.313503	-0.138477	0.604537
O19	O	1.563503	0.111523	0.854537
O20	O	1.813503	0.361523	1.104537
O21	O	1.228040	-0.338965	0.399755
O22	O	1.478040	-0.088965	0.649755
O23	O	1.728040	0.161035	0.899755
O24	O	1.978040	0.411035	1.149755
O25	O	1.108639	-0.438051	0.190027
O26	O	1.358639	-0.188051	0.440027
O27	O	1.608639	0.061949	0.690027
O28	O	1.858639	0.311949	0.940027
O29	O	1.018380	-0.208249	0.309369
O30	O	1.268380	0.041751	0.559369
O31	O	1.518380	0.291751	0.809369
O32	O	1.768380	0.541751	1.059369
O33	O	1.227972	-0.438032	0.309341
O34	O	1.477972	-0.188032	0.559341
O35	O	1.727972	0.061968	0.809341
O36	O	1.977972	0.311968	1.059341
O37	O	1.108797	-0.208235	0.399772
O38	O	1.358797	0.041765	0.649772
O39	O	1.608797	0.291765	0.899772
O40	O	1.858797	0.541765	1.149772
O41	O	1.018290	-0.338998	0.190039
O42	O	1.268290	-0.088998	0.440039
O43	O	1.518290	0.161002	0.690039
O44	O	1.768290	0.411002	0.940039
O45	O	0.899012	-0.338948	0.309336
O46	O	1.149012	-0.088948	0.559336
O47	O	1.399012	0.161052	0.809336
O48	O	1.649012	0.411052	1.059336
O49	O	1.018319	-0.437943	0.519028
O50	O	1.268319	-0.187943	0.769028
O51	O	1.518319	0.062057	1.019028
O52	O	1.768319	0.312057	1.269028
O53	O	0.898986	-0.437962	0.399714
O54	O	1.148986	-0.187962	0.649714
O55	O	1.398986	0.062038	0.899714
O56	O	1.648986	0.312038	1.149714
O57	O	1.108763	-0.338915	0.519053
O58	O	1.358763	-0.088915	0.769053
O59	O	1.608763	0.161085	1.019053
O60	O	1.858763	0.411085	1.269053
O61	O	1.108604	-0.568731	0.309308
O62	O	1.358604	-0.318731	0.559308
O63	O	1.608604	-0.068731	0.809308
O64	O	1.858604	0.181269	1.059308
O65	O	1.018229	-0.568693	0.399698
O66	O	1.268229	-0.318693	0.649698
O67	O	1.518229	-0.068693	0.899698
O68	O	1.768229	0.181307	1.149698
C69	C	0.872296	-0.388452	0.354524
C70	C	1.122296	-0.138452	0.604524
C71	C	1.372296	0.111548	0.854524
C72	C	1.622296	0.361548	1.104524
C73	C	0.790497	-0.388461	0.354536
C74	C	1.040497	-0.138461	0.604536
C75	C	1.290497	0.111539	0.854536
C76	C	1.540497	0.361539	1.104536
C77	C	0.602338	-0.336983	0.401689
C78	C	0.852338	-0.086983	0.651689
C79	C	1.102338	0.163017	0.901689
C80	C	1.352338	0.413017	1.151689
C81	C	0.525479	-0.336990	0.401691
C82	C	0.775479	-0.086990	0.651691
C83	C	1.025479	0.163010	0.901691
C84	C	1.275479	0.413010	1.151691
C85	C	0.525419	-0.439993	0.307397
C86	C	0.775419	-0.189993	0.557397
C87	C	1.025419	0.060007	0.807397
C88	C	1.275419	0.310007	1.057397
C89	C	0.602276	-0.439982	0.307392
C90	C	0.852276	-0.189982	0.557392
C91	C	1.102276	0.060018	0.807392
C92	C	1.352276	0.310018	1.057392
C93	C	0.640734	-0.388478	0.354542
C94	C	0.890734	-0.138478	0.604542
C95	C	1.140734	0.111522	0.854542
C96	C	1.390734	0.361522	1.104542
C97	C	0.487018	-0.388496	0.354550
C98	C	0.737018	-0.138496	0.604550
C99	C	0.987018	0.111504	0.854550
C100	C	1.237018	0.361504	1.104550
C101	C	0.403684	-0.388504	0.354552
C102	C	0.653684	-0.138504	0.604552
C103	C	0.903684	0.111496	0.854552
C104	C	1.153684	0.361496	1.104552
C105	C	0.724073	-0.388469	0.354539
C106	C	0.974073	-0.138469	0.604539
C107	C	1.224073	0.111531	0.854539
C108	C	1.474073	0.361531	1.104539
C109	C	1.063423	-0.597968	0.354513
C110	C	1.313423	-0.347968	0.604513
C111	C	1.563423	-0.097968	0.854513
C112	C	1.813423	0.152032	1.104513
C113	C	1.063456	-0.687589	0.354528
C114	C	1.313456	-0.437589	0.604528
C115	C	1.563456	-0.187589	0.854528
C116	C	1.813456	0.062411	1.104528
C117	C	1.063484	-0.760371	0.354543
C118	C	1.313484	-0.510371	0.604543
C119	C	1.563484	-0.260371	0.854543
C120	C	1.813484	-0.010371	1.104543
C121	C	1.063527	-0.851680	0.354559
C122	C	1.313527	-0.601680	0.604559
C123	C	1.563527	-0.351680	0.854559
C124	C	1.813527	-0.101680	1.104559
C125	C	1.063565	-0.924456	0.354568
C126	C	1.313565	-0.674456	0.604568
C127	C	1.563565	-0.424456	0.854568
C128	C	1.813565	-0.174456	1.104568
C129	C	1.063607	-1.015770	0.354583
C130	C	1.313607	-0.765770	0.604583
C131	C	1.563607	-0.515770	0.854583
C132	C	1.813607	-0.265770	1.104583
C133	C	1.255455	-0.388502	0.354550
C134	C	1.505455	-0.138502	0.604550
C135	C	1.755455	0.111498	0.854550
C136	C	2.005455	0.361498	1.104550
C137	C	1.337254	-0.388513	0.354556
C138	C	1.587254	-0.138513	0.604556
C139	C	1.837254	0.111487	0.854556
C140	C	2.087254	0.361487	1.104556
C141	C	1.063547	-0.388421	0.546490
C142	C	1.313547	-0.138421	0.796490
C143	C	1.563547	0.111579	1.046490
C144	C	1.813547	0.361579	1.296490
C145	C	1.063567	-0.388398	0.628289
C146	C	1.313567	-0.138398	0.878289
C147	C	1.563567	0.111602	1.128289
C148	C	1.813567	0.361602	1.378289
C149	C	1.063603	-0.178168	0.354576
C150	C	1.313603	0.071832	0.604576
C151	C	1.563603	0.321832	0.854576
C152	C	1.813603	0.571832	1.104576
C153	C	1.063646	-0.088547	0.354593
C154	C	1.313646	0.161453	0.604593
C155	C	1.563646	0.411453	0.854593
C156	C	1.813646	0.661453	1.104593
C157	C	1.063500	-0.388474	0.163330
C158	C	1.313500	-0.138474	0.413330
C159	C	1.563500	0.111526	0.663330
C160	C	1.813500	0.361526	0.913330
C161	C	1.063624	-0.388271	0.081532
C162	C	1.313624	-0.138271	0.331532
C163	C	1.563624	0.111729	0.581532
C164	C	1.813624	0.361729	0.831532
C165	C	1.110677	-0.336785	0.816497
C166	C	1.360677	-0.086785	1.066497
C167	C	1.610677	0.163215	1.316497
C168	C	1.860677	0.413215	1.566497
C169	C	1.110686	-0.336762	0.893355
C170	C	1.360686	-0.086762	1.143355
C171	C	1.610686	0.163238	1.393355
C172	C	1.860686	0.413238	1.643355
C173	C	1.016508	-0.439885	0.893318
C174	C	1.266508	-0.189885	1.143318
C175	C	1.516508	0.060115	1.393318
C176	C	1.766508	0.310115	1.643318
C177	C	1.016496	-0.439904	0.816461
C178	C	1.266496	-0.189904	1.066461
C179	C	1.516496	0.060096	1.316461
C180	C	1.766496	0.310096	1.566461
C181	C	1.063585	-0.388355	0.778052
C182	C	1.313585	-0.138355	1.028052
C183	C	1.563585	0.111645	1.278052
C184	C	1.813585	0.361645	1.528052
C185	C	1.063606	-0.388313	0.931768
C186	C	1.313606	-0.138313	1.181768
C187	C	1.563606	0.111687	1.431768
C188	C	1.813606	0.361687	1.681768
C189	C	1.063615	-0.388288	1.015102
C190	C	1.313615	-0.138288	1.265102
C191	C	1.563615	0.111712	1.515102
C192	C	1.813615	0.361712	1.765102
C193	C	1.063575	-0.388379	0.694713
C194	C	1.313575	-0.138379	0.944713
C195	C	1.563575	0.111621	1.194713
C196	C	1.813575	0.361621	1.444713
H197	H	0.633539	-0.481916	0.268995
H198	H	0.883539	-0.231916	0.518995
H199	H	1.133539	0.018084	0.768995
H200	H	1.383539	0.268084	1.018995
Br201	Br	0.654528	-0.267084	0.465676
Br202	Br	0.904528	-0.017084	0.715676
Br203	Br	1.154528	0.232916	0.965676
Br204	Br	1.404528	0.482916	1.215676
H205	H	0.494221	-0.295057	0.440082
H206	H	0.744221	-0.045057	0.690082
H207	H	0.994221	0.204943	0.940082
H208	H	1.244221	0.454943	1.190082
H209	H	0.494098	-0.481927	0.269010
H210	H	0.744098	-0.231927	0.519010
H211	H	0.994098	0.018073	0.769010
H212	H	1.244098	0.268073	1.019010
H213	H	0.978171	-0.481856	0.924600
H214	H	1.228171	-0.231856	1.174600
H215	H	1.478171	0.018144	1.424600
H216	H	1.728171	0.268144	1.674600
H217	H	1.149018	-0.294809	0.785226
H218	H	1.399018	-0.044809	1.035226
H219	H	1.649018	0.205191	1.285226
H220	H	1.899018	0.455191	1.535226
H221	H	0.978142	-0.481898	0.785159
H222	H	1.228142	-0.231898	1.035159
H223	H	1.478142	0.018102	1.285159
H224	H	1.728142	0.268102	1.535159
H225	H	1.149032	-0.294767	0.924654
H226	H	1.399032	-0.044767	1.174654
H227	H	1.649032	0.205233	1.424654
H228	H	1.899032	0.455233	1.674654
