data_functionalizedCrystal
_audit_creation_method	'MofGen! by Chris Wilmer'
_symmetry_space_group_name_H-M	'P1'
_symmetry_Int_Tables_number	1
_symmetry_cell_setting	triclinic
loop_
_symmetry_equiv_pos_as_xyz
  x,y,z
_cell_length_a	17.019292
_cell_length_b	17.038272
_cell_length_c	22.610064
_cell_angle_alpha	89.985903
_cell_angle_beta	93.879878
_cell_angle_gamma	87.242323
loop_
_atom_site_label
_atom_site_type_symbol
_atom_site_fract_x
_atom_site_fract_y
_atom_site_fract_z
O1	O	-1.053360	-0.099562	-0.004489
O2	O	-0.720027	0.233771	0.328845
O3	O	-0.386694	0.567105	0.662178
O4	O	-0.824548	-0.112274	0.007172
O5	O	-0.491214	0.221060	0.340505
O6	O	-0.157881	0.554393	0.673838
O7	O	-0.937594	0.007896	0.001406
O8	O	-0.604261	0.341230	0.334740
O9	O	-0.270927	0.674563	0.668073
O10	O	-0.940314	-0.219732	0.001277
O11	O	-0.606981	0.113601	0.334610
O12	O	-0.273647	0.446935	0.667944
O13	O	-0.937591	0.007921	-0.096963
O14	O	-0.604258	0.341255	0.236371
O15	O	-0.270924	0.674588	0.569704
O16	O	-0.824544	-0.112249	-0.091197
O17	O	-0.491211	0.221085	0.242136
O18	O	-0.157878	0.554418	0.575469
O19	O	-1.053357	-0.099537	-0.102858
O20	O	-0.720024	0.233796	0.230476
O21	O	-0.386691	0.567130	0.563809
Zn22	Zn	-0.938950	-0.105889	-0.112646
Zn23	Zn	-0.605617	0.227444	0.220688
Zn24	Zn	-0.272284	0.560778	0.554021
Zn25	Zn	-0.938955	-0.105922	0.016960
Zn26	Zn	-0.605621	0.227412	0.350293
Zn27	Zn	-0.272288	0.560745	0.683626
O28	O	-0.940311	-0.219707	-0.097092
O29	O	-0.606977	0.113626	0.236241
O30	O	-0.273644	0.446960	0.569575
C31	C	-0.795125	-0.111781	-0.040513
C32	C	-0.461791	0.221552	0.292820
C33	C	-0.128458	0.554886	0.626153
C34	C	-0.707457	-0.110341	-0.036046
C35	C	-0.374124	0.222993	0.297287
C36	C	-0.040791	0.556326	0.630621
C37	C	-0.666274	-0.109649	-0.087570
C38	C	-0.332941	0.223685	0.245764
C39	C	0.000393	0.557018	0.579097
C40	C	-0.583902	-0.108283	-0.083374
C41	C	-0.250569	0.225050	0.249960
C42	C	0.082764	0.558384	0.583293
C43	C	-0.542715	-0.107615	-0.027654
C44	C	-0.209381	0.225718	0.305680
C45	C	0.123952	0.559052	0.639013
C46	C	-0.583904	-0.108305	0.023874
C47	C	-0.250571	0.225029	0.357207
C48	C	0.082763	0.558362	0.690540
C49	C	-0.666275	-0.109665	0.019677
C50	C	-0.332941	0.223669	0.353011
C51	C	0.000392	0.557002	0.686344
C52	C	-0.294009	-0.103504	-0.012300
C53	C	0.039325	0.229830	0.321033
C54	C	0.372658	0.563163	0.654366
C55	C	-0.211632	-0.102146	-0.008108
C56	C	0.121701	0.231188	0.325226
C57	C	0.455035	0.564521	0.658559
C58	C	-0.211636	-0.102123	-0.115355
C59	C	0.121697	0.231211	0.217978
C60	C	0.455031	0.564544	0.551311
C61	C	-0.294008	-0.103487	-0.119547
C62	C	0.039325	0.229846	0.213786
C63	C	0.372659	0.563179	0.547120
C64	C	-0.335190	-0.104173	-0.068020
C65	C	-0.001857	0.229160	0.265314
C66	C	0.331476	0.562494	0.598647
C67	C	-0.458517	-0.106221	-0.023363
C68	C	-0.125184	0.227112	0.309970
C69	C	0.208149	0.560445	0.643303
C70	C	-0.419387	-0.105561	-0.072311
C71	C	-0.086053	0.227772	0.261023
C72	C	0.247280	0.561106	0.594356
C73	C	-0.082781	-0.100026	-0.055170
C74	C	0.250553	0.233308	0.278163
C75	C	0.583886	0.566641	0.611496
C76	C	-0.170449	-0.101454	-0.059631
C77	C	0.162885	0.231880	0.273702
C78	C	0.496218	0.565213	0.607036
C79	C	-0.935119	0.037035	-0.047652
C80	C	-0.601786	0.370368	0.285681
C81	C	-0.268452	0.703701	0.619014
C82	C	-0.927738	0.123821	-0.047276
C83	C	-0.594405	0.457154	0.286057
C84	C	-0.261072	0.790488	0.619391
C85	C	-0.942786	-0.248845	-0.048032
C86	C	-0.609453	0.084488	0.285301
C87	C	-0.276119	0.417821	0.618634
C88	C	-0.950166	-0.335632	-0.048405
C89	C	-0.616833	-0.002298	0.284929
C90	C	-0.283500	0.331035	0.618262
C91	C	-0.995499	0.173997	-0.050730
C92	C	-0.662165	0.507330	0.282604
C93	C	-0.328832	0.840663	0.615937
C94	C	-0.988559	0.255541	-0.050370
C95	C	-0.655226	0.588874	0.282963
C96	C	-0.321893	0.922207	0.616296
C97	C	-0.913859	0.286908	-0.046562
C98	C	-0.580526	0.620241	0.286772
C99	C	-0.247193	0.953575	0.620105
C100	C	-0.846094	0.236726	-0.043106
C101	C	-0.512761	0.570059	0.290227
C102	C	-0.179427	0.903393	0.623561
C103	C	-0.853034	0.155183	-0.043461
C104	C	-0.519701	0.488517	0.289872
C105	C	-0.186367	0.821850	0.623206
C106	C	-0.889341	0.532644	-0.045304
C107	C	-0.556008	0.865977	0.288029
C108	C	-0.222675	1.199310	0.621363
C109	C	-0.882406	0.614193	-0.044951
C110	C	-0.549073	0.947526	0.288382
C111	C	-0.215740	1.280859	0.621716
C112	C	-1.024872	0.633002	-0.052214
C113	C	-0.691539	0.966335	0.281119
C114	C	-0.358206	1.299669	0.614452
C115	C	-1.031806	0.551457	-0.052573
C116	C	-0.698473	0.884790	0.280761
C117	C	-0.365139	1.218124	0.614094
C118	C	-0.964041	0.501282	-0.049114
C119	C	-0.630707	0.834615	0.284219
C120	C	-0.297374	1.167949	0.617553
C121	C	-0.906764	0.370259	-0.046196
C122	C	-0.573431	0.703592	0.287137
C123	C	-0.240098	1.036926	0.620470
C124	C	-0.971136	0.417933	-0.049475
C125	C	-0.637803	0.751266	0.283858
C126	C	-0.304470	1.084599	0.617192
N127	N	-0.938957	-0.105938	0.105412
N128	N	-0.605624	0.227395	0.438745
N129	N	-0.272291	0.560728	0.772079
N130	N	-0.938953	-0.105866	-0.201098
N131	N	-0.605620	0.227467	0.132235
N132	N	-0.272287	0.560801	0.465568
C133	C	-0.989894	-0.153391	0.387662
C134	C	-0.656561	0.179942	0.720996
C135	C	-0.323228	0.513275	1.054329
C136	C	-0.989895	-0.153396	0.325742
C137	C	-0.656562	0.179937	0.659076
C138	C	-0.323228	0.513270	0.992409
O139	O	-1.033221	-0.193764	0.291514
O140	O	-0.699888	0.139569	0.624847
O141	O	-0.366554	0.472903	0.958181
N142	N	-0.938968	-0.105914	0.297364
N143	N	-0.605635	0.227420	0.630697
N144	N	-0.272301	0.560753	0.964031
C145	C	-0.888042	-0.058417	0.330908
C146	C	-0.554709	0.274916	0.664242
C147	C	-0.221376	0.608250	0.997575
O148	O	-0.844725	-0.018029	0.301084
O149	O	-0.511392	0.315304	0.634418
O150	O	-0.178059	0.648637	0.967751
C151	C	-0.888046	-0.058408	0.392827
C152	C	-0.554713	0.274925	0.726160
C153	C	-0.221379	0.608258	1.059494
C154	C	-0.938971	-0.105900	0.421202
C155	C	-0.605638	0.227433	0.754536
C156	C	-0.272304	0.560766	1.087869
C157	C	-1.040816	-0.200879	0.416038
C158	C	-0.707482	0.132455	0.749371
C159	C	-0.374149	0.465788	1.082705
C160	C	-1.040814	-0.200875	0.477954
C161	C	-0.707480	0.132459	0.811287
C162	C	-0.374147	0.465792	1.144620
C163	C	-0.989890	-0.153383	0.511494
C164	C	-0.656557	0.179950	0.844827
C165	C	-0.323224	0.513283	1.178160
C166	C	-0.938969	-0.105896	0.483118
C167	C	-0.605636	0.227437	0.816451
C168	C	-0.272302	0.560771	1.149785
C169	C	-0.837125	-0.010908	0.426370
C170	C	-0.503792	0.322425	0.759703
C171	C	-0.170458	0.655759	1.093037
C172	C	-0.837133	-0.010903	0.488293
C173	C	-0.503800	0.322430	0.821626
C174	C	-0.170467	0.655763	1.154959
C175	C	-0.888058	-0.058395	0.516668
C176	C	-0.554725	0.274938	0.850001
C177	C	-0.221392	0.608272	1.183335
C178	C	-0.888044	-0.058401	0.578574
C179	C	-0.554710	0.274932	0.911907
C180	C	-0.221377	0.608266	1.245241
N181	N	-0.938971	-0.105884	0.606952
N182	N	-0.605637	0.227450	0.940286
N183	N	-0.272304	0.560783	1.273619
C184	C	-0.989894	-0.153375	0.573412
C185	C	-0.656561	0.179959	0.906746
C186	C	-0.323227	0.513292	1.240079
C187	C	-0.888039	-0.058438	0.200875
C188	C	-0.554706	0.274896	0.534208
C189	C	-0.221372	0.608229	0.867542
C190	C	-0.888031	-0.058450	0.138958
C191	C	-0.554697	0.274883	0.472291
C192	C	-0.221364	0.608217	0.805624
C193	C	-0.989885	-0.153428	0.133796
C194	C	-0.656552	0.179905	0.467129
C195	C	-0.323218	0.513238	0.800463
C196	C	-0.989889	-0.153420	0.195715
C197	C	-0.656555	0.179914	0.529048
C198	C	-0.323222	0.513247	0.862381
C199	C	-0.938966	-0.105920	0.229253
C200	C	-0.605633	0.227413	0.562587
C201	C	-0.272300	0.560746	0.895920
C202	C	-0.989886	-0.153363	0.703440
C203	C	-0.656552	0.179970	1.036773
C204	C	-0.323219	0.513303	1.370107
C205	C	-0.989877	-0.153357	0.765362
C206	C	-0.656543	0.179976	1.098695
C207	C	-0.323210	0.513309	1.432028
C208	C	-0.888026	-0.058376	0.770518
C209	C	-0.554693	0.274957	1.103851
C210	C	-0.221359	0.608290	1.437185
C211	C	-0.888031	-0.058385	0.708602
C212	C	-0.554698	0.274949	1.041935
C213	C	-0.221365	0.608282	1.375269
C214	C	-0.938968	-0.105881	0.675064
C215	C	-0.605634	0.227453	1.008398
C216	C	-0.272301	0.560786	1.341731
O217	O	-0.844742	-0.018052	0.612840
O218	O	-0.511409	0.315282	0.946174
O219	O	-0.178075	0.648615	1.279507
O220	O	-1.033211	-0.193748	0.603244
O221	O	-0.699878	0.139585	0.936577
O222	O	-0.366544	0.472919	1.269910
H223	H	-0.178099	-0.101604	0.037269
H224	H	0.155234	0.231729	0.370602
H225	H	0.488567	0.565063	0.703935
H226	H	-0.795657	0.027766	0.403278
H227	H	-0.462324	0.361099	0.736611
H228	H	-0.128991	0.694433	1.069944
H229	H	-0.550375	-0.107706	-0.125330
H230	H	-0.217042	0.225627	0.208004
H231	H	0.116291	0.558960	0.541337
H232	H	-1.031356	-0.192092	0.218814
H233	H	-0.698022	0.141241	0.552147
H234	H	-0.364689	0.474574	0.885480
H235	H	-0.846565	-0.019761	0.228179
H236	H	-0.513231	0.313573	0.561513
H237	H	-0.179898	0.646906	0.894846
H238	H	-1.031349	-0.192099	0.106476
H239	H	-0.698015	0.141234	0.439810
H240	H	-0.364682	0.474567	0.773143
H241	H	-0.327529	-0.104059	0.029657
H242	H	0.005804	0.229274	0.362990
H243	H	0.339137	0.562607	0.696324
H244	H	-0.452925	-0.106101	-0.117678
H245	H	-0.119592	0.227232	0.215656
H246	H	0.213742	0.560566	0.548989
H247	H	-0.797856	0.114330	-0.040648
H248	H	-0.464523	0.447664	0.292685
H249	H	-0.131190	0.780997	0.626018
H250	H	-0.699803	-0.110199	-0.132943
H251	H	-0.366469	0.223134	0.200391
H252	H	-0.033136	0.556468	0.533724
H253	H	-0.821573	0.639728	-0.041859
H254	H	-0.488240	0.973061	0.291474
H255	H	-0.154907	1.306395	0.624808
H256	H	-1.031957	0.392390	-0.052563
H257	H	-0.698623	0.725723	0.280770
H258	H	-0.365290	1.059057	0.614104
H259	H	-0.845943	0.395807	-0.043096
H260	H	-0.512610	0.729141	0.290237
H261	H	-0.179276	1.062474	0.623570
H262	H	-0.699805	-0.110230	0.061633
H263	H	-0.366472	0.223103	0.394967
H264	H	-0.033138	0.556437	0.728300
H265	H	-0.550363	-0.107755	0.069242
H266	H	-0.217030	0.225578	0.402576
H267	H	0.116304	0.558911	0.735909
H268	H	-1.056328	0.148464	-0.053835
H269	H	-0.722994	0.481798	0.279499
H270	H	-0.389661	0.815131	0.612832
H271	H	-0.327537	-0.104028	-0.164920
H272	H	0.005796	0.229306	0.168413
H273	H	0.339129	0.562639	0.501746
H274	H	-0.795666	0.027778	0.515597
H275	H	-0.462332	0.361111	0.848931
H276	H	-0.128999	0.694445	1.182264
H277	H	-0.846555	-0.019723	0.685498
H278	H	-0.513222	0.313610	1.018831
H279	H	-0.179888	0.646944	1.352165
H280	H	-1.031346	-0.192035	0.788462
H281	H	-0.698013	0.141299	1.121795
H282	H	-0.364679	0.474632	1.455129
H283	H	-1.092635	0.525924	-0.055674
H284	H	-0.759301	0.859258	0.277659
H285	H	-0.425968	1.192591	0.610992
H286	H	-0.178097	-0.101563	-0.157306
H287	H	0.155237	0.231770	0.176027
H288	H	0.488570	0.565104	0.509361
H289	H	-1.031363	-0.192038	0.676141
H290	H	-0.698030	0.141295	1.009474
H291	H	-0.364696	0.474628	1.342807
H292	H	-0.846563	-0.019712	0.797837
H293	H	-0.513230	0.313621	1.131171
H294	H	-0.179897	0.646954	1.464504
H295	H	-1.082288	-0.239552	0.388736
H296	H	-0.748955	0.093781	0.722069
H297	H	-0.415621	0.427115	1.055402
H298	H	-0.846554	-0.019787	0.115860
H299	H	-0.513220	0.313547	0.449194
H300	H	-0.179887	0.646880	0.782527
H301	H	-1.043737	0.296391	-0.053184
H302	H	-0.710404	0.629724	0.280149
H303	H	-0.377071	0.963058	0.613483
H304	H	-0.424973	-0.105677	0.022004
H305	H	-0.091640	0.227656	0.355338
H306	H	0.241693	0.560990	0.688671
H307	H	-1.080043	0.673863	-0.055029
H308	H	-0.746709	1.007196	0.278304
H309	H	-0.413376	1.340529	0.611637
H310	H	-0.834162	0.491801	-0.042488
H311	H	-0.500828	0.825134	0.290846
H312	H	-0.167495	1.158467	0.624179
H313	H	-0.785271	0.262271	-0.040001
H314	H	-0.451938	0.595605	0.293332
H315	H	-0.118605	0.928938	0.626666
H316	H	-1.082285	-0.239544	0.501051
H317	H	-0.748952	0.093789	0.834384
H318	H	-0.415619	0.427123	1.167718
