data_functionalizedCrystal
_audit_creation_method	'MofGen! by Chris Wilmer'
_symmetry_space_group_name_H-M	'P1'
_symmetry_Int_Tables_number	1
_symmetry_cell_setting	triclinic
loop_
_symmetry_equiv_pos_as_xyz
  x,y,z
_cell_length_a	12.594516
_cell_length_b	19.077105
_cell_length_c	19.076919
_cell_angle_alpha	89.923776
_cell_angle_beta	92.277239
_cell_angle_gamma	92.287367
loop_
_atom_site_label
_atom_site_type_symbol
_atom_site_fract_x
_atom_site_fract_y
_atom_site_fract_z
Zn1	Zn	-0.514930	-1.058319	-0.440450
Zn2	Zn	-0.014930	-0.558319	0.059550
Zn3	Zn	-0.686069	-1.062975	-0.322954
Zn4	Zn	-0.186069	-0.562975	0.177046
Zn5	Zn	-0.500672	-0.945535	-0.318243
Zn6	Zn	-0.000672	-0.445535	0.181757
Zn7	Zn	-0.685427	-0.940797	-0.435707
Zn8	Zn	-0.185427	-0.440797	0.064293
O9	O	-0.596775	-1.001907	-0.379338
O10	O	-0.096775	-0.501907	0.120662
O11	O	-0.543868	-1.157269	-0.428821
O12	O	-0.043868	-0.657269	0.071179
O13	O	-0.655777	-1.051328	-0.223998
O14	O	-0.155777	-0.551328	0.276002
O15	O	-0.353620	-0.960531	-0.334467
O16	O	0.146380	-0.460531	0.165533
O17	O	-0.669603	-1.160690	-0.342497
O18	O	-0.169603	-0.660690	0.157503
O19	O	-0.364096	-1.043393	-0.424253
O20	O	0.135904	-0.543393	0.075747
O21	O	-0.519567	-0.965046	-0.220536
O22	O	-0.019567	-0.465046	0.279464
O23	O	-0.518944	-0.846574	-0.329868
O24	O	-0.018944	-0.346574	0.170132
O25	O	-0.668509	-0.952455	-0.534668
O26	O	-0.168509	-0.452455	-0.034668
O27	O	-0.654683	-0.843093	-0.416168
O28	O	-0.154683	-0.343093	0.083832
O29	O	-0.543246	-1.038798	-0.538153
O30	O	-0.043246	-0.538798	-0.038153
O31	O	-0.834927	-1.046733	-0.337898
O32	O	-0.334927	-0.546733	0.162102
O33	O	-0.834455	-0.956969	-0.420737
O34	O	-0.334455	-0.456969	0.079263
C35	C	-0.585197	-0.819337	-0.371992
C36	C	-0.085197	-0.319337	0.128008
C37	C	-0.580271	-0.741233	-0.368866
C38	C	-0.080271	-0.241233	0.131134
C39	C	-0.873312	-1.001861	-0.379330
C40	C	-0.373312	-0.501861	0.120670
C41	C	-0.991622	-1.001905	-0.379352
C42	C	-0.491622	-0.501905	0.120648
C43	C	-0.607396	-0.994578	-0.562619
C44	C	-0.107396	-0.494578	-0.062619
C45	C	-0.611923	-0.991455	-0.640723
C46	C	-0.111923	-0.491455	-0.140723
C47	C	-1.060655	-0.953079	-0.424375
C48	C	-0.560655	-0.453079	0.075625
C49	C	-1.126689	-0.938538	-0.359570
C50	C	-0.626689	-0.438538	0.140430
C51	C	-1.136391	-1.016509	-0.444171
C52	C	-0.636391	-0.516509	0.055829
C53	C	-1.056094	-0.987331	-0.314511
C54	C	-0.556094	-0.487331	0.185489
C55	C	-1.065794	-1.065330	-0.399157
C56	C	-0.565794	-0.565330	0.100843
C57	C	-1.131795	-1.050816	-0.334309
C58	C	-0.631795	-0.550816	0.165691
C59	C	-0.319159	-1.001971	-0.379363
C60	C	0.180841	-0.501971	0.120637
C61	C	-0.200856	-1.001998	-0.379374
C62	C	0.299144	-0.501998	0.120626
C63	C	-0.608398	-1.185189	-0.386714
C64	C	-0.108398	-0.685189	0.113286
C65	C	-0.613351	-1.263293	-0.389857
C66	C	-0.113351	-0.763293	0.110143
C67	C	-0.648728	-0.702747	-0.412259
C68	C	-0.148728	-0.202747	0.087741
C69	C	-0.644085	-0.629360	-0.409325
C70	C	-0.144085	-0.129360	0.090675
C71	C	-0.570991	-0.594459	-0.362994
C72	C	-0.070991	-0.094459	0.137006
C73	C	-0.502527	-0.632949	-0.319600
C74	C	-0.002527	-0.132949	0.180400
C75	C	-0.507165	-0.706335	-0.322538
C76	C	-0.007165	-0.206335	0.177462
C77	C	-0.549525	-0.375169	-0.349400
C78	C	-0.049525	0.124831	0.150600
C79	C	-0.544895	-0.301778	-0.346464
C80	C	-0.044895	0.198222	0.153536
C81	C	-0.686452	-0.298194	-0.436191
C82	C	-0.186452	0.201806	0.063809
C83	C	-0.691088	-0.371582	-0.439121
C84	C	-0.191088	0.128418	0.060879
C85	C	-0.622620	-0.410065	-0.395730
C86	C	-0.122620	0.089935	0.104270
N87	N	-0.566246	-0.519445	-0.359993
N88	N	-0.066246	-0.019445	0.140007
N89	N	-0.627361	-0.485078	-0.398735
N90	N	-0.127361	0.014922	0.101265
C91	C	-0.548834	-1.034940	-0.679231
C92	C	-0.048834	-0.534940	-0.179231
C93	C	-0.553083	-1.031997	-0.752617
C94	C	-0.053083	-0.531997	-0.252617
C95	C	-0.620426	-0.985572	-0.787494
C96	C	-0.120426	-0.485572	-0.287494
C97	C	-0.683517	-0.942083	-0.748980
C98	C	-0.183517	-0.442083	-0.248980
C99	C	-0.679262	-0.945023	-0.675595
C100	C	-0.179262	-0.445023	-0.175595
C101	C	-0.640139	-0.971956	-1.006776
C102	C	-0.140139	-0.471956	-0.506776
C103	C	-0.644391	-0.969021	-1.080166
C104	C	-0.144391	-0.469021	-0.580166
C105	C	-0.513955	-1.058935	-1.083799
C106	C	-0.013955	-0.558935	-0.583799
C107	C	-0.509711	-1.061873	-1.010412
C108	C	-0.009711	-0.561873	-0.510412
C109	C	-0.572798	-1.018381	-0.971905
C110	C	-0.072798	-0.518381	-0.471905
N111	N	-0.624772	-0.982565	-0.862506
N112	N	-0.124772	-0.482565	-0.362506
N113	N	-0.568445	-1.021386	-0.896894
N114	N	-0.068445	-0.521386	-0.396894
C115	C	-0.586120	-1.009247	-0.196772
C116	C	-0.086120	-0.509247	0.303228
C117	C	-0.581302	-1.012506	-0.118675
C118	C	-0.081302	-0.512506	0.381325
H119	H	-1.029418	-0.911720	-0.462389
H120	H	-0.529418	-0.411720	0.037611
Cl121	Cl	-0.782984	-0.415452	-0.497366
Cl122	Cl	-0.282984	0.084548	0.002634
Cl123	Cl	-1.179710	-1.114632	-0.275472
Cl124	Cl	-0.679710	-0.614632	0.224528
Cl125	Cl	-1.024203	-1.148055	-0.425041
Cl126	Cl	-0.524203	-0.648055	0.074959
Cl127	Cl	-0.453005	-0.257903	-0.288210
Cl128	Cl	0.046995	0.242097	0.211790
Cl129	Cl	-0.463449	-0.423539	-0.294852
Cl130	Cl	0.036551	0.076461	0.205148
Cl131	Cl	-0.473817	-1.086697	-0.801027
Cl132	Cl	0.026183	-0.586697	-0.301027
Cl133	Cl	-0.410630	-0.589073	-0.261360
Cl134	Cl	0.089370	-0.089073	0.238640
H135	H	-1.171502	-1.028824	-0.498979
H136	H	-0.671502	-0.528824	0.001021
H137	H	-0.708252	-0.731159	-0.449984
H138	H	-0.208252	-0.231159	0.050016
Cl139	Cl	-0.730149	-0.580981	-0.463879
Cl140	Cl	-0.230149	-0.080981	0.036121
H141	H	-1.153628	-0.884944	-0.342835
H142	H	-0.653628	-0.384944	0.157165
H143	H	-0.454876	-1.099679	-0.982021
H144	H	0.045124	-0.599679	-0.482021
Cl145	Cl	-0.729051	-0.910651	-1.124009
Cl146	Cl	-0.229051	-0.410651	-0.624009
H147	H	-0.451416	-0.737669	-0.287206
H148	H	0.048584	-0.237669	0.212794
Cl149	Cl	-0.772520	-0.249810	-0.490736
Cl150	Cl	-0.272520	0.250190	0.009264
Cl151	Cl	-0.464175	-1.093309	-0.635394
Cl152	Cl	0.035825	-0.593309	-0.135394
Cl153	Cl	-0.434647	-1.113604	-1.132212
Cl154	Cl	0.065353	-0.613604	-0.632212
Cl155	Cl	-1.002083	-0.968224	-0.229864
Cl156	Cl	-0.502083	-0.468224	0.270136
H157	H	-0.691524	-0.936552	-0.975432
H158	H	-0.191524	-0.436552	-0.475432
H159	H	-0.738345	-0.904280	-0.777382
H160	H	-0.238345	-0.404280	-0.277382
H161	H	-0.730624	-0.909606	-0.644242
H162	H	-0.230624	-0.409606	-0.144242
