data_functionalizedCrystal
_audit_creation_method	'MofGen! by Chris Wilmer'
_symmetry_space_group_name_H-M	'P1'
_symmetry_Int_Tables_number	1
_symmetry_cell_setting	triclinic
loop_
_symmetry_equiv_pos_as_xyz
  x,y,z
_cell_length_a	15.995350
_cell_length_b	23.532407
_cell_length_c	14.472310
_cell_angle_alpha	89.994233
_cell_angle_beta	89.990621
_cell_angle_gamma	83.170526
loop_
_atom_site_label
_atom_site_type_symbol
_atom_site_fract_x
_atom_site_fract_y
_atom_site_fract_z
O1	O	1.110386	0.073404	-0.076772
O2	O	1.360386	0.323404	0.173228
O3	O	1.610386	0.573404	0.423228
O4	O	1.860386	0.823404	0.673228
O5	O	0.866535	0.082469	-0.076793
O6	O	1.116535	0.332469	0.173207
O7	O	1.366535	0.582469	0.423207
O8	O	1.616535	0.832469	0.673207
O9	O	0.995814	-0.004967	-0.076765
O10	O	1.245814	0.245033	0.173235
O11	O	1.495814	0.495033	0.423235
O12	O	1.745814	0.745033	0.673235
O13	O	0.981107	0.160840	-0.076800
O14	O	1.231107	0.410840	0.173200
O15	O	1.481107	0.660840	0.423200
O16	O	1.731107	0.910840	0.673200
O17	O	0.995781	-0.004962	0.076917
O18	O	1.245781	0.245038	0.326917
O19	O	1.495781	0.495038	0.576917
O20	O	1.745781	0.745038	0.826917
O21	O	0.866502	0.082474	0.076889
O22	O	1.116502	0.332474	0.326889
O23	O	1.366502	0.582474	0.576889
O24	O	1.616502	0.832474	0.826889
O25	O	1.110353	0.073409	0.076910
O26	O	1.360353	0.323409	0.326910
O27	O	1.610353	0.573409	0.576910
O28	O	1.860353	0.823409	0.826910
Cu29	Cu	0.988424	0.077942	0.090932
Cu30	Cu	1.238424	0.327942	0.340932
Cu31	Cu	1.488424	0.577942	0.590932
Cu32	Cu	1.738424	0.827942	0.840932
Cu33	Cu	0.988464	0.077936	-0.090815
Cu34	Cu	1.238464	0.327936	0.159185
Cu35	Cu	1.488464	0.577936	0.409185
Cu36	Cu	1.738464	0.827936	0.659185
O37	O	0.981074	0.160845	0.076882
O38	O	1.231074	0.410845	0.326882
O39	O	1.481074	0.660845	0.576882
O40	O	1.731074	0.910845	0.826882
C41	C	0.835327	0.082096	0.000046
C42	C	1.085327	0.332096	0.250046
C43	C	1.335327	0.582096	0.500046
C44	C	1.585327	0.832096	0.750046
C45	C	0.742386	0.080973	0.000039
C46	C	0.992386	0.330973	0.250039
C47	C	1.242386	0.580973	0.500039
C48	C	1.492386	0.830973	0.750039
C49	C	0.404672	0.076938	0.000059
C50	C	0.654672	0.326938	0.250059
C51	C	0.904672	0.576938	0.500059
C52	C	1.154672	0.826938	0.750059
C53	C	0.452624	0.014668	0.000415
C54	C	0.702624	0.264668	0.250415
C55	C	0.952624	0.514668	0.500415
C56	C	1.202624	0.764668	0.750415
C57	C	0.549305	0.015792	0.000062
C58	C	0.799305	0.265792	0.250062
C59	C	1.049305	0.515792	0.500062
C60	C	1.299305	0.765792	0.750062
C61	C	0.572216	0.078939	0.000050
C62	C	0.822216	0.328939	0.250050
C63	C	1.072216	0.578939	0.500050
C64	C	1.322216	0.828939	0.750050
C65	C	0.530892	0.109650	-0.087713
C66	C	0.780892	0.359650	0.162287
C67	C	1.030892	0.609650	0.412287
C68	C	1.280892	0.859650	0.662287
C69	C	0.434270	0.108086	-0.087780
C70	C	0.684270	0.358086	0.162220
C71	C	0.934270	0.608086	0.412220
C72	C	1.184270	0.858086	0.662220
C73	C	0.433882	0.109378	0.086985
C74	C	0.683882	0.359378	0.336985
C75	C	0.933882	0.609378	0.586985
C76	C	1.183882	0.859378	0.836985
C77	C	0.530828	0.109364	0.088139
C78	C	0.780828	0.359364	0.338139
C79	C	1.030828	0.609364	0.588139
C80	C	1.280828	0.859364	0.838139
C81	C	0.666904	0.080074	0.000041
C82	C	0.916904	0.330074	0.250041
C83	C	1.166904	0.580074	0.500041
C84	C	1.416904	0.830074	0.750041
C85	C	0.309984	0.075805	0.000061
C86	C	0.559984	0.325805	0.250061
C87	C	0.809984	0.575805	0.500061
C88	C	1.059984	0.825805	0.750061
C89	C	0.995423	-0.026182	0.000078
C90	C	1.245423	0.223818	0.250078
C91	C	1.495423	0.473818	0.500078
C92	C	1.745423	0.723818	0.750078
C93	C	0.994297	-0.089404	0.000085
C94	C	1.244297	0.160596	0.250085
C95	C	1.494297	0.410596	0.500085
C96	C	1.744297	0.660596	0.750085
C97	C	1.063739	-0.488239	0.000041
C98	C	1.313739	-0.238239	0.250041
C99	C	1.563739	0.011761	0.500041
C100	C	1.813739	0.261761	0.750041
C101	C	1.062693	-0.547644	0.000033
C102	C	1.312693	-0.297644	0.250033
C103	C	1.562693	-0.047644	0.500033
C104	C	1.812693	0.202356	0.750033
O105	O	1.127067	-0.584141	0.000005
O106	O	1.377067	-0.334141	0.250005
O107	O	1.627067	-0.084141	0.500005
O108	O	1.877067	0.165859	0.750005
N109	N	0.985837	-0.570566	0.000028
N110	N	1.235837	-0.320566	0.250028
N111	N	1.485837	-0.070566	0.500028
N112	N	1.735837	0.179434	0.750028
C113	C	0.910022	-0.534080	0.000020
C114	C	1.160022	-0.284080	0.250020
C115	C	1.410022	-0.034080	0.500020
C116	C	1.660022	0.215920	0.750020
O117	O	0.844554	-0.559031	0.000013
O118	O	1.094554	-0.309031	0.250013
O119	O	1.344554	-0.059031	0.500013
O120	O	1.594554	0.190969	0.750013
C121	C	0.911069	-0.474677	0.000020
C122	C	1.161069	-0.224677	0.250020
C123	C	1.411069	0.025323	0.500020
C124	C	1.661069	0.275323	0.750020
C125	C	0.987930	-0.451758	0.000035
C126	C	1.237930	-0.201758	0.250035
C127	C	1.487930	0.048242	0.500035
C128	C	1.737930	0.298242	0.750035
C129	C	1.140594	-0.465320	0.000055
C130	C	1.390594	-0.215320	0.250055
C131	C	1.640594	0.034680	0.500055
C132	C	1.890594	0.284680	0.750055
C133	C	1.141640	-0.405920	0.000063
C134	C	1.391640	-0.155920	0.250063
C135	C	1.641640	0.094080	0.500063
C136	C	1.891640	0.344080	0.750063
C137	C	1.065830	-0.369439	0.000058
C138	C	1.315830	-0.119439	0.250058
C139	C	1.565830	0.130561	0.500058
C140	C	1.815830	0.380561	0.750058
C141	C	0.988975	-0.392358	0.000044
C142	C	1.238975	-0.142358	0.250044
C143	C	1.488975	0.107642	0.500044
C144	C	1.738975	0.357642	0.750044
C145	C	0.835255	-0.438192	0.000006
C146	C	1.085255	-0.188192	0.250006
C147	C	1.335255	0.061808	0.500006
C148	C	1.585255	0.311808	0.750006
C149	C	0.836308	-0.378785	0.000005
C150	C	1.086308	-0.128785	0.250005
C151	C	1.336308	0.121215	0.500005
C152	C	1.586308	0.371215	0.750005
C153	C	0.913169	-0.355867	0.000020
C154	C	1.163169	-0.105867	0.250020
C155	C	1.413169	0.144133	0.500020
C156	C	1.663169	0.394133	0.750020
C157	C	0.914212	-0.296477	0.000048
C158	C	1.164212	-0.046477	0.250048
C159	C	1.414212	0.203523	0.500048
C160	C	1.664212	0.453523	0.750048
N161	N	0.991068	-0.273555	0.000053
N162	N	1.241068	-0.023555	0.250053
N163	N	1.491068	0.226445	0.500053
N164	N	1.741068	0.476445	0.750053
C165	C	1.066877	-0.310036	0.000059
C166	C	1.316877	-0.060036	0.250059
C167	C	1.566877	0.189964	0.500059
C168	C	1.816877	0.439964	0.750059
C169	C	0.907829	-0.658831	0.000017
C170	C	1.157829	-0.408831	0.250017
C171	C	1.407829	-0.158831	0.500017
C172	C	1.657829	0.091169	0.750017
C173	C	0.906781	-0.718233	0.000023
C174	C	1.156781	-0.468233	0.250023
C175	C	1.406781	-0.218233	0.500023
C176	C	1.656781	0.031767	0.750023
C177	C	1.059453	-0.731793	0.000035
C178	C	1.309453	-0.481793	0.250035
C179	C	1.559453	-0.231793	0.500035
C180	C	1.809453	0.018207	0.750035
C181	C	1.060500	-0.672389	0.000036
C182	C	1.310500	-0.422389	0.250036
C183	C	1.560500	-0.172389	0.500036
C184	C	1.810500	0.077611	0.750036
C185	C	0.984685	-0.635909	0.000023
C186	C	1.234685	-0.385909	0.250023
C187	C	1.484685	-0.135909	0.500023
C188	C	1.734685	0.114091	0.750023
C189	C	1.069067	-0.185291	0.000078
C190	C	1.319067	0.064709	0.250078
C191	C	1.569067	0.314709	0.500078
C192	C	1.819067	0.564709	0.750078
C193	C	1.070106	-0.125885	0.000091
C194	C	1.320106	0.124115	0.250091
C195	C	1.570106	0.374115	0.500091
C196	C	1.820106	0.624115	0.750091
C197	C	0.917435	-0.112330	0.000074
C198	C	1.167435	0.137670	0.250074
C199	C	1.417435	0.387670	0.500074
C200	C	1.667435	0.637670	0.750074
C201	C	0.916396	-0.171731	0.000066
C202	C	1.166396	0.078269	0.250066
C203	C	1.416396	0.328269	0.500066
C204	C	1.666396	0.578269	0.750066
C205	C	0.992219	-0.208210	0.000065
C206	C	1.242219	0.041790	0.250065
C207	C	1.492219	0.291790	0.500065
C208	C	1.742219	0.541790	0.750065
O209	O	0.849872	-0.259945	0.000073
O210	O	1.099872	-0.009945	0.250073
O211	O	1.349872	0.240055	0.500073
O212	O	1.599872	0.490055	0.750073
O213	O	1.132335	-0.285076	0.000053
O214	O	1.382335	-0.035076	0.250053
O215	O	1.632335	0.214924	0.500053
O216	O	1.882335	0.464924	0.750053
C217	C	1.141561	0.073781	0.000069
C218	C	1.391561	0.323781	0.250069
C219	C	1.641561	0.573781	0.500069
C220	C	1.891561	0.823781	0.750069
C221	C	1.234502	0.074905	0.000070
C222	C	1.484502	0.324905	0.250070
C223	C	1.734502	0.574905	0.500070
C224	C	1.984502	0.824905	0.750070
C225	C	0.981465	0.182060	0.000037
C226	C	1.231465	0.432060	0.250037
C227	C	1.481465	0.682060	0.500037
C228	C	1.731465	0.932060	0.750037
C229	C	0.982591	0.245281	0.000024
C230	C	1.232591	0.495281	0.250024
C231	C	1.482591	0.745281	0.500024
C232	C	1.732591	0.995281	0.750024
N233	N	0.988403	0.077946	0.218763
N234	N	1.238403	0.327946	0.468763
N235	N	1.488403	0.577946	0.718763
N236	N	1.738403	0.827946	0.968763
N237	N	0.988492	0.077927	-0.218646
N238	N	1.238492	0.327927	0.031354
N239	N	1.488492	0.577927	0.281354
N240	N	1.738492	0.827927	0.531354
C241	C	0.988463	0.077933	0.592854
C242	C	1.238463	0.327933	0.842854
C243	C	1.488463	0.577933	1.092854
C244	C	1.738463	0.827933	1.342854
C245	C	0.919059	0.124562	0.553673
C246	C	1.169059	0.374562	0.803673
C247	C	1.419059	0.624562	1.053673
C248	C	1.669059	0.874562	1.303673
C249	C	0.919217	0.124732	0.446585
C250	C	1.169217	0.374732	0.696585
C251	C	1.419217	0.624732	0.946585
C252	C	1.669217	0.874732	1.196585
C253	C	0.988432	0.077939	0.407263
C254	C	1.238432	0.327939	0.657263
C255	C	1.488432	0.577939	0.907263
C256	C	1.738432	0.827939	1.157263
C257	C	1.075689	0.090918	0.446104
C258	C	1.325689	0.340918	0.696104
C259	C	1.575689	0.590918	0.946104
C260	C	1.825689	0.840918	1.196104
C261	C	1.075298	0.091250	0.553226
C262	C	1.325298	0.341250	0.803226
C263	C	1.575298	0.591250	1.053226
C264	C	1.825298	0.841250	1.303226
C265	C	0.971390	0.018188	0.553394
C266	C	1.221390	0.268188	0.803394
C267	C	1.471390	0.518188	1.053394
C268	C	1.721390	0.768188	1.303394
C269	C	0.969383	0.018587	0.446267
C270	C	1.219383	0.268587	0.696267
C271	C	1.469383	0.518587	0.946267
C272	C	1.719383	0.768587	1.196267
C273	C	0.988421	0.077942	0.302375
C274	C	1.238421	0.327942	0.552375
C275	C	1.488421	0.577942	0.802375
C276	C	1.738421	0.827942	1.052375
C277	C	0.988480	0.077932	0.697742
C278	C	1.238480	0.327932	0.947742
C279	C	1.488480	0.577932	1.197742
C280	C	1.738480	0.827932	1.447742
H281	H	0.401739	0.155290	0.087570
H282	H	0.651739	0.405290	0.337570
H283	H	0.901739	0.655290	0.587570
H284	H	1.151739	0.905290	0.837570
Cl285	Cl	1.042427	-0.037497	0.404962
Cl286	Cl	1.292427	0.212503	0.654962
Cl287	Cl	1.542427	0.462503	0.904962
Cl288	Cl	1.792427	0.712503	1.154962
H289	H	0.559458	0.088316	-0.153019
H290	H	0.809458	0.338316	0.096981
H291	H	1.059458	0.588316	0.346981
H292	H	1.309458	0.838316	0.596981
H293	H	0.855713	-0.082617	0.000073
H294	H	1.105713	0.167383	0.250073
H295	H	1.355713	0.417383	0.500073
H296	H	1.605713	0.667383	0.750073
Cl297	Cl	1.099614	0.157423	0.404661
Cl298	Cl	1.349614	0.407423	0.654661
Cl299	Cl	1.599614	0.657423	0.904661
Cl300	Cl	1.849614	0.907423	1.154661
Cl301	Cl	1.098640	0.158521	0.591778
Cl302	Cl	1.348640	0.408521	0.841778
Cl303	Cl	1.598640	0.658521	1.091778
Cl304	Cl	1.848640	0.908521	1.341778
H305	H	0.929756	0.168648	0.580575
H306	H	1.179756	0.418648	0.830575
H307	H	1.429756	0.668648	1.080575
H308	H	1.679756	0.918648	1.330575
H309	H	0.930067	0.169068	0.420943
H310	H	1.180067	0.419068	0.670943
H311	H	1.430067	0.669068	0.920943
H312	H	1.680067	0.919068	1.170943
H313	H	1.123087	-0.653734	0.000047
H314	H	1.373087	-0.403734	0.250047
H315	H	1.623087	-0.153734	0.500047
H316	H	1.873087	0.096266	0.750047
H317	H	0.909171	0.005708	0.580460
H318	H	1.159171	0.255708	0.830460
H319	H	1.409171	0.505708	1.080460
H320	H	1.659171	0.755708	1.330460
H321	H	0.433250	-0.010111	-0.062166
H322	H	0.683250	0.239889	0.187834
H323	H	0.933250	0.489889	0.437834
H324	H	1.183250	0.739889	0.687834
Cl325	Cl	0.592621	-0.021574	-0.097391
Cl326	Cl	0.842621	0.228426	0.152609
Cl327	Cl	1.092621	0.478426	0.402609
Cl328	Cl	1.342621	0.728426	0.652609
Cl329	Cl	0.406309	0.073501	-0.189053
Cl330	Cl	0.656309	0.323501	0.060947
Cl331	Cl	0.906309	0.573501	0.310947
Cl332	Cl	1.156309	0.823501	0.560947
Cl333	Cl	1.238270	-0.377118	0.000056
Cl334	Cl	1.488270	-0.127118	0.250056
Cl335	Cl	1.738270	0.122882	0.500056
Cl336	Cl	1.988270	0.372882	0.750056
Cl337	Cl	0.402423	0.077949	0.189691
Cl338	Cl	0.652423	0.327949	0.439691
Cl339	Cl	0.902423	0.577949	0.689691
Cl340	Cl	1.152423	0.827949	0.939691
H341	H	0.854341	0.116999	0.420326
H342	H	1.104341	0.366999	0.670326
H343	H	1.354341	0.616999	0.920326
H344	H	1.604341	0.866999	1.170326
H345	H	1.132698	-0.107228	0.000105
H346	H	1.382698	0.142772	0.250105
H347	H	1.632698	0.392772	0.500105
H348	H	1.882698	0.642772	0.750105
Cl349	Cl	1.049539	-0.035385	0.592513
Cl350	Cl	1.299539	0.214615	0.842513
Cl351	Cl	1.549539	0.464615	1.092513
Cl352	Cl	1.799539	0.714615	1.342513
Cl353	Cl	1.154757	-0.777666	0.000035
Cl354	Cl	1.404757	-0.527666	0.250035
Cl355	Cl	1.654757	-0.277666	0.500035
Cl356	Cl	1.904757	-0.027666	0.750035
H357	H	0.844194	-0.736887	0.000027
H358	H	1.094194	-0.486887	0.250027
H359	H	1.344194	-0.236887	0.500027
H360	H	1.594194	0.013113	0.750027
H361	H	1.202331	-0.495018	0.000055
H362	H	1.452331	-0.245018	0.250055
H363	H	1.702331	0.004982	0.500055
H364	H	1.952331	0.254982	0.750055
H365	H	0.774569	-0.349085	-0.000006
H366	H	1.024569	-0.099085	0.249994
H367	H	1.274569	0.150915	0.499994
H368	H	1.524569	0.400915	0.749994
H369	H	0.401642	0.153804	-0.091771
H370	H	0.651642	0.403804	0.158229
H371	H	0.901642	0.653804	0.408229
H372	H	1.151642	0.903804	0.658229
Cl373	Cl	1.164389	-0.231142	0.000078
Cl374	Cl	1.414389	0.018858	0.250078
Cl375	Cl	1.664389	0.268858	0.500078
Cl376	Cl	1.914389	0.518858	0.750078
H377	H	0.846088	-0.629131	0.000015
H378	H	1.096088	-0.379131	0.250015
H379	H	1.346088	-0.129131	0.500015
H380	H	1.596088	0.120869	0.750015
H381	H	0.853972	0.116956	0.579458
H382	H	1.103972	0.366956	0.829458
H383	H	1.353972	0.616956	1.079458
H384	H	1.603972	0.866956	1.329458
H385	H	0.544632	0.156043	-0.090985
H386	H	0.794632	0.406043	0.159015
H387	H	1.044632	0.656043	0.409015
H388	H	1.294632	0.906043	0.659015
Cl389	Cl	1.157315	0.040755	0.593244
Cl390	Cl	1.407315	0.290755	0.843244
Cl391	Cl	1.657315	0.540755	1.093244
Cl392	Cl	1.907315	0.790755	1.343244
H393	H	1.128548	0.057860	0.420631
H394	H	1.378548	0.307860	0.670631
H395	H	1.628548	0.557860	0.920631
H396	H	1.878548	0.807860	1.170631
H397	H	0.772666	-0.456841	-0.000012
H398	H	1.022666	-0.206841	0.249988
H399	H	1.272666	0.043159	0.499988
H400	H	1.522666	0.293159	0.749988
Cl401	Cl	0.573165	0.074694	0.188380
Cl402	Cl	0.823165	0.324694	0.438380
Cl403	Cl	1.073165	0.574694	0.688380
Cl404	Cl	1.323165	0.824694	0.938380
H405	H	0.905199	0.008737	0.420881
H406	H	1.155199	0.258737	0.670881
H407	H	1.405199	0.508737	0.920881
H408	H	1.655199	0.758737	1.170881
Cl409	Cl	0.819769	-0.200543	0.000064
Cl410	Cl	1.069769	0.049457	0.250064
Cl411	Cl	1.319769	0.299457	0.500064
Cl412	Cl	1.569769	0.549457	0.750064
Cl413	Cl	0.593490	-0.021482	0.097193
Cl414	Cl	0.843490	0.228518	0.347193
Cl415	Cl	1.093490	0.478518	0.597193
Cl416	Cl	1.343490	0.728518	0.847193
H417	H	0.545809	0.155413	0.093430
H418	H	0.795809	0.405413	0.343430
H419	H	1.045809	0.655413	0.593430
H420	H	1.295809	0.905413	0.843430
H421	H	0.434295	-0.010221	0.063354
H422	H	0.684295	0.239779	0.313354
H423	H	0.934295	0.489779	0.563354
H424	H	1.184295	0.739779	0.813354
