data_functionalizedCrystal
_audit_creation_method	'MofGen! by Chris Wilmer'
_symmetry_space_group_name_H-M	'P1'
_symmetry_Int_Tables_number	1
_symmetry_cell_setting	triclinic
loop_
_symmetry_equiv_pos_as_xyz
  x,y,z
_cell_length_a	17.077404
_cell_length_b	19.805405
_cell_length_c	17.077396
_cell_angle_alpha	90.031650
_cell_angle_beta	90.019501
_cell_angle_gamma	90.026635
loop_
_atom_site_label
_atom_site_type_symbol
_atom_site_fract_x
_atom_site_fract_y
_atom_site_fract_z
Zn1	Zn	1.200035	-0.269459	0.443825
Zn2	Zn	1.700035	0.230541	0.943825
Zn3	Zn	1.199934	-0.382652	0.312552
Zn4	Zn	1.699934	0.117348	0.812552
Zn5	Zn	1.068767	-0.269483	0.312573
Zn6	Zn	1.568767	0.230517	0.812573
Zn7	Zn	1.068727	-0.382612	0.443776
Zn8	Zn	1.568727	0.117388	0.943776
O9	O	1.134366	-0.326052	0.378182
O10	O	1.634366	0.173948	0.878182
O11	O	1.309869	-0.284481	0.426424
O12	O	1.809869	0.215519	0.926424
O13	O	1.182509	-0.367667	0.202708
O14	O	1.682509	0.132333	0.702708
O15	O	1.086239	-0.174763	0.330014
O16	O	1.586239	0.325237	0.830014
O17	O	1.309795	-0.367644	0.329978
O18	O	1.809795	0.132356	0.829978
O19	O	1.182681	-0.174746	0.426444
O20	O	1.682681	0.325254	0.926444
O21	O	1.086141	-0.284522	0.202724
O22	O	1.586141	0.215478	0.702724
O23	O	0.958915	-0.284483	0.329966
O24	O	1.458915	0.215517	0.829966
O25	O	1.086171	-0.367575	0.553629
O26	O	1.586171	0.132425	1.053629
O27	O	0.958886	-0.367598	0.426360
O28	O	1.458886	0.132402	0.926360
O29	O	1.182643	-0.284442	0.553666
O30	O	1.682643	0.215558	1.053666
O31	O	1.182470	-0.477363	0.329930
O32	O	1.682470	0.022637	0.829930
O33	O	1.086073	-0.477334	0.426339
O34	O	1.586073	0.022666	0.926339
C35	C	0.930418	-0.326039	0.378160
C36	C	1.430418	0.173961	0.878160
C37	C	0.843168	-0.326050	0.378169
C38	C	1.343168	0.173950	0.878169
C39	C	0.802183	-0.369394	0.428281
C40	C	1.302183	0.130606	0.928281
C41	C	0.720203	-0.369395	0.428294
C42	C	1.220203	0.130605	0.928294
C43	C	0.679209	-0.326056	0.378190
C44	C	1.179209	0.173944	0.878190
C45	C	0.720200	-0.282708	0.328076
C46	C	1.220200	0.217292	0.828076
C47	C	0.802179	-0.282703	0.328068
C48	C	1.302179	0.217297	0.828068
C49	C	0.549330	-0.282721	0.328095
C50	C	1.049330	0.217279	0.828095
C51	C	0.467345	-0.282726	0.328102
C52	C	0.967345	0.217274	0.828102
C53	C	0.467354	-0.369413	0.428321
C54	C	0.967354	0.130587	0.928321
C55	C	0.549333	-0.369409	0.428313
C56	C	1.049333	0.130591	0.928313
C57	C	0.590318	-0.326061	0.378197
C58	C	1.090318	0.173939	0.878197
C59	C	1.134278	-0.501908	0.378144
C60	C	1.634278	-0.001908	0.878144
C61	C	1.134312	-0.577140	0.378154
C62	C	1.634312	-0.077140	0.878154
C63	C	1.184555	-0.612477	0.328006
C64	C	1.684555	-0.112477	0.828006
C65	C	1.184588	-0.683165	0.328023
C66	C	1.684588	-0.183165	0.828023
C67	C	1.134374	-0.718515	0.378185
C68	C	1.634374	-0.218515	0.878185
C69	C	1.084129	-0.683173	0.428338
C70	C	1.584129	-0.183173	0.928338
C71	C	1.084100	-0.612486	0.428324
C72	C	1.584100	-0.112486	0.928324
C73	C	1.084245	-0.968246	0.428397
C74	C	1.584245	-0.468246	0.928397
C75	C	1.084276	-1.038938	0.428405
C76	C	1.584276	-0.538938	0.928405
C77	C	1.184733	-1.038925	0.328095
C78	C	1.684733	-0.538925	0.828095
C79	C	1.184704	-0.968238	0.328081
C80	C	1.684704	-0.468238	0.828081
C81	C	1.134462	-0.932902	0.378237
C82	C	1.634462	-0.432902	0.878237
C83	C	1.134427	-0.856254	0.378219
C84	C	1.634427	-0.356254	0.878219
C85	C	1.134404	-0.795162	0.378200
C86	C	1.634404	-0.295162	0.878200
C87	C	1.339110	-0.326064	0.378204
C88	C	1.839110	0.173936	0.878204
C89	C	1.426360	-0.326070	0.378213
C90	C	1.926360	0.173930	0.878213
C91	C	1.134414	-0.326002	0.582926
C92	C	1.634414	0.173998	1.082926
C93	C	1.134434	-0.325980	0.670176
C94	C	1.634434	0.174020	1.170176
C95	C	1.134476	-0.149509	0.378237
C96	C	1.634476	0.350491	0.878237
C97	C	1.134523	-0.074277	0.378261
C98	C	1.634523	0.425723	0.878261
C99	C	1.134364	-0.326052	0.174234
C100	C	1.634364	0.173948	0.674234
C101	C	1.134496	-0.325883	0.086984
C102	C	1.634496	0.174117	0.586984
C103	C	1.184668	-0.282690	0.711186
C104	C	1.684668	0.217310	1.211186
C105	C	1.184678	-0.282667	0.793167
C106	C	1.684678	0.217333	1.293167
C107	C	1.134456	-0.325939	0.834135
C108	C	1.634456	0.174061	1.334135
C109	C	1.084216	-0.369232	0.793119
C110	C	1.584216	0.130768	1.293119
C111	C	1.084203	-0.369251	0.711140
C112	C	1.584203	0.130749	1.211140
C113	C	1.084248	-0.369191	0.963989
C114	C	1.584248	0.130809	1.463989
C115	C	1.084261	-0.369174	1.045974
C116	C	1.584261	0.130826	1.545974
C117	C	1.184722	-0.282608	1.046016
C118	C	1.684722	0.217392	1.546016
C119	C	1.184709	-0.282626	0.964037
C120	C	1.684709	0.217374	1.464037
C121	C	1.134470	-0.325920	0.923026
C122	C	1.634470	0.174080	1.423026
H123	H	0.686816	-0.247417	0.287284
H124	H	1.186816	0.252583	0.787284
H125	H	0.835548	-0.247405	0.287266
H126	H	1.335548	0.252595	0.787266
Br127	Br	1.252875	-0.223905	0.908437
Br128	Br	1.752875	0.276095	1.408437
H129	H	0.433970	-0.247428	0.287312
H130	H	0.933970	0.252572	0.787312
Br131	Br	1.252893	-0.223944	0.848821
Br132	Br	1.752893	0.276056	1.348821
H133	H	1.043247	-0.711961	0.469184
H134	H	1.543247	-0.211961	0.969184
H135	H	1.043322	-0.404463	0.826482
H136	H	1.543322	0.095537	1.326482
H137	H	1.043188	-0.583715	0.469161
H138	H	1.543188	-0.083715	0.969161
H139	H	1.043325	-0.404435	0.930601
H140	H	1.543325	0.095565	1.430601
H141	H	1.043289	-0.404496	0.677751
H142	H	1.543289	0.095504	1.177751
H143	H	1.225628	-0.247355	1.079411
H144	H	1.725628	0.252645	1.579411
Br145	Br	1.252699	-0.564508	0.259918
Br146	Br	1.752699	-0.064508	0.759918
H147	H	1.043334	-0.939481	0.469234
H148	H	1.543334	-0.439481	0.969234
Br149	Br	1.252836	-0.223965	0.655594
Br150	Br	1.752836	0.276035	1.155594
Br151	Br	1.016095	-0.427894	1.101574
Br152	Br	1.516095	0.072106	1.601574
H153	H	0.686837	-0.404691	0.469099
H154	H	1.186837	0.095309	0.969099
Br155	Br	0.857810	-0.428220	0.496277
Br156	Br	1.357810	0.071780	0.996277
H157	H	0.582708	-0.404703	0.469107
H158	H	1.082708	0.095297	0.969107
Br159	Br	0.604952	-0.223890	0.260082
Br160	Br	1.104952	0.276110	0.760082
Br161	Br	1.252783	-0.731120	0.259967
Br162	Br	1.752783	-0.231120	0.759967
Br163	Br	1.016123	-1.086914	0.496486
Br164	Br	1.516123	-0.586914	0.996486
H165	H	0.433980	-0.404706	0.469128
H166	H	0.933980	0.095294	0.969128
H167	H	1.225590	-0.939458	0.287232
H168	H	1.725590	-0.439458	0.787232
H169	H	1.225645	-1.067704	0.287259
H170	H	1.725645	-0.567704	0.787259
