data_functionalizedCrystal
_audit_creation_method	'MofGen! by Chris Wilmer'
_symmetry_space_group_name_H-M	'P1'
_symmetry_Int_Tables_number	1
_symmetry_cell_setting	triclinic
loop_
_symmetry_equiv_pos_as_xyz
  x,y,z
_cell_length_a	16.120484
_cell_length_b	13.897449
_cell_length_c	16.120256
_cell_angle_alpha	87.125877
_cell_angle_beta	95.616173
_cell_angle_gamma	87.074300
loop_
_atom_site_label
_atom_site_type_symbol
_atom_site_fract_x
_atom_site_fract_y
_atom_site_fract_z
Zn1	Zn	-0.356769	-1.424977	-0.489549
Zn2	Zn	-0.106769	-1.174977	-0.239549
Zn3	Zn	0.143231	-0.924977	0.010451
Zn4	Zn	0.393231	-0.674977	0.260451
Zn5	Zn	-0.489455	-1.424856	-0.356858
Zn6	Zn	-0.239455	-1.174856	-0.106858
Zn7	Zn	0.010545	-0.924856	0.143142
Zn8	Zn	0.260545	-0.674856	0.393142
Zn9	Zn	-0.349700	-1.272287	-0.349784
Zn10	Zn	-0.099700	-1.022287	-0.099784
Zn11	Zn	0.150300	-0.772287	0.150216
Zn12	Zn	0.400300	-0.522287	0.400216
Zn13	Zn	-0.496500	-1.255016	-0.496571
Zn14	Zn	-0.246500	-1.005016	-0.246571
Zn15	Zn	0.003500	-0.755016	0.003429
Zn16	Zn	0.253500	-0.505016	0.253429
O17	O	-0.423106	-1.344284	-0.423190
O18	O	-0.173106	-1.094284	-0.173190
O19	O	0.076894	-0.844284	0.076810
O20	O	0.326894	-0.594284	0.326810
O21	O	-0.374380	-1.559941	-0.471969
O22	O	-0.124380	-1.309941	-0.221969
O23	O	0.125620	-1.059941	0.028031
O24	O	0.375620	-0.809941	0.278031
O25	O	-0.465009	-1.411794	-0.238958
O26	O	-0.215009	-1.161794	0.011042
O27	O	0.034991	-0.911794	0.261042
O28	O	0.284991	-0.661794	0.511042
O29	O	-0.233673	-1.299820	-0.362425
O30	O	0.016327	-1.049820	-0.112425
O31	O	0.266327	-0.799820	0.137575
O32	O	0.516327	-0.549820	0.387575
O33	O	-0.471864	-1.559851	-0.374482
O34	O	-0.221864	-1.309851	-0.124482
O35	O	0.028136	-1.059851	0.125518
O36	O	0.278136	-0.809851	0.375518
O37	O	-0.238866	-1.412001	-0.465109
O38	O	0.011134	-1.162001	-0.215109
O39	O	0.261134	-0.912001	0.034891
O40	O	0.511134	-0.662001	0.284891
O41	O	-0.362332	-1.299703	-0.233760
O42	O	-0.112332	-1.049703	0.016240
O43	O	0.137668	-0.799703	0.266240
O44	O	0.387668	-0.549703	0.516240
O45	O	-0.369163	-1.135016	-0.369234
O46	O	-0.119163	-0.885016	-0.119234
O47	O	0.130837	-0.635016	0.130766
O48	O	0.380837	-0.385016	0.380766
O49	O	-0.483871	-1.270385	-0.612601
O50	O	-0.233871	-1.020385	-0.362601
O51	O	0.016129	-0.770385	-0.112601
O52	O	0.266129	-0.520385	0.137399
O53	O	-0.477016	-1.122327	-0.477077
O54	O	-0.227016	-0.872327	-0.227077
O55	O	0.022984	-0.622327	0.022923
O56	O	0.272984	-0.372327	0.272923
O57	O	-0.381211	-1.395254	-0.607442
O58	O	-0.131211	-1.145254	-0.357442
O59	O	0.118789	-0.895254	-0.107442
O60	O	0.368789	-0.645254	0.142558
O61	O	-0.607355	-1.395047	-0.381291
O62	O	-0.357355	-1.145047	-0.131291
O63	O	-0.107355	-0.895047	0.118709
O64	O	0.142645	-0.645047	0.368709
O65	O	-0.612530	-1.270267	-0.483937
O66	O	-0.362530	-1.020267	-0.233937
O67	O	-0.112530	-0.770267	0.016063
O68	O	0.137470	-0.520267	0.266063
C69	C	-0.423088	-1.093673	-0.423150
C70	C	-0.173088	-0.843673	-0.173150
C71	C	0.076912	-0.593673	0.076850
C72	C	0.326912	-0.343673	0.326850
C73	C	-0.423101	-0.986458	-0.423154
C74	C	-0.173101	-0.736458	-0.173154
C75	C	0.076899	-0.486458	0.076846
C76	C	0.326899	-0.236458	0.326846
C77	C	-0.423103	-0.899388	-0.423165
C78	C	-0.173103	-0.649388	-0.173165
C79	C	0.076897	-0.399388	0.076835
C80	C	0.326897	-0.149388	0.326835
C81	C	-0.423109	-0.790153	-0.423186
C82	C	-0.173109	-0.540153	-0.173186
C83	C	0.076891	-0.290153	0.076814
C84	C	0.326891	-0.040153	0.326814
C85	C	-0.640271	-1.330795	-0.434162
C86	C	-0.390271	-1.080795	-0.184162
C87	C	-0.140271	-0.830795	0.065838
C88	C	0.109729	-0.580795	0.315838
C89	C	-0.733177	-1.325111	-0.438883
C90	C	-0.483177	-1.075111	-0.188883
C91	C	-0.233177	-0.825111	0.061117
C92	C	0.016823	-0.575111	0.311117
C93	C	-0.903277	-1.314738	-0.447521
C94	C	-0.653277	-1.064738	-0.197521
C95	C	-0.403277	-0.814738	0.052479
C96	C	-0.153277	-0.564738	0.302479
C97	C	-0.942095	-1.374002	-0.398874
C98	C	-0.692095	-1.124002	-0.148874
C99	C	-0.442095	-0.874002	0.101126
C100	C	-0.192095	-0.624002	0.351126
C101	C	-1.036744	-1.368230	-0.403680
C102	C	-0.786744	-1.118230	-0.153680
C103	C	-0.536744	-0.868230	0.096320
C104	C	-0.286744	-0.618230	0.346320
C105	C	-0.808619	-1.320508	-0.442716
C106	C	-0.558619	-1.070508	-0.192716
C107	C	-0.308619	-0.820508	0.057284
C108	C	-0.058619	-0.570508	0.307284
C109	C	-0.205094	-1.357850	-0.412195
C110	C	0.044906	-1.107850	-0.162195
C111	C	0.294906	-0.857850	0.087805
C112	C	0.544906	-0.607850	0.337805
C113	C	-0.112190	-1.363632	-0.407509
C114	C	0.137810	-1.113632	-0.157509
C115	C	0.387810	-0.863632	0.092491
C116	C	0.637810	-0.613632	0.342491
C117	C	-0.434115	-1.330906	-0.641197
C118	C	-0.184115	-1.080906	-0.391197
C119	C	0.065885	-0.830906	-0.141197
C120	C	0.315885	-0.580906	0.108803
C121	C	-0.438807	-1.325206	-0.734098
C122	C	-0.188807	-1.075206	-0.484098
C123	C	0.061193	-0.825206	-0.234098
C124	C	0.311193	-0.575206	0.015902
C125	C	-0.423121	-0.595874	-0.423221
C126	C	-0.173121	-0.345874	-0.173221
C127	C	0.076879	-0.095874	0.076779
C128	C	0.326879	0.154126	0.326779
C129	C	-0.423117	-0.703089	-0.423207
C130	C	-0.173117	-0.453089	-0.173207
C131	C	0.076883	-0.203089	0.076793
C132	C	0.326883	0.046911	0.326793
C133	C	-0.398619	-1.374012	-0.943027
C134	C	-0.148619	-1.124012	-0.693027
C135	C	0.101381	-0.874012	-0.443027
C136	C	0.351381	-0.624012	-0.193027
C137	C	-0.447338	-1.314768	-0.904182
C138	C	-0.197338	-1.064768	-0.654182
C139	C	0.052662	-0.814768	-0.404182
C140	C	0.302662	-0.564768	-0.154182
C141	C	-0.442590	-1.320577	-0.809538
C142	C	-0.192590	-1.070577	-0.559538
C143	C	0.057410	-0.820577	-0.309538
C144	C	0.307410	-0.570577	-0.059538
C145	C	-0.403366	-1.368204	-1.037679
C146	C	-0.153366	-1.118204	-0.787679
C147	C	0.096634	-0.868204	-0.537679
C148	C	0.346634	-0.618204	-0.287679
C149	C	-0.412079	-1.357669	-0.206029
C150	C	-0.162079	-1.107669	0.043971
C151	C	0.087921	-0.857669	0.293971
C152	C	0.337921	-0.607669	0.543971
C153	C	-0.407152	-1.363571	-0.113117
C154	C	-0.157152	-1.113571	0.136883
C155	C	0.092848	-0.863571	0.386883
C156	C	0.342848	-0.613571	0.636883
H157	H	-0.904243	-1.429073	-0.353616
H158	H	-0.654243	-1.179073	-0.103616
H159	H	-0.404243	-0.929073	0.146384
H160	H	-0.154243	-0.679073	0.396384
H161	H	-0.353347	-1.429092	-0.905206
H162	H	-0.103347	-1.179092	-0.655206
H163	H	0.146653	-0.929092	-0.405206
H164	H	0.396653	-0.679092	-0.155206
H165	H	-0.492609	-1.259679	-0.942006
H166	H	-0.242609	-1.009679	-0.692006
H167	H	0.007391	-0.759679	-0.442006
H168	H	0.257391	-0.509679	-0.192006
H169	H	-0.941126	-1.259670	-0.492774
H170	H	-0.691126	-1.009670	-0.242774
H171	H	-0.441126	-0.759670	0.007226
H172	H	-0.191126	-0.509670	0.257226
