data_functionalizedCrystal
_audit_creation_method	'MofGen! by Chris Wilmer'
_symmetry_space_group_name_H-M	'P1'
_symmetry_Int_Tables_number	1
_symmetry_cell_setting	triclinic
loop_
_symmetry_equiv_pos_as_xyz
  x,y,z
_cell_length_a	13.185407
_cell_length_b	15.625429
_cell_length_c	11.804365
_cell_angle_alpha	84.259068
_cell_angle_beta	82.231191
_cell_angle_gamma	68.952162
loop_
_atom_site_label
_atom_site_type_symbol
_atom_site_fract_x
_atom_site_fract_y
_atom_site_fract_z
O1	O	1.446136	-0.234265	0.002154
O2	O	1.136723	-0.151421	-0.033624
O3	O	1.288314	-0.313729	0.036465
O4	O	1.294546	-0.071957	-0.067935
O5	O	1.248403	-0.271033	0.216084
O6	O	1.096812	-0.108725	0.145995
O7	O	1.406225	-0.191569	0.181773
Cu8	Cu	1.247874	-0.146248	0.180284
Cu9	Cu	1.295074	-0.196742	-0.032135
O10	O	1.254635	-0.029261	0.111684
C11	C	1.076959	-0.121675	0.052558
C12	C	0.958340	-0.096659	0.041754
C13	C	0.645789	-0.335401	0.144851
C14	C	0.757236	-0.358905	0.155010
C15	C	0.807518	-0.293346	0.126696
C16	C	0.746341	-0.204278	0.088223
C17	C	0.634881	-0.180769	0.078071
C18	C	0.796610	-0.138714	0.059917
C19	C	0.735433	-0.049647	0.021443
C20	C	0.623984	-0.026143	0.011292
C21	C	0.573703	-0.091702	0.039606
C22	C	0.908070	-0.162223	0.070068
C23	C	0.897161	-0.007592	0.003289
C24	C	0.785714	0.015912	-0.006870
C25	C	1.264686	-0.322673	0.139353
C26	C	1.253729	-0.412932	0.178320
C27	C	1.326434	-0.826136	-0.183034
C28	C	1.316127	-0.910939	-0.146385
C29	C	1.272619	-0.864381	0.049422
C30	C	1.282928	-0.779574	0.012790
C31	C	1.309834	-0.760459	-0.103439
C32	C	1.266328	-0.713897	0.092386
C33	C	1.276630	-0.629096	0.055756
C34	C	1.303533	-0.609972	-0.060469
C35	C	1.320137	-0.675658	-0.140069
C36	C	1.239414	-0.733011	0.208614
C37	C	1.222814	-0.667334	0.288209
C38	C	1.233124	-0.582534	0.251580
C39	C	1.260026	-0.563410	0.135355
C40	C	1.216520	-0.516848	0.331180
C41	C	1.226823	-0.432047	0.294550
C42	C	1.270329	-0.478609	0.098725
C43	C	1.465990	-0.221316	0.095589
C44	C	1.584611	-0.246333	0.106386
C45	C	1.278264	-0.020317	0.008794
C46	C	1.289221	0.069940	-0.030181
N47	N	1.214685	-0.110737	0.329690
N48	N	1.328272	-0.232262	-0.181537
C49	C	1.407972	-0.317555	0.792949
C50	C	1.433078	-0.344423	0.679889
C51	C	1.378482	-0.286003	0.592334
C52	C	1.298775	-0.200712	0.617849
C53	C	1.273672	-0.173838	0.730918
C54	C	1.244182	-0.142287	0.530304
C55	C	1.164475	-0.056995	0.555818
C56	C	1.139375	-0.030126	0.668877
C57	C	1.193972	-0.088545	0.756432
C58	C	1.269285	-0.169160	0.417235
C59	C	1.134985	-0.025444	0.355204
C60	C	1.109878	0.001424	0.468263
H61	H	0.957870	-0.234743	0.101393
H62	H	1.342056	-0.660098	-0.234713
N63	N	0.927724	-0.318703	0.137646
H64	H	0.967224	-0.309844	0.060396
H65	H	0.937547	-0.278170	0.193606
N66	N	1.466841	-0.380558	0.887381
H67	H	1.521139	-0.438670	0.854068
H68	H	1.506652	-0.348700	0.925340
N69	N	1.405555	-0.314978	0.470391
H70	H	1.464331	-0.377875	0.467512
H71	H	1.337883	-0.317024	0.441357
H72	H	1.497975	-0.413865	0.659119
N73	N	1.314647	-0.518508	-0.099974
H74	H	1.391132	-0.528710	-0.137961
H75	H	1.260151	-0.485780	-0.156473
H76	H	1.173527	-0.066672	0.848496
N77	N	0.823215	-0.454960	0.196514
H78	H	0.774453	-0.492924	0.212911
H79	H	0.884496	-0.483916	0.135602
N80	N	1.053405	0.061863	0.696402
H81	H	1.022620	0.094792	0.623785
H82	H	0.992771	0.052289	0.752263
H83	H	1.348354	-0.810576	-0.277678
H84	H	0.604833	-0.388762	0.167930
N85	N	1.333992	-0.981766	-0.232246
H86	H	1.352586	-0.956781	-0.311434
H87	H	1.396121	-1.039467	-0.212061
N88	N	1.243613	-0.885005	0.174781
H89	H	1.239609	-0.948694	0.185911
H90	H	1.301392	-0.881506	0.220394
N91	N	0.453496	-0.066349	0.028642
H92	H	0.430933	-0.121399	0.052411
H93	H	0.409791	-0.014483	0.079666
H94	H	1.231015	-0.802059	0.238432
H95	H	1.044979	0.070871	0.489052
H96	H	1.334182	-0.238605	0.396472
N97	N	1.076085	0.037578	0.260789
H98	H	1.130805	0.053469	0.202191
H99	H	1.036201	0.005749	0.222891
N100	N	0.557974	0.069946	-0.030098
H101	H	0.606729	0.107918	-0.046467
H102	H	0.526242	0.067301	-0.102345
N103	N	1.193808	-0.687959	0.413568
H104	H	1.189804	-0.751647	0.424698
H105	H	1.251587	-0.684460	0.459181
H106	H	0.735888	0.088433	-0.038195
N107	N	1.187503	-0.537471	0.456537
H108	H	1.183495	-0.601158	0.467663
H109	H	1.245276	-0.533974	0.502160
N110	N	1.208913	-0.361201	0.380391
H111	H	1.190307	-0.386179	0.459580
H112	H	1.277703	-0.346488	0.378734
H113	H	0.938099	0.045793	-0.019763
H114	H	1.292249	-0.463049	0.004081
