data_functionalizedCrystal
_audit_creation_method	'MofGen! by Chris Wilmer'
_symmetry_space_group_name_H-M	'P1'
_symmetry_Int_Tables_number	1
_symmetry_cell_setting	triclinic
loop_
_symmetry_equiv_pos_as_xyz
  x,y,z
_cell_length_a	23.532407
_cell_length_b	14.044209
_cell_length_c	13.101039
_cell_angle_alpha	86.334262
_cell_angle_beta	86.668910
_cell_angle_gamma	91.981684
loop_
_atom_site_label
_atom_site_type_symbol
_atom_site_fract_x
_atom_site_fract_y
_atom_site_fract_z
O1	O	0.764354	-0.109759	-0.085092
O2	O	1.264354	0.390241	0.414908
O3	O	0.599394	-0.126398	-0.085122
O4	O	1.099394	0.373602	0.414878
O5	O	0.679398	0.019883	-0.085093
O6	O	1.179398	0.519883	0.414907
O7	O	0.684350	-0.256039	-0.085121
O8	O	1.184350	0.243961	0.414879
O9	O	0.673659	0.009370	0.085335
O10	O	1.173659	0.509370	0.585335
O11	O	0.593654	-0.136910	0.085305
O12	O	1.093654	0.363090	0.585305
O13	O	0.758615	-0.120271	0.085336
O14	O	1.258615	0.379729	0.585336
Zn15	Zn	0.675223	-0.130260	0.112380
Zn16	Zn	1.175223	0.369740	0.612380
Zn17	Zn	0.682785	-0.116409	-0.112166
Zn18	Zn	1.182785	0.383591	0.387834
O19	O	0.678611	-0.266551	0.085307
O20	O	1.178611	0.233449	0.585307
C21	C	0.575285	-0.131230	0.000088
C22	C	1.075285	0.368770	0.500088
C23	C	0.512000	-0.129955	0.000076
C24	C	1.012000	0.370045	0.500076
C25	C	0.674361	0.049920	0.000122
C26	C	1.174361	0.549920	0.500122
C27	C	0.667895	0.155085	0.000126
C28	C	1.167895	0.655085	0.500126
C29	C	0.656076	0.347636	0.000115
C30	C	1.156076	0.847636	0.500115
C31	C	0.701935	0.405701	0.000122
C32	C	1.201935	0.905701	0.500122
C33	C	0.695358	0.512843	0.000116
C34	C	1.195358	1.012843	0.500116
C35	C	0.662651	0.240484	0.000121
C36	C	1.162651	0.740484	0.500121
C37	C	0.117154	-0.208533	0.000115
C38	C	0.617154	0.291467	0.500115
C39	C	0.057689	-0.207350	0.000121
C40	C	0.557689	0.292650	0.500121
O41	O	0.024891	-0.280192	0.000151
O42	O	0.524891	0.219808	0.500151
N43	N	0.030350	-0.120386	0.000128
N44	N	0.530350	0.379614	0.500128
C45	C	0.062477	-0.034600	0.000140
C46	C	0.562477	0.465400	0.500140
O47	O	0.033763	0.039479	0.000147
O48	O	0.533763	0.539479	0.500147
C49	C	0.121941	-0.035784	0.000141
C50	C	0.621941	0.464216	0.500141
C51	C	0.149277	-0.122753	0.000123
C52	C	0.649277	0.377247	0.500123
C53	C	0.144491	-0.295495	0.000098
C54	C	0.644491	0.204505	0.500098
C55	C	0.203951	-0.296678	0.000090
C56	C	0.703951	0.203322	0.500090
C57	C	0.236075	-0.210898	0.000098
C58	C	0.736075	0.289102	0.500098
C59	C	0.208738	-0.123936	0.000115
C60	C	0.708738	0.376064	0.500115
C61	C	0.154067	0.050000	0.000159
C62	C	0.654067	0.550000	0.500159
C63	C	0.213534	0.048808	0.000161
C64	C	0.713534	0.548808	0.500161
C65	C	0.240871	-0.038161	0.000143
C66	C	0.740871	0.461839	0.500143
C67	C	0.300322	-0.039339	0.000114
C68	C	0.800322	0.460661	0.500114
N69	N	0.327662	-0.126303	0.000107
N70	N	0.827662	0.373697	0.500107
C71	C	0.295538	-0.212083	0.000099
C72	C	0.795538	0.287917	0.500099
C73	C	-0.062400	-0.032119	0.000139
C74	C	0.437600	0.467881	0.500139
C75	C	-0.121861	-0.030933	0.000131
C76	C	0.378139	0.469067	0.500131
C77	C	-0.126646	-0.203683	0.000115
C78	C	0.373354	0.296317	0.500115
C79	C	-0.067183	-0.204868	0.000116
C80	C	0.432817	0.295132	0.500116
C81	C	-0.035060	-0.119083	0.000132
C82	C	0.464940	0.380917	0.500132
C83	C	0.420410	-0.214560	0.000081
C84	C	0.920410	0.285440	0.500081
C85	C	0.479876	-0.215735	0.000068
C86	C	0.979876	0.284265	0.500068
C87	C	0.484655	-0.042985	0.000090
C88	C	0.984655	0.457015	0.500090
C89	C	0.425194	-0.041809	0.000097
C90	C	0.925194	0.458191	0.500097
C91	C	0.393073	-0.127605	0.000096
C92	C	0.893073	0.372395	0.500096
O93	O	0.333157	0.033464	0.000089
O94	O	0.833157	0.533464	0.500089
O95	O	0.324260	-0.286150	0.000105
O96	O	0.824260	0.213850	0.500105
C97	C	0.782724	-0.115439	0.000124
C98	C	1.282724	0.384561	0.500124
C99	C	0.846009	-0.116713	0.000128
C100	C	1.346009	0.383287	0.500128
N101	N	0.670067	-0.139712	0.265626
N102	N	1.170067	0.360288	0.765626
C103	C	0.683649	0.703411	0.000097
C104	C	1.183649	1.203411	0.500097
C105	C	0.690117	0.598246	0.000111
C106	C	1.190117	1.098246	0.500111
N107	N	0.687946	-0.106949	-0.265413
N108	N	1.187946	0.393051	0.234587
C109	C	0.663051	-0.152581	0.474666
C110	C	1.163051	0.347419	0.974666
C111	C	0.694960	-0.094083	0.525554
C112	C	1.194960	0.405917	1.025554
C113	C	0.691056	-0.101244	0.641871
C114	C	1.191056	0.398756	1.141871
C115	C	0.666954	-0.145422	0.358339
C116	C	1.166954	0.354578	0.858339
H117	H	0.746138	0.374949	0.000060
H118	H	1.246138	0.874949	0.500060
Br119	Br	0.582409	0.398895	0.000094
Br120	Br	1.082409	0.898895	0.500094
Br121	Br	0.516972	-0.333771	0.000038
Br122	Br	1.016972	0.166229	0.500038
H123	H	0.394263	-0.284423	0.000083
H124	H	0.894263	0.215577	0.500083
H125	H	0.226203	-0.367497	0.000075
H126	H	0.726203	0.132503	0.500075
H127	H	0.632805	-0.208037	0.518452
H128	H	1.132805	0.291963	1.018452
H129	H	0.725209	-0.038625	0.481763
H130	H	1.225209	0.461375	0.981763
H131	H	0.118341	-0.365351	0.000095
H132	H	0.618341	0.134649	0.500095
H133	H	-0.044929	-0.275686	0.000107
H134	H	0.455071	0.224314	0.500107
Br135	Br	-0.170254	-0.320100	0.000106
Br136	Br	0.329746	0.179900	0.500106
H137	H	-0.144113	0.039887	0.000129
H138	H	0.355887	0.539887	0.500129
Br139	Br	0.116984	0.168038	0.000160
Br140	Br	0.616984	0.668038	0.500160
Br141	Br	-0.018810	0.084316	0.000153
Br142	Br	0.481190	0.584316	0.500153
H143	H	0.239686	0.118666	0.000175
H144	H	0.739686	0.618666	0.500175
Br145	Br	0.528262	0.073424	0.000104
Br146	Br	1.028262	0.573424	0.500104
H147	H	0.402936	0.029009	0.000097
H148	H	0.902936	0.529009	0.500097
