data_functionalizedCrystal
_audit_creation_method	'MofGen! by Chris Wilmer'
_symmetry_space_group_name_H-M	'P1'
_symmetry_Int_Tables_number	1
_symmetry_cell_setting	triclinic
loop_
_symmetry_equiv_pos_as_xyz
  x,y,z
_cell_length_a	33.428889
_cell_length_b	33.428139
_cell_length_c	33.424847
_cell_angle_alpha	60.004234
_cell_angle_beta	60.008465
_cell_angle_gamma	59.994972
loop_
_atom_site_label
_atom_site_type_symbol
_atom_site_fract_x
_atom_site_fract_y
_atom_site_fract_z
O1	O	0.055565	-0.584504	0.488714
O2	O	0.020982	-0.455083	0.393778
O3	O	0.102943	-0.536959	0.393689
O4	O	-0.026396	-0.502628	0.488803
O5	O	0.130140	-0.509767	0.420792
O6	O	0.048179	-0.427891	0.420881
O7	O	0.082762	-0.557312	0.515817
Cu8	Cu	0.067954	-0.490119	0.470823
Cu9	Cu	0.035790	-0.522276	0.438771
O10	O	0.000801	-0.475436	0.515906
N11	N	0.090577	-0.467504	0.493370
N12	N	0.013171	-0.544895	0.416225
C13	C	0.143377	-0.280390	0.546067
C14	C	0.143515	-0.414755	0.680369
C15	C	0.143392	-0.414735	0.546069
C16	C	0.277766	-0.414702	0.545966
C17	C	0.158177	-0.324719	0.560828
C18	C	0.158255	-0.399967	0.636038
C19	C	0.233434	-0.399936	0.560773
C20	C	0.158186	-0.399955	0.560829
C21	C	0.124540	-0.223964	0.527278
C22	C	0.124565	-0.433545	0.527281
C23	C	0.177014	-0.381145	0.579617
C24	C	0.359814	-0.400540	0.502735
C25	C	0.411105	-0.417624	0.485606
C26	C	0.411136	-0.500620	0.517255
C27	C	0.359845	-0.483534	0.534385
C28	C	0.136887	-0.198305	0.476855
C29	C	0.119761	-0.147011	0.459777
C30	C	0.077945	-0.147038	0.543547
C31	C	0.095072	-0.198332	0.560625
C32	C	0.074134	-0.421169	0.539710
C33	C	0.057023	-0.438269	0.522625
C34	C	0.140770	-0.480120	0.480694
C35	C	0.157883	-0.463020	0.497773
C36	C	0.074339	-0.421208	0.762475
C37	C	0.057288	-0.438323	0.813768
C38	C	0.141075	-0.480183	0.813699
C39	C	0.158125	-0.463069	0.762404
C40	C	0.124756	-0.433580	0.736794
C41	C	0.334186	-0.433494	0.527123
C42	C	-0.173769	-0.597444	0.363037
C43	C	-0.039302	-0.597595	0.228856
C44	C	-0.039496	-0.597587	0.363300
C45	C	-0.039512	-0.731889	0.363237
C46	C	-0.129442	-0.612265	0.348329
C47	C	-0.054138	-0.612351	0.273187
C48	C	-0.054257	-0.687554	0.348440
C49	C	-0.054247	-0.612346	0.348477
C50	C	-0.230191	-0.578579	0.381758
C51	C	-0.020722	-0.578803	0.382168
C52	C	-0.073020	-0.631130	0.329609
C53	C	-0.053713	-0.813916	0.406386
C54	C	-0.036654	-0.865210	0.423504
C55	C	0.046338	-0.865293	0.391984
C56	C	0.029278	-0.813999	0.374865
C57	C	-0.255900	-0.590938	0.432169
C58	C	-0.307191	-0.573786	0.449185
C59	C	-0.307060	-0.531922	0.365377
C60	C	-0.255769	-0.549074	0.348360
C61	C	-0.033081	-0.528377	0.369764
C62	C	-0.016014	-0.511306	0.386922
C63	C	0.025770	-0.595083	0.428877
C64	C	0.008703	-0.612156	0.411725
C65	C	-0.032755	-0.528393	0.146761
C66	C	-0.015585	-0.511324	0.095468
C67	C	0.026262	-0.595106	0.095516
C68	C	0.009094	-0.612174	0.146811
C69	C	-0.020417	-0.578816	0.172432
C70	C	-0.020748	-0.788312	0.382068
N71	N	0.436037	-0.467415	0.493101
O72	O	0.592642	-0.471896	0.376066
O73	O	0.592838	-0.567146	0.505347
O74	O	0.592754	-0.566928	0.423360
O75	O	0.592727	-0.472113	0.458053
O76	O	0.511269	-0.539835	0.450606
O77	O	0.511353	-0.540052	0.532594
O78	O	0.511157	-0.444802	0.403312
Cu79	Cu	0.503815	-0.489954	0.470441
Cu80	Cu	0.600180	-0.521995	0.438219
O81	O	0.511242	-0.445020	0.485300
N82	N	0.667959	-0.544533	0.415554
N83	N	0.090544	-0.122107	0.493359
O84	O	-0.026406	0.034587	0.488773
O85	O	0.102877	0.034627	0.393499
O86	O	0.020848	0.034591	0.393771
O87	O	0.055623	0.034623	0.488500
O88	O	0.048051	-0.046899	0.420925
O89	O	0.130080	-0.046864	0.420653
O90	O	0.000796	-0.046903	0.515927
Cu91	Cu	0.067922	-0.054324	0.470769
Cu92	Cu	0.035752	0.042048	0.438656
O93	O	0.082825	-0.046867	0.515655
N94	N	0.013123	0.109830	0.416068
N95	N	0.090892	-0.467554	0.838649
O96	O	0.086330	-0.584488	0.995334
O97	O	-0.008902	-0.455160	0.995379
O98	O	-0.008679	-0.537172	0.995355
O99	O	0.086107	-0.502475	0.995358
O100	O	0.018452	-0.509990	0.913868
O101	O	0.018230	-0.427978	0.913891
O102	O	0.113461	-0.557306	0.913847
Cu103	Cu	0.068323	-0.490160	0.906429
Cu104	Cu	0.036237	-0.522306	1.002797
O105	O	0.113239	-0.475293	0.913870
N106	N	0.013667	-0.544916	1.070577
C107	C	0.031339	-0.425179	0.394250
C108	C	0.132837	-0.526572	0.394139
C109	C	0.072405	-0.587216	0.515344
C110	C	-0.029093	-0.485823	0.515455
C111	C	0.552119	-0.566716	0.535258
C112	C	0.552016	-0.566447	0.433726
C113	C	0.551873	-0.445232	0.373402
C114	C	0.551980	-0.445502	0.474933
C115	C	0.132731	-0.006013	0.393923
C116	C	0.031182	-0.006158	0.394293
C117	C	-0.029092	-0.006163	0.515469
C118	C	0.072491	-0.006119	0.515133
C119	C	-0.008451	-0.425276	0.954641
C120	C	-0.008170	-0.526833	0.954596
C121	C	0.113010	-0.587190	0.954585
C122	C	0.112735	-0.485627	0.954611
H123	H	0.016234	-0.428240	0.834672
H124	H	0.023949	-0.388000	0.364433
H125	H	0.079796	-0.624394	0.545162
H126	H	0.551974	-0.415718	0.482355
N127	N	0.152613	-0.636391	0.954579
H128	H	0.140052	-0.658297	0.954578
H129	H	0.162078	-0.651946	0.984789
H130	H	0.169783	-0.005775	0.363939
N131	N	-0.047603	-0.536642	0.954549
H132	H	-0.055725	-0.565061	0.984740
H133	H	-0.035544	-0.544877	0.924306
N134	N	0.152182	-0.475798	0.954610
H135	H	0.139470	-0.441307	0.954620
H136	H	0.181795	-0.479701	0.924395
H137	H	0.023733	-0.006162	0.364531
N138	N	0.081760	-0.226008	0.615010
H139	H	0.063263	-0.247298	0.623983
H140	H	0.060511	-0.201954	0.633505
N141	N	0.038198	-0.389371	0.571527
H142	H	0.043413	-0.356676	0.554887
H143	H	0.043471	-0.406051	0.604202
N144	N	-0.078268	-0.006182	0.555093
H145	H	-0.104806	0.024017	0.543185
H146	H	-0.078266	-0.006197	0.585315
N147	N	-0.048054	-0.376077	0.954657
H148	H	-0.077660	-0.380623	0.984867
H149	H	-0.057502	-0.360498	0.924432
N150	N	0.082347	-0.006096	0.554554
H151	H	0.116833	-0.006080	0.541825
H152	H	0.078463	-0.036305	0.584182
H153	H	-0.234840	-0.539009	0.307312
N154	N	0.038347	-0.389382	0.734853
H155	H	0.003821	-0.384136	0.758907
H156	H	0.043586	-0.406020	0.713566
H157	H	0.168250	-0.504186	0.834549
N158	N	0.552029	-0.605905	0.423901
H159	H	0.582263	-0.635523	0.427748
H160	H	0.551967	-0.593151	0.389424
H161	H	0.551811	-0.415327	0.336274
H162	H	0.015959	-0.428182	0.532734
N163	N	0.212506	-0.476416	0.734706
H164	H	0.231056	-0.497690	0.758715
H165	H	0.221402	-0.445560	0.713423
H166	H	0.167905	-0.504126	0.456671
H167	H	0.129813	-0.126117	0.418717
N168	N	0.212276	-0.476363	0.484368
H169	H	0.230786	-0.497630	0.463083
H170	H	0.221227	-0.494851	0.515200
H171	H	0.338981	-0.510371	0.554246
N172	N	-0.078300	-0.476135	0.555017
H173	H	-0.073763	-0.480047	0.584622
H174	H	-0.093901	-0.500212	0.564486
H175	H	0.432025	-0.541365	0.523165
H176	H	0.338923	-0.359792	0.496821
N177	N	0.438747	-0.382079	0.459303
H178	H	0.429791	-0.357097	0.429004
H179	H	0.475124	-0.400532	0.449586
N180	N	0.168672	-0.225946	0.440884
H181	H	0.150161	-0.217022	0.419621
H182	H	0.177645	-0.262326	0.459388
N183	N	0.046172	-0.119389	0.579512
H184	H	0.040956	-0.143429	0.614048
H185	H	0.013483	-0.098114	0.574276
N186	N	0.182043	-0.536257	0.354577
H187	H	0.182143	-0.506109	0.324298
H188	H	0.188368	-0.564669	0.346456
H189	H	-0.025639	-0.470264	0.074572
H190	H	0.050281	-0.622271	0.074658
N191	N	-0.064586	-0.492415	0.174396
H192	H	-0.095398	-0.471105	0.165410
H193	H	-0.046055	-0.471189	0.165496
N194	N	0.022405	-0.666562	0.174498
H195	H	0.043702	-0.685102	0.150483
H196	H	-0.008460	-0.675443	0.195733
N197	N	-0.064817	-0.492405	0.337886
H198	H	-0.070058	-0.457870	0.332636
H199	H	-0.097498	-0.497637	0.354490
H200	H	0.049734	-0.622248	0.452940
N201	N	-0.029351	-0.456918	0.373557
H202	H	-0.050580	-0.438379	0.352229
H203	H	0.001508	-0.448033	0.355130
H204	H	0.018765	-0.653217	0.421828
H205	H	0.087072	-0.886205	0.386121
N206	N	0.064833	-0.786384	0.348636
H207	H	0.089843	-0.795335	0.318345
H208	H	0.082007	-0.795336	0.371144
N209	N	-0.072211	-0.892825	0.449729
H210	H	-0.097220	-0.883876	0.480022
H211	H	-0.053776	-0.929209	0.459447
N212	N	-0.107671	-0.786208	0.414154
H213	H	-0.125964	-0.810214	0.432156
H214	H	-0.112659	-0.764928	0.381356
N215	N	-0.228312	-0.622762	0.468189
H216	H	-0.252383	-0.627984	0.502708
H217	H	-0.207028	-0.606132	0.462963
H218	H	-0.328125	-0.583847	0.490235
H219	H	-0.327887	-0.507903	0.338181
H220	H	0.552170	-0.596617	0.572390
