data_functionalizedCrystal
_audit_creation_method	'MofGen! by Chris Wilmer'
_symmetry_space_group_name_H-M	'P1'
_symmetry_Int_Tables_number	1
_symmetry_cell_setting	triclinic
loop_
_symmetry_equiv_pos_as_xyz
  x,y,z
_cell_length_a	13.032831
_cell_length_b	25.639239
_cell_length_c	13.034356
_cell_angle_alpha	97.211960
_cell_angle_beta	105.184960
_cell_angle_gamma	82.842759
loop_
_atom_site_label
_atom_site_type_symbol
_atom_site_fract_x
_atom_site_fract_y
_atom_site_fract_z
Zn1	Zn	1.699990	-0.265051	0.806386
Zn2	Zn	1.677230	-0.362337	0.628736
Zn3	Zn	1.499795	-0.265055	0.606269
Zn4	Zn	1.522275	-0.342585	0.783793
O5	O	1.599822	-0.308757	0.706296
O6	O	1.845602	-0.286220	0.801678
O7	O	1.634760	-0.357701	0.477114
O8	O	1.526468	-0.191893	0.632867
O9	O	1.828881	-0.357697	0.671159
O10	O	1.673550	-0.191890	0.779893
O11	O	1.504399	-0.286228	0.460607
O12	O	1.354145	-0.267075	0.610960
O13	O	1.564783	-0.324031	0.935432
O14	O	1.370662	-0.324035	0.741386
O15	O	1.695349	-0.267067	0.952031
O16	O	1.656559	-0.432878	0.649251
O17	O	1.542714	-0.418366	0.763171
C18	C	1.323865	-0.293413	0.671284
C19	C	1.205812	-0.286859	0.656331
C20	C	1.161368	-0.312177	0.714100
C21	C	1.039354	-0.305405	0.698646
C22	C	1.599638	-0.444592	0.706224
C23	C	1.599660	-0.502707	0.706242
C24	C	1.659293	-0.870624	0.647116
C25	C	1.659336	-0.925230	0.647135
O26	O	1.709847	-0.959882	0.596788
N27	N	1.600018	-0.945002	0.706390
C28	C	1.540662	-0.910166	0.765637
O29	O	1.490212	-0.931998	0.816040
C30	C	1.540625	-0.855561	0.765623
C31	C	1.599939	-0.835792	0.706356
C32	C	1.718603	-0.850854	0.587855
C33	C	1.718558	-0.796252	0.587834
C34	C	1.659204	-0.761420	0.647074
C35	C	1.599894	-0.781190	0.706336
C36	C	1.481276	-0.820726	0.824876
C37	C	1.481245	-0.766118	0.824857
C38	C	1.540559	-0.746349	0.765591
C39	C	1.540495	-0.691756	0.765555
N40	N	1.599813	-0.671983	0.706301
C41	C	1.659168	-0.706815	0.647060
C42	C	1.540744	-1.024840	0.765664
C43	C	1.540773	-1.079444	0.765673
C44	C	1.659450	-1.094504	0.647172
C45	C	1.659414	-1.039899	0.647158
C46	C	1.600062	-1.005067	0.706409
C47	C	1.659068	-0.592146	0.647020
C48	C	1.659015	-0.537539	0.647001
C49	C	1.540343	-0.522483	0.765506
C50	C	1.540392	-0.577086	0.765521
C51	C	1.599763	-0.611917	0.706276
O52	O	1.490014	-0.657072	0.815881
O53	O	1.709620	-0.684975	0.596677
C54	C	1.876858	-0.324161	0.741445
C55	C	1.994914	-0.330726	0.756424
C56	C	1.635112	-0.293345	0.983350
C57	C	1.650151	-0.286778	1.101414
C58	C	1.600040	-0.172391	0.706394
C59	C	1.600133	-0.114280	0.706436
C60	C	1.564731	-0.324074	0.430327
C61	C	1.549899	-0.330506	0.312290
C62	C	1.607794	-0.305250	1.267863
C63	C	1.592248	-0.312037	1.145837
H64	H	1.047189	-0.357414	0.817333
H65	H	1.153533	-0.260168	0.595436
H66	H	1.492463	-1.095535	0.813922
O67	O	1.680804	-0.273524	1.330221
C68	C	1.865824	-0.256285	1.387253
C69	C	1.783254	-0.292265	1.316606
H70	H	1.948670	-0.271417	1.376252
H71	H	1.865475	-0.256481	1.474576
H72	H	1.844432	-0.214292	1.363174
H73	H	1.804588	-0.334275	1.340590
H74	H	1.783618	-0.292024	1.229299
H75	H	1.488828	-0.357156	1.259987
O76	O	1.723099	-0.254982	1.163645
C77	C	1.856455	-0.196754	1.169311
C78	C	1.773900	-0.232755	1.098713
H79	H	1.897535	-0.178766	1.116841
H80	H	1.918594	-0.220957	1.228254
H81	H	1.814292	-0.163857	1.215109
H82	H	1.815969	-0.265658	1.052847
H83	H	1.711766	-0.208516	1.039837
H84	H	1.213648	-0.338864	0.775002
H85	H	1.707314	-0.521445	0.598735
O86	O	1.716897	-0.625919	0.589538
C87	C	1.891089	-0.655440	0.561092
C88	C	1.825727	-0.617158	0.626261
H89	H	1.979093	-0.648378	0.590772
H90	H	1.861666	-0.648450	0.473063
H91	H	1.880895	-0.697864	0.571243
H92	H	1.835891	-0.574720	0.616199
H93	H	1.855165	-0.624194	0.714264
O94	O	1.776285	-0.777140	0.530253
C95	C	1.893965	-0.797861	0.412687
C96	C	1.828647	-0.819570	0.477867
H97	H	1.936299	-0.832155	0.370298
H98	H	1.955729	-0.772652	0.468495
H99	H	1.838152	-0.772697	0.350952
H100	H	1.884376	-0.844757	0.539605
H101	H	1.766871	-0.844749	0.421993
H102	H	0.987079	-0.278711	0.637748
H103	H	1.432970	-0.836812	0.873132
O104	O	1.776461	-0.884691	0.530509
C105	C	1.918198	-0.954990	0.534633
C106	C	1.852733	-0.916706	0.599695
H107	H	1.979864	-0.980892	0.590539
H108	H	1.960659	-0.931475	0.492356
H109	H	1.862475	-0.980971	0.472814
H110	H	1.908383	-0.890716	0.661567
H111	H	1.810260	-0.940253	0.641896
H112	H	1.707712	-1.023806	0.598898
O113	O	1.717174	-1.128418	0.589806
C114	C	1.769960	-1.219220	0.537471
C115	C	1.704514	-1.180870	0.602447
H116	H	1.759730	-1.261635	0.547651
H117	H	1.857968	-1.212162	0.567156
H118	H	1.740572	-1.212248	0.449433
H119	H	1.733810	-1.187818	0.690498
H120	H	1.616517	-1.187936	0.572674
H121	H	1.492403	-0.996482	0.813909
O122	O	1.423496	-0.732357	0.882441
C123	C	1.305864	-0.723187	1.000052
C124	C	1.371195	-0.761479	0.934867
H125	H	1.263579	-0.746717	1.042474
H126	H	1.244058	-0.697297	0.944242
H127	H	1.361660	-0.697194	1.061760
H128	H	1.315483	-0.787506	0.873156
H129	H	1.433012	-0.787333	0.990744
O130	O	1.482905	-0.596269	0.823251
C131	C	1.454191	-0.600017	0.997336
C132	C	1.519381	-0.578271	0.932077
H133	H	1.483642	-0.585465	1.085330
H134	H	1.464440	-0.645029	0.987275
H135	H	1.366166	-0.585626	0.967693
H136	H	1.607429	-0.592623	0.961677
H137	H	1.509041	-0.533260	0.942140
O138	O	1.482786	-0.488569	0.823030
C139	C	1.430103	-0.397768	0.875468
C140	C	1.495344	-0.436118	0.810287
H141	H	1.440216	-0.355353	0.865170
H142	H	1.459617	-0.404704	0.963519
H143	H	1.342107	-0.404860	0.845909
H144	H	1.583353	-0.429048	0.839754
H145	H	1.465742	-0.429173	0.722247
H146	H	1.531173	-0.338689	1.093538
