data_functionalizedCrystal
_audit_creation_method	'MofGen! by Chris Wilmer'
_symmetry_space_group_name_H-M	'P1'
_symmetry_Int_Tables_number	1
_symmetry_cell_setting	triclinic
loop_
_symmetry_equiv_pos_as_xyz
  x,y,z
_cell_length_a	16.959454
_cell_length_b	19.805407
_cell_length_c	19.805399
_cell_angle_alpha	89.980427
_cell_angle_beta	89.977613
_cell_angle_gamma	90.020075
loop_
_atom_site_label
_atom_site_type_symbol
_atom_site_fract_x
_atom_site_fract_y
_atom_site_fract_z
Zn1	Zn	-0.314700	1.034765	-0.382744
Zn2	Zn	0.185300	1.534765	0.117256
Zn3	Zn	-0.446882	1.034693	-0.269566
Zn4	Zn	0.053118	1.534693	0.230434
Zn5	Zn	-0.314722	0.921580	-0.269569
Zn6	Zn	0.185278	1.421580	0.230431
Zn7	Zn	-0.446840	0.921556	-0.382713
Zn8	Zn	0.053160	1.421556	0.117287
O9	O	-0.380786	0.978149	-0.326148
O10	O	0.119214	1.478149	0.173852
O11	O	-0.332243	1.129472	-0.367743
O12	O	0.167757	1.629472	0.132257
O13	O	-0.429378	1.019668	-0.174850
O14	O	0.070622	1.519668	0.325150
O15	O	-0.204108	0.936635	-0.284596
O16	O	0.295892	1.436635	0.215404
O17	O	-0.429356	1.129419	-0.284591
O18	O	0.070644	1.629419	0.215409
O19	O	-0.204092	1.019792	-0.367745
O20	O	0.295908	1.519792	0.132255
O21	O	-0.332280	0.936564	-0.174852
O22	O	0.167720	1.436564	0.325148
O23	O	-0.332239	0.826860	-0.284565
O24	O	0.167761	1.326860	0.215435
O25	O	-0.429285	0.936594	-0.477434
O26	O	0.070715	1.436594	0.022566
O27	O	-0.429306	0.826843	-0.367692
O28	O	0.070694	1.326843	0.132308
O29	O	-0.332202	1.019768	-0.477457
O30	O	0.167798	1.519768	0.022543
O31	O	-0.557488	1.019645	-0.284561
O32	O	-0.057488	1.519645	0.215439
O33	O	-0.557457	0.936524	-0.367690
O34	O	-0.057457	1.436524	0.132310
C35	C	-0.380771	0.802293	-0.326126
C36	C	0.119229	1.302293	0.173874
C37	C	-0.380783	0.727061	-0.326133
C38	C	0.119217	1.227061	0.173867
C39	C	-0.431402	0.691725	-0.369347
C40	C	0.068598	1.191725	0.130653
C41	C	-0.431404	0.621037	-0.369356
C42	C	0.068596	1.121037	0.130644
C43	C	-0.380790	0.585685	-0.326148
C44	C	0.119210	1.085685	0.173852
C45	C	-0.330165	0.621026	-0.282932
C46	C	0.169835	1.121026	0.217068
C47	C	-0.330160	0.691713	-0.282926
C48	C	0.169840	1.191713	0.217074
C49	C	-0.330183	0.335952	-0.282954
C50	C	0.169817	0.835952	0.217046
C51	C	-0.330193	0.265260	-0.282962
C52	C	0.169807	0.765260	0.217038
C53	C	-0.431426	0.265276	-0.369384
C54	C	0.068574	0.765276	0.130616
C55	C	-0.431421	0.335963	-0.369379
C56	C	0.068579	0.835963	0.130621
C57	C	-0.380794	0.371298	-0.326166
C58	C	0.119206	0.871298	0.173834
C59	C	-0.380792	0.447946	-0.326157
C60	C	0.119208	0.947946	0.173843
C61	C	-0.380795	0.509038	-0.326153
C62	C	0.119205	1.009038	0.173847
C63	C	-0.586152	0.978092	-0.326136
C64	C	-0.086152	1.478092	0.173864
C65	C	-0.674009	0.978130	-0.326154
C66	C	-0.174009	1.478130	0.173846
C67	C	-1.045498	0.934930	-0.369428
C68	C	-0.545498	1.434930	0.130572
C69	C	-1.045470	1.021555	-0.282937
C70	C	-0.545470	1.521555	0.217063
C71	C	-0.962925	1.021532	-0.282930
C72	C	-0.462925	1.521532	0.217070
C73	C	-0.921662	0.978206	-0.326173
C74	C	-0.421662	1.478206	0.173827
C75	C	-0.962945	0.934904	-0.369422
C76	C	-0.462945	1.434904	0.130578
C77	C	-0.921635	1.064828	-0.239677
C78	C	-0.421635	1.564828	0.260323
C79	C	-0.839085	1.064806	-0.239669
C80	C	-0.339085	1.564806	0.260331
C81	C	-0.797820	1.021483	-0.282915
C82	C	-0.297820	1.521483	0.217085
C83	C	-0.839108	0.978180	-0.326167
C84	C	-0.339108	1.478180	0.173833
C85	C	-0.797845	0.934854	-0.369409
C86	C	-0.297845	1.434854	0.130591
C87	C	-0.839132	0.891553	-0.412665
C88	C	-0.339132	1.391553	0.087335
C89	C	-0.921680	0.891581	-0.412669
C90	C	-0.421680	1.391581	0.087331
C91	C	-0.715272	1.021455	-0.282911
C92	C	-0.215272	1.521455	0.217089
C93	C	-0.715292	0.934827	-0.369403
C94	C	-0.215292	1.434827	0.130597
C95	C	-0.174618	0.978224	-0.326174
C96	C	0.325382	1.478224	0.173826
C97	C	-0.086761	0.978256	-0.326186
C98	C	0.413239	1.478256	0.173814
C99	C	-0.380736	0.978187	-0.502691
C100	C	0.119264	1.478187	-0.002691
C101	C	-0.380715	0.978203	-0.577923
C102	C	0.119285	1.478203	-0.077923
C103	C	-0.380802	1.154691	-0.326170
C104	C	0.119198	1.654691	0.173830
C105	C	-0.380808	1.229923	-0.326180
C106	C	0.119192	1.729923	0.173820
C107	C	-0.330161	1.021513	-0.613280
C108	C	0.169839	1.521513	-0.113280
C109	C	-0.330138	1.021520	-0.683968
C110	C	0.169862	1.521520	-0.183968
C111	C	-0.380674	0.978220	-0.719298
C112	C	0.119326	1.478220	-0.219298
C113	C	-0.431230	0.934905	-0.683936
C114	C	0.068770	1.434905	-0.183936
C115	C	-0.431248	0.934895	-0.613249
C116	C	0.068752	1.434895	-0.113249
C117	C	-0.431156	0.934943	-0.969010
C118	C	0.068844	1.434943	-0.469010
C119	C	-0.431135	0.934958	-1.039702
C120	C	0.068865	1.434958	-0.539702
C121	C	-0.330046	1.021568	-1.039729
C122	C	0.169954	1.521568	-0.539729
C123	C	-0.330065	1.021558	-0.969042
C124	C	0.169935	1.521558	-0.469042
C125	C	-0.380617	0.978241	-0.933686
C126	C	0.119383	1.478241	-0.433686
C127	C	-0.380641	0.978233	-0.857037
C128	C	0.119359	1.478233	-0.357037
C129	C	-0.380655	0.978230	-0.795946
C130	C	0.119345	1.478230	-0.295946
C131	C	-0.380779	0.978150	-0.150292
C132	C	0.119221	1.478150	0.349708
C133	C	-0.380577	0.978265	-0.075060
C134	C	0.119423	1.478265	0.424940
H135	H	-0.472639	0.364743	-0.404561
H136	H	0.027361	0.864743	0.095439
C137	C	-0.487083	0.730605	-0.416880
C138	C	0.012917	1.230605	0.083120
N139	N	-0.529021	0.759888	-0.452685
N140	N	-0.029021	1.259888	0.047315
C141	C	-0.967102	0.843947	-0.460237
C142	C	-0.467102	1.343947	0.039763
N143	N	-1.001316	0.808066	-0.496062
N144	N	-0.501316	1.308066	0.003938
H145	H	-0.681701	0.899549	-0.404619
H146	H	-0.181701	1.399549	0.095381
H147	H	-0.288951	0.592237	-0.247754
H148	H	0.211049	1.092237	0.252246
C149	C	-0.486763	0.887291	-0.930127
C150	C	0.013237	1.387291	-0.430127
N151	N	-0.528647	0.851396	-0.900839
N152	N	-0.028647	1.351396	-0.400839
H153	H	-0.472623	0.592269	-0.404545
H154	H	0.027377	1.092269	0.095455
H155	H	-0.288974	1.056788	-0.712753
H156	H	0.211026	1.556788	-0.212753
H157	H	-0.288916	1.056819	-0.940280
H158	H	0.211084	1.556819	-0.440280
H159	H	-0.472646	0.236498	-0.404573
H160	H	0.027354	0.736498	0.095427
C161	C	-0.274477	0.730582	-0.235386
C162	C	0.225523	1.230582	0.264614
N163	N	-0.232534	0.759857	-0.199579
N164	N	0.267466	1.259857	0.300421
C165	C	-0.274427	1.069209	-1.078627
C166	C	0.225573	1.569209	-0.578627
N167	N	-0.232536	1.105092	-1.107924
N168	N	0.267464	1.605092	-0.607924
H169	H	-0.472289	0.899695	-1.068466
H170	H	0.027711	1.399695	-0.568466
H171	H	-0.955238	1.100097	-0.204466
H172	H	-0.455238	1.600097	0.295534
H173	H	-0.472406	0.899621	-0.584462
H174	H	0.027594	1.399621	-0.084462
H175	H	-0.472373	0.899647	-0.712708
H176	H	0.027627	1.399647	-0.212708
H177	H	-0.288972	0.236479	-0.247776
H178	H	0.211028	0.736479	0.252224
H179	H	-0.805526	0.856274	-0.447870
H180	H	-0.305526	1.356274	0.052130
H181	H	-0.288965	0.364713	-0.247763
H182	H	0.211035	0.864713	0.252237
H183	H	-1.079117	0.899678	-0.404647
H184	H	-0.579117	1.399678	0.095353
C185	C	-0.793677	1.112433	-0.192084
C186	C	-0.293677	1.612433	0.307916
N187	N	-0.759475	1.148305	-0.156241
N188	N	-0.259475	1.648305	0.343759
H189	H	-0.681660	1.056707	-0.247691
H190	H	-0.181660	1.556707	0.252309
C191	C	-1.090862	1.069204	-0.235366
C192	C	-0.590862	1.569204	0.264634
N193	N	-1.125055	1.105095	-0.199533
N194	N	-0.625055	1.605095	0.300467
H195	H	-0.289012	1.056775	-0.584519
H196	H	0.210988	1.556775	-0.084519
