data_functionalizedCrystal
_audit_creation_method	'MofGen! by Chris Wilmer'
_symmetry_space_group_name_H-M	'P1'
_symmetry_Int_Tables_number	1
_symmetry_cell_setting	triclinic
loop_
_symmetry_equiv_pos_as_xyz
  x,y,z
_cell_length_a	17.640112
_cell_length_b	18.101395
_cell_length_c	18.101376
_cell_angle_alpha	89.903391
_cell_angle_beta	101.150850
_cell_angle_gamma	101.255692
loop_
_atom_site_label
_atom_site_type_symbol
_atom_site_fract_x
_atom_site_fract_y
_atom_site_fract_z
Zn1	Zn	1.208463	-0.065458	-0.190201
Zn2	Zn	1.208258	-0.189495	-0.066401
Zn3	Zn	1.076212	-0.090679	-0.091385
Zn4	Zn	1.076253	-0.214301	-0.215166
O5	O	1.142296	-0.139983	-0.140788
O6	O	1.319028	-0.060975	-0.152875
O7	O	1.190639	-0.176561	0.033898
O8	O	1.093824	0.016312	-0.104500
O9	O	1.318878	-0.152104	-0.061920
O10	O	1.190988	0.034842	-0.177100
O11	O	1.093626	-0.103961	0.015543
O12	O	0.965625	-0.128015	-0.128708
O13	O	1.093893	-0.194383	-0.315469
O14	O	0.965655	-0.218839	-0.219650
O15	O	1.191027	-0.085029	-0.297127
O16	O	1.190679	-0.296431	-0.086128
O17	O	1.093695	-0.314656	-0.195425
C18	C	0.936965	-0.178856	-0.179599
C19	C	0.849123	-0.195504	-0.196221
C20	C	0.560035	-0.013499	-0.014526
C21	C	0.477495	-0.029157	-0.030154
C22	C	0.477580	-0.123863	-0.124689
C23	C	0.560122	-0.108210	-0.109071
C24	C	0.601343	-0.053028	-0.053988
C25	C	0.601430	-0.147739	-0.148533
C26	C	0.683966	-0.132091	-0.132914
C27	C	0.725193	-0.076913	-0.077832
C28	C	0.683879	-0.037379	-0.038369
C29	C	0.560208	-0.202925	-0.203612
C30	C	0.601516	-0.242454	-0.243075
C31	C	0.684053	-0.226802	-0.227459
C32	C	0.725280	-0.171624	-0.172377
C33	C	0.725367	-0.266335	-0.266923
C34	C	0.807902	-0.250686	-0.251303
C35	C	0.807815	-0.155975	-0.156758
C36	C	1.142191	-0.332414	-0.140787
C37	C	1.142218	-0.414723	-0.140797
C38	C	1.142391	-0.713781	-0.140804
C39	C	1.081513	-0.693926	-0.209686
C40	C	1.081224	-0.608363	-0.209561
C41	C	1.142305	-0.565415	-0.140801
C42	C	1.119698	-0.600942	-0.067027
C43	C	1.119306	-0.686661	-0.067444
C44	C	1.226009	-0.666264	-0.144984
C45	C	1.225519	-0.580704	-0.146789
C46	C	1.142258	-0.481564	-0.140795
C47	C	1.142437	-0.797632	-0.140806
C48	C	1.348430	-0.100959	-0.101826
C49	C	1.436272	-0.084330	-0.085223
C50	C	1.142488	-0.139659	-0.333915
C51	C	1.142569	-0.139521	-0.416214
C52	C	1.142424	0.053203	-0.140802
C53	C	1.142479	0.135527	-0.140808
C54	C	1.142151	-0.140244	0.051595
C55	C	1.142223	-0.140144	0.133923
C56	C	1.142453	-0.139730	0.433056
C57	C	1.204114	-0.184714	0.413440
C58	C	1.203870	-0.185092	0.327777
C59	C	1.142339	-0.139936	0.284653
C60	C	1.059241	-0.177387	0.300219
C61	C	1.059664	-0.177613	0.385944
C62	C	1.163136	-0.057340	0.405145
C63	C	1.164912	-0.057511	0.319829
C64	C	1.142270	-0.140051	0.200780
C65	C	1.142516	-0.139617	0.516928
H66	H	0.717443	0.007567	0.006474
C67	C	1.287694	-0.150582	0.456884
N68	N	1.350648	-0.124874	0.489611
H69	H	1.242565	-0.557043	-0.201005
H70	H	0.593600	0.031447	0.030317
C71	C	0.556163	-0.303152	-0.303665
N72	N	0.522005	-0.348868	-0.349305
C73	C	0.853343	-0.294167	-0.294717
N74	N	0.887570	-0.326918	-0.327417
H75	H	0.691792	-0.311269	-0.311766
H76	H	1.042058	-0.238329	0.402782
H77	H	0.443864	0.003042	0.001980
C78	C	1.102459	-0.011793	0.420995
N79	N	1.056756	0.022509	0.432940
H80	H	0.444006	-0.168795	-0.169535
C81	C	1.290044	-0.539623	-0.082249
N82	N	1.338642	-0.508683	-0.033632
H83	H	1.041288	-0.237596	0.275563
C84	C	1.243599	-0.015472	0.449331
N85	N	1.304207	0.016055	0.482612
H86	H	1.012046	-0.146410	0.270901
H87	H	1.190639	-0.245066	0.432599
H88	H	0.841380	-0.111029	-0.111915
H89	H	0.493002	-0.215665	-0.216327
H90	H	1.226066	-0.029562	0.310933
H91	H	1.095374	-0.584549	-0.264758
C92	C	1.287285	-0.682089	-0.076951
N93	N	1.333433	-0.694014	-0.025709
C94	C	1.100435	-0.718013	-0.284546
N95	N	1.114686	-0.736161	-0.340932
C96	C	1.108561	-0.008109	0.280192
N97	N	1.066112	0.029098	0.250336
C98	C	1.253836	-0.690008	-0.215303
N99	N	1.274785	-0.707894	-0.268271
C100	C	0.998289	-0.738861	-0.207754
N101	N	0.935605	-0.772704	-0.206293
C102	C	0.997480	-0.596651	-0.207561
N103	N	0.934396	-0.587831	-0.206074
C104	C	1.185386	-0.267196	0.296851
N105	N	1.171459	-0.329040	0.273558
H106	H	0.792398	-0.064174	-0.065115
C107	C	1.036726	-0.729407	-0.060186
N108	N	0.974524	-0.761600	-0.054722
H109	H	1.161720	-0.699399	-0.015221
C110	C	1.177707	-0.562504	0.003267
N111	N	1.221399	-0.533549	0.056212
C112	C	0.995517	-0.136483	0.401774
N113	N	0.947196	-0.105511	0.413694
H114	H	1.059219	-0.591032	-0.061224
H115	H	1.265508	-0.159766	0.318278
