data_functionalizedCrystal
_audit_creation_method	'MofGen! by Chris Wilmer'
_symmetry_space_group_name_H-M	'P1'
_symmetry_Int_Tables_number	1
_symmetry_cell_setting	triclinic
loop_
_symmetry_equiv_pos_as_xyz
  x,y,z
_cell_length_a	15.624803
_cell_length_b	10.540510
_cell_length_c	14.185569
_cell_angle_alpha	76.714084
_cell_angle_beta	85.691254
_cell_angle_gamma	84.363732
loop_
_atom_site_label
_atom_site_type_symbol
_atom_site_fract_x
_atom_site_fract_y
_atom_site_fract_z
O1	O	1.081490	0.329964	-0.476913
O2	O	0.840428	0.319507	-0.389204
O3	O	0.966472	0.140651	-0.435064
O4	O	0.955446	0.508820	-0.431053
O5	O	1.003706	0.087822	-0.281776
O6	O	0.877663	0.266677	-0.235917
O7	O	1.118724	0.277135	-0.323626
Cu8	Cu	1.001593	0.267083	-0.265775
Cu9	Cu	0.957559	0.329559	-0.447055
O10	O	0.992681	0.455991	-0.277766
C11	C	0.828178	0.288330	-0.301329
C12	C	0.736203	0.274127	-0.267865
C13	C	0.332296	0.371362	-0.575680
C14	C	0.245873	0.357991	-0.544234
C15	C	0.286444	0.300395	-0.377119
C16	C	0.372872	0.313756	-0.408551
C17	C	0.395790	0.349241	-0.507833
C18	C	0.436366	0.291635	-0.340704
C19	C	0.522786	0.305001	-0.372134
C20	C	0.545712	0.340489	-0.471411
C21	C	0.482210	0.362607	-0.539263
C22	C	0.413446	0.256158	-0.241422
C23	C	0.476940	0.234037	-0.173575
C24	C	0.563363	0.247394	-0.205005
C25	C	0.586288	0.282882	-0.304282
C26	C	0.626864	0.225276	-0.137153
C27	C	0.713284	0.238642	-0.168583
C28	C	0.672708	0.296248	-0.335712
C29	C	0.984267	0.066840	-0.358123
C30	C	0.981807	-0.074386	-0.357234
C31	C	1.069454	-0.282041	-0.388742
C32	C	1.071991	-0.135028	-0.390046
C33	C	0.914380	-0.094208	-0.427970
C34	C	0.912380	-0.241170	-0.427317
C35	C	0.952844	-0.301268	-0.252317
C36	C	0.957402	-0.154840	-0.252721
C37	C	1.130974	0.308312	-0.411502
C38	C	1.222948	0.322517	-0.444973
C39	C	0.974885	0.529802	-0.354708
C40	C	0.977343	0.671031	-0.355603
N41	N	1.032570	0.223140	-0.138275
N42	N	0.926589	0.373493	-0.574557
C43	C	0.835577	0.502541	0.301050
C44	C	0.859048	0.469265	0.397532
C45	C	0.970682	0.310955	0.356875
C46	C	0.947219	0.344214	0.260389
C47	C	0.879666	0.440009	0.232484
C48	C	0.991307	0.281682	0.191823
C49	C	0.967848	0.314944	0.095344
C50	C	0.900300	0.410737	0.067431
C51	C	0.856207	0.473271	0.136005
C52	C	1.058863	0.185894	0.219729
C53	C	1.102952	0.123362	0.151163
C54	C	1.079489	0.156616	0.054683
C55	C	1.011941	0.252410	0.026770
C56	C	1.123582	0.094083	-0.013891
C57	C	1.100123	0.127345	-0.110370
C58	C	0.988482	0.285672	-0.069709
H59	H	0.500871	0.391499	-0.620108
Cl60	Cl	1.187875	0.002940	0.186250
Cl61	Cl	0.361115	0.415957	-0.700494
Cl62	Cl	0.701528	0.340843	-0.460526
Cl63	Cl	0.939448	-0.006307	-0.546556
H64	H	1.025687	0.232961	0.379606
H65	H	0.892844	-0.115055	-0.223480
Cl66	Cl	1.155553	0.048734	-0.196570
Cl67	Cl	0.304801	0.239363	-0.201910
H68	H	0.616081	0.351379	-0.496999
H69	H	1.089225	-0.300077	-0.463871
H70	H	0.881203	0.437822	-0.011130
H71	H	1.077964	0.158821	0.298289
Cl72	Cl	1.208511	-0.026327	0.021197
Cl73	Cl	1.033543	-0.139236	-0.171607
H74	H	0.885277	-0.331294	-0.227091
Cl75	Cl	0.793110	0.210835	-0.083289
Cl76	Cl	0.166051	0.385810	-0.629539
Cl77	Cl	0.936559	-0.262932	-0.546059
H78	H	1.119837	-0.341650	-0.338751
Cl79	Cl	0.598039	0.180687	-0.012346
Cl80	Cl	0.257622	0.255792	-0.252312
Cl81	Cl	1.104507	-0.051360	-0.507500
H82	H	0.458267	0.205149	-0.092739
H83	H	1.123354	-0.123216	-0.340443
H84	H	0.843964	-0.270441	-0.406740
H85	H	0.847197	-0.053220	-0.407068
H86	H	0.997620	-0.363070	-0.196395
Cl87	Cl	0.903547	0.406089	-0.104789
H88	H	0.801193	0.551267	0.113288
Cl89	Cl	0.750643	0.622959	0.265970
H90	H	0.823140	0.520196	0.453356
