data_functionalizedCrystal
_audit_creation_method	'MofGen! by Chris Wilmer'
_symmetry_space_group_name_H-M	'P1'
_symmetry_Int_Tables_number	1
_symmetry_cell_setting	triclinic
loop_
_symmetry_equiv_pos_as_xyz
  x,y,z
_cell_length_a	10.654550
_cell_length_b	10.723022
_cell_length_c	9.730223
_cell_angle_alpha	89.999810
_cell_angle_beta	89.996251
_cell_angle_gamma	84.476064
loop_
_atom_site_label
_atom_site_type_symbol
_atom_site_fract_x
_atom_site_fract_y
_atom_site_fract_z
O1	O	1.667807	0.175269	-0.114399
O2	O	1.302326	0.191968	-0.114377
O3	O	1.493497	0.002044	-0.114383
O4	O	1.476635	0.365194	-0.114393
O5	O	1.493495	0.002049	0.114197
O6	O	1.302323	0.191973	0.114203
O7	O	1.667804	0.175274	0.114181
Zn8	Zn	1.485064	0.183625	0.150484
Zn9	Zn	1.485066	0.183618	-0.150680
O10	O	1.476632	0.365199	0.114187
C11	C	1.255527	0.190745	-0.000084
C12	C	1.116084	0.187076	-0.000075
C13	C	1.492270	-0.044454	-0.000095
C14	C	1.488599	-0.183008	-0.000100
C15	C	1.036581	0.298901	-0.000098
C16	C	0.905561	0.295447	-0.000122
C17	C	0.933559	0.068333	-0.000106
C18	C	1.064577	0.071789	-0.000072
C19	C	1.020415	0.430023	-0.000114
C20	C	0.889395	0.426569	-0.000137
C21	C	1.378357	-0.231586	-0.000095
C22	C	1.374561	-0.374789	-0.000100
C23	C	1.714603	0.176498	-0.000115
C24	C	1.854046	0.180166	-0.000133
C25	C	1.477860	0.411696	-0.000104
C26	C	1.481531	0.550251	-0.000108
N27	N	1.485071	0.183628	0.356020
N28	N	1.485069	0.183605	-0.356216
C29	C	1.569744	0.099558	0.427943
C30	C	1.569740	0.099543	0.571826
C31	C	1.400387	0.267679	0.571850
C32	C	1.400385	0.267687	0.427970
C33	C	1.667522	0.002490	0.427931
C34	C	1.667519	0.002475	0.571814
H35	H	1.129305	-0.019270	-0.000034
H36	H	0.843716	0.466198	0.098546
H37	H	1.580171	-0.247437	-0.000101
N38	N	0.877993	-0.056001	-0.000097
H39	H	0.824276	-0.062504	-0.084840
H40	H	0.948307	-0.126248	-0.000023
N41	N	1.257062	-0.146240	-0.000055
H42	H	1.253464	-0.091596	-0.084780
H43	H	1.183030	-0.198406	0.000007
N44	N	1.639140	-0.124558	0.376195
H45	H	1.559982	-0.115242	0.318517
H46	H	1.712025	-0.162223	0.318579
H47	H	1.637020	-0.088167	0.616433
H48	H	1.331427	0.336132	0.369412
N49	N	1.788292	0.042747	0.368792
H50	H	1.846648	0.062190	0.446045
H51	H	1.830402	-0.027029	0.310332
H52	H	1.764027	0.023856	0.610858
N53	N	1.249524	-0.430177	-0.000106
H54	H	1.264536	-0.524625	-0.000111
H55	H	1.200188	-0.401421	0.084635
H56	H	1.331438	0.336116	0.630447
H57	H	0.847655	0.475972	-0.095806
N58	N	1.606570	-0.394365	-0.000100
H59	H	1.677433	-0.464071	-0.000104
H60	H	1.612915	-0.340938	-0.084835
N61	N	1.059270	0.497963	0.126589
H62	H	0.982109	0.525782	0.183114
H63	H	1.119133	0.439884	0.183047
H64	H	1.056065	0.471772	-0.098802
