data_functionalizedCrystal
_audit_creation_method	'MofGen! by Chris Wilmer'
_symmetry_space_group_name_H-M	'P1'
_symmetry_Int_Tables_number	1
_symmetry_cell_setting	triclinic
loop_
_symmetry_equiv_pos_as_xyz
  x,y,z
_cell_length_a	14.044220
_cell_length_b	10.654550
_cell_length_c	9.730223
_cell_angle_alpha	90.000193
_cell_angle_beta	89.995496
_cell_angle_gamma	88.836890
loop_
_atom_site_label
_atom_site_type_symbol
_atom_site_fract_x
_atom_site_fract_y
_atom_site_fract_z
O1	O	-1.259693	-0.302980	-0.114137
O2	O	-0.983652	-0.292047	-0.114172
O3	O	-1.128019	-0.115412	-0.114149
O4	O	-1.115326	-0.479615	-0.114161
O5	O	-1.128018	-0.115417	0.114431
O6	O	-0.983650	-0.292052	0.114408
O7	O	-1.259691	-0.302985	0.114443
Zn8	Zn	-1.121671	-0.297519	0.150717
Zn9	Zn	-1.121673	-0.297513	-0.150447
O10	O	-1.115324	-0.479620	0.114419
C11	C	-1.127086	-0.068523	0.000139
C12	C	-1.124298	0.071201	0.000134
C13	C	-0.948305	-0.287263	0.000113
C14	C	-0.842986	-0.272988	0.000100
C15	C	-1.295038	-0.307769	0.000154
C16	C	-1.400358	-0.322044	0.000159
C17	C	-0.650153	-0.246889	0.000128
C18	C	-0.593185	-0.348137	0.000130
C19	C	-0.485886	-0.333615	0.000146
C20	C	-0.757461	-0.261409	0.000112
C21	C	-1.116257	-0.526509	0.000128
C22	C	-1.119045	-0.666233	0.000124
N23	N	-1.121676	-0.297523	0.356254
C24	C	-1.209299	0.142144	0.000149
C25	C	-1.206673	0.273429	0.000139
C26	C	-1.034038	0.262814	0.000105
C27	C	-1.036664	0.131532	0.000105
C28	C	-1.308969	0.148274	0.000175
C29	C	-1.306343	0.279559	0.000165
N30	N	-1.121675	-0.297500	-0.355983
C31	C	-1.185618	-0.219340	0.428190
C32	C	-1.185616	-0.219324	0.572073
C33	C	-1.057725	-0.375686	0.572070
C34	C	-1.057724	-0.375694	0.428190
C35	C	-1.259458	-0.129069	0.428193
C36	C	-1.259455	-0.129054	0.572076
H37	H	-0.624998	-0.445725	0.000121
H38	H	-0.962689	0.311952	0.000080
N39	N	-1.356043	0.329910	0.126895
H40	H	-1.411494	0.386018	0.098728
H41	H	-1.380063	0.257623	0.183422
N42	N	-0.608024	-0.117629	0.000148
H43	H	-0.536233	-0.125449	0.000158
H44	H	-0.629860	-0.070483	-0.084591
N45	N	-1.360608	0.104184	-0.126513
H46	H	-1.381753	0.179200	-0.183056
H47	H	-1.316458	0.048752	-0.182960
N48	N	-1.350684	-0.178744	0.369084
H49	H	-1.382560	-0.111763	0.310647
H50	H	-1.335778	-0.255028	0.310718
H51	H	-1.332349	-0.157897	0.611135
N52	N	-0.944986	0.055011	0.000064
H53	H	-0.889075	0.113154	0.000048
H54	H	-0.942305	0.000307	0.084799
H55	H	-1.340707	0.109456	0.098875
H56	H	-1.336465	0.322177	-0.098526
N57	N	-0.988742	-0.459995	0.350598
H58	H	-0.948230	-0.509511	0.418006
H59	H	-1.025403	-0.519665	0.290902
H60	H	-1.005657	-0.439330	0.630657
H61	H	-1.243262	-0.030909	0.389139
N62	N	-1.228960	-0.005147	0.631191
H63	H	-1.214224	0.054711	0.553928
H64	H	-1.282038	0.031548	0.689634
