data_functionalizedCrystal
_audit_creation_method	'MofGen! by Chris Wilmer'
_symmetry_space_group_name_H-M	'P1'
_symmetry_Int_Tables_number	1
_symmetry_cell_setting	triclinic
loop_
_symmetry_equiv_pos_as_xyz
  x,y,z
_cell_length_a	11.792241
_cell_length_b	11.792241
_cell_length_c	10.268362
_cell_angle_alpha	90.005428
_cell_angle_beta	90.000374
_cell_angle_gamma	84.193416
loop_
_atom_site_label
_atom_site_type_symbol
_atom_site_fract_x
_atom_site_fract_y
_atom_site_fract_z
O1	O	-1.506909	-0.155569	-0.108174
O2	O	-1.256909	0.094431	0.141826
O3	O	-1.006909	0.344431	0.391826
O4	O	-0.756909	0.594431	0.641826
O5	O	-1.176568	-0.171602	-0.108205
O6	O	-0.926568	0.078398	0.141795
O7	O	-0.676568	0.328398	0.391795
O8	O	-0.426568	0.578398	0.641795
O9	O	-1.349755	0.001585	-0.108180
O10	O	-1.099755	0.251585	0.141820
O11	O	-0.849755	0.501585	0.391820
O12	O	-0.599755	0.751585	0.641820
O13	O	-1.333722	-0.328756	-0.108199
O14	O	-1.083722	-0.078756	0.141801
O15	O	-0.833722	0.171244	0.391801
O16	O	-0.583722	0.421244	0.641801
O17	O	-1.349740	0.001593	0.108421
O18	O	-1.099740	0.251593	0.358421
O19	O	-0.849740	0.501593	0.608421
O20	O	-0.599740	0.751593	0.858421
O21	O	-1.176553	-0.171594	0.108396
O22	O	-0.926553	0.078406	0.358396
O23	O	-0.676553	0.328406	0.608396
O24	O	-0.426553	0.578406	0.858396
O25	O	-1.506894	-0.155561	0.108426
O26	O	-1.256894	0.094439	0.358426
O27	O	-1.006894	0.344439	0.608426
O28	O	-0.756894	0.594439	0.858426
Cu29	Cu	-1.341722	-0.163577	0.128188
Cu30	Cu	-1.091722	0.086423	0.378188
Cu31	Cu	-0.841722	0.336423	0.628188
Cu32	Cu	-0.591722	0.586423	0.878188
Cu33	Cu	-1.341740	-0.163586	-0.127967
Cu34	Cu	-1.091740	0.086414	0.122033
Cu35	Cu	-0.841740	0.336414	0.372033
Cu36	Cu	-0.591740	0.586414	0.622033
O37	O	-1.333707	-0.328748	0.108401
O38	O	-1.083707	-0.078748	0.358401
O39	O	-0.833707	0.171252	0.608401
O40	O	-0.583707	0.421252	0.858401
C41	C	-1.134269	-0.170591	0.000092
C42	C	-0.884269	0.079409	0.250092
C43	C	-0.634269	0.329409	0.500092
C44	C	-0.384269	0.579409	0.750092
C45	C	-1.008255	-0.167576	0.000080
C46	C	-0.758255	0.082424	0.250080
C47	C	-0.508255	0.332424	0.500080
C48	C	-0.258255	0.582424	0.750080
C49	C	-1.348740	0.043880	0.000120
C50	C	-1.098740	0.293880	0.250120
C51	C	-0.848740	0.543880	0.500120
C52	C	-0.598740	0.793880	0.750120
C53	C	-1.345726	0.169894	0.000119
C54	C	-1.095726	0.419894	0.250119
C55	C	-0.845726	0.669894	0.500119
C56	C	-0.595726	0.919894	0.750119
C57	C	-1.549192	-0.156572	0.000127
C58	C	-1.299192	0.093428	0.250127
C59	C	-1.049192	0.343428	0.500127
C60	C	-0.799192	0.593428	0.750127
C61	C	-1.675206	-0.159587	0.000130
C62	C	-1.425206	0.090413	0.250130
C63	C	-1.175206	0.340413	0.500130
C64	C	-0.925206	0.590413	0.750130
N65	N	-1.341717	-0.163571	0.308354
N66	N	-1.091717	0.086429	0.558354
N67	N	-0.841717	0.336429	0.808354
N68	N	-0.591717	0.586429	1.058354
C69	C	-0.777543	-0.162034	0.000118
C70	C	-0.527543	0.087966	0.250118
C71	C	-0.277543	0.337966	0.500118
C72	C	-0.027543	0.587966	0.750118
C73	C	-0.905928	-0.165113	0.000097
C74	C	-0.655928	0.084887	0.250097
C75	C	-0.405928	0.334887	0.500097
C76	C	-0.155928	0.584887	0.750097
C77	C	-1.334721	-0.371043	0.000099
C78	C	-1.084721	-0.121043	0.250099
C79	C	-0.834721	0.128957	0.500099
C80	C	-0.584721	0.378957	0.750099
C81	C	-1.337736	-0.497057	0.000092
C82	C	-1.087736	-0.247057	0.250092
C83	C	-0.837736	0.002943	0.500092
C84	C	-0.587736	0.252943	0.750092
C85	C	-1.340183	0.400606	0.000096
C86	C	-1.090183	0.650606	0.250096
C87	C	-0.840183	0.900606	0.500096
C88	C	-0.590183	1.150606	0.750096
C89	C	-1.343262	0.272221	0.000108
C90	C	-1.093262	0.522221	0.250108
C91	C	-0.843262	0.772221	0.500108
C92	C	-0.593262	1.022221	0.750108
N93	N	-1.341753	-0.163584	-0.308133
N94	N	-1.091753	0.086416	-0.058133
N95	N	-0.841753	0.336416	0.191867
N96	N	-0.591753	0.586416	0.441867
C97	C	-1.341734	-0.163583	0.574025
C98	C	-1.091734	0.086417	0.824025
C99	C	-0.841734	0.336417	1.074025
C100	C	-0.591734	0.586417	1.324025
C101	C	-1.341721	-0.163580	0.426187
C102	C	-1.091721	0.086420	0.676187
C103	C	-0.841721	0.336420	0.926187
C104	C	-0.591721	0.586420	1.176187
