data_functionalizedCrystal
_audit_creation_method	'MofGen! by Chris Wilmer'
_symmetry_space_group_name_H-M	'P1'
_symmetry_Int_Tables_number	1
_symmetry_cell_setting	triclinic
loop_
_symmetry_equiv_pos_as_xyz
  x,y,z
_cell_length_a	15.944499
_cell_length_b	16.109301
_cell_length_c	14.586319
_cell_angle_alpha	90.000787
_cell_angle_beta	89.999455
_cell_angle_gamma	96.530455
loop_
_atom_site_label
_atom_site_type_symbol
_atom_site_fract_x
_atom_site_fract_y
_atom_site_fract_z
O1	O	0.107969	-1.103146	-0.076176
O2	O	0.607969	-0.603146	0.423824
O3	O	0.121405	-0.861086	-0.076189
O4	O	0.621405	-0.361086	0.423811
O5	O	-0.007593	-0.988748	-0.076184
O6	O	0.492407	-0.488748	0.423816
O7	O	0.236967	-0.975483	-0.076181
O8	O	0.736967	-0.475483	0.423819
O9	O	-0.007595	-0.988740	0.076297
O10	O	0.492405	-0.488740	0.576297
O11	O	0.121404	-0.861077	0.076291
O12	O	0.621404	-0.361077	0.576291
O13	O	0.107967	-1.103137	0.076305
O14	O	0.607967	-0.603137	0.576305
Cu15	Cu	0.114685	-0.982106	0.090221
Cu16	Cu	0.614685	-0.482106	0.590221
Cu17	Cu	0.114687	-0.982117	-0.090105
Cu18	Cu	0.614687	-0.482117	0.409895
O19	O	0.236965	-0.975475	0.076299
O20	O	0.736965	-0.475475	0.576299
C21	C	0.120860	-0.830106	0.000049
C22	C	0.620860	-0.330106	0.500049
C23	C	0.119228	-0.737811	0.000044
C24	C	0.619228	-0.237811	0.500044
C25	C	-0.038888	-0.988201	0.000054
C26	C	0.461112	-0.488201	0.500054
C27	C	-0.132136	-0.986573	0.000047
C28	C	0.367864	-0.486573	0.500047
N29	N	0.114683	-0.982105	0.217053
N30	N	0.614683	-0.482105	0.717053
C31	C	-0.423697	-1.060741	0.000057
C32	C	0.076303	-0.560741	0.500057
C33	C	-0.362660	-1.022182	0.075239
C34	C	0.137340	-0.522182	0.575239
C35	C	-0.467771	-0.980657	0.000058
C36	C	0.032229	-0.480657	0.500058
C37	C	-0.362664	-1.022169	-0.075095
C38	C	0.137336	-0.522169	0.424905
C39	C	-0.302863	-0.983568	0.000051
C40	C	0.197137	-0.483568	0.500051
C41	C	-0.407962	-0.942076	0.075302
C42	C	0.092038	-0.442076	0.575302
C43	C	-0.407972	-0.942075	-0.075100
C44	C	0.092028	-0.442075	0.424900
C45	C	-0.346953	-0.903457	0.000101
C46	C	0.153047	-0.403457	0.500101
C47	C	-0.562770	-0.978983	0.000062
C48	C	-0.062770	-0.478983	0.500062
C49	C	-0.207864	-0.985236	0.000053
C50	C	0.292136	-0.485236	0.500053
C51	C	0.268261	-0.976022	0.000059
C52	C	0.768261	-0.476022	0.500059
C53	C	0.361509	-0.977650	0.000060
C54	C	0.861509	-0.477650	0.500060
C55	C	0.108512	-1.134116	0.000065
C56	C	0.608512	-0.634116	0.500065
C57	C	0.110144	-1.226412	0.000064
C58	C	0.610144	-0.726412	0.500064
C59	C	0.191979	-0.515549	0.000055
C60	C	0.691979	-0.015549	0.500055
C61	C	0.190439	-0.428828	0.000061
C62	C	0.690439	0.071172	0.500061
C63	C	0.037387	-0.448681	0.000056
C64	C	0.537387	0.051319	0.500056
C65	C	0.038928	-0.535400	0.000056
C66	C	0.538928	-0.035400	0.500056
C67	C	0.116226	-0.568831	0.000051
C68	C	0.616226	-0.068831	0.500051
C69	C	0.113146	-0.395392	0.000056
C70	C	0.613146	0.104608	0.500056
C71	C	0.111476	-0.301365	0.000063
C72	C	0.611476	0.198635	0.500063
C73	C	0.117897	-0.662863	0.000047
C74	C	0.617897	-0.162863	0.500047
N75	N	0.114683	-0.982125	-0.216937
N76	N	0.614683	-0.482125	0.283063
C77	C	0.057582	-1.038653	0.452062
C78	C	0.557582	-0.538653	0.952062
C79	C	0.057580	-1.038655	0.548043
C80	C	0.557580	-0.538655	1.048043
C81	C	0.171787	-0.925571	0.548047
C82	C	0.671787	-0.425571	1.048047
C83	C	0.171784	-0.925565	0.452068
C84	C	0.671784	-0.425565	0.952068
C85	C	0.114683	-0.982111	0.404077
C86	C	0.614683	-0.482111	0.904077
C87	C	0.114683	-0.982119	0.596038
C88	C	0.614683	-0.482119	1.096038
C89	C	0.114681	-0.982121	0.700105
C90	C	0.614681	-0.482121	1.200105
C91	C	0.114683	-0.982108	0.300004
C92	C	0.614683	-0.482108	0.800004
H93	H	-0.457048	-1.127203	0.000132
H94	H	0.042952	-0.627203	0.500132
H95	H	0.218283	-0.879518	0.412996
H96	H	0.718283	-0.379518	0.912996
H97	H	-0.342594	-1.056060	-0.138650
H98	H	0.157406	-0.556060	0.361350
C99	C	-0.406878	-1.095233	0.213576
C100	C	0.093122	-0.595233	0.713576
C101	C	-0.335546	-1.067905	0.161042
C102	C	0.164454	-0.567905	0.661042
H103	H	-0.390141	-1.123469	0.266541
H104	H	0.109859	-0.623469	0.766541
H105	H	-0.434295	-1.048501	0.231646
H106	H	0.065705	-0.548501	0.731646
H107	H	-0.444570	-1.132277	0.178170
H108	H	0.055430	-0.632277	0.678170
H109	H	-0.297857	-1.030856	0.196446
H110	H	0.202143	-0.530856	0.696446
H111	H	-0.308117	-1.114644	0.142974
H112	H	0.191883	-0.614644	0.642974
C113	C	-0.522597	-0.895275	0.160443
C114	C	-0.022597	-0.395275	0.660443
C115	C	-0.434914	-0.896382	0.161199
C116	C	0.065086	-0.396382	0.661199
H117	H	-0.539236	-0.867071	0.213474
H118	H	-0.039236	-0.367071	0.713474
H119	H	-0.538460	-0.867024	0.107123
H120	H	-0.038460	-0.367024	0.607123
H121	H	-0.549559	-0.950982	0.160232
H122	H	-0.049559	-0.450982	0.660232
H123	H	-0.407952	-0.840675	0.161403
H124	H	0.092048	-0.340675	0.661403
H125	H	-0.419043	-0.924631	0.214533
H126	H	0.080957	-0.424631	0.714533
C127	C	-0.087829	-1.087463	0.422565
C128	C	0.412171	-0.587463	0.922565
C129	C	-0.005210	-1.100798	0.399332
C130	C	0.494790	-0.600798	0.899332
H131	H	-0.126601	-1.125826	0.390016
H132	H	0.373399	-0.625826	0.890016
H133	H	-0.095973	-1.095546	0.486591
H134	H	0.404027	-0.595546	0.986591
H135	H	-0.096948	-1.031975	0.406827
H136	H	0.403052	-0.531975	0.906827
H137	H	0.003911	-1.156284	0.415076
H138	H	0.503911	-0.656284	0.915076
H139	H	0.002937	-1.092721	0.335292
H140	H	0.502937	-0.592721	0.835292
H141	H	0.254921	-0.542765	0.000058
H142	H	0.754921	-0.042765	0.500058
H143	H	-0.428073	-0.908233	-0.138666
H144	H	0.071927	-0.408233	0.361334
C145	C	-0.324966	-0.771938	0.078933
C146	C	0.175034	-0.271938	0.578933
C147	C	-0.302117	-0.813664	0.000153
C148	C	0.197883	-0.313664	0.500153
H149	H	-0.297279	-0.716507	0.078969
H150	H	0.202721	-0.216507	0.578969
H151	H	-0.384338	-0.770404	0.079429
H152	H	0.115662	-0.270404	0.579429
H153	H	-0.308761	-0.800601	0.131828
H154	H	0.191239	-0.300601	0.631828
H155	H	-0.318327	-0.785004	-0.052743
H156	H	0.181673	-0.285004	0.447257
H157	H	-0.242731	-0.815193	-0.000352
H158	H	0.257269	-0.315193	0.499648
H159	H	0.252125	-0.385448	0.000066
H160	H	0.752125	0.114552	0.500066
C161	C	-0.056737	-1.056723	0.655972
C162	C	0.443263	-0.556723	1.155972
C163	C	-0.005187	-1.100809	0.600786
C164	C	0.494813	-0.600809	1.100786
H165	H	-0.095492	-1.095097	0.688528
H166	H	0.404508	-0.595097	1.188528
H167	H	-0.022732	-1.023061	0.698289
H168	H	0.477268	-0.523061	1.198289
H169	H	-0.086960	-1.022124	0.618521
H170	H	0.413040	-0.522124	1.118521
H171	H	0.025040	-1.135404	0.638238
H172	H	0.525040	-0.635404	1.138238
H173	H	-0.039197	-1.134486	0.558465
H174	H	0.460803	-0.634486	1.058465
C175	C	-0.053131	-0.362681	-0.078340
C176	C	0.446869	0.137319	0.421660
C177	C	-0.047577	-0.411930	0.000049
C178	C	0.452423	0.088070	0.500049
H179	H	-0.105588	-0.339999	-0.078348
H180	H	0.394412	0.160001	0.421652
H181	H	-0.008241	-0.318540	-0.078332
H182	H	0.491759	0.181460	0.421668
H183	H	-0.049344	-0.396110	-0.131505
H184	H	0.450656	0.103890	0.368495
H185	H	-0.051357	-0.378500	0.053214
H186	H	0.448643	0.121500	0.553214
H187	H	-0.092479	-0.456078	0.000048
H188	H	0.407521	0.043922	0.500048
C189	C	-0.112519	-0.546321	0.000040
C190	C	0.387481	-0.046321	0.500040
C191	C	-0.044346	-0.593976	0.000048
C192	C	0.455654	-0.093976	0.500048
H193	H	-0.163925	-0.582485	0.000032
H194	H	0.336075	-0.082485	0.500032
H195	H	-0.109942	-0.512086	0.053210
H196	H	0.390058	-0.012086	0.553210
H197	H	-0.109929	-0.512083	-0.053137
H198	H	0.390071	-0.012083	0.446863
H199	H	-0.046932	-0.628209	0.053230
H200	H	0.453068	-0.128209	0.553230
H201	H	-0.046924	-0.628225	-0.053127
H202	H	0.453076	-0.128225	0.446873
C203	C	0.222509	-0.875374	0.695180
C204	C	0.722509	-0.375374	1.195180
C205	C	0.234559	-0.863426	0.600802
C206	C	0.734559	-0.363426	1.100802
H207	H	0.261268	-0.837012	0.727745
H208	H	0.761268	-0.337012	1.227745
H209	H	0.166454	-0.866350	0.710910
H210	H	0.666454	-0.366350	1.210910
H211	H	0.231647	-0.930862	0.710892
H212	H	0.731647	-0.430862	1.210892
H213	H	0.225415	-0.807940	0.585089
H214	H	0.725415	-0.307940	1.085089
H215	H	0.290627	-0.872444	0.585065
H216	H	0.790627	-0.372444	1.085065
