data_functionalizedCrystal
_audit_creation_method	'MofGen! by Chris Wilmer'
_symmetry_space_group_name_H-M	'P1'
_symmetry_Int_Tables_number	1
_symmetry_cell_setting	triclinic
loop_
_symmetry_equiv_pos_as_xyz
  x,y,z
_cell_length_a	23.532407
_cell_length_b	14.853567
_cell_length_c	13.930277
_cell_angle_alpha	89.999243
_cell_angle_beta	89.998126
_cell_angle_gamma	83.241804
loop_
_atom_site_label
_atom_site_type_symbol
_atom_site_fract_x
_atom_site_fract_y
_atom_site_fract_z
O1	O	0.755739	0.109437	-0.079703
O2	O	0.589945	0.125272	-0.079731
O3	O	0.677271	-0.013923	-0.079719
O4	O	0.668414	0.248633	-0.079715
O5	O	0.677259	-0.013926	0.079943
O6	O	0.589933	0.125269	0.079931
O7	O	0.755727	0.109435	0.079958
Zn8	Zn	0.672828	0.117352	0.105295
Zn9	Zn	0.672844	0.117355	-0.105067
O10	O	0.668402	0.248630	0.079947
C11	C	0.568721	0.124868	0.000097
C12	C	0.505499	0.123655	0.000086
C13	C	0.676864	-0.047509	0.000109
C14	C	0.675661	-0.147580	0.000100
C15	C	0.618704	-0.559490	0.000109
C16	C	0.722449	-0.581906	0.000126
C17	C	0.723580	-0.487885	0.000121
C18	C	0.672272	-0.429662	0.000111
C19	C	0.619833	-0.465460	0.000107
C20	C	0.776017	-0.452079	0.000135
C21	C	0.777150	-0.358053	0.000130
C22	C	0.725842	-0.299828	0.000114
C23	C	0.673401	-0.335631	0.000108
C24	C	0.622093	-0.277408	0.000099
C25	C	0.569652	-0.313210	0.000086
C26	C	0.568524	-0.407235	0.000090
C27	C	0.726969	-0.205803	0.000110
C28	C	0.623222	-0.183378	0.000096
C29	C	0.106722	0.198424	0.000131
C30	C	0.047317	0.197298	0.000137
O31	O	0.010875	0.266610	0.000173
N32	N	0.024330	0.114546	0.000134
C33	C	0.060751	0.032915	0.000135
O34	O	0.035744	-0.037575	0.000134
C35	C	0.120155	0.034043	0.000136
C36	C	0.143139	0.116800	0.000129
C37	C	0.129707	0.281175	0.000125
C38	C	0.189108	0.282300	0.000117
C39	C	0.225524	0.200676	0.000116
C40	C	0.202540	0.117926	0.000121
C41	C	0.156575	-0.047587	0.000143
C42	C	0.215983	-0.046453	0.000145
C43	C	0.238966	0.036304	0.000138
C44	C	0.298358	0.037427	0.000112
N45	N	0.321345	0.120179	0.000115
C46	C	0.284928	0.201803	0.000117
C47	C	-0.064002	0.030555	0.000134
C48	C	-0.123405	0.029427	0.000126
C49	C	-0.136834	0.193810	0.000130
C50	C	-0.077431	0.194937	0.000131
C51	C	-0.041014	0.113306	0.000137
C52	C	0.409675	0.204161	0.000100
C53	C	0.469082	0.205280	0.000088
C54	C	0.482507	0.040897	0.000089
C55	C	0.423105	0.039778	0.000096
C56	C	0.386690	0.121418	0.000104
O57	O	0.334835	-0.031848	0.000080
O58	O	0.309944	0.272282	0.000130
C59	C	0.776951	0.109839	0.000129
C60	C	0.840174	0.111052	0.000133
C61	C	0.668809	0.282216	0.000117
C62	C	0.670012	0.382286	0.000119
N63	N	0.672822	0.117348	0.248861
N64	N	0.672856	0.117351	-0.248633
C65	C	0.634175	0.178967	0.701125
C66	C	0.711529	0.055736	0.701104
C67	C	0.711523	0.055734	0.600609
C68	C	0.672842	0.117349	0.550366
C69	C	0.634168	0.178968	0.600620
C70	C	0.750200	-0.005878	0.550348
C71	C	0.750195	-0.005882	0.449846
C72	C	0.711511	0.055730	0.399602
C73	C	0.672835	0.117350	0.449861
C74	C	0.634155	0.178966	0.399619
C75	C	0.595475	0.240583	0.449877
C76	C	0.595484	0.240580	0.550376
C77	C	0.711502	0.055733	0.299103
C78	C	0.634148	0.178967	0.299114
H79	H	0.581440	-0.135978	0.000084
C80	C	0.744835	-0.100598	0.268123
C81	C	0.754013	-0.011978	0.243844
H82	H	0.771079	-0.142398	0.233999
H83	H	0.750384	-0.109421	0.335156
H84	H	0.706819	-0.110081	0.251664
H85	H	0.792028	-0.002493	0.260309
H86	H	0.748468	-0.003152	0.176796
C87	C	0.248126	0.378939	0.082169
C88	C	0.214375	0.373263	0.000102
H89	H	0.263726	0.435096	0.082151
H90	H	0.225232	0.375095	0.137841
H91	H	0.278315	0.330483	0.082160
H92	H	0.184183	0.421716	0.000114
H93	H	0.237270	0.377117	-0.055584
H94	H	0.817789	-0.499491	0.000152
H95	H	-0.166496	0.260273	0.000136
H96	H	0.769666	-0.176657	0.000126
C97	C	0.525326	-0.159119	0.000078
C98	C	0.513255	-0.249205	0.000074
H99	H	0.490509	-0.119604	0.000065
H100	H	0.546815	-0.148326	0.055758
H101	H	0.546832	-0.148328	-0.055597
H102	H	0.491752	-0.259998	0.055754
H103	H	0.491756	-0.260001	-0.055612
H104	H	0.525829	-0.436394	0.000081
H105	H	0.245630	-0.112928	0.000151
C106	C	-0.104148	-0.132942	0.000123
C107	C	-0.148664	-0.061543	0.000125
H108	H	-0.119742	-0.189104	0.000132
H109	H	-0.081262	-0.129080	-0.055554
H110	H	-0.081256	-0.129073	0.055802
H111	H	-0.171554	-0.065408	-0.055557
H112	H	-0.171560	-0.065407	0.055808
C113	C	0.783509	-0.162218	0.581287
C114	C	0.792706	-0.073610	0.605581
H115	H	0.809751	-0.204036	0.615388
H116	H	0.745497	-0.171686	0.597754
H117	H	0.789051	-0.171027	0.514241
H118	H	0.787160	-0.064799	0.672626
H119	H	0.830728	-0.064138	0.589120
C120	C	0.554177	0.280012	0.000052
C121	C	0.494346	0.296252	0.000069
H122	H	0.569771	0.336173	0.000032
H123	H	0.566674	0.246441	0.055729
H124	H	0.566664	0.246419	-0.055627
H125	H	0.481859	0.329839	0.055753
H126	H	0.481844	0.329837	-0.055613
C127	C	0.781367	-0.700653	-0.081935
C128	C	0.778844	-0.645902	0.000138
H129	H	0.816186	-0.740160	-0.081929
H130	H	0.749979	-0.735427	-0.081928
H131	H	0.779655	-0.663501	-0.137609
H132	H	0.780551	-0.683054	0.055812
H133	H	0.810241	-0.611126	0.000139
C134	C	0.879587	-0.389665	0.000140
C135	C	0.834792	-0.318703	0.000132
H136	H	0.915171	-0.365369	0.000133
H137	H	0.876986	-0.425864	0.055818
H138	H	0.876986	-0.425878	-0.055537
H139	H	0.837390	-0.282494	0.055814
H140	H	0.837394	-0.282489	-0.055552
H141	H	0.100061	0.347647	0.000130
H142	H	0.576007	-0.588645	0.000096
H143	H	0.380033	0.270640	0.000110
H144	H	-0.058722	0.262325	0.000131
C145	C	0.557685	0.300779	0.309230
C146	C	0.591629	0.246701	0.243891
H147	H	0.531439	0.342598	0.275136
H148	H	0.537176	0.263413	0.348427
H149	H	0.581422	0.333014	0.348428
H150	H	0.567893	0.214461	0.204698
H151	H	0.612140	0.284072	0.204678
H152	H	0.743025	0.005575	0.742015
C153	C	0.010593	-0.063551	-0.081954
C154	C	-0.023974	-0.059181	0.000123
H155	H	0.035305	-0.118947	-0.081955
H156	H	-0.012861	-0.060567	-0.137619
H157	H	0.032787	-0.014107	-0.081940
H158	H	-0.046170	-0.108621	0.000106
H159	H	-0.000517	-0.062172	0.055803
H160	H	0.563994	0.290747	0.591302
H161	H	0.137873	-0.114977	0.000150
H162	H	0.602681	0.229132	0.742047
H163	H	0.404391	-0.027609	0.000087
H164	H	0.512168	-0.025559	0.000084
H165	H	0.563984	0.290755	0.408958
H166	H	0.781688	-0.056054	0.408932
