data_functionalizedCrystal
_audit_creation_method	'MofGen! by Chris Wilmer'
_symmetry_space_group_name_H-M	'P1'
_symmetry_Int_Tables_number	1
_symmetry_cell_setting	triclinic
loop_
_symmetry_equiv_pos_as_xyz
  x,y,z
_cell_length_a	11.792254
_cell_length_b	16.109301
_cell_length_c	15.186229
_cell_angle_alpha	89.997109
_cell_angle_beta	90.000443
_cell_angle_gamma	96.169961
loop_
_atom_site_label
_atom_site_type_symbol
_atom_site_fract_x
_atom_site_fract_y
_atom_site_fract_z
O1	O	0.145878	-1.103825	0.073173
O2	O	0.164033	-0.861849	0.073187
O3	O	-0.010265	-0.988704	0.073174
O4	O	0.320177	-0.976971	0.073187
O5	O	-0.010255	-0.988689	-0.073284
O6	O	0.164043	-0.861834	-0.073270
O7	O	0.145888	-1.103810	-0.073284
Zn8	Zn	0.154967	-0.982820	-0.096530
Zn9	Zn	0.154954	-0.982840	0.096434
O10	O	0.320187	-0.976956	-0.073270
C11	C	0.163303	-0.830863	-0.000040
C12	C	0.161098	-0.738558	-0.000034
N13	N	0.154975	-0.982813	-0.228223
C14	C	-0.052545	-0.987957	-0.000055
C15	C	-0.178538	-0.985745	-0.000054
C16	C	-0.280859	-0.983948	-0.000050
C17	C	-0.409226	-0.981700	-0.000042
C18	C	0.362466	-0.977702	-0.000040
C19	C	0.488459	-0.979915	-0.000035
C20	C	0.146618	-1.134796	-0.000055
C21	C	0.148823	-1.227102	-0.000055
C22	C	0.259397	-0.516751	-0.000041
C23	C	0.257316	-0.430021	-0.000046
C24	C	0.050517	-0.448915	-0.000051
C25	C	0.052598	-0.535644	-0.000052
C26	C	0.157042	-0.569559	-0.000042
C27	C	0.152880	-0.396100	-0.000047
C28	C	0.150623	-0.302064	-0.000053
C29	C	0.159299	-0.663602	-0.000037
C30	C	0.223815	-1.033563	-0.453946
C31	C	0.223807	-1.033572	-0.546136
C32	C	0.086089	-0.932101	-0.546144
C33	C	0.086092	-0.932097	-0.453956
C34	C	0.154962	-0.982827	-0.407860
C35	C	0.154951	-0.982840	-0.592237
C36	C	0.154941	-0.982849	-0.692193
C37	C	0.154970	-0.982819	-0.307897
N38	N	0.154937	-0.982854	0.228126
H39	H	0.344441	-0.544362	-0.000039
H40	H	0.340664	-0.387028	-0.000047
H41	H	0.030019	-0.890799	-0.583688
C42	C	-0.064366	-0.411606	-0.000050
C43	C	-0.066663	-0.316208	-0.000043
C44	C	-0.181549	-0.278901	-0.000039
C45	C	-0.294139	-0.336991	-0.000041
C46	C	-0.291846	-0.432395	-0.000049
C47	C	-0.176960	-0.469702	-0.000053
H48	H	0.016686	-0.273201	-0.000041
H49	H	-0.183245	-0.208277	-0.000033
H50	H	-0.379184	-0.309374	-0.000038
H51	H	-0.375196	-0.475402	-0.000051
H52	H	-0.175264	-0.540326	-0.000058
H53	H	-0.030756	-0.578643	-0.000055
H54	H	0.279894	-1.074870	-0.416417
C55	C	0.299548	-1.089385	-0.596828
C56	C	0.244983	-1.156868	-0.660188
C57	C	0.320723	-1.212687	-0.710878
C58	C	0.451029	-1.201024	-0.698208
C59	C	0.505601	-1.133537	-0.634845
C60	C	0.429860	-1.077718	-0.584155
H61	H	0.148517	-1.165505	-0.669569
H62	H	0.280325	-1.262645	-0.757784
H63	H	0.507096	-1.242344	-0.735732
H64	H	0.602067	-1.124901	-0.625464
H65	H	0.470259	-1.027760	-0.537249
C66	C	0.010350	-0.876282	-0.403254
C67	C	-0.065392	-0.820473	-0.453955
C68	C	-0.141133	-0.764662	-0.403252
C69	C	-0.141131	-0.764661	-0.301849
C70	C	-0.065386	-0.820472	-0.251143
C71	C	0.010355	-0.876283	-0.301845
H72	H	-0.065396	-0.820472	-0.529024
H73	H	-0.197204	-0.723347	-0.440789
H74	H	-0.197198	-0.723347	-0.264316
H75	H	-0.065382	-0.820473	-0.176073
H76	H	0.066426	-0.917598	-0.264309
