data_functionalizedCrystal
_audit_creation_method	'MofGen! by Chris Wilmer'
_symmetry_space_group_name_H-M	'P1'
_symmetry_Int_Tables_number	1
_symmetry_cell_setting	triclinic
loop_
_symmetry_equiv_pos_as_xyz
  x,y,z
_cell_length_a	12.837943
_cell_length_b	19.188924
_cell_length_c	11.295483
_cell_angle_alpha	94.078966
_cell_angle_beta	85.461227
_cell_angle_gamma	88.985452
loop_
_atom_site_label
_atom_site_type_symbol
_atom_site_fract_x
_atom_site_fract_y
_atom_site_fract_z
O1	O	1.381626	0.177216	-0.099015
O2	O	1.881626	0.677216	0.400985
O3	O	1.079861	0.168253	-0.099021
O4	O	1.579861	0.668253	0.400979
O5	O	1.239454	0.071677	-0.099004
O6	O	1.739454	0.571677	0.400996
O7	O	1.222032	0.273792	-0.099032
O8	O	1.722032	0.773792	0.400968
O9	O	1.225437	0.080145	0.099045
O10	O	1.725437	0.580145	0.599045
O11	O	1.065844	0.176721	0.099028
O12	O	1.565844	0.676721	0.599028
O13	O	1.367608	0.185684	0.099034
O14	O	1.867608	0.685684	0.599034
Cu15	Cu	1.215446	0.181976	0.117115
Cu16	Cu	1.715446	0.681976	0.617115
Cu17	Cu	1.232023	0.171961	-0.117102
Cu18	Cu	1.732023	0.671961	0.382898
O19	O	1.208015	0.282260	0.099017
O20	O	1.708015	0.782260	0.599017
C21	C	1.034246	0.169459	0.000003
C22	C	1.534246	0.669459	0.500003
C23	C	0.919210	0.160428	0.000001
C24	C	1.419210	0.660428	0.500001
C25	C	0.677756	0.268995	0.000002
C26	C	1.177756	0.768995	0.500002
C27	C	0.569669	0.260513	0.000002
C28	C	1.069669	0.760513	0.500002
C29	C	0.594947	0.134982	0.000007
C30	C	1.094947	0.634982	0.500007
C31	C	0.703034	0.143464	0.000007
C32	C	1.203034	0.643464	0.500007
C33	C	0.744434	0.210473	0.000004
C34	C	1.244434	0.710473	0.500004
C35	C	0.852524	0.218954	-0.000004
C36	C	1.352524	0.718954	0.499996
C37	C	0.877799	0.093424	0.000010
C38	C	1.377799	0.593424	0.500010
C39	C	0.769712	0.084942	0.000009
C40	C	1.269712	0.584942	0.500009
C41	C	1.231883	0.049861	0.000022
C42	C	1.731883	0.549861	0.500022
C43	C	1.230192	-0.027760	0.000025
C44	C	1.730192	0.472240	0.500025
C45	C	1.237044	-0.068829	-0.107932
C46	C	1.737044	0.431171	0.392068
C47	C	1.235442	-0.141762	-0.107941
C48	C	1.735442	0.358238	0.392059
C49	C	1.227008	-0.173623	0.000013
C50	C	1.727008	0.326377	0.500013
C51	C	1.220150	-0.132545	0.107984
C52	C	1.720150	0.367455	0.607984
C53	C	1.221741	-0.059613	0.107990
C54	C	1.721741	0.440387	0.607990
N55	N	1.277794	-0.285978	0.080362
N56	N	1.777794	0.214022	0.580362
N57	N	1.276284	-0.355260	0.080349
N58	N	1.776284	0.144740	0.580349
C59	C	1.222209	-0.393362	0.000001
C60	C	1.722209	0.106638	0.500001
N61	N	1.169715	-0.359565	-0.080351
N62	N	1.669715	0.140435	0.419649
N63	N	1.171229	-0.290277	-0.080341
N64	N	1.671229	0.209723	0.419659
C65	C	1.225280	-0.252705	0.000018
C66	C	1.725280	0.247295	0.500018
C67	C	1.227323	-0.513514	-0.107973
C68	C	1.727323	-0.013514	0.392027
C69	C	1.225714	-0.586448	-0.107977
C70	C	1.725714	-0.086448	0.392023
C71	C	1.210431	-0.577229	0.107951
C72	C	1.710431	-0.077229	0.607951
C73	C	1.212030	-0.504297	0.107952
C74	C	1.712030	-0.004297	0.607952
C75	C	1.220481	-0.472443	-0.000013
C76	C	1.720481	0.027557	0.499987
C77	C	1.413224	0.184478	0.000008
C78	C	1.913224	0.684478	0.500008
C79	C	1.528260	0.193509	0.000002
C80	C	2.028260	0.693509	0.500002
C81	C	1.215587	0.304076	-0.000011
C82	C	1.715587	0.804076	0.499989
C83	C	1.217278	0.381696	-0.000022
C84	C	1.717278	0.881696	0.499978
N85	N	1.203794	0.189019	0.281850
N86	N	1.703794	0.689019	0.781850
N87	N	1.243683	0.164913	-0.281837
N88	N	1.743683	0.664913	0.218163
C89	C	1.327561	0.114170	0.531153
C90	C	1.827561	0.614170	1.031153
C91	C	1.318762	0.119498	0.655815
C92	C	1.818762	0.619498	1.155815
C93	C	1.177396	0.205000	0.655840
C94	C	1.677396	0.705000	1.155840
C95	C	1.186194	0.199672	0.531177
C96	C	1.686194	0.699672	1.031177
C97	C	1.261280	0.154256	0.468838
C98	C	1.761280	0.654256	0.968838
C99	C	1.270082	0.148932	0.344173
C100	C	1.770082	0.648932	0.844173
C101	C	1.128711	0.234430	0.344200
C102	C	1.628711	0.734430	0.844200
C103	C	1.119913	0.239758	0.468863
C104	C	1.619913	0.739758	0.968863
H105	H	0.561212	0.080431	0.000108
H106	H	1.061212	0.580431	0.500108
F107	F	1.242734	-0.185479	-0.222848
F108	F	1.742734	0.314521	0.277152
F109	F	1.349997	0.100598	0.277829
F110	F	1.849997	0.600598	0.777829
H111	H	1.243922	-0.042898	-0.195846
H112	H	1.743922	0.457102	0.304154
H113	H	1.388705	0.077195	0.480395
H114	H	1.888705	0.577195	0.980395
F115	F	0.498707	0.322801	0.000004
F116	F	0.998707	0.822801	0.500004
F117	F	1.040002	0.288089	0.535219
F118	F	1.540002	0.788089	1.035219
F119	F	1.097479	0.253326	0.722199
F120	F	1.597479	0.753326	1.222199
H121	H	1.203556	-0.603170	0.195849
H122	H	1.703556	-0.103170	0.695849
F123	F	0.725639	0.013630	0.000017
F124	F	1.225639	0.513630	0.500017
H125	H	1.234198	-0.487577	-0.195885
H126	H	1.734198	0.012423	0.304115
F127	F	1.389306	0.076831	0.722131
F128	F	1.889306	0.576831	1.222131
H129	H	0.932102	0.045770	0.000002
H130	H	1.432102	0.545770	0.500002
H131	H	0.886229	0.273516	-0.000005
H132	H	1.386229	0.773516	0.499995
H133	H	0.711464	0.323556	-0.000002
H134	H	1.211464	0.823556	0.499998
F135	F	1.211167	-0.166455	0.222876
F136	F	1.711167	0.333545	0.722876
H137	H	1.216157	-0.026174	0.195904
H138	H	1.716157	0.473826	0.695904
F139	F	1.058172	0.277098	0.277868
F140	F	1.558172	0.777098	0.777868
H141	H	1.231288	-0.619885	-0.195893
H142	H	1.731288	-0.119885	0.304107
F143	F	1.204737	-0.460586	0.222857
F144	F	1.704737	0.039414	0.722857
