data_functionalizedCrystal
_audit_creation_method	'MofGen! by Chris Wilmer'
_symmetry_space_group_name_H-M	'P1'
_symmetry_Int_Tables_number	1
_symmetry_cell_setting	triclinic
loop_
_symmetry_equiv_pos_as_xyz
  x,y,z
_cell_length_a	19.121321
_cell_length_b	19.121063
_cell_length_c	12.759387
_cell_angle_alpha	87.596398
_cell_angle_beta	87.581907
_cell_angle_gamma	89.929715
loop_
_atom_site_label
_atom_site_type_symbol
_atom_site_fract_x
_atom_site_fract_y
_atom_site_fract_z
Zn1	Zn	1.059833	-0.324721	0.547052
Zn2	Zn	1.559833	0.175279	1.047052
Zn3	Zn	1.054732	-0.441971	0.379158
Zn4	Zn	1.554732	0.058029	0.879158
Zn5	Zn	0.942592	-0.319762	0.378553
Zn6	Zn	1.442592	0.180238	0.878553
Zn7	Zn	0.937563	-0.436927	0.561952
Zn8	Zn	1.437563	0.063073	1.061952
O9	O	0.998680	-0.380845	0.466679
O10	O	1.498680	0.119155	0.966679
O11	O	1.157257	-0.344461	0.518798
O12	O	1.657257	0.155539	1.018798
O13	O	1.039826	-0.425795	0.232061
O14	O	1.539826	0.074205	0.732061
O15	O	0.962384	-0.222316	0.394416
O16	O	1.462384	0.277684	0.894416
O17	O	1.153509	-0.430604	0.395448
O18	O	1.653509	0.069396	0.895448
O19	O	1.048520	-0.225959	0.518211
O20	O	1.548520	0.274041	1.018211
O21	O	0.957438	-0.336009	0.231616
O22	O	1.457438	0.163991	0.731616
O23	O	0.843824	-0.331118	0.408863
O24	O	1.343824	0.168882	0.908863
O25	O	0.953812	-0.422007	0.706992
O26	O	1.453812	0.077993	1.206992
O27	O	0.840129	-0.417198	0.543606
O28	O	1.340129	0.082802	1.043606
O29	O	1.043643	-0.339569	0.696046
O30	O	1.543643	0.160431	1.196046
O31	O	1.034949	-0.539405	0.409895
O32	O	1.534949	-0.039405	0.909895
O33	O	0.948866	-0.535700	0.544193
O34	O	1.448866	-0.035700	1.044193
C35	C	0.816540	-0.373073	0.477786
C36	C	1.316540	0.126927	0.977786
C37	C	0.738619	-0.369765	0.482564
C38	C	1.238619	0.130235	0.982564
C39	C	0.298014	-0.348754	0.512859
C40	C	0.798014	0.151246	1.012859
C41	C	0.371229	-0.351875	0.508365
C42	C	0.871229	0.148125	1.008365
C43	C	0.405879	-0.398212	0.441782
C44	C	0.905879	0.101788	0.941782
C45	C	0.367310	-0.441436	0.379697
C46	C	0.867310	0.058564	0.879697
C47	C	0.294097	-0.438318	0.384198
C48	C	0.794097	0.061682	0.884198
C49	C	0.626838	-0.409871	0.424980
C50	C	1.126838	0.090129	0.924980
C51	C	0.700056	-0.412984	0.420482
C52	C	1.200056	0.087016	0.920482
C53	C	0.703969	-0.323424	0.549152
C54	C	1.203969	0.176576	1.049152
C55	C	0.630755	-0.320307	0.553642
C56	C	1.130755	0.179693	1.053642
C57	C	0.592192	-0.363533	0.491561
C58	C	1.092192	0.136467	0.991561
C59	C	0.480716	-0.401402	0.437184
C60	C	0.980716	0.098598	0.937184
C61	C	0.517357	-0.360346	0.496165
C62	C	1.017357	0.139654	0.996165
C63	C	0.990828	-0.562991	0.478748
C64	C	1.490828	-0.062991	0.978748
C65	C	0.987532	-0.640916	0.483943
C66	C	1.487532	-0.140916	0.983943
C67	C	1.030838	-0.679433	0.416515
C68	C	1.530838	-0.179433	0.916515
C69	C	1.027743	-0.752652	0.421407
C70	C	1.527743	-0.252652	0.921407
C71	C	0.981339	-0.787353	0.493721
C72	C	1.481339	-0.287353	0.993721
C73	C	0.938031	-0.748830	0.561156
C74	C	1.438031	-0.248830	1.061156
C75	C	0.941130	-0.675613	0.556269
C76	C	1.441130	-0.175613	1.056269
C77	C	0.969741	-1.008327	0.511977
C78	C	1.469741	-0.508327	1.011977
C79	C	0.966644	-1.081550	0.516857
C80	C	1.466644	-0.581550	1.016857
C81	C	1.056357	-1.085367	0.377109
C82	C	1.556357	-0.585367	0.877109
C83	C	1.059449	-1.012147	0.372224
C84	C	1.559449	-0.512147	0.872224
C85	C	1.016144	-0.973632	0.439662
C86	C	1.516144	-0.473632	0.939662
C87	C	0.978172	-0.862194	0.498721
C88	C	1.478172	-0.362194	0.998721
C89	C	1.019315	-0.898792	0.434667
C90	C	1.519315	-0.398792	0.934667
C91	C	1.181531	-0.388648	0.455529
C92	C	1.681531	0.111352	0.955529
C93	C	1.259451	-0.391973	0.450777
C94	C	1.759451	0.108027	0.950777
C95	C	0.998736	-0.380779	0.740705
C96	C	1.498736	0.119221	1.240705
C97	C	0.998760	-0.380750	0.857478
C98	C	1.498760	0.119250	1.357478
C99	C	1.006582	-0.197989	0.454584
C100	C	1.506582	0.302011	0.954584
C101	C	1.009950	-0.120067	0.449430
C102	C	1.509950	0.379933	0.949430
C103	C	0.998667	-0.380862	0.193713
C104	C	1.498667	0.119138	0.693713
C105	C	0.998787	-0.380699	0.076919
C106	C	1.498787	0.119301	0.576919
C107	C	1.092307	-0.294914	0.846099
C108	C	1.592307	0.205086	1.346099
C109	C	1.139090	-0.251986	0.895269
C110	C	1.639090	0.248014	1.395269
C111	C	1.139108	-0.251962	1.004988
C112	C	1.639108	0.248038	1.504988
C113	C	1.092336	-0.294868	1.065540
C114	C	1.592336	0.205132	1.565540
C115	C	1.045553	-0.337796	1.016370
C116	C	1.545553	0.162204	1.516370
C117	C	1.045541	-0.337818	0.906648
C118	C	1.545541	0.162182	1.406648
C119	C	0.952004	-0.423627	1.027749
C120	C	1.452004	0.076373	1.527749
C121	C	0.951988	-0.423657	0.918030
C122	C	1.451988	0.076343	1.418030
C123	C	0.905232	-0.466533	1.088301
C124	C	1.405232	0.033467	1.588301
C125	C	0.858450	-0.509466	1.039131
C126	C	1.358450	-0.009466	1.539131
C127	C	0.858435	-0.509490	0.929405
C128	C	1.358435	-0.009490	1.429405
C129	C	0.905204	-0.466585	0.868860
C130	C	1.405204	0.033415	1.368860
H131	H	0.395528	-0.479167	0.325488
H132	H	0.895528	0.020833	0.825488
H133	H	0.402624	-0.316684	0.558923
H134	H	0.902624	0.183316	1.058923
H135	H	1.092303	-0.294937	0.756760
H136	H	1.592303	0.205063	1.256760
H137	H	0.595449	-0.445067	0.374426
H138	H	1.095449	0.054933	0.874426
H139	H	0.905247	-0.466507	1.177640
H140	H	1.405247	0.033493	1.677640
H141	H	0.900250	-0.777089	0.620041
H142	H	1.400250	-0.277089	1.120041
H143	H	0.820369	-0.544393	1.088441
H144	H	1.320369	-0.044393	1.588441
H145	H	1.177170	-0.217052	0.845956
H146	H	1.677170	0.282948	1.345956
H147	H	0.820330	-0.544439	0.889378
H148	H	1.320330	-0.044439	1.389378
H149	H	1.068623	-0.651185	0.357625
H150	H	1.568623	-0.151185	0.857625
H151	H	1.177199	-0.217001	1.045022
H152	H	1.677199	0.282999	1.545022
H153	H	0.905867	-0.644253	0.611177
H154	H	1.405867	-0.144253	1.111177
H155	H	0.940388	-0.890455	0.557598
H156	H	1.440388	-0.390455	1.057598
H157	H	0.905199	-0.466603	0.779520
H158	H	1.405199	0.033397	1.279520
H159	H	1.092350	-0.294838	1.154878
H160	H	1.592350	0.205162	1.654878
H161	H	0.269808	-0.311017	0.567072
H162	H	0.769808	0.188983	1.067072
H163	H	0.262700	-0.473513	0.333646
H164	H	0.762700	0.026487	0.833646
H165	H	0.602548	-0.282577	0.607864
H166	H	1.102548	0.217423	1.107864
H167	H	0.735374	-0.288232	0.599695
H168	H	1.235374	0.211768	1.099695
H169	H	0.728266	-0.450720	0.366260
H170	H	1.228266	0.049280	0.866260
H171	H	1.091615	-1.116734	0.322206
H172	H	1.591615	-0.616734	0.822206
H173	H	1.063007	-0.784010	0.366499
H174	H	1.563007	-0.284010	0.866499
H175	H	1.057100	-0.870536	0.375792
H176	H	1.557100	-0.370536	0.875792
H177	H	0.489141	-0.322621	0.550380
H178	H	0.989141	0.177379	1.050380
H179	H	1.097236	-0.983896	0.313340
H180	H	1.597236	-0.483896	0.813340
H181	H	0.508936	-0.439128	0.382968
H182	H	1.008936	0.060872	0.882968
H183	H	0.928864	-1.109801	0.575762
H184	H	1.428864	-0.609801	1.075762
H185	H	0.934479	-0.976973	0.566887
H186	H	1.434479	-0.476973	1.066887
