data_functionalizedCrystal
_audit_creation_method	'MofGen! by Chris Wilmer'
_symmetry_space_group_name_H-M	'P1'
_symmetry_Int_Tables_number	1
_symmetry_cell_setting	triclinic
loop_
_symmetry_equiv_pos_as_xyz
  x,y,z
_cell_length_a	14.853567
_cell_length_b	14.971486
_cell_length_c	13.448316
_cell_angle_alpha	90.006811
_cell_angle_beta	90.003786
_cell_angle_gamma	83.624530
loop_
_atom_site_label
_atom_site_type_symbol
_atom_site_fract_x
_atom_site_fract_y
_atom_site_fract_z
O1	O	-1.196346	-0.116782	-0.082624
O2	O	-0.696346	0.383218	0.417376
O3	O	-0.933884	-0.130693	-0.082641
O4	O	-0.433884	0.369307	0.417359
O5	O	-1.072150	0.006462	-0.082625
O6	O	-0.572150	0.506462	0.417375
O7	O	-1.058080	-0.253936	-0.082640
O8	O	-0.558080	0.246064	0.417360
O9	O	-1.072132	0.006470	0.082759
O10	O	-0.572132	0.506470	0.582759
O11	O	-0.933867	-0.130684	0.082743
O12	O	-0.433867	0.369316	0.582743
O13	O	-1.196329	-0.116773	0.082760
O14	O	-0.696329	0.383227	0.582760
Cu15	Cu	-1.065096	-0.123728	0.097852
Cu16	Cu	-0.565096	0.376272	0.597852
Cu17	Cu	-1.065117	-0.123738	-0.097733
Cu18	Cu	-0.565117	0.376262	0.402267
O19	O	-1.058063	-0.253928	0.082744
O20	O	-0.558063	0.246072	0.582744
C21	C	-0.900287	-0.130058	0.000049
C22	C	-0.400287	0.369942	0.500049
C23	C	-0.800203	-0.128169	0.000043
C24	C	-0.300203	0.371831	0.500043
C25	C	-1.071512	0.039791	0.000067
C26	C	-0.571512	0.539791	0.500067
C27	C	-1.069626	0.139088	0.000066
C28	C	-0.569626	0.639088	0.500066
C29	C	-1.229926	-0.117408	0.000068
C30	C	-0.729926	0.382592	0.500068
C31	C	-1.330009	-0.119297	0.000068
C32	C	-0.830009	0.380703	0.500068
C33	C	-0.387686	-0.038712	0.000070
C34	C	0.112314	0.461288	0.500070
C35	C	-0.366375	-0.201655	0.000060
C36	C	0.133625	0.298345	0.500060
C37	C	-0.460408	-0.203431	0.000056
C38	C	0.039592	0.296569	0.500056
C39	C	-0.518085	-0.122846	0.000058
C40	C	-0.018085	0.377154	0.500058
C41	C	-0.481728	-0.040486	0.000064
C42	C	0.018272	0.459514	0.500064
C43	C	-0.496772	-0.285790	0.000041
C44	C	0.003228	0.214210	0.500041
C45	C	-0.590811	-0.287569	0.000036
C46	C	-0.090811	0.212431	0.500036
C47	C	-0.648490	-0.206984	0.000046
C48	C	-0.148490	0.293016	0.500046
C49	C	-0.612127	-0.124620	0.000052
C50	C	-0.112127	0.375380	0.500052
C51	C	-0.669804	-0.044035	0.000054
C52	C	-0.169804	0.455965	0.500054
C53	C	-0.633444	0.038330	0.000068
C54	C	-0.133444	0.538330	0.500068
C55	C	-0.539407	0.040100	0.000073
C56	C	-0.039407	0.540100	0.500073
C57	C	-0.742527	-0.208754	0.000040
C58	C	-0.242527	0.291246	0.500040
C59	C	-0.763847	-0.045809	0.000048
C60	C	-0.263847	0.454191	0.500048
C61	C	-1.058701	-0.287257	0.000050
C62	C	-0.558701	0.212743	0.500050
C63	C	-1.060586	-0.386554	0.000045
C64	C	-0.560586	0.113446	0.500045
N65	N	-1.065088	-0.123720	0.235417
N66	N	-0.565088	0.376280	0.735417
C67	C	-1.150854	0.196299	0.000072
C68	C	-0.650854	0.696299	0.500072
C69	C	-1.149076	0.289598	0.000062
C70	C	-0.649076	0.789598	0.500062
C71	C	-1.066071	0.325686	0.000053
C72	C	-0.566071	0.825686	0.500053
C73	C	-0.984838	0.268468	0.000044
C74	C	-0.484838	0.768468	0.500044
C75	C	-0.986616	0.175170	0.000047
C76	C	-0.486616	0.675170	0.500047
C77	C	-0.981137	0.462931	0.000040
C78	C	-0.481137	0.962931	0.500040
C79	C	-0.979359	0.556235	0.000039
C80	C	-0.479359	1.056235	0.500039
C81	C	-1.143598	0.577360	0.000055
C82	C	-0.643598	1.077360	0.500055
C83	C	-1.145376	0.484062	0.000058
C84	C	-0.645376	0.984062	0.500058
C85	C	-1.064142	0.426850	0.000051
C86	C	-0.564142	0.926850	0.500051
N87	N	-1.065132	-0.123738	-0.235297
N88	N	-0.565132	0.376262	0.264703
C89	C	-1.126331	-0.063013	0.287464
C90	C	-0.626331	0.436987	0.787464
C91	C	-1.126337	-0.063013	0.391567
C92	C	-0.626337	0.436987	0.891567
C93	C	-1.065103	-0.123724	0.443621
C94	C	-0.565103	0.376276	0.943621
C95	C	-1.003853	-0.184434	0.391566
C96	C	-0.503853	0.315566	0.891566
C97	C	-1.003844	-0.184430	0.287465
C98	C	-0.503844	0.315570	0.787465
C99	C	-1.003878	-0.184440	0.608547
C100	C	-0.503878	0.315560	1.108547
C101	C	-1.003888	-0.184445	0.712655
C102	C	-0.503888	0.315555	1.212655
C103	C	-1.126371	-0.063023	0.712649
C104	C	-0.626371	0.436977	1.212649
C105	C	-1.126362	-0.063019	0.608547
C106	C	-0.626362	0.436981	1.108547
C107	C	-1.065113	-0.123730	0.556500
C108	C	-0.565113	0.376270	1.056500
H109	H	-0.810802	0.019814	0.000053
H110	H	-0.310802	0.519814	0.500053
F111	F	-0.938687	-0.249054	0.553158
F112	F	-0.438687	0.250946	1.053158
F113	F	-0.500703	0.127750	0.000084
F114	F	-0.000703	0.627750	0.500084
F115	F	-0.891016	0.594640	0.000030
F116	F	-0.391016	1.094640	0.500030
F117	F	-0.694838	0.124090	0.000063
F118	F	-0.194838	0.624090	0.500063
F119	F	-0.348989	0.048942	0.000089
F120	F	0.151011	0.548942	0.500089
H121	H	-0.319409	-0.267263	0.000049
H122	H	0.180591	0.232737	0.500049
F123	F	-0.894678	0.402044	0.000030
F124	F	-0.394678	0.902044	0.500030
H125	H	-1.176241	-0.013590	0.755032
H126	H	-0.676241	0.486410	1.255032
H127	H	-0.920472	0.128589	0.000042
H128	H	-0.420472	0.628589	0.500042
H129	H	-1.209742	0.623946	0.000058
H130	H	-0.709742	1.123946	0.500058
F131	F	-1.191538	0.001591	0.553147
F132	F	-0.691538	0.501591	1.053147
F133	F	-0.435385	-0.371547	0.000024
F134	F	0.064615	0.128453	0.500024
F135	F	-0.629500	-0.375227	0.000024
F136	F	-0.129500	0.124773	0.500024
H137	H	-1.176198	-0.013579	0.245089
H138	H	-0.676198	0.486421	0.745089
H139	H	-0.772127	-0.275814	0.000031
H140	H	-0.272127	0.224186	0.500031
F141	F	-1.239201	0.157901	0.000091
F142	F	-0.739201	0.657901	0.500091
F143	F	-1.235530	0.350483	0.000070
F144	F	-0.735530	0.850483	0.500070
H145	H	-1.212967	0.454683	0.000072
H146	H	-0.712967	0.954683	0.500072
H147	H	-0.917253	0.297857	0.000030
H148	H	-0.417253	0.797857	0.500030
H149	H	-1.176205	-0.013580	0.433944
H150	H	-0.676205	0.486420	0.933944
F151	F	-0.938678	-0.249044	0.446967
F152	F	-0.438678	0.250956	0.946967
F153	F	-0.938713	-0.249062	0.768047
F154	F	-0.438713	0.250938	1.268047
F155	F	-0.938658	-0.249040	0.232074
F156	F	-0.438658	0.250960	0.732074
