data_functionalizedCrystal
_audit_creation_method	'MofGen! by Chris Wilmer'
_symmetry_space_group_name_H-M	'P1'
_symmetry_Int_Tables_number	1
_symmetry_cell_setting	triclinic
loop_
_symmetry_equiv_pos_as_xyz
  x,y,z
_cell_length_a	10.723024
_cell_length_b	10.868271
_cell_length_c	10.723023
_cell_angle_alpha	90.004123
_cell_angle_beta	84.467709
_cell_angle_gamma	90.004005
loop_
_atom_site_label
_atom_site_type_symbol
_atom_site_fract_x
_atom_site_fract_y
_atom_site_fract_z
O1	O	1.657188	0.102311	0.175028
O2	O	2.157188	0.602311	0.675028
O3	O	1.294035	0.102315	0.191781
O4	O	1.794035	0.602315	0.691781
O5	O	1.483989	0.102308	0.001828
O6	O	1.983989	0.602308	0.501828
O7	O	1.467234	0.102318	0.364981
O8	O	1.967234	0.602318	0.864981
O9	O	1.483973	-0.102336	0.001821
O10	O	1.983973	0.397664	0.501821
O11	O	1.294019	-0.102329	0.191774
O12	O	1.794019	0.397671	0.691774
O13	O	1.657172	-0.102333	0.175021
O14	O	2.157172	0.397667	0.675021
Zn15	Zn	1.475593	-0.134823	0.183396
Zn16	Zn	1.975593	0.365177	0.683396
Zn17	Zn	1.475614	0.134805	0.183406
Zn18	Zn	1.975614	0.634805	0.683406
O19	O	1.467218	-0.102326	0.364973
O20	O	1.967218	0.397674	0.864973
C21	C	1.247528	-0.000007	0.190558
C22	C	1.747528	0.499993	0.690558
C23	C	1.108973	-0.000005	0.186911
C24	C	1.608973	0.499995	0.686911
N25	N	1.475588	-0.318837	0.183388
N26	N	1.975588	0.181163	0.683388
C27	C	1.033991	-0.000001	0.293198
C28	C	1.533991	0.499999	0.793198
C29	C	0.890787	0.000000	0.289431
C30	C	1.390787	0.500000	0.789431
C31	C	1.475607	-0.569843	0.183403
C32	C	1.975607	-0.069843	0.683403
C33	C	1.475593	-0.430166	0.183399
C34	C	1.975593	0.069834	0.683399
C35	C	1.703679	-0.000009	0.176243
C36	C	2.203679	0.499991	0.676243
C37	C	1.842234	-0.000002	0.179891
C38	C	2.342234	0.499998	0.679891
C39	C	1.482762	-0.000013	-0.044675
C40	C	1.982762	0.499987	0.455325
C41	C	1.479114	-0.000009	-0.183229
C42	C	1.979114	0.499991	0.316771
N43	N	1.475629	0.318819	0.183404
N44	N	1.975629	0.818819	0.683404
C45	C	1.473710	-0.106012	-0.388207
C46	C	1.973710	0.393988	0.111793
C47	C	1.477480	-0.106019	-0.245004
C48	C	1.977480	0.393981	0.254996
C49	C	1.468445	-0.000002	0.411477
C50	C	1.968445	0.499998	0.911477
C51	C	1.472093	0.000002	0.550031
C52	C	1.972093	0.500002	1.050031
H53	H	1.075812	-0.000006	0.386984
H54	H	1.575812	0.499994	0.886984
H55	H	0.826354	0.000009	0.380421
H56	H	1.326354	0.500009	0.880421
H57	H	1.473488	0.090759	-0.396827
H58	H	1.973488	0.590759	0.103173
H59	H	1.478878	-0.196781	-0.191891
H60	H	1.978878	0.303219	0.308109
C61	C	1.477253	0.122616	-0.254960
C62	C	1.977253	0.622616	0.245040
H63	H	1.478781	0.189124	-0.197627
H64	H	1.978781	0.689124	0.302373
H65	H	1.403279	0.127204	-0.296867
H66	H	1.903279	0.627204	0.203133
H67	H	1.548578	0.127179	-0.314635
H68	H	2.048578	0.627179	0.185365
H69	H	1.472298	-0.196769	-0.441347
H70	H	1.972298	0.303231	0.058653
C71	C	0.929255	-0.000000	0.056957
C72	C	1.429255	0.500000	0.556957
H73	H	0.880215	0.000008	-0.012255
H74	H	1.380215	0.500008	0.487745
H75	H	0.980616	-0.071361	0.053631
H76	H	1.480616	0.428639	0.553631
H77	H	0.980614	0.071376	0.053645
H78	H	1.480614	0.571376	0.553645
H79	H	1.067152	0.000024	0.093125
H80	H	1.567152	0.500024	0.593125
