data_functionalizedCrystal
_audit_creation_method	'MofGen! by Chris Wilmer'
_symmetry_space_group_name_H-M	'P1'
_symmetry_Int_Tables_number	1
_symmetry_cell_setting	triclinic
loop_
_symmetry_equiv_pos_as_xyz
  x,y,z
_cell_length_a	14.519709
_cell_length_b	19.288864
_cell_length_c	18.366186
_cell_angle_alpha	89.976766
_cell_angle_beta	89.994197
_cell_angle_gamma	83.408195
loop_
_atom_site_label
_atom_site_type_symbol
_atom_site_fract_x
_atom_site_fract_y
_atom_site_fract_z
O1	O	0.115043	0.921767	-0.060785
O2	O	0.615043	1.421767	0.439215
O3	O	0.130562	0.719562	-0.060735
O4	O	0.630562	1.219562	0.439265
O5	O	-0.011470	0.826026	-0.060755
O6	O	0.488530	1.326026	0.439245
O7	O	0.257075	0.815304	-0.060765
O8	O	0.757075	1.315304	0.439235
O9	O	-0.011473	0.826007	0.060345
O10	O	0.488527	1.326007	0.560345
O11	O	0.130559	0.719543	0.060364
O12	O	0.630559	1.219543	0.560364
O13	O	0.115040	0.921748	0.060315
O14	O	0.615040	1.421748	0.560315
Zn15	Zn	0.122799	0.820643	0.079567
Zn16	Zn	0.622799	1.320643	0.579567
Zn17	Zn	0.122803	0.820668	-0.079987
Zn18	Zn	0.622803	1.320668	0.420013
O19	O	0.257072	0.815285	0.060334
O20	O	0.757072	1.315285	0.560334
C21	C	0.130061	0.693675	-0.000179
C22	C	0.630061	1.193675	0.499821
C23	C	0.128562	0.616566	-0.000160
C24	C	0.628562	1.116566	0.499840
C25	C	0.211900	0.572169	-0.000175
C26	C	0.711900	1.072169	0.499825
C27	C	0.210492	0.499717	-0.000183
C28	C	0.710492	0.999717	0.499817
C29	C	0.125741	0.471665	-0.000191
C30	C	0.625741	0.971665	0.499809
C31	C	0.042392	0.516071	-0.000172
C32	C	0.542392	1.016071	0.499828
C33	C	0.043803	0.588521	-0.000156
C34	C	0.543803	1.088521	0.499844
C35	C	0.059118	0.363170	-0.042639
C36	C	0.559118	0.863170	0.457361
C37	C	0.057711	0.290720	-0.042659
C38	C	0.557711	0.790720	0.457341
C39	C	0.121387	0.248203	-0.000234
C40	C	0.621387	0.748203	0.499766
C41	C	0.186485	0.278144	0.042200
C42	C	0.686485	0.778144	0.542200
C43	C	0.187896	0.350594	0.042215
C44	C	0.687896	0.850594	0.542215
C45	C	0.124202	0.393105	-0.000207
C46	C	0.624202	0.893105	0.499793
C47	C	0.203203	0.125246	-0.000257
C48	C	0.703203	0.625246	0.499743
C49	C	0.201792	0.052792	-0.000260
C50	C	0.701792	0.552792	0.499740
C51	C	0.033689	0.069148	-0.000257
C52	C	0.533689	0.569148	0.499743
C53	C	0.035103	0.141599	-0.000246
C54	C	0.535103	0.641599	0.499754
C55	C	0.119863	0.169644	-0.000249
C56	C	0.619863	0.669644	0.499751
C57	C	-0.045828	0.825517	-0.000205
C58	C	0.454172	1.325517	0.499795
C59	C	-0.148200	0.824019	-0.000204
C60	C	0.351800	1.324019	0.499796
C61	C	-0.523061	0.818507	-0.000222
C62	C	-0.023061	1.318507	0.499778
C63	C	-0.418762	0.820037	-0.000216
C64	C	0.081238	1.320037	0.499784
C65	C	-0.335633	0.821263	-0.000212
C66	C	0.164367	1.321263	0.499788
C67	C	-0.231329	0.822794	-0.000208
C68	C	0.268671	1.322794	0.499792
C69	C	0.291430	0.815794	-0.000217
C70	C	0.791430	1.315794	0.499783
C71	C	0.393802	0.817291	-0.000223
C72	C	0.893802	1.317291	0.499777
C73	C	0.115541	0.947636	-0.000243
C74	C	0.615541	1.447636	0.499757
C75	C	0.117040	1.024745	-0.000267
C76	C	0.617040	1.524745	0.499733
N77	N	0.122796	0.820631	0.188458
N78	N	0.622796	1.320631	0.688458
C79	C	0.178592	0.862819	0.226539
C80	C	0.678592	1.362819	0.726539
C81	C	0.178590	0.862830	0.302767
C82	C	0.678590	1.362830	0.802767
C83	C	0.122802	0.820639	0.340910
C84	C	0.622802	1.320639	0.840910
C85	C	0.066995	0.778449	0.302820
C86	C	0.566995	1.278449	0.802820
C87	C	0.066992	0.778444	0.226594
C88	C	0.566992	1.278444	0.726594
C89	C	0.120471	0.758019	0.461707
C90	C	0.620471	1.258019	0.961707
C91	C	0.120480	0.758022	0.537932
C92	C	0.620480	1.258022	1.037932
C93	C	0.122807	0.820654	0.576018
C94	C	0.622807	1.320654	1.076018
C95	C	0.125143	0.883284	0.537870
C96	C	0.625143	1.383284	1.037870
C97	C	0.125140	0.883280	0.461643
C98	C	0.625140	1.383280	0.961643
C99	C	0.122799	0.820640	0.423565
C100	C	0.622799	1.320640	0.923565
C101	C	0.178604	0.862857	0.696754
C102	C	0.678604	1.362857	1.196754
C103	C	0.178595	0.862870	0.772983
C104	C	0.678595	1.362870	1.272983
C105	C	0.067006	0.778482	0.773035
C106	C	0.567006	1.278482	1.273035
C107	C	0.067009	0.778476	0.696808
C108	C	0.567009	1.278476	1.196808
C109	C	0.122813	0.820663	0.658671
C110	C	0.622813	1.320663	1.158671
N111	N	0.122806	0.820680	0.811122
N112	N	0.622806	1.320680	1.311122
H113	H	0.269658	0.016645	-0.000268
H114	H	0.769658	0.516645	0.499732
F115	F	0.117934	0.691359	0.421180
F116	F	0.617934	1.191359	0.921180
F117	F	0.257173	0.382457	0.087378
F118	F	0.757173	0.882457	0.587378
H119	H	0.021581	0.744131	0.804091
H120	H	0.521581	1.244131	1.304091
H121	H	0.272220	0.148080	-0.000249
H122	H	0.772220	0.648080	0.499751
F123	F	-0.008659	0.408413	-0.087795
F124	F	0.491341	0.908413	0.412205
H125	H	0.021577	0.744119	0.665802
H126	H	0.521577	1.244119	1.165802
H127	H	0.021571	0.744098	0.333882
H128	H	0.521571	1.244098	0.833882
F129	F	0.007607	0.733537	0.186064
F130	F	0.507607	1.233537	0.686064
H131	H	0.280918	0.594998	-0.000179
H132	H	0.780918	1.094998	0.499821
F133	F	0.299195	0.452459	-0.000196
F134	F	0.799195	0.952459	0.499804
F135	F	-0.044901	0.635773	-0.000141
F136	F	0.455099	1.135773	0.499859
H137	H	-0.026613	0.493226	-0.000188
H138	H	0.473387	0.993226	0.499812
H139	H	0.224028	0.897185	0.333778
H140	H	0.724028	1.397185	0.833778
F141	F	0.254259	0.232900	0.087354
F142	F	0.754259	0.732900	0.587354
F143	F	-0.053598	0.188851	-0.000234
F144	F	0.446402	0.688851	0.499766
F145	F	0.118003	0.691365	0.578525
F146	F	0.618003	1.191365	1.078525
F147	F	-0.056510	0.039297	-0.000258
F148	F	0.443490	0.539297	0.499742
H149	H	0.004708	0.266348	-0.077214
H150	H	0.504708	0.766348	0.422786
F151	F	0.237998	0.907707	0.185956
F152	F	0.737998	1.407707	0.685956
F153	F	0.127625	0.949933	0.421046
F154	F	0.627625	1.449933	0.921046
H155	H	0.127042	0.934285	0.568877
H156	H	0.627042	1.434285	1.068877
F157	F	0.237978	0.907767	0.656164
F158	F	0.737978	1.407767	1.156164
F159	F	0.237980	0.907778	0.813512
F160	F	0.737980	1.407778	1.313512
