data_functionalizedCrystal
_audit_creation_method	'MofGen! by Chris Wilmer'
_symmetry_space_group_name_H-M	'P1'
_symmetry_Int_Tables_number	1
_symmetry_cell_setting	triclinic
loop_
_symmetry_equiv_pos_as_xyz
  x,y,z
_cell_length_a	10.654562
_cell_length_b	14.853559
_cell_length_c	9.730223
_cell_angle_alpha	90.000855
_cell_angle_beta	89.996961
_cell_angle_gamma	84.060779
loop_
_atom_site_label
_atom_site_type_symbol
_atom_site_fract_x
_atom_site_fract_y
_atom_site_fract_z
O1	O	1.666503	0.126677	-0.114373
O2	O	1.300901	0.138729	-0.114355
O3	O	1.493474	0.001525	-0.114363
O4	O	1.473931	0.263881	-0.114365
O5	O	1.493471	0.001529	0.114217
O6	O	1.300899	0.138733	0.114225
O7	O	1.666501	0.126681	0.114207
Zn8	Zn	1.483700	0.132707	0.150508
Zn9	Zn	1.483703	0.132703	-0.150656
O10	O	1.473929	0.263884	0.114215
C11	C	1.254112	0.137844	-0.000063
C12	C	1.114697	0.135189	-0.000056
C13	C	1.049178	0.133952	0.124532
C14	C	0.918181	0.131465	0.124509
C15	C	0.918234	0.131455	-0.124702
C16	C	1.049229	0.133935	-0.124677
C17	C	1.114645	0.135206	0.249152
C18	C	1.049126	0.133971	0.373751
C19	C	0.918130	0.131483	0.373728
C20	C	0.852653	0.130231	0.249107
C21	C	1.492589	-0.032066	-0.000076
C22	C	1.489941	-0.132165	-0.000083
C23	C	1.478710	-0.555402	-0.124682
C24	C	1.478707	-0.555393	0.124525
C25	C	1.481205	-0.461346	0.124526
C26	C	1.482454	-0.414323	-0.000079
C27	C	1.481204	-0.461346	-0.124685
C28	C	1.482442	-0.414315	0.249129
C29	C	1.484939	-0.320262	0.249136
C30	C	1.486197	-0.273238	0.124529
C31	C	1.484948	-0.320267	-0.000082
C32	C	1.486197	-0.273244	-0.124686
C33	C	1.484958	-0.320272	-0.249299
C34	C	1.482462	-0.414322	-0.249291
C35	C	1.488693	-0.179188	0.124522
C36	C	1.488692	-0.179188	-0.124689
C37	C	1.713291	0.127566	-0.000088
C38	C	1.852705	0.130221	-0.000104
C39	C	1.474813	0.297476	-0.000076
C40	C	1.477461	0.397574	-0.000077
N41	N	1.483707	0.132710	0.356044
N42	N	1.483705	0.132693	-0.356192
C43	C	1.569000	0.071977	0.427967
C44	C	1.568996	0.071966	0.571850
C45	C	1.398403	0.193429	0.571875
C46	C	1.398402	0.193435	0.427995
C47	C	1.654305	0.011252	0.356016
C48	C	1.739605	-0.049486	0.427939
C49	C	1.739602	-0.049497	0.571822
C50	C	1.654298	0.011230	0.643782
H51	H	1.489714	-0.140909	-0.226159
H52	H	1.654318	0.011257	0.238860
N53	N	1.119739	0.135312	0.508158
H54	H	1.212666	0.137077	0.489271
H55	H	1.086751	0.190669	0.562562
N56	N	1.481107	-0.465027	0.383519
H57	H	1.559328	-0.455469	0.437982
H58	H	1.403702	-0.441816	0.437891
N59	N	1.486284	-0.269543	0.383529
H60	H	1.485116	-0.313604	0.462464
H61	H	1.565115	-0.237348	0.388947
H62	H	1.481452	-0.452621	-0.350743
N63	N	1.477383	-0.606118	-0.259081
H64	H	1.475618	-0.672835	-0.240180
H65	H	1.400030	-0.582859	-0.313491
N66	N	1.490017	-0.128463	0.258905
H67	H	1.488839	-0.172522	0.337842
H68	H	1.568842	-0.096263	0.264338
H69	H	1.809050	-0.098932	0.369342
H70	H	1.809049	-0.098957	0.630380
N71	N	1.654278	0.011223	0.798971
H72	H	1.635909	-0.050157	0.833619
H73	H	1.739631	0.024948	0.833524
H74	H	1.328953	0.242871	0.630474
N75	N	1.119901	0.135276	-0.259053
H76	H	1.212820	0.137034	-0.240125
H77	H	1.107090	0.079051	-0.313466
N78	N	1.306406	0.258935	0.350408
H79	H	1.252372	0.297407	0.417819
H80	H	1.354544	0.299117	0.290710
H81	H	0.745987	0.128204	0.249098
N82	N	1.255931	0.137894	0.249176
H83	H	1.287465	0.138501	0.347024
H84	H	1.297476	0.082697	0.200205
H85	H	0.864789	0.130470	0.475182
N86	N	0.847609	0.130106	-0.259100
H87	H	0.783188	0.184865	-0.264665
H88	H	0.909075	0.131231	-0.337950
N89	N	1.486183	-0.269540	-0.383691
H90	H	1.487908	-0.202821	-0.364775
H91	H	1.563504	-0.292759	-0.438194
H92	H	1.477682	-0.593684	0.225972
