data_functionalizedCrystal
_audit_creation_method	'MofGen! by Chris Wilmer'
_symmetry_space_group_name_H-M	'P1'
_symmetry_Int_Tables_number	1
_symmetry_cell_setting	triclinic
loop_
_symmetry_equiv_pos_as_xyz
  x,y,z
_cell_length_a	19.288859
_cell_length_b	19.288857
_cell_length_c	18.366186
_cell_angle_alpha	89.996291
_cell_angle_beta	89.992763
_cell_angle_gamma	83.133417
loop_
_atom_site_label
_atom_site_type_symbol
_atom_site_fract_x
_atom_site_fract_y
_atom_site_fract_z
O1	O	0.921351	0.086624	-0.060567
O2	O	0.719089	0.098317	-0.060566
O3	O	0.826067	-0.008660	-0.060558
O4	O	0.814373	0.193602	-0.060575
O5	O	0.826053	-0.008656	0.060541
O6	O	0.719076	0.098321	0.060533
O7	O	0.921337	0.086628	0.060532
Zn8	Zn	0.820204	0.092475	0.079760
Zn9	Zn	0.820222	0.092470	-0.079794
O10	O	0.814359	0.193605	0.060524
C11	C	0.693206	0.097944	-0.000016
C12	C	0.616102	0.096816	-0.000015
C13	C	0.052060	0.151960	-0.000021
C14	C	0.124506	0.153025	-0.000025
C15	C	0.169215	0.090256	-0.000018
C16	C	0.141472	0.026416	-0.000026
C17	C	0.069026	0.025353	-0.000030
C18	C	0.290482	0.043444	0.042415
C19	C	0.362925	0.044510	0.042423
C20	C	0.392661	0.093533	-0.000011
C21	C	0.349942	0.141502	-0.042444
C22	C	0.277497	0.140439	-0.042447
C23	C	0.247771	0.091402	-0.000015
C24	C	0.498950	0.158524	-0.000013
C25	C	0.571399	0.159587	-0.000021
C26	C	0.588363	0.032976	-0.000015
C27	C	0.515916	0.031915	-0.000014
C28	C	0.471214	0.094691	-0.000009
C29	C	0.825685	-0.034535	-0.000008
C30	C	0.824558	-0.111639	-0.000006
C31	C	0.947220	0.087001	-0.000020
C32	C	1.024324	0.088129	-0.000025
N33	N	0.820197	0.092478	0.188651
C34	C	0.824040	-0.147851	-0.066017
C35	C	0.822971	-0.220297	-0.066022
C36	C	0.822435	-0.256530	-0.000013
C37	C	0.822949	-0.220308	0.066007
C38	C	0.824011	-0.147862	0.066011
C39	C	0.861431	-0.376760	0.050555
C40	C	0.860373	-0.449205	0.050548
C41	C	0.819157	-0.479975	-0.000021
C42	C	0.779007	-0.438293	-0.050596
C43	C	0.780069	-0.365848	-0.050592
C44	C	0.821283	-0.335085	-0.000009
C45	C	0.817479	-0.594742	-0.066043
C46	C	0.816406	-0.667189	-0.066045
C47	C	0.816391	-0.667199	0.065986
C48	C	0.817457	-0.594753	0.065987
C49	C	0.818004	-0.558529	-0.000029
C50	C	0.814741	0.219480	-0.000028
C51	C	0.815868	0.296584	-0.000035
N52	N	0.820235	0.092462	-0.188685
C53	C	0.862227	0.134475	0.773196
C54	C	0.862220	0.134482	0.696969
C55	C	0.820229	0.092462	0.658862
C56	C	0.778229	0.050447	0.696990
C57	C	0.778232	0.050446	0.773216
C58	C	0.818504	0.029838	0.538101
C59	C	0.818505	0.029837	0.461876
C60	C	0.820215	0.092464	0.423755
C61	C	0.821937	0.155094	0.461867
C62	C	0.821940	0.155094	0.538094
C63	C	0.820220	0.092458	0.576208
C64	C	0.862201	0.134488	0.302981
C65	C	0.862189	0.134497	0.226752
C66	C	0.778202	0.050455	0.226775
C67	C	0.778210	0.050453	0.303003
C68	C	0.820213	0.092469	0.341101
H69	H	0.374150	0.181423	-0.076995
H70	H	0.744036	0.016233	0.804252
N71	N	0.485998	-0.036934	-0.000001
H72	H	0.433321	-0.028083	-0.000004
H73	H	0.502371	-0.064393	-0.044891
N74	N	0.823783	0.222639	0.579203
H75	H	0.866897	0.219130	0.610825
H76	H	0.824837	0.262281	0.543447
N77	N	0.732912	0.005129	0.185689
H78	H	0.682335	0.018962	0.198964
H79	H	0.739337	0.011521	0.131628
N80	N	0.822375	-0.259382	0.137205
H81	H	0.821629	-0.310773	0.127186
H82	H	0.865609	-0.252485	0.166028
N83	N	0.732931	0.005127	0.344122
H84	H	0.763286	-0.028946	0.375743
H85	H	0.698846	0.035503	0.375713
N86	N	0.824572	-0.108799	0.137212
H87	H	0.824068	-0.142742	0.179030
H88	H	0.868064	-0.084512	0.140088
H89	H	0.817108	-0.021161	0.430851
H90	H	0.817105	-0.021164	0.569134
N91	N	0.189690	-0.041285	-0.000010
H92	H	0.161124	-0.081885	-0.000012
H93	H	0.220128	-0.043602	-0.044899
N94	N	0.039107	-0.043496	-0.000033
H95	H	0.078419	-0.083101	-0.000032
H96	H	0.009413	-0.046695	0.044860
N97	N	0.258404	-0.009422	0.088194
H98	H	0.232345	-0.039697	0.055703
H99	H	0.296487	-0.039596	0.115080
H100	H	0.015667	0.203077	-0.000021
H101	H	0.896428	0.168689	0.804212
H102	H	0.824483	-0.118362	-0.119773
N103	N	0.822412	-0.259373	-0.137219
H104	H	0.779554	-0.240999	-0.166085
H105	H	0.865680	-0.252523	-0.166019
N106	N	0.903674	-0.494160	0.105094
H107	H	0.938033	-0.528873	0.078494
H108	H	0.929894	-0.463625	0.137120
N109	N	0.601314	0.228438	-0.000011
H110	H	0.653991	0.219588	-0.000012
H111	H	0.584951	0.255902	-0.044901
N112	N	0.815814	-0.706275	0.137180
H113	H	0.859044	-0.699438	0.166042
H114	H	0.772918	-0.687883	0.165984
H115	H	0.747376	-0.331913	-0.091771
N116	N	0.734551	-0.471469	-0.105147
H117	H	0.739967	-0.523687	-0.097475
H118	H	0.683990	-0.452004	-0.098375
N119	N	0.450730	0.226227	-0.000016
H120	H	0.479297	0.266828	-0.000022
H121	H	0.420309	0.228540	-0.044910
N122	N	0.636573	-0.034728	-0.000016
H123	H	0.686677	-0.024370	-0.000015
H124	H	0.627609	-0.062559	0.044877
N125	N	0.408989	-0.007223	0.088196
H126	H	0.402934	-0.056278	0.072353
H127	H	0.459375	0.000950	0.081750
N128	N	0.154433	0.221874	-0.000022
H129	H	0.115121	0.261480	-0.000021
H130	H	0.184114	0.225065	0.044874
N131	N	0.818032	-0.555694	0.137187
H132	H	0.818787	-0.504303	0.127174
H133	H	0.774795	-0.562591	0.166016
N134	N	0.823785	0.222648	0.420763
H135	H	0.823519	0.213149	0.366691
H136	H	0.781498	0.256300	0.434096
H137	H	0.817920	-0.565247	-0.119797
N138	N	0.905886	-0.343576	0.105102
H139	H	0.931163	-0.380973	0.137134
H140	H	0.941080	-0.318171	0.078448
N141	N	0.815905	-0.706259	-0.137247
H142	H	0.816435	-0.672318	-0.179064
H143	H	0.858534	-0.742064	-0.140072
H144	H	0.896399	0.168703	0.334003
H145	H	0.896413	0.168697	0.665926
H146	H	0.896382	0.168713	0.195717
H147	H	0.744038	0.016236	0.665959
H148	H	0.242718	0.179495	-0.076998
