data_functionalizedCrystal
_audit_creation_method	'MofGen! by Chris Wilmer'
_symmetry_space_group_name_H-M	'P1'
_symmetry_Int_Tables_number	1
_symmetry_cell_setting	triclinic
loop_
_symmetry_equiv_pos_as_xyz
  x,y,z
_cell_length_a	27.732048
_cell_length_b	10.540539
_cell_length_c	9.616153
_cell_angle_alpha	89.996361
_cell_angle_beta	90.002662
_cell_angle_gamma	83.584073
loop_
_atom_site_label
_atom_site_type_symbol
_atom_site_fract_x
_atom_site_fract_y
_atom_site_fract_z
O1	O	-0.641877	-0.151029	0.115461
O2	O	-0.501228	-0.173992	0.115502
O3	O	-0.574761	0.022335	0.115479
O4	O	-0.568344	-0.347357	0.115484
O5	O	-0.574757	0.022346	-0.115813
O6	O	-0.501224	-0.173982	-0.115790
O7	O	-0.641873	-0.151018	-0.115831
Zn8	Zn	-0.571548	-0.162499	-0.152533
Zn9	Zn	-0.571553	-0.162512	0.152204
O10	O	-0.568340	-0.347346	-0.115808
C11	C	-0.483216	-0.173505	-0.000139
C12	C	-0.429552	-0.172054	-0.000123
C13	C	-0.574278	0.069623	-0.000165
C14	C	-0.572838	0.210508	-0.000157
C15	C	-0.659885	-0.151506	-0.000187
C16	C	-0.713549	-0.152957	-0.000194
C17	C	-0.091410	-0.278933	-0.000181
C18	C	0.110284	-0.273547	-0.000194
O19	O	0.140924	-0.371280	-0.000253
N20	N	0.130140	-0.157133	-0.000193
C21	C	0.099570	-0.042057	-0.000198
O22	O	0.121088	0.057084	-0.000212
C23	C	-0.102122	-0.047444	-0.000196
C24	C	-0.121976	-0.163865	-0.000182
C25	C	-0.111264	-0.395345	-0.000170
C26	C	-0.161685	-0.396690	-0.000159
C27	C	-0.192251	-0.281623	-0.000160
C28	C	-0.172396	-0.165211	-0.000172
C29	C	-0.132691	0.067631	-0.000211
C30	C	-0.183117	0.066274	-0.000214
C31	C	-0.202971	-0.050148	-0.000201
C32	C	-0.253383	-0.051489	-0.000162
N33	N	-0.273240	-0.167903	-0.000163
C34	C	-0.242674	-0.282970	-0.000162
C35	C	0.205462	-0.039237	-0.000197
C36	C	0.255885	-0.037890	-0.000195
C37	C	0.266595	-0.269381	-0.000193
C38	C	0.216171	-0.270726	-0.000185
C39	C	0.185605	-0.155651	-0.000198
C40	C	-0.348561	-0.285786	-0.000138
C41	C	-0.398986	-0.287121	-0.000122
C42	C	-0.409691	-0.055631	-0.000131
C43	C	-0.359270	-0.054295	-0.000140
C44	C	-0.328706	-0.169383	-0.000148
O45	O	-0.284052	0.046192	-0.000119
O46	O	-0.264200	-0.382096	-0.000179
C47	C	-0.040990	-0.277587	-0.000192
C48	C	-0.021135	-0.161175	-0.000204
C49	C	-0.051701	-0.046108	-0.000205
C50	C	0.029288	-0.159828	-0.000202
C51	C	0.059854	-0.274895	-0.000201
C52	C	0.039997	-0.391310	-0.000202
C53	C	-0.010423	-0.392655	-0.000191
C54	C	-0.031845	0.070306	-0.000204
C55	C	0.018576	0.071642	-0.000213
C56	C	0.049142	-0.043425	-0.000212
C57	C	-0.568823	-0.394633	-0.000161
C58	C	-0.570263	-0.535519	-0.000160
N59	N	-0.571548	-0.162488	-0.360507
C60	C	-0.517663	0.391539	0.000379
C61	C	-0.519123	0.244984	-0.000142
C62	C	-0.598686	0.273294	-0.132243
C63	C	-0.596853	0.419759	-0.132354
C64	C	-0.597950	0.420313	0.130668
C65	C	-0.598445	0.273352	0.132414
C66	C	-0.610905	-0.057477	-0.419518
C67	C	-0.611052	-0.057758	-0.580686
C68	C	-0.582818	-0.294900	-0.581289
C69	C	-0.583096	-0.294269	-0.420071
C70	C	-0.520815	-0.136310	-0.419927
C71	C	-0.521149	-0.133308	-0.581156
N72	N	-0.571557	-0.162512	0.360178
H73	H	-0.415148	-0.381929	-0.000110
H74	H	-0.555453	-0.374549	-0.381031
O75	O	-0.631284	-0.326332	-0.634763
H76	H	-0.638840	-0.420149	-0.592664
H77	H	-0.490471	-0.204881	-0.621404
H78	H	-0.116536	0.162434	-0.000223
O79	O	-0.491992	0.188482	-0.125758
H80	H	-0.516966	0.139287	-0.191787
H81	H	-0.510053	-0.041857	-0.379278
H82	H	-0.577747	0.447133	-0.231080
O83	O	-0.492180	0.187370	0.125275
H84	H	-0.493199	0.082401	0.125032
H85	H	-0.434587	0.038054	-0.000126
O86	O	-0.216086	0.190393	-0.000222
H87	H	-0.193805	0.271565	-0.000221
H88	H	-0.491523	-0.212896	-0.381762
O89	O	-0.489548	0.428212	0.125824
H90	H	-0.512761	0.498824	0.189131
H91	H	0.064893	-0.485001	-0.000195
O92	O	-0.489665	0.430313	-0.124380
H93	H	-0.513051	0.501308	-0.186771
H94	H	-0.635484	0.469406	-0.138357
H95	H	-0.604310	0.040667	-0.620263
O96	O	-0.660503	-0.079113	-0.365877
H97	H	-0.675988	0.005851	-0.306014
H98	H	-0.554927	-0.374911	-0.619590
H99	H	-0.637607	0.250831	0.140378
O100	O	-0.031835	-0.518223	-0.000205
H101	H	-0.002103	-0.597999	-0.000224
O102	O	-0.650937	0.245948	-0.138792
H103	H	-0.659056	0.187171	-0.047757
O104	O	-0.649345	0.485085	0.131840
H105	H	-0.655480	0.542611	0.228184
O106	O	-0.574903	0.215842	-0.262438
H107	H	-0.536116	0.232790	-0.263735
H108	H	-0.580566	0.451106	0.230780
O109	O	-0.337851	0.071269	-0.000150
H110	H	-0.367579	0.151055	-0.000155
O111	O	0.277296	0.087679	-0.000190
H112	H	0.300013	0.093831	-0.094457
H113	H	-0.056727	0.164010	-0.000208
O114	O	-0.573432	0.218039	0.261862
H115	H	-0.542892	0.146081	0.231923
H116	H	-0.604274	0.041279	-0.380733
O117	O	-0.660913	-0.079880	-0.631796
H118	H	-0.685013	-0.090431	-0.541361
O119	O	-0.632118	-0.324899	-0.370252
H120	H	-0.638794	-0.420513	-0.409199
O121	O	-0.315598	-0.409912	-0.000135
H122	H	-0.337882	-0.491077	-0.000112
O123	O	-0.183096	-0.522259	-0.000186
H124	H	-0.153364	-0.602035	-0.000210
H125	H	-0.512609	-0.035921	-0.619413
O126	O	-0.078300	-0.519463	-0.000163
H127	H	-0.100585	-0.600625	-0.000146
H128	H	0.291491	-0.363073	-0.000193
O129	O	0.194758	-0.396293	-0.000197
H130	H	0.224488	-0.476072	-0.000208
O131	O	0.172497	0.084887	-0.000205
H132	H	0.194781	0.166052	-0.000192
H133	H	0.034736	0.166453	-0.000213
