data_functionalizedCrystal
_audit_creation_method	'MofGen! by Chris Wilmer'
_symmetry_space_group_name_H-M	'P1'
_symmetry_Int_Tables_number	1
_symmetry_cell_setting	triclinic
loop_
_symmetry_equiv_pos_as_xyz
  x,y,z
_cell_length_a	23.532355
_cell_length_b	10.654551
_cell_length_c	22.610064
_cell_angle_alpha	89.983100
_cell_angle_beta	89.995136
_cell_angle_gamma	96.343620
loop_
_atom_site_label
_atom_site_type_symbol
_atom_site_fract_x
_atom_site_fract_y
_atom_site_fract_z
O1	O	0.756266	-0.152155	0.049101
O2	O	0.590542	-0.174280	0.049120
O3	O	0.677214	0.019644	0.049110
O4	O	0.669594	-0.346079	0.049112
O5	O	0.677215	0.019705	-0.049260
O6	O	0.590543	-0.174219	-0.049249
O7	O	0.756267	-0.152095	-0.049268
Zn8	Zn	0.673405	-0.163147	-0.064877
Zn9	Zn	0.673404	-0.163227	0.064729
O10	O	0.669595	-0.346018	-0.049258
C11	C	0.569323	-0.173697	-0.000062
C12	C	0.506093	-0.172034	-0.000055
C13	C	0.676655	0.066454	-0.000074
C14	C	0.674981	0.205844	-0.000070
C15	C	0.114012	-0.161554	-0.053701
C16	C	0.054602	-0.159972	-0.053703
O17	O	0.023878	-0.159083	-0.099306
N18	N	0.024888	-0.159220	-0.000083
C19	C	0.054587	-0.160038	0.053544
O20	O	0.023858	-0.159252	0.099153
C21	C	0.113997	-0.161611	0.053546
C22	C	0.143707	-0.162375	-0.000079
C23	C	0.143722	-0.162316	-0.107321
C24	C	0.203128	-0.163900	-0.107319
C25	C	0.232823	-0.164722	-0.053696
C26	C	0.203112	-0.163959	-0.000076
C27	C	0.143695	-0.162420	0.107172
C28	C	0.203109	-0.163992	0.107169
C29	C	0.232819	-0.164756	0.053544
C30	C	0.292213	-0.166365	0.053549
N31	N	0.321927	-0.167116	-0.000072
C32	C	0.292232	-0.166295	-0.053694
C33	C	-0.070176	-0.156733	0.053536
C34	C	-0.129584	-0.155169	0.053535
C35	C	-0.129565	-0.155100	-0.053712
C36	C	-0.070156	-0.156673	-0.053711
C37	C	-0.040462	-0.157484	-0.000084
C38	C	0.416988	-0.169623	-0.053685
C39	C	0.476398	-0.171212	-0.053678
C40	C	0.476374	-0.171274	0.053570
C41	C	0.416969	-0.169691	0.053563
C42	C	0.387277	-0.168862	-0.000070
O43	O	0.322975	-0.167249	0.099128
O44	O	0.322970	-0.167064	-0.099295
C45	C	0.674194	0.271289	0.053552
C46	C	0.672617	0.402259	0.053553
C47	C	0.672614	0.402327	-0.053695
C48	C	0.674188	0.271358	-0.053695
C49	C	0.637161	0.571154	0.117980
C50	C	0.636384	0.636607	0.171605
C51	C	0.670207	0.604123	0.218944
C52	C	0.704821	0.506192	0.212660
C53	C	0.705602	0.440747	0.159035
C54	C	0.671766	0.473225	0.111698
C55	C	0.709648	0.102463	-0.118119
C56	C	0.710434	0.037017	-0.171745
C57	C	0.676614	0.069499	-0.219089
C58	C	0.642009	0.167437	-0.212811
C59	C	0.641224	0.232883	-0.159185
C60	C	0.675042	0.200391	-0.111841
C61	C	0.777486	-0.152678	-0.000084
C62	C	0.840716	-0.154341	-0.000088
C63	C	0.670154	0.607171	-0.000072
C64	C	0.671829	0.467782	-0.000068
N65	N	0.673403	-0.163272	0.153181
C66	C	0.638643	-0.087229	0.561826
C67	C	0.638644	-0.087214	0.623746
O68	O	0.609094	-0.022606	0.655768
N69	N	0.673406	-0.163136	0.654718
C70	C	0.708175	-0.239068	0.623768
O71	O	0.737744	-0.303644	0.655798
C72	C	0.708176	-0.239076	0.561849
C73	C	0.673407	-0.163159	0.530880
C74	C	0.603876	-0.011317	0.530857
C75	C	0.603875	-0.011334	0.468941
C76	C	0.638639	-0.087264	0.437995
C77	C	0.673405	-0.163176	0.468964
C78	C	0.742947	-0.315001	0.530899
C79	C	0.742946	-0.315002	0.468976
C80	C	0.708177	-0.239084	0.438007
C81	C	0.708168	-0.239123	0.376102
N82	N	0.673405	-0.163201	0.345130
C83	C	0.638641	-0.087271	0.376076
C84	C	0.708169	-0.239045	0.753801
C85	C	0.708165	-0.239045	0.815719
C86	C	0.638635	-0.087188	0.815693
C87	C	0.638636	-0.087195	0.753774
C88	C	0.673407	-0.163123	0.722829
C89	C	0.638639	-0.087314	0.246049
C90	C	0.638639	-0.087343	0.184128
C91	C	0.708171	-0.239194	0.184159
C92	C	0.708170	-0.239171	0.246075
C93	C	0.673402	-0.163222	0.277018
O94	O	0.737704	-0.303693	0.344041
O95	O	0.609082	-0.022694	0.344038
N96	N	0.673403	-0.163109	0.846671
H97	H	0.392819	-0.168958	-0.097357
H98	H	0.119515	-0.161796	0.150839
H99	H	0.119551	-0.161645	-0.150989
N100	N	0.744198	0.069263	-0.069761
N101	N	0.775099	-0.018170	-0.075377
H102	H	0.799504	-0.041616	-0.041227
H103	H	0.610323	-0.025522	0.158915
H104	H	0.669574	0.657424	0.262606
N105	N	0.568359	0.066228	0.562471
N106	N	0.568350	0.066236	0.617755
H107	H	0.543260	0.120999	0.640079
H108	H	0.677262	0.016210	-0.262756
N109	N	0.233448	-0.164837	0.161943
N110	N	0.286490	-0.166253	0.161943
H111	H	0.307917	-0.166853	0.200627
N112	N	0.743669	-0.316604	0.847358
N113	N	0.721695	-0.399808	0.881928
H114	H	0.746772	-0.454583	0.904272
H115	H	-0.153770	-0.154567	0.097202
H116	H	0.738615	-0.042726	-0.176854
H117	H	0.674839	0.217951	0.097217
H118	H	0.227313	-0.164515	-0.150985
N119	N	0.743690	-0.316620	0.722203
N120	N	0.774724	-0.384396	0.749870
H121	H	0.799812	-0.439183	0.727557
N122	N	0.607451	0.200606	-0.261166
N123	N	0.554344	0.193481	-0.255593
H124	H	0.529937	0.216905	-0.289745
N125	N	0.603132	-0.009707	0.277641
N126	N	0.572101	0.058072	0.249973
H127	H	0.547024	0.112885	0.272285
N128	N	0.740963	0.340737	0.152610
N129	N	0.793895	0.362487	0.159005
H130	H	0.818868	0.291851	0.154470
N131	N	-0.039855	-0.157567	0.108324
N132	N	-0.066398	-0.156894	0.156192
H133	H	-0.044987	-0.157481	0.194886
H134	H	0.736474	-0.301017	0.158951
N135	N	0.386625	-0.168927	0.108342
N136	N	0.413148	-0.169665	0.156215
H137	H	0.391722	-0.169113	0.194905
N138	N	0.778457	-0.392580	0.562514
N139	N	0.809488	-0.460367	0.534864
H140	H	0.834567	-0.515169	0.557190
H141	H	0.732367	0.479762	0.251209
H142	H	0.500563	-0.171948	0.097228
H143	H	0.575564	0.050491	0.443732
N144	N	0.601029	0.736640	0.178013
N145	N	0.570825	0.765627	0.135743
H146	H	0.545860	0.836281	0.140268
N147	N	0.603115	-0.009662	0.722142
N148	N	0.550102	-0.025101	0.729065
H149	H	0.525013	0.029660	0.706728
H150	H	0.610328	-0.025362	0.840901
N151	N	0.778471	-0.392563	0.437377
N152	N	0.809510	-0.460331	0.465040
H153	H	0.834599	-0.515110	0.442725
H154	H	0.609611	0.597601	0.079439
H155	H	0.736474	-0.301007	0.271291
N156	N	0.671818	0.469253	-0.108469
N157	N	0.712066	0.466738	-0.144378
H158	H	0.711506	0.514002	-0.183065
N159	N	0.606063	0.333253	-0.152728
N160	N	0.613552	0.427704	-0.185776
H161	H	0.588790	0.498711	-0.181199
N162	N	0.506736	-0.172006	-0.108462
N163	N	0.480211	-0.171274	-0.156334
H164	H	0.501635	-0.171835	-0.195024
H165	H	-0.153754	-0.154429	-0.097375
H166	H	-0.045970	-0.157297	-0.097376
