data_functionalizedCrystal
_audit_creation_method	'MofGen! by Chris Wilmer'
_symmetry_space_group_name_H-M	'P1'
_symmetry_Int_Tables_number	1
_symmetry_cell_setting	triclinic
loop_
_symmetry_equiv_pos_as_xyz
  x,y,z
_cell_length_a	27.440280
_cell_length_b	27.440280
_cell_length_c	15.698487
_cell_angle_alpha	59.994162
_cell_angle_beta	90.004054
_cell_angle_gamma	60.007024
loop_
_atom_site_label
_atom_site_type_symbol
_atom_site_fract_x
_atom_site_fract_y
_atom_site_fract_z
Zr1	Zr	0.469580	0.533355	-0.111765
O2	O	0.391776	0.635028	-0.247813
O3	O	0.493420	0.431687	-0.070049
O4	O	0.493436	0.533351	-0.247775
O5	O	0.391760	0.533367	0.070095
O6	O	0.573639	0.533341	-0.247757
O7	O	0.391761	0.533365	-0.070087
O8	O	0.573611	0.351484	0.070162
O9	O	0.391788	0.715224	-0.247825
O10	O	0.563455	0.473496	-0.052257
O11	O	0.503600	0.473504	0.052345
O12	O	0.503619	0.593200	-0.156904
O13	O	0.443764	0.593208	-0.052302
Zr14	Zr	0.597493	0.533343	0.111835
Zr15	Zr	0.597494	0.533340	-0.111737
Zr16	Zr	0.469579	0.533358	0.111807
Zr17	Zr	0.469598	0.661258	-0.111785
Zr18	Zr	0.597474	0.405440	0.111855
O19	O	0.573652	0.635011	0.070119
O20	O	0.573654	0.635007	-0.247773
O21	O	0.391775	0.635033	0.070079
O22	O	0.675296	0.431670	0.247883
O23	O	0.675298	0.431666	-0.070009
O24	O	0.493419	0.431692	0.247843
O25	O	0.675313	0.533332	-0.070024
O26	O	0.573637	0.533348	0.247845
O27	O	0.493434	0.533357	0.247827
O28	O	0.675312	0.533334	0.070157
O29	O	0.493463	0.715212	-0.247803
O30	O	0.573610	0.351486	0.247873
O31	O	0.675285	0.351474	0.247895
O32	O	0.675286	0.351472	0.070185
O33	O	0.391787	0.715226	-0.070114
O34	O	0.493462	0.715214	-0.070092
O35	O	0.563454	0.473499	0.156974
O36	O	0.623309	0.473490	0.052372
O37	O	0.563473	0.593194	-0.052275
O38	O	0.503618	0.593203	0.052327
C39	C	0.533513	0.373362	0.000060
C40	C	0.533505	0.319064	0.000068
C41	C	0.373535	0.533368	-0.000000
C42	C	0.319232	0.533374	-0.000012
C43	C	0.577720	0.040177	0.077283
C44	C	0.577714	0.091198	0.077287
O45	O	0.615294	0.080018	0.142959
N46	N	0.533531	0.160894	0.000047
C47	C	0.489353	0.179567	-0.077208
O48	O	0.451771	0.243533	-0.142907
C49	C	0.489361	0.128545	-0.077215
C50	C	0.533544	0.058850	0.000036
C51	C	0.621900	-0.029515	0.154527
C52	C	0.621904	-0.080534	0.154524
C53	C	0.577729	-0.061860	0.077276
C54	C	0.533549	0.007832	0.000032
C55	C	0.445187	0.147219	-0.154474
C56	C	0.445199	0.096190	-0.154475
C57	C	0.489382	0.026495	-0.077224
C58	C	0.489378	-0.024513	-0.077218
N59	N	0.533562	-0.094208	0.000022
C60	C	0.577738	-0.112882	0.077269
C61	C	0.489339	0.286712	-0.077188
C62	C	0.489328	0.337733	-0.077177
C63	C	0.577690	0.249361	0.077317
C64	C	0.577698	0.198340	0.077310
C65	C	0.533523	0.217017	0.000052
C66	C	0.577744	-0.220020	0.077257
C67	C	0.577743	-0.271039	0.077249
C68	C	0.489383	-0.182663	-0.077247
C69	C	0.489381	-0.131648	-0.077237
C70	C	0.533567	-0.150332	0.000020
O71	O	0.451820	-0.013384	-0.142859
O72	O	0.615318	-0.176848	0.142949
C73	C	0.013769	0.470854	0.054688
C74	C	-0.037250	0.470850	0.054698
O75	O	-0.037074	0.417709	0.101186
N76	N	-0.094001	0.533333	0.000072
C77	C	-0.099732	0.595825	-0.054558
O78	O	-0.152688	0.648972	-0.101020
C79	C	-0.048714	0.595828	-0.054560
C80	C	0.008036	0.533340	0.000060
C81	C	0.070516	0.408371	0.109306
C82	C	0.121531	0.408375	0.109295
C83	C	0.115798	0.470862	0.054666
C84	C	0.059051	0.533344	0.000049
C85	C	-0.054447	0.658319	-0.109184
C86	C	-0.003422	0.658316	-0.109181
C87	C	0.053328	0.595829	-0.054560
C88	C	0.104333	0.595835	-0.054590
N89	N	0.161083	0.533351	0.000036
C90	C	0.166816	0.470865	0.054664
C91	C	-0.206871	0.595814	-0.054547
C92	C	-0.257888	0.595811	-0.054551
C93	C	-0.195402	0.470836	0.054706
C94	C	-0.144384	0.470839	0.054704
C95	C	-0.150120	0.533330	0.000079
C96	C	0.273949	0.470878	0.054636
C97	C	0.324965	0.470888	0.054616
C98	C	0.262475	0.595862	-0.054636
C99	C	0.211463	0.595853	-0.054622
C100	C	0.217203	0.533356	0.000022
O101	O	0.104203	0.648948	-0.101051
O102	O	0.219773	0.417727	0.101129
C103	C	0.693537	0.533330	0.000070
C104	C	0.747840	0.533324	0.000082
C105	C	0.533538	0.533345	-0.279620
C106	C	0.533538	0.533344	-0.374533
C107	C	0.533560	0.693336	0.000010
C108	C	0.533568	0.747634	0.000002
C109	C	0.533538	0.533342	-0.451612
C110	C	0.533538	0.533346	-0.548316
C111	C	0.533535	0.533353	0.279690
C112	C	0.533535	0.533354	0.374603
C113	C	0.693514	0.373343	0.000095
C114	C	0.747809	0.319039	0.000115
C115	C	0.533512	0.373366	0.279715
C116	C	0.533503	0.319069	0.374636
C117	C	0.693513	0.373347	0.279750
C118	C	0.747807	0.319044	0.374683
C119	C	0.373560	0.693351	-0.279680
C120	C	0.319265	0.747654	-0.374613
C121	C	0.373559	0.693355	-0.000025
C122	C	0.319264	0.747660	-0.000045
C123	C	0.533561	0.693332	-0.279645
C124	C	0.533569	0.747629	-0.374566
C125	C	0.742063	0.293540	-0.054500
C126	C	0.793075	0.242522	-0.054502
C127	C	0.849831	0.217001	0.000118
C128	C	0.855575	0.242505	0.054734
C129	C	0.804565	0.293525	0.054730
C130	C	0.564743	0.293568	0.473836
C131	C	0.564732	0.242557	0.563033
C132	C	0.533486	0.217046	0.553027
C133	C	0.502243	0.242552	0.453816
C134	C	0.502250	0.293565	0.364622
C135	C	0.804554	0.293538	0.364663
C136	C	0.855574	0.242522	0.453853
C137	C	0.849847	0.217008	0.553063
C138	C	0.793095	0.242519	0.563081
C139	C	0.742076	0.293538	0.473891
C140	C	0.262519	0.773166	-0.364593
C141	C	0.211499	0.824199	-0.453783
C142	C	0.217226	0.849715	-0.552993
C143	C	0.273978	0.824201	-0.563011
C144	C	0.324997	0.773173	-0.473821
C145	C	0.325009	0.773164	0.054561
C146	C	0.273998	0.824196	0.054538
C147	C	0.217242	0.849719	-0.000085
C148	C	0.211498	0.824212	-0.054697
C149	C	0.262508	0.773185	-0.054680
C150	C	0.564822	0.773125	-0.364526
C151	C	0.564841	0.824136	-0.453706
C152	C	0.533605	0.849654	-0.552924
C153	C	0.502351	0.824153	-0.562961
C154	C	0.502336	0.773140	-0.473783
H155	H	0.613723	-0.327790	0.140161
F156	F	0.256384	0.746043	-0.112796
H157	H	0.175711	0.891269	-0.000090
F158	F	0.787009	0.215359	0.668676
F159	F	0.904152	0.162708	0.647979
H160	H	0.165280	0.845001	-0.099170
F161	F	0.442295	0.411906	-0.159386
F162	F	0.598071	0.745976	-0.258939
F163	F	0.681683	0.320675	0.484572
F164	F	0.280124	0.851331	0.112670
F165	F	0.385390	0.746022	-0.484502
H166	H	-0.100647	0.709203	-0.153660
F167	F	0.533485	0.162752	0.647966
H168	H	0.809228	0.314304	0.283889
F169	F	0.162921	0.904023	-0.647909
H170	H	0.257844	0.752394	-0.283819
H171	H	0.590290	0.844893	-0.445513
H172	H	0.165293	0.844964	-0.445606
F173	F	0.442369	-0.162800	-0.159452
F174	F	0.915984	0.215334	0.112864
H175	H	0.901780	0.221756	0.445678
F176	F	0.533625	0.903949	-0.647828
H177	H	0.476919	0.844938	-0.643756
F178	F	0.810689	0.320654	0.112868
H179	H	0.476803	0.221773	0.445685
H180	H	0.278634	0.844982	-0.643798
H181	H	0.371174	0.420001	0.099098
H182	H	0.371218	0.752387	0.099048
F183	F	0.469066	0.746016	-0.484483
F184	F	0.598004	0.320708	0.484509
F185	F	0.624771	-0.239914	0.159482
H186	H	0.657885	-0.137280	0.217427
H187	H	0.613676	0.141593	0.140214
F188	F	0.668922	-0.049404	0.236751
H189	H	0.613660	0.234164	0.140216
F190	F	-0.318282	0.662319	-0.112700
H191	H	0.453361	0.301930	-0.140099
F192	F	0.442353	-0.057471	-0.159449
H193	H	0.409212	0.203961	-0.217387
F194	F	-0.189309	0.404332	0.112848
H195	H	0.278632	0.419986	0.099133
F196	F	0.398181	0.116076	-0.236708
H197	H	0.075194	0.357484	0.153796
F198	F	0.181925	0.341867	0.167436
H199	H	-0.098179	0.419956	0.099190
H200	H	-0.211549	0.646704	-0.099034
H201	H	-0.008100	0.709205	-0.153650
F202	F	0.597989	0.215419	0.668610
F203	F	0.469002	0.320697	0.259048
H204	H	0.165253	0.646736	-0.099112
H205	H	0.257817	0.646737	-0.099117
F206	F	0.681664	0.320694	-0.112641
F207	F	0.786948	0.215386	-0.112631
F208	F	0.904116	0.162699	0.000115
