data_functionalizedCrystal
_audit_creation_method	'MofGen! by Chris Wilmer'
_symmetry_space_group_name_H-M	'P1'
_symmetry_Int_Tables_number	1
_symmetry_cell_setting	triclinic
loop_
_symmetry_equiv_pos_as_xyz
  x,y,z
_cell_length_a	20.453700
_cell_length_b	15.866433
_cell_length_c	11.168136
_cell_angle_alpha	69.440185
_cell_angle_beta	108.508683
_cell_angle_gamma	77.342831
loop_
_atom_site_label
_atom_site_type_symbol
_atom_site_fract_x
_atom_site_fract_y
_atom_site_fract_z
V1	V	1.372929	-0.132664	0.455465
O2	O	1.356346	0.006360	0.383244
O3	O	1.367942	-0.263035	0.513472
O4	O	1.364981	-0.130629	0.626224
O5	O	1.359329	-0.126962	0.269711
V6	V	1.531634	-0.116034	0.425823
O7	O	1.465433	-0.169142	0.520489
O8	O	1.589195	-0.079556	0.360799
O9	O	1.462218	0.014338	0.367816
O10	O	1.587349	-0.255058	0.498045
O11	O	1.584366	-0.121735	0.611577
O12	O	1.465180	-0.118068	0.255064
V13	V	1.039596	-0.132664	0.455465
O14	O	1.023013	0.006360	0.383244
O15	O	1.034609	-0.263035	0.513472
O16	O	1.031647	-0.130629	0.626224
O17	O	1.025996	-0.126962	0.269711
V18	V	1.198300	-0.116034	0.425823
O19	O	1.132100	-0.169142	0.520489
O20	O	1.255862	-0.079556	0.360799
O21	O	1.128885	0.014338	0.367816
O22	O	1.254015	-0.255058	0.498045
O23	O	1.251033	-0.121735	0.611577
O24	O	1.131847	-0.118068	0.255064
C25	C	1.318723	-0.294817	0.522058
C26	C	1.341796	-0.401398	0.570624
V27	V	1.706263	-0.132664	0.455465
O28	O	1.689680	0.006360	0.383244
O29	O	1.701276	-0.263035	0.513472
O30	O	1.698314	-0.130629	0.626224
O31	O	1.692662	-0.126962	0.269711
V32	V	1.864967	-0.116034	0.425823
O33	O	1.798767	-0.169142	0.520489
O34	O	1.922529	-0.079556	0.360799
O35	O	1.795552	0.014338	0.367816
O36	O	1.920682	-0.255058	0.498045
O37	O	1.917700	-0.121735	0.611577
O38	O	1.798514	-0.118068	0.255064
C39	C	1.394548	-0.565314	0.761077
C40	C	1.372865	-0.465163	0.715428
C41	C	1.332394	-0.437764	0.471410
C42	C	1.354070	-0.537914	0.517038
C43	C	1.385147	-0.601681	0.661873
C44	C	1.344669	-0.574282	0.417835
C45	C	1.366347	-0.674423	0.463460
C46	C	1.397426	-0.738197	0.608289
C47	C	1.406825	-0.701823	0.707499
C48	C	1.313597	-0.510513	0.273001
C49	C	1.304197	-0.546881	0.173797
C50	C	1.325870	-0.647023	0.219421
C51	C	1.356949	-0.710797	0.364250
C52	C	1.316471	-0.683397	0.120212
C53	C	1.338149	-0.783538	0.165837
C54	C	1.378627	-0.810938	0.409876
C55	C	1.314944	-0.125919	0.665883
C56	C	1.335614	-0.125118	0.805880
C57	C	1.399219	0.046114	0.359229
C58	C	1.369226	0.152694	0.310672
C59	C	1.402997	-0.122782	0.215400
C60	C	1.375407	-0.123577	0.075399
C61	C	0.985390	-0.294817	0.522058
C62	C	1.008462	-0.401398	0.570624
C63	C	1.403210	-0.129309	0.876523
C64	C	1.424574	-0.128482	1.021218
C65	C	0.981611	-0.125919	0.665883
C66	C	1.002280	-0.125118	0.805880
C67	C	1.065885	0.046114	0.359229
C68	C	1.035892	0.152694	0.310672
C69	C	1.069664	-0.122782	0.215400
C70	C	1.042074	-0.123577	0.075399
C71	C	1.652056	-0.294817	0.522058
C72	C	1.675129	-0.401398	0.570624
C73	C	1.648278	-0.125919	0.665883
C74	C	1.668947	-0.125118	0.805880
C75	C	1.732552	0.046114	0.359229
C76	C	1.702559	0.152694	0.310672
C77	C	1.736331	-0.122782	0.215400
C78	C	1.708740	-0.123577	0.075399
C79	C	1.080740	-0.456338	0.602016
C80	C	1.102432	-0.556485	0.647669
C81	C	1.051844	-0.601688	0.661920
C82	C	0.979561	-0.546741	0.630528
C83	C	0.957872	-0.446597	0.584885
C84	C	1.078611	0.207634	0.279284
C85	C	1.050434	0.307780	0.233637
C86	C	0.979540	0.352983	0.219389
C87	C	0.936818	0.298037	0.250777
C88	C	0.964993	0.197894	0.296413
C89	C	1.747406	-0.456338	0.602016
C90	C	1.769099	-0.556485	0.647669
C91	C	1.718511	-0.601688	0.661920
C92	C	1.646228	-0.546741	0.630528
C93	C	1.624539	-0.446597	0.584885
C94	C	1.745278	0.207634	0.279284
C95	C	1.717101	0.307780	0.233637
C96	C	1.646206	0.352983	0.219389
C97	C	1.603484	0.298037	0.250777
C98	C	1.631660	0.197894	0.296413
C99	C	1.069877	-0.129309	0.876523
C100	C	1.091241	-0.128482	1.021218
C101	C	1.736543	-0.129309	0.876523
C102	C	1.757908	-0.128482	1.021218
H103	H	1.403924	-0.862861	0.527813
O104	O	1.741914	-0.709702	0.711145
H105	H	1.694599	-0.731914	0.715793
O106	O	1.801981	-0.407602	0.586659
H107	H	1.774765	-0.328732	0.549637
H108	H	1.445264	-0.133502	0.829877
H109	H	1.778597	-0.133502	0.829877
H110	H	1.149150	-0.132074	1.081942
O111	O	1.763191	0.367025	0.199800
H112	H	1.731692	0.444259	0.165653
O113	O	1.135309	-0.407593	0.586655
H114	H	1.143488	-0.372433	0.657495
H115	H	0.956606	0.434527	0.182227
O116	O	1.180390	-0.615736	0.681498
H117	H	1.211912	-0.567469	0.663887
H118	H	1.803006	0.170843	0.290879
H119	H	0.960223	-0.120912	0.852518
H120	H	1.278895	-0.494948	0.055872
O121	O	1.527025	0.346806	0.235421
H122	H	1.485201	0.335510	0.157051
O123	O	1.847056	-0.615736	0.681498
H124	H	1.878579	-0.567469	0.663887
O125	O	1.125588	-0.134863	0.814749
H126	H	1.175155	-0.202660	0.888131
H127	H	1.069515	-0.683233	0.699086
H128	H	1.815816	-0.132074	1.081942
H129	H	1.626890	-0.120912	0.852518
O130	O	1.632028	-0.118807	0.994965
H131	H	1.636643	-0.184565	0.978649
O132	O	1.440349	-0.770614	0.863715
H133	H	1.399961	-0.754318	0.907071
O134	O	1.615832	0.460993	0.170194
H135	H	1.612956	0.499746	0.063241
H136	H	1.330493	-0.813149	0.085055
H137	H	1.415078	-0.819738	0.645435
H138	H	1.605045	-0.583561	0.642138
O139	O	0.965361	-0.118807	0.994965
H140	H	0.969976	-0.184565	0.978649
H141	H	1.419845	-0.617237	0.879015
O142	O	1.546577	-0.387340	0.551010
H143	H	1.515048	-0.435604	0.568578
O144	O	1.096518	0.367036	0.199799
H145	H	1.106364	0.402661	0.269822
O146	O	1.382999	-0.425934	0.822431
H147	H	1.408245	-0.487102	0.930804
O148	O	1.501281	-0.133226	1.101628
H149	H	1.506022	-0.131823	1.202652
H150	H	1.293557	-0.120912	0.852518
H151	H	1.596870	0.153167	0.321979
H152	H	1.307092	-0.385832	0.353485
O153	O	1.282951	-0.614611	-0.035996
H154	H	1.323343	-0.630908	-0.079342
O155	O	0.925002	-0.595501	0.645903
H156	H	0.952233	-0.674365	0.682903
O157	O	0.879910	-0.387340	0.551010
H158	H	0.848382	-0.435604	0.568578
H159	H	0.879093	0.334857	0.239168
O160	O	1.290187	-0.402498	0.223763
H161	H	1.321663	-0.373809	0.165466
O162	O	1.155073	0.158891	0.294629
H163	H	1.180031	0.213933	0.265109
O164	O	0.918920	0.138636	0.330296
H165	H	0.864896	0.186899	0.312736
H166	H	1.317500	-0.119996	1.014691
