data_functionalizedCrystal
_audit_creation_method	'MofGen! by Chris Wilmer'
_symmetry_space_group_name_H-M	'P1'
_symmetry_Int_Tables_number	1
_symmetry_cell_setting	triclinic
loop_
_symmetry_equiv_pos_as_xyz
  x,y,z
_cell_length_a	10.723024
_cell_length_b	10.654550
_cell_length_c	9.730223
_cell_angle_alpha	90.000193
_cell_angle_beta	89.999921
_cell_angle_gamma	84.476386
loop_
_atom_site_label
_atom_site_type_symbol
_atom_site_fract_x
_atom_site_fract_y
_atom_site_fract_z
O1	O	-1.657207	-0.176144	-0.114277
O2	O	-1.294058	-0.193005	-0.114282
O3	O	-1.483982	-0.001834	-0.114274
O4	O	-1.467283	-0.367315	-0.114285
O5	O	-1.483980	-0.001839	0.114306
O6	O	-1.294055	-0.193010	0.114298
O7	O	-1.657205	-0.176149	0.114303
Zn8	Zn	-1.475630	-0.184580	0.150593
Zn9	Zn	-1.475633	-0.184574	-0.150571
O10	O	-1.467281	-0.367320	0.114295
C11	C	-1.247557	-0.191780	0.000008
C12	C	-1.109002	-0.188109	0.000006
C13	C	-1.482755	0.044961	0.000014
C14	C	-1.479086	0.184404	0.000009
C15	C	-1.703706	-0.177373	0.000010
C16	C	-1.842261	-0.181045	0.000003
C17	C	-1.034035	-0.295078	0.000002
C18	C	-0.890831	-0.291287	0.000001
C19	C	-1.468508	-0.414115	0.000004
C20	C	-1.472176	-0.553558	-0.000000
N21	N	-1.475637	-0.184584	0.356129
C22	C	-1.590911	0.263907	0.000015
C23	C	-1.587456	0.394927	0.000005
C24	C	-1.360343	0.366929	-0.000010
C25	C	-1.363799	0.235912	-0.000010
C26	C	-1.722033	0.280072	0.000029
C27	C	-1.718579	0.411092	0.000020
N28	N	-1.475636	-0.184560	-0.356108
C29	C	-1.559757	-0.099962	0.428058
C30	C	-1.559754	-0.099947	0.571941
C31	C	-1.391506	-0.269186	0.571953
C32	C	-1.391504	-0.269194	0.428073
C33	C	-1.656898	-0.002257	0.428053
C34	C	-1.656895	-0.002242	0.571936
H35	H	-1.075871	-0.389466	0.000007
H36	H	-0.826412	-0.382860	-0.000008
H37	H	-1.763786	0.244449	0.098726
H38	H	-0.906672	-0.089466	-0.000002
H39	H	-1.322996	-0.338088	0.369509
H40	H	-1.067166	-0.093722	-0.000026
O41	O	-1.309614	-0.351247	0.641782
C42	C	-1.093266	-0.422874	0.685744
C43	C	-1.185871	-0.329848	0.606605
H44	H	-0.993200	-0.405623	0.657310
H45	H	-1.107604	-0.408330	0.800951
H46	H	-1.110450	-0.523613	0.657484
H47	H	-1.168743	-0.229073	0.634749
H48	H	-1.171511	-0.344502	0.491417
O49	O	-1.777673	0.460806	0.114100
C50	C	-1.970124	0.488613	0.243192
C51	C	-1.903355	0.432218	0.113964
H52	H	-2.071756	0.465544	0.243111
H53	H	-1.920820	0.446844	0.338910
H54	H	-1.967240	0.595293	0.243179
H55	H	-1.906219	0.325540	0.113844
H56	H	-1.952678	0.474085	0.018304
H57	H	-1.758206	0.456743	-0.098674
H58	H	-1.272741	0.171184	-0.000033
H59	H	-1.266480	0.408883	-0.000027
H60	H	-1.626576	0.088976	0.616553
H61	H	-1.752791	-0.023746	0.610987
O62	O	-1.783193	0.245256	-0.114184
C63	C	-1.891305	0.313472	-0.322194
C64	C	-1.822047	0.353072	-0.192926
H65	H	-1.922761	0.400621	-0.385879
H66	H	-1.825795	0.245980	-0.386077
H67	H	-1.976716	0.264493	-0.290268
H68	H	-1.736638	0.402102	-0.224730
H69	H	-1.887642	0.420506	-0.129075
H70	H	-1.635592	0.094272	0.389001
O71	O	-1.765084	-0.038699	0.375028
C72	C	-1.968307	-0.107350	0.422781
C73	C	-1.845865	-0.066069	0.483015
H74	H	-2.033641	-0.129516	0.510059
H75	H	-2.015695	-0.028103	0.356882
H76	H	-1.946186	-0.195085	0.356793
H77	H	-1.867878	0.021637	0.549065
H78	H	-1.798511	-0.145391	0.548836
