data_functionalizedCrystal
_audit_creation_method	'MofGen! by Chris Wilmer'
_symmetry_space_group_name_H-M	'P1'
_symmetry_Int_Tables_number	1
_symmetry_cell_setting	triclinic
loop_
_symmetry_equiv_pos_as_xyz
  x,y,z
_cell_length_a	25.639239
_cell_length_b	17.640112
_cell_length_c	17.640968
_cell_angle_alpha	92.139080
_cell_angle_beta	78.768464
_cell_angle_gamma	101.264534
loop_
_atom_site_label
_atom_site_type_symbol
_atom_site_fract_x
_atom_site_fract_y
_atom_site_fract_z
Zn1	Zn	-0.015023	1.247772	-0.195080
Zn2	Zn	0.484977	1.747772	0.304920
Zn3	Zn	-0.122900	1.221955	-0.068097
Zn4	Zn	0.377100	1.721955	0.431903
Zn5	Zn	-0.049036	1.095089	-0.093726
Zn6	Zn	0.450964	1.595089	0.406274
Zn7	Zn	-0.116017	1.120698	-0.220679
Zn8	Zn	0.383983	1.620698	0.279321
O9	O	-0.075744	1.171378	-0.144396
O10	O	0.424256	1.671378	0.355604
O11	O	-0.017980	1.350621	-0.156796
O12	O	0.482020	1.850621	0.343204
O13	O	-0.130216	1.183603	0.034776
O14	O	0.369784	1.683603	0.534776
O15	O	0.028654	1.115429	-0.107183
O16	O	0.528654	1.615429	0.392817
O17	O	-0.097236	1.331654	-0.063503
O18	O	0.402764	1.831654	0.436497
O19	O	0.053643	1.227605	-0.181647
O20	O	0.553643	1.727605	0.318353
O21	O	-0.075949	1.090396	0.015947
O22	O	0.424051	1.590396	0.515947
O23	O	-0.069275	0.992212	-0.132006
O24	O	0.430725	1.492212	0.367994
O25	O	-0.085505	1.159077	-0.323556
O26	O	0.414495	1.659077	0.176444
O27	O	-0.118486	1.011027	-0.225278
O28	O	0.381514	1.511027	0.274722
O29	O	-0.011306	1.252437	-0.304749
O30	O	0.488694	1.752437	0.195251
O31	O	-0.195165	1.208436	-0.088325
O32	O	0.304835	1.708436	0.411675
O33	O	-0.190109	1.134044	-0.200427
O34	O	0.309891	1.634044	0.299573
C35	C	-0.096825	0.974064	-0.184201
C36	C	0.403175	1.474064	0.315799
C37	C	-0.105853	0.889655	-0.201248
C38	C	0.394147	1.389655	0.298752
C39	C	-0.007149	0.563036	-0.014898
C40	C	0.492851	1.063036	0.485102
C41	C	-0.015641	0.483723	-0.030927
C42	C	0.484359	0.983723	0.469073
C43	C	-0.067003	0.503336	-0.127883
C44	C	0.432997	1.003336	0.372117
C45	C	-0.058513	0.582653	-0.111865
C46	C	0.441487	1.082653	0.388135
C47	C	-0.028586	0.612496	-0.055372
C48	C	0.471414	1.112496	0.444628
C49	C	-0.079950	0.632112	-0.152339
C50	C	0.420050	1.132112	0.347661
C51	C	-0.071463	0.711421	-0.136319
C52	C	0.428537	1.211421	0.363681
C53	C	-0.041539	0.741270	-0.079826
C54	C	0.458461	1.241270	0.420174
C55	C	-0.020099	0.691804	-0.039352
C56	C	0.479901	1.191804	0.460648
C57	C	-0.109880	0.602267	-0.208829
C58	C	0.390120	1.102267	0.291171
C59	C	-0.131317	0.651727	-0.249302
C60	C	0.368683	1.151727	0.250698
C61	C	-0.122827	0.731038	-0.233287
C62	C	0.377173	1.231038	0.266713
C63	C	-0.092903	0.760887	-0.176794
C64	C	0.407097	1.260887	0.323206
C65	C	-0.144267	0.780503	-0.273761
C66	C	0.355733	1.280503	0.226239
C67	C	-0.135780	0.859812	-0.257742
C68	C	0.364220	1.359812	0.242258
C69	C	-0.084416	0.840196	-0.160774
C70	C	0.415584	1.340196	0.339226
C71	C	-0.211606	1.171241	-0.144385
C72	C	0.288394	1.671241	0.355615
C73	C	-0.269717	1.171257	-0.144392
C74	C	0.230283	1.671257	0.355608
C75	C	-0.518277	1.132630	-0.202753
C76	C	-0.018277	1.632630	0.297247
C77	C	-0.463677	1.132600	-0.202750
C78	C	0.036323	1.632600	0.297250
O79	O	-0.433219	1.099628	-0.252371
O80	O	0.066781	1.599628	0.247629
N81	N	-0.438975	1.171361	-0.144412
N82	N	0.061025	1.671361	0.355588
C83	C	-0.468874	1.210160	-0.086078
C84	C	0.031126	1.710160	0.413922
O85	O	-0.442849	1.243127	-0.036458
O86	O	0.057151	1.743127	0.463542
C87	C	-0.523472	1.210194	-0.086085
C88	C	-0.023472	1.710194	0.413915
C89	C	-0.548172	1.171425	-0.144422
C90	C	-0.048172	1.671425	0.355578
C91	C	-0.542978	1.093864	-0.261086
C92	C	-0.042978	1.593864	0.238914
C93	C	-0.597574	1.093893	-0.261088
C94	C	-0.097574	1.593893	0.238912
C95	C	-0.627470	1.132688	-0.202757
C96	C	-0.127470	1.632688	0.297243
C97	C	-0.602769	1.171454	-0.144425
C98	C	-0.102769	1.671454	0.355575
C99	C	-0.553368	1.248998	-0.027755
C100	C	-0.053368	1.748998	0.472245
C101	C	-0.607970	1.249029	-0.027767
C102	C	-0.107970	1.749029	0.472233
C103	C	-0.632671	1.210260	-0.086104
C104	C	-0.132671	1.710260	0.413896
C105	C	-0.687261	1.210277	-0.086096
C106	C	-0.187261	1.710277	0.413904
N107	N	-0.711963	1.171516	-0.144434
N108	N	-0.211963	1.671516	0.355566
C109	C	-0.682068	1.132722	-0.202764
C110	C	-0.182068	1.632722	0.297236
C111	C	-0.354214	1.210087	-0.086069
C112	C	0.145786	1.710087	0.413931
C113	C	-0.299618	1.210049	-0.086059
C114	C	0.200382	1.710049	0.413941
C115	C	-0.294425	1.132489	-0.202731
C116	C	0.205575	1.632489	0.297269
C117	C	-0.349023	1.132524	-0.202738
C118	C	0.150977	1.632524	0.297262
C119	C	-0.378917	1.171326	-0.144407
C120	C	0.121083	1.671326	0.355593
C121	C	-0.796724	1.132785	-0.202764
C122	C	-0.296724	1.632785	0.297236
C123	C	-0.851326	1.132814	-0.202759
C124	C	-0.351326	1.632814	0.297241
C125	C	-0.856514	1.210377	-0.086089
C126	C	-0.356514	1.710377	0.413911
C127	C	-0.801917	1.210344	-0.086091
C128	C	-0.301917	1.710344	0.413909
C129	C	-0.772023	1.171547	-0.144435
C130	C	-0.272023	1.671547	0.355565
O131	O	-0.717752	1.243235	-0.036502
O132	O	-0.217752	1.743235	0.463498
O133	O	-0.708098	1.099769	-0.252382
O134	O	-0.208098	1.599769	0.247618
C135	C	0.060654	1.171540	-0.144419
C136	C	0.560654	1.671540	0.355581
C137	C	0.118778	1.171609	-0.144428
C138	C	0.618778	1.671609	0.355572
C139	C	-0.043844	1.211494	-0.342479
C140	C	0.456156	1.711494	0.157521
C141	C	-0.030250	1.228589	-0.426890
C142	C	0.469750	1.728589	0.073110
C143	C	-0.054581	1.369464	-0.104435
C144	C	0.445419	1.869464	0.395565
C145	C	-0.045563	1.453876	-0.087406
C146	C	0.454437	1.953876	0.412594
C147	C	-0.178701	1.041802	-0.753462
C148	C	0.321299	1.541802	-0.253462
C149	C	-0.165919	1.057882	-0.832776
C150	C	0.334081	1.557882	-0.332776
C151	C	-0.088661	1.155089	-0.813183
C152	C	0.411339	1.655089	-0.313183
C153	C	-0.101435	1.139016	-0.733866
C154	C	0.398565	1.639016	-0.233866
C155	C	-0.146456	1.082372	-0.704013
C156	C	0.353544	1.582372	-0.204013
C157	C	-0.069191	1.179585	-0.684417
C158	C	0.430809	1.679585	-0.184417
C159	C	-0.081966	1.163515	-0.605106
C160	C	0.418034	1.663515	-0.105106
C161	C	-0.126985	1.106876	-0.575246
C162	C	0.373015	1.606876	-0.075246
C163	C	-0.159231	1.066302	-0.624702
C164	C	0.340769	1.566302	-0.124702
C165	C	-0.024172	1.236232	-0.714271
C166	C	0.475828	1.736232	-0.214271
C167	C	0.008072	1.276802	-0.664821
C168	C	0.508072	1.776802	-0.164821
C169	C	-0.004700	1.260728	-0.585510
C170	C	0.495300	1.760728	-0.085510
C171	C	-0.049720	1.204089	-0.555650
C172	C	0.450280	1.704089	-0.055650
C173	C	0.027546	1.301302	-0.536054
C174	C	0.527546	1.801302	-0.036054
C175	C	0.014771	1.285232	-0.456744
C176	C	0.514771	1.785232	0.043256
C177	C	-0.062494	1.188019	-0.476340
C178	C	0.437506	1.688019	0.023660
C179	C	-0.107478	1.131463	0.052926
C180	C	0.392522	1.631463	0.552926
C181	C	-0.120909	1.114515	0.137366
C182	C	0.379091	1.614515	0.637366
H183	H	-0.153236	0.900084	-0.290700
H184	H	0.346764	1.400084	0.209300
O185	O	-0.140777	1.089545	-0.489703
O186	O	0.359223	1.589545	0.010297
H187	H	-0.139705	1.028038	-0.480348
H188	H	0.360295	1.528038	0.019652
O189	O	0.025130	0.595235	0.046035
O190	O	0.525130	1.095235	0.546035
H191	H	0.038611	0.547520	0.071492
H192	H	0.538611	1.047520	0.571492
H193	H	-0.052007	1.201210	-0.837501
H194	H	0.447993	1.701210	-0.337501
H195	H	-0.270074	1.100902	-0.250228
H196	H	0.229926	1.600902	0.249772
H197	H	-0.192180	1.024841	-0.873037
H198	H	0.307820	1.524841	-0.373037
O199	O	-0.877966	1.090991	-0.265682
O200	O	-0.377966	1.590991	0.234318
H201	H	-0.920957	1.097518	-0.255884
H202	H	-0.420957	1.597518	0.244116
H203	H	0.001823	0.443456	0.002031
H204	H	0.501823	0.943456	0.502031
O205	O	-0.764488	1.090927	-0.265680
O206	O	-0.264488	1.590927	0.234320
H207	H	-0.790846	1.063969	-0.306232
H208	H	-0.290846	1.563969	0.193768
H209	H	-0.099144	1.141876	-0.452035
H210	H	0.400856	1.641876	0.047965
O211	O	0.056632	1.337893	-0.697015
O212	O	0.556632	1.837893	-0.197015
H213	H	0.093824	1.321822	-0.684415
H214	H	0.593824	1.821822	-0.184415
H215	H	-0.378552	1.241682	-0.038563
H216	H	0.121448	1.741682	0.461437
H217	H	-0.617681	1.062321	-0.308591
H218	H	-0.117681	1.562321	0.191409
H219	H	-0.632306	1.280631	0.019732
H220	H	-0.132306	1.780631	0.519732
H221	H	-0.781808	1.241904	-0.038582
H222	H	-0.281808	1.741904	0.461418
H223	H	-0.195881	1.020159	-0.600398
H224	H	0.304119	1.520159	-0.100398
H225	H	-0.013774	1.249316	-0.778851
H226	H	0.486226	1.749316	-0.278851
H227	H	-0.880865	1.241959	-0.038596
H228	H	-0.380865	1.741959	0.461404
O229	O	-0.099277	0.471149	-0.188819
O230	O	0.400723	0.971149	0.311181
H231	H	-0.101574	0.407691	-0.193164
H232	H	0.398426	0.907691	0.306836
H233	H	-0.518641	1.062274	-0.308589
H234	H	-0.018641	1.562274	0.191411
H235	H	-0.155686	0.627417	-0.295297
H236	H	0.344314	1.127417	0.204703
H237	H	-0.116790	0.537688	-0.221870
H238	H	0.383210	1.037688	0.278130
O239	O	-0.176545	0.748313	-0.334692
O240	O	0.323455	1.248313	0.165308
H241	H	-0.178844	0.684855	-0.339032
H242	H	0.321156	1.184855	0.160968
H243	H	-0.369130	1.100959	-0.250245
H244	H	0.130870	1.600959	0.249755
H245	H	-0.279513	1.241608	-0.038549
H246	H	0.220487	1.741608	0.461451
O247	O	-0.526732	1.290825	0.035159
O248	O	-0.026732	1.790825	0.535159
H249	H	-0.556698	1.317813	0.075705
H250	H	-0.056698	1.817813	0.575705
O251	O	-0.227257	0.980705	-0.721252
O252	O	0.272743	1.480705	-0.221252
H253	H	-0.247536	0.955191	-0.768961
H254	H	0.252464	1.455191	-0.268961
H255	H	0.064198	1.347426	-0.560372
H256	H	0.564198	1.847426	-0.060372
O257	O	0.049549	1.328982	-0.403401
O258	O	0.549549	1.828982	0.096599
H259	H	0.083004	1.371063	-0.437485
H260	H	0.583004	1.871063	0.062515
H261	H	-0.034630	0.805849	-0.066783
H262	H	0.465370	1.305849	0.433217
O263	O	-0.052135	0.872387	-0.099841
O264	O	0.447865	1.372387	0.400159
H265	H	-0.016215	0.915441	-0.126602
H266	H	0.483785	1.415441	0.373398
O267	O	0.012180	0.724004	0.021581
O268	O	0.512180	1.224004	0.521581
H269	H	0.025661	0.676288	0.047038
H270	H	0.525661	1.176288	0.547038
