data_functionalizedCrystal
_audit_creation_method	'MofGen! by Chris Wilmer'
_symmetry_space_group_name_H-M	'P1'
_symmetry_Int_Tables_number	1
_symmetry_cell_setting	triclinic
loop_
_symmetry_equiv_pos_as_xyz
  x,y,z
_cell_length_a	16.120530
_cell_length_b	18.050589
_cell_length_c	16.120256
_cell_angle_alpha	92.877276
_cell_angle_beta	89.871735
_cell_angle_gamma	92.869593
loop_
_atom_site_label
_atom_site_type_symbol
_atom_site_fract_x
_atom_site_fract_y
_atom_site_fract_z
Zn1	Zn	1.247356	0.376260	0.534588
Zn2	Zn	1.580690	0.709594	0.867922
Zn3	Zn	1.914023	1.042927	1.201255
Zn4	Zn	1.254281	0.494481	0.395537
Zn5	Zn	1.587614	0.827814	0.728870
Zn6	Zn	1.920948	1.161147	1.062204
Zn7	Zn	1.115350	0.363707	0.388505
Zn8	Zn	1.448683	0.697040	0.721838
Zn9	Zn	1.782016	1.030374	1.055172
Zn10	Zn	1.108237	0.493800	0.527507
Zn11	Zn	1.441571	0.827134	0.860840
Zn12	Zn	1.774904	1.160467	1.194173
O13	O	1.181306	0.432062	0.461534
O14	O	1.514639	0.765395	0.794868
O15	O	1.847973	1.098729	1.128201
O16	O	1.364640	0.397481	0.522049
O17	O	1.697973	0.730814	0.855383
O18	O	2.031307	1.064147	1.188716
O19	O	1.241726	0.472164	0.278238
O20	O	1.575059	0.805498	0.611571
O21	O	1.908392	1.138831	0.944905
O22	O	1.132939	0.261452	0.407904
O23	O	1.466272	0.594785	0.741237
O24	O	1.799606	0.928119	1.074571
O25	O	1.369727	0.484337	0.419889
O26	O	1.703061	0.817670	0.753222
O27	O	2.036394	1.151003	1.086556
O28	O	1.229924	0.270675	0.515231
O29	O	1.563257	0.604008	0.848564
O30	O	1.896591	0.937342	1.181898
O31	O	1.139654	0.376085	0.273072
O32	O	1.472987	0.709419	0.606405
O33	O	1.806320	1.042752	0.939738
O34	O	0.998041	0.375426	0.401037
O35	O	1.331374	0.708759	0.734371
O36	O	1.664708	1.042092	1.067704
O37	O	1.120817	0.483177	0.644812
O38	O	1.454151	0.816511	0.978146
O39	O	1.787484	1.149844	1.311479
O40	O	0.992816	0.471005	0.503161
O41	O	1.326149	0.804338	0.836495
O42	O	1.659482	1.137671	1.169828
O43	O	1.223027	0.396821	0.650015
O44	O	1.556361	0.730154	0.983349
O45	O	1.889694	1.063488	1.316682
O46	O	1.234829	0.598310	0.413022
O47	O	1.568163	0.931644	0.746356
O48	O	1.901496	1.264977	1.079689
O49	O	1.127532	0.597811	0.509980
O50	O	1.460865	0.931144	0.843313
O51	O	1.794198	1.264477	1.176647
C52	C	0.965256	0.421780	0.450568
C53	C	1.298590	0.755113	0.783902
C54	C	1.631923	1.088446	1.117235
C55	C	0.872828	0.417400	0.445897
C56	C	1.206162	0.750733	0.779230
C57	C	1.539495	1.084066	1.112563
C58	C	0.703600	0.409386	0.437375
C59	C	1.036934	0.742719	0.770708
C60	C	1.370267	1.076053	1.104042
C61	C	0.659849	0.454795	0.485754
C62	C	0.993182	0.788129	0.819088
C63	C	1.326516	1.121462	1.152421
C64	C	0.565685	0.450337	0.481013
C65	C	0.899018	0.783670	0.814346
C66	C	1.232352	1.117003	1.147679
C67	C	0.797773	0.413844	0.442115
C68	C	1.131106	0.747177	0.775449
C69	C	1.464440	1.080510	1.108782
C70	C	1.181182	0.625008	0.461515
C71	C	1.514515	0.958341	0.794848
C72	C	1.847849	1.291674	1.128182
C73	C	1.181203	0.707556	0.461538
C74	C	1.514537	1.040889	0.794872
C75	C	1.847870	1.374222	1.128205
C76	C	1.122885	0.906762	0.514247
C77	C	1.456219	1.240095	0.847580
C78	C	1.789552	1.573429	1.180913
C79	C	1.106457	0.951981	0.437341
C80	C	1.439790	1.285315	0.770674
C81	C	1.773123	1.618648	1.104007
C82	C	1.181265	0.858689	0.461553
C83	C	1.514599	1.192023	0.794886
C84	C	1.847932	1.525356	1.128220
C85	C	1.197716	0.960553	0.538469
C86	C	1.531049	1.293886	0.871803
C87	C	1.864383	1.627220	1.205136
C88	C	1.181323	1.004678	0.461574
C89	C	1.514657	1.338011	0.794907
C90	C	1.847990	1.671345	1.128240
C91	C	1.164799	0.902818	0.384605
C92	C	1.498132	1.236151	0.717938
C93	C	1.831466	1.569485	1.051271
C94	C	1.256091	0.911389	0.485786
C95	C	1.589424	1.244722	0.819120
C96	C	1.922758	1.578056	1.152453
C97	C	1.239694	0.956585	0.408829
C98	C	1.573027	1.289919	0.742163
C99	C	1.906360	1.623252	1.075496
C100	C	1.181230	0.774589	0.461542
C101	C	1.514563	1.107922	0.794875
C102	C	1.847897	1.441256	1.128209
C103	C	1.181360	1.088776	0.461576
C104	C	1.514693	1.422110	0.794909
C105	C	1.848026	1.755443	1.128243
C106	C	1.398199	0.442385	0.472544
C107	C	1.731533	0.775718	0.805877
C108	C	2.064866	1.109052	1.139210
C109	C	1.490626	0.446784	0.477235
C110	C	1.823960	0.780117	0.810568
C111	C	2.157293	1.113451	1.143902
C112	C	1.170357	0.441324	0.678430
C113	C	1.503690	0.774657	1.011763
C114	C	1.837023	1.107990	1.345097
C115	C	1.165691	0.445270	0.770858
C116	C	1.499024	0.778604	1.104191
C117	C	1.832357	1.111937	1.437524
C118	C	1.181421	1.238363	0.461572
C119	C	1.514754	1.571697	0.794906
C120	C	1.848087	1.905030	1.128239
C121	C	1.181388	1.155817	0.461587
C122	C	1.514721	1.489150	0.794920
C123	C	1.848055	1.822483	1.128254
C124	C	1.192261	0.422785	0.245485
C125	C	1.525594	0.756119	0.578818
C126	C	1.858927	1.089452	0.912152
C127	C	1.197088	0.418637	0.153066
C128	C	1.530421	0.751970	0.486399
C129	C	1.863754	1.085304	0.819732
C130	C	1.205637	0.411461	0.983840
C131	C	1.538970	0.744795	1.317173
C132	C	1.872304	1.078128	1.650507
C133	C	1.157144	0.452444	0.940078
C134	C	1.490477	0.785777	1.273412
C135	C	1.823811	1.119111	1.606745
C136	C	1.161901	0.448451	0.845915
C137	C	1.495234	0.781785	1.179249
C138	C	1.828567	1.115118	1.512582
C139	C	1.200881	0.415453	1.078011
C140	C	1.534215	0.748786	1.411345
C141	C	1.867548	1.082120	1.744678
H142	H	0.693112	0.497020	0.530736
H143	H	1.026445	0.830353	0.864069
H144	H	1.359779	1.163686	1.197402
H145	H	1.112051	0.490524	0.973331
H146	H	1.445384	0.823858	1.306665
H147	H	1.778717	1.157191	1.639998
O148	O	1.331494	0.889957	0.510401
O149	O	1.664828	1.223291	0.843734
O150	O	1.998161	1.556624	1.177068
C151	C	1.434080	0.895178	0.619305
C152	C	1.767414	1.228512	0.952639
C153	C	2.100747	1.561845	1.285972
C154	C	1.348666	0.919490	0.591530
C155	C	1.682000	1.252823	0.924863
C156	C	2.015333	1.586156	1.258197
H157	H	1.447998	0.919058	0.684894
H158	H	1.781332	1.252391	1.018227
H159	H	2.114665	1.585724	1.351560
H160	H	1.433520	0.831966	0.618525
H161	H	1.766853	1.165299	0.951858
H162	H	2.100187	1.498633	1.285191
H163	H	1.483987	0.916556	0.575026
H164	H	1.817320	1.249889	0.908360
H165	H	2.150654	1.583223	1.241693
H166	H	1.298713	0.898164	0.635784
H167	H	1.632046	1.231497	0.969117
H168	H	1.965379	1.564831	1.302450
H169	H	1.349297	0.982703	0.592288
H170	H	1.682630	1.316037	0.925621
H171	H	2.015964	1.649370	1.258955
H172	H	1.250723	0.373380	0.950589
H173	H	1.584056	0.706713	1.283922
H174	H	1.917389	1.040047	1.617255
O175	O	1.148161	0.872963	0.306929
O176	O	1.481494	1.206296	0.640262
O177	O	1.814827	1.539629	0.973596
C178	C	1.117619	0.896438	0.164643
C179	C	1.450952	1.229772	0.497976
C180	C	1.784285	1.563105	0.831309
C181	C	1.136476	0.930350	0.252561
C182	C	1.469809	1.263683	0.585894
C183	C	1.803142	1.597016	0.919228
H184	H	1.108149	0.942819	0.120665
H185	H	1.441482	1.276152	0.453999
H186	H	1.774816	1.609486	0.787332
H187	H	1.171859	0.862663	0.141941
H188	H	1.505192	1.195996	0.475274
H189	H	1.838525	1.529330	0.808608
H190	H	1.058825	0.858716	0.166251
H191	H	1.392158	1.192050	0.499584
H192	H	1.725492	1.525383	0.832917
H193	H	1.195244	0.968105	0.251023
H194	H	1.528578	1.301438	0.584356
H195	H	1.861911	1.634771	0.917689
H196	H	1.082189	0.964081	0.275228
H197	H	1.415522	1.297414	0.608561
H198	H	1.748856	1.630747	0.941895
H199	H	0.670340	0.367165	0.392398
H200	H	1.003673	0.700498	0.725731
H201	H	1.337006	1.033831	1.059065
H202	H	1.073457	0.884887	0.558738
H203	H	1.406791	1.218221	0.892072
H204	H	1.740124	1.551554	1.225405
H205	H	1.043207	0.969976	0.416862
H206	H	1.376540	1.303309	0.750195
H207	H	1.709873	1.636643	1.083528
H208	H	1.211607	0.985773	0.603509
H209	H	1.544941	1.319106	0.936842
H210	H	1.878274	1.652439	1.270175
O211	O	1.298610	0.982646	0.355679
O212	O	1.631943	1.315979	0.689013
O213	O	1.965276	1.649312	1.022346
C214	C	1.365186	1.090205	0.296429
C215	C	1.698519	1.423538	0.629762
C216	C	2.031853	1.756872	0.963095
C217	C	1.298455	1.060791	0.356667
C218	C	1.631788	1.394124	0.690000
C219	C	1.965122	1.727457	1.023333
H220	H	1.365071	1.153387	0.297194
H221	H	1.698404	1.486721	0.630527
H222	H	2.031738	1.820054	0.963861
H223	H	1.428814	1.072789	0.316509
H224	H	1.762147	1.406123	0.649843
H225	H	2.095480	1.739456	0.983176
H226	H	1.351034	1.066202	0.230936
H227	H	1.684368	1.399535	0.564270
H228	H	2.017701	1.732869	0.897603
H229	H	1.312528	1.084779	0.422177
H230	H	1.645861	1.418113	0.755511
H231	H	1.979195	1.751446	1.088844
H232	H	1.234848	1.078199	0.336516
H233	H	1.568181	1.411532	0.669849
H234	H	1.901514	1.744865	1.003182
