data_functionalizedCrystal
_audit_creation_method	'MofGen! by Chris Wilmer'
_symmetry_space_group_name_H-M	'P1'
_symmetry_Int_Tables_number	1
_symmetry_cell_setting	triclinic
loop_
_symmetry_equiv_pos_as_xyz
  x,y,z
_cell_length_a	11.026607
_cell_length_b	10.654550
_cell_length_c	9.482900
_cell_angle_alpha	99.406879
_cell_angle_beta	101.383039
_cell_angle_gamma	83.464540
loop_
_atom_site_label
_atom_site_type_symbol
_atom_site_fract_x
_atom_site_fract_y
_atom_site_fract_z
O1	O	-0.151915	1.720278	0.121012
O2	O	-0.168188	1.358328	0.120988
O3	O	0.016854	1.509305	0.120996
O4	O	-0.336956	1.569301	0.121004
O5	O	-0.020810	1.478579	-0.120798
O6	O	-0.205852	1.327603	-0.120806
O7	O	-0.189579	1.689552	-0.120782
Cu8	Cu	-0.201154	1.505772	-0.142872
Cu9	Cu	-0.156612	1.542109	0.143078
O10	O	-0.374620	1.538576	-0.120790
C11	C	-0.185826	1.295908	0.000088
C12	C	-0.182253	1.155688	0.000079
C13	C	-0.291198	1.099854	0.000103
C14	C	-0.287829	0.968106	0.000128
C15	C	-0.066559	0.948036	0.000111
C16	C	-0.069931	1.079780	0.000076
C17	C	-0.418946	1.111441	0.000118
C18	C	-0.415576	0.979693	0.000143
C19	C	-0.401092	1.565007	0.000108
C20	C	-0.536083	1.598002	0.000112
C21	C	-0.609123	1.506898	0.000107
C22	C	-0.748643	1.540998	0.000111
C23	C	0.043326	1.482874	0.000101
C24	C	0.178319	1.449880	0.000106
C25	C	-0.171940	1.751973	0.000121
C26	C	-0.175511	1.892195	0.000139
N27	N	-0.232482	1.480224	-0.343993
C28	C	-0.191911	1.513326	-0.583605
C29	C	-0.165836	1.534571	-0.416186
N30	N	-0.125275	1.567665	0.344199
H31	H	0.024894	0.886220	0.000131
H32	H	-0.089473	1.596819	-0.354058
H33	H	-0.308836	1.417964	-0.406121
C34	C	-0.022140	1.651777	-0.571876
H35	H	-0.018157	1.655036	-0.470362
H36	H	0.055266	1.616599	-0.596748
H37	H	-0.039924	1.735609	-0.596731
H38	H	0.018780	1.125231	0.000036
H39	H	-0.443362	1.169192	0.104512
C40	C	-0.295023	1.429182	-0.667522
H41	H	-0.333432	1.397825	-0.600517
H42	H	-0.355228	1.478378	-0.726915
H43	H	-0.260002	1.359398	-0.726889
C44	C	-0.591127	1.737478	0.000123
H45	H	-0.527208	1.790215	0.000135
H46	H	-0.653194	1.743424	-0.084191
H47	H	-0.626916	1.764851	0.084457
C48	C	-0.554077	1.367424	0.000109
H49	H	-0.617992	1.314690	0.000119
H50	H	-0.518275	1.340043	-0.084206
H51	H	-0.492017	1.361491	0.084443
C52	C	-0.507744	1.148358	-0.136570
H53	H	-0.541964	1.074136	-0.192772
H54	H	-0.572737	1.207773	-0.108459
H55	H	-0.463301	1.185924	-0.192820
H56	H	-0.470445	0.929138	-0.104245
H57	H	-0.447947	0.961269	0.101342
H58	H	-0.789389	1.644253	0.000171
C59	C	-0.766646	1.310397	0.000098
H60	H	-0.830563	1.257665	0.000106
H61	H	-0.730846	1.283020	-0.084219
H62	H	-0.704584	1.304456	0.084429
