data_functionalizedCrystal
_audit_creation_method	'MofGen! by Chris Wilmer'
_symmetry_space_group_name_H-M	'P1'
_symmetry_Int_Tables_number	1
_symmetry_cell_setting	triclinic
loop_
_symmetry_equiv_pos_as_xyz
  x,y,z
_cell_length_a	17.038278
_cell_length_b	17.000371
_cell_length_c	8.140239
_cell_angle_alpha	89.996115
_cell_angle_beta	89.997156
_cell_angle_gamma	83.354874
loop_
_atom_site_label
_atom_site_type_symbol
_atom_site_fract_x
_atom_site_fract_y
_atom_site_fract_z
O1	O	1.025583	0.172030	-0.136627
O2	O	1.525583	0.672030	0.363373
O3	O	0.798139	0.169300	-0.136628
O4	O	1.298139	0.669300	0.363372
O5	O	0.925983	0.055755	-0.136616
O6	O	1.425983	0.555755	0.363384
O7	O	0.897738	0.285575	-0.136639
O8	O	1.397738	0.785575	0.363361
O9	O	0.925977	0.055753	0.136611
O10	O	1.425977	0.555753	0.636611
O11	O	0.798132	0.169298	0.136599
O12	O	1.298132	0.669298	0.636599
O13	O	1.025576	0.172028	0.136600
O14	O	1.525576	0.672028	0.636600
Zn15	Zn	0.911853	0.170663	0.179980
Zn16	Zn	1.411853	0.670663	0.679980
Zn17	Zn	0.911862	0.170665	-0.180008
Zn18	Zn	1.411862	0.670665	0.319992
O19	O	0.897732	0.285573	0.136588
O20	O	1.397732	0.785573	0.636588
C21	C	0.769178	0.166815	-0.000014
C22	C	1.269178	0.666815	0.499986
C23	C	0.682892	0.159403	-0.000014
C24	C	1.182892	0.659403	0.499986
C25	C	0.927497	0.026203	-0.000003
C26	C	1.427497	0.526203	0.499997
C27	C	0.932008	-0.061851	-0.000005
C28	C	1.432008	0.438149	0.499995
C29	C	0.195599	0.113867	-0.000016
C30	C	0.695599	0.613867	0.499984
C31	C	0.276672	0.120837	-0.000007
C32	C	0.776672	0.620837	0.499993
C33	C	0.302967	0.195867	-0.000022
C34	C	0.802967	0.695867	0.499978
C35	C	0.248184	0.263930	-0.000029
C36	C	0.748184	0.763930	0.499971
C37	C	0.167112	0.256959	-0.000027
C38	C	0.667112	0.756959	0.499973
C39	C	0.547038	0.220495	-0.000019
C40	C	1.047038	0.720495	0.499981
C41	C	0.628116	0.227461	-0.000027
C42	C	1.128116	0.727461	0.499973
C43	C	0.656599	0.084367	-0.000001
C44	C	1.156599	0.584367	0.499999
C45	C	0.575525	0.077403	-0.000008
C46	C	1.075525	0.577403	0.499992
C47	C	0.520748	0.145466	-0.000007
C48	C	1.020748	0.645466	0.499993
C49	C	0.385836	0.202994	-0.000017
C50	C	0.885836	0.702994	0.499983
C51	C	0.437881	0.138339	0.000000
C52	C	0.937881	0.638339	0.500000
C53	C	0.862586	-0.098576	-0.000012
C54	C	1.362586	0.401424	0.499988
C55	C	0.866830	-0.181312	-0.000007
C56	C	1.366830	0.318688	0.499993
C57	C	0.940496	-0.227320	-0.000007
C58	C	1.440496	0.272680	0.499993
C59	C	1.009923	-0.190589	0.000005
C60	C	1.509923	0.309411	0.500005
C61	C	1.005679	-0.107855	0.000012
C62	C	1.505679	0.392145	0.500012
C63	C	0.956890	-0.477356	-0.000019
C64	C	1.456890	0.022644	0.499981
C65	C	0.961129	-0.560096	-0.000031
C66	C	1.461129	-0.060096	0.499969
C67	C	0.818035	-0.550813	-0.000040
C68	C	1.318035	-0.050813	0.499960
C69	C	0.813797	-0.468078	-0.000043
C70	C	1.313797	0.031922	0.499957
C71	C	0.883224	-0.431354	-0.000022
C72	C	1.383224	0.068646	0.499978
C73	C	0.944835	-0.311890	-0.000008
C74	C	1.444835	0.188110	0.499992
C75	C	0.878884	-0.346786	-0.000009
C76	C	1.378884	0.153214	0.499991
C77	C	1.054538	0.174513	-0.000018
C78	C	1.554538	0.674513	0.499982
C79	C	1.140823	0.181925	-0.000028
C80	C	1.640823	0.681925	0.499972
C81	C	0.896218	0.315125	-0.000029
C82	C	1.396218	0.815125	0.499971
C83	C	0.891707	0.403178	-0.000038
C84	C	1.391707	0.903178	0.499962
N85	N	0.911853	0.170661	0.425663
N86	N	1.411853	0.670661	0.925663
N87	N	0.911869	0.170661	-0.425691
N88	N	1.411869	0.670661	0.074309
H89	H	0.174198	0.052770	-0.000014
H90	H	0.674198	0.552770	0.499986
C91	C	0.781553	-0.047974	-0.000011
C92	C	1.281553	0.452026	0.499989
H93	H	0.740817	-0.081699	0.000000
H94	H	1.240817	0.418301	0.500000
H95	H	0.776922	-0.015501	-0.095287
H96	H	1.276922	0.484499	0.404713
H97	H	0.776922	-0.015513	0.095285
H98	H	1.276922	0.484487	0.595285
H99	H	0.554123	0.016306	0.000004
H100	H	1.054123	0.516306	0.500004
C101	C	0.486794	0.295362	-0.000033
C102	C	0.986794	0.795362	0.499967
H103	H	0.514069	0.341042	-0.000060
H104	H	1.014069	0.841042	0.499940
H105	H	0.454574	0.295622	0.095249
H106	H	0.954574	0.795622	0.595249
H107	H	0.454579	0.295615	-0.095324
H108	H	0.954579	0.795615	0.404676
C109	C	0.716852	0.009505	0.000019
C110	C	1.216852	0.509505	0.500019
H111	H	0.768902	0.024399	0.000030
H112	H	1.268902	0.524399	0.500030
H113	H	0.709422	-0.021040	-0.095250
H114	H	1.209422	0.478960	0.404750
H115	H	0.709413	-0.021027	0.095323
H116	H	1.209413	0.478973	0.595323
C117	C	0.408962	0.055809	0.000014
C118	C	0.908962	0.555809	0.500014
H119	H	0.453195	0.016270	0.000027
H120	H	0.953195	0.516270	0.500027
H121	H	0.377928	0.050121	-0.095263
H122	H	0.877928	0.550121	0.404737
H123	H	0.377928	0.050119	0.095310
H124	H	0.877928	0.550119	0.595310
C125	C	1.042165	-0.610705	-0.000026
C126	C	1.542165	-0.110705	0.499974
H127	H	1.082906	-0.576984	0.000002
H128	H	1.582906	-0.076984	0.500002
H129	H	1.046797	-0.643165	-0.095312
H130	H	1.546797	-0.143165	0.404688
H131	H	1.046786	-0.643178	0.095261
H132	H	1.546786	-0.143178	0.595261
H133	H	0.810299	-0.211210	-0.000026
H134	H	1.310299	0.288790	0.499974
C135	C	0.732765	-0.417474	-0.000022
C136	C	1.232765	0.082526	0.499978
H137	H	0.692026	-0.451196	-0.000009
H138	H	1.192026	0.048804	0.499991
H139	H	0.728134	-0.384998	-0.095295
H140	H	1.228134	0.115002	0.404705
H141	H	0.728138	-0.385015	0.095278
H142	H	1.228138	0.114985	0.595278
C143	C	1.082042	-0.067457	0.000017
C144	C	1.582042	0.432543	0.500017
H145	H	1.126524	-0.106706	0.000001
H146	H	1.626524	0.393294	0.500001
H147	H	1.083358	-0.035380	0.095300
H148	H	1.583358	0.464620	0.595300
H149	H	1.083364	-0.035371	-0.095272
H150	H	1.583364	0.464629	0.404728
H151	H	0.269599	0.325021	-0.000031
H152	H	0.769599	0.825021	0.499969
H153	H	0.649520	0.288562	-0.000015
H154	H	1.149520	0.788562	0.499985
C155	C	0.797855	-0.296183	-0.000012
C156	C	1.297855	0.203817	0.499988
H157	H	0.757113	-0.329902	-0.000012
H158	H	1.257113	0.170098	0.499988
H159	H	0.793234	-0.263710	-0.095288
H160	H	1.293234	0.236290	0.404712
H161	H	0.793224	-0.263722	0.095284
H162	H	1.293224	0.236278	0.595284
H163	H	1.069903	-0.228056	0.000016
H164	H	1.569903	0.271944	0.500016
C165	C	0.741673	-0.591211	-0.000042
C166	C	1.241673	-0.091211	0.499958
H167	H	0.754748	-0.647074	-0.000032
H168	H	1.254748	-0.147074	0.499968
H169	H	0.711579	-0.575741	-0.095317
H170	H	1.211579	-0.075741	0.404683
H171	H	0.711584	-0.575749	0.095256
H172	H	1.211584	-0.075749	0.595256
H173	H	0.122513	0.312379	-0.000031
H174	H	0.622513	0.812379	0.499969
H175	H	0.407255	0.264083	-0.000034
H176	H	0.907255	0.764083	0.499966
H177	H	0.321269	0.065417	0.000010
H178	H	0.821269	0.565417	0.500010
C179	C	1.033256	-0.436970	-0.000025
C180	C	1.533256	0.063030	0.499975
H181	H	1.077734	-0.476223	-0.000049
H182	H	1.577734	0.023777	0.499951
H183	H	1.034581	-0.404892	0.095255
H184	H	1.534581	0.095108	0.595255
H185	H	1.034574	-0.404886	-0.095318
H186	H	1.534574	0.095114	0.404682
H187	H	1.004814	-0.349359	-0.000011
H188	H	1.504814	0.150641	0.499989
