data_functionalizedCrystal
_audit_creation_method	'MofGen! by Chris Wilmer'
_symmetry_space_group_name_H-M	'P1'
_symmetry_Int_Tables_number	1
_symmetry_cell_setting	triclinic
loop_
_symmetry_equiv_pos_as_xyz
  x,y,z
_cell_length_a	14.908993
_cell_length_b	19.077068
_cell_length_c	19.077569
_cell_angle_alpha	89.935763
_cell_angle_beta	91.113091
_cell_angle_gamma	84.510225
loop_
_atom_site_label
_atom_site_type_symbol
_atom_site_fract_x
_atom_site_fract_y
_atom_site_fract_z
Zn1	Zn	1.386330	0.203937	-0.343809
Zn2	Zn	1.719664	0.537270	-0.010476
Zn3	Zn	2.052997	0.870604	0.322858
Zn4	Zn	1.374117	0.326694	-0.231585
Zn5	Zn	1.707450	0.660028	0.101748
Zn6	Zn	2.040784	0.993361	0.435082
Zn7	Zn	1.229209	0.215461	-0.233652
Zn8	Zn	1.562542	0.548795	0.099682
Zn9	Zn	1.895876	0.882128	0.433015
Zn10	Zn	1.229639	0.328178	-0.355799
Zn11	Zn	1.562972	0.661511	-0.022466
Zn12	Zn	1.896306	0.994844	0.310868
O13	O	1.304824	0.268568	-0.291211
O14	O	1.638157	0.601901	0.042122
O15	O	1.971491	0.935234	0.375455
O16	O	1.510931	0.214777	-0.323040
O17	O	1.844264	0.548110	0.010294
O18	O	2.177597	0.881444	0.343627
O19	O	1.349604	0.316141	-0.133774
O20	O	1.682937	0.649475	0.199559
O21	O	2.016270	0.982808	0.532893
O22	O	1.254983	0.115386	-0.244111
O23	O	1.588316	0.448719	0.089222
O24	O	1.921649	0.782053	0.422555
O25	O	1.501958	0.304966	-0.240589
O26	O	1.835291	0.638300	0.092744
O27	O	2.168624	0.971633	0.426077
O28	O	1.370419	0.106919	-0.325044
O29	O	1.703753	0.440252	0.008290
O30	O	2.037086	0.773586	0.341623
O31	O	1.243140	0.234419	-0.135292
O32	O	1.576473	0.567752	0.198041
O33	O	1.909807	0.901086	0.531374
O34	O	1.103046	0.235857	-0.255737
O35	O	1.436379	0.569191	0.077596
O36	O	1.769712	0.902524	0.410929
O37	O	1.255716	0.307495	-0.452294
O38	O	1.589049	0.640828	-0.118960
O39	O	1.922382	0.974161	0.214373
O40	O	1.103362	0.318669	-0.345478
O41	O	1.436695	0.652003	-0.012145
O42	O	1.770028	0.985336	0.321188
O43	O	1.370836	0.216215	-0.443485
O44	O	1.704169	0.549549	-0.110151
O45	O	2.037503	0.882882	0.223182
O46	O	1.350020	0.425438	-0.252215
O47	O	1.683354	0.758771	0.081118
O48	O	2.016687	1.092104	0.414452
O49	O	1.243873	0.426528	-0.343474
O50	O	1.577206	0.759861	-0.010141
O51	O	1.910540	1.093194	0.323192
C52	C	1.070476	0.278675	-0.302134
C53	C	1.403809	0.612009	0.031200
C54	C	1.737143	0.945342	0.364533
C55	C	0.970221	0.283016	-0.306824
C56	C	1.303554	0.616349	0.026510
C57	C	1.636888	0.949683	0.359843
C58	C	0.781464	0.204799	-0.222309
C59	C	1.114797	0.538132	0.111024
C60	C	1.448131	0.871466	0.444358
C61	C	0.687265	0.208875	-0.226713
C62	C	1.020599	0.542208	0.106620
C63	C	1.353932	0.875542	0.439954
C64	C	0.687623	0.295247	-0.320033
C65	C	1.020957	0.628581	0.013301
C66	C	1.354290	0.961914	0.346634
C67	C	0.781822	0.291171	-0.315628
C68	C	1.115155	0.624505	0.017705
C69	C	1.448489	0.957838	0.351038
C70	C	0.828739	0.245945	-0.266766
C71	C	1.162072	0.579278	0.066568
C72	C	1.495406	0.912611	0.399901
C73	C	0.922940	0.241865	-0.262365
C74	C	1.256273	0.575199	0.070968
C75	C	1.589606	0.908532	0.404302
C76	C	0.923295	0.328241	-0.355681
C77	C	1.256629	0.661574	-0.022347
C78	C	1.589962	0.994908	0.310986
C79	C	0.829097	0.332317	-0.360085
C80	C	1.162430	0.665650	-0.026752
C81	C	1.495764	0.998984	0.306582
C82	C	1.295693	0.451533	-0.298936
C83	C	1.629027	0.784866	0.034398
C84	C	1.962360	1.118200	0.367731
C85	C	1.291871	0.529802	-0.302260
C86	C	1.625204	0.863135	0.031073
C87	C	1.958538	1.196468	0.364407
C88	C	1.314686	0.260735	-0.474033
C89	C	1.648020	0.594068	-0.140699
C90	C	1.981353	0.927402	0.192634
C91	C	1.318889	0.257397	-0.551940
C92	C	1.652222	0.590730	-0.218607
C93	C	1.985556	0.924064	0.114726
C94	C	1.540087	0.258421	-0.280247
C95	C	1.873420	0.591754	0.053087
C96	C	2.206753	0.925087	0.386420
C97	C	1.640342	0.254097	-0.275574
C98	C	1.973675	0.587430	0.057759
C99	C	2.307009	0.920763	0.391093
C100	C	1.314015	0.084886	-0.283471
C101	C	1.647349	0.418219	0.049863
C102	C	1.980682	0.751553	0.383196
C103	C	1.317932	0.006612	-0.280172
C104	C	1.651266	0.339945	0.053161
C105	C	1.984599	0.673279	0.386495
C106	C	1.345388	0.565978	-0.256343
C107	C	1.678721	0.899312	0.076990
C108	C	2.012054	1.232645	0.410324
C109	C	1.341798	0.639520	-0.259473
C110	C	1.675131	0.972853	0.073860
C111	C	2.008465	1.306186	0.407193
C112	C	1.284687	0.676884	-0.308518
C113	C	1.618020	1.010217	0.024815
C114	C	1.951354	1.343550	0.358149
C115	C	1.231168	0.640702	-0.354440
C116	C	1.564502	0.974035	-0.021107
C117	C	1.897835	1.307369	0.312227
C118	C	1.234763	0.567161	-0.351312
C119	C	1.568097	0.900495	-0.017979
C120	C	1.901430	1.233828	0.315354
C121	C	1.268009	0.896890	-0.322966
C122	C	1.601342	1.230223	0.010367
C123	C	1.934675	1.563556	0.343700
C124	C	1.264416	0.970435	-0.326089
C125	C	1.597749	1.303769	0.007244
C126	C	1.931083	1.637102	0.340578
C127	C	1.375047	0.969248	-0.231123
C128	C	1.708381	1.302581	0.102210
C129	C	2.041714	1.635915	0.435544
C130	C	1.378633	0.895707	-0.227997
C131	C	1.711966	1.229040	0.105336
C132	C	2.045300	1.562373	0.438670
C133	C	1.325118	0.859531	-0.273921
C134	C	1.658451	1.192864	0.059412
C135	C	1.991785	1.526198	0.392745
N136	N	1.281014	0.752055	-0.311717
N137	N	1.614348	1.085388	0.021616
N138	N	1.947681	1.418722	0.354949
N139	N	1.328796	0.784361	-0.270725
N140	N	1.662129	1.117694	0.062609
N141	N	1.995463	1.451027	0.395942
C142	C	1.260928	0.303350	-0.593129
C143	C	1.594261	0.636683	-0.259795
C144	C	1.927594	0.970016	0.073538
C145	C	1.264884	0.300213	-0.666331
C146	C	1.598218	0.633546	-0.332997
C147	C	1.931551	0.966880	0.000336
C148	C	1.326798	0.251120	-0.698343
C149	C	1.660131	0.584453	-0.365010
C150	C	1.993465	0.917787	-0.031677
C151	C	1.384766	0.205165	-0.657149
C152	C	1.718099	0.538499	-0.323816
C153	C	2.051432	0.871832	0.009517
C154	C	1.380813	0.208306	-0.583949
C155	C	1.714146	0.541639	-0.250615
C156	C	2.047479	0.874972	0.082718
C157	C	1.345051	0.236635	-0.916778
C158	C	1.678384	0.569968	-0.583445
C159	C	2.011718	0.903301	-0.250111
C160	C	1.348997	0.233496	-0.989984
C161	C	1.682331	0.566829	-0.656651
C162	C	2.015664	0.900163	-0.323318
C163	C	1.229117	0.328545	-0.999161
C164	C	1.562450	0.661878	-0.665827
C165	C	1.895783	0.995212	-0.332494
C166	C	1.225166	0.331678	-0.925958
C167	C	1.558499	0.665012	-0.592625
C168	C	1.891832	0.998345	-0.259291
C169	C	1.283136	0.285726	-0.884771
C170	C	1.616470	0.619060	-0.551437
C171	C	1.949803	0.952393	-0.218104
N172	N	1.330842	0.247911	-0.773167
N173	N	1.664175	0.581244	-0.439834
N174	N	1.997508	0.914578	-0.106501
N175	N	1.279096	0.288939	-0.809948
N176	N	1.612430	0.622272	-0.476614
N177	N	1.945763	0.955606	-0.143281
C178	C	1.295054	0.276317	-0.109096
C179	C	1.628388	0.609650	0.224237
C180	C	1.961721	0.942983	0.557570
C181	C	1.291036	0.279449	-0.031173
C182	C	1.624369	0.612782	0.302161
C183	C	1.957703	0.946115	0.635494
H184	H	0.961138	0.205035	-0.222583
H185	H	1.294472	0.538369	0.110751
H186	H	1.627805	0.871702	0.444084
H187	H	1.174763	0.371666	-0.899899
H188	H	1.508096	0.704999	-0.566565
H189	H	1.841429	1.038332	-0.233232
F190	F	0.973617	0.372023	-0.403008
F191	F	1.306950	0.705356	-0.069675
F192	F	1.640283	1.038689	0.263658
F193	F	1.432002	1.007754	-0.182254
F194	F	1.765335	1.341087	0.151080
F195	F	2.098668	1.674420	0.484413
F196	F	1.406168	0.526220	-0.204138
F197	F	1.739501	0.859553	0.129195
F198	F	2.072835	1.192886	0.462528
F199	F	1.398761	0.678018	-0.210604
F200	F	1.732094	1.011351	0.122730
F201	F	2.065427	1.344685	0.456063
F202	F	1.439429	0.855946	-0.175804
F203	F	1.772762	1.189279	0.157529
F204	F	2.106095	1.522612	0.490862
H205	H	0.649407	0.332075	-0.359808
H206	H	0.982740	0.665408	-0.026475
H207	H	1.316073	0.998742	0.306859
F208	F	0.636955	0.165083	-0.179395
F209	F	0.970288	0.498417	0.153938
F210	F	1.303621	0.831750	0.487272
H211	H	1.181921	0.365957	-1.032703
H212	H	1.515254	0.699290	-0.699370
H213	H	1.848587	1.032624	-0.366036
F214	F	1.203618	1.010200	-0.378285
F215	F	1.536951	1.343534	-0.044951
F216	F	1.870285	1.676867	0.288382
H217	H	0.819665	0.167965	-0.182531
H218	H	1.152999	0.501298	0.150802
H219	H	1.486332	0.834632	0.484136
F220	F	1.442506	0.159399	-0.540113
F221	F	1.775839	0.492732	-0.206780
F222	F	2.109173	0.826065	0.126554
H223	H	1.210500	0.343319	-0.567070
H224	H	1.543834	0.676652	-0.233737
H225	H	1.877167	1.009985	0.099597
F226	F	0.779154	0.380455	-0.412078
F227	F	1.112487	0.713788	-0.078745
F228	F	1.445821	1.047122	0.254588
H229	H	1.224433	0.867441	-0.360359
H230	H	1.557766	1.200775	-0.027025
H231	H	1.891100	1.534108	0.306308
F232	F	1.170391	0.680469	-0.406641
F233	F	1.503725	1.013802	-0.073308
F234	F	1.837058	1.347136	0.260026
H235	H	1.392255	0.199217	-0.883252
H236	H	1.725588	0.532551	-0.549918
H237	H	2.058922	0.865884	-0.216585
F238	F	1.177806	0.528660	-0.400185
F239	F	1.511140	0.861993	-0.066852
F240	F	1.844473	1.195326	0.266481
F241	F	1.203200	0.349127	-0.710164
F242	F	1.536533	0.682461	-0.376830
F243	F	1.869867	1.015794	-0.043497
F244	F	1.414868	0.181219	-1.024053
F245	F	1.748201	0.514553	-0.690719
F246	F	2.081535	0.847886	-0.357386
H247	H	1.435181	0.165196	-0.683220
H248	H	1.768514	0.498529	-0.349886
H249	H	2.101848	0.831862	-0.016553
