data_functionalizedCrystal
_audit_creation_method	'MofGen! by Chris Wilmer'
_symmetry_space_group_name_H-M	'P1'
_symmetry_Int_Tables_number	1
_symmetry_cell_setting	triclinic
loop_
_symmetry_equiv_pos_as_xyz
  x,y,z
_cell_length_a	17.038272
_cell_length_b	11.295483
_cell_length_c	12.837942
_cell_angle_alpha	94.530417
_cell_angle_beta	92.970248
_cell_angle_gamma	85.603548
loop_
_atom_site_label
_atom_site_type_symbol
_atom_site_fract_x
_atom_site_fract_y
_atom_site_fract_z
O1	O	1.059064	-0.098872	0.220045
O2	O	1.559064	0.401128	0.720045
O3	O	0.831166	-0.098907	0.216445
O4	O	1.331166	0.401093	0.716445
O5	O	0.940061	-0.098883	0.066897
O6	O	1.440061	0.401117	0.566897
O7	O	0.950168	-0.098896	0.369593
O8	O	1.450168	0.401104	0.869593
O9	O	0.930495	0.099165	0.080011
O10	O	1.430495	0.599165	0.580011
O11	O	0.821600	0.099141	0.229558
O12	O	1.321600	0.599141	0.729558
O13	O	1.049498	0.099176	0.233159
O14	O	1.549498	0.599176	0.733159
Cu15	Cu	0.934675	0.117242	0.232556
Cu16	Cu	1.434675	0.617242	0.732556
Cu17	Cu	0.945988	-0.116973	0.217048
Cu18	Cu	1.445988	0.383027	0.717048
O19	O	0.940602	0.099152	0.382707
O20	O	1.440602	0.599152	0.882707
C21	C	0.797010	0.000112	0.219729
C22	C	1.297010	0.500112	0.719729
C23	C	0.709489	0.000099	0.209965
C24	C	1.209489	0.500099	0.709965
N25	N	0.926724	0.281977	0.243463
N26	N	1.426724	0.781977	0.743463
N27	N	0.953945	-0.281708	0.206133
N28	N	1.453945	0.218292	0.706133
C29	C	0.666071	0.000096	0.299604
C30	C	1.166071	0.500096	0.799604
C31	C	0.583834	0.000113	0.290426
C32	C	1.083834	0.500113	0.790426
C33	C	0.545016	0.000124	0.191605
C34	C	1.045016	0.500124	0.691605
C35	C	0.588440	0.000131	0.101959
C36	C	1.088440	0.500131	0.601959
C37	C	0.670675	0.000122	0.111139
C38	C	1.170675	0.500122	0.611139
C39	C	0.296834	0.000158	0.159173
C40	C	0.796834	0.500158	0.659173
C41	C	0.214593	0.000162	0.149999
C42	C	0.714593	0.500162	0.649999
C43	C	0.209992	0.000147	0.338466
C44	C	0.709992	0.500147	0.838466
C45	C	0.292229	0.000131	0.347638
C46	C	0.792229	0.500131	0.847638
C47	C	0.335646	0.000144	0.257992
C48	C	0.835646	0.500144	0.757992
C49	C	0.460957	0.000138	0.182220
C50	C	0.960957	0.500138	0.682220
C51	C	0.419703	0.000139	0.267378
C52	C	0.919703	0.500139	0.767378
C53	C	1.083653	0.000154	0.229875
C54	C	1.583653	0.500154	0.729875
C55	C	1.171175	0.000159	0.239639
C56	C	1.671175	0.500159	0.739639
C57	C	0.931864	0.000140	0.034532
C58	C	1.431864	0.500140	0.534532
C59	C	0.921681	0.000136	-0.081443
C60	C	1.421681	0.500136	0.418557
C61	C	1.011179	0.531285	0.127556
C62	C	1.511179	1.031285	0.627556
C63	C	1.005176	0.655947	0.135807
C64	C	1.505176	1.155947	0.635807
C65	C	0.908712	0.655966	0.268210
C66	C	1.408712	1.155966	0.768210
C67	C	0.914715	0.531304	0.259959
C68	C	1.414715	1.031304	0.759959
C69	C	0.965951	0.468967	0.189631
C70	C	1.465951	0.968967	0.689631
C71	C	0.971957	0.344303	0.181386
C72	C	1.471957	0.844303	0.681386
C73	C	0.875489	0.344324	0.313783
C74	C	1.375489	0.844324	0.813783
C75	C	0.869487	0.468986	0.322034
C76	C	1.369487	0.968986	0.822034
C77	C	1.044098	0.000130	-0.311606
C78	C	1.544098	0.500130	0.188394
C79	C	1.034534	0.000127	-0.420576
C80	C	1.534534	0.500127	0.079424
C81	C	0.892990	0.000117	-0.408354
C82	C	1.392990	0.500117	0.091646
C83	C	0.902554	0.000121	-0.299385
C84	C	1.402554	0.500121	0.200615
C85	C	0.978111	0.000129	-0.251015
C86	C	1.478111	0.500129	0.248985
C87	C	0.987673	0.000141	-0.142043
C88	C	1.487673	0.500141	0.357957
C89	C	0.846130	0.000123	-0.129824
C90	C	1.346130	0.500123	0.370176
C91	C	0.836567	0.000120	-0.238793
C92	C	1.336567	0.500120	0.261207
C93	C	0.948800	0.000126	0.415072
C94	C	1.448800	0.500126	0.915072
C95	C	0.958983	0.000122	0.531046
C96	C	1.458983	0.500122	1.031046
H97	H	0.548486	0.000109	0.363420
H98	H	1.048486	0.500109	0.863420
H99	H	1.049195	0.000152	-0.102661
H100	H	1.549195	0.500152	0.397339
H101	H	0.323829	0.000108	0.428106
H102	H	0.823829	0.500108	0.928106
N103	N	0.814232	0.536217	0.397892
N104	N	1.314232	1.036217	0.897892
H105	H	0.758523	0.514532	0.379479
H106	H	1.258523	1.014532	0.879479
H107	H	0.817356	0.624626	0.393671
H108	H	1.317356	1.124626	0.893671
H109	H	0.838664	0.293571	0.364332
H110	H	1.338664	0.793571	0.864332
H111	H	0.706025	0.000124	0.038145
H112	H	1.206025	0.500124	0.538145
N113	N	1.053964	0.723164	0.068865
N114	N	1.553964	1.223164	0.568865
H115	H	1.087333	0.664753	0.023067
H116	H	1.587333	1.164753	0.523067
H117	H	1.089241	0.774872	0.115340
H118	H	1.589241	1.274872	0.615340
H119	H	0.866991	0.706736	0.325462
H120	H	1.366991	1.206736	0.825462
N121	N	0.163166	0.000135	0.435151
N122	N	0.663166	0.500135	0.935151
H123	H	0.105180	0.000143	0.414345
H124	H	0.605180	0.500143	0.914345
H125	H	0.172997	0.073551	0.482767
H126	H	0.672997	0.573551	0.982767
N127	N	0.172723	0.000167	0.043409
N128	N	0.672723	0.500167	0.543409
H129	H	0.212705	0.000175	-0.011989
H130	H	0.712705	0.500175	0.488011
H131	H	0.135161	0.073585	0.040362
H132	H	0.635161	0.573585	0.540362
H133	H	0.332174	0.000169	0.086176
H134	H	0.832174	0.500169	0.586176
N135	N	1.066433	0.464023	0.051716
N136	N	1.566433	0.964023	0.551716
H137	H	1.122145	0.485696	0.070132
H138	H	1.622145	0.985696	0.570132
H139	H	1.050744	0.485738	-0.021688
H140	H	1.550744	0.985738	0.478312
N141	N	0.755078	0.000107	-0.290967
N142	N	1.255078	0.500107	0.209033
H143	H	0.759030	0.000104	-0.369193
H144	H	1.259030	0.500104	0.130807
H145	H	0.722304	0.073528	-0.264395
H146	H	1.222304	0.573528	0.235605
N147	N	1.125584	0.000158	-0.259425
N148	N	1.625584	0.500158	0.240575
H149	H	1.165937	0.000165	-0.314346
H150	H	1.665937	0.500165	0.185654
H151	H	1.136184	-0.073258	-0.219335
H152	H	1.636184	0.426742	0.280665
H153	H	0.556828	0.000157	0.021498
H154	H	1.056828	0.500157	0.521498
H155	H	1.088269	0.000124	-0.469906
H156	H	1.588269	0.500124	0.030094
N157	N	0.461560	0.000126	0.373964
N158	N	0.961560	0.500126	0.873964
H159	H	0.492040	0.073538	0.386838
H160	H	0.992040	0.573538	0.886838
H161	H	0.499074	-0.073344	0.377032
H162	H	0.999074	0.426656	0.877032
N163	N	0.811504	0.000095	-0.460535
N164	N	1.311504	0.500095	0.039465
H165	H	0.815463	0.000089	-0.538761
H166	H	1.315463	0.500089	-0.038761
H167	H	0.778725	0.073514	-0.433970
H168	H	1.278725	0.573514	0.066030
N169	N	0.774954	0.000127	-0.064466
N170	N	1.274954	0.500127	0.435534
H171	H	0.779309	-0.073286	-0.023836
H172	H	1.279309	0.426714	0.476164
H173	H	0.725677	0.000168	-0.111713
H174	H	1.225677	0.500168	0.388287
N175	N	0.707929	0.000074	0.406193
N176	N	1.207929	0.500074	0.906193
H177	H	0.689073	0.073490	0.450655
H178	H	1.189073	0.573490	0.950655
H179	H	0.766604	0.000019	0.398324
H180	H	1.266604	0.500019	0.898324
N181	N	0.419080	0.000154	0.075643
N182	N	0.919080	0.500154	0.575643
H183	H	0.388598	-0.073256	0.062779
H184	H	0.888598	0.426744	0.562779
H185	H	0.459102	0.000197	0.020304
H186	H	0.959102	0.500197	0.520304
H187	H	1.013678	0.293550	0.124125
H188	H	1.513678	0.793550	0.624125
