data_functionalizedCrystal
_audit_creation_method	'MofGen! by Chris Wilmer'
_symmetry_space_group_name_H-M	'P1'
_symmetry_Int_Tables_number	1
_symmetry_cell_setting	triclinic
loop_
_symmetry_equiv_pos_as_xyz
  x,y,z
_cell_length_a	17.077404
_cell_length_b	18.215405
_cell_length_c	17.077396
_cell_angle_alpha	90.028580
_cell_angle_beta	90.021444
_cell_angle_gamma	90.020979
loop_
_atom_site_label
_atom_site_type_symbol
_atom_site_fract_x
_atom_site_fract_y
_atom_site_fract_z
Zn1	Zn	1.200055	-0.293019	0.443883
Zn2	Zn	1.700055	0.206981	0.943883
Zn3	Zn	1.199963	-0.416092	0.312617
Zn4	Zn	1.699963	0.083908	0.812617
Zn5	Zn	1.068787	-0.293040	0.312626
Zn6	Zn	1.568787	0.206960	0.812626
Zn7	Zn	1.068756	-0.416044	0.443836
Zn8	Zn	1.568756	0.083956	0.943836
O9	O	1.134390	-0.354549	0.378240
O10	O	1.634390	0.145451	0.878240
O11	O	1.309890	-0.309356	0.426486
O12	O	1.809890	0.190644	0.926486
O13	O	1.182537	-0.399798	0.202771
O14	O	1.682537	0.100202	0.702771
O15	O	1.086252	-0.190053	0.330062
O16	O	1.586252	0.309947	0.830062
O17	O	1.309822	-0.399777	0.330045
O18	O	1.809822	0.100223	0.830045
O19	O	1.182694	-0.190037	0.426495
O20	O	1.682694	0.309963	0.926495
O21	O	1.086163	-0.309392	0.202778
O22	O	1.586163	0.190608	0.702778
O23	O	0.958936	-0.309346	0.330016
O24	O	1.458936	0.190654	0.830016
O25	O	1.086198	-0.399696	0.553689
O26	O	1.586198	0.100304	1.053689
O27	O	0.958913	-0.399716	0.426415
O28	O	1.458913	0.100284	0.926415
O29	O	1.182664	-0.309309	0.553724
O30	O	1.682664	0.190691	1.053724
O31	O	1.182506	-0.519070	0.329999
O32	O	1.682506	-0.019070	0.829999
O33	O	1.086109	-0.519035	0.426405
O34	O	1.586109	-0.019035	0.926405
C35	C	0.930442	-0.354529	0.378212
C36	C	1.430442	0.145471	0.878212
C37	C	0.843193	-0.354538	0.378218
C38	C	1.343193	0.145462	0.878218
C39	C	0.467411	-0.307571	0.428566
C40	C	0.967411	0.192429	0.928566
C41	C	0.549391	-0.307566	0.428557
C42	C	1.049391	0.192434	0.928557
C43	C	0.590344	-0.354564	0.378260
C44	C	1.090344	0.145436	0.878260
C45	C	0.549312	-0.401576	0.327974
C46	C	1.049312	0.098424	0.827974
C47	C	0.467333	-0.401585	0.327987
C48	C	0.967333	0.098415	0.827987
C49	C	0.720182	-0.401554	0.327949
C50	C	1.220182	0.098446	0.827949
C51	C	0.802166	-0.401545	0.327934
C52	C	1.302166	0.098455	0.827934
C53	C	0.802240	-0.307535	0.428519
C54	C	1.302240	0.192465	0.928519
C55	C	0.720261	-0.307544	0.428532
C56	C	1.220261	0.192456	0.928532
C57	C	0.679235	-0.354555	0.378245
C58	C	1.179235	0.145445	0.878245
C59	C	1.134315	-0.545755	0.378213
C60	C	1.634315	-0.045755	0.878213
C61	C	1.134355	-0.627554	0.378228
C62	C	1.634355	-0.127554	0.878228
C63	C	1.184596	-0.815679	0.428509
C64	C	1.684596	-0.315679	0.928509
C65	C	1.184625	-0.892537	0.428524
C66	C	1.684625	-0.392537	0.928524
C67	C	1.084282	-0.892667	0.328020
C68	C	1.584282	-0.392667	0.828020
C69	C	1.084250	-0.815810	0.328010
C70	C	1.584250	-0.315810	0.828010
C71	C	1.134411	-0.777317	0.378253
C72	C	1.634411	-0.277317	0.878253
C73	C	1.134472	-0.931034	0.378278
C74	C	1.634472	-0.431034	0.878278
C75	C	1.134502	-1.014367	0.378294
C76	C	1.634502	-0.514367	0.878294
C77	C	1.134380	-0.693979	0.378239
C78	C	1.634380	-0.193979	0.878239
C79	C	1.339135	-0.354569	0.378270
C80	C	1.839135	0.145431	0.878270
C81	C	1.426384	-0.354578	0.378282
C82	C	1.926384	0.145422	0.878282
C83	C	1.134438	-0.354495	0.582985
C84	C	1.634438	0.145505	1.082985
C85	C	1.134458	-0.354472	0.670235
C86	C	1.634458	0.145528	1.170235
C87	C	1.134487	-0.162596	0.378285
C88	C	1.634487	0.337404	0.878285
C89	C	1.134529	-0.080797	0.378304
C90	C	1.634529	0.419203	0.878304
C91	C	1.134388	-0.354550	0.174293
C92	C	1.634388	0.145450	0.674293
C93	C	1.134520	-0.354366	0.087043
C94	C	1.634520	0.145634	0.587043
C95	C	1.184689	-0.307403	0.711244
C96	C	1.684689	0.192597	1.211244
C97	C	1.184699	-0.307379	0.793225
C98	C	1.684699	0.192621	1.293225
C99	C	1.134480	-0.354427	0.834194
C100	C	1.634480	0.145573	1.334194
C101	C	1.084243	-0.401497	0.793179
C102	C	1.584243	0.098503	1.293179
C103	C	1.084231	-0.401517	0.711200
C104	C	1.584231	0.098483	1.211200
C105	C	1.084275	-0.401453	0.964049
C106	C	1.584275	0.098547	1.464049
C107	C	1.084289	-0.401434	1.046034
C108	C	1.584289	0.098566	1.546034
C109	C	1.184743	-0.307314	1.046074
C110	C	1.684743	0.192686	1.546074
C111	C	1.184730	-0.307335	0.964095
C112	C	1.684730	0.192665	1.464095
C113	C	1.134494	-0.354406	0.923085
C114	C	1.634494	0.145594	1.423085
H115	H	0.835648	-0.269256	0.469463
H116	H	1.335648	0.230744	0.969463
C117	C	0.978741	-0.979189	0.317017
C118	C	1.478741	-0.479189	0.817017
C119	C	1.029154	-0.934983	0.272789
C120	C	1.529154	-0.434983	0.772789
H121	H	0.944712	-1.005314	0.282915
H122	H	1.444712	-0.505314	0.782915
H123	H	0.948679	-0.949208	0.351175
H124	H	1.448679	-0.449208	0.851175
H125	H	1.008643	-1.013032	0.346946
H126	H	1.508643	-0.513032	0.846946
H127	H	0.999252	-0.901135	0.242864
H128	H	1.499252	-0.401135	0.742864
H129	H	1.059218	-0.964965	0.238617
H130	H	1.559218	-0.464965	0.738617
C131	C	0.978652	-0.411711	0.871841
C132	C	1.478652	0.088289	1.371841
C133	C	1.029055	-0.453201	0.918978
C134	C	1.529055	0.046799	1.418978
H135	H	0.944563	-0.443662	0.844023
H136	H	1.444563	0.056338	1.344023
H137	H	1.008552	-0.383703	0.835707
H138	H	1.508552	0.116297	1.335707
H139	H	0.948648	-0.379637	0.903829
H140	H	1.448648	0.120363	1.403829
H141	H	1.059064	-0.485271	0.886990
H142	H	1.559064	0.014729	1.386990
H143	H	0.999152	-0.481222	0.955117
H144	H	1.499152	0.018778	1.455117
H145	H	1.225604	-0.269053	0.826611
H146	H	1.725604	0.230947	1.326611
H147	H	1.043395	-0.439743	1.079389
H148	H	1.543395	0.060257	1.579389
H149	H	1.225627	-0.269028	0.930739
H150	H	1.725627	0.230972	1.430739
H151	H	0.686920	-0.269270	0.469485
H152	H	1.186920	0.230730	0.969485
H153	H	1.225440	-0.784340	0.469421
H154	H	1.725440	-0.284340	0.969421
H155	H	0.433930	-0.439864	0.287042
H156	H	0.933930	0.060136	0.787042
C157	C	1.229351	-0.265465	1.171755
C158	C	1.729351	0.234535	1.671755
C159	C	1.239951	-0.255559	1.091148
C160	C	1.739951	0.244441	1.591148
H161	H	1.263428	-0.233511	1.199583
H162	H	1.763428	0.266489	1.699583
H163	H	1.240824	-0.314901	1.185184
H164	H	1.740824	0.185099	1.685184
H165	H	1.176611	-0.254690	1.185167
H166	H	1.676611	0.245310	1.685167
H167	H	1.292689	-0.266340	1.077736
H168	H	1.792689	0.233660	1.577736
H169	H	1.228483	-0.206112	1.077714
H170	H	1.728483	0.293888	1.577714
C171	C	0.984959	-0.494568	0.719389
C172	C	1.484959	0.005432	1.219389
C173	C	1.029028	-0.453269	0.666119
C174	C	1.529028	0.046731	1.166119
H175	H	0.950884	-0.526522	0.691557
H176	H	1.450884	-0.026522	1.191557
H177	H	0.954946	-0.462496	0.751359
H178	H	1.454946	0.037504	1.251359
H179	H	1.019163	-0.522703	0.751371
H180	H	1.519163	-0.022703	1.251371
H181	H	0.994825	-0.425129	0.634141
H182	H	1.494825	0.074871	1.134141
H183	H	1.059043	-0.485344	0.634136
H184	H	1.559043	0.014656	1.134136
H185	H	1.225488	-0.923768	0.469449
H186	H	1.725488	-0.423768	0.969449
H187	H	0.835508	-0.439817	0.286980
H188	H	1.335508	0.060183	0.786980
H189	H	1.043380	-0.784574	0.287086
H190	H	1.543380	-0.284574	0.787086
H191	H	0.582791	-0.269291	0.469506
H192	H	1.082791	0.230709	0.969506
H193	H	1.043352	-0.439801	0.826543
H194	H	1.543352	0.060199	1.326543
H195	H	0.434073	-0.269295	0.469519
H196	H	0.934073	0.230705	0.969519
C197	C	0.728339	-0.494476	0.228516
C198	C	1.228339	0.005524	0.728516
C199	C	0.675084	-0.453228	0.272671
C200	C	1.175084	0.046772	0.772671
H201	H	0.700495	-0.526371	0.194387
H202	H	1.200495	-0.026371	0.694387
H203	H	0.760322	-0.522665	0.262656
H204	H	1.260322	-0.022665	0.762656
H205	H	0.760309	-0.462363	0.198550
H206	H	1.260309	0.037637	0.698550
H207	H	0.643118	-0.485342	0.302642
H208	H	1.143118	0.014658	0.802642
H209	H	0.643087	-0.425037	0.238526
H210	H	1.143087	0.074963	0.738526
C211	C	1.283978	-0.214363	0.719526
C212	C	1.783978	0.285637	1.219526
C213	C	1.239891	-0.255684	0.666214
C214	C	1.739891	0.244316	1.166214
H215	H	1.318052	-0.182429	0.691727
H216	H	1.818052	0.317571	1.191727
H217	H	1.313993	-0.246422	0.751497
H218	H	1.813993	0.253578	1.251497
H219	H	1.249786	-0.186205	0.751503
H220	H	1.749786	0.313795	1.251503
H221	H	1.274082	-0.283846	0.634241
H222	H	1.774082	0.216154	1.134241
H223	H	1.209874	-0.223621	0.634230
H224	H	1.709874	0.276379	1.134230
H225	H	0.582662	-0.439846	0.287024
H226	H	1.082662	0.060154	0.787024
