data_functionalizedCrystal
_audit_creation_method	'MofGen! by Chris Wilmer'
_symmetry_space_group_name_H-M	'P1'
_symmetry_Int_Tables_number	1
_symmetry_cell_setting	triclinic
loop_
_symmetry_equiv_pos_as_xyz
  x,y,z
_cell_length_a	16.704494
_cell_length_b	20.875641
_cell_length_c	20.875625
_cell_angle_alpha	59.251205
_cell_angle_beta	92.963957
_cell_angle_gamma	59.154867
loop_
_atom_site_label
_atom_site_type_symbol
_atom_site_fract_x
_atom_site_fract_y
_atom_site_fract_z
Zr1	Zr	0.840858	0.632938	-0.072807
O2	O	0.704999	0.777935	-0.186139
O3	O	0.878250	0.496042	-0.034848
O4	O	0.875231	0.630112	-0.173712
O5	O	0.715241	0.643269	0.058605
O6	O	1.014354	0.618667	-0.167569
O7	O	0.708018	0.643865	-0.047275
O8	O	1.019755	0.378840	0.080834
O9	O	0.709840	0.883095	-0.189798
O10	O	1.003165	0.540807	-0.017960
O11	O	0.904730	0.548904	0.056471
O12	O	0.901175	0.706753	-0.107023
O13	O	0.802739	0.714850	-0.032591
Zr14	Zr	1.074263	0.613733	0.105857
Zr15	Zr	1.062743	0.614684	-0.063009
Zr16	Zr	0.852377	0.631987	0.096059
Zr17	Zr	0.848579	0.800656	-0.078643
Zr18	Zr	1.066542	0.446015	0.111692
O19	O	1.036871	0.750629	0.067898
O20	O	1.020492	0.751981	-0.172207
O21	O	0.721378	0.776583	0.053966
O22	O	1.210122	0.468736	0.219189
O23	O	1.193743	0.470088	-0.020916
O24	O	0.894629	0.494690	0.205257
O25	O	1.199880	0.603402	-0.025555
O26	O	1.039890	0.616559	0.206762
O27	O	0.900766	0.628004	0.200618
O28	O	1.207103	0.602806	0.080324
O29	O	0.886209	0.868586	-0.182010
O30	O	1.028911	0.378085	0.215059
O31	O	1.205281	0.363576	0.222848
O32	O	1.196124	0.364331	0.088622
O33	O	0.718996	0.882340	-0.055572
O34	O	0.895366	0.867830	-0.047784
O35	O	1.013946	0.539917	0.140073
O36	O	1.112382	0.531821	0.065641
O37	O	1.010391	0.697767	-0.023422
O38	O	0.911955	0.705864	0.051010
C39	C	0.947903	0.413545	0.023824
C40	C	0.944625	0.342344	0.026302
C41	C	0.994465	0.304667	-0.011387
C42	C	0.991388	0.237762	-0.009052
C43	C	0.938465	0.208538	0.030968
C44	C	0.888624	0.246218	0.068662
C45	C	0.891707	0.313117	0.066331
C46	C	0.923738	0.008906	0.042111
C47	C	0.920656	-0.057997	0.044437
C48	C	1.023423	-0.066449	-0.033276
C49	C	1.026496	0.000456	-0.035608
C50	C	0.976660	0.038126	0.002090
N51	N	0.935316	0.140152	0.033354
N52	N	0.979815	0.106506	-0.000292
C53	C	0.680015	0.646168	0.004269
C54	C	0.585819	0.653917	0.000109
C55	C	0.515301	0.495215	0.085294
C56	C	0.426799	0.502492	0.081388
C57	C	0.320310	0.675746	-0.011603
C58	C	0.408813	0.668469	-0.007698
C59	C	0.506307	0.578201	0.040752
C60	C	0.594811	0.570925	0.044653
C61	C	0.488322	0.744178	-0.048334
C62	C	0.399819	0.751455	-0.052240
C63	C	1.235105	0.600503	0.028781
C64	C	1.329302	0.592754	0.032940
C65	C	0.943151	0.624525	-0.194700
C66	C	0.938261	0.624928	-0.266388
C67	C	0.967218	0.833126	0.009225
C68	C	0.970496	0.904327	0.006748
C69	C	1.012607	0.618814	-0.296683
C70	C	1.008015	0.619185	-0.364037
C71	C	0.929071	0.625677	-0.401098
C72	C	0.854721	0.631789	-0.370798
C73	C	0.859319	0.631411	-0.303441
C74	C	0.907107	0.627477	-0.602905
C75	C	0.902513	0.627857	-0.670268
C76	C	1.055809	0.615251	-0.663501
C77	C	1.060396	0.614879	-0.596147
C78	C	0.986049	0.620986	-0.565849
N79	N	0.924374	0.626059	-0.469947
N80	N	0.990752	0.620597	-0.496998
C81	C	0.971969	0.622146	0.227750
C82	C	0.976860	0.621743	0.299438
C83	C	1.225447	0.390712	0.036080
C84	C	1.316366	0.311762	0.042717
C85	C	0.962311	0.412356	0.235049
C86	C	0.963924	0.340751	0.309215
C87	C	1.239856	0.389523	0.247305
C88	C	1.335665	0.310170	0.325630
C89	C	0.675264	0.857148	-0.214256
C90	C	0.579456	0.936501	-0.292581
C91	C	0.689673	0.855958	-0.003031
C92	C	0.598755	0.934909	-0.009668
C93	C	0.952809	0.834315	-0.202000
C94	C	0.951197	0.905920	-0.276165
C95	C	1.302052	0.279377	0.002188
C96	C	1.387470	0.205205	0.008407
C97	C	1.487202	0.163415	0.055162
C98	C	1.501514	0.195807	0.095692
C99	C	1.416097	0.269982	0.089467
C100	C	1.021691	0.302434	0.387690
C101	C	1.023203	0.235164	0.457382
C102	C	0.966953	0.206206	0.448597
C103	C	0.909179	0.244531	0.370114
C104	C	0.907662	0.311805	0.300423
C105	C	1.432050	0.268677	0.323560
C106	C	1.522081	0.194125	0.397148
C107	C	1.515724	0.161061	0.472805
C108	C	1.419330	0.202561	0.474873
C109	C	1.329301	0.277117	0.401286
C110	C	0.483071	0.978002	-0.290511
C111	C	0.393042	1.052575	-0.364099
C112	C	0.399398	1.085642	-0.439757
C113	C	0.495792	1.044138	-0.441825
C114	C	0.585820	0.969571	-0.368237
C115	C	0.613069	0.967301	0.030854
C116	C	0.527650	1.041491	0.024616
C117	C	0.427918	1.083284	-0.022141
C118	C	0.413606	1.050889	-0.062668
C119	C	0.499024	0.976704	-0.056434
C120	C	1.007458	0.934855	-0.267354
C121	C	1.005964	1.002124	-0.337033
C122	C	0.948201	1.040463	-0.415522
C123	C	0.891937	1.011521	-0.424331
C124	C	0.893439	0.944248	-0.354653
H125	H	1.069590	0.024248	-0.068195
Br126	Br	0.747587	0.640591	-0.421088
H127	H	0.968197	0.151427	0.505351
H128	H	1.037555	0.328461	-0.043980
Br129	Br	1.652888	0.137817	0.394322
Br130	Br	0.312004	1.183963	-0.030594
Br131	Br	1.603116	0.062748	0.063601
H132	H	0.326083	1.146360	-0.499671
H133	H	0.883162	0.039565	0.072810
H134	H	0.851119	0.343795	0.097019
H135	H	0.487355	0.950334	-0.089430
Br136	Br	1.101619	0.183165	0.563884
Br137	Br	0.727124	0.448420	0.110400
Br138	Br	0.806209	0.635768	-0.561792
H139	H	0.946987	1.095241	-0.472251
H140	H	1.031972	0.207085	-0.039740
Br141	Br	0.647616	0.372713	0.151032
Br142	Br	0.758421	0.639701	-0.262322
H143	H	0.500956	1.071071	-0.503434
Br144	Br	0.439009	0.389864	0.141846
Br145	Br	0.832845	0.205221	0.358207
Br146	Br	0.187989	0.798242	-0.077334
Br147	Br	0.829259	0.363795	0.193924
H148	H	1.124678	0.609592	-0.565972
Br149	Br	1.440705	0.313536	0.220892
H150	H	1.220852	0.313402	-0.035894
Br151	Br	1.637917	0.059876	0.572668
H152	H	1.116340	0.610277	-0.688175
Br153	Br	1.091056	-0.117577	-0.084433
H154	H	1.582727	0.161771	0.133758
H155	H	1.250824	0.310891	0.402983
H156	H	0.664298	0.935781	-0.369932
H157	H	0.320429	0.824948	-0.091683
H158	H	1.076888	0.613533	-0.266514
H159	H	0.481003	0.811752	-0.084606
Br160	Br	0.278248	1.107615	-0.126118
Br161	Br	0.748409	0.910601	0.094313
H162	H	1.068554	0.614205	-0.388701
H163	H	0.539323	1.067854	0.057622
Br164	Br	0.795362	0.636676	-0.720566
H165	H	1.414170	0.175630	0.536484
Br166	Br	0.848820	-0.097651	0.098747
H167	H	1.375797	0.178842	-0.024598
Br168	Br	1.435542	0.313919	0.144483
H169	H	1.067498	0.326003	0.394858
H170	H	0.477876	0.951084	-0.228914
Br171	Br	0.262235	1.108885	-0.361274
H172	H	1.054496	0.903649	-0.203451
Br173	Br	1.082322	1.041391	-0.325059
Br174	Br	0.816819	0.206541	0.122993
Br175	Br	0.813540	1.063570	-0.530859
Br176	Br	0.817066	0.904995	-0.366626
