data_functionalizedCrystal
_audit_creation_method	'MofGen! by Chris Wilmer'
_symmetry_space_group_name_H-M	'P1'
_symmetry_Int_Tables_number	1
_symmetry_cell_setting	triclinic
loop_
_symmetry_equiv_pos_as_xyz
  x,y,z
_cell_length_a	12.811445
_cell_length_b	12.837942
_cell_length_c	11.892283
_cell_angle_alpha	94.307221
_cell_angle_beta	91.506393
_cell_angle_gamma	89.412982
loop_
_atom_site_label
_atom_site_type_symbol
_atom_site_fract_x
_atom_site_fract_y
_atom_site_fract_z
O1	O	1.391416	0.156321	0.236627
O2	O	1.089343	0.169330	0.205666
O3	O	1.233682	0.011845	0.220453
O4	O	1.247077	0.313806	0.221840
O5	O	1.245691	-0.001265	0.033681
O6	O	1.101352	0.156220	0.018894
O7	O	1.403425	0.143211	0.049855
Zn8	Zn	1.254295	0.147634	0.004720
Zn9	Zn	1.238473	0.164907	0.250801
O10	O	1.259086	0.300696	0.035068
C11	C	1.056415	0.161643	0.108289
C12	C	0.940408	0.158257	0.096399
C13	C	0.709321	0.166208	0.277695
C14	C	0.600321	0.163028	0.266527
C15	C	0.613406	0.148724	0.062897
C16	C	0.722406	0.151904	0.074065
C17	C	0.770359	0.160645	0.181467
C18	C	0.879361	0.163818	0.192633
C19	C	0.892444	0.149521	-0.010996
C20	C	0.783444	0.146341	-0.022163
C21	C	1.235161	-0.033383	0.126604
C22	C	1.221664	-0.148616	0.125222
C23	C	1.383922	-0.387698	0.141877
C24	C	1.371245	-0.495970	0.140579
C25	C	1.183633	-0.473434	0.121338
C26	C	1.196310	-0.365162	0.122635
C27	C	1.296458	-0.322298	0.132903
C28	C	1.309134	-0.214024	0.134193
C29	C	1.121523	-0.191490	0.114960
C30	C	1.108846	-0.299762	0.113662
C31	C	1.436353	0.150898	0.147234
C32	C	1.552360	0.154284	0.159132
C33	C	1.257607	0.345924	0.128920
C34	C	1.271104	0.461158	0.130309
N35	N	1.265100	0.135846	-0.163222
C36	C	1.340395	0.053765	-0.333012
C37	C	1.332820	0.062014	-0.215450
C38	C	1.204954	0.201436	-0.228566
C39	C	1.212530	0.193188	-0.346128
C40	C	1.280251	0.119349	-0.398347
C41	C	1.287821	0.111096	-0.515913
C42	C	1.159962	0.250523	-0.529026
C43	C	1.152386	0.258772	-0.411463
N44	N	1.227675	0.176687	0.418744
H45	H	0.744385	0.139227	-0.109607
H46	H	0.942153	0.144989	-0.089351
Br47	Br	1.489950	-0.584724	0.152766
Br48	Br	1.078324	0.339524	-0.617707
H49	H	1.390679	-0.179127	0.142549
H50	H	1.381796	0.008610	-0.162256
Br51	Br	1.379722	0.010883	-0.586781
Br52	Br	1.432285	-0.046456	-0.403885
Br53	Br	1.519833	-0.329522	0.155777
Br54	Br	0.774407	0.178051	0.423449
Br55	Br	1.113067	0.301655	-0.157684
Br56	Br	0.517485	0.170586	0.397128
H57	H	1.097251	0.318893	-0.368933
H58	H	1.102097	-0.508353	0.112990
H59	H	0.918403	0.170935	0.280086
Br60	Br	1.002815	-0.102729	0.102761
Br61	Br	0.548307	0.136886	-0.082851
Br62	Br	0.972937	-0.357944	0.099742
