data_functionalizedCrystal
_audit_creation_method	'MofGen! by Chris Wilmer'
_symmetry_space_group_name_H-M	'P1'
_symmetry_Int_Tables_number	1
_symmetry_cell_setting	triclinic
loop_
_symmetry_equiv_pos_as_xyz
  x,y,z
_cell_length_a	21.395362
_cell_length_b	21.295417
_cell_length_c	21.395355
_cell_angle_alpha	90.021451
_cell_angle_beta	90.043940
_cell_angle_gamma	90.046383
loop_
_atom_site_label
_atom_site_type_symbol
_atom_site_fract_x
_atom_site_fract_y
_atom_site_fract_z
Zn1	Zn	0.957860	-0.250415	0.354573
Zn2	Zn	0.957763	-0.355667	0.249790
Zn3	Zn	0.853075	-0.250445	0.249774
Zn4	Zn	0.853045	-0.355680	0.354495
O5	O	0.905436	-0.303052	0.302158
O6	O	1.045525	-0.264359	0.340713
O7	O	0.943848	-0.341716	0.162110
O8	O	0.867029	-0.162351	0.263702
O9	O	1.045454	-0.341687	0.263729
O10	O	0.944014	-0.162330	0.340697
O11	O	0.866934	-0.264409	0.162098
O12	O	0.765393	-0.264422	0.263626
O13	O	0.866977	-0.341709	0.442183
O14	O	0.765371	-0.341738	0.340564
O15	O	0.943984	-0.264372	0.442240
O16	O	0.943819	-0.443758	0.263653
O17	O	0.866883	-0.443767	0.340579
C18	C	0.742648	-0.303085	0.302085
C19	C	0.673007	-0.303114	0.302069
C20	C	0.640299	-0.343426	0.342070
C21	C	0.574863	-0.343411	0.342098
C22	C	0.542139	-0.303090	0.302114
C23	C	0.574855	-0.262771	0.262109
C24	C	0.640289	-0.262783	0.262087
C25	C	0.438414	-0.298019	0.245709
C26	C	0.372981	-0.298011	0.245730
C27	C	0.340318	-0.303049	0.302183
C28	C	0.373096	-0.308108	0.358616
C29	C	0.438530	-0.308120	0.358594
C30	C	0.471186	-0.303072	0.302134
C31	C	0.236657	-0.343346	0.342218
C32	C	0.171221	-0.343326	0.342247
C33	C	0.171214	-0.262690	0.262252
C34	C	0.236649	-0.262706	0.262229
C35	C	0.269367	-0.303038	0.302211
C36	C	0.905354	-0.466603	0.302123
C37	C	0.905376	-0.536571	0.302129
C38	C	0.945472	-0.569412	0.262115
C39	C	0.945502	-0.635155	0.262129
C40	C	0.905424	-0.668054	0.302151
C41	C	0.865324	-0.635205	0.342173
C42	C	0.865301	-0.569464	0.342162
N43	N	0.850614	-0.771336	0.306903
N44	N	0.850638	-0.833787	0.306910
C45	C	0.905494	-0.866129	0.302187
N46	N	0.960325	-0.833659	0.297445
N47	N	0.960300	-0.771202	0.297435
C48	C	0.905445	-0.739339	0.302167
C49	C	0.945625	-0.970255	0.262186
C50	C	0.945656	-1.035999	0.262204
C51	C	0.865473	-1.036048	0.342245
C52	C	0.865448	-0.970305	0.342230
C53	C	0.905523	-0.937413	0.302197
C54	C	1.068859	-0.303019	0.302231
C55	C	1.138501	-0.303005	0.302262
C56	C	0.905488	-0.303039	0.465581
C57	C	0.905510	-0.303033	0.535223
C58	C	0.905535	-0.138861	0.302206
C59	C	0.905578	-0.068893	0.302227
C60	C	0.905420	-0.303019	0.139370
C61	C	0.905519	-0.302847	0.069729
C62	C	0.945606	-0.262762	0.567967
C63	C	0.945605	-0.262735	0.633402
C64	C	0.905515	-0.302991	0.666091
C65	C	0.865411	-0.343265	0.633339
C66	C	0.865409	-0.343286	0.567905
C67	C	0.900539	-0.359672	0.769752
C68	C	0.900546	-0.359652	0.835185
C69	C	0.905519	-0.302924	0.867912
C70	C	0.910498	-0.246215	0.835198
C71	C	0.910496	-0.246237	0.769763
C72	C	0.905513	-0.302972	0.737043
C73	C	0.945616	-0.262620	0.971608
C74	C	0.945611	-0.262592	1.037045
C75	C	0.865420	-0.343127	1.036981
C76	C	0.865422	-0.343150	0.971545
C77	C	0.905523	-0.302897	0.938863
H78	H	0.548227	-0.376237	0.374675
C79	C	0.989107	-0.218911	0.668884
C80	C	0.975522	-0.156634	0.652954
C81	C	1.015588	-0.116248	0.685619
H82	H	0.983405	-0.224581	0.712544
H83	H	1.031209	-0.228087	0.658177
H84	H	0.933431	-0.147462	0.663665
H85	H	0.981228	-0.150945	0.609299
H86	H	1.057690	-0.125424	0.674913
H87	H	1.009883	-0.121923	0.729278
H88	H	1.006380	-0.073989	0.674811
C89	C	0.989072	-0.218884	1.072711
C90	C	0.980477	-0.227462	1.137012
C91	C	1.020495	-0.187200	1.169888
H92	H	1.031191	-0.228050	1.062099
H93	H	0.979921	-0.176581	1.062014
H94	H	0.989633	-0.269754	1.147705
H95	H	0.938366	-0.218291	1.147643
H96	H	1.011343	-0.144898	1.159190
H97	H	1.062611	-0.196370	1.159270
H98	H	1.014664	-0.193011	1.213519
C99	C	0.822012	-0.934613	0.385747
C100	C	0.857453	-0.896819	0.425956
C101	C	0.817461	-0.863937	0.466062
H102	H	0.794702	-0.908961	0.361813
H103	H	0.798157	-0.963601	0.409622
H104	H	0.881297	-0.867834	0.402084
H105	H	0.884761	-0.922455	0.449904
H106	H	0.793607	-0.892926	0.489936
H107	H	0.790154	-0.838289	0.442123
H108	H	0.841503	-0.838295	0.493352
H109	H	0.346503	-0.312209	0.404586
H110	H	0.978105	-0.542633	0.229519
H111	H	0.978259	-0.229985	0.541361
C112	C	0.915868	-0.184603	0.734358
C113	C	0.920208	-0.134914	0.777017
C114	C	0.925146	-0.078127	0.744424
H115	H	0.952181	-0.185331	0.708854
H116	H	0.879949	-0.179055	0.708821
H117	H	0.956123	-0.140460	0.802543
H118	H	0.883899	-0.134165	0.802522
H119	H	0.889228	-0.072578	0.718887
H120	H	0.961460	-0.078861	0.718922
H121	H	0.928086	-0.044405	0.773363
H122	H	0.144590	-0.376152	0.374825
C123	C	0.821790	-0.386756	1.072434
C124	C	0.759804	-0.373058	1.056487
C125	C	0.719592	-0.413229	1.089145
H126	H	0.830851	-0.429076	1.061744
H127	H	0.827493	-0.380967	1.116100
H128	H	0.754103	-0.378852	1.012831
H129	H	0.750723	-0.330746	1.067178
H130	H	0.725295	-0.407441	1.132811
H131	H	0.728659	-0.455547	1.078452
H132	H	0.677530	-0.403937	1.078334
H133	H	0.914548	-0.200022	0.861842
C134	C	0.821969	-0.386984	0.936025
C135	C	0.835584	-0.449260	0.951937
C136	C	0.795570	-0.489657	0.919222
H137	H	0.779855	-0.377859	0.946692
H138	H	0.827713	-0.381275	0.892367
H139	H	0.829835	-0.454966	0.995585
H140	H	0.877691	-0.458404	0.941268
H141	H	0.801313	-0.483948	0.875565
H142	H	0.753458	-0.480526	0.929892
H143	H	0.804806	-0.531916	0.930009
H144	H	0.978259	-0.943473	0.229590
C145	C	0.821985	-1.071872	0.385633
C146	C	0.830578	-1.136476	0.377071
C147	C	0.790524	-1.169499	0.417027
H148	H	0.831092	-1.061138	0.427765
H149	H	0.779873	-1.061191	0.376404
H150	H	0.872680	-1.147152	0.386304
H151	H	0.821467	-1.147228	0.334947
H152	H	0.748412	-1.158818	0.407798
H153	H	0.799634	-1.158760	0.459156
H154	H	0.796345	-1.213336	0.411219
C155	C	0.675785	-0.387131	0.385590
C156	C	0.659957	-0.373501	0.447611
C157	C	0.692642	-0.413742	0.487720
H158	H	0.665036	-0.429433	0.376428
H159	H	0.719447	-0.381362	0.379893
H160	H	0.616305	-0.379275	0.453305
H161	H	0.670708	-0.331206	0.456792
H162	H	0.736304	-0.407974	0.482024
H163	H	0.681890	-0.456042	0.478553
H164	H	0.681912	-0.404496	0.529806
H165	H	0.465215	-0.312237	0.404544
H166	H	0.978266	-0.229840	0.944997
H167	H	0.548206	-0.229940	0.229555
C168	C	0.895103	-0.421281	0.870587
C169	C	0.890722	-0.470963	0.827923
C170	C	0.885698	-0.527746	0.860511
H171	H	0.930991	-0.426891	0.896140
H172	H	0.858770	-0.420491	0.896074
H173	H	0.927052	-0.471754	0.802447
H174	H	0.854835	-0.465374	0.802368
H175	H	0.849364	-0.526955	0.885997
H176	H	0.921587	-0.533349	0.886063
H177	H	0.882719	-0.561461	0.831568
C178	C	0.473956	-0.292653	0.184451
C179	C	0.511472	-0.345881	0.176394
C180	C	0.544229	-0.340956	0.119978
H181	H	0.445140	-0.289671	0.150788
H182	H	0.499556	-0.256189	0.185315
H183	H	0.485874	-0.382335	0.175524
H184	H	0.540300	-0.348872	0.210042
H185	H	0.569829	-0.304491	0.120843
H186	H	0.515408	-0.337973	0.086320
H187	H	0.569691	-0.377066	0.114507
C188	C	0.135805	-0.218842	0.218816
C189	C	0.178460	-0.183532	0.183787
C190	C	0.145862	-0.143124	0.143774
H191	H	0.110221	-0.242805	0.191426
H192	H	0.110348	-0.191411	0.242830
H193	H	0.203906	-0.210960	0.159774
H194	H	0.204045	-0.159556	0.211160
H195	H	0.120405	-0.115692	0.167788
H196	H	0.120279	-0.167092	0.116388
H197	H	0.174798	-0.119157	0.120006
H198	H	0.666920	-0.229954	0.229513
C199	C	0.821787	-0.670808	0.385694
C200	C	0.786676	-0.627972	0.420748
C201	C	0.746570	-0.660745	0.460856
H202	H	0.794451	-0.696500	0.361767
H203	H	0.845737	-0.696397	0.413061
H204	H	0.762727	-0.602393	0.393385
H205	H	0.813995	-0.602278	0.444688
H206	H	0.770521	-0.686335	0.488223
H207	H	0.719239	-0.686436	0.436924
H208	H	0.722747	-0.631686	0.484649
C209	C	0.989323	-1.071543	0.218796
C210	C	1.051285	-1.055415	0.232528
C211	C	1.091541	-1.088126	0.192548
H212	H	0.983716	-1.115423	0.224477
H213	H	0.980212	-1.060780	0.176675
H214	H	1.060393	-1.066182	0.274638
H215	H	1.056912	-1.011541	0.226843
H216	H	1.082430	-1.077363	0.150428
H217	H	1.085928	-1.132004	0.198232
H218	H	1.133586	-1.077183	0.201856
H219	H	0.896322	-0.405855	0.743111
C220	C	0.821921	-0.387075	0.668746
C221	C	0.835514	-0.449359	0.652821
C222	C	0.795455	-0.489733	0.685418
H223	H	0.827626	-0.381382	0.712416
H224	H	0.779818	-0.377911	0.657980
H225	H	0.877607	-0.458520	0.663592
H226	H	0.829805	-0.455071	0.609157
H227	H	0.753352	-0.480569	0.674652
H228	H	0.801163	-0.484035	0.729087
H229	H	0.804668	-0.531997	0.674614
H230	H	0.263280	-0.229883	0.229652
C231	C	0.821979	-0.387052	0.532269
C232	C	0.857432	-0.427394	0.494719
C233	C	0.817448	-0.467715	0.461875
H234	H	0.798085	-0.411083	0.561034
H235	H	0.794705	-0.363003	0.506686
H236	H	0.884695	-0.451440	0.520300
H237	H	0.881325	-0.403379	0.465943
H238	H	0.790174	-0.443666	0.436291
H239	H	0.793556	-0.491742	0.490644
H240	H	0.841497	-0.495087	0.436389
H241	H	0.263297	-0.376183	0.374777
H242	H	0.346298	-0.293896	0.199778
H243	H	0.978155	-0.661899	0.229545
H244	H	0.832649	-0.542724	0.374747
