data_functionalizedCrystal
_audit_creation_method	'MofGen! by Chris Wilmer'
_symmetry_space_group_name_H-M	'P1'
_symmetry_Int_Tables_number	1
_symmetry_cell_setting	triclinic
loop_
_symmetry_equiv_pos_as_xyz
  x,y,z
_cell_length_a	19.288864
_cell_length_b	27.732048
_cell_length_c	18.366186
_cell_angle_alpha	89.988789
_cell_angle_beta	89.977106
_cell_angle_gamma	82.889449
loop_
_atom_site_label
_atom_site_type_symbol
_atom_site_fract_x
_atom_site_fract_y
_atom_site_fract_z
O1	O	0.920977	0.060300	-0.060791
O2	O	1.254310	0.393633	0.272542
O3	O	1.587643	0.726966	0.605876
O4	O	0.718665	0.068434	-0.060742
O5	O	1.051999	0.401767	0.272591
O6	O	1.385332	0.735101	0.605925
O7	O	0.826104	-0.006011	-0.060754
O8	O	1.159438	0.327323	0.272579
O9	O	1.492771	0.660656	0.605913
O10	O	0.813538	0.134745	-0.060779
O11	O	1.146871	0.468078	0.272555
O12	O	1.480204	0.801411	0.605888
O13	O	0.826086	-0.006014	0.060345
O14	O	1.159420	0.327319	0.393679
O15	O	1.492753	0.660652	0.727012
O16	O	0.718647	0.068430	0.060357
O17	O	1.051980	0.401764	0.393691
O18	O	1.385314	0.735097	0.727024
O19	O	0.920959	0.060296	0.060309
O20	O	1.254292	0.393629	0.393642
O21	O	1.587625	0.726963	0.726975
Zn22	Zn	0.819800	0.064363	0.079560
Zn23	Zn	1.153133	0.397696	0.412893
Zn24	Zn	1.486467	0.731029	0.746227
Zn25	Zn	0.819824	0.064368	-0.079994
Zn26	Zn	1.153157	0.397701	0.253340
Zn27	Zn	1.486490	0.731034	0.586673
O28	O	0.813520	0.134741	0.060321
O29	O	1.146853	0.468074	0.393654
O30	O	1.480186	0.801408	0.726987
C31	C	0.692781	0.068171	-0.000186
C32	C	1.026115	0.401504	0.333147
C33	C	1.359448	0.734837	0.666481
C34	C	0.615683	0.067385	-0.000167
C35	C	0.949016	0.400718	0.333167
C36	C	1.282349	0.734052	0.666500
C37	C	0.570714	0.111066	-0.000186
C38	C	0.904047	0.444399	0.333147
C39	C	1.237381	0.777732	0.666481
C40	C	0.498271	0.110328	-0.000194
C41	C	0.831605	0.443661	0.333140
C42	C	1.164938	0.776994	0.666473
C43	C	0.470801	0.065906	-0.000197
C44	C	0.804134	0.399239	0.333136
C45	C	1.137468	0.732573	0.666469
C46	C	0.515780	0.022219	-0.000174
C47	C	0.849113	0.355553	0.333159
C48	C	1.182446	0.688886	0.666493
C49	C	0.588220	0.022959	-0.000159
C50	C	0.921554	0.356292	0.333175
C51	C	1.254887	0.689626	0.666508
C52	C	0.362763	0.030987	-0.042642
C53	C	0.696097	0.364320	0.290691
C54	C	1.029430	0.697654	0.624025
C55	C	0.290323	0.030250	-0.042662
C56	C	0.623657	0.363583	0.290672
C57	C	0.956990	0.696916	0.624005
C58	C	0.247370	0.063624	-0.000241
C59	C	0.580703	0.396957	0.333092
C60	C	0.914036	0.730290	0.666426
C61	C	0.276863	0.097744	0.042190
C62	C	0.610197	0.431077	0.375524
C63	C	0.943530	0.764410	0.708857
C64	C	0.349304	0.098483	0.042206
C65	C	0.682637	0.431816	0.375539
C66	C	1.015971	0.765150	0.708872
C67	C	0.392252	0.065099	-0.000213
C68	C	0.725585	0.398433	0.333120
C69	C	1.058919	0.731766	0.666453
C70	C	0.123850	0.106507	-0.000268
C71	C	0.457183	0.439841	0.333066
C72	C	0.790517	0.773174	0.666399
C73	C	0.051406	0.105767	-0.000271
C74	C	0.384740	0.439101	0.333062
C75	C	0.718073	0.772434	0.666396
C76	C	0.068916	0.017658	-0.000258
C77	C	0.402250	0.350991	0.333075
C78	C	0.735583	0.684325	0.666408
C79	C	0.141358	0.018399	-0.000248
C80	C	0.474691	0.351732	0.333086
C81	C	0.808025	0.685066	0.666419
C82	C	0.168820	0.062825	-0.000256
C83	C	0.502154	0.396159	0.333078
C84	C	0.835487	0.729492	0.666411
C85	C	0.825831	-0.024020	-0.000202
C86	C	1.159165	0.309313	0.333131
C87	C	1.492498	0.642646	0.666464
C88	C	0.825037	-0.077678	-0.000196
C89	C	1.158371	0.255656	0.333137
C90	C	1.491704	0.588989	0.666470
C91	C	0.883526	-0.416316	-0.000248
C92	C	1.216859	-0.082983	0.333086
C93	C	1.550193	0.250351	0.666419
C94	C	0.880579	-0.617985	-0.000257
C95	C	1.213912	-0.284651	0.333076
C96	C	1.547245	0.048682	0.666410
O97	O	0.934063	-0.649079	-0.000302
O98	O	1.267396	-0.315745	0.333031
O99	O	1.600729	0.017588	0.666365
N100	N	0.816872	-0.637301	-0.000241
N101	N	1.150205	-0.303967	0.333092
N102	N	1.483539	0.029366	0.666426
C103	C	0.753897	-0.606196	-0.000227
C104	C	1.087231	-0.272863	0.333106
C105	C	1.420564	0.060470	0.666439
O106	O	0.699643	-0.627253	-0.000222
O107	O	1.032976	-0.293920	0.333112
O108	O	1.366310	0.039413	0.666445
C109	C	0.756845	-0.404529	-0.000223
C110	C	1.090178	-0.071195	0.333110
C111	C	1.423512	0.262138	0.666443
C112	C	0.820556	-0.385216	-0.000232
C113	C	1.153890	-0.051882	0.333101
C114	C	1.487223	0.281451	0.666435
C115	C	0.947232	-0.397002	-0.000257
C116	C	1.280565	-0.063669	0.333076
C117	C	1.613898	0.269664	0.666410
C118	C	0.947968	-0.346588	-0.000251
C119	C	1.281301	-0.013255	0.333083
C120	C	1.614635	0.320079	0.666416
C121	C	0.884998	-0.315488	-0.000235
C122	C	1.218331	0.017846	0.333098
C123	C	1.551665	0.351179	0.666432
C124	C	0.821292	-0.334801	-0.000226
C125	C	1.154626	-0.001468	0.333108
C126	C	1.487959	0.331865	0.666441
C127	C	0.693871	-0.373425	-0.000215
C128	C	1.027205	-0.040092	0.333119
C129	C	1.360538	0.293241	0.666452
C130	C	0.694614	-0.323006	-0.000216
C131	C	1.027947	0.010328	0.333118
C132	C	1.361281	0.343661	0.666451
C133	C	0.758325	-0.303693	-0.000224
C134	C	1.091658	0.029641	0.333109
C135	C	1.424992	0.362974	0.666442
C136	C	0.759059	-0.253287	-0.000203
C137	C	1.092392	0.080047	0.333130
C138	C	1.425725	0.413380	0.666463
N139	N	0.822766	-0.233971	-0.000219
N140	N	1.156099	0.099363	0.333114
N141	N	1.489432	0.432696	0.666447
C142	C	0.885735	-0.265071	-0.000235
C143	C	1.219069	0.068262	0.333098
C144	C	1.552402	0.401596	0.666431
C145	C	0.752354	-0.712075	-0.000228
C146	C	1.085687	-0.378742	0.333105
C147	C	1.419021	-0.045408	0.666438
C148	C	0.751617	-0.762492	-0.000228
C149	C	1.084950	-0.429158	0.333105
C150	C	1.418284	-0.095825	0.666439
C151	C	0.878299	-0.774276	-0.000259
C152	C	1.211632	-0.440943	0.333074
C153	C	1.544965	-0.107610	0.666408
C154	C	0.879035	-0.723859	-0.000254
C155	C	1.212368	-0.390526	0.333079
C156	C	1.545702	-0.057192	0.666413
C157	C	0.816061	-0.692759	-0.000244
C158	C	1.149394	-0.359426	0.333089
C159	C	1.482728	-0.026092	0.666422
C160	C	0.887276	-0.159197	-0.000221
C161	C	1.220610	0.174136	0.333112
C162	C	1.553943	0.507469	0.666445
C163	C	0.888007	-0.108778	-0.000212
C164	C	1.221340	0.224555	0.333121
C165	C	1.554674	0.557889	0.666455
C166	C	0.761325	-0.096998	-0.000185
C167	C	1.094659	0.236336	0.333149
C168	C	1.427992	0.569669	0.666482
C169	C	0.760595	-0.147412	-0.000190
C170	C	1.093928	0.185921	0.333143
C171	C	1.427261	0.519254	0.666476
C172	C	0.823576	-0.178511	-0.000211
C173	C	1.156909	0.154822	0.333122
C174	C	1.490242	0.488155	0.666456
O175	O	0.705603	-0.222164	-0.000167
O176	O	1.038937	0.111169	0.333166
O177	O	1.372270	0.444502	0.666500
O178	O	0.939982	-0.244005	-0.000257
O179	O	1.273315	0.089329	0.333076
O180	O	1.606648	0.422662	0.666409
C181	C	0.882790	-0.466730	-0.000254
C182	C	1.216123	-0.133397	0.333079
C183	C	1.549456	0.199936	0.666413
C184	C	0.819084	-0.486044	-0.000245
C185	C	1.152417	-0.152711	0.333089
C186	C	1.485751	0.180623	0.666422
C187	C	0.756114	-0.454943	-0.000229
C188	C	1.089448	-0.121610	0.333105
C189	C	1.422781	0.211723	0.666438
C190	C	0.818347	-0.536461	-0.000244
C191	C	1.151680	-0.203127	0.333089
C192	C	1.485013	0.130206	0.666422
C193	C	0.881317	-0.567561	-0.000260
C194	C	1.214650	-0.234228	0.333073
C195	C	1.547983	0.099106	0.666407
C196	C	0.945023	-0.548245	-0.000276
C197	C	1.278357	-0.214911	0.333057
C198	C	1.611690	0.118422	0.666391
C199	C	0.945760	-0.497831	-0.000270
C200	C	1.279093	-0.164497	0.333064
C201	C	1.612426	0.168836	0.666397
C202	C	0.692407	-0.474260	-0.000213
C203	C	1.025741	-0.140926	0.333121
C204	C	1.359074	0.192407	0.666454
C205	C	0.691676	-0.524674	-0.000218
C206	C	1.025010	-0.191341	0.333115
C207	C	1.358343	0.141992	0.666448
C208	C	0.754646	-0.555775	-0.000234
C209	C	1.087979	-0.222441	0.333099
C210	C	1.421313	0.110892	0.666433
C211	C	0.946842	0.060560	-0.000249
C212	C	1.280176	0.393893	0.333084
C213	C	1.613509	0.727226	0.666417
C214	C	1.023941	0.061345	-0.000273
C215	C	1.357274	0.394679	0.333060
C216	C	1.690608	0.728012	0.666393
C217	C	0.813792	0.152751	-0.000233
C218	C	1.147126	0.486084	0.333101
C219	C	1.480459	0.819417	0.666434
C220	C	0.814587	0.206408	-0.000244
C221	C	1.147920	0.539741	0.333090
C222	C	1.481253	0.873075	0.666423
N223	N	0.819789	0.064359	0.188451
N224	N	1.153122	0.397692	0.521785
N225	N	1.486455	0.731026	0.855118
N226	N	0.819841	0.064367	-0.188885
N227	N	1.153174	0.397701	0.144449
N228	N	1.486507	0.731034	0.477782
C229	C	0.867378	0.031411	0.226546
C230	C	1.200711	0.364744	0.559880
C231	C	1.534045	0.698078	0.893213
C232	C	0.867383	0.031409	0.302774
C233	C	1.200716	0.364742	0.636107
C234	C	1.534049	0.698076	0.969441
C235	C	0.819804	0.064363	0.340904
C236	C	1.153138	0.397696	0.674237
C237	C	1.486471	0.731030	1.007571
C238	C	0.772206	0.097314	0.302800
C239	C	1.105539	0.430647	0.636133
C240	C	1.438873	0.763980	0.969466
C241	C	0.772198	0.097312	0.226573
C242	C	1.105532	0.430645	0.559907
C243	C	1.438865	0.763978	0.893240
C244	C	0.810231	0.108406	0.461658
C245	C	1.143565	0.441739	0.794991
C246	C	1.476898	0.775073	1.128325
C247	C	0.810244	0.108409	0.537883
C248	C	1.143577	0.441742	0.871216
C249	C	1.476910	0.775075	1.204550
C250	C	0.819824	0.064369	0.576011
C251	C	1.153157	0.397703	0.909345
C252	C	1.486491	0.731036	1.242678
C253	C	0.829406	0.020325	0.537906
C254	C	1.162740	0.353659	0.871239
C255	C	1.496073	0.686992	1.204572
C256	C	0.829398	0.020323	0.461679
C257	C	1.162732	0.353657	0.795013
C258	C	1.496065	0.686990	1.128346
C259	C	0.819807	0.064369	0.423559
C260	C	1.153140	0.397702	0.756892
C261	C	1.486474	0.731035	1.090225
C262	C	0.867421	0.031416	0.696761
C263	C	1.200754	0.364749	1.030095
C264	C	1.534087	0.698083	1.363428
C265	C	0.867420	0.031413	0.772991
C266	C	1.200754	0.364747	1.106324
C267	C	1.534087	0.698080	1.439657
C268	C	0.772247	0.097322	0.773015
C269	C	1.105580	0.430656	1.106348
C270	C	1.438914	0.763989	1.439681
C271	C	0.772244	0.097321	0.696787
C272	C	1.105577	0.430654	1.030120
C273	C	1.438911	0.763988	1.363454
C274	C	0.819835	0.064368	0.658665
C275	C	1.153168	0.397702	0.991998
C276	C	1.486501	0.731035	1.325332
H277	H	0.146211	0.142682	-0.000263
H278	H	0.479544	0.476015	0.333070
H279	H	0.812877	0.809348	0.666403
Br280	Br	0.707607	0.142030	0.174868
Br281	Br	1.040941	0.475363	0.508202
Br282	Br	1.374274	0.808696	0.841535
H283	H	0.266315	0.002469	-0.077215
H284	H	0.599649	0.335802	0.256119
H285	H	0.932982	0.669136	0.589452
H286	H	0.997640	-0.482111	-0.000277
H287	H	1.330973	-0.148778	0.333056
H288	H	1.664306	0.184556	0.666390
Br289	Br	0.218578	0.143042	0.099763
Br290	Br	0.551911	0.476376	0.433097
Br291	Br	0.885245	0.809709	0.766430
H292	H	0.014793	0.141339	-0.000282
H293	H	0.348126	0.474672	0.333051
H294	H	0.681459	0.808006	0.666384
H295	H	0.624835	-0.012613	-0.000144
H296	H	0.958168	0.320721	0.333190
H297	H	1.291502	0.654054	0.666523
H298	H	0.639791	-0.540394	-0.000205
H299	H	0.973125	-0.207060	0.333129
H300	H	1.306458	0.126273	0.666462
H301	H	0.999848	-0.330868	-0.000261
H302	H	1.333181	0.002465	0.333072
H303	H	1.666515	0.335798	0.666406
H304	H	0.929571	-0.799607	-0.000271
H305	H	1.262904	-0.466274	0.333062
H306	H	1.596238	-0.132941	0.666395
H307	H	0.996296	-0.573576	-0.000286
H308	H	1.329629	-0.240242	0.333048
H309	H	1.662962	0.093091	0.666381
H310	H	0.939890	-0.093056	-0.000217
H311	H	1.273224	0.240277	0.333116
H312	H	1.606557	0.573610	0.666450
H313	H	0.046551	-0.018511	-0.000306
H314	H	0.379884	0.314822	0.333027
H315	H	0.713217	0.648156	0.666360
H316	H	0.837207	-0.015536	0.568948
H317	H	1.170540	0.317798	0.902282
H318	H	1.503874	0.651131	1.235615
Br319	Br	0.606939	-0.432059	-0.000195
Br320	Br	0.940272	-0.098726	0.333138
Br321	Br	1.273606	0.234608	0.666472
Br322	Br	1.032703	-0.439202	-0.000279
Br323	Br	1.366036	-0.105868	0.333054
Br324	Br	1.699370	0.227465	0.666387
H325	H	0.733466	0.124145	0.333849
H326	H	1.066799	0.457478	0.667182
H327	H	1.400132	0.790811	1.000515
Br328	Br	0.389330	0.144785	0.099789
Br329	Br	0.722664	0.478118	0.433123
Br330	Br	1.055997	0.811452	0.766456
Br331	Br	0.932005	-0.013310	0.824695
Br332	Br	1.265338	0.320024	1.158029
Br333	Br	1.598671	0.653357	1.491362
Br334	Br	0.478501	-0.038067	-0.000171
Br335	Br	0.811834	0.295266	0.333162
Br336	Br	1.145167	0.628599	0.666495
Br337	Br	0.421051	-0.014312	-0.100216
Br338	Br	0.754384	0.319021	0.233117
Br339	Br	1.087718	0.652355	0.566450
H340	H	0.906127	0.004578	0.195509
H341	H	1.239461	0.337911	0.528843
H342	H	1.572794	0.671245	0.862176
H343	H	0.938562	-0.184513	-0.000241
H344	H	1.271895	0.148821	0.333092
H345	H	1.605228	0.482154	0.666426
H346	H	0.930914	-0.708138	-0.000262
H347	H	1.264248	-0.374805	0.333072
H348	H	1.597581	-0.041471	0.666405
H349	H	0.699737	-0.778212	-0.000208
H350	H	1.033070	-0.444878	0.333125
H351	H	1.366404	-0.111545	0.666458
Br352	Br	0.932005	-0.013306	0.645022
Br353	Br	1.265338	0.320027	0.978356
Br354	Br	1.598671	0.653360	1.311689
H355	H	0.701070	-0.686757	-0.000220
H356	H	1.034403	-0.353424	0.333113
H357	H	1.367737	-0.020090	0.666447
H358	H	0.593069	0.147241	-0.000194
H359	H	0.926402	0.480574	0.333140
H360	H	1.259735	0.813908	0.666473
Br361	Br	0.437231	0.169613	-0.000215
Br362	Br	0.770564	0.502946	0.333118
Br363	Br	1.103897	0.836280	0.666451
H364	H	0.641991	-0.389141	-0.000212
H365	H	0.975324	-0.055808	0.333121
H366	H	1.308658	0.277526	0.666454
Br367	Br	0.609144	-0.280801	-0.000206
Br368	Br	0.942477	0.052532	0.333128
Br369	Br	1.275810	0.385866	0.666461
H370	H	0.708716	-0.163138	-0.000163
H371	H	1.042049	0.170196	0.333170
H372	H	1.375383	0.503529	0.666504
H373	H	0.177973	-0.017171	-0.000236
H374	H	0.511306	0.316163	0.333097
H375	H	0.844640	0.649496	0.666430
H376	H	0.710057	-0.071667	-0.000169
H377	H	1.043391	0.261667	0.333164
H378	H	1.376724	0.595000	0.666497
Br379	Br	0.707668	0.142041	0.824756
Br380	Br	1.041002	0.475374	1.158089
Br381	Br	1.374335	0.808708	1.491423
H382	H	0.906137	0.004578	0.333797
H383	H	1.239470	0.337911	0.667130
H384	H	1.572803	0.671244	1.000463
Br385	Br	0.842396	-0.039447	0.409966
Br386	Br	1.175729	0.293886	0.743299
Br387	Br	1.509062	0.627220	1.076633
H388	H	0.733495	0.124152	0.665768
H389	H	1.066828	0.457486	0.999101
H390	H	1.400162	0.790819	1.332435
Br391	Br	0.797247	0.168181	0.589590
Br392	Br	1.130581	0.501515	0.922923
Br393	Br	1.463914	0.834848	1.256257
H394	H	0.802418	0.144270	0.430620
H395	H	1.135751	0.477604	0.763953
H396	H	1.469085	0.810937	1.097287
