data_functionalizedCrystal
_audit_creation_method	'MofGen! by Chris Wilmer'
_symmetry_space_group_name_H-M	'P1'
_symmetry_Int_Tables_number	1
_symmetry_cell_setting	triclinic
loop_
_symmetry_equiv_pos_as_xyz
  x,y,z
_cell_length_a	19.077105
_cell_length_b	19.077713
_cell_length_c	19.076919
_cell_angle_alpha	85.341401
_cell_angle_beta	89.923776
_cell_angle_gamma	85.525329
loop_
_atom_site_label
_atom_site_type_symbol
_atom_site_fract_x
_atom_site_fract_y
_atom_site_fract_z
Zn1	Zn	-1.071382	0.341572	-0.454668
Zn2	Zn	-0.571382	0.841572	0.045332
Zn3	Zn	-1.080379	0.455095	-0.341897
Zn4	Zn	-0.580379	0.955095	0.158103
Zn5	Zn	-0.958237	0.332114	-0.332067
Zn6	Zn	-0.458237	0.832114	0.167933
Zn7	Zn	-0.958185	0.454669	-0.454632
Zn8	Zn	-0.458185	0.954669	0.045368
O9	O	-1.017046	0.395863	-0.395816
O10	O	-0.517046	0.895863	0.104184
O11	O	-1.171066	0.360768	-0.443838
O12	O	-0.671066	0.860768	0.056162
O13	O	-1.067964	0.435001	-0.242104
O14	O	-0.567964	0.935001	0.257896
O15	O	-0.969502	0.234570	-0.344231
O16	O	-0.469502	0.734570	0.155769
O17	O	-1.177676	0.444173	-0.360986
O18	O	-0.677676	0.944173	0.139014
O19	O	-1.052629	0.241518	-0.434306
O20	O	-0.552629	0.741518	0.065694
O21	O	-0.978226	0.344648	-0.234882
O22	O	-0.478226	0.844648	0.265118
O23	O	-0.859739	0.344235	-0.344196
O24	O	-0.359739	0.844235	0.155804
O25	O	-0.969413	0.443447	-0.553126
O26	O	-0.469413	0.943447	-0.053126
O27	O	-0.859701	0.434276	-0.434244
O28	O	-0.359701	0.934276	0.065756
O29	O	-1.052579	0.360355	-0.553152
O30	O	-0.552579	0.860355	-0.053152
O31	O	-1.067914	0.553838	-0.360951
O32	O	-0.567914	1.053838	0.139049
O33	O	-0.978138	0.553525	-0.443777
O34	O	-0.478138	1.053525	0.056223
C35	C	-0.834183	0.388183	-0.388150
C36	C	-0.334183	0.888183	0.111850
C37	C	-0.755953	0.384916	-0.384888
C38	C	-0.255953	0.884916	0.115112
C39	C	-1.024015	0.579300	-0.403443
C40	C	-0.524015	1.079300	0.096557
C41	C	-1.027060	0.657780	-0.406732
C42	C	-0.527060	1.157780	0.093268
C43	C	-1.009987	0.402909	-0.579390
C44	C	-0.509987	0.902909	-0.079390
C45	C	-1.006979	0.405911	-0.657618
C46	C	-0.506979	0.905911	-0.157618
C47	C	-1.200623	0.403573	-0.403512
C48	C	-0.700623	0.903573	0.096488
C49	C	-1.278852	0.406858	-0.406792
C50	C	-0.778852	0.906858	0.093208
C51	C	-0.719205	0.430325	-0.430171
C52	C	-0.219205	0.930325	0.069829
C53	C	-0.645699	0.427246	-0.427109
C54	C	-0.145699	0.927246	0.072891
C55	C	-0.608944	0.378759	-0.378760
C56	C	-0.108944	0.878759	0.121240
C57	C	-0.645697	0.333345	-0.333475
C58	C	-0.145697	0.833345	0.166525
C59	C	-0.719201	0.336422	-0.336541
C60	C	-0.219201	0.836422	0.163459
C61	C	-0.389110	0.364521	-0.364573
C62	C	0.110890	0.864521	0.135427
C63	C	-0.315601	0.361449	-0.361509
C64	C	0.184399	0.861449	0.138491
C65	C	-0.315608	0.455349	-0.455144
C66	C	0.184392	0.955349	0.044856
C67	C	-0.389113	0.458424	-0.458203
C68	C	0.110887	0.958424	0.041797
C69	C	-0.425860	0.413007	-0.412921
C70	C	0.074140	0.913007	0.087079
N71	N	-0.533809	0.375612	-0.375627
N72	N	-0.033809	0.875612	0.124373
N73	N	-0.500993	0.416152	-0.416057
N74	N	-0.000993	0.916152	0.083943
C75	C	-1.010068	0.211710	-0.388176
C76	C	-0.510068	0.711710	0.111824
C77	C	-1.007094	0.133235	-0.384920
C78	C	-0.507094	0.633235	0.115080
C79	C	-1.048898	1.099918	-0.430300
C80	C	-0.548898	1.599918	0.069700
C81	C	-1.046030	1.026178	-0.427203
C82	C	-0.546030	1.526178	0.072797
C83	C	-1.001352	0.985757	-0.378729
C84	C	-0.501352	1.485757	0.121271
C85	C	-0.959546	1.019079	-0.333344
C86	C	-0.459546	1.519079	0.166656
C87	C	-0.962419	1.092818	-0.336438
C88	C	-0.462419	1.592818	0.163562
C89	C	-0.988127	0.764841	-0.364441
C90	C	-0.488127	1.264841	0.135559
C91	C	-0.985256	0.691097	-0.361351
C92	C	-0.485256	1.191097	0.138649
C93	C	-1.071740	0.698201	-0.455210
C94	C	-0.571740	1.198201	0.044790
C95	C	-1.074606	0.771941	-0.458303
C96	C	-0.574606	1.271941	0.041697
C97	C	-1.032803	0.805257	-0.412915
C98	C	-0.532803	1.305257	0.087085
N99	N	-0.998417	0.910383	-0.375564
N100	N	-0.498417	1.410383	0.124436
N101	N	-1.035742	0.880629	-0.416077
N102	N	-0.535742	1.380629	0.083923
C103	C	-1.048863	0.364062	-0.694385
C104	C	-0.548863	0.864062	-0.194385
C105	C	-1.046028	0.366880	-0.767888
C106	C	-0.546028	0.866880	-0.267888
C107	C	-1.001312	0.411551	-0.804624
C108	C	-0.501312	0.911551	-0.304624
C109	C	-0.959423	0.453402	-0.767852
C110	C	-0.459423	0.953402	-0.267852
C111	C	-0.962254	0.450580	-0.694350
C112	C	-0.462254	0.950580	-0.194350
C113	C	-0.988195	0.424628	-1.024451
C114	C	-0.488195	0.924628	-0.524451
C115	C	-0.985368	0.427448	-1.097958
C116	C	-0.485368	0.927448	-0.597958
C117	C	-1.071973	0.340925	-1.097990
C118	C	-0.571973	0.840925	-0.597990
C119	C	-1.074804	0.338110	-1.024486
C120	C	-0.574804	0.838110	-0.524486
C121	C	-1.032912	0.379958	-0.987720
C122	C	-0.532912	0.879958	-0.487720
N123	N	-0.998414	0.414435	-0.879756
N124	N	-0.498414	0.914435	-0.379756
N125	N	-1.035806	0.377070	-0.912589
N126	N	-0.535806	0.877070	-0.412589
C127	C	-1.024116	0.388795	-0.212956
C128	C	-0.524116	0.888795	0.287044
C129	C	-1.027253	0.385599	-0.134725
C130	C	-0.527253	0.885599	0.365275
H131	H	-0.749126	0.469810	-0.469539
H132	H	-0.249126	0.969810	0.030461
Br133	Br	-0.769075	0.274788	-0.275087
Br134	Br	-0.269075	0.774788	0.224913
H135	H	-0.948953	0.463827	-1.127866
H136	H	-0.448953	0.963827	-0.627866
Br137	Br	-1.109558	0.303440	-0.644537
Br138	Br	-0.609558	0.803440	-0.144537
Br139	Br	-0.898731	0.514023	-0.817706
Br140	Br	-0.398731	1.014023	-0.317706
H141	H	-0.923172	0.986164	-0.293872
H142	H	-0.423172	1.486164	0.206128
H143	H	-0.419021	0.327544	-0.327696
H144	H	0.080979	0.827544	0.172304
H145	H	-0.615782	0.464223	-0.463982
H146	H	-0.115782	0.964223	0.036018
H147	H	-1.080071	0.999051	-0.464155
H148	H	-0.580071	1.499051	0.035845
Br149	Br	-1.128821	0.284134	-1.147889
Br150	Br	-0.628821	0.784134	-0.647889
H151	H	-0.948871	0.658189	-0.321876
H152	H	-0.448871	1.158189	0.178124
Br153	Br	-1.135495	0.277485	-0.974636
Br154	Br	-0.635495	0.777485	-0.474636
Br155	Br	-0.931390	0.810046	-0.302846
Br156	Br	-0.431390	1.310046	0.197154
Br157	Br	-0.905688	1.138035	-0.274843
Br158	Br	-0.405688	1.638035	0.225157
Br159	Br	-1.102908	0.310117	-0.817787
Br160	Br	-0.602908	0.810117	-0.317787
Br161	Br	-0.438991	0.524233	-0.523818
Br162	Br	0.061009	1.024233	-0.023818
H163	H	-1.085272	1.132824	-0.469780
H164	H	-0.585272	1.632824	0.030220
Br165	Br	-0.265734	0.516985	-0.516592
Br166	Br	0.234266	1.016985	-0.016592
H167	H	-0.954095	0.458714	-0.994526
H168	H	-0.454095	0.958714	-0.494526
H169	H	-0.928140	0.484650	-0.664415
H170	H	-0.428140	0.984650	-0.164415
Br171	Br	-1.135227	0.826793	-0.524106
Br172	Br	-0.635227	1.326793	-0.024106
H173	H	-0.285676	0.321958	-0.322142
H174	H	0.214324	0.821958	0.177858
H175	H	-0.615765	0.293864	-0.294111
H176	H	-0.115765	0.793864	0.205889
Br177	Br	-1.128470	0.652983	-0.516805
Br178	Br	-0.628470	1.152983	-0.016805
