data_functionalizedCrystal
_audit_creation_method	'MofGen! by Chris Wilmer'
_symmetry_space_group_name_H-M	'P1'
_symmetry_Int_Tables_number	1
_symmetry_cell_setting	triclinic
loop_
_symmetry_equiv_pos_as_xyz
  x,y,z
_cell_length_a	29.839131
_cell_length_b	29.839135
_cell_length_c	16.120256
_cell_angle_alpha	92.874936
_cell_angle_beta	92.862143
_cell_angle_gamma	90.037758
loop_
_atom_site_label
_atom_site_type_symbol
_atom_site_fract_x
_atom_site_fract_y
_atom_site_fract_z
Zn1	Zn	-0.191723	0.673889	-0.471388
Zn2	Zn	-0.263038	0.677630	-0.331952
Zn3	Zn	-0.187927	0.602572	-0.331985
Zn4	Zn	-0.266828	0.598730	-0.471308
O5	O	-0.227379	0.638205	-0.401658
O6	O	-0.201186	0.737252	-0.452911
O7	O	-0.249899	0.670847	-0.215294
O8	O	-0.125565	0.612074	-0.350525
O9	O	-0.253580	0.740001	-0.350468
O10	O	-0.128354	0.664471	-0.452944
O11	O	-0.194716	0.615702	-0.215319
O12	O	-0.198391	0.539196	-0.350447
O13	O	-0.260040	0.605526	-0.587981
O14	O	-0.256359	0.536373	-0.452807
O15	O	-0.204861	0.660745	-0.588040
O16	O	-0.326406	0.667122	-0.350390
O17	O	-0.329191	0.609154	-0.452775
C18	C	-0.227374	0.521484	-0.401623
C19	C	-0.227384	0.471549	-0.401627
C20	C	-0.200143	0.160468	-0.455079
C21	C	-0.200146	-0.027205	-0.455103
O22	O	-0.176974	-0.052691	-0.500510
N23	N	-0.227380	-0.049238	-0.401689
C24	C	-0.254613	-0.024349	-0.348261
O25	O	-0.277773	-0.047395	-0.302824
C26	C	-0.254606	0.163324	-0.348234
C27	C	-0.227374	0.185354	-0.401658
C28	C	-0.172912	0.182498	-0.508498
C29	C	-0.172913	0.229414	-0.508495
C30	C	-0.200145	0.254300	-0.455073
C31	C	-0.227375	0.232270	-0.401654
C32	C	-0.281836	0.188213	-0.294803
C33	C	-0.281831	0.235134	-0.294799
C34	C	-0.254599	0.257163	-0.348223
C35	C	-0.254608	0.304071	-0.348229
N36	N	-0.227374	0.326103	-0.401643
C37	C	-0.200143	0.301218	-0.455065
C38	C	-0.254615	-0.122880	-0.348281
C39	C	-0.254617	-0.169798	-0.348288
C40	C	-0.200150	-0.172651	-0.455129
C41	C	-0.200150	-0.125732	-0.455125
C42	C	-0.227381	-0.100847	-0.401695
C43	C	-0.200147	0.399744	-0.455055
C44	C	-0.200152	0.446663	-0.455049
C45	C	-0.254618	0.449513	-0.348206
C46	C	-0.254615	0.402597	-0.348214
C47	C	-0.227376	0.377714	-0.401641
O48	O	-0.277765	0.329585	-0.302839
O49	O	-0.176978	0.324272	-0.500483
C50	C	-0.200141	0.113553	-0.455083
C51	C	-0.227372	0.091523	-0.401664
C52	C	-0.254603	0.116409	-0.348242
C53	C	-0.227374	0.044605	-0.401672
C54	C	-0.200143	0.019719	-0.455094
C55	C	-0.172909	0.041752	-0.508508
C56	C	-0.172910	0.088667	-0.508504
C57	C	-0.281837	0.094376	-0.294828
C58	C	-0.281834	0.047460	-0.294837
C59	C	-0.254603	0.022575	-0.348258
C60	C	-0.344100	0.638139	-0.401588
C61	C	-0.394034	0.638150	-0.401586
C62	C	-0.705099	0.665480	-0.455064
C63	C	-0.892773	0.665527	-0.455114
O64	O	-0.918245	0.688698	-0.500531
N65	N	-0.914823	0.638279	-0.401751
C66	C	-0.889952	0.611015	-0.348375
O67	O	-0.913014	0.587836	-0.302994
C68	C	-0.702279	0.610965	-0.348330
C69	C	-0.680231	0.638219	-0.401691
C70	C	-0.683050	0.692730	-0.508421
C71	C	-0.636135	0.692720	-0.508404
C72	C	-0.611267	0.665459	-0.455031
C73	C	-0.633315	0.638208	-0.401674
C74	C	-0.677409	0.583699	-0.294960
C75	C	-0.630488	0.583689	-0.294954
C76	C	-0.608440	0.610942	-0.348315
C77	C	-0.561531	0.610937	-0.348285
N78	N	-0.539481	0.638185	-0.401648
C79	C	-0.564349	0.665446	-0.455021
C80	C	-0.988484	0.611043	-0.348402
C81	C	-1.035402	0.611056	-0.348412
C82	C	-1.038219	0.665568	-0.455152
C83	C	-0.991300	0.665557	-0.455137
C84	C	-0.966433	0.638292	-0.401765
C85	C	-0.465822	0.665423	-0.454983
C86	C	-0.418902	0.665411	-0.454959
C87	C	-0.416088	0.610898	-0.348223
C88	C	-0.463004	0.610911	-0.348243
C89	C	-0.487870	0.638175	-0.401629
O90	O	-0.536031	0.587775	-0.302899
O91	O	-0.541279	0.688614	-0.500409
C92	C	-0.752015	0.665490	-0.455080
C93	C	-0.774063	0.638239	-0.401723
C94	C	-0.749195	0.610978	-0.348350
C95	C	-0.820981	0.638252	-0.401733
C96	C	-0.845849	0.665513	-0.455107
C97	C	-0.823798	0.692761	-0.508470
C98	C	-0.776882	0.692751	-0.508453
C99	C	-0.771245	0.583730	-0.294987
C100	C	-0.818161	0.583743	-0.295007
C101	C	-0.843029	0.611004	-0.348380
C102	C	-0.110203	0.638284	-0.401747
C103	C	-0.060269	0.638317	-0.401785
C104	C	-0.233296	0.632290	-0.619105
C105	C	-0.235818	0.629769	-0.711768
C106	C	-0.227384	0.755383	-0.401695
C107	C	-0.227386	0.805317	-0.401710
C108	C	-0.214217	0.651350	-0.922740
C109	C	-0.240403	0.625152	-0.881419
C110	C	-0.237851	0.627722	-0.787016
C111	C	-0.216768	0.648781	-1.017150
C112	C	-0.221452	0.644123	-0.185058
C113	C	-0.218804	0.646731	-0.092396
H114	H	-0.304012	0.114633	-0.251324
O115	O	-0.173670	-0.104282	-0.506901
C116	C	-0.143313	-0.075853	-0.459542
H117	H	-0.157382	-0.067119	-0.396305
H118	H	-0.138240	-0.043779	-0.493520
H119	H	-0.109769	-0.093674	-0.450505
O120	O	-0.308227	0.026015	-0.242899
C121	C	-0.281139	0.000360	-0.189133
H122	H	-0.247923	-0.007449	-0.218663
H123	H	-0.299123	-0.032339	-0.177887
H124	H	-0.274468	0.020122	-0.127373
O125	O	-0.173655	0.467992	-0.506973
C126	C	-0.149628	0.435963	-0.554136
H127	H	-0.147116	0.403445	-0.519993
H128	H	-0.114485	0.449296	-0.563158
H129	H	-0.167854	0.429247	-0.617392
O130	O	-0.173754	0.375525	-0.506998
C131	C	-0.200840	0.346923	-0.560769
H132	H	-0.234056	0.340665	-0.531238
H133	H	-0.182854	0.313640	-0.572022
H134	H	-0.207514	0.363333	-0.622524
O135	O	-0.847891	0.719281	-0.560350
C136	C	-0.818375	0.743322	-0.607471
H137	H	-0.784010	0.745824	-0.573321
H138	H	-0.832148	0.778470	-0.616444
H139	H	-0.815101	0.725115	-0.670750
H140	H	-0.276790	0.469783	-0.304713
O141	O	-0.185228	0.680401	-0.880241
C142	C	-0.189101	0.676526	-0.794081
H143	H	-0.223457	0.662098	-0.782279
H144	H	-0.185184	0.711064	-0.760935
H145	H	-0.161796	0.653284	-0.769360
O146	O	-0.490017	0.691933	-0.506725
C147	C	-0.515845	0.722277	-0.459329
H148	H	-0.521197	0.708181	-0.396127
H149	H	-0.549743	0.727373	-0.493318
H150	H	-0.497483	0.755814	-0.450215
H151	H	-0.395834	0.588704	-0.304764
O152	O	-0.173683	-0.196762	-0.507099
C153	C	-0.149631	-0.167261	-0.554229
H154	H	-0.168107	-0.133903	-0.557058
H155	H	-0.146677	-0.182597	-0.619928
H156	H	-0.114660	-0.161427	-0.523814
O157	O	-0.146413	0.250740	-0.560408
C158	C	-0.122388	0.218707	-0.607565
H159	H	-0.119884	0.186189	-0.573424
H160	H	-0.087241	0.232035	-0.616578
H161	H	-0.140610	0.211994	-0.670826
O162	O	-0.146523	0.158279	-0.560441
C163	C	-0.173610	0.129680	-0.614216
H164	H	-0.206825	0.123422	-0.584686
H165	H	-0.155625	0.096397	-0.625479
H166	H	-0.180284	0.146094	-0.675967
O167	O	-0.839557	0.557200	-0.243257
C168	C	-0.828604	0.511924	-0.261389
H169	H	-0.817502	0.507819	-0.327983
H170	H	-0.859281	0.489930	-0.254179
H171	H	-0.800174	0.501413	-0.216669
H172	H	-0.276798	-0.187731	-0.304795
H173	H	-0.973352	0.687749	-0.498588
H174	H	-0.276791	-0.102622	-0.304769
O175	O	-0.269450	0.596054	-0.923661
C176	C	-0.293308	0.572210	-0.866649
H177	H	-0.273260	0.572320	-0.804558
H178	H	-0.298772	0.536138	-0.891867
H179	H	-0.327181	0.588888	-0.857420
H180	H	-0.304011	0.170284	-0.251299
H181	H	-0.751002	0.561531	-0.251525
H182	H	-0.304006	0.255393	-0.251288
H183	H	-0.150734	0.106600	-0.552007
O184	O	-0.281084	0.381266	-0.296249
C185	C	-0.305130	0.413294	-0.249118
H186	H	-0.286651	0.446828	-0.246298
H187	H	-0.308081	0.401517	-0.183416
H188	H	-0.340103	0.417435	-0.279526
O189	O	-0.397556	0.691897	-0.506877
C190	C	-0.429570	0.715967	-0.553975
H191	H	-0.463107	0.697493	-0.556835
H192	H	-0.417779	0.718939	-0.619665
H193	H	-0.433710	0.750930	-0.523511
O194	O	-0.614745	0.719140	-0.560365
C195	C	-0.628470	0.707032	-0.643434
H196	H	-0.641507	0.671029	-0.647573
H197	H	-0.598725	0.709758	-0.684630
H198	H	-0.656275	0.730517	-0.665270
O199	O	-0.146519	0.017523	-0.560443
C200	C	-0.173606	-0.011082	-0.614207
H201	H	-0.206826	-0.017328	-0.584683
H202	H	-0.155626	-0.044370	-0.625439
H203	H	-0.180271	0.005319	-0.675973
O204	O	-0.707225	0.719149	-0.560358
C205	C	-0.735847	0.692101	-0.614160
H206	H	-0.721885	0.656570	-0.619246
H207	H	-0.738085	0.706579	-0.678345
H208	H	-0.770715	0.691281	-0.588398
O209	O	-1.062403	0.691981	-0.507092
C210	C	-1.091021	0.664916	-0.560871
H211	H	-1.077047	0.629391	-0.565944
H212	H	-1.093272	0.679385	-0.625063
H213	H	-1.125885	0.664089	-0.535094
H214	H	-1.053349	0.588869	-0.304951
O215	O	-0.606283	0.557266	-0.243064
C216	C	-0.577681	0.584321	-0.189237
H217	H	-0.571411	0.617551	-0.218694
H218	H	-0.544405	0.566321	-0.178018
H219	H	-0.594099	0.590968	-0.127472
O220	O	-0.964398	0.584547	-0.296468
C221	C	-0.993927	0.560497	-0.249390
H222	H	-1.027277	0.578989	-0.246557
H223	H	-0.978613	0.557519	-0.183689
H224	H	-0.999771	0.525535	-0.279853
H225	H	-0.480957	0.588723	-0.304786
O226	O	-0.698799	0.557154	-0.243217
C227	C	-0.687845	0.511880	-0.261358
H228	H	-0.676747	0.507777	-0.327955
H229	H	-0.718519	0.489883	-0.254143
H230	H	-0.659411	0.501368	-0.216645
O231	O	-0.755445	0.719273	-0.560174
C232	C	-0.726994	0.749590	-0.512766
H233	H	-0.739359	0.754184	-0.447112
H234	H	-0.727249	0.783327	-0.542985
H235	H	-0.691369	0.735774	-0.509868
