data_functionalizedCrystal
_audit_creation_method	'MofGen! by Chris Wilmer'
_symmetry_space_group_name_H-M	'P1'
_symmetry_Int_Tables_number	1
_symmetry_cell_setting	triclinic
loop_
_symmetry_equiv_pos_as_xyz
  x,y,z
_cell_length_a	11.026607
_cell_length_b	10.967829
_cell_length_c	10.065875
_cell_angle_alpha	86.921207
_cell_angle_beta	79.302338
_cell_angle_gamma	96.380563
loop_
_atom_site_label
_atom_site_type_symbol
_atom_site_fract_x
_atom_site_fract_y
_atom_site_fract_z
O1	O	1.650232	0.494401	-0.229769
O2	O	2.150232	0.994401	0.270231
O3	O	1.294313	0.436514	-0.216157
O4	O	1.794313	0.936514	0.283843
O5	O	1.474049	0.290844	-0.181891
O6	O	1.974049	0.790844	0.318109
O7	O	1.470496	0.640071	-0.264035
O8	O	1.970496	1.140071	0.235965
O9	O	1.439782	0.318764	0.038531
O10	O	1.939782	0.818764	0.538531
O11	O	1.260047	0.464434	0.004264
O12	O	1.760047	0.964434	0.504264
O13	O	1.615965	0.522321	-0.009348
O14	O	2.115965	1.022321	0.490652
Zn15	Zn	1.432565	0.497810	0.032455
Zn16	Zn	1.932565	0.997810	0.532455
Zn17	Zn	1.477713	0.461025	-0.257959
Zn18	Zn	1.977713	0.961025	0.242041
O19	O	1.436230	0.667991	-0.043614
O20	O	1.936230	1.167991	0.456386
C21	C	1.231487	0.439794	-0.103435
C22	C	1.731487	0.939794	0.396565
C23	C	1.095337	0.407959	-0.095948
C24	C	1.595337	0.907959	0.404052
C25	C	1.025499	0.495861	-0.116625
C26	C	1.525499	0.995861	0.383375
C27	C	0.884780	0.462960	-0.108888
C28	C	1.384780	0.962960	0.391112
C29	C	1.454068	0.259400	-0.061003
C30	C	1.954068	0.759400	0.438997
C31	C	1.445569	0.124107	-0.029189
C32	C	1.945569	0.624107	0.470811
C33	C	1.459531	0.049332	-0.129191
C34	C	1.959531	0.549332	0.370809
C35	C	1.450747	-0.090500	-0.096311
C36	C	1.950747	0.409500	0.403689
C37	C	1.678792	0.519040	-0.122073
C38	C	2.178792	1.019040	0.377927
C39	C	1.814944	0.550874	-0.129568
C40	C	2.314944	1.050874	0.370432
C41	C	1.456211	0.699435	-0.164505
C42	C	1.956211	1.199435	0.335495
C43	C	1.464712	0.834726	-0.196328
C44	C	1.964712	1.334726	0.303672
N45	N	1.401762	0.522917	0.230655
N46	N	1.901762	1.022917	0.730655
N47	N	1.508526	0.435911	-0.456158
N48	N	2.008526	0.935911	0.043842
C49	C	1.466988	0.469751	0.310940
C50	C	1.966988	0.969751	0.810940
C51	C	1.443291	0.489085	0.463559
C52	C	1.943291	0.989085	0.963559
H53	H	1.069885	0.595475	-0.140049
H54	H	1.569885	1.095475	0.359951
F55	F	1.426613	-0.142123	0.047421
F56	F	1.926613	0.357877	0.547421
H57	H	0.840403	0.363336	-0.085490
H58	H	1.340403	0.863336	0.414510
F59	F	1.488799	-0.113658	-0.340061
F60	F	1.988799	0.386342	0.159939
H61	H	1.581912	0.376070	0.499598
H62	H	2.081912	0.876070	0.999598
F63	F	1.562682	0.391284	0.253167
F64	F	2.062682	0.891284	0.753167
H65	H	1.328371	0.582742	0.274908
H66	H	1.828371	1.082742	0.774908
H67	H	1.427104	0.084602	0.080768
H68	H	1.927104	0.584602	0.580768
H69	H	1.369895	0.548914	0.507806
H70	H	1.869895	1.048914	1.007806
F71	F	0.872944	0.681089	-0.160180
F72	F	1.372944	1.181089	0.339820
H73	H	1.050954	0.308341	-0.072551
H74	H	1.550954	0.808341	0.427449
H75	H	1.477982	0.088836	-0.239147
H76	H	1.977982	0.588836	0.260853
