data_functionalizedCrystal
_audit_creation_method	'MofGen! by Chris Wilmer'
_symmetry_space_group_name_H-M	'P1'
_symmetry_Int_Tables_number	1
_symmetry_cell_setting	triclinic
loop_
_symmetry_equiv_pos_as_xyz
  x,y,z
_cell_length_a	6.394989
_cell_length_b	16.992694
_cell_length_c	15.455313
_cell_angle_alpha	92.857794
_cell_angle_beta	87.254133
_cell_angle_gamma	88.582967
loop_
_atom_site_label
_atom_site_type_symbol
_atom_site_fract_x
_atom_site_fract_y
_atom_site_fract_z
O1	O	-0.435072	-1.048122	-0.072012
O2	O	-0.430202	-0.819790	-0.072038
O3	O	-0.129113	-0.937197	-0.072026
O4	O	-0.736160	-0.930715	-0.072025
O5	O	-0.146255	-0.930482	0.072236
O6	O	-0.447343	-0.813075	0.072223
O7	O	-0.452214	-1.041407	0.072249
Cu8	Cu	-0.451344	-0.926628	0.085408
Cu9	Cu	-0.431071	-0.934569	-0.085198
O10	O	-0.753302	-0.924000	0.072236
C11	C	-0.432511	-0.787158	0.000089
C12	C	-0.413829	-0.699930	0.000079
C13	C	-0.449904	-1.074039	0.000120
C14	C	-0.468586	-1.161267	0.000124
N15	N	-0.465602	-0.921049	0.205403
C16	C	-0.059649	-0.932558	0.000102
C17	C	0.177240	-0.928641	0.000100
N18	N	-0.416798	-0.940154	-0.205192
C19	C	-0.594077	-0.651470	0.000080
C20	C	-0.576513	-0.569510	0.000092
C21	C	-0.378698	-0.536010	0.000097
C22	C	-0.198437	-0.584476	0.000099
C23	C	-0.216003	-0.666434	0.000093
C24	C	-0.305891	-0.291692	0.000120
C25	C	-0.288338	-0.209727	0.000123
C26	C	-0.666416	-0.194766	0.000118
C27	C	-0.683964	-0.276728	0.000107
C28	C	-0.503704	-0.325186	0.000113
N29	N	-0.360740	-0.452233	0.000106
N30	N	-0.521664	-0.408961	0.000110
C31	C	-0.337742	-0.970946	0.250803
C32	C	-0.348545	-0.966733	0.341610
C33	C	-0.487220	-0.912628	0.387016
C34	C	-0.615085	-0.862725	0.341611
C35	C	-0.604270	-0.866934	0.250805
C36	C	-0.533847	-0.894461	0.658596
C37	C	-0.544658	-0.890257	0.749408
C38	C	-0.278114	-0.994265	0.749401
C39	C	-0.267319	-0.998472	0.658594
C40	C	-0.395176	-0.948567	0.613196
N41	N	-0.498271	-0.908323	0.479836
N42	N	-0.384114	-0.952869	0.520378
H43	H	-0.755159	-0.678739	0.000075
C44	C	-0.864693	-0.141461	0.000121
C45	C	-0.895712	-0.086531	-0.074784
C46	C	-1.093999	-0.033225	-0.074777
C47	C	-1.261266	-0.034848	0.000134
C48	C	-1.230252	-0.089780	0.075044
C49	C	-1.031965	-0.143086	0.075038
H50	H	-0.771887	-0.085327	-0.130242
H51	H	-1.116958	0.007439	-0.130231
H52	H	-1.408050	0.004612	0.000139
H53	H	-1.354077	-0.090984	0.130503
H54	H	-1.009006	-0.183750	0.130491
H55	H	-0.037373	-0.557193	0.000115
C56	C	-0.017729	-0.719744	0.000090
C57	C	0.131732	-0.711171	0.075003
C58	C	0.330012	-0.764479	0.075005
C59	C	0.378831	-0.826362	0.000094
C60	C	0.229367	-0.834938	-0.074825
C61	C	0.031087	-0.781629	-0.074827
H62	H	0.095597	-0.665359	0.130462
H63	H	0.440655	-0.758131	0.130465
H64	H	0.525610	-0.865824	0.000096
H65	H	0.265502	-0.880749	-0.130283
H66	H	-0.079556	-0.787978	-0.130287
C67	C	-0.114770	-1.057985	0.608644
C68	C	0.025892	-1.112874	0.658574
C69	C	0.178434	-1.172388	0.608621
C70	C	0.190315	-1.177013	0.508738
C71	C	0.049648	-1.122122	0.458802
C72	C	-0.102894	-1.062608	0.508755
H73	H	0.017101	-1.109452	0.732518
H74	H	0.282565	-1.213022	0.645587
H75	H	0.303236	-1.221069	0.471760
H76	H	0.058439	-1.125544	0.384858
H77	H	-0.207024	-1.021974	0.471789
H78	H	-0.224828	-1.015007	0.213839
C79	C	-0.774796	-0.516208	0.000093
C80	C	-0.924252	-0.524779	-0.074822
C81	C	-1.122549	-0.471478	-0.074817
C82	C	-1.171391	-0.409607	0.000103
C83	C	-1.021932	-0.401034	0.075024
C84	C	-0.823634	-0.454334	0.075019
H85	H	-0.888100	-0.570582	-0.130287
H86	H	-1.233188	-0.477825	-0.130279
H87	H	-1.318182	-0.370151	0.000106
H88	H	-1.058084	-0.355230	0.130489
H89	H	-0.712995	-0.447987	0.130481
H90	H	-0.244431	-1.007363	0.378574
H91	H	-0.637958	-0.853827	0.621640
C92	C	-0.107600	-0.344986	0.000115
C93	C	0.041877	-0.336405	0.075021
C94	C	0.240181	-0.389702	0.075013
C95	C	0.289009	-0.451579	0.000098
C96	C	0.139528	-0.460162	-0.074815
C97	C	-0.058776	-0.406866	-0.074806
H98	H	0.005735	-0.290598	0.130483
H99	H	0.350837	-0.383348	0.130468
H100	H	0.435806	-0.491033	0.000091
H101	H	0.175670	-0.505970	-0.130276
H102	H	-0.169431	-0.413220	-0.130262
H103	H	-0.174016	-1.034894	0.786373
H104	H	-0.708384	-0.826302	0.213841
C105	C	-0.767633	-0.803207	0.391553
C106	C	-0.779653	-0.798612	0.491436
C107	C	-0.932211	-0.739094	0.541375
C108	C	-1.072749	-0.684172	0.491431
C109	C	-1.060734	-0.688765	0.391543
C110	C	-0.908176	-0.748283	0.341604
H111	H	-0.675614	-0.839271	0.528412
H112	H	-0.941104	-0.735694	0.615319
H113	H	-1.185681	-0.640113	0.528399
H114	H	-1.164773	-0.648106	0.354566
H115	H	-0.899283	-0.751683	0.267659
H116	H	-0.845045	-0.303997	0.000093
H117	H	-0.127245	-0.182455	0.000126
H118	H	-0.657592	-0.846196	0.786374
