data_functionalizedCrystal
_audit_creation_method	'MofGen! by Chris Wilmer'
_symmetry_space_group_name_H-M	'P1'
_symmetry_Int_Tables_number	1
_symmetry_cell_setting	triclinic
loop_
_symmetry_equiv_pos_as_xyz
  x,y,z
_cell_length_a	12.837943
_cell_length_b	11.892283
_cell_length_c	12.837942
_cell_angle_alpha	85.692779
_cell_angle_beta	85.171060
_cell_angle_gamma	85.696109
loop_
_atom_site_label
_atom_site_type_symbol
_atom_site_fract_x
_atom_site_fract_y
_atom_site_fract_z
O1	O	1.396305	0.093980	-0.278165
O2	O	1.093171	0.093987	-0.264722
O3	O	1.238016	0.093977	-0.119876
O4	O	1.251459	0.093990	-0.423011
O5	O	1.250067	-0.094026	-0.107818
O6	O	1.105221	-0.094016	-0.252664
O7	O	1.408355	-0.094023	-0.266107
Zn8	Zn	1.258702	-0.123869	-0.257471
Zn9	Zn	1.242824	0.123833	-0.273358
O10	O	1.263510	-0.094013	-0.410953
C11	C	1.060127	-0.000014	-0.254152
C12	C	0.943712	-0.000011	-0.240607
N13	N	1.269545	-0.292919	-0.246629
C14	C	0.718838	-0.000020	-0.403436
C15	C	0.609456	-0.000019	-0.390715
C16	C	0.615563	-0.000015	-0.202444
C17	C	0.724945	-0.000017	-0.215165
C18	C	0.776579	-0.000017	-0.315665
C19	C	0.885963	-0.000011	-0.328385
C20	C	0.892068	-0.000015	-0.140115
C21	C	0.782686	-0.000014	-0.127394
C22	C	1.345105	-0.470429	-0.171142
C23	C	1.337503	-0.352089	-0.178727
C24	C	1.209188	-0.352097	-0.306952
C25	C	1.216790	-0.470436	-0.299367
C26	C	1.284750	-0.529598	-0.231459
C27	C	1.292346	-0.647939	-0.223869
C28	C	1.164037	-0.647944	-0.352100
C29	C	1.156435	-0.529605	-0.359685
C30	C	1.441399	-0.000020	-0.276677
C31	C	1.557814	-0.000015	-0.290222
C32	C	1.239500	-0.000024	-0.074778
C33	C	1.225956	-0.000022	0.041637
N34	N	1.231988	0.292884	-0.284193
C35	C	1.262025	-0.000009	-0.456051
C36	C	1.275570	-0.000004	-0.572466
C37	C	1.388784	-0.000002	0.266510
C38	C	1.376062	0.000000	0.375892
C39	C	1.187792	-0.000007	0.369785
C40	C	1.200513	-0.000009	0.260403
C41	C	1.301013	-0.000008	0.208769
C42	C	1.313734	-0.000019	0.099385
C43	C	1.125463	-0.000018	0.093280
C44	C	1.112742	-0.000016	0.202662
H45	H	0.928001	-0.000013	-0.410217
F46	F	1.417421	-0.533393	-0.098859
F47	F	0.773792	-0.000007	-0.510394
F48	F	1.401743	-0.289121	-0.114531
F49	F	1.084114	-0.466631	-0.431958
F50	F	0.548007	-0.000025	-0.484133
H51	H	0.939092	-0.000005	-0.068645
H52	H	1.347679	-0.696108	-0.168571
F53	F	0.560593	-0.000028	-0.095493
H54	H	1.153864	-0.303912	-0.362250
F55	F	1.495742	-0.000024	0.211556
H56	H	1.114888	-0.696133	-0.401211
H57	H	1.395566	-0.000022	0.057347
H58	H	1.447535	0.000009	0.422900
H59	H	1.105969	0.000004	0.411844
F60	F	1.032046	-0.000037	0.031821
F61	F	0.727722	-0.000017	-0.020440
F62	F	1.005788	-0.000008	0.257626
