data_functionalizedCrystal
_audit_creation_method	'MofGen! by Chris Wilmer'
_symmetry_space_group_name_H-M	'P1'
_symmetry_Int_Tables_number	1
_symmetry_cell_setting	triclinic
loop_
_symmetry_equiv_pos_as_xyz
  x,y,z
_cell_length_a	10.654558
_cell_length_b	10.654551
_cell_length_c	15.186229
_cell_angle_alpha	89.999082
_cell_angle_beta	89.997265
_cell_angle_gamma	84.486839
loop_
_atom_site_label
_atom_site_type_symbol
_atom_site_fract_x
_atom_site_fract_y
_atom_site_fract_z
O1	O	1.667834	0.176447	-0.073210
O2	O	1.302357	0.193242	-0.073214
O3	O	1.493498	0.002106	-0.073213
O4	O	1.476693	0.367583	-0.073212
O5	O	1.493485	0.002103	0.073245
O6	O	1.302344	0.193239	0.073243
O7	O	1.667821	0.176444	0.073247
Zn8	Zn	1.485080	0.184841	0.096498
Zn9	Zn	1.485097	0.184845	-0.096465
O10	O	1.476680	0.367581	0.073245
C11	C	1.255553	0.192005	0.000014
C12	C	1.116110	0.188309	0.000012
C13	C	1.492257	-0.044694	0.000014
C14	C	1.488565	-0.184137	0.000008
C15	C	0.919578	0.183115	-0.079822
C16	C	1.050601	0.186577	-0.079823
C17	C	1.050591	0.186567	0.079853
C18	C	0.919572	0.183096	0.079853
C19	C	0.854075	0.181396	-0.159662
C20	C	0.919585	0.183135	-0.239503
C21	C	1.050608	0.186597	-0.239504
C22	C	1.116120	0.188319	-0.159664
C23	C	1.486839	-0.249648	-0.079824
C24	C	1.483359	-0.380668	-0.079820
C25	C	1.483335	-0.380657	0.079856
C26	C	1.486806	-0.249638	0.079851
C27	C	1.488598	-0.184147	-0.159667
C28	C	1.486874	-0.249658	-0.239506
C29	C	1.483394	-0.380679	-0.239502
C30	C	1.481638	-0.446188	-0.159659
C31	C	1.714625	0.177681	0.000017
C32	C	1.854068	0.181377	0.000013
C33	C	1.477921	0.414380	0.000017
C34	C	1.481613	0.553823	0.000017
N35	N	1.485078	0.184838	0.228191
N36	N	1.485110	0.184838	-0.228158
C37	C	1.569744	0.100232	0.453915
C38	C	1.569748	0.100229	0.546104
C39	C	1.400434	0.269448	0.546112
C40	C	1.400425	0.269444	0.453924
C41	C	1.485087	0.184838	0.407828
C42	C	1.485100	0.184839	0.592205
C43	C	1.485104	0.184836	0.692161
C44	C	1.485083	0.184838	0.307865
H45	H	0.747389	0.178581	-0.159670
H46	H	1.488184	-0.196294	0.144857
Br47	Br	1.684638	-0.014604	0.608649
H48	H	1.481906	-0.434005	0.144860
Br49	Br	1.493333	-0.006336	-0.159677
Br50	Br	1.481036	-0.469582	-0.347851
Br51	Br	1.489250	-0.160756	-0.347858
H52	H	1.103944	0.188002	-0.304514
Br53	Br	1.476897	-0.624001	-0.159655
H54	H	1.638680	0.031338	0.416385
H55	H	0.866229	0.181704	0.144861
H56	H	1.331481	0.338341	0.416397
Br57	Br	0.830684	0.180762	-0.347852
Br58	Br	1.293941	0.192992	-0.159667
Br59	Br	1.285542	0.384270	0.608674
H60	H	1.103941	0.187971	0.144855
