data_functionalizedCrystal
_audit_creation_method	'MofGen! by Chris Wilmer'
_symmetry_space_group_name_H-M	'P1'
_symmetry_Int_Tables_number	1
_symmetry_cell_setting	triclinic
loop_
_symmetry_equiv_pos_as_xyz
  x,y,z
_cell_length_a	19.121424
_cell_length_b	19.120786
_cell_length_c	13.897441
_cell_angle_alpha	92.474365
_cell_angle_beta	87.588321
_cell_angle_gamma	95.008527
loop_
_atom_site_label
_atom_site_type_symbol
_atom_site_fract_x
_atom_site_fract_y
_atom_site_fract_z
Zn1	Zn	1.063733	-0.234191	0.469555
Zn2	Zn	1.563733	0.265809	0.969555
Zn3	Zn	1.058619	-0.351880	0.301648
Zn4	Zn	1.558619	0.148120	0.801648
Zn5	Zn	0.946064	-0.239246	0.314844
Zn6	Zn	1.446064	0.260754	0.814844
Zn7	Zn	0.941017	-0.356852	0.469473
Zn8	Zn	1.441017	0.143148	0.969473
O9	O	1.002358	-0.295542	0.388880
O10	O	1.502358	0.204458	0.888880
O11	O	1.161517	-0.245606	0.441794
O12	O	1.661517	0.254394	0.941794
O13	O	1.043660	-0.336973	0.168417
O14	O	1.543660	0.163027	0.668417
O15	O	0.965925	-0.140103	0.340924
O16	O	1.465925	0.359897	0.840924
O17	O	1.157759	-0.332072	0.318434
O18	O	1.657759	0.167928	0.818434
O19	O	1.052376	-0.136389	0.454590
O20	O	1.552376	0.363611	0.954590
O21	O	0.960966	-0.254221	0.178112
O22	O	1.460966	0.245779	0.678112
O23	O	0.846932	-0.259043	0.340844
O24	O	1.346932	0.240957	0.840844
O25	O	0.957324	-0.340546	0.604466
O26	O	1.457324	0.159454	1.104466
O27	O	0.843225	-0.345448	0.454449
O28	O	1.343225	0.154552	0.954449
O29	O	1.047483	-0.250427	0.604526
O30	O	1.547483	0.249573	1.104526
O31	O	1.038767	-0.451012	0.318353
O32	O	1.538767	0.048988	0.818353
O33	O	0.952365	-0.454665	0.441653
O34	O	1.452365	0.045335	0.941653
C35	C	0.819548	-0.303334	0.399070
C36	C	1.319548	0.196666	0.899070
C37	C	0.741341	-0.306684	0.403451
C38	C	1.241341	0.193316	0.903451
C39	C	0.298919	-0.327871	0.431270
C40	C	0.798919	0.172129	0.931270
C41	C	0.372403	-0.324728	0.427136
C42	C	0.872403	0.175272	0.927136
C43	C	0.411056	-0.278098	0.366027
C44	C	0.911056	0.221902	0.866027
C45	C	0.376220	-0.234612	0.309042
C46	C	0.876220	0.265388	0.809042
C47	C	0.302737	-0.237759	0.313172
C48	C	0.802737	0.262241	0.813172
C49	C	0.633022	-0.266346	0.350597
C50	C	1.133022	0.233654	0.850597
C51	C	0.706510	-0.263201	0.346473
C52	C	1.206510	0.236799	0.846473
C53	C	0.702688	-0.353318	0.464566
C54	C	1.202688	0.146682	0.964566
C55	C	0.629204	-0.356457	0.468695
C56	C	1.129204	0.143543	0.968695
C57	C	0.594375	-0.312975	0.411707
C58	C	1.094375	0.187025	0.911707
C59	C	0.486168	-0.274883	0.361801
C60	C	0.986168	0.225117	0.861801
C61	C	0.519263	-0.316194	0.415928
C62	C	1.019263	0.183806	0.915928
C63	C	0.994483	-0.478370	0.378582
C64	C	1.494483	0.021630	0.878582
C65	C	0.991178	-0.556582	0.374206
C66	C	1.491178	-0.056582	0.874206
C67	C	1.034602	-0.591334	0.431381
C68	C	1.534602	-0.091334	0.931381
C69	C	1.031494	-0.664822	0.427270
C70	C	1.531494	-0.164822	0.927270
C71	C	0.984965	-0.703558	0.365979
C72	C	1.484965	-0.203558	0.865979
C73	C	0.941536	-0.668801	0.308801
C74	C	1.441536	-0.168801	0.808801
C75	C	0.944641	-0.595314	0.312918
C76	C	1.444641	-0.095314	0.812918
C77	C	0.973337	-0.925541	0.350591
C78	C	1.473337	-0.425541	0.850591
C79	C	0.970236	-0.999033	0.346477
C80	C	1.470236	-0.499033	0.846477
C81	C	1.060194	-0.995049	0.464948
C82	C	1.560194	-0.495049	0.964948
C83	C	1.063298	-0.921560	0.469055
C84	C	1.563298	-0.421560	0.969055
C85	C	1.019867	-0.886810	0.411881
C86	C	1.519867	-0.386810	0.911881
C87	C	0.981789	-0.778675	0.361773
C88	C	1.481789	-0.278675	0.861773
C89	C	1.023040	-0.811695	0.416092
C90	C	1.523040	-0.311695	0.916092
C91	C	1.185882	-0.287720	0.378651
C92	C	1.685882	0.212280	0.878651
C93	C	1.264089	-0.284387	0.374292
C94	C	1.764089	0.215613	0.874292
C95	C	1.002411	-0.295478	0.640474
C96	C	1.502411	0.204522	1.140474
C97	C	1.002433	-0.295450	0.747688
C98	C	1.502433	0.204550	1.247688
C99	C	1.010284	-0.111999	0.399238
C100	C	1.510284	0.388001	0.899238
C101	C	1.013661	-0.033784	0.403652
C102	C	1.513661	0.466216	0.903652
C103	C	1.002349	-0.295554	0.138266
C104	C	1.502349	0.204446	0.638266
C105	C	1.002471	-0.295377	0.031056
C106	C	1.502471	0.204623	0.531056
C107	C	1.002454	-0.295402	0.943985
C108	C	1.502454	0.204598	1.443985
C109	C	1.002440	-0.295431	0.834752
C110	C	1.502440	0.204569	1.334752
H111	H	0.597738	-0.394430	0.518454
H112	H	1.097738	0.105570	1.018454
H113	H	0.909279	-0.567020	0.266361
H114	H	1.409279	-0.067020	0.766361
F115	F	1.077705	-0.701804	0.488135
F116	F	1.577705	-0.201804	0.988135
H117	H	1.101186	-0.890023	0.518963
H118	H	1.601186	-0.390023	1.018963
F119	F	0.527312	-0.225254	0.296770
F120	F	1.027312	0.274746	0.796770
H121	H	0.400759	-0.360138	0.473531
H122	H	0.900759	0.139862	0.973531
H123	H	0.932343	-1.030570	0.296566
H124	H	1.432343	-0.530570	0.796566
F125	F	1.106412	-1.032037	0.525794
F126	F	1.606412	-0.532037	1.025794
F127	F	0.927107	-0.888567	0.289749
F128	F	1.427107	-0.388567	0.789749
H129	H	1.060922	-0.780154	0.466000
H130	H	1.560922	-0.280154	0.966000
H131	H	0.903648	-0.700346	0.258900
H132	H	1.403648	-0.200346	0.758900
F133	F	0.595964	-0.220061	0.289952
F134	F	1.095964	0.279939	0.789952
H135	H	0.943906	-0.810221	0.311867
H136	H	1.443906	-0.310221	0.811867
H137	H	0.267454	-0.365838	0.481037
H138	H	0.767454	0.134162	0.981037
H139	H	0.737980	-0.225220	0.296718
H140	H	1.237980	0.274780	0.796718
F141	F	0.417359	-0.184987	0.244001
F142	F	0.917359	0.315013	0.744001
F143	F	0.265669	-0.191481	0.252524
F144	F	0.765669	0.308519	0.752524
F145	F	0.478125	-0.365824	0.480956
F146	F	0.978125	0.134176	0.980956
F147	F	1.084129	-0.550115	0.496611
F148	F	1.584129	-0.050115	0.996611
F149	F	0.739761	-0.399596	0.525206
F150	F	1.239761	0.100404	1.025206
