data_functionalizedCrystal
_audit_creation_method	'MofGen! by Chris Wilmer'
_symmetry_space_group_name_H-M	'P1'
_symmetry_Int_Tables_number	1
_symmetry_cell_setting	triclinic
loop_
_symmetry_equiv_pos_as_xyz
  x,y,z
_cell_length_a	11.792241
_cell_length_b	19.288864
_cell_length_c	10.868271
_cell_angle_alpha	89.981837
_cell_angle_beta	90.005281
_cell_angle_gamma	96.335169
loop_
_atom_site_label
_atom_site_type_symbol
_atom_site_fract_x
_atom_site_fract_y
_atom_site_fract_z
O1	O	0.141581	-0.922152	0.102718
O2	O	0.474915	-0.588819	0.436051
O3	O	0.808248	-0.255486	0.769384
O4	O	0.160680	-0.720000	0.102634
O5	O	0.494014	-0.386667	0.435967
O6	O	0.827347	-0.053334	0.769300
O7	O	-0.014114	-0.825982	0.102669
O8	O	0.319219	-0.492649	0.436002
O9	O	0.652553	-0.159315	0.769336
O10	O	0.316376	-0.816171	0.102682
O11	O	0.649709	-0.482837	0.436016
O12	O	0.983042	-0.149504	0.769349
O13	O	-0.014121	-0.825973	-0.101976
O14	O	0.319213	-0.492640	0.231358
O15	O	0.652546	-0.159306	0.564691
O16	O	0.160674	-0.719991	-0.102011
O17	O	0.494007	-0.386658	0.231322
O18	O	0.827340	-0.053325	0.564656
O19	O	0.141575	-0.922144	-0.101927
O20	O	0.474908	-0.588810	0.231406
O21	O	0.808241	-0.255477	0.564740
Zn22	Zn	0.151123	-0.821066	-0.134461
Zn23	Zn	0.484456	-0.487733	0.198873
Zn24	Zn	0.817790	-0.154399	0.532206
Zn25	Zn	0.151132	-0.821078	0.135167
Zn26	Zn	0.484465	-0.487744	0.468501
Zn27	Zn	0.817799	-0.154411	0.801834
O28	O	0.316369	-0.816162	-0.101962
O29	O	0.649702	-0.482828	0.231371
O30	O	0.983036	-0.149495	0.564704
C31	C	0.160063	-0.694116	0.000300
C32	C	0.493396	-0.360783	0.333634
C33	C	0.826729	-0.027449	0.666967
C34	C	0.158218	-0.617002	0.000268
C35	C	0.491551	-0.283668	0.333602
C36	C	0.824884	0.049665	0.666935
C37	C	-0.056399	-0.825361	0.000347
C38	C	0.276934	-0.492028	0.333680
C39	C	0.610268	-0.158695	0.667014
C40	C	-0.182385	-0.823517	0.000347
C41	C	0.150949	-0.490183	0.333681
C42	C	0.484282	-0.156850	0.667014
C43	C	0.142192	-0.948028	0.000409
C44	C	0.475526	-0.614695	0.333742
C45	C	0.808859	-0.281361	0.667076
C46	C	0.144037	-1.025142	0.000449
C47	C	0.477371	-0.691809	0.333783
C48	C	0.810704	-0.358475	0.667116
C49	C	-0.413046	-0.820125	0.000366
C50	C	-0.079712	-0.486791	0.333700
C51	C	0.253621	-0.153458	0.667033
C52	C	-0.284689	-0.822009	0.000356
C53	C	0.048644	-0.488676	0.333689
C54	C	0.381978	-0.155343	0.667023
C55	C	0.358654	-0.816782	0.000362
C56	C	0.691987	-0.483449	0.333696
C57	C	1.025321	-0.150116	0.667029
C58	C	0.484640	-0.818627	0.000370
C59	C	0.817973	-0.485294	0.333703
C60	C	1.151306	-0.151961	0.667037
N61	N	0.151116	-0.821063	-0.318475
N62	N	0.484450	-0.487730	0.014858
N63	N	0.817783	-0.154397	0.348192
C64	C	0.260779	-0.572888	0.000292
C65	C	0.594113	-0.239555	0.333625
C66	C	0.927446	0.093779	0.666958
C67	C	0.259046	-0.500431	0.000305
C68	C	0.592379	-0.167098	0.333638
C69	C	0.925713	0.166235	0.666972
C70	C	0.154746	-0.472091	0.000320
C71	C	0.488079	-0.138758	0.333653
C72	C	0.821412	0.194576	0.666987
C73	C	0.052171	-0.516215	0.000290
C74	C	0.385504	-0.182881	0.333623
C75	C	0.718837	0.150452	0.666956
C76	C	0.053907	-0.588670	0.000264
C77	C	0.387240	-0.255337	0.333597
C78	C	0.720573	0.077997	0.666930
C79	C	0.072756	-0.363366	0.072054
C80	C	0.406090	-0.030033	0.405387
C81	C	0.739423	0.303300	0.738721
C82	C	0.071024	-0.290912	0.072088
C83	C	0.404358	0.042421	0.405421
C84	C	0.737691	0.375755	0.738754
C85	C	0.149387	-0.248615	0.000394
C86	C	0.482720	0.084718	0.333728
C87	C	0.816053	0.418052	0.667061
C88	C	0.229500	-0.278780	-0.071317
C89	C	0.562833	0.054553	0.262017
C90	C	0.896167	0.387887	0.595350
C91	C	0.231236	-0.351235	-0.071343
C92	C	0.564570	-0.017902	0.261991
C93	C	0.897903	0.315431	0.595324
C94	C	0.152852	-0.393526	0.000347
C95	C	0.486185	-0.060193	0.333681
C96	C	0.819518	0.273140	0.667014
C97	C	0.250076	-0.125935	0.000431
C98	C	0.583409	0.207398	0.333764
C99	C	0.916743	0.540732	0.667097
C100	C	0.248339	-0.053477	0.000436
C101	C	0.581672	0.279856	0.333770
C102	C	0.915005	0.613190	0.667103
C103	C	0.041460	-0.069262	0.000433
C104	C	0.374794	0.264071	0.333767
C105	C	0.708127	0.597405	0.667100
C106	C	0.043201	-0.141718	0.000415
C107	C	0.376534	0.191615	0.333748
C108	C	0.709867	0.524948	0.667082
C109	C	0.147512	-0.170050	0.000419
C110	C	0.480845	0.163283	0.333753
C111	C	0.814178	0.496617	0.667086
C112	C	0.151130	-0.821074	-0.569481
C113	C	0.484463	-0.487741	-0.236148
C114	C	0.817796	-0.154407	0.097186
C115	C	0.151126	-0.821066	-0.429803
C116	C	0.484459	-0.487732	-0.096470
C117	C	0.817792	-0.154399	0.236863
N118	N	0.151130	-0.821086	0.319181
N119	N	0.484463	-0.487753	0.652515
N120	N	0.817796	-0.154419	0.985848
H121	H	0.345717	-0.595951	0.000298
H122	H	0.679051	-0.262618	0.333631
H123	H	1.012384	0.070716	0.666964
C124	C	0.361171	-0.004951	0.000444
C125	C	0.694504	0.328382	0.333778
C126	C	1.027837	0.661716	0.667111
N127	N	0.446158	0.031600	0.000447
N128	N	0.779492	0.364933	0.333780
N129	N	1.112825	0.698266	0.667113
C130	C	0.319348	-0.384415	-0.150236
C131	C	0.652682	-0.051081	0.183097
C132	C	0.986015	0.282252	0.516431
N133	N	0.385711	-0.409406	-0.209666
N134	N	0.719045	-0.076072	0.123667
N135	N	1.052378	0.257261	0.457001
H136	H	0.342567	-0.464507	0.000321
H137	H	0.675900	-0.131174	0.333654
H138	H	1.009233	0.202160	0.666987
C139	C	0.315703	-0.232258	-0.150191
C140	C	0.649036	0.101075	0.183143
C141	C	0.982369	0.434408	0.516476
N142	N	0.380628	-0.197215	-0.209596
N143	N	0.713962	0.136118	0.123738
N144	N	1.047295	0.469451	0.457071
H145	H	0.005796	-0.266358	0.130484
H146	H	0.339129	0.066976	0.463817
H147	H	0.672463	0.400309	0.797151
H148	H	0.335012	-0.149004	0.000416
H149	H	0.668346	0.184330	0.333749
H150	H	1.001679	0.517663	0.667083
H151	H	0.008942	-0.397800	0.130443
H152	H	0.342275	-0.064466	0.463776
H153	H	0.675609	0.268867	0.797110
C154	C	-0.073272	-0.038092	0.000448
C155	C	0.260061	0.295241	0.333781
C156	C	0.593395	0.628574	0.667115
N157	N	-0.159692	-0.014612	0.000457
N158	N	0.173642	0.318721	0.333790
N159	N	0.506975	0.652055	0.667123
H160	H	-0.040316	-0.177637	0.000403
H161	H	0.293017	0.155697	0.333736
H162	H	0.626350	0.489030	0.667069
C163	C	-0.062560	-0.485039	0.000307
C164	C	0.270773	-0.151706	0.333640
C165	C	0.604106	0.181627	0.666974
N166	N	-0.148979	-0.461558	0.000317
N167	N	0.184354	-0.128225	0.333650
N168	N	0.517688	0.205109	0.666984
C169	C	-0.058924	-0.637197	0.000246
C170	C	0.274409	-0.303864	0.333579
C171	C	0.607743	0.029470	0.666913
N172	N	-0.143910	-0.673749	0.000237
N173	N	0.189423	-0.340416	0.333570
N174	N	0.522757	-0.007082	0.666904
