data_functionalizedCrystal
_audit_creation_method	'MofGen! by Chris Wilmer'
_symmetry_space_group_name_H-M	'P1'
_symmetry_Int_Tables_number	1
_symmetry_cell_setting	triclinic
loop_
_symmetry_equiv_pos_as_xyz
  x,y,z
_cell_length_a	10.967926
_cell_length_b	22.610064
_cell_length_c	10.967829
_cell_angle_alpha	102.132222
_cell_angle_beta	87.248880
_cell_angle_gamma	77.886047
loop_
_atom_site_label
_atom_site_type_symbol
_atom_site_fract_x
_atom_site_fract_y
_atom_site_fract_z
O1	O	1.657115	-0.101881	0.175020
O2	O	1.293986	-0.063160	0.191775
O3	O	1.483917	-0.101883	0.001820
O4	O	1.467184	-0.063159	0.364975
O5	O	1.483860	-0.200246	0.001819
O6	O	1.293930	-0.161524	0.191774
O7	O	1.657059	-0.200245	0.175019
Zn8	Zn	1.475485	-0.196502	0.183397
Zn9	Zn	1.475559	-0.066903	0.183398
O10	O	1.467128	-0.161522	0.364975
C11	C	1.247461	-0.107727	0.190555
C12	C	1.108915	-0.093977	0.186908
N13	N	1.475444	-0.284950	0.183395
C14	C	1.047118	-0.138802	0.185282
C15	C	0.903924	-0.124592	0.181512
C16	C	1.551890	-0.693599	0.259764
C17	C	1.551906	-0.755521	0.259761
O18	O	1.616854	-0.787542	0.324683
N19	N	1.475583	-0.786503	0.183384
C20	C	1.399249	-0.755561	0.106995
O21	O	1.334333	-0.787600	0.042029
C22	C	1.399241	-0.693642	0.106992
C23	C	1.475560	-0.662661	0.183384
C24	C	1.628204	-0.662618	0.336148
C25	C	1.628186	-0.600701	0.336152
C26	C	1.551855	-0.569763	0.259772
C27	C	1.475542	-0.600744	0.183388
C28	C	1.322915	-0.662703	0.030598
C29	C	1.322914	-0.600780	0.030601
C30	C	1.399232	-0.569799	0.106992
C31	C	1.399193	-0.507888	0.107012
N32	N	1.475516	-0.476906	0.183390
C33	C	1.551847	-0.507844	0.259770
C34	C	1.399274	-0.885596	0.107005
C35	C	1.399274	-0.947513	0.107014
C36	C	1.551933	-0.947469	0.259778
C37	C	1.551925	-0.885549	0.259775
C38	C	1.475597	-0.854615	0.183382
C39	C	1.551803	-0.377812	0.259774
C40	C	1.551775	-0.315887	0.259775
C41	C	1.399121	-0.315938	0.107006
C42	C	1.399144	-0.377856	0.107009
C43	C	1.475495	-0.408792	0.183397
O44	O	1.334282	-0.475829	0.042119
O45	O	1.616764	-0.475800	0.324712
C46	C	1.703584	-0.155677	0.176239
C47	C	1.842129	-0.169423	0.179886
C48	C	1.482667	-0.155679	-0.044681
C49	C	1.479012	-0.169426	-0.183236
N50	N	1.475611	0.021543	0.183389
C51	C	1.477411	-0.124599	-0.245002
C52	C	1.473633	-0.138807	-0.388207
C53	C	1.468378	-0.107725	0.411475
C54	C	1.472033	-0.093974	0.550031
H55	H	1.100223	-0.187699	0.186673
H56	H	1.472199	-0.187705	-0.441339
F57	F	1.477138	-0.233337	-0.252684
H58	H	1.336984	-0.403079	0.044821
H59	H	0.850825	-0.075692	0.180111
H60	H	0.895227	-0.218324	0.181280
H61	H	1.690368	-0.687802	0.398346
H62	H	1.473445	-0.045072	-0.396836
H63	H	1.336971	-0.290737	0.044823
H64	H	1.690338	-0.575483	0.398353
H65	H	1.055812	-0.045081	0.185507
H66	H	1.613922	-0.290665	0.321988
H67	H	1.337113	-0.972729	0.044823
F68	F	1.633065	-0.410727	0.341073
F69	F	1.633157	-0.852584	0.341077
F70	F	1.479298	-0.060690	-0.175556
F71	F	1.633177	-0.980407	0.341064
H72	H	1.337106	-0.860411	0.044801
F73	F	1.241684	-0.695662	-0.050710
H74	H	1.260757	-0.575596	-0.031610
