data_functionalizedCrystal
_audit_creation_method	'MofGen! by Chris Wilmer'
_symmetry_space_group_name_H-M	'P1'
_symmetry_Int_Tables_number	1
_symmetry_cell_setting	triclinic
loop_
_symmetry_equiv_pos_as_xyz
  x,y,z
_cell_length_a	29.839131
_cell_length_b	19.805407
_cell_length_c	29.839126
_cell_angle_alpha	90.019086
_cell_angle_beta	90.024152
_cell_angle_gamma	90.038737
loop_
_atom_site_label
_atom_site_type_symbol
_atom_site_fract_x
_atom_site_fract_y
_atom_site_fract_z
Zn1	Zn	-0.178920	1.034674	0.253999
Zn2	Zn	0.154413	1.368007	0.587332
Zn3	Zn	0.487747	1.701340	0.920665
Zn4	Zn	-0.254040	1.034556	0.178869
Zn5	Zn	0.079293	1.367890	0.512202
Zn6	Zn	0.412626	1.701223	0.845535
Zn7	Zn	-0.178922	0.921486	0.178882
Zn8	Zn	0.154412	1.254819	0.512215
Zn9	Zn	0.487745	1.588152	0.845549
Zn10	Zn	-0.254020	0.921422	0.253971
Zn11	Zn	0.079313	1.254755	0.587304
Zn12	Zn	0.412647	1.588089	0.920637
O13	O	-0.216476	0.978034	0.216430
O14	O	0.116858	1.311368	0.549763
O15	O	0.450191	1.644701	0.883097
O16	O	-0.188893	1.129375	0.244038
O17	O	0.144441	1.462708	0.577372
O18	O	0.477774	1.796041	0.910705
O19	O	-0.244085	1.019535	0.116003
O20	O	0.089248	1.352868	0.449336
O21	O	0.422582	1.686201	0.782670
O22	O	-0.116054	0.936576	0.188864
O23	O	0.217279	1.269909	0.522197
O24	O	0.550612	1.603243	0.855530
O25	O	-0.244083	1.129288	0.188841
O26	O	0.089250	1.462622	0.522174
O27	O	0.422583	1.795955	0.855507
O28	O	-0.116053	1.019735	0.244051
O29	O	0.217280	1.353068	0.577385
O30	O	0.550614	1.686401	0.910718
O31	O	-0.188896	0.936462	0.116013
O32	O	0.144438	1.269796	0.449346
O33	O	0.477771	1.603129	0.782680
O34	O	-0.188876	0.826761	0.188837
O35	O	0.144457	1.160094	0.522170
O36	O	0.477791	1.493427	0.855503
O37	O	-0.244049	0.936468	0.316842
O38	O	0.089285	1.269801	0.650175
O39	O	0.422618	1.603134	0.983508
O40	O	-0.244050	0.826714	0.244004
O41	O	0.089283	1.160047	0.577337
O42	O	0.422616	1.493381	0.910671
O43	O	-0.188873	1.019673	0.316862
O44	O	0.144460	1.353006	0.650195
O45	O	0.477794	1.686340	0.983529
O46	O	-0.316905	1.019473	0.188814
O47	O	0.016428	1.352806	0.522147
O48	O	0.349762	1.686140	0.855480
O49	O	-0.316890	0.936354	0.243991
O50	O	0.016443	1.269687	0.577324
O51	O	0.349777	1.603021	0.910658
C52	C	-0.216461	0.802178	0.216419
C53	C	0.116872	1.135512	0.549752
C54	C	0.450205	1.468845	0.883086
C55	C	-0.216466	0.726946	0.216425
C56	C	0.116867	1.060280	0.549758
C57	C	0.450200	1.393613	0.883092
C58	C	-0.187779	0.691648	0.245210
C59	C	0.145554	1.024981	0.578544
C60	C	0.478887	1.358314	0.911877
C61	C	-0.187782	0.620959	0.245212
C62	C	0.145552	0.954293	0.578545
C63	C	0.478885	1.287626	0.911879
C64	C	-0.216474	0.585571	0.216430
C65	C	0.116860	0.918904	0.549764
C66	C	0.450193	1.252237	0.883097
C67	C	-0.245162	0.620874	0.187642
C68	C	0.088172	0.954208	0.520975
C69	C	0.421505	1.287541	0.854309
C70	C	-0.245157	0.691562	0.187638
C71	C	0.088176	1.024895	0.520972
C72	C	0.421510	1.358228	0.854305
C73	C	-0.245182	0.335801	0.187656
C74	C	0.088151	0.669134	0.520989
C75	C	0.421485	1.002468	0.854323
C76	C	-0.245186	0.265109	0.187663
C77	C	0.088148	0.598442	0.520996
C78	C	0.421481	0.931776	0.854329
C79	C	-0.187807	0.265199	0.245229
C80	C	0.145527	0.598532	0.578563
C81	C	0.478860	0.931866	0.911896
C82	C	-0.187802	0.335886	0.245226
C83	C	0.145531	0.669219	0.578559
C84	C	0.478865	1.002553	0.911892
C85	C	-0.216488	0.371183	0.216436
C86	C	0.116845	0.704517	0.549769
C87	C	0.450178	1.037850	0.883103
C88	C	-0.216485	0.447832	0.216434
C89	C	0.116849	0.781165	0.549767
C90	C	0.450182	1.114499	0.883100
C91	C	-0.216480	0.508924	0.216435
C92	C	0.116854	0.842257	0.549768
C93	C	0.450187	1.175590	0.883101
C94	C	-0.333198	0.977912	0.216408
C95	C	0.000135	1.311246	0.549741
C96	C	0.333469	1.644579	0.883074
C97	C	-0.383133	0.977922	0.216413
C98	C	-0.049799	1.311255	0.549746
C99	C	0.283534	1.644588	0.883080
C100	C	-0.692771	1.021393	0.187741
C101	C	-0.359438	1.354727	0.521074
C102	C	-0.026104	1.688060	0.854408
C103	C	-0.880444	1.021477	0.187759
C104	C	-0.547111	1.354810	0.521092
C105	C	-0.213777	1.688143	0.854425
O106	O	-0.904705	1.058341	0.163363
O107	O	-0.571371	1.391674	0.496697
O108	O	-0.238038	1.725007	0.830030
N109	N	-0.903918	0.978175	0.216464
N110	N	-0.570584	1.311508	0.549797
N111	N	-0.237251	1.644841	0.883130
C112	C	-0.880470	0.934852	0.245169
C113	C	-0.547137	1.268185	0.578502
C114	C	-0.213803	1.601519	0.911836
O115	O	-0.904742	0.898028	0.269588
O116	O	-0.571409	1.231361	0.602921
O117	O	-0.238075	1.564694	0.936255
C118	C	-0.692798	0.934772	0.245153
C119	C	-0.359464	1.268106	0.578487
C120	C	-0.026131	1.601439	0.911820
C121	C	-0.669327	0.978072	0.216443
C122	C	-0.335993	1.311406	0.549776
C123	C	-0.002660	1.644739	0.883110
C124	C	-0.669300	1.064690	0.159033
C125	C	-0.335967	1.398024	0.492367
C126	C	-0.002633	1.731357	0.825700
C127	C	-0.622384	1.064666	0.159028
C128	C	-0.289051	1.398000	0.492361
C129	C	0.044282	1.731333	0.825694
C130	C	-0.598940	1.021345	0.187730
C131	C	-0.265607	1.354679	0.521063
C132	C	0.067727	1.688012	0.854396
C133	C	-0.622411	0.978048	0.216437
C134	C	-0.289078	1.311382	0.549771
C135	C	0.044255	1.644715	0.883104
C136	C	-0.669351	0.891453	0.273860
C137	C	-0.336018	1.224787	0.607194
C138	C	-0.002684	1.558120	0.940527
C139	C	-0.622430	0.891438	0.273855
C140	C	-0.289097	1.224772	0.607188
C141	C	0.044237	1.558105	0.940521
C142	C	-0.598959	0.934738	0.245144
C143	C	-0.265626	1.268072	0.578478
C144	C	0.067708	1.601405	0.911811
C145	C	-0.552051	0.934703	0.245133
C146	C	-0.218718	1.268037	0.578467
C147	C	0.114615	1.601370	0.911800
N148	N	-0.528578	0.978005	0.216428
N149	N	-0.195245	1.311339	0.549761
N150	N	0.138089	1.644672	0.883095
C151	C	-0.552022	1.021326	0.187726
C152	C	-0.218689	1.354660	0.521059
C153	C	0.114644	1.687993	0.854393
C154	C	-0.979001	0.934896	0.245174
C155	C	-0.645667	1.268229	0.578508
C156	C	-0.312334	1.601562	0.911841
C157	C	-1.025918	0.934915	0.245178
C158	C	-0.692585	1.268248	0.578511
C159	C	-0.359252	1.601581	0.911844
C160	C	-1.025889	1.021541	0.187768
C161	C	-0.692556	1.354874	0.521101
C162	C	-0.359223	1.688207	0.854435
C163	C	-0.978971	1.021518	0.187763
C164	C	-0.645637	1.354851	0.521096
C165	C	-0.312304	1.688185	0.854429
C166	C	-0.955527	0.978198	0.216469
C167	C	-0.622194	1.311531	0.549802
C168	C	-0.288860	1.644865	0.883136
C169	C	-0.453496	1.021273	0.187716
C170	C	-0.120163	1.354606	0.521049
C171	C	0.213170	1.687939	0.854383
C172	C	-0.406577	1.021243	0.187711
C173	C	-0.073244	1.354576	0.521045
C174	C	0.260090	1.687909	0.854378
C175	C	-0.406610	0.934620	0.245123
C176	C	-0.073277	1.267953	0.578456
C177	C	0.260057	1.601286	0.911789
C178	C	-0.453526	0.934647	0.245126
C179	C	-0.120192	1.267980	0.578459
C180	C	0.213141	1.601313	0.911792
C181	C	-0.476968	0.977978	0.216421
C182	C	-0.143634	1.311312	0.549754
C183	C	0.189699	1.644645	0.883087
O184	O	-0.527762	0.897864	0.269519
O185	O	-0.194429	1.231197	0.602853
O186	O	0.138905	1.564531	0.936186
O187	O	-0.527742	1.058156	0.163318
O188	O	-0.194409	1.391489	0.496651
O189	O	0.138924	1.724822	0.829984
C190	C	-0.739686	1.021417	0.187747
C191	C	-0.406353	1.354750	0.521080
C192	C	-0.073020	1.688084	0.854414
C193	C	-0.763158	0.978120	0.216455
C194	C	-0.429824	1.311453	0.549788
C195	C	-0.096491	1.644787	0.883121
C196	C	-0.739713	0.934799	0.245156
C197	C	-0.406380	1.268132	0.578490
C198	C	-0.073047	1.601466	0.911823
C199	C	-0.810075	0.978139	0.216458
C200	C	-0.476742	1.311472	0.549791
C201	C	-0.143409	1.644806	0.883125
C202	C	-0.833520	1.021460	0.187756
C203	C	-0.500186	1.354793	0.521089
C204	C	-0.166853	1.688127	0.854423
C205	C	-0.810046	1.064762	0.159051
C206	C	-0.476713	1.398095	0.492384
C207	C	-0.143380	1.731429	0.825717
C208	C	-0.763131	1.064738	0.159045
C209	C	-0.429797	1.398071	0.492378
C210	C	-0.096464	1.731405	0.825712
C211	C	-0.763187	0.891497	0.273862
C212	C	-0.429853	1.224830	0.607195
C213	C	-0.096520	1.558164	0.940528
C214	C	-0.810102	0.891524	0.273865
C215	C	-0.476769	1.224857	0.607198
C216	C	-0.143436	1.558191	0.940532
C217	C	-0.833547	0.934845	0.245163
C218	C	-0.500213	1.268178	0.578496
C219	C	-0.166880	1.601512	0.911830
C220	C	-0.099297	0.978176	0.216462
C221	C	0.234036	1.311509	0.549795
C222	C	0.567370	1.644842	0.883129
C223	C	-0.049363	0.978236	0.216476
C224	C	0.283971	1.311569	0.549809
C225	C	0.617304	1.644902	0.883143
C226	C	-0.216458	0.978076	0.333608
C227	C	0.116875	1.311410	0.666942
C228	C	0.450208	1.644743	1.000275
C229	C	-0.216451	0.978094	0.383543
C230	C	0.116882	1.311428	0.716876
C231	C	0.450216	1.644761	1.050209
C232	C	-0.216490	1.154577	0.216441
C233	C	0.116843	1.487910	0.549775
C234	C	0.450177	1.821244	0.883108
C235	C	-0.216496	1.229809	0.216446
C236	C	0.116837	1.563142	0.549779
C237	C	0.450171	1.896476	0.883113
C238	C	-0.216460	0.978032	0.099707
C239	C	0.116873	1.311365	0.433041
C240	C	0.450206	1.644698	0.766374
C241	C	-0.216341	0.978145	0.049773
C242	C	0.116992	1.311478	0.383107
C243	C	0.450326	1.644812	0.716440
C244	C	-0.187669	0.934852	0.693194
C245	C	0.145664	1.268185	1.026528
C246	C	0.478998	1.601519	1.359861
C247	C	-0.187638	0.934871	0.880867
C248	C	0.145696	1.268204	1.214201
C249	C	0.479029	1.601538	1.547534
O250	O	-0.163211	0.898071	0.905139
O251	O	0.170122	1.231404	1.238472
O252	O	0.503456	1.564738	1.571806
N253	N	-0.216367	0.978126	0.904328
N254	N	0.116967	1.311460	1.237661
N255	N	0.450300	1.644793	1.570995
C256	C	-0.245108	1.021377	0.880868
C257	C	0.088226	1.354710	1.214201
C258	C	0.421559	1.688043	1.547534
O259	O	-0.269546	1.058163	0.905129
O260	O	0.063787	1.391497	1.238462
O261	O	0.397121	1.724830	1.571795
C262	C	-0.245141	1.021354	0.693195
C263	C	0.088193	1.354687	1.026529
C264	C	0.421526	1.688020	1.359862
C265	C	-0.216407	0.978100	0.669737
C266	C	0.116927	1.311434	1.003070
C267	C	0.450260	1.644767	1.336404
C268	C	-0.158938	0.891602	0.669736
C269	C	0.174396	1.224935	1.003069
C270	C	0.507729	1.558268	1.336403
C271	C	-0.158944	0.891600	0.622821
C272	C	0.174389	1.224933	0.956154
C273	C	0.507723	1.558267	1.289487
C274	C	-0.187682	0.934848	0.599363
C275	C	0.145652	1.268182	0.932697
C276	C	0.478985	1.601515	1.266030
C277	C	-0.216413	0.978099	0.622822
C278	C	0.116920	1.311432	0.956155
C279	C	0.450254	1.644765	1.289488
C280	C	-0.273884	1.064600	0.669736
C281	C	0.059450	1.397933	1.003069
C282	C	0.392783	1.731267	1.336402
C283	C	-0.273890	1.064589	0.622815
C284	C	0.059443	1.397923	0.956148
C285	C	0.392777	1.731256	1.289481
C286	C	-0.245156	1.021336	0.599356
C287	C	0.088177	1.354669	0.932690
C288	C	0.421511	1.688003	1.266023
C289	C	-0.245157	1.021345	0.552449
C290	C	0.088176	1.354679	0.885782
C291	C	0.421510	1.688012	1.219116
N292	N	-0.216428	0.978090	0.528988
N293	N	0.116905	1.311423	0.862322
N294	N	0.450239	1.644757	1.195655
C295	C	-0.187690	0.934842	0.552446
C296	C	0.145643	1.268175	0.885779
C297	C	0.478976	1.601508	1.219112
C298	C	-0.245088	1.021387	0.979398
C299	C	0.088246	1.354720	1.312732
C300	C	0.421579	1.688053	1.646065
C301	C	-0.245079	1.021393	1.026316
C302	C	0.088255	1.354727	1.359649
C303	C	0.421588	1.688060	1.692983
C304	C	-0.187609	0.934887	1.026313
C305	C	0.145724	1.268220	1.359646
C306	C	0.479057	1.601553	1.692979
C307	C	-0.187616	0.934884	0.979394
C308	C	0.145717	1.268217	1.312727
C309	C	0.479050	1.601551	1.646061
C310	C	-0.216359	0.978131	0.955938
C311	C	0.116975	1.311465	1.289271
C312	C	0.450308	1.644798	1.622604
C313	C	-0.187706	0.934842	0.453920
C314	C	0.145628	1.268175	0.787253
C315	C	0.478961	1.601508	1.120586
C316	C	-0.187713	0.934846	0.407000
C317	C	0.145620	1.268179	0.740333
C318	C	0.478953	1.601512	1.073667
C319	C	-0.245184	1.021350	0.407007
C320	C	0.088149	1.354683	0.740341
C321	C	0.421483	1.688016	1.073674
C322	C	-0.245175	1.021348	0.453923
C323	C	0.088158	1.354682	0.787256
C324	C	0.421492	1.688015	1.120590
C325	C	-0.216434	0.978089	0.477378
C326	C	0.116899	1.311422	0.810711
C327	C	0.450232	1.644756	1.144045
O328	O	-0.269575	1.058121	0.528148
O329	O	0.063759	1.391454	0.861482
O330	O	0.397092	1.724787	1.194815
O331	O	-0.163263	0.898050	0.528176
O332	O	0.170071	1.231383	0.861510
O333	O	0.503404	1.564716	1.194843
C334	C	-0.187663	0.934854	0.740110
C335	C	0.145671	1.268187	1.073443
C336	C	0.479004	1.601520	1.406776
C337	C	-0.216394	0.978104	0.763568
C338	C	0.116939	1.311437	1.096901
C339	C	0.450273	1.644771	1.430235
C340	C	-0.245132	1.021352	0.740111
C341	C	0.088202	1.354686	1.073444
C342	C	0.421535	1.688019	1.406777
C343	C	-0.216385	0.978111	0.810486
C344	C	0.116948	1.311444	1.143819
C345	C	0.450282	1.644777	1.477153
C346	C	-0.187647	0.934862	0.833943
C347	C	0.145686	1.268195	1.167276
C348	C	0.479019	1.601529	1.500610
C349	C	-0.158918	0.891607	0.810482
C350	C	0.174415	1.224940	1.143816
C351	C	0.507748	1.558274	1.477149
C352	C	-0.158925	0.891605	0.763567
C353	C	0.174408	1.224938	1.096900
C354	C	0.507742	1.558272	1.430234
C355	C	-0.273861	1.064608	0.763571
C356	C	0.059473	1.397941	1.096905
C357	C	0.392806	1.731274	1.430238
C358	C	-0.273852	1.064606	0.810487
C359	C	0.059482	1.397940	1.143820
C360	C	0.392815	1.731273	1.477154
C361	C	-0.245114	1.021358	0.833944
C362	C	0.088220	1.354691	1.167277
C363	C	0.421553	1.688025	1.500611
H364	H	-0.387468	1.056503	0.164330
H365	H	-0.054135	1.389836	0.497664
H366	H	0.279199	1.723169	0.830997
H367	H	-0.268580	1.056563	0.387900
H368	H	0.064753	1.389897	0.721233
H369	H	0.398086	1.723230	1.054567
H370	H	-0.268516	0.720301	0.164198
H371	H	0.064817	1.053634	0.497532
H372	H	0.398150	1.386967	0.830865
H373	H	-0.268521	0.592055	0.164206
H374	H	0.064812	0.925389	0.497539
H375	H	0.398146	1.258722	0.830872
C376	C	-0.156225	0.582134	0.276879
C377	C	0.177108	0.915467	0.610213
C378	C	0.510442	1.248801	0.943546
N379	N	-0.132455	0.552891	0.300733
N380	N	0.200878	0.886225	0.634066
N381	N	0.534211	1.219558	0.967399
H382	H	-0.472637	0.899390	0.268505
H383	H	-0.139303	1.232724	0.601839
H384	H	0.194030	1.566057	0.935172
C385	C	-0.156244	0.226365	0.276892
C386	C	0.177090	0.559699	0.610225
C387	C	0.510423	0.893032	0.943559
N388	N	-0.132470	0.197117	0.300738
N389	N	0.200863	0.530450	0.634072
N390	N	0.534197	0.863784	0.967405
H391	H	-0.268551	0.236298	0.164224
H392	H	0.064782	0.569631	0.497557
H393	H	0.398115	0.902964	0.830890
C394	C	-0.276740	0.374619	0.155988
C395	C	0.056594	0.707952	0.489321
C396	C	0.389927	1.041286	0.822655
N397	N	-0.300511	0.403859	0.132135
N398	N	0.032822	0.737193	0.465468
N399	N	0.366156	1.070526	0.798801
H400	H	-0.472577	1.056559	0.164343
H401	H	-0.139244	1.389892	0.497676
H402	H	0.194089	1.723226	0.831009
C403	C	-0.156215	0.730569	0.276872
C404	C	0.177118	1.063902	0.610206
C405	C	0.510452	1.397235	0.943539
N406	N	-0.132438	0.759882	0.300720
N407	N	0.200895	1.093215	0.634053
N408	N	0.534229	1.426549	0.967386
C409	C	-0.596572	1.112295	0.127440
C410	C	-0.263239	1.445628	0.460773
C411	C	0.070094	1.778962	0.794107
N412	N	-0.577134	1.148169	0.103645
N413	N	-0.243800	1.481503	0.436979
N414	N	0.089533	1.814836	0.770312
C415	C	-0.156104	0.887260	0.381199
C416	C	0.177230	1.220593	0.714532
C417	C	0.510563	1.553927	1.047865
N418	N	-0.132297	0.851418	0.361767
N419	N	0.201037	1.184751	0.695100
N420	N	0.534370	1.518084	1.028434
H421	H	-0.268495	1.056604	0.960304
H422	H	0.064838	1.389938	1.293638
H423	H	0.398171	1.723271	1.626971
H424	H	-0.387514	0.899346	0.268490
H425	H	-0.054181	1.232679	0.601823
H426	H	0.279152	1.566013	0.935157
C427	C	-0.695081	1.112347	0.127454
C428	C	-0.361748	1.445681	0.460787
C429	C	-0.028415	1.779014	0.794120
N430	N	-0.714497	1.148241	0.103663
N431	N	-0.381163	1.481575	0.436996
N432	N	-0.047830	1.814908	0.770329
C433	C	-1.051731	0.887275	0.276757
C434	C	-0.718398	1.220608	0.610090
C435	C	-0.385065	1.553941	0.943424
N436	N	-1.071172	0.851394	0.300546
N437	N	-0.737839	1.184727	0.633879
N438	N	-0.404505	1.518060	0.967212
C439	C	-0.953157	1.069153	0.156181
C440	C	-0.619823	1.402486	0.489514
C441	C	-0.286490	1.735820	0.822847
N442	N	-0.933716	1.105035	0.132392
N443	N	-0.600383	1.438368	0.465726
N444	N	-0.267049	1.771701	0.799059
C445	C	-0.596645	0.843782	0.305435
C446	C	-0.263312	1.177115	0.638769
C447	C	0.070022	1.510448	0.972102
N448	N	-0.577225	0.807886	0.329221
N449	N	-0.243891	1.141219	0.662554
N450	N	0.089442	1.474553	0.995888
C451	C	-1.051687	1.069198	0.156198
C452	C	-0.718353	1.402531	0.489531
C453	C	-0.385020	1.735865	0.822865
N454	N	-1.071120	1.105095	0.132424
N455	N	-0.737786	1.438429	0.465757
N456	N	-0.404453	1.771762	0.799090
H457	H	-0.959916	0.899618	0.268551
H458	H	-0.626583	1.232951	0.601885
H459	H	-0.293249	1.566284	0.935218
C460	C	-0.156237	0.374809	0.276886
C461	C	0.177096	0.708143	0.610219
C462	C	0.510430	1.041476	0.943553
N463	N	-0.132460	0.404126	0.300731
N464	N	0.200874	0.737459	0.634064
N465	N	0.534207	1.070792	0.967398
H466	H	-0.688453	0.856190	0.297237
H467	H	-0.355120	1.189524	0.630571
H468	H	-0.021786	1.522857	0.963904
C469	C	-0.835844	1.112415	0.127478
C470	C	-0.502511	1.445748	0.460811
C471	C	-0.169177	1.779081	0.794145
N472	N	-0.855277	1.148307	0.103701
N473	N	-0.521944	1.481640	0.437034
N474	N	-0.188611	1.814973	0.770367
H475	H	-0.829208	0.856258	0.297244
H476	H	-0.495875	1.189591	0.630577
H477	H	-0.162542	1.522925	0.963911
H478	H	-0.744024	1.099997	0.135666
H479	H	-0.410691	1.433331	0.469000
H480	H	-0.077357	1.766664	0.802333
H481	H	-0.744102	0.856221	0.297235
H482	H	-0.410769	1.189554	0.630568
H483	H	-0.077435	1.522887	0.963902
C484	C	-0.156087	0.887258	0.479713
C485	C	0.177247	1.220592	0.813047
C486	C	0.510580	1.553925	1.146380
N487	N	-0.132268	0.851423	0.499141
N488	N	0.201065	1.184756	0.832474
N489	N	0.534398	1.518089	1.165807
C490	C	-0.276781	1.068933	0.479728
C491	C	0.056552	1.402266	0.813061
C492	C	0.389886	1.735599	1.146394
N493	N	-0.300591	1.104769	0.499161
N494	N	0.032743	1.438103	0.832494
N495	N	0.366076	1.771436	1.165827
C496	C	-0.127338	0.844011	0.597023
C497	C	0.205995	1.177344	0.930356
C498	C	0.539329	1.510678	1.263689
N499	N	-0.103532	0.808162	0.577595
N500	N	0.229801	1.141496	0.910928
N501	N	0.563134	1.474829	1.244261
H502	H	-0.135536	0.856380	0.688830
H503	H	0.197798	1.189713	1.022163
H504	H	0.531131	1.523047	1.355497
C505	C	-0.156010	0.887298	0.953594
C506	C	0.177323	1.220631	1.286928
C507	C	0.510657	1.553965	1.620261
N508	N	-0.132204	0.851452	0.934164
N509	N	0.201130	1.184786	1.267498
N510	N	0.534463	1.518119	1.600831
H511	H	-0.297282	1.099821	0.688827
H512	H	0.036051	1.433154	1.022161
H513	H	0.369384	1.766488	1.355494
C514	C	-0.156000	0.887309	1.052124
C515	C	0.177333	1.220643	1.385458
C516	C	0.510667	1.553976	1.718791
N517	N	-0.132196	0.851472	1.071568
N518	N	0.201137	1.184805	1.404901
N519	N	0.534471	1.518138	1.738235
H520	H	-0.268472	1.056622	1.045412
H521	H	0.064861	1.389955	1.378745
H522	H	0.398195	1.723289	1.712078
C523	C	-0.305507	1.112170	0.597015
C524	C	0.027826	1.445504	0.930349
C525	C	0.361160	1.778837	1.263682
N526	N	-0.329319	1.148011	0.577584
N527	N	0.004014	1.481344	0.910918
N528	N	0.337348	1.814678	1.244251
H529	H	-0.135527	0.856384	0.744471
H530	H	0.197807	1.189717	1.077805
H531	H	0.531140	1.523051	1.411138
H532	H	-0.135517	0.856395	0.829590
H533	H	0.197816	1.189728	1.162923
H534	H	0.531149	1.523062	1.496256
C535	C	-0.305464	1.112191	0.836286
C536	C	0.027870	1.445525	1.169619
C537	C	0.361203	1.778858	1.502952
N538	N	-0.329277	1.148027	0.855716
N539	N	0.004057	1.481360	1.189049
N540	N	0.337390	1.814693	1.522382
C541	C	-0.305462	1.112208	0.737775
C542	C	0.027871	1.445542	1.071108
C543	C	0.361205	1.778875	1.404442
N544	N	-0.329260	1.148074	0.718347
N545	N	0.004073	1.481408	1.051680
N546	N	0.337407	1.814741	1.385014
