data_functionalizedCrystal
_audit_creation_method	'MofGen! by Chris Wilmer'
_symmetry_space_group_name_H-M	'P1'
_symmetry_Int_Tables_number	1
_symmetry_cell_setting	triclinic
loop_
_symmetry_equiv_pos_as_xyz
  x,y,z
_cell_length_a	10.967926
_cell_length_b	11.026607
_cell_length_c	9.730223
_cell_angle_alpha	89.997552
_cell_angle_beta	102.125956
_cell_angle_gamma	96.380754
loop_
_atom_site_label
_atom_site_type_symbol
_atom_site_fract_x
_atom_site_fract_y
_atom_site_fract_z
O1	O	1.693960	0.170507	0.286919
O2	O	1.334337	0.186832	0.201742
O3	O	1.484344	0.001768	0.237276
O4	O	1.543954	0.355570	0.251385
O5	O	1.484330	0.001763	0.465853
O6	O	1.334324	0.186826	0.430319
O7	O	1.693947	0.170502	0.515496
Zn8	Zn	1.514133	0.178663	0.509199
Zn9	Zn	1.514151	0.178670	0.208039
O10	O	1.543941	0.355565	0.479962
C11	C	1.287576	0.185642	0.304957
C12	C	1.148257	0.182089	0.271959
C13	C	1.473340	-0.043537	0.348959
C14	C	1.440557	-0.178523	0.341189
C15	C	1.086137	0.180502	0.375657
C16	C	0.942144	0.176831	0.341555
C17	C	1.531076	-0.251576	0.362626
C18	C	1.497195	-0.391092	0.354597
C19	C	1.740709	0.171691	0.412279
C20	C	1.880027	0.175244	0.445268
C21	C	1.554944	0.400870	0.368277
C22	C	1.587727	0.535856	0.376037
N23	N	1.514130	0.178658	0.714735
N24	N	1.514162	0.178666	0.002506
C25	C	1.580589	0.096747	0.802404
C26	C	1.580602	0.096747	0.946290
C27	C	1.447694	0.260581	0.914824
C28	C	1.447675	0.260573	0.770940
H29	H	1.139556	0.181856	0.489683
F30	F	1.665156	-0.198327	0.394376
H31	H	0.888729	0.175467	0.227521
F32	F	1.078440	0.180303	0.122914
H33	H	1.690313	-0.423406	0.400232
F34	F	1.363108	-0.444336	0.322826
H35	H	1.337979	-0.219268	0.316884
H36	H	1.634699	0.030044	0.756646
H37	H	1.634717	0.030046	1.017667
F38	F	1.376975	0.347760	0.974653
H39	H	1.393550	0.327276	0.699552
H40	H	0.933440	0.176600	0.559302
