data_functionalizedCrystal
_audit_creation_method	'MofGen! by Chris Wilmer'
_symmetry_space_group_name_H-M	'P1'
_symmetry_Int_Tables_number	1
_symmetry_cell_setting	triclinic
loop_
_symmetry_equiv_pos_as_xyz
  x,y,z
_cell_length_a	14.519709
_cell_length_b	9.065218
_cell_length_c	8.140239
_cell_angle_alpha	90.004899
_cell_angle_beta	89.995533
_cell_angle_gamma	95.651952
loop_
_atom_site_label
_atom_site_type_symbol
_atom_site_fract_x
_atom_site_fract_y
_atom_site_fract_z
O1	O	0.135226	-1.957864	-0.136702
O2	O	0.468559	-1.624530	0.196632
O3	O	0.801893	-1.291197	0.529965
O4	O	0.146318	-1.528371	-0.136687
O5	O	0.479651	-1.195038	0.196646
O6	O	0.812984	-0.861704	0.529980
O7	O	0.006617	-1.754505	-0.136680
O8	O	0.339950	-1.421171	0.196653
O9	O	0.673283	-1.087838	0.529987
O10	O	0.274927	-1.731730	-0.136709
O11	O	0.608260	-1.398397	0.196625
O12	O	0.941593	-1.065063	0.529958
O13	O	0.006615	-1.754492	0.136547
O14	O	0.339948	-1.421159	0.469881
O15	O	0.673282	-1.087826	0.803214
O16	O	0.146316	-1.528358	0.136540
O17	O	0.479649	-1.195025	0.469874
O18	O	0.812983	-0.861692	0.803207
O19	O	0.135224	-1.957851	0.136525
O20	O	0.468558	-1.624518	0.469859
O21	O	0.801891	-1.291184	0.803192
Zn22	Zn	0.140770	-1.743103	0.179913
Zn23	Zn	0.474103	-1.409769	0.513247
Zn24	Zn	0.807436	-1.076436	0.846580
Zn25	Zn	0.140772	-1.743119	-0.180075
Zn26	Zn	0.474105	-1.409786	0.153258
Zn27	Zn	0.807439	-1.076453	0.486592
O28	O	0.274925	-1.731717	0.136518
O29	O	0.608258	-1.398384	0.469852
O30	O	0.941592	-1.065051	0.803185
C31	C	0.145251	-1.473398	-0.000071
C32	C	0.478584	-1.140065	0.333262
C33	C	0.811917	-0.806731	0.666595
C34	C	0.142063	-1.309615	-0.000065
C35	C	0.475397	-0.976282	0.333268
C36	C	0.808730	-0.642948	0.666602
C37	C	-0.027752	-1.753437	-0.000066
C38	C	0.305582	-1.420104	0.333267
C39	C	0.638915	-1.086770	0.666601
C40	C	-0.130156	-1.750256	-0.000065
C41	C	0.203177	-1.416923	0.333268
C42	C	0.536510	-1.083590	0.666602
C43	C	-0.505138	-1.738547	-0.000107
C44	C	-0.171804	-1.405214	0.333226
C45	C	0.161529	-1.071881	0.666559
C46	C	-0.400806	-1.741799	-0.000095
C47	C	-0.067473	-1.408465	0.333238
C48	C	0.265861	-1.075132	0.666572
C49	C	-0.317650	-1.744401	-0.000085
C50	C	0.015683	-1.411068	0.333249
C51	C	0.349016	-1.077735	0.666582
C52	C	-0.213312	-1.747654	-0.000075
C53	C	0.120021	-1.414320	0.333258
C54	C	0.453355	-1.080987	0.666591
C55	C	0.309294	-1.732785	-0.000099
C56	C	0.642627	-1.399452	0.333234
C57	C	0.975960	-1.066118	0.666568
C58	C	0.411698	-1.735966	-0.000111
C59	C	0.745031	-1.402632	0.333222
C60	C	1.078365	-1.069299	0.666556
N61	N	0.140768	-1.743102	0.425596
N62	N	0.474101	-1.409769	0.758929
N63	N	0.807434	-1.076436	1.092263
C64	C	0.136291	-1.012824	-0.000084
C65	C	0.469624	-0.679491	0.333250
C66	C	0.802958	-0.346157	0.666583
C67	C	0.139478	-1.176607	-0.000070
C68	C	0.472811	-0.843274	0.333263
C69	C	0.806145	-0.509941	0.666597
N70	N	0.140767	-1.743131	-0.425758
N71	N	0.474100	-1.409798	-0.092424
N72	N	0.807433	-1.076465	0.240909
