data_functionalizedCrystal
_audit_creation_method	'MofGen! by Chris Wilmer'
_symmetry_space_group_name_H-M	'P1'
_symmetry_Int_Tables_number	1
_symmetry_cell_setting	triclinic
loop_
_symmetry_equiv_pos_as_xyz
  x,y,z
_cell_length_a	11.169417
_cell_length_b	10.685880
_cell_length_c	11.169416
_cell_angle_alpha	94.341270
_cell_angle_beta	90.011027
_cell_angle_gamma	85.606759
loop_
_atom_site_label
_atom_site_type_symbol
_atom_site_fract_x
_atom_site_fract_y
_atom_site_fract_z
Zn1	Zn	1.887001	-0.713403	-0.529708
Zn2	Zn	2.387001	-0.213403	-0.029708
Zn3	Zn	1.871501	-0.502416	-0.715062
Zn4	Zn	2.371501	-0.002416	-0.215062
Zn5	Zn	1.670898	-0.502431	-0.514396
Zn6	Zn	2.170898	-0.002431	-0.014396
Zn7	Zn	1.686292	-0.713366	-0.730348
Zn8	Zn	2.186292	-0.213366	-0.230348
O9	O	1.778923	-0.607904	-0.622378
O10	O	2.278923	-0.107904	-0.122378
O11	O	2.052895	-0.685424	-0.554306
O12	O	2.552895	-0.185424	-0.054306
O13	O	1.831962	-0.325842	-0.675637
O14	O	2.331962	0.174158	-0.175637
O15	O	1.699609	-0.530438	-0.348479
O16	O	2.199609	-0.030438	0.151521
O17	O	2.041508	-0.530413	-0.690485
O18	O	2.541508	-0.030413	-0.190485
O19	O	1.858379	-0.685438	-0.359729
O20	O	2.358379	-0.185438	0.140271
O21	O	1.684579	-0.325852	-0.528209
O22	O	2.184579	0.174148	-0.028209
O23	O	1.504990	-0.530403	-0.543031
O24	O	2.004990	-0.030403	-0.043031
O25	O	1.725846	-0.889947	-0.716538
O26	O	2.225846	-0.389947	-0.216538
O27	O	1.516300	-0.685376	-0.701691
O28	O	2.016300	-0.185376	-0.201691
O29	O	1.873306	-0.889974	-0.569129
O30	O	2.373306	-0.389974	-0.069129
O31	O	1.846889	-0.530377	-0.885038
O32	O	2.346889	-0.030377	-0.385038
O33	O	1.710817	-0.685362	-0.896268
O34	O	2.210817	-0.185362	-0.396268
C35	C	1.467097	-0.607888	-0.622359
C36	C	1.967097	-0.107888	-0.122359
C37	C	1.333699	-0.607911	-0.622382
C38	C	1.833699	-0.107911	-0.122382
C39	C	1.803022	-0.937025	-0.646247
C40	C	2.303022	-0.437025	-0.146247
C41	C	1.813292	-1.077277	-0.656418
C42	C	2.313292	-0.577277	-0.156418
C43	C	2.091967	-0.607921	-0.622399
C44	C	2.591967	-0.107921	-0.122399
C45	C	2.225367	-0.607928	-0.622407
C46	C	2.725367	-0.107928	-0.122407
C47	C	1.778876	-0.607892	-0.934202
C48	C	2.278876	-0.107892	-0.434202
C49	C	1.778968	-0.607928	-1.067605
C50	C	2.278968	-0.107928	-0.567605
C51	C	1.754987	-0.280063	-0.598516
C52	C	2.254987	0.219937	-0.098516
C53	C	1.744950	-0.139812	-0.588007
C54	C	2.244950	0.360188	-0.088007
C55	C	1.779006	-0.607944	-0.309339
C56	C	2.279006	-0.107944	0.190661
C57	C	1.779041	-0.607961	-0.175940
C58	C	2.279041	-0.107961	0.324060
H59	H	1.678574	-1.086054	-0.521658
H60	H	2.178574	-0.586054	-0.021658
H61	H	1.879667	-1.131041	-0.722776
H62	H	2.379667	-0.631041	-0.222776
