data_functionalizedCrystal
_audit_creation_method	'MofGen! by Chris Wilmer'
_symmetry_space_group_name_H-M	'P1'
_symmetry_Int_Tables_number	1
_symmetry_cell_setting	triclinic
loop_
_symmetry_equiv_pos_as_xyz
  x,y,z
_cell_length_a	6.817900
_cell_length_b	11.168121
_cell_length_c	16.306216
_cell_angle_alpha	93.886797
_cell_angle_beta	103.467292
_cell_angle_gamma	108.508496
loop_
_atom_site_label
_atom_site_type_symbol
_atom_site_fract_x
_atom_site_fract_y
_atom_site_fract_z
V1	V	-4.052166	-0.175692	-0.263033
O2	O	-4.012850	0.007426	-0.258019
O3	O	-4.028846	-0.347391	-0.261241
O4	O	-4.003285	-0.173436	-0.377747
O5	O	-4.038589	-0.167733	-0.140705
V6	V	-4.532606	-0.153737	-0.248401
O7	O	-4.320186	-0.223854	-0.295130
O8	O	-4.714783	-0.105575	-0.216304
O9	O	-4.332719	0.017962	-0.250193
O10	O	-4.689318	-0.336855	-0.253415
O11	O	-4.663579	-0.161696	-0.370728
O12	O	-4.358280	-0.155993	-0.133686
C13	C	-3.879964	-0.389233	-0.257093
C14	C	-3.942182	-0.529602	-0.256393
C15	C	-4.143881	-0.598308	-0.260081
C16	C	-4.208190	-0.743387	-0.259358
C17	C	-3.847356	-0.167335	-0.405708
C18	C	-3.888841	-0.166626	-0.499488
C19	C	-4.039425	-0.164082	-0.840240
C20	C	-4.245071	-0.172458	-0.809792
C21	C	-4.201838	-0.172711	-0.712200
C22	C	-3.964720	-0.165345	-0.671189
C23	C	-3.810671	-0.040105	-0.691390
C24	C	-3.855184	-0.039326	-0.788988
C25	C	-3.969888	-0.280500	-0.814127
C26	C	-3.931684	-0.282972	-0.716810
C27	C	-3.922486	-0.166054	-0.575648
C28	C	-4.081648	-0.163364	-0.935780
C29	C	-4.144944	0.059798	-0.254338
C30	C	-4.061965	0.200165	-0.255044
C31	C	-4.177551	-0.162098	-0.105721
C32	C	-4.115305	-0.162801	-0.011941
H33	H	-4.320349	-0.262732	-0.699336
O34	O	-3.776495	-0.593947	-0.251501
H35	H	-3.709518	-0.579316	-0.307377
H36	H	-4.385198	-0.262181	-0.844357
O37	O	-4.246102	-0.061640	-0.671961
H38	H	-4.097608	0.002154	-0.624619
O39	O	-4.317334	-0.061692	-0.833022
H40	H	-4.207416	-0.000696	-0.866158
H41	H	-3.831608	0.047265	-0.659350
H42	H	-3.898573	0.048737	-0.804145
O43	O	-3.650472	-0.024408	-0.814469
H44	H	-3.520143	-0.017766	-0.757091
H45	H	-4.045831	-0.375560	-0.704892
O46	O	-3.578613	-0.026925	-0.654986
H47	H	-3.544234	-0.023148	-0.584709
H48	H	-4.268956	-0.549726	-0.263780
O49	O	-4.138179	-0.405171	-0.861589
H50	H	-4.273275	-0.385542	-0.904326
O51	O	-4.437077	-0.821604	-0.263535
H52	H	-4.451671	-0.923280	-0.262314
H53	H	-3.817267	-0.275358	-0.833288
O54	O	-3.833079	-0.721620	-0.250871
H55	H	-3.765777	-0.647512	-0.193212
O56	O	-3.708335	-0.285528	-0.680527
H57	H	-3.616976	-0.202626	-0.629184
