data_functionalizedCrystal
_audit_creation_method	'MofGen! by Chris Wilmer'
_symmetry_space_group_name_H-M	'P1'
_symmetry_Int_Tables_number	1
_symmetry_cell_setting	triclinic
loop_
_symmetry_equiv_pos_as_xyz
  x,y,z
_cell_length_a	12.594517
_cell_length_b	12.594516
_cell_length_c	16.625539
_cell_angle_alpha	89.976325
_cell_angle_beta	90.020900
_cell_angle_gamma	89.973469
loop_
_atom_site_label
_atom_site_type_symbol
_atom_site_fract_x
_atom_site_fract_y
_atom_site_fract_z
Zn1	Zn	1.627183	0.423746	0.455942
Zn2	Zn	1.960517	0.757079	0.789276
Zn3	Zn	2.293850	1.090413	1.122609
Zn4	Zn	1.627042	0.601747	0.321121
Zn5	Zn	1.960376	0.935081	0.654454
Zn6	Zn	2.293709	1.268414	0.987787
Zn7	Zn	1.449189	0.423783	0.321122
Zn8	Zn	1.782522	0.757116	0.654455
Zn9	Zn	2.115855	1.090449	0.987789
Zn10	Zn	1.449136	0.601682	0.455910
Zn11	Zn	1.782470	0.935016	0.789243
Zn12	Zn	2.115803	1.268349	1.122576
O13	O	1.538138	0.512739	0.388524
O14	O	1.871471	0.846073	0.721857
O15	O	2.204804	1.179406	1.055190
O16	O	1.776111	0.447370	0.438071
O17	O	2.109444	0.780703	0.771404
O18	O	2.442777	1.114037	1.104738
O19	O	1.603413	0.578182	0.208288
O20	O	1.936746	0.911516	0.541622
O21	O	2.270079	1.244849	0.874955
O22	O	1.472881	0.274832	0.339021
O23	O	1.806214	0.608165	0.672354
O24	O	2.139548	0.941499	1.005687
O25	O	1.776007	0.578147	0.339018
O26	O	2.109340	0.911480	0.672351
O27	O	2.442674	1.244814	1.005685
O28	O	1.603653	0.274805	0.438073
O29	O	1.936986	0.608138	0.771406
O30	O	2.270320	0.941472	1.104739
O31	O	1.472744	0.447432	0.208289
O32	O	1.806078	0.780766	0.541623
O33	O	2.139411	1.114099	0.874956
O34	O	1.300236	0.447369	0.338989
O35	O	1.633569	0.780703	0.672322
O36	O	1.966903	1.114036	1.005656
O37	O	1.472792	0.578036	0.568746
O38	O	1.806125	0.911369	0.902080
O39	O	2.139459	1.244703	1.235413
O40	O	1.300198	0.578072	0.438017
O41	O	1.633531	0.911405	0.771350
O42	O	1.966864	1.244738	1.104683
O43	O	1.603602	0.447307	0.568770
O44	O	1.936936	0.780640	0.902104
O45	O	2.270269	1.113974	1.235437
O46	O	1.603362	0.750684	0.338986
O47	O	1.936695	1.084018	0.672319
O48	O	2.270029	1.417351	1.005653
O49	O	1.472655	0.750637	0.438015
O50	O	1.805988	1.083970	0.771348
O51	O	2.139322	1.417303	1.104682
C52	C	1.261597	0.512718	0.388500
C53	C	1.594930	0.846051	0.721833
C54	C	1.928263	1.179385	1.055167
C55	C	1.143291	0.512735	0.388509
C56	C	1.476625	0.846068	0.721842
C57	C	1.809958	1.179401	1.055176
C58	C	1.074028	0.441549	0.334750
C59	C	1.407362	0.774882	0.668084
C60	C	1.740695	1.108215	1.001417
C61	C	1.003199	0.538636	0.314920
C62	C	1.336533	0.871969	0.648254
C63	C	1.669866	1.205303	0.981587
C64	C	1.003321	0.415695	0.408353
C65	C	1.336655	0.749028	0.741686
C66	C	1.669988	1.082361	1.075020
C67	C	1.074021	0.609873	0.368640
C68	C	1.407354	0.943206	0.701973
C69	C	1.740687	1.276540	1.035307
C70	C	1.074149	0.486866	0.462107
C71	C	1.407482	0.820200	0.795440
C72	C	1.740815	1.153533	1.128774
C73	C	1.003352	0.584021	0.442305
C74	C	1.336685	0.917354	0.775638
C75	C	1.670019	1.250687	1.108971
C76	C	1.538016	0.789280	0.388514
C77	C	1.871350	1.122614	0.721848
C78	C	2.204683	1.455947	1.055181
C79	C	1.538062	0.907586	0.388538
C80	C	1.871395	1.240919	0.721871
C81	C	2.204729	1.574253	1.055204
C82	C	1.466951	0.976852	0.442361
C83	C	1.800284	1.310185	0.775694
C84	C	2.133617	1.643518	1.109028
C85	C	1.441005	1.047712	0.368786
C86	C	1.774338	1.381045	0.702120
C87	C	2.107671	1.714379	1.035453
C88	C	1.564066	1.047524	0.462124
C89	C	1.897399	1.380858	0.795457
C90	C	2.230732	1.714191	1.128791
C91	C	1.512065	0.976888	0.314924
C92	C	1.845398	1.310221	0.648257
C93	C	2.178732	1.643555	0.981590
C94	C	1.635171	0.976694	0.408311
C95	C	1.968504	1.310028	0.741644
C96	C	2.301838	1.643361	1.074978
C97	C	1.609262	1.047523	0.334685
C98	C	1.942595	1.380856	0.668019
C99	C	2.275929	1.714189	1.001352
C100	C	1.815759	0.512762	0.388548
C101	C	2.149092	0.846095	0.721881
C102	C	2.482425	1.179428	1.055215
C103	C	1.934064	0.512771	0.388558
C104	C	2.267397	0.846104	0.721892
C105	C	2.600731	1.179438	1.055225
C106	C	1.538207	0.512660	0.598833
C107	C	1.871540	0.845994	0.932166
C108	C	2.204874	1.179327	1.265499
C109	C	1.538236	0.512626	0.688454
C110	C	1.871570	0.845960	1.021787
C111	C	2.204903	1.179293	1.355120
C112	C	1.538242	1.235119	0.388549
C113	C	1.871575	1.568452	0.721883
C114	C	2.204908	1.901785	1.055216
C115	C	1.538166	1.116813	0.388557
C116	C	1.871500	1.450147	0.721891
C117	C	2.204833	1.783480	1.055224
C118	C	1.538130	0.512742	0.179033
C119	C	1.871463	0.846075	0.512366
C120	C	2.204797	1.179408	0.845700
C121	C	1.538307	0.512476	0.089412
C122	C	1.871640	0.845809	0.422745
C123	C	2.204974	1.179142	0.756079
C124	C	1.538286	0.512507	1.016630
C125	C	1.871619	0.845841	1.349963
C126	C	2.204952	1.179174	1.683296
C127	C	1.538269	0.512544	0.925321
C128	C	1.871602	0.845877	1.258654
C129	C	2.204936	1.179210	1.591988
C130	C	1.538262	0.512568	0.852545
C131	C	1.871595	0.845901	1.185878
C132	C	2.204928	1.179234	1.519211
C133	C	1.538244	0.512603	0.761230
C134	C	1.871577	0.845936	1.094564
C135	C	2.204911	1.179269	1.427897
H136	H	0.972037	0.560539	0.252701
H137	H	1.305370	0.893872	0.586034
H138	H	1.638704	1.227205	0.919367
H139	H	0.972515	0.644305	0.487788
H140	H	1.305848	0.977639	0.821121
H141	H	1.639181	1.310972	1.154454
H142	H	1.490018	0.945988	0.252683
H143	H	1.823351	1.279322	0.586016
H144	H	2.156685	1.612655	0.919350
Br145	Br	0.951546	0.278893	0.436291
Br146	Br	1.284879	0.612226	0.769624
Br147	Br	1.618213	0.945559	1.102957
H148	H	1.669443	1.078358	0.289124
H149	H	2.002776	1.411691	0.622458
H150	H	2.336110	1.745024	0.955791
H151	H	1.358932	1.078930	0.352078
H152	H	1.692265	1.412263	0.685411
H153	H	2.025598	1.745597	1.018745
H154	H	1.406723	0.945820	0.487812
H155	H	1.740057	1.279153	0.821146
H156	H	2.073390	1.612487	1.154479
Br157	Br	1.771937	0.924663	0.436217
Br158	Br	2.105270	1.257997	0.769550
Br159	Br	2.438603	1.591330	1.102883
H160	H	1.105061	0.381408	0.289233
H161	H	1.438394	0.714741	0.622566
H162	H	1.771727	1.048075	0.955899
Br163	Br	1.125558	0.746721	0.340581
Br164	Br	1.458891	1.080054	0.673914
Br165	Br	1.792225	1.413388	1.007248
H166	H	1.105337	0.464934	0.524308
H167	H	1.438670	0.798267	0.857641
H168	H	1.772003	1.131601	1.190974
Br169	Br	1.600652	1.099249	0.565831
Br170	Br	1.933985	1.432582	0.899164
Br171	Br	2.267319	1.765915	1.232498
