data_functionalizedCrystal
_audit_creation_method	'MofGen! by Chris Wilmer'
_symmetry_space_group_name_H-M	'P1'
_symmetry_Int_Tables_number	1
_symmetry_cell_setting	triclinic
loop_
_symmetry_equiv_pos_as_xyz
  x,y,z
_cell_length_a	12.837932
_cell_length_b	12.811415
_cell_length_c	11.892095
_cell_angle_alpha	88.492960
_cell_angle_beta	85.688545
_cell_angle_gamma	89.412215
loop_
_atom_site_label
_atom_site_type_symbol
_atom_site_fract_x
_atom_site_fract_y
_atom_site_fract_z
O1	O	1.385144	0.265188	-0.121187
O2	O	1.083184	0.251789	-0.119815
O3	O	1.240670	0.107452	-0.105013
O4	O	1.227658	0.409525	-0.135989
O5	O	1.227539	0.119466	0.081762
O6	O	1.070053	0.263803	0.066960
O7	O	1.372013	0.277202	0.065589
Zn8	Zn	1.218948	0.272410	0.095929
Zn9	Zn	1.236249	0.256581	-0.150156
O10	O	1.214527	0.421539	0.050786
C11	C	1.037946	0.253271	-0.025964
C12	C	0.922713	0.239773	-0.024581
C13	C	1.232973	0.074527	-0.007635
C14	C	1.229589	-0.041482	0.004254
C15	C	0.771567	0.126956	-0.013010
C16	C	0.879839	0.139632	-0.014310
C17	C	0.857304	0.327244	-0.033548
C18	C	0.749032	0.314569	-0.032248
C19	C	0.706167	0.214421	-0.021980
C20	C	0.597893	0.201746	-0.020688
C21	C	0.575360	0.389358	-0.039918
C22	C	0.683632	0.402034	-0.041219
C23	C	1.237529	-0.272563	-0.177052
C24	C	1.234349	-0.381563	-0.165887
C25	C	1.220044	-0.368484	0.037748
C26	C	1.223223	-0.259484	0.026583
C27	C	1.231967	-0.211527	-0.080821
C28	C	1.235154	-0.102525	-0.091985
C29	C	1.220841	-0.089448	0.111649
C30	C	1.217662	-0.198449	0.122814
C31	C	1.417252	0.275720	-0.028265
C32	C	1.532485	0.289218	-0.029656
C33	C	1.222224	0.454464	-0.046594
C34	C	1.225609	0.570472	-0.058490
N35	N	1.207148	0.283213	0.263875
N36	N	1.248057	0.245771	-0.318101
C37	C	1.330165	0.170539	0.512078
C38	C	1.321924	0.178098	0.629645
C39	C	1.182423	0.305885	0.616578
C40	C	1.190663	0.298326	0.499011
C41	C	1.264538	0.230652	0.446766
C42	C	1.272782	0.223098	0.329196
C43	C	1.133277	0.350879	0.316132
C44	C	1.125036	0.358439	0.433699
H45	H	0.736667	0.045412	-0.004661
H46	H	1.122269	0.360977	0.659133
H47	H	1.390323	0.115443	0.469538
O48	O	1.352440	0.150099	0.272830
H49	H	1.431921	0.172894	0.293182
O50	O	1.210631	-0.420232	0.153576
H51	H	1.138264	-0.467312	0.163302
H52	H	0.933085	0.068408	-0.007005
O53	O	1.392719	0.113266	0.700081
H54	H	1.344699	0.061639	0.759295
H55	H	0.892223	0.408781	-0.041898
H56	H	1.079842	0.399830	0.262940
H57	H	0.718548	0.483572	-0.049574
O58	O	1.244583	-0.050796	-0.207822
H59	H	1.175793	0.000836	-0.218000
H60	H	1.210539	-0.237510	0.210259
H61	H	1.064886	0.413535	0.476251
H62	H	0.562996	0.120201	-0.012332
H63	H	0.522099	0.460579	-0.047223
H64	H	1.216317	-0.039741	0.190008
H65	H	1.244657	-0.233516	-0.264504
H66	H	1.238874	-0.431254	-0.244248
