data_functionalizedCrystal
_audit_creation_method	'MofGen! by Chris Wilmer'
_symmetry_space_group_name_H-M	'P1'
_symmetry_Int_Tables_number	1
_symmetry_cell_setting	triclinic
loop_
_symmetry_equiv_pos_as_xyz
  x,y,z
_cell_length_a	6.817900
_cell_length_b	11.102291
_cell_length_c	14.125286
_cell_angle_alpha	94.650633
_cell_angle_beta	100.396688
_cell_angle_gamma	108.605753
loop_
_atom_site_label
_atom_site_type_symbol
_atom_site_fract_x
_atom_site_fract_y
_atom_site_fract_z
V1	V	-4.017306	-0.174858	-0.299991
O2	O	-3.978131	0.009412	-0.294280
O3	O	-3.994728	-0.347685	-0.297940
O4	O	-3.952992	-0.171725	-0.430827
O5	O	-4.020156	-0.167766	-0.160473
V6	V	-4.499650	-0.152869	-0.283304
O7	O	-4.281150	-0.223091	-0.336597
O8	O	-4.686003	-0.104636	-0.246698
O9	O	-4.299021	0.019958	-0.285355
O10	O	-4.656221	-0.337140	-0.289015
O11	O	-4.614196	-0.159962	-0.422822
O12	O	-4.340757	-0.156002	-0.152467
C13	C	-3.846525	-0.389830	-0.293208
C14	C	-3.909246	-0.531116	-0.292403
C15	C	-3.793286	-0.165374	-0.462717
C16	C	-3.822157	-0.163957	-0.569677
C17	C	-4.030114	-0.748105	-0.379384
C18	C	-3.971202	-0.615353	-0.380139
C19	C	-3.906224	-0.579638	-0.203907
C20	C	-3.965149	-0.712389	-0.203154
C21	C	-4.092049	-0.832336	-0.467125
C22	C	-4.095079	-0.783823	-0.555621
C23	C	-4.036167	-0.651070	-0.556376
C24	C	-3.974225	-0.566831	-0.468634
C25	C	-4.061311	-0.166533	-0.817799
C26	C	-3.875025	-0.161193	-0.765484
C27	C	-3.845610	-0.162731	-0.656527
C28	C	-4.090734	-0.164995	-0.926766
C29	C	-4.110567	0.062096	-0.290084
C30	C	-4.027084	0.203381	-0.290895
C31	C	-4.163806	-0.162357	-0.120572
C32	C	-4.114173	-0.163768	-0.013612
H33	H	-4.140015	-0.940431	-0.466521
O34	O	-3.710939	-0.154144	-0.809595
C35	C	-3.540128	-0.040124	-0.769019
H36	H	-3.602215	0.033057	-0.735015
H37	H	-3.457585	0.000765	-0.828552
H38	H	-3.422462	-0.061992	-0.710681
O39	O	-3.916691	-0.437840	-0.469237
C40	C	-3.705760	-0.377552	-0.416616
H41	H	-3.662921	-0.441575	-0.363209
H42	H	-3.689369	-0.281342	-0.374830
H43	H	-3.594427	-0.360987	-0.469258
O44	O	-4.225264	-0.173601	-0.773600
C45	C	-4.273335	-0.285317	-0.728847
H46	H	-4.215161	-0.358551	-0.765603
H47	H	-4.452198	-0.328047	-0.736310
H48	H	-4.191521	-0.259694	-0.648442
O49	O	-4.155221	-0.865822	-0.640758
C50	C	-4.206620	-0.993397	-0.621122
H51	H	-4.123352	-0.993936	-0.543625
H52	H	-4.152557	-1.051810	-0.674553
H53	H	-4.385508	-1.037607	-0.629311
O54	O	-3.962396	-0.759740	-0.117285
C55	C	-4.027636	-0.894969	-0.135437
H56	H	-4.127005	-0.930686	-0.212727
H57	H	-4.126473	-0.937464	-0.081432
H58	H	-3.882189	-0.926107	-0.126829
O59	O	-3.846196	-0.497994	-0.118596
C60	C	-3.856112	-0.569280	-0.040327
H61	H	-3.971023	-0.671390	-0.067289
H62	H	-3.913575	-0.521876	0.018520
H63	H	-3.691760	-0.572218	-0.008923
H64	H	-4.038660	-0.611576	-0.628434
