data_functionalizedCrystal
_audit_creation_method	'MofGen! by Chris Wilmer'
_symmetry_space_group_name_H-M	'P1'
_symmetry_Int_Tables_number	1
_symmetry_cell_setting	triclinic
loop_
_symmetry_equiv_pos_as_xyz
  x,y,z
_cell_length_a	42.784841
_cell_length_b	42.784839
_cell_length_c	42.784893
_cell_angle_alpha	89.998422
_cell_angle_beta	120.002609
_cell_angle_gamma	119.999863
loop_
_atom_site_label
_atom_site_type_symbol
_atom_site_fract_x
_atom_site_fract_y
_atom_site_fract_z
O1	O	0.223712	-0.266395	0.009300
O2	O	0.159709	-0.220944	-0.009253
O3	O	0.223711	-0.220942	0.054750
O4	O	0.159710	-0.266397	-0.054703
O5	O	0.275695	-0.168958	0.054750
O6	O	0.211692	-0.168960	-0.009253
O7	O	0.275696	-0.214411	0.009300
Zn8	Zn	0.251948	-0.183432	0.000023
Zn9	Zn	0.183457	-0.251923	0.000024
O10	O	0.211693	-0.214413	-0.054703
C11	C	-0.005334	-0.079133	-0.028113
C12	C	0.013385	-0.041517	-0.028376
C13	C	0.051262	-0.079134	-0.028116
C14	C	0.069896	-0.041518	-0.028379
C15	C	0.051264	-0.022535	-0.028112
C16	C	0.013383	-0.098031	-0.028379
C17	C	-0.131572	-0.170812	-0.017864
C18	C	-0.167325	-0.188751	-0.014965
C19	C	-0.185259	-0.169411	-0.013509
C20	C	-0.224021	-0.188858	-0.010359
C21	C	-0.167439	-0.132130	-0.014954
C22	C	-0.131692	-0.114196	-0.017857
C23	C	-0.113758	-0.133538	-0.019312
C24	C	0.096077	0.113954	-0.017859
C25	C	0.116789	0.152606	-0.014961
C26	C	0.155518	0.171997	-0.013506
C27	C	0.177983	0.213906	-0.010358
C28	C	0.173531	0.152730	-0.014954
C29	C	0.152815	0.114078	-0.017859
C30	C	0.114086	0.094692	-0.019310
C31	C	0.096066	-0.170816	-0.017877
C32	C	0.116780	-0.188755	-0.014977
C33	C	0.155509	-0.169415	-0.013524
C34	C	0.177971	-0.188864	-0.010378
C35	C	0.173524	-0.132137	-0.014967
C36	C	0.152810	-0.114199	-0.017865
C37	C	0.114078	-0.133544	-0.019324
C38	C	-0.074994	-0.114086	-0.022457
C39	C	-0.044095	-0.098582	-0.024965
C40	C	0.073721	-0.098584	-0.024972
C41	C	0.091622	-0.114089	-0.022466
C42	C	0.073726	0.019375	-0.024964
C43	C	0.091629	0.052781	-0.022456
O44	O	-0.327611	-0.214405	0.009323
O45	O	-0.236709	-0.168952	-0.009227
O46	O	-0.236703	-0.168954	0.054775
O47	O	-0.327616	-0.214403	-0.054679
O48	O	-0.236705	-0.220939	0.054772
O49	O	-0.236710	-0.220937	-0.009230
O50	O	-0.327612	-0.266390	0.009320
Zn51	Zn	-0.282162	-0.251917	0.000045
Zn52	Zn	-0.282159	-0.183425	0.000049
O53	O	-0.327618	-0.266388	-0.054682
C54	C	0.051012	-0.356218	-0.361563
C55	C	0.013131	-0.393833	-0.380461
C56	C	0.051011	-0.356218	-0.304965
C57	C	0.013131	-0.393834	-0.323949
C58	C	-0.005587	-0.412817	-0.361564
C59	C	0.069644	-0.337321	-0.323947
C60	C	0.152939	-0.264537	-0.396122
C61	C	0.173776	-0.246597	-0.413935
C62	C	0.155891	-0.265937	-0.451211
C63	C	0.178487	-0.246489	-0.470525
C64	C	0.117165	-0.303217	-0.470672
C65	C	0.096327	-0.321153	-0.452860
C66	C	0.114216	-0.301811	-0.415583
C67	C	-0.131828	-0.549304	-0.453245
C68	C	-0.167582	-0.587956	-0.471186
C69	C	-0.185518	-0.607347	-0.451848
C70	C	-0.224280	-0.649257	-0.471294
C71	C	-0.167698	-0.588082	-0.414568
C72	C	-0.131950	-0.549430	-0.396630
C73	C	-0.114015	-0.530043	-0.415973
C74	C	0.152937	-0.264539	-0.168476
C75	C	0.173777	-0.246601	-0.129822
C76	C	0.155892	-0.265941	-0.110433
C77	C	0.178487	-0.246494	-0.068522
C78	C	0.117169	-0.303220	-0.129698
C79	C	0.096331	-0.321156	-0.168350
C80	C	0.114217	-0.301811	-0.187737
C81	C	0.091619	-0.321264	-0.396270
C82	C	0.073608	-0.336768	-0.380876
C83	C	0.073607	-0.336769	-0.263055
C84	C	0.091618	-0.321265	-0.229649
C85	C	-0.044350	-0.454726	-0.381014
C86	C	-0.075249	-0.488132	-0.396518
C87	C	0.384405	-0.412565	0.028194
C88	C	0.422286	-0.393582	0.028459
C89	C	0.384403	-0.355967	0.028191
C90	C	0.422284	-0.337070	0.028456
C91	C	0.441004	-0.355967	0.028193
C92	C	0.365771	-0.393582	0.028456
C93	C	0.282481	-0.549051	0.017949
C94	C	0.261644	-0.587702	0.015053
C95	C	0.279531	-0.607091	0.013601
C96	C	0.256936	-0.649002	0.010454
C97	C	0.318258	-0.587826	0.015048
C98	C	0.339095	-0.549176	0.017949
C99	C	0.321205	-0.529788	0.019400
C100	C	0.567246	-0.321405	0.017951
C101	C	0.603001	-0.303590	0.015055
C102	C	0.620936	-0.266317	0.013598
C103	C	0.659699	-0.247000	0.010452
C104	C	0.603115	-0.246857	0.015042
C105	C	0.567367	-0.264668	0.017945
C106	C	0.549432	-0.301946	0.019397
C107	C	0.282473	-0.321408	0.017937
C108	C	0.261631	-0.303596	0.015032
C109	C	0.279516	-0.266321	0.013577
C110	C	0.256919	-0.247007	0.010426
C111	C	0.318239	-0.246862	0.015022
C112	C	0.339078	-0.264676	0.017925
C113	C	0.321193	-0.301949	0.019385
C114	C	0.343800	-0.487880	0.022542
C115	C	0.361810	-0.454474	0.025048
C116	C	0.361806	-0.336655	0.025042
C117	C	0.343794	-0.321260	0.022533
C118	C	0.479767	-0.336653	0.025048
C119	C	0.510666	-0.321258	0.022541
O120	O	0.275710	0.337178	0.009322
O121	O	0.211707	0.227725	-0.009228
O122	O	0.275712	0.291723	0.054774
O123	O	0.211705	0.273180	-0.054680
O124	O	0.223730	0.291724	0.054777
O125	O	0.159725	0.227727	-0.009225
O126	O	0.223728	0.337179	0.009325
Zn127	Zn	0.183473	0.282453	0.000050
Zn128	Zn	0.251962	0.282451	0.000046
O129	O	0.159723	0.273181	-0.054677
O130	O	-0.327875	-0.772529	-0.496844
O131	O	-0.236970	-0.663077	-0.451389
O132	O	-0.236968	-0.727075	-0.451387
O133	O	-0.327878	-0.708531	-0.496846
O134	O	-0.236967	-0.727074	-0.503371
O135	O	-0.236969	-0.663076	-0.503373
O136	O	-0.327874	-0.772528	-0.548828
Zn137	Zn	-0.282421	-0.717802	-0.534354
Zn138	Zn	-0.282423	-0.717803	-0.465863
O139	O	-0.327876	-0.708530	-0.548830
O140	O	0.223712	-0.220941	-0.548571
O141	O	0.159712	-0.266394	-0.503120
O142	O	0.223714	-0.266393	-0.503116
O143	O	0.159710	-0.220943	-0.548575
O144	O	0.275699	-0.214408	-0.451132
O145	O	0.211697	-0.214410	-0.451135
O146	O	0.275697	-0.168957	-0.496587
Zn147	Zn	0.251951	-0.183430	-0.465607
Zn148	Zn	0.183459	-0.251922	-0.534099
O149	O	0.211695	-0.168958	-0.496590
C150	C	0.440750	-0.022781	0.361611
C151	C	0.422031	-0.041764	0.380508
C152	C	0.384151	-0.079380	0.305012
C153	C	0.365518	-0.098277	0.323995
C154	C	0.384151	-0.079380	0.361610
C155	C	0.422031	-0.041764	0.323995
C156	C	0.566990	0.113706	0.396173
C157	C	0.602744	0.152358	0.413988
C158	C	0.620680	0.171748	0.451263
C159	C	0.659442	0.213659	0.470579
C160	C	0.602860	0.152482	0.470724
C161	C	0.567112	0.113832	0.452911
C162	C	0.549177	0.094444	0.415634
C163	C	0.339343	-0.113941	0.453288
C164	C	0.318631	-0.131756	0.471228
C165	C	0.279901	-0.169030	0.451889
C166	C	0.257437	-0.188347	0.471334
C167	C	0.261887	-0.188490	0.414609
C168	C	0.282602	-0.170679	0.396672
C169	C	0.321331	-0.133400	0.416016
C170	C	0.339342	-0.113942	0.168524
C171	C	0.318627	-0.131755	0.129870
C172	C	0.279897	-0.169030	0.110480
C173	C	0.257433	-0.188346	0.068569
C174	C	0.261882	-0.188489	0.129744
C175	C	0.282598	-0.170675	0.168396
C176	C	0.321331	-0.133401	0.187784
C177	C	0.510411	0.052535	0.396320
C178	C	0.479512	0.019128	0.380925
C179	C	0.361690	-0.098694	0.263102
C180	C	0.343788	-0.114089	0.229696
C181	C	0.361691	-0.098693	0.381059
C182	C	0.343788	-0.114088	0.396563
C183	C	0.051321	-0.079132	0.361625
C184	C	0.069957	-0.041516	0.380523
C185	C	-0.005285	-0.079132	0.305030
C186	C	0.013438	-0.041516	0.324014
C187	C	0.051323	-0.022533	0.361628
C188	C	0.013436	-0.098030	0.324010
C189	C	0.096129	-0.170814	0.396177
C190	C	0.116842	-0.188754	0.413989
C191	C	0.155576	-0.169414	0.451263
C192	C	0.178041	-0.188862	0.470576
C193	C	0.173595	-0.132134	0.470725
C194	C	0.152878	-0.114198	0.452915
C195	C	0.114144	-0.133540	0.415639
C196	C	0.153264	0.113955	0.453309
C197	C	0.174104	0.152608	0.471250
C198	C	0.156220	0.171999	0.451914
C199	C	0.178816	0.213909	0.471360
C200	C	0.117489	0.152734	0.414635
C201	C	0.096645	0.114081	0.396697
C202	C	0.114539	0.094695	0.416038
C203	C	-0.131546	-0.170812	0.168543
C204	C	-0.167303	-0.188751	0.129890
C205	C	-0.185240	-0.169411	0.110502
C206	C	-0.224009	-0.188858	0.068592
C207	C	-0.167417	-0.132131	0.129768
C208	C	-0.131660	-0.114194	0.168419
C209	C	-0.113730	-0.133540	0.187805
C210	C	0.091686	-0.114087	0.396329
C211	C	0.073782	-0.098582	0.380936
C212	C	-0.044053	-0.098581	0.263121
C213	C	-0.074957	-0.114086	0.229715
C214	C	0.073922	0.019377	0.381078
C215	C	0.091936	0.052783	0.396583
C216	C	-0.615644	-0.412565	-0.361535
C217	C	-0.634278	-0.393582	-0.380430
C218	C	-0.559036	-0.355966	-0.304936
C219	C	-0.577757	-0.337069	-0.323917
C220	C	-0.615642	-0.355966	-0.361532
C221	C	-0.577758	-0.393582	-0.323921
C222	C	-0.660459	-0.549053	-0.396101
C223	C	-0.681174	-0.587705	-0.413917
C224	C	-0.719908	-0.607095	-0.451191
C225	C	-0.742375	-0.649006	-0.470507
C226	C	-0.737925	-0.587829	-0.470650
C227	C	-0.717207	-0.549179	-0.452836
C228	C	-0.678472	-0.529791	-0.415560
C229	C	-0.717577	-0.321403	-0.453201
C230	C	-0.738416	-0.303588	-0.471139
C231	C	-0.720530	-0.266314	-0.451799
C232	C	-0.743124	-0.246997	-0.471242
C233	C	-0.681799	-0.246853	-0.414520
C234	C	-0.660957	-0.264665	-0.396586
C235	C	-0.678853	-0.301944	-0.415931
C236	C	-0.432777	-0.321404	-0.168453
C237	C	-0.397020	-0.303591	-0.129800
C238	C	-0.379081	-0.266315	-0.110409
C239	C	-0.340312	-0.247000	-0.068498
C240	C	-0.396902	-0.246856	-0.129671
C241	C	-0.432659	-0.264671	-0.168322
C242	C	-0.450592	-0.301945	-0.187711
C243	C	-0.656012	-0.487881	-0.396246
C244	C	-0.638107	-0.454475	-0.380850
C245	C	-0.520268	-0.336652	-0.263028
C246	C	-0.489364	-0.321257	-0.229622
C247	C	-0.638240	-0.336652	-0.380978
C248	C	-0.656252	-0.321256	-0.396480
C249	C	0.384430	0.310591	0.361639
C250	C	0.422310	0.310854	0.380535
C251	C	0.384426	0.310592	0.305038
C252	C	0.422306	0.310855	0.324020
C253	C	0.441026	0.310589	0.361636
C254	C	0.365795	0.310856	0.324023
C255	C	0.282509	0.300345	0.396205
C256	C	0.261674	0.297448	0.414021
C257	C	0.279561	0.295992	0.451296
C258	C	0.256968	0.292844	0.470613
C259	C	0.318288	0.297437	0.470756
C260	C	0.339123	0.300339	0.452942
C261	C	0.321232	0.301793	0.415665
C262	C	0.567268	0.300337	0.453312
C263	C	0.603023	0.297439	0.471251
C264	C	0.620956	0.295983	0.451911
C265	C	0.659719	0.292835	0.471356
C266	C	0.603135	0.297430	0.414631
C267	C	0.567387	0.300335	0.396695
C268	C	0.549454	0.301786	0.416040
C269	C	0.282493	0.300351	0.168550
C270	C	0.261650	0.297450	0.129896
C271	C	0.279534	0.295996	0.110505
C272	C	0.256936	0.292849	0.068594
C273	C	0.318257	0.297439	0.129768
C274	C	0.339097	0.300338	0.168421
C275	C	0.321213	0.301797	0.187810
C276	C	0.343826	0.304937	0.396350
C277	C	0.361836	0.307444	0.380954
C278	C	0.361827	0.307447	0.263128
C279	C	0.343814	0.304941	0.229722
C280	C	0.479789	0.307441	0.381084
C281	C	0.510688	0.304933	0.396587
O282	O	0.224054	0.337184	0.496905
O283	O	0.160040	0.227729	0.451456
O284	O	0.224036	0.291721	0.451446
O285	O	0.160058	0.273192	0.496916
O286	O	0.276025	0.291721	0.503428
O287	O	0.212029	0.227728	0.503439
O288	O	0.276043	0.337183	0.548888
Zn289	Zn	0.252291	0.282456	0.534416
Zn290	Zn	0.183793	0.282457	0.465928
O291	O	0.212047	0.273191	0.548898
C292	C	-0.005345	0.254315	-0.361540
C293	C	0.013372	0.254051	-0.380438
C294	C	0.051256	0.254313	-0.304942
C295	C	0.069887	0.254048	-0.323926
C296	C	0.051252	0.254314	-0.361542
C297	C	0.013376	0.254049	-0.323924
C298	C	-0.131583	0.264566	-0.396098
C299	C	-0.167338	0.267464	-0.413911
C300	C	-0.185274	0.268920	-0.451187
C301	C	-0.224037	0.272070	-0.470501
C302	C	-0.167457	0.267474	-0.470649
C303	C	-0.131709	0.264571	-0.452837
C304	C	-0.113772	0.263116	-0.415560
C305	C	0.096054	0.264562	-0.453224
C306	C	0.116764	0.267460	-0.471165
C307	C	0.155494	0.268914	-0.451828
C308	C	0.177956	0.272061	-0.471275
C309	C	0.173510	0.267467	-0.414547
C310	C	0.152797	0.264563	-0.396609
C311	C	0.114067	0.263113	-0.415952
C312	C	0.096071	0.264555	-0.168452
C313	C	0.116788	0.267456	-0.129798
C314	C	0.155518	0.268909	-0.110409
C315	C	0.177984	0.272056	-0.068497
C316	C	0.173531	0.267465	-0.129674
C317	C	0.152814	0.264565	-0.168326
C318	C	0.114081	0.263107	-0.187714
C319	C	-0.075006	0.259972	-0.396247
C320	C	-0.044107	0.257463	-0.380853
C321	C	0.073718	0.257458	-0.263032
C322	C	0.091622	0.259964	-0.229625
C323	C	0.073711	0.257461	-0.380992
C324	C	0.091612	0.259968	-0.396497
H325	H	-0.002283	-0.026279	-0.028803
H326	H	0.102094	0.268640	-0.501518
C327	C	-0.737027	-0.527990	-0.474240
N328	N	-0.751956	-0.512031	-0.490362
C329	C	0.053732	-0.362159	-0.474267
N330	N	0.021650	-0.393046	-0.490391
H331	H	0.267911	-0.533269	0.019132
C332	C	-0.112060	-0.073189	0.189609
N333	N	-0.097298	-0.042304	0.205570
H334	H	0.230120	0.296273	0.114214
C335	C	0.219286	-0.229494	0.393336
N336	N	0.187197	-0.260377	0.377313
C337	C	0.096961	-0.229761	-0.013390
N338	N	0.082031	-0.260649	-0.012196
H339	H	-0.116951	-0.186568	0.184326
H340	H	-0.002297	0.253626	-0.411345
H341	H	0.332801	-0.216511	0.013836
C342	C	0.262816	0.301950	0.189876
N343	N	0.247995	0.303152	0.205939
C344	C	0.262830	0.301950	0.355202
N345	N	0.248008	0.303159	0.324320
C346	C	0.172631	0.092889	-0.019452
N347	N	0.187558	0.076930	-0.020649
H348	H	0.064518	0.263379	-0.468977
C349	C	0.097494	-0.324488	-0.511673
N350	N	0.082677	-0.340511	-0.542556
C351	C	0.443448	-0.295317	0.029031
N352	N	0.459389	-0.263870	0.029465
C353	C	0.219045	-0.608892	0.013457
N354	N	0.186957	-0.624852	0.012253
C355	C	-0.007788	0.253472	-0.303335
N356	N	-0.023729	0.253035	-0.287827
H357	H	-0.002533	-0.409073	-0.308707
C358	C	0.053463	-0.192095	-0.019476
N359	N	0.021376	-0.208120	-0.020679
H360	H	-0.002286	-0.128938	-0.028807
H361	H	-0.769951	-0.319436	-0.501490
C362	C	0.054045	0.092893	0.355692
N363	N	0.021959	0.076935	0.324806
H364	H	-0.116974	-0.186565	-0.019049
C365	C	0.262770	-0.192078	0.355659
N366	N	0.247827	-0.208192	0.324763
H367	H	-0.181831	-0.219104	-0.013788
C368	C	0.381688	-0.527988	0.019535
N369	N	0.413768	-0.512031	0.020727
H370	H	-0.382515	-0.319440	-0.114118
H371	H	0.552881	0.301516	0.366343
H372	H	0.230144	0.296272	0.398174
C373	C	0.443196	-0.021175	0.422261
N374	N	0.459136	-0.005668	0.453709
H375	H	-0.182088	-0.603638	-0.501538
C376	C	0.172702	-0.073191	0.474322
N377	N	0.187635	-0.042302	0.490446
C378	C	-0.112107	-0.527979	-0.474526
N379	N	-0.097253	-0.511915	-0.490553
C380	C	0.262784	-0.192085	0.189585
N381	N	0.247861	-0.208212	0.205546
C382	C	-0.187424	-0.609412	-0.393293
N383	N	-0.202279	-0.625480	-0.377268
H384	H	-0.732150	-0.351755	-0.468955
C385	C	-0.452259	-0.243263	-0.189508
N386	N	-0.467022	-0.227138	-0.205465
H387	H	-0.628919	-0.533271	-0.365751
H388	H	0.370608	-0.248829	0.019102
C389	C	0.097492	-0.324495	-0.108370
N390	N	0.082671	-0.340518	-0.092307
H391	H	-0.182022	-0.116383	0.113979
C392	C	-0.780531	-0.609159	-0.511650
N393	N	-0.812624	-0.625225	-0.542532
H394	H	0.064542	0.098172	-0.019042
C395	C	0.622619	0.295842	0.512255
N396	N	0.637378	0.294638	0.543140
C397	C	-0.377170	-0.205852	-0.108340
N398	N	-0.362309	-0.174968	-0.092274
H399	H	-0.562087	-0.306162	-0.308673
H400	H	0.102125	0.268641	-0.114112
H401	H	0.332819	-0.603615	0.013867
C402	C	0.443467	0.311429	0.303429
N403	N	0.459406	0.311862	0.287921
C404	C	-0.662120	-0.205850	-0.393246
N405	N	-0.647300	-0.174967	-0.377222
H406	H	-0.117446	-0.533746	-0.366278
C407	C	0.096976	0.173796	-0.013364
N408	N	0.082053	0.189756	-0.012160
C409	C	-0.187169	-0.110860	-0.013354
N410	N	-0.202030	-0.094837	-0.012149
H411	H	0.552648	-0.351756	0.019136
H412	H	0.205062	0.168518	-0.013775
H413	H	-0.664762	-0.408823	-0.411337
C414	C	0.219036	-0.325003	0.013443
N415	N	0.186954	-0.341127	0.012248
C416	C	-0.556596	-0.414173	-0.303333
N417	N	-0.540657	-0.429682	-0.287826
C418	C	0.622864	0.295834	0.393357
N419	N	0.637723	0.294629	0.377333
C420	C	0.219279	-0.229494	0.108415
N421	N	0.187191	-0.260378	0.092350
H422	H	0.064589	-0.186567	0.365827
H423	H	-0.002229	-0.026275	0.308773
H424	H	-0.447376	-0.351755	-0.184238
H425	H	0.335288	-0.408826	0.028878
C426	C	0.443441	-0.414176	0.029021
N427	N	0.459371	-0.429688	0.029438
C428	C	0.172616	-0.243257	-0.355119
N429	N	0.187436	-0.227230	-0.324237
C430	C	0.172628	0.262973	-0.189516
N431	N	0.187552	0.261772	-0.205477
C432	C	0.381945	-0.072939	0.189849
N433	N	0.414033	-0.042054	0.205911
C434	C	0.053734	-0.362161	-0.189540
N435	N	0.021648	-0.393046	-0.205500
C436	C	-0.661357	-0.608895	-0.392510
N437	N	-0.646432	-0.624855	-0.376384
H438	H	0.617249	0.168041	0.398140
H439	H	0.437972	0.311273	0.411440
H440	H	0.617506	-0.319438	0.013877
H441	H	0.100124	-0.306414	-0.308708
H442	H	-0.117187	-0.083843	-0.019035
H443	H	0.370626	0.301513	0.184102
H444	H	0.100440	-0.026279	0.411431
H445	H	0.552391	0.097924	0.365822
H446	H	0.267905	-0.351759	0.019122
C447	C	0.172626	-0.073195	-0.019458
N448	N	0.187551	-0.042310	-0.020658
C449	C	0.622590	0.173812	0.511725
N450	N	0.637450	0.189879	0.542608
H451	H	0.617720	-0.216507	0.013858
C452	C	-0.187188	0.269076	-0.511650
N453	N	-0.202049	0.270283	-0.542533
H454	H	0.552861	-0.248822	0.019121
C455	C	-0.618356	-0.243258	-0.355582
N456	N	-0.586269	-0.227135	-0.324696
C457	C	0.324615	0.311430	0.303434
N458	N	0.293599	0.311863	0.287927
C459	C	0.337962	0.295837	0.511758
N460	N	0.352782	0.294631	0.542642
C461	C	0.053468	0.262956	-0.189775
N462	N	0.021380	0.261753	-0.205837
C463	C	-0.112111	0.262981	-0.474245
N464	N	-0.097349	0.261787	-0.490369
C465	C	0.324339	-0.140030	0.303404
N466	N	0.293323	-0.171477	0.287897
H467	H	0.370654	0.301517	0.468788
H468	H	0.552671	0.301521	0.469066
C469	C	0.337931	0.295840	0.108438
N470	N	0.352749	0.294636	0.092373
H471	H	0.437691	-0.026518	0.308752
C472	C	0.338445	-0.110348	0.108683
N473	N	0.353375	-0.094224	0.092725
H474	H	0.100368	0.253622	-0.308684
H475	H	-0.116983	0.263381	-0.365746
H476	H	0.552608	0.098149	0.468758
H477	H	0.205060	-0.116389	-0.013783
C478	C	0.381946	-0.072938	0.474568
N479	N	0.414034	-0.042054	0.490595
C480	C	-0.186929	0.269060	-0.392500
N481	N	-0.201684	0.270264	-0.376372
C482	C	0.216112	0.269064	-0.393275
N483	N	0.248201	0.270270	-0.377252
C484	C	0.338445	-0.110346	0.512231
N485	N	0.353369	-0.094219	0.543115
C486	C	0.216375	-0.205593	-0.392525
N487	N	0.248462	-0.174709	-0.376398
H488	H	-0.002231	-0.128936	0.308770
H489	H	0.167466	0.263383	-0.366257
H490	H	0.205308	-0.216248	-0.114139
H491	H	-0.181811	-0.219104	0.114206
H492	H	0.205068	0.268648	-0.113885
H493	H	0.100376	-0.026279	-0.028805
C494	C	-0.008032	-0.414422	-0.422214
N495	N	-0.023972	-0.429930	-0.453662
C496	C	0.097024	-0.229758	0.392578
N497	N	0.082098	-0.260642	0.376449
C498	C	0.172617	-0.243260	-0.189800
N499	N	0.187439	-0.227235	-0.205861
H500	H	0.205131	-0.116391	0.501074
H501	H	0.167834	0.098173	0.469060
C502	C	0.097798	0.174056	0.393372
N503	N	0.082964	0.190116	0.377360
C504	C	0.216710	0.173797	0.512252
N505	N	0.248803	0.189758	0.543134
