data_functionalizedCrystal
_audit_creation_method	'MofGen! by Chris Wilmer'
_symmetry_space_group_name_H-M	'P1'
_symmetry_Int_Tables_number	1
_symmetry_cell_setting	triclinic
loop_
_symmetry_equiv_pos_as_xyz
  x,y,z
_cell_length_a	6.817900
_cell_length_b	10.943624
_cell_length_c	11.102289
_cell_angle_alpha	91.861746
_cell_angle_beta	108.605707
_cell_angle_gamma	108.838799
loop_
_atom_site_label
_atom_site_type_symbol
_atom_site_fract_x
_atom_site_fract_y
_atom_site_fract_z
V1	V	-4.114282	-0.402551	-0.175806
O2	O	-4.073263	-0.394888	0.008482
O3	O	-4.091041	-0.399798	-0.348626
O4	O	-4.092264	-0.578117	-0.173086
O5	O	-4.072031	-0.215334	-0.168273
V6	V	-4.591232	-0.380158	-0.153765
O7	O	-4.389960	-0.451671	-0.224155
O8	O	-4.765752	-0.331038	-0.105415
O9	O	-4.391267	-0.382912	0.019056
O10	O	-4.749649	-0.387821	-0.338053
O11	O	-4.750880	-0.567375	-0.161298
O12	O	-4.390044	-0.204592	-0.156484
C13	C	-3.941308	-0.393447	-0.390757
C14	C	-4.003768	-0.392366	-0.532039
C15	C	-4.217163	-0.398299	-0.604887
C16	C	-4.275844	-0.397294	-0.737639
C17	C	-3.907711	-0.384419	-0.724682
C18	C	-3.849038	-0.385432	-0.591934
C19	C	-4.429699	-0.405727	-0.612368
C20	C	-4.488380	-0.404723	-0.745120
C21	C	-3.942867	-0.620910	-0.166837
C22	C	-4.006314	-0.764437	-0.165757
C23	C	-3.851194	-0.841584	-0.158485
C24	C	-4.039808	-0.947574	-0.266416
C25	C	-3.930779	-0.914187	-0.055914
C26	C	-4.194138	-0.868550	-0.273789
C27	C	-4.085029	-0.835140	-0.063191
C28	C	-4.273779	-0.941100	-0.171153
C29	C	-4.204342	-0.389259	0.061180
C30	C	-4.121122	-0.390348	0.202461
C31	C	-4.202783	-0.161792	-0.162738
C32	C	-4.118573	-0.018265	-0.163811
H33	H	-4.620843	-0.500372	-0.802979
O34	O	-4.326568	-0.844111	-0.383682
C35	C	-4.548582	-0.896118	-0.390568
H36	H	-4.554365	-0.906221	-0.289768
H37	H	-4.638633	-0.827978	-0.434570
H38	H	-4.632273	-0.996204	-0.452932
H39	H	-3.781744	-0.378775	-0.773465
H40	H	-4.539085	-0.316529	-0.770096
O41	O	-4.018019	-1.006200	-0.368872
C42	C	-4.080528	-1.141956	-0.367022
H43	H	-4.195428	-1.171856	-0.309315
H44	H	-4.169881	-1.196005	-0.469640
H45	H	-3.926827	-1.167784	-0.320618
O46	O	-3.799029	-0.939056	0.053975
C47	C	-3.929932	-1.006898	0.123312
H48	H	-4.106892	-1.058658	0.054869
H49	H	-3.860339	-1.082057	0.170732
H50	H	-3.928416	-0.934839	0.200400
H51	H	-4.453056	-0.984345	-0.176535
H52	H	-4.103399	-0.786156	0.022729
O53	O	-4.563766	-0.517652	-0.589188
C54	C	-4.504353	-0.518473	-0.455460
H55	H	-4.415044	-0.413952	-0.402923
H56	H	-4.659579	-0.565010	-0.430843
H57	H	-4.390399	-0.577120	-0.424476
O58	O	-3.641725	-0.379506	-0.521012
C59	C	-3.538794	-0.267350	-0.426629
H60	H	-3.670488	-0.235636	-0.406615
H61	H	-3.432656	-0.290602	-0.334417
H62	H	-3.430006	-0.185123	-0.462532
O63	O	-3.637564	-0.789610	-0.152439
C64	C	-3.629393	-0.729410	-0.261986
H65	H	-3.783624	-0.702881	-0.303678
H66	H	-3.476175	-0.637059	-0.233784
H67	H	-3.621771	-0.799608	-0.337077
H68	H	-4.429145	-0.314695	-0.559149
