data_functionalizedCrystal
_audit_creation_method	'MofGen! by Chris Wilmer'
_symmetry_space_group_name_H-M	'P1'
_symmetry_Int_Tables_number	1
_symmetry_cell_setting	triclinic
loop_
_symmetry_equiv_pos_as_xyz
  x,y,z
_cell_length_a	17.077404
_cell_length_b	19.077068
_cell_length_c	17.077396
_cell_angle_alpha	92.267122
_cell_angle_beta	89.980499
_cell_angle_gamma	92.327269
loop_
_atom_site_label
_atom_site_type_symbol
_atom_site_fract_x
_atom_site_fract_y
_atom_site_fract_z
Zn1	Zn	1.187475	-0.280197	-0.456376
Zn2	Zn	1.182097	-0.397901	-0.330375
Zn3	Zn	1.056205	-0.280222	-0.325125
Zn4	Zn	1.050892	-0.397859	-0.461596
O5	O	1.119167	-0.339045	-0.393368
O6	O	1.296608	-0.295818	-0.439674
O7	O	1.165371	-0.382318	-0.219833
O8	O	1.078093	-0.181727	-0.338154
O9	O	1.292657	-0.382294	-0.347101
O10	O	1.174536	-0.181709	-0.434583
O11	O	1.072878	-0.295860	-0.215976
O12	O	0.945654	-0.295819	-0.343216
O13	O	1.069036	-0.382223	-0.570750
O14	O	0.941750	-0.382247	-0.443481
O15	O	1.169383	-0.295777	-0.566914
O16	O	1.160218	-0.496386	-0.352163
O17	O	1.063822	-0.496356	-0.448571
C18	C	0.915220	-0.339032	-0.393346
C19	C	0.827970	-0.339043	-0.393356
C20	C	1.110881	-0.521909	-0.401521
C21	C	1.107408	-0.600139	-0.405035
C22	C	0.784964	-0.384114	-0.445486
C23	C	0.702984	-0.384116	-0.445499
C24	C	0.664010	-0.339050	-0.393376
C25	C	0.707021	-0.293974	-0.341243
C26	C	0.789000	-0.293969	-0.341235
C27	C	0.536151	-0.293988	-0.341263
C28	C	0.454166	-0.293993	-0.341270
C29	C	0.450134	-0.384134	-0.445526
C30	C	0.532113	-0.384130	-0.445518
C31	C	0.575119	-0.339055	-0.393384
C32	C	1.156004	-0.636884	-0.356533
C33	C	1.152742	-0.710389	-0.359843
C34	C	1.100880	-0.747148	-0.411651
C35	C	1.052283	-0.710398	-0.460158
C36	C	1.055549	-0.636894	-0.456852
C37	C	1.085729	-0.966982	-0.426921
C38	C	1.082465	-1.040491	-0.430222
C39	C	1.182926	-1.040478	-0.329907
C40	C	1.186184	-0.966973	-0.326602
C41	C	1.137590	-0.930229	-0.375112
N42	N	1.097543	-0.822282	-0.415033
N43	N	1.140931	-0.855096	-0.371733
C44	C	1.323911	-0.339058	-0.393391
C45	C	1.411160	-0.339064	-0.393400
C46	C	1.119217	-0.338993	-0.598110
C47	C	1.119238	-0.338971	-0.685359
C48	C	1.127507	-0.155467	-0.385201
C49	C	1.131061	-0.077237	-0.381720
C50	C	1.171491	-0.293955	-0.724353
C51	C	1.171501	-0.293931	-0.806332
C52	C	1.119262	-0.338928	-0.849316
C53	C	1.067004	-0.383946	-0.810317
C54	C	1.066990	-0.383965	-0.728339
C55	C	1.067038	-0.383904	-0.981185
C56	C	1.067052	-0.383885	-1.063169
C57	C	1.171549	-0.293870	-1.059179
C58	C	1.171535	-0.293889	-0.977201
C59	C	1.119277	-0.338908	-0.938207
C60	C	1.119165	-0.339046	-0.189420
C61	C	1.119305	-0.338869	-0.102163
H62	H	0.816690	-0.420815	-0.487928
H63	H	1.040242	-1.070418	-0.472424
C64	C	1.009582	-0.433380	-1.110450
N65	N	0.966294	-0.470659	-1.146061
H66	H	1.198232	-0.606960	-0.314342
H67	H	1.046160	-0.937071	-0.466418
H68	H	1.010059	-0.740332	-0.502345
H69	H	0.571164	-0.257277	-0.298816
C70	C	0.402826	-0.433714	-0.502878
N71	N	0.367191	-0.471057	-0.546073
C72	C	1.002090	-0.596474	-0.510208
N73	N	0.961825	-0.566031	-0.550400
C74	C	1.228985	-0.244411	-0.849222
N75	N	1.272284	-0.207110	-0.881526
H76	H	0.422436	-0.257288	-0.298836
H77	H	1.024433	-0.420615	-0.696590
C78	C	1.228958	-0.244453	-0.677078
N79	N	1.272242	-0.207165	-0.641472
H80	H	0.563843	-0.420830	-0.487957
C81	C	0.655681	-0.433711	-0.502832
N82	N	0.620052	-0.471072	-0.546013
C83	C	0.836306	-0.244389	-0.283886
N84	N	0.871936	-0.207043	-0.240690
C85	C	1.009533	-0.433436	-0.857602
N86	N	0.966245	-0.470713	-0.893216
H87	H	0.675282	-0.257277	-0.298808
H88	H	1.192313	-0.740304	-0.320346
H89	H	1.228414	-0.937045	-0.284416
C90	C	1.236379	-1.080902	-0.276552
N91	N	1.276643	-1.111350	-0.236364
H92	H	1.024472	-0.420552	-0.949438
H93	H	1.214077	-0.257253	-0.942205
C94	C	1.229032	-0.244347	-1.102074
N95	N	1.272329	-0.207051	-1.134386
