data_functionalizedCrystal
_audit_creation_method	'MofGen! by Chris Wilmer'
_symmetry_space_group_name_H-M	'P1'
_symmetry_Int_Tables_number	1
_symmetry_cell_setting	triclinic
loop_
_symmetry_equiv_pos_as_xyz
  x,y,z
_cell_length_a	11.169417
_cell_length_b	13.897447
_cell_length_c	13.897449
_cell_angle_alpha	90.007994
_cell_angle_beta	90.001373
_cell_angle_gamma	90.020779
loop_
_atom_site_label
_atom_site_type_symbol
_atom_site_fract_x
_atom_site_fract_y
_atom_site_fract_z
Zn1	Zn	1.834671	-0.384155	0.545325
Zn2	Zn	2.334671	0.115845	1.045325
Zn3	Zn	1.834591	-0.545417	0.384030
Zn4	Zn	2.334591	-0.045417	0.884030
Zn5	Zn	1.634020	-0.384141	0.384050
Zn6	Zn	2.134020	0.115859	0.884050
Zn7	Zn	1.633932	-0.545413	0.545290
Zn8	Zn	2.133932	-0.045413	1.045290
O9	O	1.734304	-0.464782	0.464674
O10	O	2.234304	0.035218	0.964674
O11	O	2.002610	-0.405554	0.523935
O12	O	2.502610	0.094446	1.023935
O13	O	1.807989	-0.524019	0.249051
O14	O	2.307989	-0.024019	0.749051
O15	O	1.660707	-0.249161	0.405467
O16	O	2.160707	0.250839	0.905467
O17	O	2.002552	-0.524032	0.405432
O18	O	2.502552	-0.024032	0.905432
O19	O	1.808124	-0.249172	0.523955
O20	O	2.308124	0.250828	1.023955
O21	O	1.660630	-0.405530	0.249066
O22	O	2.160630	0.094470	0.749066
O23	O	1.466059	-0.405527	0.405433
O24	O	1.966059	0.094473	0.905433
O25	O	1.660557	-0.524027	0.680276
O26	O	2.160557	-0.024027	1.180276
O27	O	1.465994	-0.524013	0.523895
O28	O	1.965994	-0.024013	1.023895
O29	O	1.808039	-0.405551	0.680302
O30	O	2.308039	0.094449	1.180302
O31	O	1.807903	-0.680398	0.405398
O32	O	2.307903	-0.180398	0.905398
O33	O	1.660480	-0.680395	0.523875
O34	O	2.160480	-0.180395	1.023875
C35	C	1.422479	-0.464769	0.464663
C36	C	1.922479	0.035231	0.964663
C37	C	1.289079	-0.464786	0.464681
C38	C	1.789079	0.035214	0.964681
C39	C	1.734206	-0.715396	0.464651
C40	C	2.234206	-0.215396	0.964651
C41	C	1.734274	-0.822610	0.464674
C42	C	2.234274	-0.322610	0.964674
C43	C	1.734332	-0.909680	0.464696
C44	C	2.234332	-0.409680	0.964696
C45	C	1.734416	-1.018912	0.464721
C46	C	2.234416	-0.518912	0.964721
C47	C	2.047346	-0.464795	0.464685
C48	C	2.547346	0.035205	0.964685
C49	C	2.180746	-0.464801	0.464690
C50	C	2.680746	0.035199	0.964690
C51	C	1.734297	-0.464790	0.716267
C52	C	2.234297	0.035210	1.216267
C53	C	1.734294	-0.464794	0.823481
C54	C	2.234294	0.035206	1.323481
C55	C	1.734434	-0.213189	0.464717
C56	C	2.234434	0.286811	0.964717
C57	C	1.734490	-0.105975	0.464736
C58	C	2.234490	0.394025	0.964736
C59	C	1.734290	-0.464797	0.910550
C60	C	2.234290	0.035203	1.410550
C61	C	1.734290	-0.464793	1.019783
C62	C	2.234290	0.035207	1.519783
C63	C	1.734299	-0.464793	1.214059
C64	C	2.234299	0.035207	1.714059
C65	C	1.734295	-0.464784	1.106845
C66	C	2.234295	0.035216	1.606845
