data_functionalizedCrystal
_audit_creation_method	'MofGen! by Chris Wilmer'
_symmetry_space_group_name_H-M	'P1'
_symmetry_Int_Tables_number	1
_symmetry_cell_setting	triclinic
loop_
_symmetry_equiv_pos_as_xyz
  x,y,z
_cell_length_a	6.817900
_cell_length_b	11.168138
_cell_length_c	11.168136
_cell_angle_alpha	92.020086
_cell_angle_beta	108.508683
_cell_angle_gamma	108.508793
loop_
_atom_site_label
_atom_site_type_symbol
_atom_site_fract_x
_atom_site_fract_y
_atom_site_fract_z
V1	V	-4.109883	-0.174724	-0.393710
O2	O	-4.069466	0.008377	-0.386204
O3	O	-4.086173	-0.346429	-0.391027
O4	O	-4.086174	-0.172045	-0.565415
O5	O	-4.069465	-0.167215	-0.210609
V6	V	-4.587113	-0.152822	-0.371808
O7	O	-4.384947	-0.222767	-0.441753
O8	O	-4.762246	-0.104778	-0.323765
O9	O	-4.387617	0.018883	-0.374490
O10	O	-4.744927	-0.335922	-0.379314
O11	O	-4.744928	-0.160331	-0.554909
O12	O	-4.387616	-0.155501	-0.200102
C13	C	-3.936381	-0.388287	-0.384819
C14	C	-3.998446	-0.528658	-0.383771
C15	C	-4.265095	-0.742424	-0.388208
C16	C	-4.200952	-0.597343	-0.389292
C17	C	-3.936381	-0.165841	-0.607267
C18	C	-3.998443	-0.164786	-0.747637
C19	C	-4.200951	-0.170305	-0.816329
C20	C	-4.265099	-0.169216	-0.961410
C21	C	-4.200752	0.060735	-0.380695
C22	C	-4.117926	0.201105	-0.381752
C23	C	-4.200751	-0.161709	-0.158245
C24	C	-4.117926	-0.162757	-0.017873
H25	H	-4.326830	-0.175828	-0.767731
C26	C	-3.759913	-0.150205	-1.018137
C27	C	-3.883721	-0.156383	-0.938178
H28	H	-3.615328	-0.146279	-0.968928
H29	H	-3.751959	-0.076103	-1.058301
H30	H	-3.828475	-0.224058	-1.081397
H31	H	-3.815167	-0.082525	-0.874923
H32	H	-3.891666	-0.230493	-0.897993
C33	C	-3.794536	-0.652668	-0.266302
C34	C	-3.828462	-0.594225	-0.376301
H35	H	-3.689587	-0.693145	-0.261688
H36	H	-3.929887	-0.714563	-0.269637
H37	H	-3.741087	-0.589923	-0.192977
H38	H	-3.881926	-0.656973	-0.449627
H39	H	-3.693083	-0.532324	-0.372976
C40	C	-4.487535	-0.881371	-0.285356
C41	C	-4.499299	-0.822146	-0.394592
H42	H	-4.632128	-0.930592	-0.289305
H43	H	-4.419023	-0.818112	-0.211520
H44	H	-4.403503	-0.935593	-0.281176
H45	H	-4.583318	-0.767917	-0.398767
H46	H	-4.567843	-0.885414	-0.468448
C47	C	-4.274473	-0.400735	-0.396379
C48	C	-4.370915	-0.531763	-0.396753
H49	H	-4.379404	-0.360248	-0.400976
H50	H	-4.227570	-0.388083	-0.467924
H51	H	-4.151056	-0.365009	-0.319968
H52	H	-4.494323	-0.567491	-0.473168
H53	H	-4.417850	-0.544424	-0.325201
H54	H	-3.944440	-0.739834	-0.377021
H55	H	-4.438584	-0.173947	-1.020461
H56	H	-3.872554	-0.159246	-0.796233
