data_functionalizedCrystal
_audit_creation_method	'MofGen! by Chris Wilmer'
_symmetry_space_group_name_H-M	'P1'
_symmetry_Int_Tables_number	1
_symmetry_cell_setting	triclinic
loop_
_symmetry_equiv_pos_as_xyz
  x,y,z
_cell_length_a	15.298068
_cell_length_b	13.897447
_cell_length_c	15.296720
_cell_angle_alpha	80.352969
_cell_angle_beta	91.645182
_cell_angle_gamma	99.679582
loop_
_atom_site_label
_atom_site_type_symbol
_atom_site_fract_x
_atom_site_fract_y
_atom_site_fract_z
Zn1	Zn	1.253390	-0.286949	0.727372
Zn2	Zn	1.278657	-0.416495	0.580907
Zn3	Zn	1.132270	-0.277576	0.555539
Zn4	Zn	1.106889	-0.470571	0.701932
O5	O	1.192802	-0.362898	0.641438
O6	O	1.379317	-0.285425	0.729207
O7	O	1.280435	-0.371514	0.454980
O8	O	1.148384	-0.143834	0.578363
O9	O	1.397881	-0.380603	0.621600
O10	O	1.237371	-0.150720	0.704608
O11	O	1.172885	-0.269451	0.436342
O12	O	1.006328	-0.321885	0.553695
O13	O	1.105126	-0.472766	0.827869
O14	O	0.987681	-0.463678	0.661249
O15	O	1.212760	-0.337860	0.846560
O16	O	1.255824	-0.558653	0.596931
O17	O	1.129627	-0.598382	0.685848
C18	C	0.965222	-0.397633	0.601959
C19	C	0.867859	-0.412521	0.585091
C20	C	0.554688	-0.256735	0.762000
C21	C	0.646165	-0.242751	0.777854
C22	C	0.701593	-0.285192	0.729664
C23	C	0.665535	-0.341620	0.665619
C24	C	0.574048	-0.355612	0.649768
C25	C	0.720953	-0.384069	0.617432
C26	C	0.684895	-0.440497	0.553387
C27	C	0.593418	-0.454485	0.537539
C28	C	0.537990	-0.412044	0.585729
C29	C	0.812440	-0.370077	0.633283
C30	C	0.831800	-0.468954	0.521051
C31	C	0.740323	-0.482937	0.505198
C32	C	1.192734	-0.613518	0.641405
C33	C	1.192780	-0.720729	0.641434
C34	C	1.192819	-0.807797	0.641462
C35	C	1.192876	-0.917025	0.641495
C36	C	1.421270	-0.328027	0.681071
C37	C	1.518629	-0.313168	0.697960
C38	C	1.153293	-0.412390	0.869882
C39	C	1.136457	-0.433481	0.967232
C40	C	1.192890	-0.111299	0.641494
C41	C	1.192928	-0.004082	0.641518
C42	C	1.232206	-0.313520	0.413891
C43	C	1.249212	-0.292132	0.316571
C44	C	1.313164	-0.211984	1.280571
C45	C	1.328987	-0.192169	1.189107
C46	C	1.280856	-0.252495	1.133634
C47	C	1.216899	-0.332640	1.169633
C48	C	1.201078	-0.352462	1.261107
C49	C	1.168771	-0.392973	1.114170
C50	C	1.104813	-0.473118	1.150169
C51	C	1.088995	-0.492935	1.241634
C52	C	1.137126	-0.432609	1.297107
C53	C	1.184591	-0.373151	1.022696
C54	C	1.072506	-0.513629	1.003232
C55	C	1.056682	-0.533444	1.094696
H56	H	0.675516	-0.196811	0.830002
H57	H	1.236665	-0.307896	0.993395
N58	N	0.498058	-0.213407	0.811219
N59	N	0.416380	-0.225915	0.797061
H60	H	0.376382	-0.195314	0.831827
N61	N	1.362321	-0.150353	1.337219
N62	N	1.419415	-0.078791	1.305069
H63	H	1.454136	-0.035256	1.345077
H64	H	1.381064	-0.126917	1.159803
N65	N	1.023332	-0.575269	0.946590
N66	N	1.027342	-0.665604	0.957788
H67	H	0.992617	-0.709136	0.917780
H68	H	0.463500	-0.423435	0.572830
N69	N	1.120965	-0.452829	1.390538
N70	N	1.163939	-0.398950	1.440051
H71	H	1.152525	-0.413226	1.506038
N72	N	0.703499	-0.540592	0.439786
N73	N	0.752987	-0.578486	0.396764
H74	H	0.726981	-0.619206	0.350567
H75	H	0.841789	-0.324131	0.685428
N76	N	1.023684	-0.574825	1.278397
N77	N	0.980724	-0.628689	1.228865
H78	H	0.934602	-0.686529	1.254827
H79	H	0.776077	-0.273799	0.742573
H80	H	0.564062	-0.500441	0.485396
N81	N	0.888420	-0.512309	0.471834
N82	N	0.970097	-0.499810	0.485994
H83	H	1.010091	-0.530429	0.451239
H84	H	1.293744	-0.236357	1.059160
N85	N	0.991343	-0.615294	1.131478
N86	N	0.926718	-0.600913	1.172843
H87	H	0.880570	-0.658717	1.198823
