data_functionalizedCrystal
_audit_creation_method	'MofGen! by Chris Wilmer'
_symmetry_space_group_name_H-M	'P1'
_symmetry_Int_Tables_number	1
_symmetry_cell_setting	triclinic
loop_
_symmetry_equiv_pos_as_xyz
  x,y,z
_cell_length_a	9.065218
_cell_length_b	10.654550
_cell_length_c	9.130313
_cell_angle_alpha	90.003780
_cell_angle_beta	90.000552
_cell_angle_gamma	95.249606
loop_
_atom_site_label
_atom_site_type_symbol
_atom_site_fract_x
_atom_site_fract_y
_atom_site_fract_z
O1	O	0.207228	-1.668655	-0.121914
O2	O	0.226972	-1.303255	-0.121889
O3	O	0.002416	-1.493507	-0.121899
O4	O	0.431784	-1.478402	-0.121904
O5	O	0.002422	-1.493505	0.121700
O6	O	0.226978	-1.303252	0.121709
O7	O	0.207234	-1.668653	0.121685
Cu8	Cu	0.217107	-1.485952	0.143940
Cu9	Cu	0.217100	-1.485955	-0.144144
O10	O	0.431790	-1.478400	0.121695
C11	C	-0.052559	-1.492055	-0.000102
C12	C	-0.216378	-1.487714	-0.000109
C13	C	0.225525	-1.256450	-0.000087
C14	C	0.221188	-1.116989	-0.000078
C15	C	0.208681	-1.715457	-0.000120
C16	C	0.213018	-1.854918	-0.000139
C17	C	0.486766	-1.479852	-0.000106
C18	C	0.650585	-1.484193	-0.000108
C19	C	0.353403	-1.038027	-0.000101
C20	C	0.349319	-0.906990	-0.000126
C21	C	0.080793	-0.933890	-0.000112
C22	C	0.084879	-1.064925	-0.000076
C23	C	0.508434	-1.022496	-0.000115
C24	C	0.504350	-0.891459	-0.000141
N25	N	0.217111	-1.485959	0.346563
N26	N	0.217084	-1.485957	-0.346767
C27	C	0.117712	-1.570225	0.423210
C28	C	0.117694	-1.570222	0.576547
C29	C	0.316488	-1.401682	0.576575
C30	C	0.316497	-1.401681	0.423241
C31	C	0.002944	-1.667534	0.423195
C32	C	0.002926	-1.667531	0.576532
H33	H	-0.022783	-1.129212	-0.000036
H34	H	-0.030185	-0.891483	-0.000133
H35	H	0.551205	-0.845972	0.105027
N36	N	0.581717	-0.836472	-0.135181
H37	H	0.619178	-0.906449	-0.195430
H38	H	0.509758	-0.790974	-0.195332
H39	H	0.397423	-1.333054	0.360836
H40	H	0.038879	-1.758860	0.375630
N41	N	0.036420	-1.795496	0.631656
H42	H	0.129408	-1.786422	0.693138
H43	H	-0.049171	-1.833129	0.693040
H44	H	0.569069	-1.052066	0.101835
H45	H	-0.104243	-1.636593	0.624083
H46	H	0.397404	-1.333064	0.639023
H47	H	0.557796	-1.058348	-0.105288
H48	H	-0.110463	-1.645642	0.381578
