data_functionalizedCrystal
_audit_creation_method	'MofGen! by Chris Wilmer'
_symmetry_space_group_name_H-M	'P1'
_symmetry_Int_Tables_number	1
_symmetry_cell_setting	triclinic
loop_
_symmetry_equiv_pos_as_xyz
  x,y,z
_cell_length_a	21.295420
_cell_length_b	21.295417
_cell_length_c	19.121175
_cell_angle_alpha	87.588747
_cell_angle_beta	92.457308
_cell_angle_gamma	90.027953
loop_
_atom_site_label
_atom_site_type_symbol
_atom_site_fract_x
_atom_site_fract_y
_atom_site_fract_z
Zn1	Zn	0.977486	-0.265832	0.397106
Zn2	Zn	1.477486	0.234168	0.897106
Zn3	Zn	0.972915	-0.366611	0.279651
Zn4	Zn	1.472915	0.133389	0.779651
Zn5	Zn	0.867735	-0.261357	0.279670
Zn6	Zn	1.367735	0.238643	0.779670
Zn7	Zn	0.872178	-0.371062	0.397060
Zn8	Zn	1.372178	0.128938	0.897060
O9	O	0.922579	-0.316216	0.338372
O10	O	1.422579	0.183784	0.838372
O11	O	1.064969	-0.279211	0.381536
O12	O	1.564969	0.220789	0.881536
O13	O	0.955191	-0.348914	0.181370
O14	O	1.455191	0.151086	0.681370
O15	O	0.882347	-0.173863	0.295276
O16	O	1.382347	0.326137	0.795276
O17	O	1.061611	-0.353253	0.295242
O18	O	1.561611	0.146747	0.795242
O19	O	0.962980	-0.177150	0.381555
O20	O	1.462980	0.322850	0.881555
O21	O	0.877916	-0.271584	0.181384
O22	O	1.377916	0.228416	0.681384
O23	O	0.780235	-0.275900	0.295231
O24	O	1.280235	0.224100	0.795231
O25	O	0.889919	-0.360839	0.495349
O26	O	1.389919	0.139161	0.995349
O27	O	0.783499	-0.356500	0.381477
O28	O	1.283499	0.143500	0.881477
O29	O	0.967288	-0.283527	0.495383
O30	O	1.467288	0.216473	0.995383
O31	O	0.959499	-0.455290	0.295198
O32	O	1.459499	0.044710	0.795198
O33	O	0.885488	-0.458560	0.381458
O34	O	1.385488	0.041440	0.881458
C35	C	0.759026	-0.316198	0.338351
C36	C	1.259026	0.183802	0.838351
C37	C	0.689058	-0.316206	0.338359
C38	C	1.189058	0.183794	0.838359
C39	C	0.191315	-0.358257	0.383236
C40	C	0.691315	0.141743	0.883236
C41	C	0.257058	-0.358256	0.383229
C42	C	0.757058	0.141744	0.883229
C43	C	0.288220	-0.316231	0.338394
C44	C	0.788220	0.183769	0.838394
C45	C	0.253635	-0.274213	0.293550
C46	C	0.753635	0.225787	0.793550
C47	C	0.187894	-0.274219	0.293554
C48	C	0.687894	0.225781	0.793554
N49	N	0.391259	-0.260912	0.333112
N50	N	0.891259	0.239088	0.833112
N51	N	0.453711	-0.260909	0.333113
N52	N	0.953711	0.239091	0.833113
C53	C	0.486294	-0.316213	0.338379
C54	C	0.986294	0.183787	0.838379
N55	N	0.454068	-0.371521	0.343658
N56	N	0.954068	0.128479	0.843658
N57	N	0.391611	-0.371524	0.343661
N58	N	0.891611	0.128476	0.843661
C59	C	0.359505	-0.316220	0.338384
C60	C	0.859505	0.183780	0.838384
C61	C	0.592157	-0.358231	0.383208
C62	C	1.092157	0.141769	0.883208
C63	C	0.657900	-0.358231	0.383196
C64	C	1.157900	0.141769	0.883196
C65	C	0.654476	-0.274183	0.293521
C66	C	1.154476	0.225817	0.793521
C67	C	0.588734	-0.274187	0.293529
C68	C	1.088734	0.225813	0.793529
C69	C	0.557579	-0.316211	0.338377
C70	C	1.057579	0.183789	0.838377
C71	C	0.922497	-0.479766	0.338336
C72	C	1.422497	0.020234	0.838336
C73	C	0.922521	-0.549734	0.338344
C74	C	1.422521	-0.049734	0.838344
C75	C	0.964484	-0.584257	0.383302
C76	C	1.464484	-0.084257	0.883302
C77	C	0.964507	-0.650000	0.383319
C78	C	1.464507	-0.150000	0.883319
C79	C	0.922572	-0.681218	0.338366
C80	C	1.422572	-0.181218	0.838366
C81	C	0.880601	-0.646687	0.293406
C82	C	1.380601	-0.146687	0.793406
C83	C	0.880575	-0.580946	0.293394
C84	C	1.380575	-0.080946	0.793394
N85	N	0.915472	-0.782129	0.276900
N86	N	1.415472	-0.282129	0.776900
N87	N	0.915500	-0.844581	0.276913
N88	N	1.415500	-0.344581	0.776913
C89	C	0.922647	-0.879294	0.338398
C90	C	1.422647	-0.379294	0.838398
N91	N	0.929777	-0.849195	0.399872
N92	N	1.429777	-0.349195	0.899872
N93	N	0.929752	-0.786737	0.399859
N94	N	1.429752	-0.286737	0.899859
C95	C	0.922596	-0.752503	0.338374
C96	C	1.422596	-0.252503	0.838374
C97	C	0.964638	-0.985103	0.383379
C98	C	1.464638	-0.485103	0.883379
C99	C	0.964657	-1.050847	0.383397
C100	C	1.464657	-0.550847	0.883397
C101	C	0.880753	-1.047533	0.293477
C102	C	1.380753	-0.547533	0.793477
C103	C	0.880732	-0.981790	0.293465
C104	C	1.380732	-0.481790	0.793465
C105	C	0.922677	-0.950579	0.338414
C106	C	1.422677	-0.450579	0.838414
C107	C	1.086770	-0.316234	0.338392
C108	C	1.586770	0.183766	0.838392
C109	C	1.156738	-0.316242	0.338401
C110	C	1.656738	0.183758	0.838401
C111	C	0.929609	-0.323178	0.521562
C112	C	1.429609	0.176822	1.021562
C113	C	0.932605	-0.326145	0.599627
C114	C	1.432605	0.173855	1.099627
C115	C	0.922678	-0.152027	0.338423
C116	C	1.422678	0.347973	0.838423
C117	C	0.922721	-0.082060	0.338444
C118	C	1.422721	0.417940	0.838444
C119	C	0.915612	-0.309235	0.155894
C120	C	1.415612	0.190765	0.655894
C121	C	0.912738	-0.306090	0.077829
C122	C	1.412738	0.193910	0.577829
C123	C	0.893781	-0.287279	0.636309
C124	C	1.393781	0.212721	1.136309
C125	C	0.896594	-0.290072	0.709660
C126	C	1.396594	0.209928	1.209660
C127	C	0.938234	-0.331729	0.746327
C128	C	1.438234	0.168271	1.246327
C129	C	0.977059	-0.370600	0.709639
C130	C	1.477059	0.129400	1.209639
C131	C	0.974243	-0.367809	0.636290
C132	C	1.474243	0.132191	1.136290
C133	C	0.948747	-0.342171	0.967793
C134	C	1.448747	0.157829	1.467793
C135	C	0.951562	-0.344957	1.041147
C136	C	1.451562	0.155043	1.541147
C137	C	0.871095	-0.264430	1.041162
C138	C	1.371095	0.235570	1.541162
C139	C	0.868285	-0.261640	0.967812
C140	C	1.368285	0.238360	1.467812
C141	C	0.907108	-0.300514	0.931131
C142	C	1.407108	0.199486	1.431131
C143	C	0.941111	-0.334583	0.821302
C144	C	1.441111	0.165417	1.321302
C145	C	0.904227	-0.297662	0.856156
C146	C	1.404227	0.202338	1.356156
H147	H	0.998674	-0.678114	0.419938
H148	H	1.498674	-0.178114	0.919938
O149	O	0.154231	-0.233383	0.250093
O150	O	0.654231	0.266617	0.750093
C151	C	0.079697	-0.148025	0.240805
C152	C	0.579697	0.351975	0.740805
C153	C	0.117778	-0.194239	0.290104
C154	C	0.617778	0.305761	0.790104
H155	H	0.050225	-0.116355	0.273134
H156	H	0.550225	0.383645	0.773134
H157	H	0.047451	-0.175460	0.204046
H158	H	0.547451	0.324540	0.704046
H159	H	0.113265	-0.118016	0.208731
H160	H	0.613265	0.381984	0.708731
H161	H	0.084258	-0.224259	0.322223
H162	H	0.584258	0.275741	0.822223
H163	H	0.150032	-0.166765	0.326817
H164	H	0.650032	0.333235	0.826817
H165	H	0.870322	-0.263747	0.826299
H166	H	1.370322	0.236253	1.326299
H167	H	0.566789	-0.392449	0.419725
H168	H	1.066789	0.107551	0.919725
O169	O	0.853275	-0.246798	0.600803
O170	O	1.353275	0.253202	1.100803
C171	C	0.773782	-0.167200	0.608568
C172	C	1.273782	0.332800	1.108568
C173	C	0.819619	-0.213025	0.648863
C174	C	1.319619	0.286975	1.148863
H175	H	0.746568	-0.139873	0.647407
H176	H	1.246568	0.360127	1.147407
H177	H	0.739490	-0.194763	0.574234
H178	H	1.239490	0.305237	1.074234
H179	H	0.801391	-0.133007	0.574222
H180	H	1.301391	0.366993	1.074222
H181	H	0.792062	-0.247228	0.683247
H182	H	1.292062	0.252772	1.183247
H183	H	0.853912	-0.185422	0.683153
H184	H	1.353912	0.314578	1.183153
H185	H	0.998638	-0.558847	0.419905
H186	H	1.498638	-0.058847	0.919905
O187	O	0.684840	-0.233382	0.250032
O188	O	1.184840	0.266618	0.750032
C189	C	0.784599	-0.196155	0.210247
C190	C	1.284599	0.303845	0.710247
C191	C	0.750289	-0.242383	0.259550
C192	C	1.250289	0.257617	0.759550
H193	H	0.837520	-0.203424	0.217914
H194	H	1.337520	0.296576	0.717914
H195	H	0.772222	-0.145872	0.222682
H196	H	1.272222	0.354128	0.722682
H197	H	0.769446	-0.204975	0.153602
H198	H	1.269446	0.295025	0.653602
H199	H	0.765423	-0.233619	0.316211
H200	H	1.265423	0.266381	0.816211
H201	H	0.762667	-0.292650	0.247054
H202	H	1.262667	0.207350	0.747054
O203	O	0.283803	-0.233368	0.249930
O204	O	0.783803	0.266632	0.749930
C205	C	0.273472	-0.149986	0.161008
C206	C	0.773472	0.350014	0.661008
C207	C	0.239227	-0.196218	0.210367
C208	C	0.739227	0.303782	0.710367
H209	H	0.237448	-0.119929	0.129020
H210	H	0.737448	0.380071	0.629020
H211	H	0.302802	-0.177408	0.124180
H212	H	0.802802	0.322592	0.624180
H213	H	0.305525	-0.118365	0.193326
H214	H	0.805525	0.381635	0.693326
H215	H	0.207142	-0.227850	0.178106
H216	H	0.707142	0.272150	0.678106
H217	H	0.209936	-0.168757	0.247197
H218	H	0.709936	0.331243	0.747197
H219	H	0.846605	-1.072949	0.256880
H220	H	1.346605	-0.572949	0.756880
H221	H	1.010960	-0.404521	0.739500
H222	H	1.510960	0.095479	1.239500
H223	H	0.846456	-0.672109	0.256806
H224	H	1.346456	-0.172109	0.756806
O225	O	0.839951	-0.948345	0.249719
O226	O	1.339951	-0.448345	0.749719
C227	C	0.756711	-0.951999	0.160561
C228	C	1.256711	-0.451999	0.660561
C229	C	0.802875	-0.989950	0.210056
C230	C	1.302875	-0.489950	0.710056
H231	H	0.726714	-0.985621	0.128490
H232	H	1.226714	-0.485621	0.628490
H233	H	0.784188	-0.919831	0.123815
H234	H	1.284188	-0.419831	0.623815
H235	H	0.725024	-0.922443	0.192776
H236	H	1.225024	-0.422443	0.692776
H237	H	0.834573	-1.019543	0.177897
H238	H	1.334573	-0.519543	0.677897
H239	H	0.775359	-1.022079	0.246804
H240	H	1.275359	-0.522079	0.746804
O241	O	1.011928	-0.405655	0.600731
O242	O	1.511928	0.094345	1.100731
C243	C	1.041521	-0.511884	0.578220
C244	C	1.541521	-0.011884	1.078220
C245	C	0.998819	-0.469092	0.618547
C246	C	1.498819	0.030908	1.118547
H247	H	1.030929	-0.563182	0.592598
H248	H	1.530929	-0.063182	1.092598
H249	H	1.092853	-0.501440	0.592661
H250	H	1.592853	-0.001440	1.092661
H251	H	1.032364	-0.502703	0.519502
H252	H	1.532364	-0.002703	1.019502
H253	H	1.007921	-0.478249	0.677274
H254	H	1.507921	0.021751	1.177274
H255	H	0.947502	-0.479545	0.604048
H256	H	1.447502	0.020455	1.104048
H257	H	0.686052	-0.392449	0.419704
H258	H	1.186052	0.107551	0.919704
H259	H	0.560581	-0.239972	0.257022
H260	H	1.060581	0.260028	0.757022
O261	O	1.005362	-1.084481	0.427050
O262	O	1.505362	-0.584481	0.927050
C263	C	1.042612	-1.187226	0.466889
C264	C	1.542612	-0.687226	0.966889
C265	C	0.996470	-1.149213	0.417428
C266	C	1.496470	-0.649213	0.917428
H267	H	1.035447	-1.239569	0.459116
H268	H	1.535447	-0.739569	0.959116
H269	H	1.033689	-1.176485	0.523524
H270	H	1.533689	-0.676485	1.023524
H271	H	1.092896	-1.173759	0.454607
H272	H	1.592896	-0.673759	0.954607
H273	H	0.946168	-1.162659	0.429646
H274	H	1.446168	-0.662659	0.929646
H275	H	1.005447	-1.159958	0.360808
H276	H	1.505447	-0.659958	0.860808
H277	H	0.846402	-0.552837	0.256784
H278	H	1.346402	-0.052837	0.756784
O279	O	0.986530	-0.379947	0.932276
O280	O	1.486530	0.120053	1.432276
C281	C	1.066625	-0.460126	0.940008
C282	C	1.566625	0.039874	1.440008
C283	C	1.023877	-0.417372	0.980322
C284	C	1.523877	0.082628	1.480322
H285	H	1.096822	-0.490404	0.978836
H286	H	1.596822	0.009596	1.478836
H287	H	1.098281	-0.429950	0.905704
H288	H	1.598281	0.070050	1.405704
H289	H	1.036383	-0.491708	0.905632
H290	H	1.536383	0.008292	1.405632
H291	H	1.054070	-0.385782	1.014736
H292	H	1.554070	0.114218	1.514736
H293	H	0.992217	-0.447585	1.014582
H294	H	1.492217	0.052415	1.514582
H295	H	0.998791	-0.959690	0.419982
H296	H	1.498791	-0.459690	0.919982
H297	H	0.285216	-0.392470	0.419741
H298	H	0.785216	0.107530	0.919741
O299	O	0.858807	-0.252411	0.745317
O300	O	1.358807	0.247589	1.245317
C301	C	0.777008	-0.247092	0.828133
C302	C	1.277008	0.252908	1.328133
C303	C	0.819763	-0.289815	0.787787
C304	C	1.319763	0.210185	1.287787
H305	H	0.745440	-0.277315	0.862490
H306	H	1.245440	0.222685	1.362490
H307	H	0.746722	-0.216856	0.789351
H308	H	1.246722	0.283144	1.289351
H309	H	0.807248	-0.215469	0.862464
H310	H	1.307248	0.284531	1.362464
H311	H	0.789572	-0.321476	0.753455
H312	H	1.289572	0.178524	1.253455
H313	H	0.850053	-0.320008	0.826607
H314	H	1.350053	0.179992	1.326607
O315	O	0.833356	-0.226612	1.076686
O316	O	1.333356	0.273388	1.576686
C317	C	0.753214	-0.146479	1.068958
C318	C	1.253214	0.353521	1.568958
C319	C	0.795933	-0.189261	1.028642
C320	C	1.295933	0.310739	1.528642
H321	H	0.722937	-0.116279	1.030133
H322	H	1.222937	0.383721	1.530133
H323	H	0.783419	-0.114829	1.103295
H324	H	1.283419	0.385171	1.603295
H325	H	0.721628	-0.176694	1.103303
H326	H	1.221628	0.323306	1.603303
H327	H	0.827527	-0.159095	0.994259
H328	H	1.327527	0.340905	1.494259
H329	H	0.765690	-0.220915	0.994350
H330	H	1.265690	0.279085	1.494350
O331	O	0.992074	-0.385342	1.076802
O332	O	1.492074	0.114658	1.576802
C333	C	1.080201	-0.396982	1.159668
C334	C	1.580201	0.103018	1.659668
C335	C	1.034378	-0.351180	1.119318
C336	C	1.534378	0.148820	1.619318
H337	H	1.114407	-0.369382	1.194063
H338	H	1.614407	0.130618	1.694063
H339	H	1.107513	-0.424283	1.120888
H340	H	1.607513	0.075717	1.620888
H341	H	1.052573	-0.431202	1.193962
H342	H	1.552573	0.068798	1.693962
H343	H	1.061958	-0.316922	1.085023
H344	H	1.561958	0.183078	1.585023
H345	H	1.007065	-0.323925	1.158135
H346	H	1.507065	0.176075	1.658135
O347	O	0.827922	-0.221111	0.932161
O348	O	1.327922	0.278889	1.432161
C349	C	0.816325	-0.133002	0.849336
C350	C	1.316325	0.366998	1.349336
C351	C	0.862105	-0.178852	0.889681
C352	C	1.362105	0.321148	1.389681
H353	H	0.843943	-0.098833	0.814970
H354	H	1.343943	0.401167	1.314970
H355	H	0.789066	-0.105653	0.888119
H356	H	1.289066	0.394347	1.388119
H357	H	0.782066	-0.160611	0.815014
H358	H	1.282066	0.339389	1.315014
H359	H	0.896402	-0.151293	0.924004
H360	H	1.396402	0.348707	1.424004
H361	H	0.889319	-0.206202	0.850860
H362	H	1.389319	0.293798	1.350860
O363	O	0.161150	-0.399145	0.426812
O364	O	0.661150	0.100855	0.926812
C365	C	0.171487	-0.482489	0.515777
C366	C	0.671487	0.017511	1.015777
C367	C	0.205731	-0.436223	0.466456
C368	C	0.705731	0.063777	0.966456
H369	H	0.207516	-0.512470	0.547852
H370	H	0.707516	-0.012470	1.047852
H371	H	0.139474	-0.514178	0.483496
H372	H	0.639474	-0.014178	0.983496
H373	H	0.142115	-0.455033	0.552532
H374	H	0.642115	0.044967	1.052532
H375	H	0.235137	-0.463628	0.429691
H376	H	0.735137	0.036372	0.929691
H377	H	0.237706	-0.404534	0.498781
H378	H	0.737706	0.095466	0.998781
H379	H	0.975014	-0.368501	0.851165
H380	H	1.475014	0.131499	1.351165
