data_functionalizedCrystal
_audit_creation_method	'MofGen! by Chris Wilmer'
_symmetry_space_group_name_H-M	'P1'
_symmetry_Int_Tables_number	1
_symmetry_cell_setting	triclinic
loop_
_symmetry_equiv_pos_as_xyz
  x,y,z
_cell_length_a	14.853558
_cell_length_b	14.853559
_cell_length_c	16.053802
_cell_angle_alpha	92.571272
_cell_angle_beta	87.415772
_cell_angle_gamma	83.631294
loop_
_atom_site_label
_atom_site_type_symbol
_atom_site_fract_x
_atom_site_fract_y
_atom_site_fract_z
O1	O	1.200164	0.113874	-0.069415
O2	O	0.937703	0.127904	-0.069418
O3	O	1.075949	-0.010341	-0.069416
O4	O	1.061919	0.252120	-0.069418
O5	O	1.068339	-0.002763	0.069443
O6	O	0.930094	0.135482	0.069440
O7	O	1.192555	0.121452	0.069444
Zn8	Zn	1.060116	0.129671	0.091489
Zn9	Zn	1.070142	0.119686	-0.091463
O10	O	1.054310	0.259698	0.069441
C11	C	0.900310	0.131059	0.000011
C12	C	0.800226	0.129159	0.000009
C13	C	0.757354	0.124136	-0.075686
C14	C	0.749056	0.132388	0.075703
C15	C	0.655022	0.130597	0.075705
C16	C	0.612150	0.125575	0.000010
C17	C	0.663312	0.122343	-0.075687
C18	C	0.603855	0.133820	0.151400
C19	C	0.509816	0.132028	0.151404
C20	C	0.466941	0.127012	0.075708
C21	C	0.518108	0.123782	0.000009
C22	C	0.475236	0.118759	-0.075686
C23	C	0.526401	0.115535	-0.151387
C24	C	0.620437	0.117327	-0.151383
C25	C	0.372905	0.125220	0.075704
C26	C	0.381194	0.116966	-0.075687
C27	C	1.071510	-0.040141	0.000012
C28	C	1.069609	-0.140225	0.000007
C29	C	1.065693	-0.567531	-0.075685
C30	C	1.057397	-0.559264	0.075704
C31	C	1.059190	-0.465230	0.075705
C32	C	1.064234	-0.422343	0.000010
C33	C	1.067484	-0.473489	-0.075686
C34	C	1.055931	-0.414077	0.151400
C35	C	1.057723	-0.320037	0.151404
C36	C	1.062774	-0.277149	0.075707
C37	C	1.066025	-0.328301	0.000008
C38	C	1.071068	-0.285413	-0.075687
C39	C	1.074326	-0.336564	-0.151387
C40	C	1.072534	-0.430600	-0.151383
C41	C	1.064566	-0.183113	0.075703
C42	C	1.072859	-0.191371	-0.075689
C43	C	1.229948	0.118298	0.000013
C44	C	1.330033	0.120198	0.000009
C45	C	1.058749	0.289498	0.000011
C46	C	1.060650	0.389582	0.000011
N47	N	1.053281	0.136484	0.216349
N48	N	1.076985	0.112866	-0.216324
C49	C	1.112126	0.077681	0.260044
C50	C	1.107352	0.082456	0.347451
C51	C	1.043738	0.146039	0.391161
C52	C	0.984886	0.204844	0.347460
C53	C	0.989656	0.200064	0.260055
C54	C	1.022903	0.166891	0.652570
C55	C	1.018140	0.171668	0.739981
C56	C	1.140605	0.049279	0.739966
C57	C	1.145373	0.044509	0.652560
C58	C	1.086518	0.103311	0.608866
N59	N	1.038859	0.150922	0.480504
N60	N	1.091393	0.098422	0.519524
H61	H	0.491483	0.111441	-0.213018
N62	N	0.675621	0.113844	-0.233025
H63	H	0.741698	0.115736	-0.221536
H64	H	0.668236	0.055883	-0.266079
H65	H	1.061893	-0.141467	0.137337
H66	H	1.075186	-0.472255	-0.213014
H67	H	0.468165	0.134653	0.213044
H68	H	0.966334	0.223448	0.775566
H69	H	0.941737	0.247946	0.224479
N70	N	0.812530	0.120662	-0.157332
H71	H	0.878608	0.122562	-0.145850
H72	H	0.805148	0.062701	-0.190388
H73	H	1.188521	0.001404	0.775550
H74	H	0.331250	0.127854	0.137338
H75	H	1.053285	-0.594188	0.137332
H76	H	0.783969	0.136469	0.137331
N77	N	0.650092	0.139236	0.233037
H78	H	0.717426	0.139890	0.221550
H79	H	0.624596	0.196568	0.266093
H80	H	1.076971	-0.156460	-0.137330
N81	N	1.079679	-0.290292	-0.233029
H82	H	1.080287	-0.222956	-0.221537
H83	H	1.137000	-0.315735	-0.266135
N84	N	1.069214	-0.622693	-0.157330
H85	H	1.067318	-0.688774	-0.145848
H86	H	1.015494	-0.600819	-0.190387
N87	N	1.050513	-0.460333	0.233038
H88	H	1.049887	-0.527668	0.221551
H89	H	1.104867	-0.449323	0.266077
H90	H	1.163931	0.025910	0.224461
H91	H	1.055074	-0.278398	0.213043
H92	H	1.155268	0.034574	0.383027
N93	N	0.916279	0.273427	0.394602
H94	H	0.879724	0.309953	0.353656
H95	H	0.874405	0.240827	0.430882
N96	N	0.334955	0.111554	-0.157331
H97	H	0.381639	0.109784	-0.205282
H98	H	0.303368	0.054784	-0.160634
H99	H	1.197173	-0.007265	0.616973
N100	N	0.959440	0.230326	0.605453
H101	H	0.972109	0.217655	0.543449
H102	H	0.894640	0.220638	0.620747
