data_functionalizedCrystal
_audit_creation_method	'MofGen! by Chris Wilmer'
_symmetry_space_group_name_H-M	'P1'
_symmetry_Int_Tables_number	1
_symmetry_cell_setting	triclinic
loop_
_symmetry_equiv_pos_as_xyz
  x,y,z
_cell_length_a	11.026607
_cell_length_b	9.482900
_cell_length_c	10.654547
_cell_angle_alpha	80.592810
_cell_angle_beta	83.465066
_cell_angle_gamma	78.618164
loop_
_atom_site_label
_atom_site_type_symbol
_atom_site_fract_x
_atom_site_fract_y
_atom_site_fract_z
O1	O	1.595759	0.120887	-0.542241
O2	O	2.095759	0.620887	-0.042241
O3	O	1.241948	0.120890	-0.482246
O4	O	1.741948	0.620890	0.017754
O5	O	1.426990	0.120885	-0.331270
O6	O	1.926990	0.620885	0.168730
O7	O	1.410717	0.120891	-0.693217
O8	O	1.910717	0.620891	-0.193217
O9	O	1.464645	-0.120908	-0.300533
O10	O	1.964645	0.379092	0.199467
O11	O	1.279603	-0.120904	-0.451509
O12	O	1.779603	0.379096	0.048491
O13	O	1.633414	-0.120907	-0.511504
O14	O	2.133414	0.379093	-0.011504
Cu15	Cu	1.459946	-0.142983	-0.478700
Cu16	Cu	1.959946	0.357017	0.021300
Cu17	Cu	1.415415	0.142966	-0.515050
Cu18	Cu	1.915415	0.642966	-0.015050
O19	O	1.448371	-0.120902	-0.662480
O20	O	1.948371	0.379098	-0.162480
C21	C	1.215471	-0.000006	-0.455810
C22	C	1.715471	0.499994	0.044190
C23	C	1.080480	-0.000005	-0.422815
C24	C	1.580480	0.499995	0.077185
N25	N	1.491276	-0.344104	-0.453134
N26	N	1.991276	0.155896	0.046866
N27	N	1.384095	0.344087	-0.540608
N28	N	1.884095	0.844087	-0.040608
C29	C	1.007440	-0.000003	-0.513919
C30	C	1.507440	0.499997	-0.013919
C31	C	0.867918	-0.000001	-0.479820
C32	C	1.367918	0.499999	0.020180
C33	C	1.659890	-0.000007	-0.537941
C34	C	2.159890	0.499993	-0.037941
C35	C	1.794880	0.000001	-0.570937
C36	C	2.294880	0.500001	-0.070937
C37	C	1.450715	0.416284	-0.486249
C38	C	1.950715	0.916284	0.013751
C39	C	1.424647	0.583702	-0.507502
C40	C	1.924647	1.083702	-0.007502
C41	C	1.430738	-0.000005	-0.724906
C42	C	1.930738	0.499995	-0.224906
C43	C	1.434310	-0.000002	-0.865125
C44	C	1.934310	0.499998	-0.365125
C45	C	1.415465	0.131801	-0.947752
C46	C	1.915465	0.631801	-0.447752
C47	C	1.418839	0.131802	-1.079504
C48	C	1.918839	0.631802	-0.579504
C49	C	1.459900	-0.131815	-1.045990
C50	C	1.959900	0.368185	-0.545990
C51	C	1.456535	-0.131814	-0.914241
C52	C	1.956535	0.368186	-0.414241
C53	C	1.444623	-0.000009	-0.268845
C54	C	1.944623	0.499991	0.231155
C55	C	1.441049	-0.000002	-0.128627
C56	C	1.941049	0.499998	0.371373
H57	H	1.048200	-0.000009	-0.617159
H58	H	1.548200	0.499991	-0.117159
F59	F	1.284324	0.425292	-0.622013
F60	F	1.784324	0.925292	-0.122013
F61	F	0.814657	-0.000013	-0.344865
F62	F	1.314657	0.499987	0.155135
F63	F	1.476600	-0.272105	-0.826298
F64	F	1.976600	0.227895	-0.326298
F65	F	1.550498	0.335082	-0.404858
F66	F	2.050498	0.835082	0.095142
H67	H	1.477992	-0.239132	-1.085996
H68	H	1.977992	0.260868	-0.585996
F69	F	1.398784	0.272084	-1.167437
F70	F	1.898784	0.772084	-0.667437
F71	F	1.324870	0.664902	-0.588911
F72	F	1.824870	1.164902	-0.088911
H73	H	0.835633	-0.000007	-0.674184
H74	H	1.335633	0.499993	-0.174184
H75	H	1.567620	0.593770	-0.390862
H76	H	2.067620	1.093770	0.109138
H77	H	1.039715	0.000030	-0.319578
H78	H	1.539715	0.500030	0.180422
F79	F	1.391816	0.272086	-0.895485
F80	F	1.891816	0.772086	-0.395485
