data_functionalizedCrystal
_audit_creation_method	'MofGen! by Chris Wilmer'
_symmetry_space_group_name_H-M	'P1'
_symmetry_Int_Tables_number	1
_symmetry_cell_setting	triclinic
loop_
_symmetry_equiv_pos_as_xyz
  x,y,z
_cell_length_a	8.597278
_cell_length_b	8.559649
_cell_length_c	7.088929
_cell_angle_alpha	95.325015
_cell_angle_beta	76.027249
_cell_angle_gamma	77.625102
loop_
_atom_site_label
_atom_site_type_symbol
_atom_site_fract_x
_atom_site_fract_y
_atom_site_fract_z
O1	O	-0.035739	2.103777	-0.153071
O2	O	0.464261	2.603777	0.346929
O3	O	0.046707	1.638460	-0.166659
O4	O	0.546707	2.138460	0.333341
O5	O	-0.228466	1.884154	-0.121323
O6	O	0.271534	2.384154	0.378677
O7	O	0.239434	1.858083	-0.198406
O8	O	0.739434	2.358083	0.301594
O9	O	-0.265315	1.916989	0.202723
O10	O	0.234685	2.416989	0.702723
O11	O	0.009858	1.671295	0.157387
O12	O	0.509858	2.171295	0.657387
O13	O	-0.072587	2.136612	0.170975
O14	O	0.427413	2.636612	0.670975
Cu15	Cu	-0.034729	1.906951	0.193769
Cu16	Cu	0.465271	2.406951	0.693769
Cu17	Cu	0.008848	1.868120	-0.189453
Cu18	Cu	0.508848	2.368120	0.310547
O19	O	0.202586	1.890918	0.125640
O20	O	0.702586	2.390918	0.625640
C21	C	0.034530	1.595339	-0.005667
C22	C	0.534530	2.095339	0.494333
C23	C	0.053128	1.417933	-0.008733
C24	C	0.553128	1.917933	0.491267
C25	C	-0.306237	1.899600	0.050472
C26	C	0.193763	2.399600	0.550472
C27	C	-0.483068	1.896688	0.079592
C28	C	0.016932	2.396688	0.579592
C29	C	0.280357	1.875471	-0.046160
C30	C	0.780357	2.375471	0.453840
C31	C	0.457190	1.878382	-0.075293
C32	C	0.957190	2.378382	0.424707
C33	C	-0.060411	2.179732	0.009978
C34	C	0.439589	2.679732	0.509978
C35	C	-0.079007	2.357137	0.013032
C36	C	0.420993	2.857137	0.513032
N37	N	-0.065381	1.934274	0.463307
N38	N	0.434619	2.434274	0.963307
N39	N	0.039486	1.840810	-0.458989
N40	N	0.539486	2.340810	0.041011
H41	H	-0.567201	1.910126	0.234479
H42	H	-0.067201	2.410126	0.734479
H43	H	-0.458662	1.864920	-0.230191
H44	H	0.041338	2.364920	0.269809
H45	H	-0.206361	1.440806	0.034003
H46	H	0.293639	1.940806	0.534003
H47	H	0.180493	1.334253	-0.029726
H48	H	0.680493	1.834253	0.470274
H49	H	0.148161	1.743945	0.441461
H50	H	0.648161	2.243945	0.941461
C51	C	-0.212197	2.065143	0.597792
C52	C	0.287803	2.565143	1.097792
H53	H	-0.210100	2.063273	0.730953
H54	H	0.289900	2.563273	1.230953
H55	H	-0.204271	2.168454	0.563752
H56	H	0.295729	2.668454	1.063752
H57	H	-0.312805	2.044413	0.581659
H58	H	0.187195	2.544413	1.081659
