data_functionalizedCrystal
_audit_creation_method	'MofGen! by Chris Wilmer'
_symmetry_space_group_name_H-M	'P1'
_symmetry_Int_Tables_number	1
_symmetry_cell_setting	triclinic
loop_
_symmetry_equiv_pos_as_xyz
  x,y,z
_cell_length_a	16.625547
_cell_length_b	18.050590
_cell_length_c	18.050591
_cell_angle_alpha	90.005734
_cell_angle_beta	90.006494
_cell_angle_gamma	90.018489
loop_
_atom_site_label
_atom_site_type_symbol
_atom_site_fract_x
_atom_site_fract_y
_atom_site_fract_z
Zn1	Zn	1.232557	-0.295837	0.419992
Zn2	Zn	1.232512	-0.419982	0.295800
Zn3	Zn	1.097761	-0.295810	0.295807
Zn4	Zn	1.097698	-0.419989	0.419940
O5	O	1.165132	-0.357905	0.357885
O6	O	1.345383	-0.312313	0.403537
O7	O	1.214645	-0.403496	0.191877
O8	O	1.115687	-0.191889	0.312305
O9	O	1.345350	-0.403522	0.312294
O10	O	1.214721	-0.191909	0.403543
O11	O	1.115644	-0.312268	0.191882
O12	O	0.984921	-0.312275	0.312254
O13	O	1.115579	-0.403535	0.523871
O14	O	0.984874	-0.403509	0.403454
O15	O	1.214659	-0.312320	0.523910
O16	O	1.214584	-0.523908	0.312243
O17	O	1.115536	-0.523913	0.403448
C18	C	0.955641	-0.357890	0.357850
C19	C	0.866020	-0.357902	0.357852
C20	C	0.793238	-0.357903	0.357862
C21	C	0.701929	-0.357907	0.357880
C22	C	0.629153	-0.357914	0.357899
C23	C	0.537838	-0.357919	0.357917
C24	C	1.165070	-0.550857	0.357855
C25	C	1.165117	-0.633403	0.357867
C26	C	1.219091	-0.832823	0.308340
C27	C	1.238765	-0.882183	0.376121
C28	C	1.165163	-0.784533	0.357897
C29	C	1.145571	-0.882255	0.290146
C30	C	1.165209	-0.930518	0.357920
C31	C	1.184874	-0.832805	0.425714
C32	C	1.091647	-0.832873	0.339693
C33	C	1.111292	-0.882210	0.407522
C34	C	1.165139	-0.700435	0.357883
C35	C	1.165233	-1.014615	0.357941
C36	C	1.375441	-0.357920	0.357920
C37	C	1.465062	-0.357926	0.357936
C38	C	1.165117	-0.357931	0.551590
C39	C	1.165111	-0.357943	0.634136
C40	C	1.165216	-0.164199	0.357931
C41	C	1.165252	-0.081653	0.357950
C42	C	1.111224	-0.407538	0.833566
C43	C	1.184779	-0.425707	0.882962
C44	C	1.165114	-0.357932	0.785267
C45	C	1.091565	-0.339788	0.882952
C46	C	1.165111	-0.357924	0.931252
C47	C	1.238707	-0.376136	0.833575
C48	C	1.145444	-0.290186	0.833561
C49	C	1.219049	-0.308329	0.882935
C50	C	1.165115	-0.357939	0.701168
C51	C	1.165119	-0.357917	1.015348
C52	C	1.165133	-0.357902	1.164933
C53	C	1.165116	-0.357911	1.082387
H54	H	1.264712	-0.811138	0.266474
H55	H	1.065709	-0.449524	0.811890
H56	H	1.201402	-0.811176	0.483069
H57	H	1.128781	-0.232914	0.811845
H58	H	1.128982	-0.903976	0.232841
H59	H	1.300924	-0.391544	0.811977
H60	H	1.029367	-0.324445	0.904642
H61	H	1.264673	-0.266375	0.904475
H62	H	1.201420	-0.482996	0.904661
H63	H	1.065707	-0.903758	0.449489
H64	H	1.029474	-0.811196	0.324262
H65	H	1.300956	-0.903844	0.391532
