data_functionalizedCrystal
_audit_creation_method	'MofGen! by Chris Wilmer'
_symmetry_space_group_name_H-M	'P1'
_symmetry_Int_Tables_number	1
_symmetry_cell_setting	triclinic
loop_
_symmetry_equiv_pos_as_xyz
  x,y,z
_cell_length_a	21.295420
_cell_length_b	21.295417
_cell_length_c	19.120904
_cell_angle_alpha	92.408338
_cell_angle_beta	92.422698
_cell_angle_gamma	90.028757
loop_
_atom_site_label
_atom_site_type_symbol
_atom_site_fract_x
_atom_site_fract_y
_atom_site_fract_z
Zn1	Zn	0.947123	-0.265835	-0.397096
Zn2	Zn	0.951531	-0.366613	-0.279640
Zn3	Zn	0.846351	-0.261359	-0.279662
Zn4	Zn	0.841817	-0.371065	-0.397048
O5	O	0.896705	-0.316218	-0.338361
O6	O	1.035796	-0.279213	-0.381526
O7	O	0.941320	-0.348915	-0.181361
O8	O	0.859771	-0.173865	-0.295269
O9	O	1.039035	-0.353254	-0.295232
O10	O	0.933807	-0.177153	-0.381547
O11	O	0.864045	-0.271585	-0.181377
O12	O	0.757660	-0.275902	-0.295222
O13	O	0.852044	-0.360842	-0.495336
O14	O	0.754329	-0.356503	-0.381465
O15	O	0.929411	-0.283530	-0.495372
O16	O	0.936924	-0.455292	-0.295185
O17	O	0.856318	-0.458563	-0.381444
C18	C	0.733154	-0.316200	-0.338341
C19	C	0.663186	-0.316208	-0.338349
C20	C	0.162011	-0.358259	-0.383224
C21	C	0.227754	-0.358259	-0.383217
C22	C	0.262345	-0.316233	-0.338383
C23	C	0.231189	-0.274215	-0.293541
C24	C	0.165447	-0.274221	-0.293545
N25	N	0.365788	-0.260915	-0.333103
N26	N	0.428240	-0.260911	-0.333104
C27	C	0.460420	-0.316215	-0.338368
N28	N	0.427790	-0.371524	-0.343646
N29	N	0.365333	-0.371526	-0.343649
C30	C	0.333631	-0.316223	-0.338374
C31	C	0.562855	-0.358233	-0.383197
C32	C	0.628599	-0.358234	-0.383184
C33	C	0.632033	-0.274185	-0.293512
C34	C	0.566290	-0.274189	-0.293520
C35	C	0.531705	-0.316213	-0.338367
C36	C	0.896624	-0.479768	-0.338322
C37	C	0.896646	-0.549737	-0.338329
C38	C	0.938652	-0.580881	-0.293460
C39	C	0.938681	-0.646624	-0.293476
C40	C	0.896693	-0.681220	-0.338354
C41	C	0.854684	-0.650068	-0.383231
C42	C	0.854661	-0.584326	-0.383219
N43	N	0.841421	-0.784689	-0.343701
N44	N	0.841445	-0.847140	-0.343708
C45	C	0.896762	-0.879296	-0.338394
N46	N	0.952056	-0.846641	-0.333058
N47	N	0.952031	-0.784183	-0.333047
C48	C	0.896714	-0.752506	-0.338372
C49	C	0.938802	-0.981727	-0.293540
C50	C	0.938832	-1.047471	-0.293560
C51	C	0.854830	-1.050914	-0.383312
C52	C	0.854806	-0.985171	-0.383295
C53	C	0.896791	-0.950581	-0.338405
C54	C	1.060895	-0.316236	-0.338382
C55	C	1.130862	-0.316244	-0.338391
C56	C	0.889730	-0.323182	-0.521550
C57	C	0.886758	-0.326150	-0.599614
C58	C	0.896803	-0.152030	-0.338416
C59	C	0.896845	-0.082063	-0.338439
C60	C	0.925641	-0.287293	-0.636308
C61	C	0.922840	-0.290080	-0.709658
C62	C	0.881160	-0.331725	-0.746311
C63	C	0.842273	-0.370583	-0.709612
C64	C	0.845071	-0.367794	-0.636264
C65	C	0.870694	-0.342159	-0.967774
C66	C	0.867901	-0.344947	-1.041128
C67	C	0.948468	-0.264442	-1.041168
C68	C	0.951264	-0.261659	-0.967818
C69	C	0.912375	-0.300514	-0.931126
C70	C	0.878298	-0.334576	-0.821286
C71	C	0.915235	-0.297661	-0.856152
C72	C	0.903689	-0.309236	-0.155885
C73	C	0.906784	-0.306091	-0.077822
H74	H	0.259357	-0.239998	-0.257036
H75	H	0.820646	-1.079081	-0.419855
H76	H	0.534695	-0.392452	-0.419712
H77	H	0.972991	-0.953563	-0.256990
Br78	Br	0.995851	-1.089740	-0.232668
H79	H	0.972840	-0.552720	-0.256910
Br80	Br	1.007835	-0.205139	-0.918079
H81	H	0.839037	-0.373807	-0.937908
H82	H	0.980128	-0.232807	-1.071051
Br83	Br	0.524013	-0.217162	-0.232676
Br84	Br	0.811329	-0.401468	-1.090872
H85	H	0.660196	-0.239968	-0.257005
Br86	Br	0.797705	-0.697018	-0.444142
H87	H	0.808333	-0.404490	-0.739462
H88	H	0.140086	-0.240005	-0.257035
H89	H	0.820599	-0.959811	-0.419828
H90	H	0.820454	-0.558968	-0.419758
Br91	Br	0.982215	-0.230776	-0.586571
Br92	Br	0.975641	-0.237373	-0.759454
Br93	Br	0.792295	-0.420525	-0.586464
Br94	Br	0.821734	-0.391095	-0.871037
H95	H	0.133856	-0.392480	-0.419739
H96	H	0.949168	-0.263750	-0.826305
H97	H	0.653960	-0.392452	-0.419691
H98	H	0.253120	-0.392473	-0.419728
H99	H	0.972889	-0.671987	-0.256939
