data_functionalizedCrystal
_audit_creation_method	'MofGen! by Chris Wilmer'
_symmetry_space_group_name_H-M	'P1'
_symmetry_Int_Tables_number	1
_symmetry_cell_setting	triclinic
loop_
_symmetry_equiv_pos_as_xyz
  x,y,z
_cell_length_a	15.297475
_cell_length_b	16.959454
_cell_length_c	15.296720
_cell_angle_alpha	80.351722
_cell_angle_beta	88.382886
_cell_angle_gamma	80.323279
loop_
_atom_site_label
_atom_site_type_symbol
_atom_site_fract_x
_atom_site_fract_y
_atom_site_fract_z
Zn1	Zn	1.253421	-0.615181	0.726635
Zn2	Zn	1.753421	-0.115181	1.226635
Zn3	Zn	1.278688	-0.729000	0.580157
Zn4	Zn	1.778688	-0.229000	1.080157
Zn5	Zn	1.132298	-0.570776	0.554873
Zn6	Zn	1.632298	-0.070776	1.054873
Zn7	Zn	1.106914	-0.721230	0.701285
Zn8	Zn	1.606914	-0.221230	1.201285
O9	O	1.192830	-0.659047	0.640738
O10	O	1.692830	-0.159047	1.140738
O11	O	1.379352	-0.652115	0.728395
O12	O	1.879352	-0.152115	1.228395
O13	O	1.280466	-0.692679	0.454228
O14	O	1.780466	-0.192679	0.954228
O15	O	1.148414	-0.466067	0.577685
O16	O	1.648414	0.033933	1.077685
O17	O	1.397915	-0.735737	0.620778
O18	O	1.897915	-0.235737	1.120778
O19	O	1.237403	-0.498691	0.703878
O20	O	1.737403	0.001309	1.203878
O21	O	1.172914	-0.576432	0.435651
O22	O	1.672914	-0.076432	0.935651
O23	O	1.006352	-0.568898	0.553104
O24	O	1.506352	-0.068898	1.053104
O25	O	1.105151	-0.722495	0.827223
O26	O	1.605151	-0.222495	1.327223
O27	O	0.987702	-0.679437	0.660673
O28	O	1.487702	-0.179437	1.160673
O29	O	1.212790	-0.644581	0.845848
O30	O	1.712790	-0.144581	1.345848
O31	O	1.255853	-0.838569	0.596198
O32	O	1.755853	-0.338569	1.096198
O33	O	1.129651	-0.832860	0.685190
O34	O	1.629651	-0.332860	1.185190
C35	C	0.965244	-0.618506	0.601395
C36	C	1.465244	-0.118506	1.101395
C37	C	0.867878	-0.601185	0.584584
C38	C	1.367878	-0.101185	1.084584
C39	C	0.554738	-0.782854	0.760885
C40	C	1.054738	-0.282854	1.260885
C41	C	0.646218	-0.799134	0.776677
C42	C	1.146218	-0.299134	1.276677
C43	C	0.701637	-0.749648	0.728655
C44	C	1.201637	-0.249648	1.228655
C45	C	0.665567	-0.683879	0.664839
C46	C	1.165567	-0.183879	1.164839
C47	C	0.574078	-0.667601	0.649041
C48	C	1.074078	-0.167601	1.149041
C49	C	0.720978	-0.634395	0.616811
C50	C	1.220978	-0.134395	1.116811
C51	C	0.684908	-0.568627	0.552995
C52	C	1.184908	-0.068627	1.052995
C53	C	0.593428	-0.552351	0.537200
C54	C	1.093428	-0.052351	1.037200
C55	C	0.538009	-0.601837	0.585221
C56	C	1.038009	-0.101837	1.085221
C57	C	0.812467	-0.650673	0.632609
C58	C	1.312467	-0.150673	1.132609
C59	C	0.831808	-0.535421	0.520765
C60	C	1.331808	-0.035421	1.020765
C61	C	0.740327	-0.519141	0.504973
C62	C	1.240327	-0.019141	1.004973
C63	C	1.192759	-0.864398	0.640710
C64	C	1.692759	-0.364398	1.140710
C65	C	1.192804	-0.952266	0.640741
C66	C	1.692804	-0.452266	1.140741
C67	C	1.127199	-1.320817	0.687084
C68	C	1.627199	-0.820817	1.187084
C69	C	1.258690	-1.326729	0.594523
C70	C	1.758690	-0.826729	1.094523
C71	C	1.258660	-1.244176	0.594509
C72	C	1.758660	-0.744176	1.094509
C73	C	1.192899	-1.199940	0.640783
C74	C	1.692899	-0.699940	1.140783
C75	C	1.127167	-1.238256	0.687070
C76	C	1.627167	-0.738256	1.187070
C77	C	1.324386	-1.205852	0.548216
C78	C	1.824386	-0.705852	1.048216
C79	C	1.324359	-1.123295	0.548200
C80	C	1.824359	-0.623295	1.048200
C81	C	1.258601	-1.079058	0.594479
C82	C	1.758601	-0.579058	1.094479
C83	C	1.192866	-1.117379	0.640769
C84	C	1.692866	-0.617379	1.140769
C85	C	1.127105	-1.073143	0.687042
C86	C	1.627105	-0.573143	1.187042
C87	C	1.061373	-1.111464	0.733338
C88	C	1.561373	-0.611464	1.233338
C89	C	1.061408	-1.194019	0.733349
C90	C	1.561408	-0.694019	1.233349
C91	C	1.258566	-0.996503	0.594468
C92	C	1.758566	-0.496503	1.094468
C93	C	1.127072	-0.990582	0.687028
C94	C	1.627072	-0.490582	1.187028
C95	C	1.421305	-0.699746	0.680234
C96	C	1.921305	-0.199746	1.180234
C97	C	1.518668	-0.717090	0.697066
C98	C	2.018668	-0.217090	1.197066
C99	C	1.153320	-0.687624	0.869207
C100	C	1.653320	-0.187624	1.369207
C101	C	1.136484	-0.699803	0.966567
C102	C	1.636484	-0.199803	1.466567
C103	C	1.192922	-0.452900	0.640788
C104	C	1.692922	0.047100	1.140788
C105	C	1.192961	-0.365053	0.640810
C106	C	1.692961	0.134947	1.140810
C107	C	1.232237	-0.630532	0.413166
C108	C	1.732237	-0.130532	0.913166
C109	C	1.249243	-0.618162	0.315836
C110	C	1.749243	-0.118162	0.815836
C111	C	1.313198	-0.571876	1.279796
C112	C	1.813198	-0.071876	1.779796
C113	C	1.329022	-0.560436	1.188322
C114	C	1.829022	-0.060436	1.688322
C115	C	1.280889	-0.595276	1.132879
C116	C	1.780889	-0.095276	1.632879
C117	C	1.216928	-0.641559	1.168918
C118	C	1.716928	-0.141559	1.668918
C119	C	1.201107	-0.653005	1.260401
C120	C	1.701107	-0.153005	1.760401
C121	C	1.168798	-0.676406	1.113484
C122	C	1.668798	-0.176406	1.613484
C123	C	1.104838	-0.722688	1.149523
C124	C	1.604838	-0.222688	1.649523
C125	C	1.089019	-0.734131	1.240998
C126	C	1.589019	-0.234131	1.740998
C127	C	1.137153	-0.699291	1.296441
C128	C	1.637153	-0.199291	1.796441
C129	C	1.184620	-0.664960	1.022001
C130	C	1.684620	-0.164960	1.522001
C131	C	1.072529	-0.746089	1.002606
C132	C	1.572529	-0.246089	1.502606
C133	C	1.056705	-0.757528	1.094080
C134	C	1.556705	-0.257528	1.594080
H135	H	0.463516	-0.588584	0.572369
H136	H	0.963516	-0.088584	1.072369
N137	N	0.701422	-0.448219	0.436128
N138	N	1.201422	0.051781	0.936128
H139	H	0.635060	-0.445424	0.433406
H140	H	1.135060	0.054576	0.933406
H141	H	0.728225	-0.455463	0.376311
H142	H	1.228225	0.044537	0.876311
H143	H	1.007892	-1.225228	0.771039
H144	H	1.507892	-0.725228	1.271039
N145	N	1.020043	-0.784056	1.279876
N146	N	1.520043	-0.284056	1.779876
H147	H	1.036374	-0.840957	1.266290
H148	H	1.536374	-0.340957	1.766290
H149	H	0.960242	-0.758574	1.253127
H150	H	1.460242	-0.258574	1.753127
N151	N	0.554523	-0.481411	0.468377
N152	N	1.054523	0.018589	0.968377
H153	H	0.488160	-0.478608	0.465658
H154	H	0.988160	0.021392	0.965658
H155	H	0.581317	-0.488631	0.408550
H156	H	1.081317	0.011369	0.908550
H157	H	1.124272	-0.708603	1.370927
H158	H	1.624272	-0.208603	1.870927
H159	H	0.841826	-0.704223	0.684570
H160	H	1.341826	-0.204223	1.184570
H161	H	1.007826	-1.075436	0.771009
H162	H	1.507826	-0.575436	1.271009
N163	N	0.800305	-0.767194	0.745690
N164	N	1.300305	-0.267194	1.245690
H165	H	0.832725	-0.778032	0.689376
H166	H	1.332725	-0.278032	1.189376
H167	H	0.814672	-0.816350	0.793432
H168	H	1.314672	-0.316350	1.293432
H169	H	1.004627	-0.795212	1.123436
H170	H	1.504627	-0.295212	1.623436
N171	N	1.395262	-1.081972	0.498283
N172	N	1.895262	-0.581972	0.998283
H173	H	1.385268	-1.022961	0.505298
H174	H	1.885268	-0.522961	1.005298
H175	H	1.392509	-1.086176	0.433367
H176	H	1.892509	-0.586176	0.933367
N177	N	0.685127	-0.870055	0.845509
N178	N	1.185127	-0.370055	1.345509
H179	H	0.729236	-0.908923	0.816394
H180	H	1.229236	-0.408923	1.316394
H181	H	0.636091	-0.898871	0.873519
H182	H	1.136091	-0.398871	1.373519
N183	N	1.056307	-1.362142	0.737017
N184	N	1.556307	-0.862142	1.237017
H185	H	1.066304	-1.421154	0.730010
H186	H	1.566304	-0.921154	1.230010
H187	H	0.996120	-1.334906	0.712516
H188	H	1.496120	-0.834906	1.212516
N189	N	0.494961	-0.836222	0.812663
N190	N	0.994961	-0.336222	1.312663
H191	H	0.449988	-0.802492	0.846762
H192	H	0.949988	-0.302492	1.346762
H193	H	0.531751	-0.880349	0.855441
H194	H	1.031751	-0.380349	1.355441
N195	N	1.329603	-1.374431	0.544599
N196	N	1.829603	-0.874431	1.044599
H197	H	1.319646	-1.432543	0.551626
H198	H	1.819646	-0.932543	1.051626
H199	H	1.389785	-1.372814	0.569087
H200	H	1.889785	-0.872814	1.069087
N201	N	1.395296	-1.253555	0.498288
N202	N	1.895296	-0.753555	0.998288
H203	H	1.385341	-1.311668	0.505322
H204	H	1.885341	-0.811668	1.005322
H205	H	1.455481	-1.251935	0.522768
H206	H	1.955481	-0.751935	1.022768
N207	N	1.056145	-0.942868	0.736937
N208	N	1.556145	-0.442868	1.236937
H209	H	1.058880	-0.967453	0.801879
H210	H	1.558880	-0.467453	1.301879
H211	H	0.995973	-0.944443	0.712398
H212	H	1.495973	-0.444443	1.212398
N213	N	1.329448	-0.955164	0.544542
N214	N	1.829448	-0.455164	1.044542
H215	H	1.326720	-0.959307	0.479605
H216	H	1.826720	-0.459307	0.979605
H217	H	1.389633	-0.982360	0.569082
H218	H	1.889633	-0.482360	1.069082
H219	H	1.293777	-0.585960	1.058398
H220	H	1.793777	-0.085960	1.558398
N221	N	0.891562	-0.482029	0.468971
N222	N	1.391562	0.017971	0.968971
H223	H	0.886456	-0.483546	0.403610
H224	H	1.386456	0.016454	0.903610
H225	H	0.954962	-0.502343	0.488733
H226	H	1.454962	-0.002343	0.988733
H227	H	1.236696	-0.627275	0.992667
H228	H	1.736696	-0.127275	1.492667
N229	N	1.398004	-0.510524	1.149453
N230	N	1.898004	-0.010524	1.649453
H231	H	1.426095	-0.490188	1.198454
H232	H	1.926095	0.009812	1.698454
H233	H	1.368932	-0.462848	1.105342
H234	H	1.868932	0.037152	1.605342
H235	H	1.033337	-0.774460	0.957464
H236	H	1.533337	-0.274460	1.457464
H237	H	1.352386	-0.543519	1.324946
H238	H	1.852386	-0.043519	1.824946
