data_functionalizedCrystal
_audit_creation_method	'MofGen! by Chris Wilmer'
_symmetry_space_group_name_H-M	'P1'
_symmetry_Int_Tables_number	1
_symmetry_cell_setting	triclinic
loop_
_symmetry_equiv_pos_as_xyz
  x,y,z
_cell_length_a	14.519709
_cell_length_b	15.186229
_cell_length_c	16.109304
_cell_angle_alpha	90.003016
_cell_angle_beta	83.571391
_cell_angle_gamma	89.994892
loop_
_atom_site_label
_atom_site_type_symbol
_atom_site_fract_x
_atom_site_fract_y
_atom_site_fract_z
O1	O	1.223631	0.073108	0.108987
O2	O	1.556964	0.406442	0.442320
O3	O	1.890298	0.739775	0.775654
O4	O	0.955127	0.073135	0.121822
O5	O	1.288460	0.406468	0.455155
O6	O	1.621794	0.739801	0.788488
O7	O	1.096754	0.073121	-0.005614
O8	O	1.430087	0.406454	0.327720
O9	O	1.763420	0.739788	0.661053
O10	O	1.082004	0.073122	0.236422
O11	O	1.415338	0.406455	0.569756
O12	O	1.748671	0.739788	0.903089
O13	O	1.096753	-0.073336	-0.005621
O14	O	1.430086	0.259997	0.327712
O15	O	1.763419	0.593331	0.661045
O16	O	0.955126	-0.073323	0.121814
O17	O	1.288459	0.260011	0.455147
O18	O	1.621792	0.593344	0.788481
O19	O	1.223630	-0.073349	0.108979
O20	O	1.556963	0.259984	0.442313
O21	O	1.890297	0.593318	0.775646
Zn22	Zn	1.089378	-0.096589	0.115395
Zn23	Zn	1.422711	0.236744	0.448729
Zn24	Zn	1.756044	0.570078	0.782062
Zn25	Zn	1.089379	0.096375	0.115406
Zn26	Zn	1.422712	0.429708	0.448739
Zn27	Zn	1.756046	0.763041	0.782072
O28	O	1.082003	-0.073336	0.236415
O29	O	1.415337	0.259998	0.569748
O30	O	1.748670	0.593331	0.903081
C31	C	0.920768	-0.000091	0.121220
C32	C	1.254101	0.333243	0.454553
C33	C	1.587435	0.666576	0.787886
C34	C	0.818390	-0.000080	0.119427
C35	C	1.151724	0.333253	0.452761
C36	C	1.485057	0.666586	0.786094
N37	N	1.089383	-0.228282	0.115388
N38	N	1.422717	0.105052	0.448721
N39	N	1.756050	0.438385	0.782055
N40	N	1.089381	0.228067	0.115406
N41	N	1.422714	0.561401	0.448740
N42	N	1.756047	0.894734	0.782073
C43	C	0.443509	-0.000121	0.112829
C44	C	0.776842	0.333213	0.446162
C45	C	1.110175	0.666546	0.779495
C46	C	0.547813	-0.000109	0.114661
C47	C	0.881146	0.333224	0.447994
C48	C	1.214479	0.666558	0.781328
C49	C	0.630946	-0.000100	0.116128
C50	C	0.964280	0.333234	0.449461
C51	C	1.297613	0.666567	0.782794
C52	C	0.735257	-0.000090	0.117961
C53	C	1.068590	0.333243	0.451294
C54	C	1.401924	0.666577	0.784627
C55	C	1.257989	-0.000122	0.109581
C56	C	1.591322	0.333211	0.442915
C57	C	1.924656	0.666545	0.776248
C58	C	1.360366	-0.000126	0.111374
C59	C	1.693700	0.333207	0.444707
C60	C	2.027033	0.666540	0.778041
C61	C	1.096155	-0.000105	-0.036593
C62	C	1.429489	0.333228	0.296740
C63	C	1.762822	0.666561	0.630073
C64	C	1.094363	-0.000099	-0.128892
C65	C	1.427696	0.333234	0.204442
C66	C	1.761029	0.666567	0.537775
C67	C	1.152214	0.453784	0.059087
C68	C	1.485547	0.787118	0.392421
C69	C	1.818881	1.120451	0.725754
C70	C	1.152217	0.545974	0.059085
C71	C	1.485550	0.879307	0.392419
C72	C	1.818883	1.212641	0.725752
C73	C	1.026547	0.545995	0.171713
C74	C	1.359880	0.879328	0.505046
C75	C	1.693214	1.212661	0.838380
C76	C	1.026550	0.453807	0.171719
C77	C	1.359883	0.787140	0.505052
C78	C	1.693216	1.120473	0.838385
C79	C	1.089382	0.407704	0.115401
C80	C	1.422715	0.741037	0.448734
C81	C	1.756049	1.074371	0.782068
C82	C	1.089382	0.592082	0.115393
C83	C	1.422716	0.925415	0.448727
C84	C	1.756049	1.258748	0.782060
C85	C	1.089385	0.692038	0.115391
C86	C	1.422718	1.025371	0.448725
C87	C	1.756051	1.358704	0.782058
C88	C	1.089381	0.307741	0.115404
C89	C	1.422714	0.641075	0.448737
C90	C	1.756048	0.974408	0.782071
C91	C	1.090222	0.079732	-0.341232
C92	C	1.423555	0.413065	-0.007899
C93	C	1.756888	0.746398	0.325435
C94	C	1.088529	0.079731	-0.427955
C95	C	1.421862	0.413064	-0.094622
C96	C	1.755196	0.746398	0.238712
C97	C	1.088532	-0.079945	-0.427960
C98	C	1.421866	0.253389	-0.094627
C99	C	1.755199	0.586722	0.238706
C100	C	1.090219	-0.079943	-0.341238
C101	C	1.423552	0.253390	-0.007905
C102	C	1.756885	0.586724	0.325428
C103	C	1.091068	-0.000102	-0.297877
C104	C	1.424401	0.333231	0.035457
C105	C	1.757735	0.666564	0.368790
C106	C	1.087689	-0.000104	-0.471322
C107	C	1.421022	0.333229	-0.137989
C108	C	1.754356	0.666562	0.195345
C109	C	1.085854	-0.000106	-0.565351
C110	C	1.419187	0.333228	-0.232018
C111	C	1.752520	0.666561	0.101316
C112	C	1.092902	-0.000101	-0.203842
C113	C	1.426235	0.333233	0.129492
C114	C	1.759568	0.666566	0.462825
C115	C	1.082602	-0.000107	0.267394
C116	C	1.415935	0.333226	0.600728
C117	C	1.749268	0.666560	0.934061
C118	C	1.084394	-0.000107	0.359693
C119	C	1.417728	0.333226	0.693026
C120	C	1.751061	0.666559	1.026359
H121	H	1.203377	0.416249	0.013232
H122	H	1.536711	0.749583	0.346565
H123	H	1.870044	1.082916	0.679898
C124	C	1.221328	0.596659	-0.002863
C125	C	1.554661	0.929992	0.330470
C126	C	1.887995	1.263325	0.663803
H127	H	1.258741	0.555995	-0.036405
H128	H	1.592075	0.889329	0.296929
H129	H	1.925408	1.222662	0.630262
H130	H	1.259635	0.632622	0.027190
H131	H	1.592968	0.965956	0.360523
H132	H	1.926302	1.299289	0.693856
H133	H	1.188240	0.632618	-0.037608
H134	H	1.521573	0.965951	0.295725
H135	H	1.854907	1.299285	0.629059
H136	H	0.975389	0.583541	0.217564
H137	H	1.308722	0.916874	0.550898
H138	H	1.642056	1.250208	0.884231
C139	C	1.087607	0.167548	-0.475643
C140	C	1.420941	0.500882	-0.142310
C141	C	1.754274	0.834215	0.191023
H142	H	1.088362	0.215095	-0.437397
H143	H	1.421696	0.548429	-0.104063
H144	H	1.755029	0.881762	0.229270
H145	H	1.033203	0.170878	-0.503214
H146	H	1.366536	0.504211	-0.169880
H147	H	1.699870	0.837544	0.163453
H148	H	1.140704	0.170858	-0.515734
H149	H	1.474038	0.504191	-0.182400
H150	H	1.807371	0.837525	0.150933
C151	C	0.957433	0.403111	0.233665
C152	C	1.290767	0.736444	0.566999
C153	C	1.624100	1.069778	0.900332
H154	H	0.966442	0.341605	0.225608
H155	H	1.299776	0.674938	0.558941
H156	H	1.633109	1.008271	0.892274
H157	H	0.895921	0.418217	0.224406
H158	H	1.229255	0.751551	0.557739
H159	H	1.562588	1.084884	0.891073
H160	H	0.967315	0.418225	0.289205
H161	H	1.300649	0.751559	0.622538
H162	H	1.633982	1.084892	0.955872
H163	H	1.090911	0.144743	-0.305929
H164	H	1.424244	0.478077	0.027404
H165	H	1.757577	0.811410	0.360737
H166	H	1.090902	-0.144957	-0.305937
H167	H	1.424236	0.188376	0.027396
H168	H	1.757569	0.521709	0.360730
H169	H	1.087843	-0.144948	-0.463276
H170	H	1.421176	0.188385	-0.129943
H171	H	1.754509	0.521718	0.203390
