data_functionalizedCrystal
_audit_creation_method	'MofGen! by Chris Wilmer'
_symmetry_space_group_name_H-M	'P1'
_symmetry_Int_Tables_number	1
_symmetry_cell_setting	triclinic
loop_
_symmetry_equiv_pos_as_xyz
  x,y,z
_cell_length_a	12.759401
_cell_length_b	12.759399
_cell_length_c	12.759393
_cell_angle_alpha	89.968020
_cell_angle_beta	89.981504
_cell_angle_gamma	90.015277
loop_
_atom_site_label
_atom_site_type_symbol
_atom_site_fract_x
_atom_site_fract_y
_atom_site_fract_z
Zn1	Zn	1.606252	-0.418200	-0.593978
Zn2	Zn	1.606145	-0.593919	-0.418297
Zn3	Zn	1.430554	-0.418255	-0.418318
Zn4	Zn	1.430542	-0.593838	-0.593939
O5	O	1.518373	-0.506053	-0.506133
O6	O	1.753259	-0.441520	-0.570682
O7	O	1.582813	-0.570673	-0.271279
O8	O	1.453911	-0.271227	-0.441645
O9	O	1.753181	-0.570620	-0.441610
O10	O	1.582996	-0.271186	-0.570702
O11	O	1.453807	-0.441614	-0.271294
O12	O	1.283532	-0.441535	-0.441606
O13	O	1.453890	-0.570482	-0.740965
O14	O	1.283522	-0.570536	-0.570634
O15	O	1.582983	-0.441442	-0.740994
O16	O	1.582801	-0.740929	-0.441571
O17	O	1.453786	-0.740870	-0.570614
C18	C	1.245406	-0.506033	-0.506119
C19	C	1.128629	-0.506050	-0.506138
C20	C	1.518309	-0.779020	-0.506109
C21	C	1.518378	-0.895797	-0.506134
C22	C	1.073790	-0.573328	-0.573211
C23	C	0.964066	-0.573342	-0.573223
C24	C	0.964030	-0.438796	-0.439078
C25	C	1.073752	-0.438778	-0.439072
C26	C	1.073810	-0.651010	-0.650656
C27	C	0.964086	-0.651024	-0.650667
C28	C	1.585633	-0.950655	-0.439018
C29	C	1.585700	-1.060379	-0.439053
C30	C	1.451249	-1.060377	-0.573324
C31	C	1.451187	-0.950655	-0.573293
C32	C	1.709709	-1.210258	-0.401662
C33	C	1.776955	-1.265120	-0.334530
C34	C	1.793120	-1.229581	-0.232019
C35	C	1.742023	-1.139183	-0.196620
C36	C	1.674770	-1.084327	-0.263747
C37	C	1.658625	-1.119864	-0.366273
C38	C	1.327177	-0.800774	-0.610673
C39	C	1.259917	-0.745916	-0.677795
C40	C	1.243742	-0.781452	-0.780308
C41	C	1.294820	-0.871854	-0.815703
C42	C	1.362079	-0.926712	-0.748580
C43	C	1.378256	-0.891168	-0.646069
C44	C	1.792407	-0.506073	-0.506148
C45	C	1.909183	-0.506082	-0.506154
C46	C	1.518447	-0.505947	-0.780166
C47	C	1.518478	-0.505902	-0.896943
C48	C	1.518467	-0.232019	-0.506180
C49	C	1.518506	-0.115243	-0.506200
C50	C	1.585707	-0.438704	-0.951822
C51	C	1.585732	-0.438666	-1.061546
C52	C	1.451297	-0.573033	-1.061503
C53	C	1.451267	-0.573064	-0.951781
C54	C	1.663325	-0.361131	-0.951848
C55	C	1.663350	-0.361093	-1.061572
C56	C	1.518361	-0.506083	-0.233166
C57	C	1.518533	-0.505832	-0.116389
H58	H	1.118398	-0.383987	-0.384461
C59	C	1.436678	-0.714319	-1.184854
C60	C	1.377428	-0.646865	-1.121781
H61	H	1.391072	-0.759905	-1.222058
H62	H	1.476707	-0.674292	-1.233240
H63	H	1.482426	-0.754518	-1.142032
H64	H	1.331685	-0.606659	-1.164604
H65	H	1.337381	-0.686896	-1.073389
H66	H	1.396520	-0.627780	-0.907102
H67	H	0.919336	-0.384025	-0.384476
H68	H	1.740597	-0.390300	-0.917812
C69	C	0.862841	-0.754184	-0.530057
C70	C	0.923851	-0.760834	-0.621049
H71	H	0.837999	-0.821974	-0.511778
H72	H	0.904183	-0.727082	-0.474423
H73	H	0.804955	-0.708999	-0.542270
H74	H	0.981741	-0.806014	-0.608834
H75	H	0.882507	-0.787951	-0.676696
C76	C	1.799914	-0.490478	-1.065202
C77	C	1.773186	-0.390518	-1.101793
H78	H	1.867716	-0.508643	-1.090042
H79	H	1.799905	-0.490501	-0.990762
H80	H	1.750255	-0.540085	-1.090005
H81	H	1.822841	-0.340910	-1.076984
H82	H	1.773203	-0.390488	-1.176250
C83	C	0.856417	-0.522984	-0.736822
C84	C	0.918176	-0.611819	-0.755084
H85	H	0.828078	-0.498778	-0.801283
H86	H	0.800968	-0.540473	-0.690303
H87	H	0.898330	-0.469449	-0.706510
H88	H	0.876262	-0.665357	-0.785389
H89	H	0.973633	-0.594335	-0.801620
H90	H	1.634237	-0.283784	-1.095621
C91	C	1.787646	-1.250754	-0.568081
C92	C	1.691953	-1.249324	-0.514350
H93	H	1.776682	-1.274883	-0.637648
H94	H	1.816152	-1.182003	-0.569891
H95	H	1.834998	-1.296364	-0.533152
H96	H	1.644603	-1.203708	-0.549276
H97	H	1.663432	-1.318086	-0.512546
H98	H	1.640345	-0.905992	-0.384334
C99	C	1.829609	-1.167361	-0.032488
C100	C	1.759787	-1.100125	-0.083931
H101	H	1.840581	-1.143240	0.037080
H102	H	1.801092	-1.236108	-0.030682
H103	H	1.894515	-1.168319	-0.068967
H104	H	1.694878	-1.099173	-0.047456
H105	H	1.788301	-1.031360	-0.085731
C106	C	1.616121	-0.184654	-0.997045
C107	C	1.633928	-0.251301	-0.911669
H108	H	1.597965	-0.116855	-0.972237
H109	H	1.677874	-0.180221	-1.038401
H110	H	1.560432	-0.211682	-1.038388
H111	H	1.689622	-0.224277	-0.870329
H112	H	1.572167	-0.255730	-0.870295
H113	H	1.847874	-1.274257	-0.177359
H114	H	1.107823	-0.728262	-0.621371
H115	H	1.103618	-0.629311	-0.732063
C116	C	1.646994	-0.965353	-0.120692
C117	C	1.618611	-0.984963	-0.224852
H118	H	1.612332	-0.904002	-0.096684
H119	H	1.627231	-1.023256	-0.078243
H120	H	1.720670	-0.955483	-0.116516
H121	H	1.544935	-0.994840	-0.229027
H122	H	1.638367	-0.927045	-0.267312
H123	H	1.818558	-1.338722	-0.363361
H124	H	1.218333	-0.672302	-0.648970
C125	C	1.391633	-1.228574	-0.632981
C126	C	1.377384	-1.120682	-0.647131
H127	H	1.346024	-1.265799	-0.678542
H128	H	1.462216	-1.246481	-0.648427
H129	H	1.376305	-1.246613	-0.562378
H130	H	1.392720	-1.102641	-0.717733
H131	H	1.306786	-1.102767	-0.631692
C132	C	1.481423	-1.000972	-0.873673
C133	C	1.418247	-1.026074	-0.787483
H134	H	1.516105	-1.062311	-0.897682
H135	H	1.439050	-0.973404	-0.928313
H136	H	1.531970	-0.950186	-0.853468
H137	H	1.367694	-1.076855	-0.807689
H138	H	1.460623	-1.053657	-0.732831
H139	H	1.281650	-0.900788	-0.899177
H140	H	1.188970	-0.736777	-0.834957
C141	C	1.249274	-0.760307	-0.444231
C142	C	1.344957	-0.761718	-0.497981
H143	H	1.260251	-0.736203	-0.374658
H144	H	1.201917	-0.714698	-0.479133
H145	H	1.220771	-0.829071	-0.442435
H146	H	1.373457	-0.692952	-0.499784
H147	H	1.392331	-0.807328	-0.463070
