data_functionalizedCrystal
_audit_creation_method	'MofGen! by Chris Wilmer'
_symmetry_space_group_name_H-M	'P1'
_symmetry_Int_Tables_number	1
_symmetry_cell_setting	triclinic
loop_
_symmetry_equiv_pos_as_xyz
  x,y,z
_cell_length_a	11.792241
_cell_length_b	22.610064
_cell_length_c	11.792254
_cell_angle_alpha	90.004336
_cell_angle_beta	84.196007
_cell_angle_gamma	89.995899
loop_
_atom_site_label
_atom_site_type_symbol
_atom_site_fract_x
_atom_site_fract_y
_atom_site_fract_z
O1	O	1.506924	-0.049127	0.155551
O2	O	1.176583	-0.049141	0.171584
O3	O	1.349762	-0.049130	-0.001602
O4	O	1.333745	-0.049139	0.328737
O5	O	1.349732	0.049239	-0.001576
O6	O	1.176553	0.049228	0.171610
O7	O	1.506893	0.049242	0.155578
Zn8	Zn	1.341718	0.064853	0.163598
Zn9	Zn	1.341758	-0.064753	0.163563
O10	O	1.333714	0.049230	0.328764
C11	C	1.134277	0.000042	0.170590
C12	C	1.008263	0.000036	0.167576
N13	N	1.341698	0.153306	0.163621
C14	C	0.777551	0.000054	0.162033
C15	C	0.905936	0.000044	0.165112
C16	C	1.418444	0.561952	0.086897
C17	C	1.418450	0.623872	0.086890
O18	O	1.483655	0.655895	0.021668
N19	N	1.341756	0.654843	0.163550
C20	C	1.265043	0.623890	0.240214
O21	O	1.199809	0.655919	0.305418
C22	C	1.265033	0.561972	0.240215
C23	C	1.341740	0.531004	0.163558
C24	C	1.495144	0.530984	0.010245
C25	C	1.495140	0.469069	0.010254
C26	C	1.418435	0.438121	0.086915
C27	C	1.341736	0.469088	0.163567
C28	C	1.188316	0.531020	0.316873
C29	C	1.188312	0.469097	0.316867
C30	C	1.265019	0.438130	0.240210
C31	C	1.265027	0.376225	0.240237
N32	N	1.341721	0.345254	0.163577
C33	C	1.418425	0.376202	0.086916
C34	C	1.265069	0.753924	0.240205
C35	C	1.265084	0.815842	0.240210
C36	C	1.418489	0.815819	0.086884
C37	C	1.418479	0.753900	0.086885
C38	C	1.341763	0.722953	0.163545
C39	C	1.418411	0.246175	0.086941
C40	C	1.418403	0.184254	0.086960
C41	C	1.264994	0.184282	0.240282
C42	C	1.265005	0.246197	0.240268
C43	C	1.341718	0.277142	0.163588
O44	O	1.199852	0.344162	0.305422
O45	O	1.483639	0.344166	0.021713
C46	C	1.549199	0.000058	0.156571
C47	C	1.675213	0.000059	0.159586
N48	N	1.341785	0.846795	0.163545
C49	C	1.348738	0.000055	-0.043880
C50	C	1.345718	0.000054	-0.169893
C51	C	1.343264	0.000052	-0.272229
C52	C	1.340196	0.000046	-0.400616
C53	C	1.334738	0.000045	0.371041
C54	C	1.337758	0.000041	0.497054
H55	H	1.480871	0.159042	0.024537
F56	F	1.500057	0.279100	0.005330
H57	H	1.125854	0.556226	0.379294
F58	F	1.183420	0.720993	0.321810
F59	F	1.106655	0.436166	0.398459
H60	H	1.202545	0.159074	0.302702
F61	F	1.183376	0.279154	0.321868
H62	H	1.480945	0.841028	0.024461
F63	F	1.576789	0.563913	-0.071356
F64	F	1.576776	0.436116	-0.071340
F65	F	1.183457	0.848794	0.321813
H66	H	1.480940	0.728690	0.024464
