data_functionalizedCrystal
_audit_creation_method	'MofGen! by Chris Wilmer'
_symmetry_space_group_name_H-M	'P1'
_symmetry_Int_Tables_number	1
_symmetry_cell_setting	triclinic
loop_
_symmetry_equiv_pos_as_xyz
  x,y,z
_cell_length_a	17.699077
_cell_length_b	14.519731
_cell_length_c	16.776229
_cell_angle_alpha	90.008389
_cell_angle_beta	90.000648
_cell_angle_gamma	83.484715
loop_
_atom_site_label
_atom_site_type_symbol
_atom_site_fract_x
_atom_site_fract_y
_atom_site_fract_z
O1	O	1.004416	0.116599	0.066279
O2	O	0.784081	0.131778	0.066284
O3	O	0.900082	-0.010074	0.066274
O4	O	0.888415	0.258450	0.066289
O5	O	0.900080	-0.010086	-0.066302
O6	O	0.784079	0.131765	-0.066293
O7	O	1.004414	0.116586	-0.066297
Zn8	Zn	0.894246	0.124174	-0.087344
Zn9	Zn	0.894249	0.124190	0.087331
O10	O	0.888413	0.258438	-0.066288
C11	C	0.755881	0.131228	-0.000004
C12	C	0.671858	0.129599	-0.000003
C13	C	0.632388	0.128825	-0.072271
C14	C	0.553441	0.127280	-0.072272
C15	C	0.513965	0.126516	-0.000004
C16	C	0.553442	0.127287	0.072270
C17	C	0.632388	0.128826	0.072270
C18	C	0.235060	0.121081	0.072271
C19	C	0.156108	0.119545	0.072265
C20	C	0.156113	0.119535	-0.072271
C21	C	0.235059	0.121074	-0.072271
C22	C	0.274529	0.121840	0.000002
C23	C	0.360133	0.123514	0.000003
C24	C	0.428362	0.124849	-0.000003
C25	C	0.899534	-0.044437	-0.000014
C26	C	0.897896	-0.146811	-0.000015
C27	C	0.896565	-0.229949	-0.000013
C28	C	0.894902	-0.334251	-0.000007
C29	C	0.893582	-0.417384	-0.000002
C30	C	0.891919	-0.521692	0.000003
C31	C	1.032613	0.117136	-0.000008
C32	C	1.116636	0.118764	-0.000004
C33	C	0.888961	0.292801	0.000002
C34	C	0.890599	0.395174	0.000008
N35	N	0.894251	0.124195	0.206542
N36	N	0.894250	0.124162	-0.206556
C37	C	0.945712	0.061506	0.248255
C38	C	0.945715	0.061504	0.331707
C39	C	0.894253	0.124186	0.373445
C40	C	0.842789	0.186882	0.331726
C41	C	0.842791	0.186888	0.248275
C42	C	0.842783	0.186859	0.668273
C43	C	0.842785	0.186847	0.751730
C44	C	0.945708	0.061476	0.751705
C45	C	0.945709	0.061482	0.668254
C46	C	0.894249	0.124180	0.626543
C47	C	0.894247	0.124183	0.536055
C48	C	0.894250	0.124180	0.463932
H49	H	0.521309	0.126634	-0.131120
C50	C	0.665098	0.050036	-0.195470
C51	C	0.675778	0.129661	-0.151711
H52	H	0.691889	0.050548	-0.244512
H53	H	0.612437	0.049016	-0.205811
H54	H	0.683738	-0.003459	-0.165768
H55	H	0.657133	0.183156	-0.181411
H56	H	0.728450	0.130690	-0.141372
C57	C	0.456262	0.204817	0.156126
C58	C	0.510051	0.126451	0.151710
H59	H	0.429480	0.204304	0.205172
H60	H	0.421460	0.204128	0.113090
H61	H	0.481373	0.259166	0.153124
H62	H	0.484940	0.072101	0.154706
H63	H	0.544858	0.127131	0.194757
C64	C	1.047443	-0.062434	0.323301
C65	C	1.002279	-0.007411	0.377558
H66	H	1.082360	-0.104984	0.351608
H67	H	1.074655	-0.024018	0.290761
H68	H	1.015940	-0.095629	0.290744
H69	H	1.033781	0.025790	0.410111
H70	H	0.975064	-0.045832	0.410111
H71	H	0.800876	0.237894	0.785711
H72	H	0.123967	0.118907	-0.131120
C73	C	0.315442	0.202041	-0.156123
C74	C	0.278450	0.121911	-0.151710
H75	H	0.342225	0.202555	-0.205169
H76	H	0.350245	0.202718	-0.113087
H77	H	0.278939	0.255193	-0.153119
H78	H	0.314954	0.068758	-0.154708
H79	H	0.243644	0.121226	-0.194758
H80	H	0.800887	0.237936	0.214314
C81	C	0.164031	0.119689	0.215147
C82	C	0.112715	0.118697	0.151709
H83	H	0.137241	0.119161	0.264187
H84	H	0.189124	0.174042	0.212152
H85	H	0.200522	0.066526	0.212129
H86	H	0.076227	0.171864	0.154723
H87	H	0.087610	0.064338	0.154705
C88	C	0.315431	0.202063	0.156135
C89	C	0.278436	0.121935	0.151714
H90	H	0.342214	0.202586	0.205181
H91	H	0.278936	0.255210	0.153131
H92	H	0.350242	0.202724	0.113096
H93	H	0.243621	0.121277	0.194750
H94	H	0.314936	0.068773	0.154725
H95	H	0.664524	0.129458	0.131118
H96	H	0.987612	0.010426	0.785675
H97	H	0.987615	0.010459	0.214278
C98	C	1.047455	-0.062440	0.676614
C99	C	1.002281	-0.007417	0.622377
H100	H	1.082385	-0.104969	0.648290
H101	H	1.015966	-0.095649	0.709152
H102	H	1.074661	-0.024014	0.709174
H103	H	0.975070	-0.045843	0.589821
H104	H	1.033774	0.025794	0.589826
H105	H	0.800881	0.237908	0.634318
C106	C	0.797078	0.242535	0.459659
C107	C	0.786218	0.255781	0.377603
H108	H	0.762147	0.285067	0.487979
H109	H	0.847568	0.252594	0.473337
H110	H	0.788872	0.180961	0.473313
H111	H	0.794430	0.317354	0.363948
H112	H	0.735716	0.245729	0.363919
