data_functionalizedCrystal
_audit_creation_method	'MofGen! by Chris Wilmer'
_symmetry_space_group_name_H-M	'P1'
_symmetry_Int_Tables_number	1
_symmetry_cell_setting	triclinic
loop_
_symmetry_equiv_pos_as_xyz
  x,y,z
_cell_length_a	13.897449
_cell_length_b	16.625546
_cell_length_c	16.625548
_cell_angle_alpha	90.013404
_cell_angle_beta	90.007099
_cell_angle_gamma	90.023748
loop_
_atom_site_label
_atom_site_type_symbol
_atom_site_fract_x
_atom_site_fract_y
_atom_site_fract_z
Zn1	Zn	1.474541	-0.321108	0.455873
Zn2	Zn	1.724541	-0.071108	0.705873
Zn3	Zn	1.974541	0.178892	0.955873
Zn4	Zn	2.224541	0.428892	1.205873
Zn5	Zn	1.474460	-0.455911	0.321035
Zn6	Zn	1.724460	-0.205911	0.571035
Zn7	Zn	1.974460	0.044089	0.821035
Zn8	Zn	2.224460	0.294089	1.071035
Zn9	Zn	1.313268	-0.321099	0.321056
Zn10	Zn	1.563268	-0.071099	0.571056
Zn11	Zn	1.813268	0.178901	0.821056
Zn12	Zn	2.063268	0.428901	1.071056
Zn13	Zn	1.313198	-0.455905	0.455828
Zn14	Zn	1.563198	-0.205905	0.705828
Zn15	Zn	1.813198	0.044095	0.955828
Zn16	Zn	2.063198	0.294095	1.205828
O17	O	1.393867	-0.388506	0.388448
O18	O	1.643867	-0.138506	0.638448
O19	O	1.893867	0.111494	0.888448
O20	O	2.143867	0.361494	1.138448
O21	O	1.609512	-0.338996	0.437997
O22	O	1.859512	-0.088996	0.687997
O23	O	2.109512	0.161004	0.937997
O24	O	2.359512	0.411004	1.187997
O25	O	1.453073	-0.438027	0.208206
O26	O	1.703073	-0.188027	0.458206
O27	O	1.953073	0.061973	0.708206
O28	O	2.203073	0.311973	0.958206
O29	O	1.334725	-0.208268	0.338968
O30	O	1.584725	0.041732	0.588968
O31	O	1.834725	0.291732	0.838968
O32	O	2.084725	0.541732	1.088968
O33	O	1.609452	-0.438035	0.338932
O34	O	1.859452	-0.188035	0.588932
O35	O	2.109452	0.061965	0.838932
O36	O	2.359452	0.311965	1.088932
O37	O	1.453211	-0.208274	0.438017
O38	O	1.703211	0.041726	0.688017
O39	O	1.953211	0.291726	0.938017
O40	O	2.203211	0.541726	1.188017
O41	O	1.334646	-0.338981	0.208221
O42	O	1.584646	-0.088981	0.458221
O43	O	1.834646	0.161019	0.708221
O44	O	2.084646	0.411019	0.958221
O45	O	1.178277	-0.338975	0.338924
O46	O	1.428277	-0.088975	0.588924
O47	O	1.678277	0.161025	0.838924
O48	O	1.928277	0.411025	1.088924
O49	O	1.334605	-0.438025	0.568666
O50	O	1.584605	-0.188025	0.818666
O51	O	1.834605	0.061975	1.068666
O52	O	2.084605	0.311975	1.318666
O53	O	1.178226	-0.438017	0.437940
O54	O	1.428226	-0.188017	0.687940
O55	O	1.678226	0.061983	0.937940
O56	O	1.928226	0.311983	1.187940
O57	O	1.453143	-0.338990	0.568699
O58	O	1.703143	-0.088990	0.818699
O59	O	1.953143	0.161010	1.068699
O60	O	2.203143	0.411010	1.318699
O61	O	1.453005	-0.568743	0.338888
O62	O	1.703005	-0.318743	0.588888
O63	O	1.953005	-0.068743	0.838888
O64	O	2.203005	0.181257	1.088888
O65	O	1.334527	-0.568738	0.437920
O66	O	1.584527	-0.318738	0.687920
O67	O	1.834527	-0.068738	0.937920
O68	O	2.084527	0.181262	1.187920
C69	C	1.143252	-0.388495	0.388430
C70	C	1.393252	-0.138495	0.638430
C71	C	1.643252	0.111505	0.888430
C72	C	1.893252	0.361505	1.138430
C73	C	1.036038	-0.388510	0.388441
C74	C	1.286038	-0.138510	0.638441
C75	C	1.536038	0.111490	0.888441
C76	C	1.786038	0.361490	1.138441
C77	C	0.839743	-0.388513	0.388462
C78	C	1.089743	-0.138513	0.638462
C79	C	1.339743	0.111487	0.888462
C80	C	1.589743	0.361487	1.138462
C81	C	0.948976	-0.388509	0.388448
C82	C	1.198976	-0.138509	0.638448
C83	C	1.448976	0.111491	0.888448
C84	C	1.698976	0.361491	1.138448
C85	C	1.393775	-0.597997	0.388414
C86	C	1.643775	-0.347997	0.638414
C87	C	1.893775	-0.097997	0.888414
C88	C	2.143775	0.152003	1.138414
C89	C	1.393825	-0.687618	0.388427
C90	C	1.643825	-0.437618	0.638427
C91	C	1.893825	-0.187618	0.888427
C92	C	2.143825	0.062382	1.138427
C93	C	1.393993	-1.015793	0.388511
C94	C	1.643993	-0.765793	0.638511
C95	C	1.893993	-0.515793	0.888511
C96	C	2.143993	-0.265793	1.138511
C97	C	1.393943	-0.924485	0.388490
C98	C	1.643943	-0.674485	0.638490
C99	C	1.893943	-0.424485	0.888490
C100	C	2.143943	-0.174485	1.138490
C101	C	1.393908	-0.851708	0.388468
C102	C	1.643908	-0.601708	0.638468
C103	C	1.893908	-0.351708	0.888468
C104	C	2.143908	-0.101708	1.138468
C105	C	1.393860	-0.760394	0.388448
C106	C	1.643860	-0.510394	0.638448
C107	C	1.893860	-0.260394	0.888448
C108	C	2.143860	-0.010394	1.138448
C109	C	1.645460	-0.388517	0.388467
C110	C	1.895460	-0.138517	0.638467
C111	C	2.145460	0.111483	0.888467
C112	C	2.395460	0.361483	1.138467
C113	C	1.752674	-0.388522	0.388475
C114	C	2.002674	-0.138522	0.638475
C115	C	2.252674	0.111478	0.888475
C116	C	2.502674	0.361478	1.138475
C117	C	1.393875	-0.388508	0.598757
C118	C	1.643875	-0.138508	0.848757
C119	C	1.893875	0.111492	1.098757
C120	C	2.143875	0.361492	1.348757
C121	C	1.393879	-0.388509	0.688378
C122	C	1.643879	-0.138509	0.938378
C123	C	1.893879	0.111491	1.188378
C124	C	2.143879	0.361491	1.438378
C125	C	1.393985	-0.178197	0.388500
C126	C	1.643985	0.071803	0.638500
C127	C	1.893985	0.321803	0.888500
C128	C	2.143985	0.571803	1.138500
C129	C	1.394035	-0.088576	0.388521
C130	C	1.644035	0.161424	0.638521
C131	C	1.894035	0.411424	0.888521
C132	C	2.144035	0.661424	1.138521
C133	C	1.393839	-0.388516	1.016554
C134	C	1.643839	-0.138516	1.266554
C135	C	1.893839	0.111484	1.516554
C136	C	2.143839	0.361484	1.766554
C137	C	1.393847	-0.388517	0.925245
C138	C	1.643847	-0.138517	1.175245
C139	C	1.893847	0.111483	1.425245
C140	C	2.143847	0.361483	1.675245
C141	C	1.393859	-0.388513	0.852469
C142	C	1.643859	-0.138513	1.102469
C143	C	1.893859	0.111487	1.352469
C144	C	2.143859	0.361487	1.602469
C145	C	1.393867	-0.388513	0.761154
C146	C	1.643867	-0.138513	1.011154
C147	C	1.893867	0.111487	1.261154
C148	C	2.143867	0.361487	1.511154
C149	C	1.393849	-0.388520	1.178957
C150	C	1.643849	-0.138520	1.428957
C151	C	1.893849	0.111480	1.678957
C152	C	2.143849	0.361480	1.928957
C153	C	1.393839	-0.388514	1.089336
C154	C	1.643839	-0.138514	1.339336
C155	C	1.893839	0.111486	1.589336
C156	C	2.143839	0.361486	1.839336
