data_functionalizedCrystal
_audit_creation_method	'MofGen! by Chris Wilmer'
_symmetry_space_group_name_H-M	'P1'
_symmetry_Int_Tables_number	1
_symmetry_cell_setting	triclinic
loop_
_symmetry_equiv_pos_as_xyz
  x,y,z
_cell_length_a	14.853558
_cell_length_b	17.666332
_cell_length_c	14.853567
_cell_angle_alpha	89.999237
_cell_angle_beta	96.366968
_cell_angle_gamma	90.005300
loop_
_atom_site_label
_atom_site_type_symbol
_atom_site_fract_x
_atom_site_fract_y
_atom_site_fract_z
O1	O	1.196372	0.062933	-0.117664
O2	O	1.696372	0.562933	0.382336
O3	O	0.933911	0.062935	-0.131694
O4	O	1.433911	0.562935	0.368306
O5	O	1.072152	0.062936	0.006551
O6	O	1.572152	0.562936	0.506551
O7	O	1.058131	0.062932	-0.255909
O8	O	1.558131	0.562932	0.244091
O9	O	1.072137	-0.062961	0.006554
O10	O	1.572137	0.437039	0.506554
O11	O	0.933896	-0.062961	-0.131691
O12	O	1.433896	0.437039	0.368309
O13	O	1.196356	-0.062964	-0.117660
O14	O	1.696356	0.437036	0.382340
Cu15	Cu	1.065124	-0.074458	-0.124675
Cu16	Cu	1.565124	0.425542	0.375325
Cu17	Cu	1.065143	0.074429	-0.124679
Cu18	Cu	1.565143	0.574429	0.375321
O19	O	1.058115	-0.062965	-0.255906
O20	O	1.558115	0.437035	0.244094
C21	C	0.900314	-0.000013	-0.131058
C22	C	1.400314	0.499987	0.368942
C23	C	0.800230	-0.000011	-0.129158
C24	C	1.300230	0.499989	0.370842
C25	C	0.753219	0.068618	-0.128268
C26	C	1.253219	0.568618	0.371732
C27	C	0.753200	-0.068640	-0.128254
C28	C	1.253200	0.431360	0.371746
C29	C	0.659166	-0.068641	-0.126463
C30	C	1.159166	0.431359	0.373537
C31	C	0.612155	-0.000012	-0.125574
C32	C	1.112155	0.499988	0.374426
C33	C	0.659177	0.068619	-0.126475
C34	C	1.159177	0.568619	0.373525
C35	C	0.612139	-0.137270	-0.125553
C36	C	1.112139	0.362730	0.374447
C37	C	0.518099	-0.137274	-0.123761
C38	C	1.018099	0.362726	0.376239
C39	C	0.471085	-0.068644	-0.122878
C40	C	0.971085	0.431356	0.377122
C41	C	0.518113	-0.000011	-0.123781
C42	C	1.018113	0.499989	0.376219
C43	C	0.471101	0.068619	-0.122891
C44	C	0.971101	0.568619	0.377109
C45	C	0.518126	0.137253	-0.123800
C46	C	1.018126	0.637253	0.376200
C47	C	0.612162	0.137249	-0.125592
C48	C	1.112162	0.637249	0.374408
C49	C	0.377049	-0.068640	-0.121086
C50	C	0.877049	0.431360	0.378914
C51	C	0.377059	0.068619	-0.121098
C52	C	0.877059	0.568619	0.378902
N53	N	1.065118	-0.179178	-0.124672
N54	N	1.565118	0.320822	0.375328
C55	C	1.126371	-0.781227	-0.063477
C56	C	1.626371	-0.281227	0.436523
C57	C	1.126373	-0.701980	-0.063479
C58	C	1.626373	-0.201980	0.436521
C59	C	1.065144	-0.662359	-0.124671
C60	C	1.565144	-0.162359	0.375329
C61	C	1.003924	-0.701993	-0.185881
C62	C	1.503924	-0.201993	0.314119
C63	C	1.003931	-0.781239	-0.185883
C64	C	1.503931	-0.281239	0.314117
N65	N	0.985379	-0.537946	-0.136014
N66	N	1.485379	-0.037946	0.363986
N67	N	0.985376	-0.462665	-0.136006
N68	N	1.485376	0.037335	0.363994
C69	C	1.065122	-0.423595	-0.124669
C70	C	1.565122	0.076405	0.375331
N71	N	1.144874	-0.462649	-0.113323
N72	N	1.644874	0.037351	0.386677
N73	N	1.144877	-0.537937	-0.113326
N74	N	1.644877	-0.037937	0.386674
C75	C	1.065130	-0.576430	-0.124676
C76	C	1.565130	-0.076430	0.375324
C77	C	1.126344	-0.298042	-0.063470
C78	C	1.626344	0.201958	0.436530
C79	C	1.126347	-0.218793	-0.063479
C80	C	1.626347	0.281207	0.436521
C81	C	1.003890	-0.218807	-0.185875
C82	C	1.503890	0.281193	0.314125
C83	C	1.003896	-0.298055	-0.185871
C84	C	1.503896	0.201945	0.314129
C85	C	1.065121	-0.337667	-0.124664
C86	C	1.565121	0.162333	0.375336
C87	C	1.229953	-0.000015	-0.118296
C88	C	1.729953	0.499985	0.381704
C89	C	1.330037	-0.000011	-0.120197
C90	C	1.830037	0.499989	0.379803
C91	C	1.071509	-0.000010	0.040141
C92	C	1.571509	0.499990	0.540141
C93	C	1.069605	-0.000003	0.140225
C94	C	1.569605	0.499997	0.640225
N95	N	1.065156	0.179149	-0.124675
N96	N	1.565156	0.679149	0.375325
C97	C	1.058758	-0.000017	-0.289496
C98	C	1.558758	0.499983	0.210504
C99	C	1.060662	-0.000019	-0.389580
C100	C	1.560662	0.499981	0.110420
C101	C	0.979439	-0.000017	0.552756
C102	C	1.479439	0.499983	1.052756
C103	C	1.143673	-0.000019	0.574042
C104	C	1.643673	0.499981	1.074042
C105	C	1.145463	-0.000014	0.480009
C106	C	1.645463	0.499986	0.980009
C107	C	1.064240	-0.000012	0.422344
C108	C	1.564240	0.499988	0.922344
C109	C	0.981227	-0.000015	0.458713
C110	C	1.481227	0.499985	0.958713
C111	C	1.228474	-0.000019	0.443632
C112	C	1.728474	0.499981	0.943632
C113	C	1.230268	-0.000016	0.349593
C114	C	1.730268	0.499984	0.849593
C115	C	1.149044	-0.000008	0.291927
C116	C	1.649044	0.499992	0.791927
C117	C	1.066027	-0.000010	0.328301
C118	C	1.566027	0.499990	0.828301
C119	C	0.984805	-0.000008	0.270637
C120	C	1.484805	0.499992	0.770637
C121	C	0.901787	-0.000004	0.307009
C122	C	1.401787	0.499996	0.807009
C123	C	0.900003	-0.000007	0.401047
C124	C	1.400003	0.499993	0.901047
C125	C	1.150828	-0.000005	0.197890
C126	C	1.650828	0.499995	0.697890
C127	C	0.986592	-0.000006	0.176594
C128	C	1.486592	0.499994	0.676594
H129	H	0.650459	0.193127	-0.126330
H130	H	1.150459	0.693127	0.373670
H131	H	0.920449	-0.000001	0.129649
H132	H	1.420449	0.499999	0.629649
H133	H	0.338788	0.124506	-0.120379
H134	H	0.838788	0.624506	0.379621
H135	H	0.911848	-0.000011	0.582375
H136	H	1.411848	0.499989	1.082375
Br137	Br	0.817033	0.161760	-0.129505
Br138	Br	1.317033	0.661760	0.370495
Br139	Br	0.791560	-0.000011	0.228740
Br140	Br	1.291560	0.499989	0.728740
H141	H	0.479837	0.193130	-0.123070
H142	H	0.979837	0.693130	0.376930
H143	H	0.791484	-0.124514	-0.128971
H144	H	1.291484	0.375486	0.371029
H145	H	0.650424	-0.193144	-0.126269
H146	H	1.150424	0.306856	0.373731
H147	H	1.176200	-0.186530	-0.013646
H148	H	1.676200	0.313470	0.486354
Br149	Br	0.920803	-0.165043	-0.268932
Br150	Br	1.420803	0.334957	0.231068
H151	H	0.479820	-0.193160	-0.123021
H152	H	0.979820	0.306840	0.376979
H153	H	1.176223	-0.669712	-0.013643
H154	H	1.676223	-0.169712	0.486357
Br155	Br	1.253898	-0.000037	0.652301
Br156	Br	1.753898	0.499963	1.152301
Br157	Br	0.313235	-0.161778	-0.119834
Br158	Br	0.813235	0.338222	0.380166
H159	H	1.176227	-0.813478	-0.013641
H160	H	1.676227	-0.313478	0.486359
H161	H	0.954072	-0.669730	-0.235705
H162	H	1.454072	-0.169730	0.264295
Br163	Br	0.920848	-0.835019	-0.268945
Br164	Br	1.420848	-0.335019	0.231055
Br165	Br	1.209438	-0.351804	0.019593
Br166	Br	1.709438	0.148196	0.519593
H167	H	0.954045	-0.330319	-0.235701
H168	H	1.454045	0.169681	0.264299
Br169	Br	1.338698	-0.000042	0.521893
Br170	Br	1.838698	0.499958	1.021893
Br171	Br	1.342931	-0.000009	0.300238
Br172	Br	1.842931	0.499991	0.800238
H173	H	0.832414	-0.000005	0.430670
H174	H	1.332414	0.499995	0.930670
Br175	Br	1.263484	-0.000028	0.148529
Br176	Br	1.763484	0.499972	0.648529
