data_functionalizedCrystal
_audit_creation_method	'MofGen! by Chris Wilmer'
_symmetry_space_group_name_H-M	'P1'
_symmetry_Int_Tables_number	1
_symmetry_cell_setting	triclinic
loop_
_symmetry_equiv_pos_as_xyz
  x,y,z
_cell_length_a	18.215407
_cell_length_b	19.077068
_cell_length_c	18.215385
_cell_angle_alpha	92.204791
_cell_angle_beta	89.935053
_cell_angle_gamma	92.327501
loop_
_atom_site_label
_atom_site_type_symbol
_atom_site_fract_x
_atom_site_fract_y
_atom_site_fract_z
Zn1	Zn	1.113645	-0.279734	-0.427850
Zn2	Zn	1.108505	-0.397565	-0.309726
Zn3	Zn	0.990474	-0.279891	-0.304804
Zn4	Zn	0.985599	-0.397392	-0.432744
O5	O	1.049555	-0.338645	-0.368781
O6	O	1.215947	-0.295372	-0.412193
O7	O	1.092736	-0.382093	-0.206094
O8	O	1.011004	-0.181384	-0.317018
O9	O	1.212170	-0.381941	-0.325407
O10	O	1.101497	-0.181268	-0.407420
O11	O	1.006020	-0.295639	-0.202478
O12	O	0.886843	-0.295471	-0.321763
O13	O	1.002695	-0.381646	-0.535073
O14	O	0.883261	-0.381798	-0.415760
O15	O	1.096770	-0.295204	-0.531478
O16	O	1.088010	-0.496028	-0.330152
O17	O	0.997711	-0.495901	-0.420533
C18	C	0.858350	-0.338633	-0.368759
C19	C	0.776550	-0.338645	-0.368768
C20	C	0.586508	-0.383666	-0.417656
C21	C	0.509649	-0.383669	-0.417666
C22	C	0.513355	-0.293637	-0.319922
C23	C	0.590212	-0.293632	-0.319917
C24	C	0.626787	-0.338651	-0.368783
C25	C	0.473070	-0.338658	-0.368798
C26	C	0.389736	-0.338660	-0.368807
C27	C	0.710126	-0.338648	-0.368775
C28	C	1.041794	-0.521501	-0.376424
C29	C	1.038540	-0.599728	-0.379718
C30	C	1.084062	-0.636522	-0.334249
C31	C	1.081007	-0.710024	-0.337351
C32	C	1.032425	-0.746730	-0.385921
C33	C	0.986902	-0.709932	-0.431395
C34	C	0.989961	-0.636431	-0.428296
C35	C	1.018233	-0.966549	-0.400236
C36	C	1.015175	-1.040055	-0.403331
C37	C	1.109281	-1.040142	-0.309288
C38	C	1.112333	-0.966640	-0.306189
C39	C	1.066813	-0.929848	-0.351666
N40	N	1.029299	-0.821861	-0.389092
N41	N	1.069943	-0.854718	-0.348499
C42	C	1.241508	-0.338658	-0.368803
C43	C	1.323306	-0.338663	-0.368813
C44	C	1.049762	-0.338388	-0.560724
C45	C	1.049850	-0.338278	-0.642518
C46	C	1.057368	-0.155076	-0.361124
C47	C	1.060697	-0.076849	-0.357861
C48	C	1.049394	-0.338851	-0.177583
C49	C	1.049457	-0.338763	-0.095780
C50	C	1.004119	-0.293877	0.094256
C51	C	1.004187	-0.293793	0.171118
C52	C	1.095193	-0.383166	0.167440
C53	C	1.095129	-0.383246	0.090579
C54	C	1.049587	-0.338602	0.053989
C55	C	1.049720	-0.338439	0.207712
C56	C	1.049793	-0.338348	0.291049
C57	C	1.049514	-0.338692	-0.029353
H58	H	0.616284	-0.420322	-0.457448
H59	H	1.132159	-0.419667	0.057793
O60	O	0.969115	-0.926869	-0.449262
H61	H	0.934809	-0.964745	-0.483541
O62	O	0.955145	-0.245553	0.214549
H63	H	0.989379	-0.209480	0.250904
H64	H	1.118075	-0.739978	-0.300325
O65	O	1.164738	-0.927048	-0.253811
H66	H	1.195886	-0.964983	-0.222719
H67	H	0.483566	-0.256986	-0.280136
H68	H	0.476857	-0.420324	-0.457464
H69	H	0.623009	-0.256970	-0.280118
O70	O	1.144309	-0.431320	0.206902
H71	H	1.110138	-0.467321	0.240568
H72	H	1.123619	-0.606640	-0.294695
H73	H	1.146343	-1.070107	-0.272264
H74	H	0.967039	-0.257523	0.064467
O75	O	0.962776	-1.079657	-0.455716
H76	H	0.976007	-1.065453	-0.512891
O77	O	0.934496	-0.749524	-0.483773
H78	H	0.966046	-0.782929	-0.522649
O79	O	0.940855	-0.596740	-0.477329
H80	H	0.906552	-0.634612	-0.511616
