data_functionalizedCrystal
_audit_creation_method	'MofGen! by Chris Wilmer'
_symmetry_space_group_name_H-M	'P1'
_symmetry_Int_Tables_number	1
_symmetry_cell_setting	triclinic
loop_
_symmetry_equiv_pos_as_xyz
  x,y,z
_cell_length_a	19.077105
_cell_length_b	18.050589
_cell_length_c	19.076919
_cell_angle_alpha	92.275255
_cell_angle_beta	90.076224
_cell_angle_gamma	87.724731
loop_
_atom_site_label
_atom_site_type_symbol
_atom_site_fract_x
_atom_site_fract_y
_atom_site_fract_z
Zn1	Zn	1.058247	-0.359281	-0.440438
Zn2	Zn	1.558247	0.140719	0.059562
Zn3	Zn	1.062879	-0.478689	-0.322938
Zn4	Zn	1.562879	0.021311	0.177062
Zn5	Zn	0.945466	-0.349333	-0.318231
Zn6	Zn	1.445466	0.150667	0.181769
Zn7	Zn	0.940701	-0.478241	-0.435691
Zn8	Zn	1.440701	0.021759	0.064309
O9	O	1.001823	-0.416386	-0.379325
O10	O	1.501823	0.083614	0.120675
O11	O	1.157193	-0.379472	-0.428809
O12	O	1.657193	0.120528	0.071191
O13	O	1.051237	-0.457554	-0.223983
O14	O	1.551237	0.042446	0.276017
O15	O	0.960482	-0.246731	-0.334459
O16	O	1.460482	0.253269	0.165541
O17	O	1.160596	-0.467201	-0.342482
O18	O	1.660596	0.032799	0.157518
O19	O	1.043342	-0.254040	-0.424244
O20	O	1.543342	0.245960	0.075756
O21	O	0.964973	-0.362516	-0.220524
O22	O	1.464973	0.137484	0.279476
O23	O	0.846502	-0.362082	-0.329856
O24	O	1.346502	0.137918	0.170144
O25	O	0.952361	-0.466437	-0.534652
O26	O	1.452361	0.033563	-0.034652
O27	O	0.843002	-0.456790	-0.416153
O28	O	1.343002	0.043210	0.083847
O29	O	1.038722	-0.379038	-0.538140
O30	O	1.538722	0.120962	-0.038140
O31	O	1.046617	-0.582551	-0.337879
O32	O	1.546617	-0.082551	0.162121
O33	O	0.956853	-0.582222	-0.420717
O34	O	1.456853	-0.082222	0.079283
C35	C	0.819256	-0.408308	-0.371979
C36	C	1.319256	0.091692	0.128021
C37	C	0.741152	-0.404871	-0.368853
C38	C	1.241152	0.095129	0.131147
C39	C	0.702657	-0.452635	-0.412244
C40	C	1.202657	0.047365	0.087756
C41	C	0.629270	-0.449396	-0.409310
C42	C	1.129270	0.050604	0.090690
C43	C	0.594379	-0.398396	-0.362981
C44	C	1.094379	0.101604	0.137019
C45	C	0.632879	-0.350627	-0.319588
C46	C	1.132879	0.149373	0.180412
C47	C	0.706264	-0.353863	-0.322526
C48	C	1.206264	0.146137	0.177474
C49	C	0.375093	-0.383419	-0.349388
C50	C	0.875093	0.116581	0.150612
C51	C	0.301702	-0.380188	-0.346452
C52	C	0.801702	0.119812	0.153548
C53	C	0.298098	-0.478956	-0.436175
C54	C	0.798098	0.021044	0.063825
C55	C	0.371485	-0.482191	-0.439105
C56	C	0.871485	0.017809	0.060895
C57	C	0.409979	-0.434419	-0.395715
C58	C	0.909979	0.065581	0.104285
N59	N	0.519366	-0.395085	-0.359980
N60	N	1.019366	0.104915	0.140020
N61	N	0.484990	-0.437727	-0.398721
N62	N	0.984990	0.062273	0.101279
C63	C	1.001739	-0.609334	-0.379310
C64	C	1.501739	-0.109334	0.120690
C65	C	1.001766	-0.691882	-0.379329
C66	C	1.501766	-0.191882	0.120671
C67	C	0.952999	-0.891182	-0.424363
C68	C	1.452999	-0.391182	0.075637
C69	C	0.938449	-0.937256	-0.359556
C70	C	1.438449	-0.437256	0.140444
C71	C	1.001835	-0.843016	-0.379341
C72	C	1.501835	-0.343016	0.120659
C73	C	1.016419	-0.944025	-0.444157
C74	C	1.516419	-0.444025	0.055843
C75	C	1.001900	-0.989004	-0.379358
C76	C	1.501900	-0.489004	0.120642
C77	C	0.987253	-0.887999	-0.314499
C78	C	1.487253	-0.387999	0.185501
C79	C	1.065250	-0.894768	-0.399145
C80	C	1.565250	-0.394768	0.100855
C81	C	1.050726	-0.940818	-0.334295
C82	C	1.550726	-0.440818	0.165705
C83	C	1.001796	-0.758915	-0.379332
C84	C	1.501796	-0.258915	0.120668
C85	C	1.001939	-1.073102	-0.379360
C86	C	1.501939	-0.573102	0.120640
C87	C	1.185104	-0.424496	-0.386700
C88	C	1.685104	0.075504	0.113300
C89	C	1.263207	-0.427952	-0.389843
C90	C	1.763207	0.072048	0.110157
C91	C	0.994493	-0.423797	-0.562605
C92	C	1.494493	0.076203	-0.062605
C93	C	0.991370	-0.426955	-0.640709
C94	C	1.491370	0.073045	-0.140709
C95	C	1.001926	-0.222686	-0.379356
C96	C	1.501926	0.277314	0.120644
C97	C	1.001970	-0.140143	-0.379369
C98	C	1.501970	0.359857	0.120631
C99	C	1.034863	-0.382937	-0.679219
C100	C	1.534863	0.117063	-0.179219
C101	C	1.031920	-0.385901	-0.752605
C102	C	1.531920	0.114099	-0.252605
C103	C	0.985486	-0.432888	-0.787479
C104	C	1.485486	0.067112	-0.287479
C105	C	0.941988	-0.476908	-0.748964
C106	C	1.441988	0.023092	-0.248964
C107	C	0.944928	-0.473940	-0.675579
C108	C	1.444928	0.026060	-0.175579
C109	C	0.971867	-0.446642	-1.006761
C110	C	1.471867	0.053358	-0.506761
C111	C	0.968931	-0.449609	-1.080151
C112	C	1.468931	0.050391	-0.580151
C113	C	1.058863	-0.358601	-1.083787
C114	C	1.558863	0.141399	-0.583787
C115	C	1.061802	-0.355639	-1.010401
C116	C	1.561802	0.144361	-0.510401
C117	C	1.018301	-0.399657	-0.971892
C118	C	1.518301	0.100343	-0.471892
N119	N	0.982478	-0.435921	-0.862492
N120	N	1.482478	0.064079	-0.362492
N121	N	1.021307	-0.396619	-0.896881
N122	N	1.521307	0.103381	-0.396881
C123	C	1.009165	-0.408952	-0.196759
C124	C	1.509165	0.091048	0.303241
C125	C	1.012425	-0.405591	-0.118661
C126	C	1.512425	0.094409	0.381339
H127	H	0.273296	-0.338649	-0.308729
H128	H	0.773296	0.161351	0.191271
H129	H	1.094278	-0.322763	-1.115149
H130	H	1.594278	0.177237	-0.615149
C131	C	1.112087	-0.304537	-0.972461
C132	C	1.612087	0.195463	-0.472461
C133	C	1.073992	-0.253488	-0.928740
C134	C	1.573992	0.246512	-0.428740
C135	C	1.120285	-0.206395	-0.893779
C136	C	1.620285	0.293605	-0.393779
H137	H	1.137573	-0.278672	-1.005840
H138	H	1.637573	0.221328	-0.505840
H139	H	1.143842	-0.333089	-0.945011
H140	H	1.643842	0.166911	-0.445011
H141	H	1.042250	-0.224939	-0.956188
H142	H	1.542250	0.275061	-0.456188
H143	H	1.048508	-0.279332	-0.895348
H144	H	1.548508	0.220668	-0.395348
H145	H	1.152040	-0.234947	-0.866329
H146	H	1.652040	0.265053	-0.366329
H147	H	1.145768	-0.180535	-0.927163
H148	H	1.645768	0.319465	-0.427163
H149	H	1.094445	-0.171757	-0.864105
H150	H	1.594445	0.328243	-0.364105
H151	H	0.974881	-0.863588	-0.259675
H152	H	1.474881	-0.363588	0.240325
H153	H	1.118835	-0.875974	-0.415910
H154	H	1.618835	-0.375974	0.084090
H155	H	0.904177	-0.515163	-0.777365
H156	H	1.404177	-0.015163	-0.277365
C157	C	1.105818	-0.969847	-0.283541
C158	C	1.605818	-0.469847	0.216459
C159	C	1.105659	-1.047441	-0.284521
C160	C	1.605659	-0.547441	0.215479
C161	C	1.156402	-1.074210	-0.237781
C162	C	1.656402	-0.574210	0.262219
H163	H	1.095428	-0.950565	-0.237508
H164	H	1.595428	-0.450565	0.262492
H165	H	1.150744	-0.954660	-0.297212
H166	H	1.650744	-0.454660	0.202788
H167	H	1.060744	-1.062620	-0.270846
H168	H	1.560744	-0.562620	0.229154
H169	H	1.116057	-1.066742	-0.330542
H170	H	1.616057	-0.566742	0.169458
H171	H	1.201327	-1.059024	-0.251451
H172	H	1.701327	-0.559024	0.248549
H173	H	1.146007	-1.054923	-0.191752
H174	H	1.646007	-0.554923	0.308248
H175	H	1.156305	-1.126860	-0.238444
H176	H	1.656305	-0.626860	0.261556
H177	H	1.028729	-0.968523	-0.498964
H178	H	1.528729	-0.468523	0.001036
C179	C	0.256179	-0.530727	-0.483255
C180	C	0.756179	-0.030727	0.016745
C181	C	0.184442	-0.516967	-0.470783
C182	C	0.684442	-0.016967	0.029217
C183	C	0.145805	-0.564637	-0.514151
C184	C	0.645805	-0.064637	-0.014151
H185	H	0.268511	-0.580747	-0.473415
H186	H	0.768511	-0.080747	0.026585
H187	H	0.266291	-0.522365	-0.530981
H188	H	0.766291	-0.022365	-0.030981
H189	H	0.174334	-0.525335	-0.423069
H190	H	0.674334	-0.025335	0.076931
H191	H	0.172089	-0.466956	-0.480628
H192	H	0.672089	0.033044	0.019372
H193	H	0.155918	-0.556275	-0.561877
H194	H	0.655918	-0.056275	-0.061877
H195	H	0.158143	-0.614654	-0.504308
H196	H	0.658143	-0.114654	-0.004308
H197	H	0.097128	-0.555303	-0.505700
H198	H	0.597128	-0.055303	-0.005700
C199	C	0.416756	-0.331517	-0.302198
C200	C	0.916756	0.168483	0.197802
C201	C	0.370490	-0.286176	-0.260985
C202	C	0.870490	0.213824	0.239015
C203	C	0.408848	-0.238358	-0.217499
C204	C	0.908848	0.261642	0.282501
H205	H	0.444327	-0.301485	-0.330201
H206	H	0.944327	0.198515	0.169799
H207	H	0.446582	-0.359872	-0.272640
H208	H	0.946582	0.140128	0.227360
H209	H	0.340676	-0.257824	-0.290539
H210	H	0.840676	0.242176	0.209461
H211	H	0.342918	-0.316188	-0.232967
H212	H	0.842918	0.183812	0.267033
H213	H	0.438674	-0.266713	-0.187941
H214	H	0.938674	0.233287	0.312059
H215	H	0.436418	-0.208331	-0.245508
H216	H	0.936418	0.291669	0.254492
H217	H	0.377463	-0.207594	-0.189526
H218	H	0.877463	0.292406	0.310474
H219	H	0.604465	-0.309099	-0.281869
H220	H	1.104465	0.190901	0.218131
H221	H	0.597931	-0.488291	-0.444643
H222	H	1.097931	0.011709	0.055357
H223	H	0.911645	-0.869387	-0.462377
H224	H	1.411645	-0.369387	0.037623
C225	C	1.085300	-0.331846	-0.641486
C226	C	1.585300	0.168154	-0.141486
C227	C	1.122746	-0.293916	-0.690922
C228	C	1.622746	0.206084	-0.190922
C229	C	1.169207	-0.246834	-0.656191
C230	C	1.669207	0.253166	-0.156191
H231	H	1.117113	-0.360369	-0.614088
H232	H	1.617113	0.139631	-0.114088
H233	H	1.059599	-0.297102	-0.611797
H234	H	1.559599	0.202898	-0.111797
H235	H	1.148445	-0.328655	-0.720599
H236	H	1.648445	0.171345	-0.220599
H237	H	1.090952	-0.265379	-0.718323
H238	H	1.590952	0.234621	-0.218323
H239	H	1.143506	-0.212091	-0.626501
H240	H	1.643506	0.287909	-0.126501
H241	H	1.201014	-0.275363	-0.628793
H242	H	1.701014	0.224637	-0.128793
H243	H	1.194614	-0.221088	-0.689727
H244	H	1.694614	0.278912	-0.189727
C245	C	0.918441	-0.500645	-1.117887
C246	C	1.418441	-0.000645	-0.617887
C247	C	0.880960	-0.538544	-1.068456
C248	C	1.380960	-0.038544	-0.568456
C249	C	0.834440	-0.585556	-1.103192
C250	C	1.334440	-0.085556	-0.603192
H251	H	0.944079	-0.535413	-1.147590
H252	H	1.444079	-0.035413	-0.647590
H253	H	0.886659	-0.472052	-1.145272
H254	H	1.386659	0.027948	-0.645272
H255	H	0.912737	-0.567135	-1.041083
H256	H	1.412737	-0.067135	-0.541083
H257	H	0.855307	-0.503795	-1.038752
H258	H	1.355307	-0.003795	-0.538752
H259	H	0.802659	-0.556963	-1.130577
H260	H	1.302659	-0.056963	-0.630577
H261	H	0.860085	-0.620320	-1.132894
H262	H	1.360085	-0.120320	-0.632894
H263	H	0.809000	-0.611271	-1.069659
H264	H	1.309000	-0.111271	-0.569659
C265	C	0.866925	-0.962261	-0.337357
C266	C	1.366925	-0.462261	0.162643
C267	C	0.815965	-0.937142	-0.384665
C268	C	1.315965	-0.437142	0.115335
C269	C	0.750070	-0.960168	-0.364248
C270	C	1.250070	-0.460168	0.135752
H271	H	0.856155	-0.942281	-0.291647
H272	H	1.356155	-0.442281	0.208353
H273	H	0.867560	-1.014907	-0.337138
H274	H	1.367560	-0.514907	0.162862
H275	H	0.815328	-0.884507	-0.384877
H276	H	1.315328	-0.384507	0.115123
H277	H	0.826712	-0.957120	-0.430378
H278	H	1.326712	-0.457120	0.069622
H279	H	0.750705	-1.012813	-0.364030
H280	H	1.250705	-0.512813	0.135970
H281	H	0.739307	-0.940186	-0.318538
H282	H	1.239307	-0.440186	0.181462
H283	H	0.715487	-0.943134	-0.396347
H284	H	1.215487	-0.443134	0.103653
C285	C	0.747938	-0.301973	-0.275329
C286	C	1.247938	0.198027	0.224671
C287	C	0.701678	-0.256631	-0.234111
C288	C	1.201678	0.243369	0.265889
C289	C	0.740041	-0.208825	-0.190618
C290	C	1.240041	0.291175	0.309382
H291	H	0.775514	-0.271941	-0.303327
H292	H	1.275514	0.228059	0.196673
H293	H	0.777760	-0.330337	-0.245774
H294	H	1.277760	0.169663	0.254226
H295	H	0.671868	-0.228269	-0.263662
H296	H	1.171868	0.271731	0.236338
H297	H	0.674100	-0.286643	-0.206098
H298	H	1.174100	0.213357	0.293902
H299	H	0.769863	-0.237189	-0.161063
H300	H	1.269863	0.262811	0.338937
H301	H	0.767616	-0.178798	-0.218622
H302	H	1.267616	0.321202	0.281378
H303	H	0.708660	-0.178060	-0.162642
H304	H	1.208660	0.321940	0.337358
H305	H	0.936456	-0.482496	-0.975416
H306	H	1.436456	0.017504	-0.475416
H307	H	1.067339	-0.350058	-0.783957
H308	H	1.567339	0.149942	-0.283957
H309	H	0.909504	-0.509777	-0.644225
H310	H	1.409504	-0.009777	-0.144225
H311	H	0.399888	-0.523722	-0.476830
H312	H	0.899888	-0.023722	0.023170
C313	C	0.740405	-0.508033	-0.462618
C314	C	1.240405	-0.008033	0.037382
C315	C	0.690981	-0.549154	-0.500004
C316	C	1.190981	-0.049154	-0.000004
C317	C	0.725726	-0.600185	-0.546424
C318	C	1.225726	-0.100185	-0.046424
H319	H	0.770091	-0.540590	-0.436912
H320	H	1.270091	-0.040590	0.063088
H321	H	0.767807	-0.482193	-0.494464
H322	H	1.267807	0.017807	0.005536
H323	H	0.663591	-0.574992	-0.468162
H324	H	1.163591	-0.074992	0.031838
H325	H	0.661293	-0.516616	-0.525724
H326	H	1.161293	-0.016616	-0.025724
H327	H	0.753128	-0.574346	-0.578270
H328	H	1.253128	-0.074346	-0.078270
H329	H	0.755411	-0.632738	-0.520713
H330	H	1.255411	-0.132738	-0.020713
H331	H	0.692198	-0.628087	-0.571801
H332	H	1.192198	-0.128087	-0.071801
