data_functionalizedCrystal
_audit_creation_method	'MofGen! by Chris Wilmer'
_symmetry_space_group_name_H-M	'P1'
_symmetry_Int_Tables_number	1
_symmetry_cell_setting	triclinic
loop_
_symmetry_equiv_pos_as_xyz
  x,y,z
_cell_length_a	6.817900
_cell_length_b	16.305681
_cell_length_c	16.306216
_cell_angle_alpha	95.357586
_cell_angle_beta	103.467292
_cell_angle_gamma	103.457389
loop_
_atom_site_label
_atom_site_type_symbol
_atom_site_fract_x
_atom_site_fract_y
_atom_site_fract_z
V1	V	-4.026294	-0.117377	-0.263316
O2	O	-4.013944	0.004961	-0.258007
O3	O	-3.977691	-0.232086	-0.261801
O4	O	-3.977745	-0.115869	-0.378027
O5	O	-4.013889	-0.112059	-0.140976
V6	V	-4.509967	-0.102709	-0.248649
O7	O	-4.287222	-0.149553	-0.295491
O8	O	-4.699236	-0.070533	-0.216474
O9	O	-4.335364	0.012000	-0.250164
O10	O	-4.639714	-0.225047	-0.253958
O11	O	-4.639769	-0.108026	-0.370989
O12	O	-4.335309	-0.104216	-0.133938
C13	C	-3.822647	-0.260040	-0.257721
C14	C	-3.864194	-0.353817	-0.257247
C15	C	-3.822715	-0.111793	-0.405978
C16	C	-3.864304	-0.111320	-0.499756
C17	C	-4.015263	-0.109620	-0.840504
C18	C	-4.219676	-0.115216	-0.810070
C19	C	-4.176405	-0.115385	-0.712479
C20	C	-3.940372	-0.110464	-0.671455
C21	C	-3.804765	-0.026793	-0.691455
C22	C	-3.849393	-0.026273	-0.789052
C23	C	-3.928582	-0.187397	-0.814580
C24	C	-3.890015	-0.189048	-0.717266
C25	C	-3.898034	-0.110938	-0.575915
C26	C	-4.057592	-0.109140	-0.936043
C27	C	-3.940336	-0.525519	-0.256401
C28	C	-3.736115	-0.556036	-0.251121
C29	C	-3.779429	-0.653629	-0.250959
C30	C	-4.015299	-0.694571	-0.255567
C31	C	-4.151472	-0.674542	-0.339094
C32	C	-4.106804	-0.576944	-0.339611
C33	C	-4.026276	-0.551391	-0.178450
C34	C	-4.064880	-0.648707	-0.176811
C35	C	-4.057678	-0.790113	-0.255099
C36	C	-3.897966	-0.429979	-0.256875
C37	C	-4.153749	0.039950	-0.254242
C38	C	-4.091440	0.133727	-0.254721
C39	C	-4.153681	-0.108295	-0.105983
C40	C	-4.091331	-0.108764	-0.012203
H41	H	-4.346590	-0.175159	-0.844779
C42	C	-4.031404	-0.556701	-0.419246
H43	H	-4.003501	-0.496994	-0.420265
H44	H	-3.907469	-0.574431	-0.417491
H45	H	-4.136752	-0.586183	-0.469116
H46	H	-4.177736	-0.531998	-0.181543
H47	H	-4.325095	-0.701989	-0.345510
C48	C	-3.928549	-0.664639	-0.093386
H49	H	-3.841778	-0.699101	-0.106488
H50	H	-3.843881	-0.611606	-0.060796
H51	H	-4.015896	-0.693060	-0.061413
H52	H	-3.734222	-0.684175	-0.307116
C53	C	-3.646523	-0.532580	-0.326772
H54	H	-3.733039	-0.504272	-0.361562
H55	H	-3.509252	-0.495928	-0.305835
H56	H	-3.642050	-0.583077	-0.359604
H57	H	-4.233609	-0.676051	-0.175292
C58	C	-4.313195	-0.550907	-0.349464
H59	H	-4.423947	-0.599971	-0.353143
H60	H	-4.301619	-0.510625	-0.301420
H61	H	-4.341362	-0.526077	-0.399919
H62	H	-3.912627	-0.515412	-0.115664
H63	H	-4.281660	-0.175526	-0.699760
H64	H	-4.286535	-0.059350	-0.827483
C65	C	-4.106534	-0.718039	-0.418113
H66	H	-4.004893	-0.748424	-0.400374
H67	H	-4.231709	-0.756597	-0.452781
H68	H	-4.055213	-0.675914	-0.449924
C69	C	-4.238253	-0.039714	-0.671261
H70	H	-4.212016	-0.039566	-0.611408
H71	H	-4.158260	0.012209	-0.682016
H72	H	-4.382673	-0.045113	-0.694923
C73	C	-3.925550	0.053198	-0.809342
H74	H	-3.928985	0.084859	-0.757978
H75	H	-3.832818	0.087838	-0.835367
H76	H	-4.061869	0.035919	-0.847186
H77	H	-3.838568	0.031577	-0.659273
H78	H	-3.696488	-0.018733	-0.808259
H79	H	-3.673781	-0.666372	-0.190928
H80	H	-3.608783	-0.521354	-0.191288
H81	H	-3.631045	-0.020149	-0.663949
C82	C	-4.081466	-0.272334	-0.863213
H83	H	-4.199607	-0.261154	-0.899785
H84	H	-4.013598	-0.301522	-0.896292
H85	H	-4.125553	-0.306720	-0.823563
H86	H	-3.990527	-0.250905	-0.705497
C87	C	-3.723787	-0.182915	-0.840697
H88	H	-3.672157	-0.230072	-0.824860
H89	H	-3.749611	-0.184657	-0.900733
H90	H	-3.623234	-0.131246	-0.812597
C91	C	-3.661854	-0.190789	-0.680257
H92	H	-3.594014	-0.143398	-0.636190
H93	H	-3.659493	-0.242251	-0.657595
H94	H	-3.591272	-0.187770	-0.724160
