data_functionalizedCrystal
_audit_creation_method	'MofGen! by Chris Wilmer'
_symmetry_space_group_name_H-M	'P1'
_symmetry_Int_Tables_number	1
_symmetry_cell_setting	triclinic
loop_
_symmetry_equiv_pos_as_xyz
  x,y,z
_cell_length_a	10.654549
_cell_length_b	10.654551
_cell_length_c	9.730223
_cell_angle_alpha	89.998425
_cell_angle_beta	89.997731
_cell_angle_gamma	84.485069
loop_
_atom_site_label
_atom_site_type_symbol
_atom_site_fract_x
_atom_site_fract_y
_atom_site_fract_z
O1	O	1.667840	0.176396	-0.114249
O2	O	1.302362	0.193203	-0.114258
O3	O	1.493503	0.002060	-0.114254
O4	O	1.476698	0.367539	-0.114253
O5	O	1.493491	0.002055	0.114326
O6	O	1.302349	0.193198	0.114322
O7	O	1.667828	0.176391	0.114331
Zn8	Zn	1.485086	0.184793	0.150619
Zn9	Zn	1.485103	0.184800	-0.150545
O10	O	1.476686	0.367533	0.114327
C11	C	1.255557	0.191966	0.000031
C12	C	1.116114	0.188275	0.000027
C13	C	0.905600	0.297338	0.000033
C14	C	1.036620	0.300816	0.000025
C15	C	1.064581	0.072247	0.000024
C16	C	0.933563	0.068770	0.000022
C17	C	1.492263	-0.044740	0.000033
C18	C	1.488570	-0.184183	0.000024
C19	C	1.486845	-0.249692	-0.124573
C20	C	1.483365	-0.380713	-0.124567
C21	C	1.483341	-0.380704	0.124644
C22	C	1.486812	-0.249685	0.124636
C23	C	1.488603	-0.184191	-0.249185
C24	C	1.486879	-0.249700	-0.373792
C25	C	1.483399	-0.380721	-0.373786
C26	C	1.481643	-0.446232	-0.249173
C27	C	1.714632	0.177628	0.000039
C28	C	1.854075	0.181319	0.000034
C29	C	1.477926	0.414334	0.000037
C30	C	1.481619	0.553777	0.000038
N31	N	1.485084	0.184788	0.356155
N32	N	1.485115	0.184796	-0.356082
C33	C	1.569751	0.100186	0.428083
C34	C	1.569764	0.100187	0.571966
C35	C	1.400439	0.269402	0.571981
C36	C	1.400421	0.269394	0.428100
H37	H	0.891612	-0.025712	0.000018
C38	C	1.740455	0.074534	0.733748
C39	C	1.662833	0.007193	0.651033
H40	H	1.797907	0.017118	0.782565
H41	H	1.786071	0.127223	0.677607
H42	H	1.690026	0.124916	0.797185
H43	H	1.713261	-0.043182	0.587589
H44	H	1.617213	-0.045517	0.707178
H45	H	1.638687	0.031293	0.369508
H46	H	1.078565	0.395290	0.000023
H47	H	1.331510	0.338288	0.630573
C48	C	1.590024	-0.434217	0.337066
C49	C	1.481421	-0.452711	0.261612
H50	H	1.588835	-0.478666	0.421628
H51	H	1.662554	-0.464633	0.285873
H52	H	1.592323	-0.346808	0.354887
H53	H	1.479127	-0.540120	0.243783
H54	H	1.408872	-0.422301	0.312816
C55	C	1.380063	-0.196144	0.337013
C56	C	1.488689	-0.177654	0.261587
H57	H	1.381217	-0.151675	0.421562
H58	H	1.307548	-0.165749	0.285788
H59	H	1.377769	-0.283551	0.354859
H60	H	1.490978	-0.090248	0.243731
H61	H	1.561222	-0.208043	0.312822
H62	H	1.491440	-0.077508	-0.249204
C63	C	0.742038	0.426022	-0.117473
C64	C	0.818222	0.421047	0.000029
H65	H	0.688093	0.502394	-0.117472
H66	H	0.793736	0.422631	-0.197168
H67	H	0.692604	0.356422	-0.117454
H68	H	0.867664	0.490643	0.000005
H69	H	0.766519	0.424451	0.079745
H70	H	1.331469	0.338288	0.369533
H71	H	1.488297	-0.196351	-0.475247
C72	C	1.277840	-0.023914	0.000043
C73	C	1.151959	-0.051463	0.000031
H74	H	1.331779	-0.100291	0.000060
H75	H	1.293569	0.023601	-0.079664
H76	H	1.293547	0.023616	0.079758
H77	H	1.136249	-0.098985	-0.079689
H78	H	1.136223	-0.098998	0.079747
H79	H	1.481982	-0.434053	-0.475246
H80	H	1.478791	-0.552915	-0.249178
