data_functionalizedCrystal
_audit_creation_method	'MofGen! by Chris Wilmer'
_symmetry_space_group_name_H-M	'P1'
_symmetry_Int_Tables_number	1
_symmetry_cell_setting	triclinic
loop_
_symmetry_equiv_pos_as_xyz
  x,y,z
_cell_length_a	14.044220
_cell_length_b	10.654550
_cell_length_c	9.130313
_cell_angle_alpha	90.000276
_cell_angle_beta	89.994483
_cell_angle_gamma	91.163096
loop_
_atom_site_label
_atom_site_type_symbol
_atom_site_fract_x
_atom_site_fract_y
_atom_site_fract_z
O1	O	0.133232	-1.681228	-0.121694
O2	O	0.145925	-1.317025	-0.121721
O3	O	0.001558	-1.493660	-0.121693
O4	O	0.277599	-1.504593	-0.121721
O5	O	0.001554	-1.493646	0.121906
O6	O	0.145921	-1.317011	0.121878
O7	O	0.133227	-1.681214	0.121905
Cu8	Cu	0.139574	-1.499112	0.144134
Cu9	Cu	0.139579	-1.499128	-0.143950
O10	O	0.277595	-1.504580	0.121877
C11	C	0.144991	-1.270127	0.000075
C12	C	0.142202	-1.130403	0.000065
C13	C	-0.033790	-1.488867	0.000106
C14	C	-0.139110	-1.474592	0.000107
C15	C	0.134162	-1.728113	0.000106
C16	C	0.136950	-1.867836	0.000106
C17	C	-0.331943	-1.448493	0.000084
C18	C	-0.388910	-1.549741	0.000087
C19	C	-0.496209	-1.535219	0.000074
C20	C	-0.224634	-1.463013	0.000097
C21	C	0.312943	-1.509372	0.000075
C22	C	0.418262	-1.523648	0.000064
N23	N	0.139570	-1.499109	0.346757
C24	C	0.227204	-1.059459	0.000061
C25	C	0.224578	-0.928175	0.000086
C26	C	0.051942	-0.938790	0.000115
C27	C	0.054569	-1.070072	0.000100
N28	N	0.139575	-1.499139	-0.346572
C29	C	0.075671	-1.577355	0.423421
C30	C	0.075671	-1.577367	0.576758
C31	C	0.203477	-1.420885	0.576753
C32	C	0.203472	-1.420867	0.423419
H33	H	-0.357098	-1.647328	-0.000004
C34	C	0.323603	-1.125819	0.000041
N35	N	0.396213	-1.175797	0.000034
H36	H	0.293795	-0.870417	0.000086
H37	H	0.255506	-1.357144	0.360995
H38	H	-0.019406	-0.889652	0.000152
H39	H	0.023638	-1.641080	0.639173
C40	C	0.273764	-1.334820	0.661095
N41	N	0.326705	-1.269994	0.724621
C42	C	0.005370	-1.663412	0.339098
N43	N	-0.047587	-1.728230	0.275590
C44	C	-0.374919	-1.316665	0.000093
N45	N	-0.407299	-1.217373	0.000112
H46	H	-0.014653	-1.127837	0.000108
