data_functionalizedCrystal
_audit_creation_method	'MofGen! by Chris Wilmer'
_symmetry_space_group_name_H-M	'P1'
_symmetry_Int_Tables_number	1
_symmetry_cell_setting	triclinic
loop_
_symmetry_equiv_pos_as_xyz
  x,y,z
_cell_length_a	15.298709
_cell_length_b	25.639240
_cell_length_c	15.296720
_cell_angle_alpha	99.632790
_cell_angle_beta	107.326335
_cell_angle_gamma	99.728959
loop_
_atom_site_label
_atom_site_type_symbol
_atom_site_fract_x
_atom_site_fract_y
_atom_site_fract_z
Zn1	Zn	1.330590	-0.102606	-0.280156
Zn2	Zn	1.357390	-0.171759	-0.124654
Zn3	Zn	1.202006	-0.102641	-0.151536
Zn4	Zn	1.175024	-0.208324	-0.306952
O5	O	1.266252	-0.146332	-0.215824
O6	O	1.464278	-0.096462	-0.237064
O7	O	1.359286	-0.147302	0.001900
O8	O	1.219138	-0.029467	-0.168633
O9	O	1.483968	-0.147268	-0.122818
O10	O	1.313608	-0.029441	-0.263130
O11	O	1.245125	-0.096521	-0.017850
O12	O	1.068293	-0.131977	-0.194616
O13	O	1.173153	-0.209588	-0.433518
O14	O	1.048470	-0.209622	-0.308800
O15	O	1.287446	-0.131918	-0.413831
O16	O	1.333123	-0.249778	-0.148801
O17	O	1.199140	-0.276642	-0.282734
C18	C	1.024639	-0.174771	-0.257533
C19	C	0.921272	-0.186953	-0.275398
C20	C	0.862434	-0.233140	-0.343145
C21	C	0.765314	-0.244584	-0.359939
C22	C	0.727023	-0.209843	-0.308983
C23	C	0.785863	-0.163657	-0.241231
C24	C	0.882992	-0.152210	-0.224440
C25	C	0.747581	-0.128913	-0.190278
C26	C	0.806421	-0.082726	-0.122525
C27	C	0.903540	-0.071281	-0.105737
C28	C	0.941830	-0.106022	-0.156693
C29	C	0.650453	-0.140360	-0.207069
C30	C	0.671011	-0.059429	-0.088364
C31	C	0.768130	-0.047985	-0.071570
C32	C	1.266134	-0.282182	-0.215774
C33	C	1.266162	-0.340292	-0.215769
C34	C	1.315454	-0.700609	-0.265131
C35	C	1.315478	-0.755213	-0.265145
O36	O	1.357244	-0.783420	-0.307067
N37	N	1.266366	-0.782567	-0.215892
C38	C	1.217218	-0.755316	-0.166629
O39	O	1.175446	-0.783597	-0.124738
C40	C	1.217189	-0.700715	-0.166621
C41	C	1.266313	-0.673362	-0.215870
C42	C	1.364572	-0.673257	-0.314377
C43	C	1.364549	-0.618657	-0.314361
C44	C	1.315408	-0.591410	-0.265099
C45	C	1.266290	-0.618762	-0.215854
C46	C	1.168037	-0.673467	-0.117365
C47	C	1.168012	-0.618862	-0.117361
C48	C	1.217135	-0.591509	-0.166610
C49	C	1.217125	-0.536915	-0.166577
N50	N	1.266238	-0.509561	-0.215830
C51	C	1.315379	-0.536809	-0.265091
C52	C	1.217282	-0.869983	-0.166651
C53	C	1.217316	-0.924582	-0.166653
C54	C	1.315574	-0.924475	-0.265171
C55	C	1.315545	-0.869874	-0.265163
C56	C	1.266394	-0.842629	-0.215905
C57	C	1.315328	-0.422145	-0.265054
C58	C	1.315304	-0.367540	-0.265031
C59	C	1.217042	-0.367652	-0.166517
C60	C	1.217069	-0.422252	-0.166536
C61	C	1.266214	-0.449497	-0.215812
O62	O	1.175378	-0.508674	-0.124680
O63	O	1.357134	-0.508523	-0.306986
C64	C	1.508809	-0.117783	-0.173953
C65	C	1.612172	-0.105617	-0.156110
C66	C	1.224300	-0.174828	-0.458356
C67	C	1.206422	-0.186971	-0.561709
C68	C	1.266393	-0.009952	-0.215891
C69	C	1.266454	0.048166	-0.215919
C70	C	1.394061	-0.059448	-0.812041
C71	C	1.410864	-0.048039	-0.714935
C72	C	1.359755	-0.082771	-0.676624
C73	C	1.291840	-0.128914	-0.735428
C74	C	1.275041	-0.140326	-0.832542
C75	C	1.240735	-0.163649	-0.697125
C76	C	1.172820	-0.209792	-0.755929
C77	C	1.156024	-0.221202	-0.853034
C78	C	1.207133	-0.186470	-0.891345
C79	C	1.257534	-0.152237	-0.600010
C80	C	1.138514	-0.233115	-0.620512
C81	C	1.121711	-0.244524	-0.717617
C82	C	1.308095	-0.117904	0.025773
C83	C	1.326153	-0.105592	0.129156
H84	H	0.717413	-0.282189	-0.415103
H85	H	1.096898	-0.261397	-0.589319
C86	C	0.628906	-0.021211	-0.032307
H87	H	0.677856	0.007940	0.010438
H88	H	0.598012	-0.040874	0.001723
H89	H	0.584879	-0.007112	-0.074510
H90	H	1.373440	-0.073479	-0.597555
H91	H	0.951444	-0.033671	-0.050574
H92	H	1.404546	-0.596390	-0.354466
C93	C	0.832858	0.002820	0.002947
H94	H	0.896182	0.004661	0.005640
H95	H	0.827734	0.000692	0.062696
H96	H	0.814598	0.034453	-0.013538
H97	H	1.312830	-0.114667	-0.552141
C98	C	1.369332	-0.337456	-0.319216
H99	H	1.398591	-0.361509	-0.348564
H100	H	1.416020	-0.307197	-0.276682
H101	H	1.326703	-0.325113	-0.365847
C102	C	1.418639	-0.703219	-0.368562
H103	H	1.447889	-0.679100	-0.397879
H104	H	1.376055	-0.733476	-0.415203
H105	H	1.465354	-0.715554	-0.326021
C106	C	0.585737	-0.191162	-0.281586
H107	H	0.522409	-0.193003	-0.284297
H108	H	0.604001	-0.222793	-0.265111
H109	H	0.590866	-0.189026	-0.341336
C110	C	1.188652	-0.199023	-0.998162
H111	H	1.140886	-0.231478	-1.027699
H112	H	1.244853	-0.203581	-1.009767
H113	H	1.168798	-0.169754	-1.022923
H114	H	1.355339	-0.444323	-0.305186
H115	H	1.435672	-0.031177	-0.843243
C116	C	1.081323	-0.271958	-0.917715
H117	H	1.053284	-0.291007	-0.880995
H118	H	1.110316	-0.295006	-0.949447
H119	H	1.034272	-0.261172	-0.962600
C120	C	1.369561	-0.839794	-0.319355
H121	H	1.398822	-0.863848	-0.348699
H122	H	1.416247	-0.809531	-0.276830
H123	H	1.326925	-0.827457	-0.365991
H124	H	1.355586	-0.946670	-0.305284
H125	H	1.177327	-0.946845	-0.126538
C126	C	1.113992	-0.703545	-0.063198
H127	H	1.084716	-0.679492	-0.033874
H128	H	1.156598	-0.715894	-0.016564
H129	H	1.067301	-0.733801	-0.105749
C130	C	0.904553	-0.271346	-0.399193
H131	H	0.970823	-0.257914	-0.379487
H132	H	0.877845	-0.272965	-0.464442
H133	H	0.890989	-0.306732	-0.388217
C134	C	1.048663	-0.093432	-0.138219
H135	H	1.078224	-0.060951	-0.090570
H136	H	1.060276	-0.088909	-0.194451
H137	H	1.073402	-0.122671	-0.118219
C138	C	1.047013	-0.295280	-0.782302
H139	H	1.018973	-0.314331	-0.745585
H140	H	1.076009	-0.318326	-0.814035
H141	H	0.999962	-0.284494	-0.827187
H142	H	1.177261	-0.847801	-0.126531
H143	H	1.127984	-0.596682	-0.077251
H144	H	1.466162	-0.010471	-0.667063
H145	H	0.647943	-0.219163	-0.322662
H146	H	1.177078	-0.444522	-0.126425
H147	H	1.177035	-0.345458	-0.126406
