data_functionalizedCrystal
_audit_creation_method	'MofGen! by Chris Wilmer'
_symmetry_space_group_name_H-M	'P1'
_symmetry_Int_Tables_number	1
_symmetry_cell_setting	triclinic
loop_
_symmetry_equiv_pos_as_xyz
  x,y,z
_cell_length_a	15.995292
_cell_length_b	15.995350
_cell_length_c	10.268362
_cell_angle_alpha	89.996947
_cell_angle_beta	89.994242
_cell_angle_gamma	83.480495
loop_
_atom_site_label
_atom_site_type_symbol
_atom_site_fract_x
_atom_site_fract_y
_atom_site_fract_z
O1	O	1.111016	0.107695	-0.108329
O2	O	0.867234	0.121074	-0.108323
O3	O	0.995789	-0.007504	-0.108325
O4	O	0.982461	0.236274	-0.108327
O5	O	0.995778	-0.007510	0.108276
O6	O	0.867223	0.121069	0.108278
O7	O	1.111005	0.107690	0.108272
Cu8	Cu	0.989113	0.114379	0.128052
Cu9	Cu	0.989126	0.114385	-0.128103
O10	O	0.982450	0.236268	0.108274
C11	C	0.836033	0.120527	-0.000022
C12	C	0.743080	0.118894	-0.000020
C13	C	0.405341	0.112893	-0.000035
C14	C	0.428654	0.205697	-0.000519
C15	C	0.525329	0.207461	-0.000025
C16	C	0.572897	0.115871	-0.000028
C17	C	0.543789	0.069470	0.123657
C18	C	0.446999	0.068353	0.123756
C19	C	0.447156	0.066464	-0.122560
C20	C	0.543648	0.069903	-0.124189
C21	C	0.667593	0.117549	-0.000020
C22	C	0.310646	0.111212	-0.000034
C23	C	0.995232	-0.038702	-0.000027
C24	C	0.993580	-0.131652	-0.000034
C25	C	0.987648	-0.469398	-0.000030
C26	C	0.896094	-0.421945	-0.000513
C27	C	0.897746	-0.325255	-0.000025
C28	C	0.990591	-0.301838	-0.000033
C29	C	1.035742	-0.342928	0.123653
C30	C	1.033442	-0.439563	0.123757
C31	C	1.035346	-0.439916	-0.122559
C32	C	1.035325	-0.342970	-0.124193
C33	C	0.992259	-0.207141	-0.000030
C34	C	0.985983	-0.564095	-0.000024
C35	C	1.142206	0.108237	-0.000032
C36	C	1.235159	0.109870	-0.000043
C37	C	0.983006	0.267466	-0.000027
C38	C	0.984658	0.360416	-0.000028
N39	N	0.989110	0.114374	0.308218
N40	N	0.989136	0.114383	-0.308269
C41	C	0.989122	0.114383	0.573888
C42	C	0.989112	0.114381	0.426051
H43	H	0.399631	0.241268	0.087683
C44	C	0.993360	-0.304588	0.248009
N45	N	0.961432	-0.275711	0.341671
C46	C	1.124248	-0.483150	0.131351
N47	N	1.192642	-0.515976	0.137080
H48	H	0.575657	0.002072	0.128255
C49	C	1.127886	-0.323848	0.129881
N50	N	1.197287	-0.309469	0.134576
C51	C	1.126797	-0.322243	-0.134286
N52	N	1.195699	-0.306635	-0.141876
C53	C	0.988940	-0.464282	0.248662
N54	N	0.955417	-0.482896	0.342740
H55	H	0.862006	-0.297385	0.088791
C56	C	0.994911	-0.467648	-0.249207
N57	N	0.964445	-0.488534	-0.344593
H58	H	1.002313	-0.315713	-0.215693
H59	H	1.102849	-0.471691	-0.123395
C60	C	0.849790	-0.286842	-0.119799
N61	N	0.813663	-0.257913	-0.210013
C62	C	0.551047	0.256504	-0.119852
N63	N	0.570416	0.293429	-0.210125
C64	C	0.570871	0.113000	0.248014
N65	N	0.591265	0.145794	0.341676
C66	C	0.408997	0.105749	-0.249212
N67	N	0.380257	0.135350	-0.344600
C68	C	0.390834	0.254030	-0.120347
N69	N	0.362343	0.290435	-0.210606
H70	H	0.543728	0.244015	0.088788
H71	H	0.420177	0.100484	0.216215
C72	C	0.427339	-0.023570	0.131349
N73	N	0.412534	-0.092806	0.137077
H74	H	0.562223	0.103688	-0.215691
H75	H	0.576619	0.003052	-0.131662
C76	C	0.428250	-0.025819	-0.123696
N77	N	0.414003	-0.095323	-0.124542
C78	C	0.846656	-0.446976	-0.120331
N79	N	0.809418	-0.465837	-0.210578
C80	C	0.846879	-0.448381	0.118675
N81	N	0.809817	-0.468287	0.208460
