data_functionalizedCrystal
_audit_creation_method	'MofGen! by Chris Wilmer'
_symmetry_space_group_name_H-M	'P1'
_symmetry_Int_Tables_number	1
_symmetry_cell_setting	triclinic
loop_
_symmetry_equiv_pos_as_xyz
  x,y,z
_cell_length_a	14.519709
_cell_length_b	14.519709
_cell_length_c	9.130313
_cell_angle_alpha	89.994534
_cell_angle_beta	90.002092
_cell_angle_gamma	83.680145
loop_
_atom_site_label
_atom_site_type_symbol
_atom_site_fract_x
_atom_site_fract_y
_atom_site_fract_z
O1	O	1.223866	0.120891	-0.121612
O2	O	1.557200	0.454224	0.211722
O3	O	1.890533	0.787558	0.545055
O4	O	0.955389	0.135128	-0.121657
O5	O	1.288723	0.468461	0.211676
O6	O	1.622056	0.801794	0.545010
O7	O	1.096746	-0.006229	-0.121620
O8	O	1.430079	0.327104	0.211713
O9	O	1.763413	0.660438	0.545047
O10	O	1.082509	0.262248	-0.121649
O11	O	1.415843	0.595581	0.211685
O12	O	1.749176	0.928914	0.545018
O13	O	1.096736	-0.006233	0.121979
O14	O	1.430070	0.327100	0.455312
O15	O	1.763403	0.660433	0.788645
O16	O	0.955380	0.135124	0.121942
O17	O	1.288713	0.468457	0.455275
O18	O	1.622046	0.801790	0.788609
O19	O	1.223857	0.120887	0.121987
O20	O	1.557190	0.454220	0.455320
O21	O	1.890523	0.787554	0.788654
Cu22	Cu	1.089617	0.128005	0.144207
Cu23	Cu	1.422951	0.461338	0.477540
Cu24	Cu	1.756284	0.794672	0.810874
Cu25	Cu	1.089629	0.128010	-0.143877
Cu26	Cu	1.422962	0.461343	0.189456
Cu27	Cu	1.756295	0.794676	0.522790
O28	O	1.082500	0.262244	0.121950
O29	O	1.415833	0.595577	0.455283
O30	O	1.749166	0.928910	0.788617
C31	C	0.921025	0.134462	0.000137
C32	C	1.254358	0.467795	0.333470
C33	C	1.587691	0.801129	0.666803
C34	C	0.818643	0.132474	0.000120
C35	C	1.151977	0.465807	0.333453
C36	C	1.485310	0.799141	0.666787
C37	C	1.096078	-0.040591	0.000180
C38	C	1.429411	0.292742	0.333513
C39	C	1.762744	0.626076	0.666846
C40	C	1.094090	-0.142972	0.000180
C41	C	1.427423	0.190361	0.333513
C42	C	1.760756	0.523694	0.666847
C43	C	0.443748	0.125154	0.000187
C44	C	0.777081	0.458488	0.333521
C45	C	1.110414	0.791821	0.666854
C46	C	0.548056	0.127187	0.000168
C47	C	0.881389	0.460520	0.333502
C48	C	1.214722	0.793854	0.666835
C49	C	0.631192	0.128814	0.000152
C50	C	0.964526	0.462147	0.333486
C51	C	1.297859	0.795481	0.666819
C52	C	0.735507	0.130847	0.000136
C53	C	1.068840	0.464180	0.333469
C54	C	1.402173	0.797514	0.666803
C55	C	1.086770	-0.517868	0.000141
C56	C	1.420103	-0.184535	0.333474
C57	C	1.753437	0.148799	0.666807
C58	C	1.088803	-0.413560	0.000152
C59	C	1.422136	-0.080227	0.333485
C60	C	1.755469	0.253107	0.666819
C61	C	1.090430	-0.330423	0.000162
C62	C	1.423763	0.002910	0.333495
C63	C	1.757096	0.336243	0.666828
C64	C	1.092463	-0.226109	0.000170
C65	C	1.425796	0.107224	0.333504
C66	C	1.759129	0.440558	0.666837
C67	C	1.258221	0.121553	0.000190
C68	C	1.591554	0.454886	0.333523
C69	C	1.924888	0.788219	0.666857
C70	C	1.360602	0.123541	0.000197
C71	C	1.693936	0.456874	0.333531
C72	C	2.027269	0.790207	0.666864
C73	C	1.083168	0.296605	0.000147
C74	C	1.416502	0.629939	0.333481
C75	C	1.749835	0.963272	0.666814
C76	C	1.085156	0.398987	0.000137
C77	C	1.418490	0.732320	0.333471
C78	C	1.751823	1.065653	0.666804
N79	N	1.089616	0.128001	0.346830
N80	N	1.422949	0.461334	0.680163
N81	N	1.756283	0.794668	1.013496
N82	N	1.089637	0.128006	-0.346500
N83	N	1.422971	0.461340	-0.013166
N84	N	1.756304	0.794673	0.320167
C85	C	1.152230	0.065434	0.423498
C86	C	1.485563	0.398768	0.756831
C87	C	1.818896	0.732101	1.090164
C88	C	1.152238	0.065435	0.576835
C89	C	1.485572	0.398768	0.910168
C90	C	1.818905	0.732101	1.243501
C91	C	1.027017	0.190576	0.576822
C92	C	1.360350	0.523909	0.910155
C93	C	1.693683	0.857243	1.243488
C94	C	1.027004	0.190571	0.423487
C95	C	1.360338	0.523904	0.756821
C96	C	1.693671	0.857237	1.090154
H97	H	1.203211	0.014485	0.361087
H98	H	1.536544	0.347818	0.694420
H99	H	1.869877	0.681152	1.027753
H100	H	1.203223	0.014486	0.639254
H101	H	1.536556	0.347819	0.972587
H102	H	1.869890	0.681153	1.305920
C103	C	0.958128	0.259399	0.339147
C104	C	1.291461	0.592733	0.672480
C105	C	1.624795	0.926066	1.005813
H106	H	0.920850	0.296673	0.406760
H107	H	1.254183	0.630007	0.740093
H108	H	1.587516	0.963340	1.073426
H109	H	0.919685	0.226134	0.279344
H110	H	1.253019	0.559468	0.612677
H111	H	1.586352	0.892801	0.946011
H112	H	0.991365	0.297864	0.279318
H113	H	1.324698	0.631198	0.612651
H114	H	1.658031	0.964531	0.945985
H115	H	0.976041	0.241520	0.639252
H116	H	1.309374	0.574853	0.972585
H117	H	1.642708	0.908187	1.305918
