data_functionalizedCrystal
_audit_creation_method	'MofGen! by Chris Wilmer'
_symmetry_space_group_name_H-M	'P1'
_symmetry_Int_Tables_number	1
_symmetry_cell_setting	triclinic
loop_
_symmetry_equiv_pos_as_xyz
  x,y,z
_cell_length_a	16.625546
_cell_length_b	15.297475
_cell_length_c	15.296720
_cell_angle_alpha	88.382886
_cell_angle_beta	80.357530
_cell_angle_gamma	80.324704
loop_
_atom_site_label
_atom_site_type_symbol
_atom_site_fract_x
_atom_site_fract_y
_atom_site_fract_z
Zn1	Zn	-0.627523	1.253404	0.726565
Zn2	Zn	-0.743625	1.278668	0.580074
Zn3	Zn	-0.582227	1.132282	0.554808
Zn4	Zn	-0.735700	1.106894	0.701203
O5	O	-0.672269	1.192812	0.640662
O6	O	-0.665198	1.379334	0.728320
O7	O	-0.706576	1.280447	0.454149
O8	O	-0.475417	1.148401	0.577632
O9	O	-0.750498	1.397894	0.620694
O10	O	-0.508696	1.237389	0.703821
O11	O	-0.587997	1.172898	0.435586
O12	O	-0.580312	1.006336	0.553039
O13	O	-0.736989	1.105131	0.827141
O14	O	-0.693068	0.987683	0.660595
O15	O	-0.657513	1.212772	0.845774
O16	O	-0.855392	1.255829	0.596102
O17	O	-0.849569	1.129628	0.685095
C18	C	-0.630915	0.965226	0.601324
C19	C	-0.613246	0.867861	0.584516
C20	C	-0.798559	0.554716	0.760796
C21	C	-0.815166	0.646196	0.776586
C22	C	-0.764687	0.701616	0.728570
C23	C	-0.697599	0.665548	0.664761
C24	C	-0.680995	0.574060	0.648965
C25	C	-0.647123	0.720961	0.616739
C26	C	-0.580034	0.684892	0.552930
C27	C	-0.563433	0.593412	0.537137
C28	C	-0.613911	0.537992	0.585153
C29	C	-0.663727	0.812449	0.632535
C30	C	-0.546163	0.831793	0.520704
C31	C	-0.529556	0.740313	0.504914
C32	C	-0.881740	1.192735	0.640611
C33	C	-0.971371	1.192778	0.640633
C34	C	-1.299586	1.192915	0.640750
C35	C	-1.208266	1.192873	0.640720
C36	C	-1.135481	1.192845	0.640691
C37	C	-1.044156	1.192805	0.640661
C38	C	-0.461986	1.192909	0.640737
C39	C	-0.372377	1.192951	0.640769
C40	C	-0.701420	1.153301	0.869128
C41	C	-0.713842	1.136464	0.966487
C42	C	-0.713785	1.421286	0.680155
C43	C	-0.731476	1.518648	0.696984
C44	C	-0.643182	1.232219	0.413094
C45	C	-0.630564	1.249226	0.315765
C46	C	-0.583349	1.313182	1.279731
C47	C	-0.571680	1.329006	1.188259
C48	C	-0.607219	1.280872	1.132811
C49	C	-0.654430	1.216911	1.168845
C50	C	-0.666105	1.201089	1.260327
C51	C	-0.689976	1.168779	1.113407
C52	C	-0.737187	1.104818	1.149441
C53	C	-0.748860	1.088999	1.240914
C54	C	-0.713320	1.137133	1.296362
C55	C	-0.678300	1.184601	1.021925
C56	C	-0.761057	1.072508	1.002521
C57	C	-0.772726	1.056684	1.093994
H58	H	-0.600392	0.463500	0.572302
O59	O	-0.632309	1.246624	0.986953
C60	C	-0.551341	1.223660	1.006054
H61	H	-0.537765	1.149334	1.019103
H62	H	-0.505200	1.241631	0.947221
H63	H	-0.545582	1.261445	1.067284
H64	H	-0.787310	1.036924	1.270251
O65	O	-0.728811	0.847419	0.694638
C66	C	-0.718414	0.809962	0.778110
H67	H	-0.650025	0.784048	0.778319
H68	H	-0.741863	0.862646	0.831762
H69	H	-0.754945	0.752904	0.791748
H70	H	-0.811165	1.004605	1.123345
H71	H	-0.508812	0.564050	0.485171
H72	H	-0.533243	1.381086	1.158927
H73	H	-0.474932	0.710933	0.452960
H74	H	-0.554423	1.352371	1.324884
H75	H	-0.505060	0.876917	0.481604
O76	O	-0.795720	1.025832	0.948724
C77	C	-0.882402	1.041056	0.974366
H78	H	-0.902398	1.106682	1.011610
H79	H	-0.913181	1.043899	0.912886
H80	H	-0.901720	0.984899	1.019336
O81	O	-0.780909	0.790456	0.744047
C82	C	-0.850957	0.810410	0.810646
H83	H	-0.859287	0.748849	0.852697
H84	H	-0.842034	0.865868	0.854505
H85	H	-0.908193	0.832648	0.778593
H86	H	-0.839656	0.509586	0.799878
O87	O	-0.880341	0.681081	0.838625
C88	C	-0.921346	0.612555	0.877603
H89	H	-0.876885	0.546817	0.869447
H90	H	-0.943653	0.627068	0.951164
H91	H	-0.976656	0.608367	0.843719
H92	H	-0.722819	1.124252	1.370847
O93	O	-0.595769	1.296321	1.043969
C94	C	-0.546495	1.363110	1.024056
H95	H	-0.508353	1.366288	1.078914
H96	H	-0.503285	1.347276	0.958303
H97	H	-0.588000	1.429771	1.018849
