data_functionalizedCrystal
_audit_creation_method	'MofGen! by Chris Wilmer'
_symmetry_space_group_name_H-M	'P1'
_symmetry_Int_Tables_number	1
_symmetry_cell_setting	triclinic
loop_
_symmetry_equiv_pos_as_xyz
  x,y,z
_cell_length_a	6.817900
_cell_length_b	10.943624
_cell_length_c	10.943867
_cell_angle_alpha	91.774148
_cell_angle_beta	108.843261
_cell_angle_gamma	108.838799
loop_
_atom_site_label
_atom_site_type_symbol
_atom_site_fract_x
_atom_site_fract_y
_atom_site_fract_z
V1	V	-4.115528	-0.402537	-0.178599
O2	O	-4.073202	-0.394889	0.008617
O3	O	-4.093511	-0.399769	-0.354166
O4	O	-4.093490	-0.578103	-0.175837
O5	O	-4.073223	-0.215320	-0.170946
V6	V	-4.592321	-0.380146	-0.156208
O7	O	-4.391548	-0.451653	-0.227717
O8	O	-4.766498	-0.331030	-0.107090
O9	O	-4.391132	-0.382913	0.019359
O10	O	-4.752044	-0.387794	-0.343425
O11	O	-4.752023	-0.567362	-0.163861
O12	O	-4.391153	-0.204579	-0.158970
C13	C	-3.944077	-0.393415	-0.396966
C14	C	-4.007537	-0.392323	-0.540494
C15	C	-4.236980	-0.398403	-0.631377
C16	C	-4.234083	-0.501327	-0.730484
C17	C	-4.123503	-0.287478	-0.697130
C18	C	-4.003849	-0.495350	-0.637725
C19	C	-3.893244	-0.281406	-0.604349
C20	C	-3.890203	-0.384352	-0.703417
C21	C	-3.944049	-0.620897	-0.169488
C22	C	-4.007489	-0.764423	-0.168391
C23	C	-3.852317	-0.841571	-0.161004
C24	C	-4.041696	-0.947552	-0.270650
C25	C	-3.931175	-0.914183	-0.056802
C26	C	-4.196078	-0.868528	-0.278140
C27	C	-4.085477	-0.835135	-0.064195
C28	C	-4.274992	-0.941086	-0.173873
C29	C	-4.203909	-0.389264	0.062152
C30	C	-4.119688	-0.390364	0.205678
C31	C	-4.203936	-0.161779	-0.165324
C32	C	-4.119733	-0.018251	-0.166414
H33	H	-3.748608	-0.188434	-0.549581
C34	C	-3.610229	-0.782861	-0.153855
N35	N	-3.427895	-0.738637	-0.148479
H36	H	-3.952800	-0.583305	-0.611364
H37	H	-4.174768	-0.199626	-0.723670
H38	H	-4.307478	-0.847976	-0.371785
H39	H	-3.819809	-0.934953	0.036718
H40	H	-4.103238	-0.786158	0.023090
C41	C	-4.434227	-0.406626	-0.588352
N42	N	-4.582790	-0.412827	-0.555943
C43	C	-4.017584	-1.013685	-0.388554
N44	N	-3.999406	-1.063493	-0.477353
H45	H	-3.744035	-0.378430	-0.735038
C46	C	-4.517246	-0.999559	-0.181282
N47	N	-4.699716	-1.043623	-0.186878
C48	C	-4.429554	-0.626925	-0.804441
N49	N	-4.576792	-0.721522	-0.860141
