data_functionalizedCrystal
_audit_creation_method	'MofGen! by Chris Wilmer'
_symmetry_space_group_name_H-M	'P1'
_symmetry_Int_Tables_number	1
_symmetry_cell_setting	triclinic
loop_
_symmetry_equiv_pos_as_xyz
  x,y,z
_cell_length_a	17.038272
_cell_length_b	17.038275
_cell_length_c	13.101018
_cell_angle_alpha	86.400870
_cell_angle_beta	86.398422
_cell_angle_gamma	88.888330
loop_
_atom_site_label
_atom_site_type_symbol
_atom_site_fract_x
_atom_site_fract_y
_atom_site_fract_z
O1	O	0.166503	-1.052785	0.085067
O2	O	0.163793	-0.824975	0.085101
O3	O	0.051242	-0.937525	0.085076
O4	O	0.279053	-0.940234	0.085092
O5	O	0.059324	-0.929440	-0.085352
O6	O	0.171875	-0.816890	-0.085327
O7	O	0.174585	-1.044700	-0.085362
Zn8	Zn	0.174513	-0.929511	-0.112404
Zn9	Zn	0.163864	-0.940163	0.112143
O10	O	0.287135	-0.932149	-0.085337
C11	C	0.165371	-0.791640	-0.000109
C12	C	0.158022	-0.704357	-0.000096
C13	C	0.225485	-0.658748	-0.000091
C14	C	0.218577	-0.576735	-0.000104
C15	C	0.144204	-0.540334	-0.000114
C16	C	0.076735	-0.585949	-0.000122
C17	C	0.083645	-0.667959	-0.000116
C18	C	0.119794	-0.292945	-0.000139
C19	C	0.112889	-0.210928	-0.000141
C20	C	0.254731	-0.201720	-0.000125
C21	C	0.261634	-0.283733	-0.000113
C22	C	0.194166	-0.329341	-0.000126
C23	C	0.137140	-0.456504	-0.000124
C24	C	0.201230	-0.413168	-0.000124
C25	C	0.025991	-0.931020	-0.000138
C26	C	-0.061293	-0.923672	-0.000136
C27	C	-0.106902	-0.991135	-0.000147
C28	C	-0.188914	-0.984227	-0.000137
C29	C	-0.225316	-0.909854	-0.000122
C30	C	-0.179702	-0.842386	-0.000108
C31	C	-0.097691	-0.849296	-0.000111
C32	C	-0.472705	-0.885444	-0.000104
C33	C	-0.554721	-0.878540	-0.000104
C34	C	-0.563928	-1.020381	-0.000131
C35	C	-0.481916	-1.027284	-0.000141
C36	C	-0.436309	-0.959816	-0.000121
C37	C	-0.309146	-0.902791	-0.000114
C38	C	-0.352481	-0.966881	-0.000121
C39	C	0.312387	-0.938654	-0.000120
C40	C	0.399670	-0.946003	-0.000115
N41	N	0.181780	-0.922247	-0.265651
C42	C	0.173006	-0.078035	-0.000145
C43	C	0.180352	-0.165319	-0.000137
C44	C	0.146700	-0.957312	-0.525568
C45	C	0.191669	-0.912371	-0.474685
C46	C	0.186165	-0.917867	-0.358368
C47	C	0.152203	-0.951816	-0.641896
N48	N	0.156591	-0.947433	0.265391
H49	H	0.273513	-0.539604	-0.000099
H50	H	0.261785	-0.442810	-0.000121
O51	O	0.095928	-1.008137	-0.473172
C52	C	0.044055	-1.059988	-0.307771
C53	C	0.101587	-1.002398	-0.366997
H54	H	0.048599	-1.055356	-0.221918
H55	H	0.059471	-1.122612	-0.328726
H56	H	-0.018546	-1.044591	-0.328834
H57	H	0.164207	-1.017723	-0.345966
H58	H	0.086104	-0.939790	-0.346037
H59	H	-0.322840	-1.027435	-0.000111
O60	O	0.242553	-0.861483	-0.526766
C61	C	0.340982	-0.763215	-0.515731
C62	C	0.283376	-0.820791	-0.456618
H63	H	0.374014	-0.730312	-0.459042
H64	H	0.306851	-0.719317	-0.565940
H65	H	0.384768	-0.797438	-0.565984
H66	H	0.239576	-0.786634	-0.406309
H67	H	0.317558	-0.864688	-0.406474
O68	O	-0.608113	-1.085993	-0.000184
C69	C	-0.608592	-1.227413	-0.000132
C70	C	-0.558459	-1.153167	-0.000103
H71	H	-0.568469	-1.281742	-0.000045
H72	H	-0.643823	-1.224401	-0.071470
H73	H	-0.650612	-1.231060	0.071178
H74	H	-0.516396	-1.149473	-0.071365
H75	H	-0.523283	-1.156210	0.071282
O76	O	0.297794	-0.693977	-0.000125
C77	C	0.437748	-0.676181	-0.000054
C78	C	0.355906	-0.636186	-0.000036
H79	H	0.484753	-0.629476	0.000040
H80	H	0.447966	-0.710946	-0.071391
H81	H	0.441107	-0.717743	0.071257
H82	H	0.352490	-0.594587	-0.071298
H83	H	0.345724	-0.601470	0.071349
O84	O	0.054175	-0.337126	-0.000102
C85	C	-0.087238	-0.337594	-0.000182
C86	C	-0.012988	-0.287461	-0.000199
H87	H	-0.141557	-0.297460	-0.000282
H88	H	-0.090994	-0.379580	0.071157
H89	H	-0.084123	-0.372860	-0.071491
H90	H	-0.016052	-0.252146	0.071061
H91	H	-0.009259	-0.245525	-0.071586
O92	O	-0.428501	-0.819855	0.000040
C93	C	-0.399701	-0.704944	0.088374
C94	C	-0.449829	-0.779192	0.088330
H95	H	-0.416914	-0.672055	0.159759
H96	H	-0.410195	-0.665180	0.017101
H97	H	-0.334834	-0.722663	0.088322
H98	H	-0.514713	-0.761544	0.088418
H99	H	-0.439268	-0.818936	0.159596
H100	H	0.016180	-0.556303	-0.000145
O101	O	-0.071589	-1.063407	0.000022
C102	C	-0.058590	-1.190954	0.088273
C103	C	-0.098621	-1.109128	0.088215
H104	H	-0.080443	-1.227948	0.159558
H105	H	0.007863	-1.184356	0.088338
H106	H	-0.073595	-1.221153	0.016914
H107	H	-0.083679	-1.078884	0.159562
H108	H	-0.165064	-1.115780	0.088097
O109	O	0.018029	-0.712152	-0.000070
C110	C	-0.123385	-0.712632	-0.000143
C111	C	-0.049139	-0.662493	-0.000167
H112	H	-0.177707	-0.672503	-0.000244
H113	H	-0.127135	-0.754615	0.071200
H114	H	-0.120269	-0.747902	-0.071449
H115	H	-0.052204	-0.627175	0.071090
H116	H	-0.045415	-0.620559	-0.071557
H117	H	0.076587	-0.426855	-0.000162
O118	O	0.333859	-0.319125	0.000102
C119	C	0.419764	-0.410552	0.088447
C120	C	0.337943	-0.370521	0.088319
H121	H	0.423087	-0.452126	0.159751
H122	H	0.466814	-0.363890	0.088526
H123	H	0.429946	-0.445317	0.017106
H124	H	0.327685	-0.335759	0.159647
H125	H	0.290936	-0.417220	0.088186
O126	O	-0.233298	-1.049695	-0.000283
C127	C	-0.327028	-1.120041	-0.088608
C128	C	-0.276817	-1.045850	-0.088563
H129	H	-0.362213	-1.116965	-0.159985
H130	H	-0.369079	-1.123740	-0.017327
H131	H	-0.286913	-1.174376	-0.088574
H132	H	-0.316870	-0.991473	-0.088633
H133	H	-0.234758	-1.042220	-0.159837
O134	O	-0.446478	-1.099496	-0.000012
C135	C	-0.363459	-1.193828	0.088299
C136	C	-0.403530	-1.112022	0.088272
H137	H	-0.328739	-1.203987	0.159679
H138	H	-0.321866	-1.197246	0.017021
H139	H	-0.410161	-1.240840	0.088244
H140	H	-0.356883	-1.064962	0.088363
H141	H	-0.445139	-1.108670	0.159543
H142	H	-0.584356	-0.817973	-0.000108
H143	H	-0.209347	-0.781830	-0.000089
H144	H	-0.338793	-0.842236	-0.000104
H145	H	0.309659	-0.164578	-0.000116
H146	H	0.052323	-0.181293	-0.000149
H147	H	-0.060557	-0.794360	-0.000102
