data_functionalizedCrystal
_audit_creation_method	'MofGen! by Chris Wilmer'
_symmetry_space_group_name_H-M	'P1'
_symmetry_Int_Tables_number	1
_symmetry_cell_setting	triclinic
loop_
_symmetry_equiv_pos_as_xyz
  x,y,z
_cell_length_a	10.540539
_cell_length_b	10.723024
_cell_length_c	9.798715
_cell_angle_alpha	90.003391
_cell_angle_beta	89.998989
_cell_angle_gamma	95.503320
loop_
_atom_site_label
_atom_site_type_symbol
_atom_site_fract_x
_atom_site_fract_y
_atom_site_fract_z
O1	O	0.178046	-1.657276	-0.113475
O2	O	0.195088	-1.294132	-0.113479
O3	O	0.001856	-1.483989	-0.113475
O4	O	0.371278	-1.467419	-0.113479
O5	O	0.001856	-1.483974	0.113507
O6	O	0.195088	-1.294118	0.113503
O7	O	0.178045	-1.657262	0.113507
Zn8	Zn	0.186567	-1.475687	0.149543
Zn9	Zn	0.186567	-1.475706	-0.149515
O10	O	0.371277	-1.467405	0.113503
C11	C	-0.045446	-1.482739	0.000013
C12	C	-0.186392	-1.479021	0.000006
C13	C	0.193848	-1.247624	0.000011
C14	C	0.190137	-1.109068	0.000010
C15	C	0.179286	-1.703769	0.000013
C16	C	0.182997	-1.842325	0.000006
C17	C	-0.369746	-1.336563	-0.000505
C18	C	-0.223130	-1.340332	0.000006
C19	C	-0.248085	-1.545757	0.129625
C20	C	-0.394627	-1.541023	0.129734
C21	C	-0.395146	-1.543860	-0.128387
C22	C	-0.248165	-1.545138	-0.130101
C23	C	0.418580	-1.468654	0.000012
C24	C	0.559526	-1.472372	0.000010
N25	N	0.186565	-1.475684	0.353643
C26	C	0.298260	-1.034139	0.000008
C27	C	0.294427	-0.890934	0.000006
N28	N	0.186559	-1.475720	-0.353615
C29	C	0.105075	-1.555399	0.421421
C30	C	0.105071	-1.555419	0.578584
H31	H	-0.180499	-1.287821	-0.092910
Br32	Br	-0.473943	-1.710823	-0.129842
H33	H	0.035308	-1.623672	0.636871
Br34	Br	-0.153476	-1.252169	0.155123
Br35	Br	0.028706	-0.949625	-0.000008
Br36	Br	-0.179198	-1.464448	-0.289950
Br37	Br	0.302863	-1.361969	0.549253
H38	H	0.094732	-1.067199	-0.000024
Br39	Br	-0.011530	-1.668813	0.324225
H40	H	0.256325	-1.407446	0.411966
Br41	Br	-0.441593	-1.458795	0.291222
Br42	Br	-0.420653	-1.245344	0.153079
Br43	Br	-0.417360	-1.245252	-0.155435
Br44	Br	-0.474670	-1.707261	0.139554
H45	H	-0.223995	-1.646253	-0.137927
H46	H	0.386988	-0.826548	-0.000001
H47	H	-0.225783	-1.647606	0.134445
Br48	Br	-0.447678	-1.469045	-0.292134
Br49	Br	-0.177049	-1.468476	0.290398
H50	H	0.393665	-1.076009	0.000015
