data_functionalizedCrystal
_audit_creation_method	'MofGen! by Chris Wilmer'
_symmetry_space_group_name_H-M	'P1'
_symmetry_Int_Tables_number	1
_symmetry_cell_setting	triclinic
loop_
_symmetry_equiv_pos_as_xyz
  x,y,z
_cell_length_a	18.050589
_cell_length_b	13.897449
_cell_length_c	13.897449
_cell_angle_alpha	90.008641
_cell_angle_beta	90.007547
_cell_angle_gamma	90.029048
loop_
_atom_site_label
_atom_site_type_symbol
_atom_site_fract_x
_atom_site_fract_y
_atom_site_fract_z
Zn1	Zn	-0.295768	1.474492	0.545467
Zn2	Zn	0.204232	1.974492	1.045467
Zn3	Zn	-0.419929	1.474397	0.384177
Zn4	Zn	0.080071	1.974397	0.884177
Zn5	Zn	-0.295759	1.313222	0.384178
Zn6	Zn	0.204241	1.813222	0.884178
Zn7	Zn	-0.419923	1.313133	0.545422
Zn8	Zn	0.080077	1.813133	1.045422
O9	O	-0.357845	1.393811	0.464811
O10	O	0.142155	1.893811	0.964811
O11	O	-0.312245	1.609461	0.524090
O12	O	0.187755	2.109461	1.024090
O13	O	-0.403456	1.453015	0.249195
O14	O	0.096544	1.953015	0.749195
O15	O	-0.191835	1.334692	0.405594
O16	O	0.308165	1.834692	0.905594
O17	O	-0.403465	1.609392	0.405591
O18	O	0.096535	2.109392	0.905591
O19	O	-0.191843	1.453176	0.524092
O20	O	0.308157	1.953176	1.024092
O21	O	-0.312228	1.334601	0.249197
O22	O	0.187772	1.834601	0.749197
O23	O	-0.312223	1.178229	0.405549
O24	O	0.187777	1.678229	0.905549
O25	O	-0.403455	1.334539	0.680409
O26	O	0.096545	1.834539	1.180409
O27	O	-0.403446	1.178163	0.524014
O28	O	0.096554	1.678163	1.024014
O29	O	-0.312239	1.453089	0.680443
O30	O	0.187761	1.953089	1.180443
O31	O	-0.523852	1.452929	0.405546
O32	O	-0.023852	1.952929	0.905546
O33	O	-0.523848	1.334448	0.524012
O34	O	-0.023848	1.834448	1.024012
C35	C	-0.357833	1.143197	0.464777
C36	C	0.142167	1.643197	0.964777
C37	C	-0.357846	1.035983	0.464786
C38	C	0.142154	1.535983	0.964786
C39	C	-0.357849	0.948913	0.464802
C40	C	0.142151	1.448913	0.964802
C41	C	-0.357854	0.839680	0.464831
C42	C	0.142146	1.339680	0.964831
C43	C	-0.550797	1.393695	0.464795
C44	C	-0.050797	1.893695	0.964795
C45	C	-0.633343	1.393733	0.464820
C46	C	-0.133343	1.893733	0.964820
C47	C	-0.832818	1.329367	0.529220
C48	C	-0.332818	1.829367	1.029220
C49	C	-0.882239	1.305872	0.441200
C50	C	-0.382239	1.805872	0.941200
C51	C	-0.784473	1.393828	0.464833
C52	C	-0.284473	1.893828	0.964833
C53	C	-0.882133	1.417369	0.552863
C54	C	-0.382133	1.917369	1.052863
C55	C	-0.930458	1.393917	0.464853
C56	C	-0.430458	1.893917	0.964853
C57	C	-0.832807	1.370287	0.376767
C58	C	-0.332807	1.870287	0.876767
C59	C	-0.832696	1.481825	0.488489
C60	C	-0.332696	1.981825	0.988489
C61	C	-0.882096	1.458364	0.400409
C62	C	-0.382096	1.958364	0.900409
C63	C	-0.700375	1.393774	0.464823
C64	C	-0.200375	1.893774	0.964823
C65	C	-1.014554	1.393972	0.464853
C66	C	-0.514554	1.893972	0.964853
C67	C	-0.164139	1.393954	0.464848
C68	C	0.335861	1.893954	0.964848
C69	C	-0.081593	1.394015	0.464864
C70	C	0.418407	1.894015	0.964864
C71	C	-0.357848	1.393815	0.716404
C72	C	0.142152	1.893815	1.216404
C73	C	-0.357849	1.393816	0.823618
C74	C	0.142151	1.893816	1.323618
C75	C	-0.357857	1.645404	0.464845
C76	C	0.142143	2.145404	0.964845
C77	C	-0.357862	1.752618	0.464860
C78	C	0.142138	2.252618	0.964860
C79	C	-0.357852	1.393792	1.019913
C80	C	0.142148	1.893792	1.519913
C81	C	-0.357853	1.393802	0.910681
C82	C	0.142147	1.893802	1.410681
C83	C	-0.357857	1.393798	1.214197
C84	C	0.142143	1.893798	1.714197
C85	C	-0.357851	1.393791	1.106983
C86	C	0.142149	1.893791	1.606983
H87	H	-0.904018	1.231498	0.421210
H88	H	-0.404018	1.731498	0.921210
H89	H	-0.810920	1.556183	0.508521
H90	H	-0.310920	2.056183	1.008521
O91	O	-0.806949	1.346442	0.288006
O92	O	-0.306949	1.846442	0.788006
C93	C	-0.728843	1.346666	0.289071
C94	C	-0.228843	1.846666	0.789071
H95	H	-0.708393	1.335865	0.365924
H96	H	-0.208393	1.835865	0.865924
H97	H	-0.707329	1.285843	0.241664
H98	H	-0.207329	1.785843	0.741664
H99	H	-0.707648	1.418468	0.260487
H100	H	-0.207648	1.918468	0.760487
H101	H	-0.903597	1.512915	0.345904
H102	H	-0.403597	2.012915	0.845904
O103	O	-0.907857	1.441144	0.641710
O104	O	-0.407857	1.941144	1.141710
C105	C	-0.847534	1.456855	0.704240
C106	C	-0.347534	1.956855	1.204240
H107	H	-0.796253	1.476000	0.660353
H108	H	-0.296253	1.976000	1.160353
H109	H	-0.861160	1.518533	0.755339
H110	H	-0.361160	2.018533	1.255339
H111	H	-0.836411	1.388741	0.747591
H112	H	-0.336411	1.888741	1.247591
O113	O	-0.807032	1.264113	0.593977
O114	O	-0.307032	1.764113	1.093977
C115	C	-0.832295	1.171481	0.568692
C116	C	-0.332295	1.671481	1.068692
H117	H	-0.846165	1.169734	0.488683
H118	H	-0.346165	1.669734	0.988683
H119	H	-0.787164	1.116413	0.584722
H120	H	-0.287164	1.616413	1.084722
H121	H	-0.883984	1.153391	0.612225
H122	H	-0.383984	1.653391	1.112225
