data_functionalizedCrystal
_audit_creation_method	'MofGen! by Chris Wilmer'
_symmetry_space_group_name_H-M	'P1'
_symmetry_Int_Tables_number	1
_symmetry_cell_setting	triclinic
loop_
_symmetry_equiv_pos_as_xyz
  x,y,z
_cell_length_a	17.699077
_cell_length_b	15.995362
_cell_length_c	16.776229
_cell_angle_alpha	90.001972
_cell_angle_beta	90.005198
_cell_angle_gamma	96.611022
loop_
_atom_site_label
_atom_site_type_symbol
_atom_site_fract_x
_atom_site_fract_y
_atom_site_fract_z
O1	O	1.004260	-0.105857	0.066268
O2	O	1.337594	0.227476	0.399601
O3	O	1.670927	0.560810	0.732935
O4	O	0.783905	-0.119638	0.066271
O5	O	1.117238	0.213695	0.399604
O6	O	1.450572	0.547029	0.732937
O7	O	0.900101	0.009152	0.066275
O8	O	1.233435	0.342485	0.399608
O9	O	1.566768	0.675819	0.732942
O10	O	0.888064	-0.234647	0.066264
O11	O	1.221397	0.098687	0.399597
O12	O	1.554731	0.432020	0.732931
O13	O	0.900088	0.009152	-0.066301
O14	O	1.233422	0.342485	0.267032
O15	O	1.566755	0.675819	0.600365
O16	O	0.783892	-0.119638	-0.066306
O17	O	1.117225	0.213696	0.267028
O18	O	1.450558	0.547029	0.600361
O19	O	1.004247	-0.105857	-0.066308
O20	O	1.337581	0.227477	0.267025
O21	O	1.670914	0.560810	0.600358
Zn22	Zn	0.894067	-0.112747	-0.087356
Zn23	Zn	1.227401	0.220586	0.245977
Zn24	Zn	1.560734	0.553920	0.579310
Zn25	Zn	0.894085	-0.112748	0.087319
Zn26	Zn	1.227418	0.220586	0.420652
Zn27	Zn	1.560751	0.553919	0.753986
O28	O	0.888051	-0.234646	-0.066313
O29	O	1.221384	0.098687	0.267021
O30	O	1.554717	0.432020	0.600354
C31	C	0.755700	-0.119145	-0.000017
C32	C	1.089034	0.214188	0.333316
C33	C	1.422367	0.547522	0.666650
C34	C	0.671680	-0.117666	-0.000015
C35	C	1.005013	0.215667	0.333318
C36	C	1.338346	0.549001	0.666651
C37	C	0.632204	-0.116969	-0.072284
C38	C	0.965537	0.216364	0.261050
C39	C	1.298870	0.549698	0.594383
C40	C	0.553259	-0.115566	-0.072284
C41	C	0.886592	0.217767	0.261049
C42	C	1.219926	0.551101	0.594382
C43	C	0.513790	-0.114866	-0.000016
C44	C	0.847124	0.218467	0.333317
C45	C	1.180457	0.551800	0.666651
C46	C	0.553272	-0.115561	0.072258
C47	C	0.886605	0.217773	0.405591
C48	C	1.219939	0.551106	0.738924
C49	C	0.632216	-0.116958	0.072258
C50	C	0.965550	0.216376	0.405591
C51	C	1.298883	0.549709	0.738924
C52	C	0.234899	-0.109926	0.072259
C53	C	0.568232	0.223407	0.405593
C54	C	0.901566	0.556741	0.738926
C55	C	0.155949	-0.108532	0.072254
C56	C	0.489282	0.224802	0.405587
C57	C	0.822616	0.558135	0.738921
C58	C	0.155942	-0.108535	-0.072283
C59	C	0.489275	0.224799	0.261051
C60	C	0.822608	0.558132	0.594384
C61	C	0.234886	-0.109931	-0.072283
C62	C	0.568219	0.223402	0.261051
C63	C	0.901553	0.556735	0.594384
C64	C	0.274361	-0.110621	-0.000009
C65	C	0.607695	0.222712	0.333324
C66	C	0.941028	0.556045	0.666657
C67	C	0.359962	-0.112141	-0.000009
C68	C	0.693296	0.221192	0.333324
C69	C	1.026629	0.554526	0.666657
C70	C	0.428190	-0.113353	-0.000015
C71	C	0.761523	0.219981	0.333318
C72	C	1.094857	0.553314	0.666651
C73	C	0.899596	0.040346	-0.000010
C74	C	1.232929	0.373679	0.333323
C75	C	1.566262	0.707012	0.666657
C76	C	0.898099	0.133292	-0.000001
C77	C	1.231432	0.466626	0.333333
C78	C	1.564765	0.799959	0.666666
C79	C	0.892723	0.471027	0.000015
C80	C	1.226056	0.804360	0.333348
C81	C	1.559390	1.137693	0.666681
C82	C	0.809968	0.423423	0.000311
C83	C	1.143302	0.756756	0.333644
C84	C	1.476635	1.090089	0.666977
C85	C	0.811465	0.326736	0.000007
C86	C	1.144799	0.660069	0.333340
C87	C	1.478132	0.993403	0.666673
C88	C	0.895389	0.303473	0.000007
C89	C	1.228723	0.636806	0.333341
C90	C	1.562056	0.970139	0.666674
C91	C	0.936199	0.344634	-0.075697
C92	C	1.269532	0.677967	0.257636
C93	C	1.602865	1.011301	0.590969
C94	C	0.934116	0.441265	-0.075756
C95	C	1.267449	0.774598	0.257578
C96	C	1.600783	1.107932	0.590911
C97	C	0.935841	0.441626	0.075009
C98	C	1.269174	0.774960	0.408342
C99	C	1.602507	1.108293	0.741675
C100	C	0.935825	0.344682	0.076004
C101	C	1.269158	0.678015	0.409337
C102	C	1.602492	1.011348	0.742671
C103	C	0.896901	0.208779	0.000001
C104	C	1.230234	0.542112	0.333334
C105	C	1.563567	0.875446	0.666667
C106	C	0.891214	0.565721	0.000016
C107	C	1.224547	0.899054	0.333349
C108	C	1.557881	1.232388	0.666682
C109	C	1.032452	-0.106350	-0.000019
C110	C	1.365785	0.226984	0.333314
C111	C	1.699118	0.560317	0.666648
C112	C	1.116473	-0.107829	-0.000015
C113	C	1.449806	0.225505	0.333318
C114	C	1.783139	0.558838	0.666652
N115	N	0.894061	-0.112746	-0.206568
N116	N	1.227394	0.220587	0.126766
N117	N	1.560728	0.553920	0.460099
C118	C	0.888547	0.734158	-0.000013
C119	C	1.221880	1.067492	0.333321
C120	C	1.555213	1.400825	0.666654
C121	C	0.890014	0.641207	0.000023
C122	C	1.223347	0.974541	0.333356
C123	C	1.556680	1.307874	0.666689
C124	C	0.939963	-0.163466	-0.248284
C125	C	1.273296	0.169867	0.085049
C126	C	1.606629	0.503200	0.418382
C127	C	0.939971	-0.163463	-0.331736
C128	C	1.273304	0.169870	0.001597
C129	C	1.606638	0.503204	0.334930
C130	C	0.894073	-0.112744	-0.373471
C131	C	1.227407	0.220589	-0.040137
C132	C	1.560740	0.553923	0.293196
C133	C	0.848170	-0.062018	-0.331748
C134	C	1.181503	0.271315	0.001585
C135	C	1.514837	0.604649	0.334919
C136	C	0.848166	-0.062017	-0.248297
C137	C	1.181500	0.271316	0.085036
C138	C	1.514833	0.604649	0.418369
C139	C	0.848185	-0.062019	-0.668295
C140	C	1.181519	0.271314	-0.334962
C141	C	1.514852	0.604648	-0.001629
C142	C	0.848191	-0.062026	-0.751752
C143	C	1.181524	0.271308	-0.418418
C144	C	1.514858	0.604641	-0.085085
C145	C	0.939990	-0.163465	-0.751734
C146	C	1.273323	0.169868	-0.418401
C147	C	1.606657	0.503202	-0.085068
C148	C	0.939986	-0.163464	-0.668284
C149	C	1.273320	0.169869	-0.334950
C150	C	1.606653	0.503203	-0.001617
C151	C	0.894086	-0.112735	-0.626568
C152	C	1.227420	0.220598	-0.293235
C153	C	1.560753	0.553931	0.040098
C154	C	0.894079	-0.112738	-0.536080
C155	C	1.227412	0.220595	-0.202747
C156	C	1.560745	0.553928	0.130587
C157	C	0.894076	-0.112745	-0.463957
C158	C	1.227410	0.220588	-0.130624
C159	C	1.560743	0.553922	0.202709
N160	N	0.894097	-0.112742	0.206530
N161	N	1.227430	0.220592	0.539863
N162	N	1.560764	0.553925	0.873197
H163	H	0.267031	-0.110485	0.131109
H164	H	0.600364	0.222848	0.464442
H165	H	0.933697	0.556181	0.797776
H166	H	0.521123	-0.114985	-0.131133
H167	H	0.854456	0.218349	0.202201
H168	H	1.187790	0.551682	0.535534
H169	H	0.994873	0.473638	-0.079187
H170	H	1.328206	0.806971	0.254146
H171	H	1.661540	1.140305	0.587479
O172	O	0.277456	-0.110705	-0.150228
O173	O	0.610789	0.222628	0.183105
O174	O	0.944122	0.555961	0.516439
H175	H	0.236742	-0.109984	-0.200483
H176	H	0.570075	0.223349	0.132851
H177	H	0.903409	0.556682	0.466184
O178	O	0.798672	-0.007311	-0.376766
O179	O	1.132005	0.326022	-0.043433
O180	O	1.465339	0.659356	0.289900
H181	H	0.815150	0.059636	-0.360753
H182	H	1.148484	0.392969	-0.027419
H183	H	1.481817	0.726302	0.305914
O184	O	1.016896	0.324506	0.082060
O185	O	1.350229	0.657839	0.415394
O186	O	1.683562	0.991173	0.748727
H187	H	1.043739	0.354528	0.136310
H188	H	1.377073	0.687862	0.469643
H189	H	1.710406	1.021195	0.802976
O190	O	0.768677	0.289734	-0.072005
O191	O	1.102010	0.623067	0.261328
O192	O	1.435344	0.956401	0.594661
H193	H	0.769591	0.220468	-0.072470
H194	H	1.102924	0.553801	0.260863
H195	H	1.436258	0.887135	0.594197
O196	O	0.674766	-0.117729	-0.150235
O197	O	1.008099	0.215605	0.183099
O198	O	1.341433	0.548938	0.516432
H199	H	0.736292	-0.118827	-0.138097
H200	H	1.069626	0.214507	0.195237
H201	H	1.402959	0.547840	0.528570
O202	O	0.989479	-0.218172	-0.376727
O203	O	1.322813	0.115161	-0.043394
O204	O	1.656146	0.448495	0.289939
H205	H	0.981781	-0.209646	-0.441767
H206	H	1.315114	0.123687	-0.108434
H207	H	1.648447	0.457021	0.224899
O208	O	0.989488	-0.218169	-0.623268
O209	O	1.322821	0.115164	-0.289935
O210	O	1.656155	0.448498	0.043399
H211	H	1.021413	-0.253434	-0.666297
H212	H	1.354747	0.079900	-0.332964
H213	H	1.688080	0.413233	0.000369
O214	O	0.113322	-0.108176	-0.150239
O215	O	0.446655	0.225158	0.183095
O216	O	0.779988	0.558491	0.516428
H217	H	0.051780	-0.107222	-0.138102
H218	H	0.385113	0.226112	0.195231
H219	H	0.718447	0.559445	0.528564
H220	H	0.777032	0.442949	-0.053676
H221	H	1.110365	0.776282	0.279658
H222	H	1.443699	1.109616	0.612991
H223	H	0.664356	-0.117527	0.131106
H224	H	0.997689	0.215806	0.464439
H225	H	1.331023	0.549140	0.797773
H226	H	0.779386	0.298248	0.054275
H227	H	1.112719	0.631581	0.387608
H228	H	1.446053	0.964915	0.720942
H229	H	0.521131	-0.114985	0.131100
H230	H	0.854465	0.218348	0.464433
H231	H	1.187798	0.551682	0.797767
O232	O	0.113378	-0.107748	0.150203
O233	O	0.446711	0.225585	0.483537
O234	O	0.780045	0.558918	0.816870
H235	H	0.154091	-0.108446	0.200460
H236	H	0.487425	0.224887	0.533794
H237	H	0.820758	0.558220	0.867127
H238	H	0.977333	-0.204773	-0.214310
H239	H	1.310667	0.128560	0.119023
H240	H	1.644000	0.461894	0.452356
O241	O	0.896359	0.308437	0.150193
O242	O	1.229692	0.641771	0.483526
O243	O	1.563025	0.975104	0.816859
H244	H	0.925271	0.337883	0.203637
H245	H	1.258605	0.671217	0.536970
H246	H	1.591938	1.004550	0.870304
H247	H	0.997855	0.330635	-0.078512
H248	H	1.331188	0.663969	0.254821
H249	H	1.664522	0.997302	0.588155
H250	H	0.776896	0.441886	0.054602
H251	H	1.110229	0.775219	0.387936
H252	H	1.443562	1.108553	0.721269
H253	H	0.977366	-0.204769	-0.785709
H254	H	1.310699	0.128565	-0.452376
H255	H	1.644033	0.461898	-0.119042
H256	H	0.810814	-0.020721	-0.785729
H257	H	1.144147	0.312612	-0.452396
H258	H	1.477480	0.645946	-0.119063
O259	O	0.894674	0.465436	-0.150711
O260	O	1.228007	0.798770	0.182622
O261	O	1.561340	1.132103	0.515956
H262	H	0.877261	0.408133	-0.186574
H263	H	1.210594	0.741466	0.146760
H264	H	1.543927	1.074800	0.480093
H265	H	0.907844	0.316195	-0.132039
H266	H	1.241177	0.649528	0.201295
H267	H	1.574510	0.982861	0.534628
H268	H	0.908788	0.462110	0.132391
H269	H	1.242122	0.795443	0.465724
H270	H	1.575455	1.128777	0.799058
O271	O	1.016663	0.483857	0.075700
O272	O	1.349996	0.817190	0.409034
O273	O	1.683330	1.150524	0.742367
H274	H	1.016273	0.553156	0.077984
H275	H	1.349606	0.886490	0.411318
H276	H	1.682939	1.219823	0.744651
O277	O	0.798673	-0.007317	-0.623306
O278	O	1.132006	0.326016	-0.289973
O279	O	1.465340	0.659349	0.043361
H280	H	0.766752	0.027940	-0.666349
H281	H	1.100085	0.361273	-0.333016
H282	H	1.433418	0.694607	0.000318
H283	H	0.810788	-0.020716	-0.214333
H284	H	1.144122	0.312617	0.119001
H285	H	1.477455	0.645951	0.452334
