data_functionalizedCrystal
_audit_creation_method	'MofGen! by Chris Wilmer'
_symmetry_space_group_name_H-M	'P1'
_symmetry_Int_Tables_number	1
_symmetry_cell_setting	triclinic
loop_
_symmetry_equiv_pos_as_xyz
  x,y,z
_cell_length_a	15.538191
_cell_length_b	16.109301
_cell_length_c	15.186229
_cell_angle_alpha	89.988022
_cell_angle_beta	90.008440
_cell_angle_gamma	114.633213
loop_
_atom_site_label
_atom_site_type_symbol
_atom_site_fract_x
_atom_site_fract_y
_atom_site_fract_z
O1	O	1.249995	0.270048	0.073231
O2	O	0.975707	0.174040	0.073233
O3	O	1.120386	0.345347	0.073223
O4	O	1.105316	0.098741	0.073241
O5	O	1.120373	0.345361	-0.073234
O6	O	0.975694	0.174054	-0.073224
O7	O	1.249982	0.270062	-0.073226
Zn8	Zn	1.112836	0.222060	-0.096479
Zn9	Zn	1.112853	0.222042	0.096485
O10	O	1.105303	0.098755	-0.073216
C11	C	0.940602	0.164002	0.000005
C12	C	0.836019	0.134081	0.000005
C13	C	0.548320	0.431335	-0.000003
C14	C	0.450045	0.403199	-0.000000
C15	C	0.427554	0.244941	0.000011
C16	C	0.525828	0.273063	0.000004
C17	C	0.586204	0.366262	-0.000002
C18	C	0.563712	0.207990	0.000005
C19	C	0.661978	0.236111	0.000003
C20	C	0.722360	0.329305	-0.000000
C21	C	0.684470	0.394382	-0.000004
C22	C	0.503335	0.114793	0.000018
C23	C	0.541219	0.049719	0.000019
C24	C	0.639487	0.077840	0.000010
C25	C	0.699869	0.171034	0.000007
C26	C	0.677377	0.012763	0.000014
C27	C	0.775643	0.040883	0.000011
C28	C	0.798135	0.199155	0.000004
C29	C	1.119769	0.376145	-0.000006
C30	C	1.117939	0.467888	-0.000007
C31	C	1.285087	0.280100	0.000004
C32	C	1.389670	0.310020	0.000009
C33	C	1.105920	0.067957	0.000015
C34	C	1.107750	-0.023786	0.000022
N35	N	1.112832	0.222076	-0.228171
C36	C	1.199533	0.714764	0.000006
C37	C	1.197806	0.800964	0.000013
C38	C	1.026149	0.729329	0.000011
C39	C	1.027877	0.643131	0.000010
C40	C	1.114572	0.635852	0.000003
C41	C	1.111117	0.808250	0.000011
C42	C	1.109244	0.901711	0.000019
C43	C	1.116446	0.542385	-0.000003
N44	N	1.112864	0.222035	0.228178
C45	C	1.177034	0.297832	0.546092
C46	C	1.177039	0.297827	0.453902
C47	C	1.048655	0.146274	0.453921
C48	C	1.048647	0.146283	0.546109
C49	C	1.112842	0.222062	0.592192
C50	C	1.112855	0.222048	0.407815
C51	C	1.112859	0.222042	0.307858
C52	C	1.112837	0.222070	0.692155
H53	H	0.733632	0.470273	-0.000014
H54	H	0.597482	0.507226	-0.000013
H55	H	1.266990	0.865214	0.000017
O56	O	0.945278	0.566534	0.000124
C57	C	0.892657	0.565782	0.075986
H58	H	0.915805	0.638547	0.101273
H59	H	0.814081	0.535964	0.058926
H60	H	0.905534	0.522227	0.129101
H61	H	0.996369	0.084580	0.583647
H62	H	0.955565	0.735267	0.000015
H63	H	0.996390	0.084575	0.416391
H64	H	1.229305	0.359537	0.583610
H65	H	1.229309	0.359526	0.416370
H66	H	0.847297	0.275046	-0.000006
O67	O	0.482433	-0.040773	-0.000017
C68	C	0.387576	-0.051642	0.000009
H69	H	0.383816	0.012532	-0.027716
H70	H	0.343043	-0.112860	-0.042511
H71	H	0.359165	-0.063386	0.070274
H72	H	0.802374	0.352199	0.000009
H73	H	0.628205	-0.063119	0.000027
O74	O	0.413353	0.466500	0.000115
C75	C	0.444194	0.521487	0.075976
H76	H	0.512348	0.519403	0.101262
H77	H	0.457840	0.594845	0.058916
H78	H	0.387336	0.494681	0.129092
O79	O	0.368767	0.154449	-0.000024
C80	C	0.273910	0.143580	0.000002
H81	H	0.270150	0.207753	-0.027723
H82	H	0.229377	0.082361	-0.042518
H83	H	0.245500	0.131836	0.070266
H84	H	1.270125	0.708843	0.000002
H85	H	0.806488	-0.012106	0.000004
H86	H	0.423321	0.091900	0.000022
