data_functionalizedCrystal
_audit_creation_method	'MofGen! by Chris Wilmer'
_symmetry_space_group_name_H-M	'P1'
_symmetry_Int_Tables_number	1
_symmetry_cell_setting	triclinic
loop_
_symmetry_equiv_pos_as_xyz
  x,y,z
_cell_length_a	31.640172
_cell_length_b	31.640172
_cell_length_c	14.395555
_cell_angle_alpha	60.005570
_cell_angle_beta	60.002225
_cell_angle_gamma	60.016955
loop_
_atom_site_label
_atom_site_type_symbol
_atom_site_fract_x
_atom_site_fract_y
_atom_site_fract_z
Zr1	Zr	0.407149	0.055538	0.894839
O2	O	0.427846	0.123019	0.746517
O3	O	0.339664	0.034841	0.940314
O4	O	0.339680	0.123006	0.940318
O5	O	0.497366	-0.034680	0.746503
O6	O	0.339681	0.123007	1.093185
O7	O	0.427830	0.034854	0.746513
O8	O	0.339653	-0.034703	1.093177
O9	O	0.497394	0.123031	0.746511
O10	O	0.384751	0.026028	1.073784
O11	O	0.436644	-0.025865	0.959694
O12	O	0.436662	0.077937	0.959699
O13	O	0.488555	0.026043	0.845608
Zr14	Zr	0.518053	-0.055358	1.138629
Zr15	Zr	0.407151	0.055541	1.138645
Zr16	Zr	0.518050	-0.055360	0.894824
Zr17	Zr	0.518070	0.055557	0.894829
Zr18	Zr	0.407131	-0.055377	1.138639
O19	O	0.585537	-0.034661	1.093155
O20	O	0.427849	0.123022	1.093177
O21	O	0.585533	-0.034665	0.746495
O22	O	0.497356	-0.122838	1.286951
O23	O	0.339668	0.034845	1.286974
O24	O	0.497352	-0.122842	0.940291
O25	O	0.427835	0.034860	1.286966
O26	O	0.585521	-0.122825	1.093150
O27	O	0.585520	-0.122827	0.940283
O28	O	0.497371	-0.034674	1.286956
O29	O	0.497396	0.123033	0.940303
O30	O	0.427805	-0.122852	1.093165
O31	O	0.427807	-0.122850	1.286958
O32	O	0.339655	-0.034701	1.286970
O33	O	0.585546	0.034881	0.746498
O34	O	0.585548	0.034883	0.940291
O35	O	0.488539	-0.077757	1.073769
O36	O	0.436646	-0.025863	1.187860
O37	O	0.488557	0.026046	1.073775
O38	O	0.540450	-0.025848	0.959684
C39	C	0.323855	0.000066	1.016747
C40	C	0.276766	0.000058	1.016751
C41	C	0.462576	-0.138651	1.016727
C42	C	0.462568	-0.185738	1.016725
C43	C	-0.015265	0.038412	0.932523
C44	C	-0.192260	0.038426	0.932514
O45	O	-0.215154	0.071024	0.860921
N46	N	-0.214397	0.000114	1.016727
C47	C	-0.192284	-0.038204	1.100952
O48	O	-0.215176	-0.070787	1.172586
C49	C	-0.015291	-0.038215	1.100964
C50	C	0.006846	0.000097	1.016739
C51	C	0.006872	0.076721	0.848305
C52	C	0.051120	0.076716	0.848305
C53	C	0.073231	0.038401	0.932522
C54	C	0.051094	0.000091	1.016739
C55	C	0.006819	-0.076530	1.185193
C56	C	0.051069	-0.076529	1.185190
C57	C	0.073206	-0.038216	1.100966
C58	C	0.117453	-0.038229	1.100955
N59	N	0.139589	0.000083	1.016742
C60	C	0.117478	0.038398	0.932526
C61	C	-0.285207	-0.038195	1.100938
C62	C	-0.329454	-0.038193	1.100934
C63	C	-0.329428	0.038438	0.932497
C64	C	-0.285178	0.038433	0.932497
C65	C	-0.263070	0.000117	1.016725
C66	C	0.210402	0.038384	0.932530
C67	C	0.254655	0.038373	0.932534
C68	C	0.254624	-0.038255	1.100974
C69	C	0.210376	-0.038247	1.100967
C70	C	0.188265	0.000077	1.016740
O71	O	0.140370	-0.070806	1.172518
O72	O	0.140372	0.070984	0.860916
C73	C	-0.059513	0.038418	0.932523
C74	C	-0.081650	0.000108	1.016740
C75	C	-0.059539	-0.038207	1.100957
C76	C	-0.125897	0.000110	1.016736
C77	C	-0.148008	0.038425	0.932520
C78	C	-0.125871	0.076738	0.848307
C79	C	-0.081624	0.076733	0.848306
C80	C	-0.081675	-0.076520	1.185170
C81	C	-0.125923	-0.076511	1.185163
C82	C	-0.148034	-0.038196	1.100946
C83	C	0.435518	-0.494957	0.957165
C84	C	0.435498	-0.317958	0.957168
O85	O	0.412475	-0.272037	0.906490
N86	N	0.462585	-0.322910	1.016716
C87	C	0.489681	-0.372118	1.076261
O88	O	0.512724	-0.372269	1.126901
C89	C	0.489703	-0.549116	1.076251
C90	C	0.462610	-0.544159	1.016708
C91	C	0.408428	-0.490002	0.897626
C92	C	0.408431	-0.534250	0.897631
C93	C	0.435523	-0.583452	0.957175
C94	C	0.462613	-0.588406	1.016713
C95	C	0.516802	-0.598322	1.135789
C96	C	0.516806	-0.642572	1.135778
C97	C	0.489713	-0.637615	1.076236
C98	C	0.489709	-0.681856	1.076262
N99	N	0.462622	-0.676903	1.016714
C100	C	0.435530	-0.627701	0.957170
C101	C	0.489667	-0.279189	1.076264
C102	C	0.489660	-0.234940	1.076268
C103	C	0.435478	-0.180783	0.957173
C104	C	0.435482	-0.225033	0.957176
C105	C	0.462580	-0.274236	1.016716
C106	C	0.435537	-0.720626	0.957186
C107	C	0.435541	-0.764880	0.957200
C108	C	0.489725	-0.819033	1.076290
C109	C	0.489719	-0.774783	1.076281
C110	C	0.462624	-0.725578	1.016721
O111	O	0.512725	-0.727791	1.126902
O112	O	0.412500	-0.627561	0.906517
C113	C	0.435515	-0.450709	0.957160
C114	C	0.462605	-0.455664	1.016698
C115	C	0.489698	-0.504866	1.076242
C116	C	0.462599	-0.411415	1.016703
C117	C	0.435506	-0.362213	0.957159
C118	C	0.408419	-0.357260	0.897611
C119	C	0.408422	-0.401507	0.897616
C120	C	0.516784	-0.509819	1.135790
C121	C	0.516779	-0.465569	1.135781
C122	C	0.489686	-0.416367	1.076238
C123	C	0.601346	0.000114	1.016721
C124	C	0.648435	0.000122	1.016717
C125	C	0.462598	0.000087	0.711771
C126	C	0.462597	0.000086	0.608269
C127	C	0.462625	0.138831	1.016741
C128	C	0.462633	0.185918	1.016743
C129	C	0.434291	-0.028216	0.609884
C130	C	0.483093	-0.048719	0.516863
C131	C	0.413812	0.020574	0.516862
C132	C	0.511427	-0.020445	0.516611
C133	C	0.442110	0.048874	0.516623
C134	C	0.490941	0.028384	0.423585
C135	C	0.462604	0.000093	1.321698
C136	C	0.462605	0.000095	1.425200
C137	C	0.323879	0.138807	1.016754
C138	C	0.276799	0.185886	1.016760
C139	C	0.323858	0.000070	1.321710
C140	C	0.276770	0.000063	1.425217
C141	C	0.462579	-0.138647	1.321691
C142	C	0.462572	-0.185734	1.425190
C143	C	0.462622	0.138828	0.711777
C144	C	0.462629	0.185914	0.608278
C145	C	0.601343	0.000111	0.711758
C146	C	0.648431	0.000118	0.608252
C147	C	0.601322	-0.138627	1.016715
C148	C	0.648402	-0.185706	1.016708
C149	C	0.281786	0.235096	0.957212
C150	C	0.237553	0.279336	0.957223
C151	C	0.188333	0.274366	1.016776
C152	C	0.183347	0.225151	1.076332
C153	C	0.227579	0.180912	1.076327
C154	C	0.227564	0.027151	1.414278
C155	C	0.183315	0.027155	1.511524
C156	C	0.188274	0.000067	1.619707
C157	C	0.237486	-0.027022	1.630643
C158	C	0.281733	-0.027022	1.533399
C159	C	0.435481	-0.180758	1.533359
C160	C	0.435476	-0.224996	1.630617
C161	C	0.462559	-0.274210	1.619704
C162	C	0.489653	-0.279184	1.511524
C163	C	0.489661	-0.234946	1.414268
C164	C	0.489726	0.180938	0.500109
C165	C	0.489744	0.225176	0.402851
C166	C	0.462663	0.274390	0.413764
C167	C	0.435566	0.279365	0.521944
C168	C	0.435551	0.235127	0.619200
C169	C	0.697637	-0.026966	0.619191
C170	C	0.741886	-0.026957	0.521945
C171	C	0.736927	0.000132	0.413761
C172	C	0.687715	0.027218	0.402825
C173	C	0.643468	0.027213	0.500069
C174	C	0.697614	-0.180719	0.957143
C175	C	0.741855	-0.224951	0.957114
C176	C	0.736884	-0.274169	1.016657
C177	C	0.687668	-0.279155	1.076223
C178	C	0.643427	-0.234924	1.076245
H179	H	0.272679	0.069571	0.863941
Cl180	Cl	0.121466	0.218911	1.151183
H181	H	0.462549	-0.310227	1.698905
Cl182	Cl	0.243834	0.341199	0.882342
Cl183	Cl	0.703885	-0.061022	0.755181
H184	H	0.413417	-0.140714	0.908694
H185	H	0.424765	0.090122	0.517597
H186	H	0.223511	0.140845	1.124814
Cl187	Cl	0.182613	0.086562	0.826642
Cl188	Cl	0.523714	-0.241179	1.151141
Cl189	Cl	0.550847	-0.571670	1.210653
Cl190	Cl	0.401479	0.241391	0.755180
Cl191	Cl	0.581563	-0.241202	1.151142
H192	H	0.223516	0.049215	1.326198
H193	H	0.069136	0.107918	0.779729
H194	H	0.143250	0.049213	1.502597
Cl195	Cl	0.523810	0.218911	0.266868
Cl196	Cl	0.132643	0.000072	1.741948
H197	H	0.241516	-0.049075	1.718739
Cl198	Cl	0.343591	-0.061084	1.547171
H199	H	0.500427	-0.089976	0.515933
H200	H	0.511704	-0.319260	1.502655
H201	H	0.511780	-0.859100	1.124775
Cl202	Cl	-0.053801	0.124899	0.742418
H203	H	0.372552	0.037898	0.515956
H204	H	0.781951	-0.049017	0.530872
H205	H	-0.011127	0.107925	0.779724
Cl206	Cl	0.523735	-0.341042	1.151126
Cl207	Cl	0.792558	0.000132	0.291521
Cl208	Cl	0.182549	-0.086414	1.206844
H209	H	0.462680	0.310407	0.334563
H210	H	0.683628	-0.319234	1.124701
Cl211	Cl	0.703876	-0.118850	0.882280
H212	H	-0.267154	0.069627	0.863908
H213	H	0.781925	-0.220881	0.908608
H214	H	0.683685	0.049274	0.314729
H215	H	0.514915	0.052316	0.343956
Cl216	Cl	0.523718	-0.241211	1.278288
Cl217	Cl	0.401433	-0.118895	1.547108
H218	H	-0.347439	0.069636	0.863925
Cl219	Cl	0.374364	-0.395267	0.822753
Cl220	Cl	0.581610	0.061260	0.486298
Cl221	Cl	0.401479	-0.758643	0.882340
H222	H	0.511777	-0.778820	1.124772
Cl223	Cl	0.343658	0.241358	0.882350
Cl224	Cl	0.401409	-0.218730	1.766601
Cl225	Cl	0.132731	0.329987	1.016768
Cl226	Cl	0.523774	0.119075	0.486360
H227	H	-0.347470	-0.069395	1.169508
H228	H	0.413518	0.319440	0.530817
H229	H	0.552707	-0.037817	0.517432
Cl230	Cl	-0.257418	-0.086371	1.206830
Cl231	Cl	-0.020999	-0.124697	1.291082
H232	H	0.772912	-0.310181	1.016629
Cl233	Cl	0.282430	-0.086422	1.206838
Cl234	Cl	0.078858	-0.124698	1.291087
H235	H	-0.143941	-0.107714	1.253749
Cl236	Cl	-0.153675	0.124904	0.742433
H237	H	-0.063678	-0.107720	1.253752
H238	H	0.413474	-0.680566	0.908686
H239	H	0.386366	-0.449942	0.849133
Cl240	Cl	0.374379	-0.528010	0.822753
Cl241	Cl	0.550870	-0.604567	1.210632
Cl242	Cl	0.550875	-0.704427	1.210632
Cl243	Cl	0.374359	-0.295398	0.822760
Cl244	Cl	0.401422	-0.218796	0.882318
H245	H	0.410391	-0.052182	0.689641
Cl246	Cl	0.550841	-0.471810	1.210644
