data_functionalizedCrystal
_audit_creation_method	'MofGen! by Chris Wilmer'
_symmetry_space_group_name_H-M	'P1'
_symmetry_Int_Tables_number	1
_symmetry_cell_setting	triclinic
loop_
_symmetry_equiv_pos_as_xyz
  x,y,z
_cell_length_a	17.077404
_cell_length_b	12.759400
_cell_length_c	17.077396
_cell_angle_alpha	90.025586
_cell_angle_beta	90.019501
_cell_angle_gamma	90.014910
loop_
_atom_site_label
_atom_site_type_symbol
_atom_site_fract_x
_atom_site_fract_y
_atom_site_fract_z
Zn1	Zn	1.200099	-0.418260	0.443859
Zn2	Zn	1.200025	-0.593961	0.312599
Zn3	Zn	1.068831	-0.418297	0.312606
Zn4	Zn	1.068818	-0.593898	0.443823
O5	O	1.134443	-0.506104	0.378222
O6	O	1.309936	-0.441578	0.426459
O7	O	1.182597	-0.570700	0.202753
O8	O	1.086281	-0.271271	0.330035
O9	O	1.309882	-0.570664	0.330023
O10	O	1.182723	-0.271244	0.426466
O11	O	1.086209	-0.441641	0.202759
O12	O	0.958983	-0.441580	0.330001
O13	O	1.086258	-0.570558	0.553674
O14	O	0.958973	-0.570594	0.426405
O15	O	1.182710	-0.441517	0.553701
O16	O	1.182584	-0.740973	0.329988
O17	O	1.086186	-0.740927	0.426398
C18	C	0.930496	-0.506085	0.378200
C19	C	0.843246	-0.506102	0.378209
C20	C	0.802271	-0.573381	0.428326
C21	C	0.720291	-0.573383	0.428339
C22	C	0.679286	-0.506111	0.378230
C23	C	0.720267	-0.438825	0.328111
C24	C	0.802246	-0.438818	0.328103
C25	C	0.549397	-0.438846	0.328130
C26	C	0.467412	-0.438854	0.328136
C27	C	0.467442	-0.573410	0.428366
C28	C	0.549421	-0.573404	0.428358
C29	C	0.590395	-0.506119	0.378237
C30	C	1.134397	-0.779071	0.378205
C31	C	1.134449	-0.895848	0.378225
C32	C	1.184699	-0.950699	0.328080
C33	C	1.184747	-1.060423	0.328104
C34	C	1.084289	-1.060435	0.428420
C35	C	1.084245	-0.950713	0.428399
C36	C	1.234902	-0.895833	0.277905
C37	C	1.285156	-0.950685	0.227755
C38	C	1.285204	-1.060409	0.227780
C39	C	1.234999	-1.115282	0.277954
C40	C	1.339188	-0.506124	0.378244
C41	C	1.426437	-0.506132	0.378253
C42	C	1.134491	-0.506026	0.582966
C43	C	1.134511	-0.505993	0.670216
C44	C	1.134512	-0.232071	0.378255
C45	C	1.134541	-0.115294	0.378270
C46	C	1.134441	-0.506105	0.174274
C47	C	1.134573	-0.505842	0.087025
C48	C	1.184735	-0.438796	0.711221
C49	C	1.184745	-0.438761	0.793202
C50	C	1.134533	-0.505930	0.834175
C51	C	1.084304	-0.573130	0.793165
C52	C	1.084291	-0.573159	0.711186
C53	C	1.084335	-0.573066	0.964035
C54	C	1.084349	-0.573039	1.046019
C55	C	1.184789	-0.438669	1.046051
C56	C	1.184777	-0.438698	0.964072
C57	C	1.134547	-0.505900	0.923066
H58	H	0.434029	-0.384062	0.287342
N59	N	1.030132	-1.119618	0.482520
H60	H	0.998290	-1.068219	0.514284
H61	H	1.062078	-1.165078	0.518885
N62	N	1.030159	-0.645439	1.090213
H63	H	1.037785	-0.635212	1.148368
H64	H	1.042320	-0.720495	1.075891
H65	H	1.225626	-0.384103	0.677866
H66	H	0.582756	-0.384046	0.287323
H67	H	0.686875	-0.384046	0.287314
H68	H	1.225644	-0.384045	0.826584
N69	N	1.238938	-0.366263	0.919875
H70	H	1.270759	-0.323686	0.958290
H71	H	1.206991	-0.317653	0.885861
N72	N	1.238967	-0.366175	1.090261
H73	H	1.275339	-0.408856	1.124279
H74	H	1.207032	-0.317476	1.124226
N75	N	1.030127	-0.645637	0.666949
H76	H	0.993757	-0.602944	0.632937
H77	H	0.998371	-0.688175	0.705389
H78	H	0.835651	-0.628165	0.469129
H79	H	0.686933	-0.628169	0.469149
N80	N	0.846444	-0.366247	0.274054
H81	H	0.808030	-0.323630	0.242311
H82	H	0.880439	-0.408941	0.237668
N83	N	1.234845	-0.777490	0.277875
H84	H	1.274272	-0.751054	0.238481
H85	H	1.249211	-0.751071	0.331756
H86	H	1.326036	-0.906001	0.186910
H87	H	1.043421	-0.627773	0.930651
H88	H	1.326128	-1.105065	0.186951
N89	N	1.235056	-1.233627	0.277989
H90	H	1.274511	-1.260052	0.238612
H91	H	1.181201	-1.260051	0.263542
H92	H	0.434076	-0.628193	0.469178
N93	N	0.593650	-0.645968	0.482395
H94	H	0.555255	-0.688594	0.514148
H95	H	0.627687	-0.603262	0.518773
N96	N	1.030150	-0.645567	0.837368
H97	H	1.042315	-0.720643	0.823097
H98	H	0.974086	-0.629158	0.823082
H99	H	1.043328	-0.906053	0.469233
