data_functionalizedCrystal
_audit_creation_method	'MofGen! by Chris Wilmer'
_symmetry_space_group_name_H-M	'P1'
_symmetry_Int_Tables_number	1
_symmetry_cell_setting	triclinic
loop_
_symmetry_equiv_pos_as_xyz
  x,y,z
_cell_length_a	18.215407
_cell_length_b	19.805405
_cell_length_c	19.805398
_cell_angle_alpha	90.027637
_cell_angle_beta	90.015064
_cell_angle_gamma	90.026858
loop_
_atom_site_label
_atom_site_type_symbol
_atom_site_fract_x
_atom_site_fract_y
_atom_site_fract_z
Zn1	Zn	1.125030	-0.269482	0.382697
Zn2	Zn	1.625030	0.230518	0.882697
Zn3	Zn	1.124945	-0.382667	0.269505
Zn4	Zn	1.624945	0.117333	0.769505
Zn5	Zn	1.001972	-0.269498	0.269523
Zn6	Zn	1.501972	0.230502	0.769523
Zn7	Zn	1.001925	-0.382635	0.382654
Zn8	Zn	1.501925	0.117365	0.882654
O9	O	1.063468	-0.326071	0.326095
O10	O	1.563468	0.173929	0.826095
O11	O	1.228003	-0.284503	0.367693
O12	O	1.728003	0.215497	0.867693
O13	O	1.108617	-0.367675	0.174791
O14	O	1.608617	0.132325	0.674791
O15	O	1.018351	-0.174779	0.284562
O16	O	1.518351	0.325221	0.784562
O17	O	1.227940	-0.367659	0.284531
O18	O	1.727940	0.132341	0.784531
O19	O	1.108761	-0.174767	0.367710
O20	O	1.608761	0.325233	0.867710
O21	O	1.018269	-0.284530	0.174804
O22	O	1.518269	0.215470	0.674804
O23	O	0.898982	-0.284500	0.284520
O24	O	1.398982	0.215500	0.784520
O25	O	1.018270	-0.367605	0.477376
O26	O	1.518270	0.132395	0.977376
O27	O	0.898947	-0.367621	0.367636
O28	O	1.398947	0.132379	0.867636
O29	O	1.108715	-0.284472	0.477408
O30	O	1.608715	0.215528	0.977408
O31	O	1.108571	-0.477379	0.284489
O32	O	1.608571	0.022621	0.784489
O33	O	1.018188	-0.477356	0.367619
O34	O	1.518188	0.022644	0.867619
C35	C	0.872262	-0.326059	0.326075
C36	C	1.372262	0.173941	0.826075
C37	C	0.790463	-0.326070	0.326083
C38	C	1.290463	0.173930	0.826083
C39	C	0.602270	-0.369420	0.369308
C40	C	1.102270	0.130580	0.869308
C41	C	0.525411	-0.369422	0.369316
C42	C	1.025411	0.130578	0.869316
C43	C	0.525418	-0.282734	0.282897
C44	C	1.025418	0.217266	0.782897
C45	C	0.602275	-0.282729	0.282892
C46	C	1.102275	0.217271	0.782892
C47	C	0.640699	-0.326076	0.326097
C48	C	1.140699	0.173924	0.826097
C49	C	0.486983	-0.326083	0.326110
C50	C	0.986983	0.173917	0.826110
C51	C	0.403649	-0.326085	0.326119
C52	C	0.903649	0.173915	0.826119
C53	C	0.724038	-0.326073	0.326089
C54	C	1.224038	0.173927	0.826089
C55	C	1.063385	-0.501927	0.326062
C56	C	1.563385	-0.001927	0.826062
C57	C	1.063417	-0.577159	0.326071
C58	C	1.563417	-0.077159	0.826071
C59	C	1.110525	-0.612492	0.282831
C60	C	1.610525	-0.112492	0.782831
C61	C	1.110556	-0.683181	0.282845
C62	C	1.610556	-0.183181	0.782845
C63	C	1.063475	-0.718534	0.326098
C64	C	1.563475	-0.218534	0.826098
C65	C	1.016365	-0.683195	0.369343
C66	C	1.516365	-0.183195	0.869343
C67	C	1.016338	-0.612508	0.369331
C68	C	1.516338	-0.112508	0.869331
C69	C	1.016474	-0.968269	0.369393
C70	C	1.516474	-0.468269	0.869393
C71	C	1.016503	-1.038961	0.369400
C72	C	1.516503	-0.538961	0.869400
C73	C	1.110692	-1.038941	0.282908
C74	C	1.610692	-0.538941	0.782908
C75	C	1.110665	-0.968254	0.282896
C76	C	1.610665	-0.468254	0.782896
C77	C	1.063558	-0.932921	0.326143
C78	C	1.563558	-0.432921	0.826143
C79	C	1.063525	-0.856273	0.326127
C80	C	1.563525	-0.356273	0.826127
C81	C	1.063503	-0.795181	0.326111
C82	C	1.563503	-0.295181	0.826111
C83	C	1.255421	-0.326083	0.326115
C84	C	1.755421	0.173917	0.826115
C85	C	1.337220	-0.326088	0.326123
C86	C	1.837220	0.173912	0.826123
C87	C	1.063497	-0.326033	0.502638
C88	C	1.563497	0.173967	1.002638
C89	C	1.063509	-0.326017	0.577870
C90	C	1.563509	0.173983	1.077870
C91	C	1.063571	-0.149528	0.326143
C92	C	1.563571	0.350472	0.826143
C93	C	1.063615	-0.074296	0.326163
C94	C	1.563615	0.425704	0.826163
C95	C	1.063481	-0.326059	0.150239
C96	C	1.563481	0.173941	0.650239
C97	C	1.063612	-0.325884	0.075007
C98	C	1.563612	0.174116	0.575007
C99	C	1.110692	-0.282610	1.039679
C100	C	1.610692	0.217390	1.539679
C101	C	1.110681	-0.282631	0.968990
C102	C	1.610681	0.217369	1.468990
C103	C	1.063584	-0.325923	0.933632
C104	C	1.563584	0.174077	1.433632
C105	C	1.016502	-0.369202	0.968965
C106	C	1.516502	0.130798	1.468965
C107	C	1.016518	-0.369184	1.039652
C108	C	1.516518	0.130816	1.539652
C109	C	1.016438	-0.369276	0.683892
C110	C	1.516438	0.130724	1.183892
C111	C	1.016424	-0.369289	0.613200
C112	C	1.516424	0.130711	1.113200
C113	C	1.110601	-0.282722	0.613229
C114	C	1.610601	0.217278	1.113229
C115	C	1.110617	-0.282704	0.683917
C116	C	1.610617	0.217296	1.183917
C117	C	1.063537	-0.325986	0.719244
C118	C	1.563537	0.174014	1.219244
C119	C	1.063551	-0.325963	0.795893
C120	C	1.563551	0.174037	1.295893
C121	C	1.063566	-0.325942	0.856984
C122	C	1.563566	0.174058	1.356984
H123	H	1.148860	-0.583712	0.247607
H124	H	1.648860	-0.083712	0.747607
O125	O	0.488162	-0.411495	0.411384
O126	O	0.988162	0.088505	0.911384
C127	C	0.464645	-0.444479	0.526461
C128	C	0.964645	0.055521	1.026461
C129	C	0.506887	-0.396799	0.478893
C130	C	1.006887	0.103201	0.978893
H131	H	0.479756	-0.432605	0.581053
H132	H	0.979756	0.067395	1.081053
H133	H	0.479741	-0.499051	0.514530
H134	H	0.979741	0.000949	1.014530
H135	H	0.403116	-0.437049	0.519013
H136	H	0.903116	0.062951	1.019013
H137	H	0.568425	-0.404169	0.486316
H138	H	1.068425	0.095831	0.986316
H139	H	0.491729	-0.342245	0.490836
H140	H	0.991729	0.157755	0.990836
O141	O	1.156436	-0.240528	0.934777
O142	O	1.656436	0.259472	1.434777
C143	C	1.249878	-0.154684	0.942266
C144	C	1.749878	0.345316	1.442266
C145	C	1.198082	-0.202321	0.981096
C146	C	1.698082	0.297679	1.481096
H147	H	1.283573	-0.123792	0.979698
H148	H	1.783573	0.376208	1.479698
H149	H	1.216138	-0.119256	0.909195
H150	H	1.716138	0.380744	1.409195
H151	H	1.288305	-0.185779	0.909150
H152	H	1.788305	0.314221	1.409150
H153	H	1.159644	-0.171281	1.014248
H154	H	1.659644	0.328719	1.514248
H155	H	1.231868	-0.237751	1.014124
H156	H	1.731868	0.262249	1.514124
H157	H	1.149051	-1.067718	0.247696
H158	H	1.649051	-0.567718	0.747696
O159	O	0.970818	-0.411314	1.073898
O160	O	1.470818	0.088686	1.573898
C161	C	0.935067	-0.526444	1.095528
C162	C	1.435067	-0.026444	1.595528
C163	C	0.986854	-0.478803	1.056692
C164	C	1.486854	0.021197	1.556692
H165	H	0.948023	-0.581019	1.081641
H166	H	1.448023	-0.081019	1.581641
H167	H	0.875717	-0.514615	1.081617
H168	H	1.375717	-0.014615	1.581617
H169	H	0.943157	-0.518962	1.152119
H170	H	1.443157	-0.018962	1.652119
H171	H	0.978830	-0.486259	1.000091
H172	H	1.478830	0.013741	1.500091
H173	H	1.046185	-0.490644	1.070658
H174	H	1.546185	0.009356	1.570658
O175	O	0.639677	-0.411426	0.411313
O176	O	1.139677	0.088574	0.911313
C177	C	0.726443	-0.420638	0.502704
C178	C	1.226443	0.079362	1.002704
C179	C	0.684142	-0.372992	0.455162
C180	C	1.184142	0.127008	0.955162
H181	H	0.762392	-0.389583	0.538177
H182	H	1.262392	0.110417	1.038177
H183	H	0.762449	-0.455979	0.471603
H184	H	1.262449	0.044021	0.971603
H185	H	0.685757	-0.451631	0.533559
H186	H	1.185757	0.048369	1.033559
H187	H	0.724775	-0.341955	0.424296
H188	H	1.224775	0.158045	0.924296
H189	H	0.648125	-0.337696	0.486301
H190	H	1.148125	0.162304	0.986301
O191	O	0.970758	-0.411448	0.578880
O192	O	1.470758	0.088552	1.078880
C193	C	0.934959	-0.526587	0.557240
C194	C	1.434959	-0.026587	1.057240
C195	C	0.986726	-0.478923	0.596139
C196	C	1.486726	0.021077	1.096139
H197	H	0.947840	-0.581149	0.571190
H198	H	1.447840	-0.081149	1.071190
H199	H	0.943041	-0.519219	0.500642
H200	H	1.443041	-0.019219	1.000642
H201	H	0.875628	-0.514670	0.571126
H202	H	1.375628	-0.014670	1.071126
H203	H	1.046077	-0.490810	0.582310
H204	H	1.546077	0.009190	1.082310
H205	H	0.978581	-0.486299	0.652727
H206	H	1.478581	0.013701	1.152727
O207	O	1.156435	-0.933838	0.240975
O208	O	1.656435	-0.433838	0.740975
C209	C	1.255798	-0.853990	0.231947
C210	C	1.755798	-0.353990	0.731947
C211	C	1.203996	-0.892911	0.279496
C212	C	1.703996	-0.392911	0.779496
H213	H	1.294274	-0.820902	0.263073
H214	H	1.794274	-0.320902	0.763073
H215	H	1.222064	-0.820898	0.196532
H216	H	1.722064	-0.320898	0.696532
H217	H	1.289441	-0.891399	0.201029
H218	H	1.789441	-0.391399	0.701029
H219	H	1.170341	-0.855550	0.310458
H220	H	1.670341	-0.355550	0.810458
H221	H	1.237772	-0.926012	0.314866
H222	H	1.737772	-0.426012	0.814866
H223	H	0.978159	-0.404455	0.940171
H224	H	1.478159	0.095545	1.440171
O225	O	0.487978	-0.240694	0.240951
O226	O	0.987978	0.259306	0.740951
C227	C	0.369578	-0.202249	0.202690
C228	C	0.869578	0.297751	0.702690
C229	C	0.411885	-0.249905	0.250218
C230	C	0.911885	0.250095	0.750218
H231	H	0.308050	-0.209670	0.210176
H232	H	0.808050	0.290330	0.710176
H233	H	0.384609	-0.214060	0.148075
H234	H	0.884609	0.285940	0.648075
H235	H	0.384763	-0.147694	0.214669
H236	H	0.884763	0.352306	0.714669
H237	H	0.396723	-0.304476	0.238300
H238	H	0.896723	0.195524	0.738300
H239	H	0.396850	-0.238036	0.304819
H240	H	0.896850	0.261964	0.804819
H241	H	0.633565	-0.247429	0.247705
H242	H	1.133565	0.252571	0.747705
H243	H	1.148915	-0.711947	0.247634
H244	H	1.648915	-0.211947	0.747634
H245	H	1.148965	-0.247448	0.712702
H246	H	1.648965	0.252552	1.212702
H247	H	0.978165	-1.067743	0.404627
H248	H	1.478165	-0.567743	0.904627
H249	H	0.977979	-0.583740	0.404542
H250	H	1.477979	-0.083740	0.904542
O251	O	0.970636	-0.934057	0.411413
O252	O	1.470636	-0.434057	0.911413
C253	C	0.877227	-0.941543	0.497218
C254	C	1.377227	-0.441543	0.997218
C255	C	0.929095	-0.980374	0.449656
C256	C	1.429095	-0.480374	0.949656
H257	H	0.843638	-0.978973	0.528159
H258	H	1.343638	-0.478973	1.028159
H259	H	0.838709	-0.908520	0.466131
H260	H	1.338709	-0.408520	0.966131
H261	H	0.910977	-0.908379	0.532609
H262	H	1.410977	-0.408379	1.032609
H263	H	0.895404	-1.013575	0.414255
H264	H	1.395404	-0.513575	0.914255
H265	H	0.967615	-1.013354	0.480785
H266	H	1.467615	-0.513354	0.980785
H267	H	0.978034	-0.711986	0.404563
H268	H	1.478034	-0.211986	0.904563
H269	H	0.978102	-0.404517	0.712647
H270	H	1.478102	0.095483	1.212647
O271	O	1.156315	-0.240743	0.578807
O272	O	1.656315	0.259257	1.078807
C273	C	1.197999	-0.202365	0.469924
C274	C	1.697999	0.297635	0.969924
C275	C	1.146210	-0.249953	0.508820
C276	C	1.646210	0.250047	1.008820
H277	H	1.189836	-0.209785	0.413333
H278	H	1.689836	0.290215	0.913333
H279	H	1.257354	-0.214246	0.483773
H280	H	1.757354	0.285754	0.983773
H281	H	1.185111	-0.147793	0.483876
H282	H	1.685111	0.352207	0.983876
H283	H	1.159031	-0.304541	0.494888
H284	H	1.659031	0.195459	0.994888
H285	H	1.086870	-0.238014	0.494967
H286	H	1.586870	0.261986	0.994967
O287	O	1.156336	-0.240481	1.074053
O288	O	1.656336	0.259519	1.574053
C289	C	1.166311	-0.149104	1.153910
C290	C	1.666311	0.350896	1.653910
C291	C	1.114533	-0.196760	1.115014
C292	C	1.614533	0.303240	1.615014
H293	H	1.132535	-0.113753	1.187047
H294	H	1.632535	0.386247	1.687047
H295	H	1.199947	-0.118129	1.116544
H296	H	1.699947	0.381871	1.616544
H297	H	1.204796	-0.180186	1.186969
H298	H	1.704796	0.319814	1.686969
H299	H	1.076003	-0.165730	1.081954
H300	H	1.576003	0.334270	1.581954
H301	H	1.080949	-0.227737	1.152417
H302	H	1.580949	0.272263	1.652417
