data_functionalizedCrystal
_audit_creation_method	'MofGen! by Chris Wilmer'
_symmetry_space_group_name_H-M	'P1'
_symmetry_Int_Tables_number	1
_symmetry_cell_setting	triclinic
loop_
_symmetry_equiv_pos_as_xyz
  x,y,z
_cell_length_a	25.639239
_cell_length_b	25.639243
_cell_length_c	25.639233
_cell_angle_alpha	90.015962
_cell_angle_beta	90.018747
_cell_angle_gamma	90.041410
loop_
_atom_site_label
_atom_site_type_symbol
_atom_site_fract_x
_atom_site_fract_y
_atom_site_fract_z
Zn1	Zn	-0.208176	0.799225	0.295656
Zn2	Zn	-0.295595	0.799149	0.208220
Zn3	Zn	-0.208180	0.711801	0.208229
Zn4	Zn	-0.295587	0.711746	0.295619
O5	O	-0.251885	0.755480	0.251931
O6	O	-0.219775	0.872380	0.284069
O7	O	-0.284004	0.787553	0.135056
O8	O	-0.135014	0.723453	0.219846
O9	O	-0.284001	0.872324	0.219830
O10	O	-0.135012	0.787683	0.284077
O11	O	-0.219781	0.723379	0.135063
O12	O	-0.219772	0.638629	0.219810
O13	O	-0.283987	0.723360	0.368789
O14	O	-0.283990	0.638589	0.284016
O15	O	-0.219767	0.787630	0.368816
O16	O	-0.368759	0.787499	0.219795
O17	O	-0.368753	0.723286	0.284007
C18	C	-0.251881	0.619638	0.251910
C19	C	-0.251892	0.561524	0.251914
C20	C	-0.218495	0.201184	0.285436
C21	C	-0.218494	0.146580	0.285439
O22	O	-0.190088	0.118363	0.313915
N23	N	-0.251883	0.119241	0.251945
C24	C	-0.285271	0.146510	0.218443
O25	O	-0.313670	0.118242	0.189954
C26	C	-0.285268	0.201113	0.218437
C27	C	-0.251881	0.228449	0.251937
C28	C	-0.185109	0.228520	0.318932
C29	C	-0.185111	0.283121	0.318930
C30	C	-0.218497	0.310385	0.285431
C31	C	-0.251882	0.283049	0.251934
C32	C	-0.318653	0.228380	0.184932
C33	C	-0.318647	0.282987	0.184929
C34	C	-0.285260	0.310323	0.218429
C35	C	-0.285270	0.364915	0.218432
N36	N	-0.251881	0.392253	0.251926
C37	C	-0.218494	0.364989	0.285425
C38	C	-0.285273	0.031839	0.218456
C39	C	-0.285279	-0.022763	0.218464
C40	C	-0.218501	-0.022689	0.285460
C41	C	-0.218499	0.031914	0.285454
C42	C	-0.251884	0.059178	0.251950
C43	C	-0.218500	0.479654	0.285417
C44	C	-0.218506	0.534259	0.285413
C45	C	-0.285281	0.534180	0.218415
C46	C	-0.285278	0.479580	0.218421
C47	C	-0.251883	0.452318	0.251924
O48	O	-0.313659	0.393166	0.189969
O49	O	-0.190095	0.393263	0.313904
C50	C	-0.387727	0.755392	0.251907
C51	C	-0.445841	0.755403	0.251914
C52	C	-0.806195	0.789004	0.218553
C53	C	-0.860799	0.789024	0.218560
O54	O	-0.889028	0.817502	0.190169
N55	N	-0.888124	0.755572	0.251966
C56	C	-0.860841	0.722102	0.285371
O57	O	-0.889096	0.693651	0.313786
C58	C	-0.806238	0.722085	0.285366
C59	C	-0.778916	0.755535	0.251954
C60	C	-0.778873	0.822452	0.185144
C61	C	-0.724273	0.822431	0.185137
C62	C	-0.696994	0.788962	0.218538
C63	C	-0.724315	0.755514	0.251946
C64	C	-0.778956	0.688617	0.318773
C65	C	-0.724349	0.688603	0.318765
C66	C	-0.697027	0.722053	0.285354
C67	C	-0.642436	0.722024	0.285340
N68	N	-0.615112	0.755475	0.251934
C69	C	-0.642390	0.788944	0.218533
C70	C	-0.975511	0.722141	0.285379
C71	C	-1.030114	0.722155	0.285381
C72	C	-1.030068	0.789078	0.218571
C73	C	-0.975465	0.789061	0.218566
C74	C	-0.948187	0.755593	0.251973
C75	C	-0.527725	0.788897	0.218519
C76	C	-0.473120	0.788872	0.218513
C77	C	-0.473170	0.721951	0.285325
C78	C	-0.527771	0.721974	0.285329
C79	C	-0.555047	0.755452	0.251925
O80	O	-0.614173	0.693562	0.313718
O81	O	-0.614128	0.817396	0.190127
C82	C	-0.115512	0.755583	0.251967
C83	C	-0.057397	0.755627	0.251982
C84	C	-0.251875	0.755497	0.388304
C85	C	-0.251871	0.755504	0.446418
C86	C	-0.251888	0.891853	0.251952
C87	C	-0.251890	0.949967	0.251961
C88	C	-0.251856	0.755494	0.116089
C89	C	-0.251713	0.755588	0.057975
C90	C	-0.218333	0.789012	0.806801
C91	C	-0.218318	0.789019	0.861405
O92	O	-0.189864	0.817466	0.889659
N93	N	-0.251749	0.755562	0.888701
C94	C	-0.285192	0.722093	0.861389
O95	O	-0.313626	0.693636	0.889620
C96	C	-0.285204	0.722084	0.806786
C97	C	-0.251775	0.755547	0.779493
C98	C	-0.184906	0.822472	0.779508
C99	C	-0.184921	0.822466	0.724908
C100	C	-0.218363	0.789001	0.697600
C101	C	-0.251790	0.755541	0.724893
C102	C	-0.318644	0.688613	0.779475
C103	C	-0.318653	0.688607	0.724868
C104	C	-0.285223	0.722069	0.697576
C105	C	-0.285247	0.722070	0.642984
N106	N	-0.251817	0.755526	0.615689
C107	C	-0.218375	0.788992	0.642996
C108	C	-0.285165	0.722113	0.976060
C109	C	-0.285157	0.722124	1.030662
C110	C	-0.218282	0.789049	1.030675
C111	C	-0.218293	0.789041	0.976071
C112	C	-0.251735	0.755570	0.948764
C113	C	-0.218410	0.788977	0.528331
C114	C	-0.218429	0.788970	0.473726
C115	C	-0.285302	0.722043	0.473719
C116	C	-0.285285	0.722052	0.528319
C117	C	-0.251834	0.755521	0.555624
O118	O	-0.313686	0.693635	0.614696
O119	O	-0.189941	0.817439	0.614759
H120	H	-0.191317	0.556514	0.312694
H121	H	-0.702031	0.849670	0.157932
H122	H	-0.312384	0.694881	1.052880
C123	C	-0.322061	0.685245	0.558342
N124	N	-0.349759	0.657517	0.580952
C125	C	-0.181491	0.825859	1.060724
N126	N	-0.153782	0.853581	1.083358
C127	C	-0.322008	0.061824	0.181602
N128	N	-0.349678	0.084406	0.153844
C129	C	-0.321961	0.685295	0.946027
N130	N	-0.349675	0.657564	0.923410
H131	H	-0.191071	0.816288	0.953853
C132	C	-0.148374	0.313183	0.355775
N133	N	-0.120700	0.335823	0.383526
C134	C	-0.557826	0.685176	0.322082
N135	N	-0.580459	0.657462	0.349769
H136	H	-0.345866	0.661364	0.801688
C137	C	-0.945511	0.685323	0.322133
N138	N	-0.922917	0.657595	0.349819
C139	C	-0.148381	0.198538	0.355790
N140	N	-0.120717	0.175959	0.383556
H141	H	-0.312472	-0.045016	0.191191
C142	C	-0.945416	0.825860	0.181813
N143	N	-0.922786	0.853580	0.154129
H144	H	-0.345834	0.305183	0.157644
H145	H	-0.801078	0.849709	0.157945
C146	C	-0.322000	0.564182	0.181564
N147	N	-0.349653	0.586780	0.153803
H148	H	-0.191207	0.816221	0.451507
C149	C	-1.060086	0.825899	0.181833
N150	N	-1.082696	0.853632	0.154164
H151	H	-0.191315	-0.044898	0.312735
H152	H	-0.191305	0.457464	0.312697
C153	C	-1.060161	0.685352	0.322132
N154	N	-1.082791	0.657633	0.349816
H155	H	-0.345880	0.661345	0.702638
C156	C	-0.808998	0.651820	0.355531
N157	N	-0.831624	0.624103	0.383220
H158	H	-0.312531	0.694798	0.451475
H159	H	-0.345840	0.206133	0.157652
C160	C	-0.181766	0.061979	0.322302
N161	N	-0.154096	0.084620	0.350056
H162	H	-0.702142	0.661350	0.345971
C163	C	-0.443153	0.685139	0.322067
N164	N	-0.420543	0.657415	0.349744
H165	H	-0.312470	0.457322	0.191149
C166	C	-0.443070	0.825669	0.181754
N167	N	-0.420437	0.853383	0.154067
H168	H	-0.549927	0.816159	0.191319
H169	H	-0.191169	0.816229	0.550557
C170	C	-0.148139	0.859270	0.694893
N171	N	-0.120430	0.886991	0.672289
C172	C	-0.148116	0.859292	0.809538
N173	N	-0.120406	0.887030	0.832153
