data_functionalizedCrystal
_audit_creation_method	'MofGen! by Chris Wilmer'
_symmetry_space_group_name_H-M	'P1'
_symmetry_Int_Tables_number	1
_symmetry_cell_setting	triclinic
loop_
_symmetry_equiv_pos_as_xyz
  x,y,z
_cell_length_a	18.050591
_cell_length_b	21.295411
_cell_length_c	18.050589
_cell_angle_alpha	90.013095
_cell_angle_beta	89.975773
_cell_angle_gamma	89.969449
loop_
_atom_site_label
_atom_site_type_symbol
_atom_site_fract_x
_atom_site_fract_y
_atom_site_fract_z
Zn1	Zn	1.135363	-0.356049	0.295823
Zn2	Zn	1.635363	0.143951	0.795823
Zn3	Zn	1.135253	-0.250791	0.419995
Zn4	Zn	1.635253	0.249209	0.919995
Zn5	Zn	1.011161	-0.250783	0.295815
Zn6	Zn	1.511161	0.249217	0.795815
Zn7	Zn	1.011130	-0.356011	0.419967
Zn8	Zn	1.511130	0.143989	0.919967
O9	O	1.073227	-0.303409	0.357900
O10	O	1.573227	0.196591	0.857900
O11	O	1.239273	-0.342106	0.312310
O12	O	1.739273	0.157894	0.812310
O13	O	1.118759	-0.162700	0.403531
O14	O	1.618759	0.337300	0.903531
O15	O	1.027696	-0.264760	0.191892
O16	O	1.527696	0.235240	0.691892
O17	O	1.239192	-0.264772	0.403539
O18	O	1.739192	0.235228	0.903539
O19	O	1.118947	-0.342099	0.191898
O20	O	1.618947	0.157901	0.691898
O21	O	1.027589	-0.162695	0.312296
O22	O	1.527589	0.337305	0.812296
O23	O	0.907233	-0.264723	0.312269
O24	O	1.407233	0.235277	0.812269
O25	O	1.027643	-0.444106	0.403491
O26	O	1.527643	0.055894	0.903491
O27	O	0.907210	-0.342034	0.403483
O28	O	1.407210	0.157966	0.903483
O29	O	1.118916	-0.444134	0.312283
O30	O	1.618916	0.055866	0.812283
O31	O	1.118729	-0.264735	0.523916
O32	O	1.618729	0.235265	1.023916
O33	O	1.027536	-0.342040	0.523896
O34	O	1.527536	0.157960	1.023896
C35	C	0.880275	-0.303374	0.357873
C36	C	1.380275	0.196626	0.857873
C37	C	0.797729	-0.303374	0.357879
C38	C	1.297729	0.196626	0.857879
C39	C	1.073289	-0.467599	0.357885
C40	C	1.573289	0.032401	0.857885
C41	C	1.073315	-0.537567	0.357878
C42	C	1.573315	-0.037567	0.857878
C43	C	0.598269	-0.261429	0.308219
C44	C	1.098269	0.238571	0.808219
C45	C	0.548847	-0.245942	0.375953
C46	C	1.048847	0.254058	0.875953
C47	C	0.646599	-0.303402	0.357901
C48	C	1.146599	0.196598	0.857901
C49	C	0.548940	-0.318888	0.290190
C50	C	1.048940	0.181112	0.790190
C51	C	0.500614	-0.303429	0.357917
C52	C	1.000614	0.196571	0.857917
C53	C	0.598263	-0.287885	0.425671
C54	C	1.098263	0.212115	0.925671
C55	C	0.598361	-0.360857	0.339863
C56	C	1.098361	0.139143	0.839863
C57	C	0.548960	-0.345392	0.407644
C58	C	1.048960	0.154608	0.907644
C59	C	0.730697	-0.303386	0.357891
C60	C	1.230697	0.196614	0.857891
C61	C	0.416517	-0.303445	0.357935
C62	C	0.916517	0.196555	0.857935
C63	C	1.120839	-0.570449	0.310384
C64	C	1.620839	-0.070449	0.810384
C65	C	1.120838	-0.636192	0.310351
C66	C	1.620838	-0.136192	0.810351
C67	C	1.073321	-0.669050	0.357827
C68	C	1.573321	-0.169050	0.857827
C69	C	1.025787	-0.636159	0.405324
C70	C	1.525787	-0.136159	0.905324
C71	C	1.025785	-0.570418	0.405350
C72	C	1.525785	-0.070418	0.905350
N73	N	1.067593	-0.772273	0.422793
N74	N	1.567593	-0.272273	0.922793
N75	N	1.067601	-0.834724	0.422767
N76	N	1.567601	-0.334724	0.922767
C77	C	1.073325	-0.867125	0.357751
C78	C	1.573325	-0.367125	0.857751
N79	N	1.079057	-0.834714	0.292762
N80	N	1.579057	-0.334714	0.792762
N81	N	1.079054	-0.772257	0.292789
N82	N	1.579054	-0.272257	0.792789
C83	C	1.073318	-0.740335	0.357804
C84	C	1.573318	-0.240335	0.857804
C85	C	1.120851	-0.971292	0.310218
C86	C	1.620851	-0.471292	0.810218
C87	C	1.120844	-1.037036	0.310185
C88	C	1.620844	-0.537036	0.810185
C89	C	1.025798	-1.037002	0.405164
C90	C	1.525798	-0.537002	0.905164
C91	C	1.025800	-0.971260	0.405191
C92	C	1.525800	-0.471260	0.905191
C93	C	1.073331	-0.938409	0.357719
C94	C	1.573331	-0.438409	0.857719
C95	C	1.266933	-0.303444	0.357929
C96	C	1.766933	0.196556	0.857929
C97	C	1.349478	-0.303459	0.357941
C98	C	1.849478	0.196541	0.857941
C99	C	1.073137	-0.303398	0.550852
C100	C	1.573137	0.196602	1.050852
C101	C	1.073167	-0.303415	0.633398
C102	C	1.573167	0.196585	1.133398
C103	C	1.073208	-0.139857	0.357862
C104	C	1.573208	0.360143	0.857862
C105	C	1.073326	-0.069889	0.357660
C106	C	1.573326	0.430111	0.857660
C107	C	1.073337	-0.303433	0.164195
C108	C	1.573337	0.196567	0.664195
C109	C	1.073384	-0.303443	0.081649
C110	C	1.573384	0.196557	0.581649
C111	C	1.023625	-0.345439	0.832864
C112	C	1.523625	0.154561	1.332864
C113	C	1.005516	-0.287996	0.882291
C114	C	1.505516	0.212004	1.382291
C115	C	1.073240	-0.303423	0.784528
C116	C	1.573240	0.196577	1.284528
C117	C	1.091386	-0.360873	0.882183
C118	C	1.591386	0.139127	1.382183
C119	C	1.073309	-0.303436	0.930514
C120	C	1.573309	0.196564	1.430514
C121	C	1.055095	-0.245949	0.832868
C122	C	1.555095	0.254051	1.332868
C123	C	1.140996	-0.318865	0.832756
C124	C	1.640996	0.181135	1.332756
C125	C	1.122913	-0.261383	0.882160
C126	C	1.622913	0.238617	1.382160
C127	C	1.073198	-0.303416	0.700430
C128	C	1.573198	0.196584	1.200430
C129	C	1.073351	-0.303436	1.014610
C130	C	1.573351	0.196564	1.514610
H131	H	0.527099	-0.197365	0.391222
H132	H	1.027099	0.302635	0.891222
H133	H	0.619839	-0.274745	0.482957
H134	H	1.119839	0.225255	0.982957
O135	O	0.624230	-0.219089	0.258159
O136	O	1.124230	0.280911	0.758159
C137	C	0.702332	-0.220028	0.258371
C138	C	1.202332	0.279972	0.758371
H139	H	0.722555	-0.267139	0.280524
H140	H	1.222555	0.232861	0.780524
H141	H	0.723685	-0.213083	0.199496
H142	H	1.223685	0.286917	0.699496
H143	H	0.723912	-0.180622	0.295263
H144	H	1.223912	0.319378	0.795263
H145	H	0.981606	-0.380920	0.811218
H146	H	1.481606	0.119080	1.311218
O147	O	1.166934	-0.939402	0.263996
O148	O	1.666934	-0.439402	0.763996
C149	C	1.150757	-0.955460	0.189969
C150	C	1.650757	-0.455460	0.689969
H151	H	1.091431	-0.973506	0.186203
H152	H	1.591431	-0.473506	0.686203
H153	H	1.157173	-0.912222	0.153301
H154	H	1.657173	-0.412222	0.653301
H155	H	1.190586	-0.993633	0.170543
H156	H	1.690586	-0.493633	0.670543
O157	O	0.624297	-0.418773	0.321496
O158	O	1.124297	0.081227	0.821496
C159	C	0.599197	-0.434912	0.250031
C160	C	1.099197	0.065088	0.750031
H161	H	0.585295	-0.390353	0.217915
H162	H	1.085295	0.109647	0.717915
H163	H	0.644439	-0.461979	0.219612
H164	H	1.144439	0.038021	0.719612
H165	H	0.547561	-0.465454	0.254776
H166	H	1.047561	0.034546	0.754776
O167	O	1.172910	-0.218916	0.907917
O168	O	1.672910	0.281084	1.407917
C169	C	1.136223	-0.173870	0.951913
C170	C	1.636223	0.326130	1.451913
H171	H	1.082209	-0.194530	0.973738
H172	H	1.582209	0.305470	1.473738
H173	H	1.173137	-0.160141	1.000512
H174	H	1.673137	0.339859	1.500512
H175	H	1.123657	-0.130515	0.917065
H176	H	1.623657	0.369485	1.417065
H177	H	1.198250	-0.331942	0.810983
H178	H	1.698250	0.168058	1.310983
O179	O	1.109581	-0.418873	0.907939
O180	O	1.609581	0.081127	1.407939
C181	C	1.057076	-0.463007	0.882838
C182	C	1.557076	0.036993	1.382838
H183	H	1.028773	-0.444326	0.830870
H184	H	1.528773	0.055674	1.330870
H185	H	1.086159	-0.509176	0.869482
H186	H	1.586159	-0.009176	1.369482
H187	H	1.013842	-0.471207	0.927861
H188	H	1.513842	0.028793	1.427861
H189	H	0.987101	-1.063755	0.443812
H190	H	1.487101	-0.563755	0.943812
O191	O	0.523321	-0.387680	0.457929
O192	O	1.023321	0.112320	0.957929
C193	C	0.548604	-0.371143	0.529203
C194	C	1.048604	0.128857	1.029203
H195	H	0.562347	-0.318912	0.530523
H196	H	1.062347	0.181088	1.030523
H197	H	0.503533	-0.381654	0.571681
H198	H	1.003533	0.118346	1.071681
H199	H	0.600374	-0.399489	0.543040
H200	H	1.100374	0.100511	1.043040
O201	O	0.523179	-0.334431	0.221815
O202	O	1.023179	0.165569	0.721815
C203	C	0.548287	-0.290029	0.169611
C204	C	1.048287	0.209971	0.669611
H205	H	0.600260	-0.266010	0.191568
H206	H	1.100260	0.233990	0.691568
H207	H	0.561635	-0.314785	0.115212
H208	H	1.061635	0.185215	0.615212
H209	H	0.503270	-0.253390	0.159840
H210	H	1.003270	0.246610	0.659840
O211	O	1.167026	-0.538636	0.264196
O212	O	1.667026	-0.038636	0.764196
C213	C	1.208985	-0.581762	0.222281
C214	C	1.708985	-0.081762	0.722281
H215	H	1.178570	-0.628612	0.219690
H216	H	1.678570	-0.128612	0.719690
H217	H	1.216941	-0.562768	0.163776
H218	H	1.716941	-0.062768	0.663776
H219	H	1.265373	-0.588779	0.249484
H220	H	1.765373	-0.088779	0.749484
O221	O	1.166902	-0.668172	0.264139
O222	O	1.666902	-0.168172	0.764139
C223	C	1.124658	-0.706193	0.216162
C224	C	1.624658	-0.206193	0.716162
H225	H	1.066170	-0.686356	0.211561
H226	H	1.566170	-0.186356	0.711561
H227	H	1.151561	-0.706952	0.159018
H228	H	1.651561	-0.206952	0.659018
H229	H	1.122084	-0.756016	0.239111
H230	H	1.622084	-0.256016	0.739111
H231	H	0.987096	-0.662916	0.443977
H232	H	1.487096	-0.162916	0.943977
H233	H	0.948249	-0.274946	0.904066
H234	H	1.448249	0.225054	1.404066
O235	O	0.979702	-0.538500	0.451599
O236	O	1.479702	-0.038500	0.951599
C237	C	0.995879	-0.554593	0.525611
C238	C	1.495879	-0.054593	1.025611
H239	H	1.055204	-0.572695	0.529360
H240	H	1.555204	-0.072695	1.029360
H241	H	0.989465	-0.511359	0.562318
H242	H	1.489465	-0.011359	1.062318
H243	H	0.956049	-0.592735	0.545003
H244	H	1.456049	-0.092735	1.045003
O245	O	1.166936	-1.069077	0.264064
O246	O	1.666936	-0.569077	0.764064
C247	C	1.156756	-1.134147	0.274226
C248	C	1.656756	-0.634147	0.774226
H249	H	1.099430	-1.143102	0.298538
H250	H	1.599430	-0.643102	0.798538
H251	H	1.161821	-1.159126	0.218586
H252	H	1.661821	-0.659126	0.718586
H253	H	1.200784	-1.152832	0.313770
H254	H	1.700784	-0.652832	0.813770
O255	O	0.979615	-0.939412	0.451401
O256	O	1.479615	-0.439412	0.951401
C257	C	0.937659	-0.982507	0.493284
C258	C	1.437659	-0.482507	0.993284
H259	H	0.968078	-1.029383	0.495845
H260	H	1.468078	-0.529383	0.995845
H261	H	0.929699	-0.963513	0.551802
H262	H	1.429699	-0.463513	1.051802
H263	H	0.881273	-0.989474	0.466075
H264	H	1.381273	-0.489474	0.966075
O265	O	1.036715	-0.188022	0.807015
O266	O	1.536715	0.311978	1.307015
C267	C	1.036888	-0.188718	0.728908
C268	C	1.536888	0.311282	1.228908
H269	H	1.028590	-0.238872	0.708452
H270	H	1.528590	0.261128	1.208452
H271	H	0.990048	-0.157776	0.707395
H272	H	1.490048	0.342224	1.207395
H273	H	1.092163	-0.170067	0.707720
H274	H	1.592163	0.329933	1.207720
