data_functionalizedCrystal
_audit_creation_method	'MofGen! by Chris Wilmer'
_symmetry_space_group_name_H-M	'P1'
_symmetry_Int_Tables_number	1
_symmetry_cell_setting	triclinic
loop_
_symmetry_equiv_pos_as_xyz
  x,y,z
_cell_length_a	25.639243
_cell_length_b	25.639240
_cell_length_c	12.827885
_cell_angle_alpha	89.968348
_cell_angle_beta	90.023817
_cell_angle_gamma	89.959854
loop_
_atom_site_label
_atom_site_type_symbol
_atom_site_fract_x
_atom_site_fract_y
_atom_site_fract_z
Zn1	Zn	0.799270	0.208087	0.590962
Zn2	Zn	1.132604	0.541421	0.924295
Zn3	Zn	1.465937	0.874754	1.257629
Zn4	Zn	0.799184	0.295533	0.416216
Zn5	Zn	1.132517	0.628866	0.749550
Zn6	Zn	1.465850	0.962199	1.082883
Zn7	Zn	0.711835	0.208117	0.416222
Zn8	Zn	1.045168	0.541450	0.749555
Zn9	Zn	1.378501	0.874784	1.082888
Zn10	Zn	0.711794	0.295498	0.590903
Zn11	Zn	1.045127	0.628831	0.924236
Zn12	Zn	1.378460	0.962164	1.257569
O13	O	0.755521	0.251809	0.503576
O14	O	1.088854	0.585142	0.836909
O15	O	1.422187	0.918475	1.170242
O16	O	0.872424	0.219689	0.567804
O17	O	1.205757	0.553023	0.901137
O18	O	1.539091	0.886356	1.234471
O19	O	0.787578	0.283964	0.269981
O20	O	1.120911	0.617297	0.603314
O21	O	1.454244	0.950630	0.936648
O22	O	0.723486	0.134948	0.439428
O23	O	1.056820	0.468281	0.772762
O24	O	1.390153	0.801615	1.106095
O25	O	0.872360	0.283935	0.439419
O26	O	1.205694	0.617268	0.772753
O27	O	1.539027	0.950602	1.106086
O28	O	0.787725	0.134926	0.567809
O29	O	1.121058	0.468259	0.901143
O30	O	1.454392	0.801593	1.234476
O31	O	0.723403	0.219740	0.269985
O32	O	1.056736	0.553073	0.603318
O33	O	1.390069	0.886407	0.936651
O34	O	0.638664	0.219706	0.439371
O35	O	0.971997	0.553040	0.772704
O36	O	1.305331	0.886373	1.106037
O37	O	0.723417	0.283876	0.737147
O38	O	1.056750	0.617209	1.070480
O39	O	1.390083	0.950542	1.403813
O40	O	0.638634	0.283904	0.567708
O41	O	0.971967	0.617238	0.901041
O42	O	1.305301	0.950571	1.234375
O43	O	0.787685	0.219656	0.737190
O44	O	1.121019	0.552989	1.070523
O45	O	1.454352	0.886322	1.403857
O46	O	0.787538	0.368693	0.439362
O47	O	1.120871	0.702026	0.772695
O48	O	1.454204	1.035360	1.106029
O49	O	0.723333	0.368668	0.567703
O50	O	1.056666	0.702001	0.901036
O51	O	1.389999	1.035334	1.234370
C52	C	0.619678	0.251805	0.503534
C53	C	0.953011	0.585138	0.836867
C54	C	1.286345	0.918472	1.170201
C55	C	0.561564	0.251816	0.503541
C56	C	0.894897	0.585150	0.836875
C57	C	1.228231	0.918483	1.170208
C58	C	0.201228	0.218409	0.570537
C59	C	0.534562	0.551742	0.903870
C60	C	0.867895	0.885075	1.237204
C61	C	0.146624	0.218408	0.570543
C62	C	0.479957	0.551741	0.903877
C63	C	0.813291	0.885075	1.237210
O64	O	0.118411	0.189994	0.627454
O65	O	0.451744	0.523327	0.960787
O66	O	0.785077	0.856661	1.294121
N67	N	0.119281	0.251807	0.503604
N68	N	0.452615	0.585141	0.836938
N69	N	0.785948	0.918474	1.170271
C70	C	0.146546	0.285205	0.436647
C71	C	0.479879	0.618538	0.769980
C72	C	0.813213	0.951872	1.103314
O73	O	0.118275	0.313613	0.379710
O74	O	0.451608	0.646947	0.713043
O75	O	0.784942	0.980280	1.046376
C76	C	0.201149	0.285202	0.436636
C77	C	0.534483	0.618536	0.769969
C78	C	0.867816	0.951869	1.103303
C79	C	0.228489	0.251805	0.503587
C80	C	0.561822	0.585138	0.836920
C81	C	0.895156	0.918472	1.170254
C82	C	0.228568	0.185013	0.637482
C83	C	0.561902	0.518347	0.970815
C84	C	0.895235	0.851680	1.304148
C85	C	0.283169	0.185015	0.637476
C86	C	0.616502	0.518348	0.970810
C87	C	0.949835	0.851681	1.304143
C88	C	0.310429	0.218411	0.570526
C89	C	0.643763	0.551744	0.903860
C90	C	0.977096	0.885078	1.237193
C91	C	0.283090	0.251806	0.503582
C92	C	0.616423	0.585140	0.836915
C93	C	0.949756	0.918473	1.170248
C94	C	0.228413	0.318597	0.369674
C95	C	0.561746	0.651931	0.703007
C96	C	0.895079	0.985264	1.036341
C97	C	0.283020	0.318592	0.369668
C98	C	0.616353	0.651925	0.703002
C99	C	0.949686	0.985258	1.036335
C100	C	0.310360	0.285194	0.436619
C101	C	0.643693	0.618527	0.769953
C102	C	0.977026	0.951861	1.103286
C103	C	0.364951	0.285204	0.436626
C104	C	0.698284	0.618537	0.769959
C105	C	1.031618	0.951871	1.103293
N106	N	0.392293	0.251805	0.503565
N107	N	0.725627	0.585138	0.836899
N108	N	1.058960	0.918472	1.170232
C109	C	0.365033	0.218409	0.570515
C110	C	0.698366	0.551742	0.903849
C111	C	1.031699	0.885075	1.237182
C112	C	0.031875	0.285207	0.436674
C113	C	0.365209	0.618541	0.770007
C114	C	0.698542	0.951874	1.103340
C115	C	-0.022727	0.285213	0.436689
C116	C	0.310606	0.618546	0.770022
C117	C	0.643940	0.951880	1.103356
C118	C	-0.022645	0.218415	0.570585
C119	C	0.310688	0.551749	0.903918
C120	C	0.644022	0.885082	1.237251
C121	C	0.031958	0.218413	0.570574
C122	C	0.365292	0.551746	0.903907
C123	C	0.698625	0.885079	1.237240
C124	C	0.059218	0.251808	0.503613
C125	C	0.392551	0.585142	0.836946
C126	C	0.725885	0.918475	1.170279
C127	C	0.479698	0.218414	0.570500
C128	C	0.813031	0.551747	0.903833
C129	C	1.146365	0.885081	1.237166
C130	C	0.534303	0.218420	0.570491
C131	C	0.867637	0.551753	0.903825
C132	C	1.200970	0.885086	1.237158
C133	C	0.534217	0.285215	0.436592
C134	C	0.867550	0.618549	0.769926
C135	C	1.200883	0.951882	1.103259
C136	C	0.479616	0.285212	0.436604
C137	C	0.812949	0.618545	0.769937
C138	C	1.146283	0.951878	1.103271
C139	C	0.452358	0.251807	0.503561
C140	C	0.785691	0.585140	0.836894
C141	C	1.119025	0.918474	1.170228
O142	O	0.393199	0.313602	0.379741
O143	O	0.726532	0.646935	0.713075
O144	O	1.059866	0.980269	1.046408
O145	O	0.393310	0.190000	0.627433
O146	O	0.726644	0.523334	0.960766
O147	O	1.059977	0.856667	1.294100
C148	C	0.755436	0.387651	0.503548
C149	C	1.088769	0.720985	0.836882
C150	C	1.422102	1.054318	1.170215
C151	C	0.755447	0.445765	0.503572
C152	C	1.088780	0.779099	0.836905
C153	C	1.422114	1.112432	1.170238
C154	C	0.788925	0.696896	0.570481
C155	C	1.122258	1.030229	0.903814
C156	C	1.455592	1.363563	1.237148
C157	C	0.788914	0.642292	0.570475
C158	C	1.122248	0.975625	0.903808
C159	C	1.455581	1.308959	1.237141
O160	O	0.817341	0.614002	0.627334
O161	O	1.150674	0.947335	0.960668
O162	O	1.484008	1.280669	1.294001
N163	N	0.755488	0.615039	0.503581
N164	N	1.088822	0.948373	0.836914
N165	N	1.422155	1.281706	1.170247
C166	C	0.722075	0.642394	0.436681
C167	C	1.055408	0.975727	0.770015
C168	C	1.388741	1.309060	1.103348
O169	O	0.693643	0.614199	0.379781
O170	O	1.026976	0.947533	0.713115
O171	O	1.360309	1.280866	1.046448
C172	C	0.722088	0.696997	0.436683
C173	C	1.055422	1.030330	0.770017
C174	C	1.388755	1.363664	1.103350
C175	C	0.755513	0.724247	0.503589
C176	C	1.088846	1.057580	0.836923
C177	C	1.422179	1.390913	1.170256
C178	C	0.822347	0.724146	0.637381
C179	C	1.155680	1.057479	0.970714
C180	C	1.489014	1.390813	1.304047
C181	C	0.822357	0.778747	0.637388
C182	C	1.155690	1.112080	0.970722
C183	C	1.489023	1.445413	1.304055
C184	C	0.788944	0.806097	0.570497
C185	C	1.122278	1.139431	0.903830
C186	C	1.455611	1.472764	1.237163
C187	C	0.755522	0.778847	0.503597
C188	C	1.088856	1.112181	0.836930
C189	C	1.422189	1.445514	1.170264
C190	C	0.688678	0.724351	0.369780
C191	C	1.022011	1.057684	0.703113
C192	C	1.355344	1.391017	1.036446
C193	C	0.688694	0.778958	0.369787
C194	C	1.022028	1.112291	0.703120
C195	C	1.355361	1.445624	1.036454
C196	C	0.722119	0.806207	0.436693
C197	C	1.055452	1.139541	0.770026
C198	C	1.388785	1.472874	1.103359
C199	C	0.722120	0.860799	0.436713
C200	C	1.055453	1.194132	0.770046
C201	C	1.388787	1.527465	1.103379
N202	N	0.755546	0.888051	0.503607
N203	N	1.088879	1.221385	0.836940
N204	N	1.422213	1.554718	1.170273
C205	C	0.788958	0.860701	0.570499
C206	C	1.122291	1.194034	0.903832
C207	C	1.455625	1.527367	1.237165
C208	C	0.722049	0.527723	0.436681
C209	C	1.055383	0.861056	0.770014
C210	C	1.388716	1.194390	1.103347
C211	C	0.722033	0.473121	0.436683
C212	C	1.055366	0.806454	0.770016
C213	C	1.388699	1.139787	1.103350
C214	C	0.788873	0.473023	0.570475
C215	C	1.122206	0.806356	0.903809
C216	C	1.455540	1.139689	1.237142
C217	C	0.788887	0.527626	0.570477
C218	C	1.122220	0.860959	0.903811
C219	C	1.455553	1.194293	1.237144
C220	C	0.755475	0.554976	0.503575
C221	C	1.088809	0.888309	0.836908
C222	C	1.422142	1.221642	1.170241
C223	C	0.788976	0.975366	0.570510
C224	C	1.122309	1.308699	0.903844
C225	C	1.455642	1.642032	1.237177
C226	C	0.788981	1.029971	0.570515
C227	C	1.122314	1.363304	0.903849
C228	C	1.455648	1.696638	1.237182
C229	C	0.722143	1.030064	0.436720
C230	C	1.055476	1.363398	0.770053
C231	C	1.388810	1.696731	1.103386
C232	C	0.722135	0.975464	0.436718
C233	C	1.055469	1.308797	0.770052
C234	C	1.388802	1.642130	1.103385
C235	C	0.755556	0.948116	0.503617
C236	C	1.088889	1.281449	0.836950
C237	C	1.422223	1.614782	1.170284
O238	O	0.693709	0.889123	0.379879
O239	O	1.027043	1.222456	0.713212
O240	O	1.360376	1.555790	1.046546
O241	O	0.817390	0.888902	0.627379
O242	O	1.150723	1.222235	0.960713
O243	O	1.484057	1.555568	1.294046
C244	C	0.891894	0.251813	0.503618
C245	C	1.225227	0.585146	0.836951
C246	C	1.558560	0.918479	1.170284
C247	C	0.950008	0.251814	0.503636
C248	C	1.283341	0.585148	0.836969
C249	C	1.616674	0.918481	1.170302
C250	C	0.755556	0.251759	0.776146
C251	C	1.088889	0.585092	1.109479
C252	C	1.422223	0.918425	1.442813
C253	C	0.755571	0.251737	0.892299
C254	C	1.088905	0.585070	1.225632
C255	C	1.422238	0.918404	1.558966
C256	C	0.755597	1.115436	0.503620
C257	C	1.088930	1.448769	0.836953
C258	C	1.422263	1.782102	1.170287
C259	C	0.755569	1.057322	0.503623
C260	C	1.088902	1.390655	0.836957
C261	C	1.422235	1.723988	1.170290
C262	C	0.755515	0.251821	0.232066
C263	C	1.088848	0.585154	0.565399
C264	C	1.422182	0.918488	0.898732
C265	C	0.755601	0.251695	0.115913
C266	C	1.088935	0.585028	0.449246
C267	C	1.422268	0.918362	0.782580
C268	C	0.787377	0.219953	0.944105
C269	C	1.120710	0.553286	1.277439
C270	C	1.454044	0.886619	1.610772
C271	C	0.787393	0.219930	1.064156
C272	C	1.120727	0.553263	1.397489
C273	C	1.454060	0.886597	1.730823
H274	H	0.457355	0.312413	0.382099
H275	H	0.790688	0.645746	0.715433
H276	H	1.124021	0.979079	1.048766
F277	F	0.720010	0.287268	1.057691
F278	F	1.053343	0.620602	1.391024
F279	F	1.386676	0.953935	1.724358
F280	F	0.719992	0.287281	0.950489
F281	F	1.053325	0.620615	1.283822
F282	F	1.386658	0.953948	1.617156
F283	F	0.060883	0.320757	0.365405
F284	F	0.394216	0.654090	0.698738
F285	F	0.727549	0.987423	1.032072
H286	H	0.814593	0.192756	0.899582
H287	H	1.147926	0.526089	1.232915
H288	H	1.481260	0.859423	1.566249
H289	H	0.694837	0.549988	0.382203
H290	H	1.028170	0.883321	0.715537
H291	H	1.361503	1.216655	1.048870
F292	F	0.563239	0.320757	0.365345
F293	F	0.896572	0.654091	0.698678
F294	F	1.229906	0.987424	1.032011
F295	F	0.061050	0.182866	0.641830
F296	F	0.394384	0.516199	0.975163
F297	F	0.727717	0.849533	1.308496
H298	H	0.816101	0.549809	0.624963
H299	H	1.149435	0.883143	0.958296
H300	H	1.482768	1.216476	1.291629
H301	H	0.206162	0.345793	0.315154
H302	H	0.539495	0.679126	0.648487
H303	H	0.872829	1.012459	0.981821
F304	F	0.824436	0.443904	0.641663
F305	F	1.157769	0.777238	0.974997
F306	F	1.491103	1.110571	1.308330
F307	F	0.312028	0.354138	0.298398
F308	F	0.645362	0.687471	0.631732
F309	F	0.978695	1.020804	0.965065
H310	H	0.556561	0.191223	0.625014
H311	H	0.889894	0.524556	0.958348
H312	H	1.223228	0.857890	1.291681
F313	F	0.450696	0.182861	0.641762
F314	F	0.784029	0.516194	0.975096
F315	F	1.117362	0.849527	1.308429
H316	H	0.305424	0.157818	0.691993
H317	H	0.638757	0.491152	1.025327
H318	H	0.972091	0.824485	1.358660
F319	F	-0.051668	0.182870	0.641836
F320	F	0.281666	0.516203	0.975169
F321	F	0.614999	0.849536	1.308503
F322	F	0.199564	0.149465	0.708745
F323	F	0.532897	0.482798	1.042079
F324	F	0.866230	0.816132	1.375412
H325	H	0.816191	0.953105	0.624984
H326	H	1.149524	1.286438	0.958318
H327	H	1.482857	1.619772	1.291651
F328	F	0.824555	1.058969	0.641732
F329	F	1.157889	1.392303	0.975066
F330	F	1.491222	1.725636	1.308399
F331	F	0.857912	0.695046	0.708582
F332	F	1.191246	1.028379	1.041915
F333	F	1.524579	1.361712	1.375249
H334	H	0.849578	0.800929	0.691862
H335	H	1.182911	1.134262	1.025196
H336	H	1.516245	1.467595	1.358529
F337	F	-0.051818	0.320764	0.365441
F338	F	0.281515	0.654097	0.698774
F339	F	0.614848	0.987431	1.032107
F340	F	0.653099	0.695361	0.298574
F341	F	0.986433	1.028694	0.631907
F342	F	1.319766	1.362028	0.965241
H343	H	0.661487	0.801223	0.315304
H344	H	0.994820	1.134556	0.648638
H345	H	1.328153	1.467890	0.981971
F346	F	0.686450	0.444125	0.365488
F347	F	1.019784	0.777459	0.698822
F348	F	1.353117	1.110792	1.032155
F349	F	0.686560	0.946461	0.365514
F350	F	1.019893	1.279795	0.698847
F351	F	1.353226	1.613128	1.032181
H352	H	0.814625	0.192720	1.108708
H353	H	1.147958	0.526053	1.442041
H354	H	1.481292	0.859387	1.775375
H355	H	0.694938	1.052343	0.382261
H356	H	1.028272	1.385676	0.715594
H357	H	1.361605	1.719010	1.048927
