data_functionalizedCrystal
_audit_creation_method	'MofGen! by Chris Wilmer'
_symmetry_space_group_name_H-M	'P1'
_symmetry_Int_Tables_number	1
_symmetry_cell_setting	triclinic
loop_
_symmetry_equiv_pos_as_xyz
  x,y,z
_cell_length_a	10.685980
_cell_length_b	14.908520
_cell_length_c	10.686551
_cell_angle_alpha	89.137942
_cell_angle_beta	81.591741
_cell_angle_gamma	97.923910
loop_
_atom_site_label
_atom_site_type_symbol
_atom_site_fract_x
_atom_site_fract_y
_atom_site_fract_z
Zn1	Zn	1.980592	-0.202209	-0.881837
Zn2	Zn	1.951887	-0.365643	-0.681805
Zn3	Zn	1.750132	-0.227318	-0.655180
Zn4	Zn	1.756017	-0.365556	-0.877708
O5	O	1.859657	-0.290181	-0.774133
O6	O	2.155205	-0.213417	-0.868172
O7	O	1.910648	-0.357839	-0.501430
O8	O	1.790253	-0.097736	-0.675832
O9	O	2.134115	-0.333492	-0.721209
O10	O	1.959571	-0.079289	-0.842356
O11	O	1.762419	-0.256212	-0.481869
O12	O	1.572492	-0.256127	-0.671829
O13	O	1.800284	-0.333342	-1.055099
O14	O	1.576816	-0.357690	-0.835319
O15	O	1.965278	-0.213332	-1.058132
O16	O	1.916354	-0.491882	-0.717206
O17	O	1.772450	-0.491818	-0.861136
C18	C	1.528392	-0.309624	-0.750238
C19	C	1.386676	-0.317962	-0.740047
C20	C	1.841963	-0.524582	-0.791642
C21	C	1.834513	-0.624850	-0.799183
C22	C	1.970541	-0.813253	-0.663623
C23	C	1.963545	-0.907464	-0.670705
C24	C	1.813534	-0.907484	-0.820435
C25	C	1.820530	-0.813273	-0.813353
C26	C	1.899034	-0.766161	-0.734943
C27	C	1.906022	-0.671949	-0.727855
C28	C	1.756019	-0.671970	-0.877592
C29	C	1.749023	-0.766181	-0.884674
C30	C	2.192216	-0.270663	-0.798121
C31	C	2.333933	-0.262346	-0.808344
C32	C	1.886639	-0.270527	-1.103751
C33	C	1.898137	-0.262151	-1.244215
C34	C	1.877457	-0.054862	-0.756585
C35	C	1.885043	0.045417	-0.749107
C36	C	1.832858	-0.309690	-0.445797
C37	C	1.821626	-0.317797	-0.305333
H38	H	1.397194	-0.208347	-0.874609
C39	C	1.301207	-0.390913	-0.650511
N40	N	1.236831	-0.445859	-0.583074
C41	C	1.677356	-0.620161	-0.956049
N42	N	1.618107	-0.581138	-1.015139
H43	H	2.021776	-0.945803	-0.612631
C44	C	1.992378	-0.620128	-0.641603
N45	N	2.057427	-0.581098	-0.576638
H46	H	1.685111	-0.804552	-0.948517
C47	C	1.721243	-0.390816	-1.230851
N48	N	1.645632	-0.445814	-1.174744
H49	H	2.034453	-0.774895	-0.599769
H50	H	1.749629	-0.945857	-0.884282
C51	C	1.998521	-0.189126	-1.318701
N52	N	2.074127	-0.134122	-1.374805
