data_functionalizedCrystal
_audit_creation_method	'MofGen! by Chris Wilmer'
_symmetry_space_group_name_H-M	'P1'
_symmetry_Int_Tables_number	1
_symmetry_cell_setting	triclinic
loop_
_symmetry_equiv_pos_as_xyz
  x,y,z
_cell_length_a	16.120490
_cell_length_b	16.120484
_cell_length_c	16.120297
_cell_angle_alpha	84.385569
_cell_angle_beta	89.870317
_cell_angle_gamma	90.164100
loop_
_atom_site_label
_atom_site_type_symbol
_atom_site_fract_x
_atom_site_fract_y
_atom_site_fract_z
Zn1	Zn	1.224990	-0.422331	0.554787
Zn2	Zn	1.474990	-0.172331	0.804787
Zn3	Zn	1.724990	0.077669	1.054787
Zn4	Zn	1.974990	0.327669	1.304787
Zn5	Zn	1.224886	-0.555015	0.422092
Zn6	Zn	1.474886	-0.305015	0.672092
Zn7	Zn	1.724886	-0.055015	0.922092
Zn8	Zn	1.974886	0.194985	1.172092
Zn9	Zn	1.093729	-0.408239	0.408032
Zn10	Zn	1.343729	-0.158239	0.658032
Zn11	Zn	1.593729	0.091761	0.908032
Zn12	Zn	1.843729	0.341761	1.158032
Zn13	Zn	1.078882	-0.554239	0.554027
Zn14	Zn	1.328882	-0.304239	0.804027
Zn15	Zn	1.578882	-0.054239	1.054027
Zn16	Zn	1.828882	0.195761	1.304027
O17	O	1.155622	-0.484956	0.484735
O18	O	1.405622	-0.234956	0.734735
O19	O	1.655622	0.015044	0.984735
O20	O	1.905622	0.265044	1.234735
O21	O	1.341012	-0.446153	0.543386
O22	O	1.591012	-0.196153	0.793386
O23	O	1.841012	0.053847	1.043386
O24	O	2.091012	0.303847	1.293386
O25	O	1.213657	-0.529972	0.303594
O26	O	1.463657	-0.279972	0.553594
O27	O	1.713657	-0.029972	0.803594
O28	O	1.963657	0.220028	1.053594
O29	O	1.117398	-0.293478	0.421933
O30	O	1.367398	-0.043478	0.671933
O31	O	1.617398	0.206522	0.921933
O32	O	1.867398	0.456522	1.171933
O33	O	1.340936	-0.543636	0.445896
O34	O	1.590936	-0.293636	0.695896
O35	O	1.840936	-0.043636	0.945896
O36	O	2.090936	0.206364	1.195896
O37	O	1.213835	-0.303831	0.529753
O38	O	1.463835	-0.053831	0.779753
O39	O	1.713835	0.196169	1.029753
O40	O	1.963835	0.446169	1.279753
O41	O	1.117297	-0.422137	0.293264
O42	O	1.367297	-0.172137	0.543264
O43	O	1.617297	0.077863	0.793264
O44	O	1.867297	0.327863	1.043264
O45	O	0.975724	-0.421385	0.421197
O46	O	1.225724	-0.171385	0.671197
O47	O	1.475724	0.078615	0.921197
O48	O	1.725724	0.328615	1.171197
O49	O	1.092094	-0.542314	0.670761
O50	O	1.342094	-0.292314	0.920761
O51	O	1.592094	-0.042314	1.170761
O52	O	1.842094	0.207686	1.420761
O53	O	0.964816	-0.528650	0.528459
O54	O	1.214816	-0.278650	0.778459
O55	O	1.464816	-0.028650	1.028459
O56	O	1.714816	0.221350	1.278459
O57	O	1.199439	-0.445401	0.671319
O58	O	1.449439	-0.195401	0.921319
O59	O	1.699439	0.054599	1.171319
O60	O	1.949439	0.304599	1.421319
O61	O	1.199261	-0.671542	0.445159
O62	O	1.449261	-0.421542	0.695159
O63	O	1.699261	-0.171542	0.945159
O64	O	1.949261	0.078458	1.195159
O65	O	1.091993	-0.670972	0.542092
O66	O	1.341993	-0.420972	0.792092
O67	O	1.591993	-0.170972	1.042092
O68	O	1.841993	0.079028	1.292092
C69	C	0.940183	-0.473405	0.473221
C70	C	1.190183	-0.223405	0.723221
C71	C	1.440183	0.026595	0.973221
C72	C	1.690183	0.276595	1.223221
C73	C	0.848015	-0.468484	0.468316
C74	C	1.098015	-0.218484	0.718316
C75	C	1.348015	0.031516	0.968316
C76	C	1.598015	0.281516	1.218316
C77	C	0.632820	-0.510474	0.510179
C78	C	0.882820	-0.260474	0.760179
C79	C	1.132820	-0.010474	1.010179
C80	C	1.382820	0.239526	1.260179
C81	C	0.679267	-0.459508	0.459359
C82	C	0.929267	-0.209508	0.709359
C83	C	1.179267	0.040492	0.959359
C84	C	1.429267	0.290492	1.209359
C85	C	0.773167	-0.464504	0.464344
C86	C	1.023167	-0.214504	0.714344
C87	C	1.273167	0.035496	0.964344
C88	C	1.523167	0.285496	1.214344
C89	C	0.538912	-0.505479	0.505195
C90	C	0.788912	-0.255479	0.755195
C91	C	1.038912	-0.005479	1.005195
C92	C	1.288912	0.244521	1.255195
C93	C	1.144026	-0.701500	0.495088
C94	C	1.394026	-0.451500	0.745088
C95	C	1.644026	-0.201500	0.995088
C96	C	1.894026	0.048500	1.245088
C97	C	1.139140	-0.794144	0.499550
C98	C	1.389140	-0.544144	0.749550
C99	C	1.639140	-0.294144	0.999550
C100	C	1.889140	-0.044144	1.249550
C101	C	1.130223	-0.963767	0.507712
C102	C	1.380223	-0.713767	0.757712
C103	C	1.630223	-0.463767	1.007712
C104	C	1.880223	-0.213767	1.257712
C105	C	1.181169	-1.005313	0.461779
C106	C	1.431169	-0.755313	0.711779
C107	C	1.681169	-0.505313	0.961779
C108	C	1.931169	-0.255313	1.211779
C109	C	1.176207	-1.099697	0.466320
C110	C	1.426207	-0.849697	0.716320
C111	C	1.676207	-0.599697	0.966320
C112	C	1.926207	-0.349697	1.216320
C113	C	1.135183	-0.869375	0.503171
C114	C	1.385183	-0.619375	0.753171
C115	C	1.635183	-0.369375	1.003171
C116	C	1.885183	-0.119375	1.253171
C117	C	1.371902	-0.496553	0.496294
C118	C	1.621902	-0.246553	0.746294
C119	C	1.871902	0.003447	0.996294
C120	C	2.121902	0.253447	1.246294
C121	C	1.464068	-0.501495	0.501220
C122	C	1.714068	-0.251495	0.751220
C123	C	1.964068	-0.001495	1.001220
C124	C	2.214068	0.248505	1.251220
C125	C	1.144122	-0.495343	0.702127
C126	C	1.394122	-0.245343	0.952127
C127	C	1.644122	0.004657	1.202127
C128	C	1.894122	0.254657	1.452127
C129	C	1.139222	-0.499770	0.794767
C130	C	1.389222	-0.249770	1.044767
C131	C	1.639222	0.000230	1.294767
C132	C	1.889222	0.250230	1.544767
C133	C	1.167284	-0.267568	0.474360
C134	C	1.417284	-0.017568	0.724360
C135	C	1.667284	0.232432	0.974360
C136	C	1.917284	0.482432	1.224360
C137	C	1.172254	-0.174931	0.469939
C138	C	1.422254	0.075069	0.719939
C139	C	1.672254	0.325069	0.969939
C140	C	1.922254	0.575069	1.219939
C141	C	1.167128	-0.474552	0.268187
C142	C	1.417128	-0.224552	0.518187
C143	C	1.667128	0.025448	0.768187
C144	C	1.917128	0.275448	1.018187
C145	C	1.172201	-0.469899	0.175545
C146	C	1.422201	-0.219899	0.425545
C147	C	1.672201	0.030101	0.675545
C148	C	1.922201	0.280101	0.925545
C149	C	1.130245	-0.507831	0.964378
C150	C	1.380245	-0.257831	1.214378
C151	C	1.630245	-0.007831	1.464378
C152	C	1.880245	0.242169	1.714378
C153	C	1.181175	-0.461840	1.005939
C154	C	1.431175	-0.211840	1.255939
C155	C	1.681175	0.038160	1.505939
C156	C	1.931175	0.288160	1.755939
C157	C	1.176180	-0.466326	1.100317
C158	C	1.426180	-0.216326	1.350317
C159	C	1.676180	0.033674	1.600317
C160	C	1.926180	0.283674	1.850317
C161	C	1.135239	-0.503346	0.869992
C162	C	1.385239	-0.253346	1.119992
C163	C	1.635239	-0.003346	1.369992
C164	C	1.885239	0.246654	1.619992
H165	H	0.663575	-0.557856	0.557426
H166	H	0.913575	-0.307856	0.807426
H167	H	1.163575	-0.057856	1.057426
H168	H	1.413575	0.192144	1.307426
C169	C	1.066266	-1.011465	0.565438
C170	C	1.316266	-0.761465	0.815438
C171	C	1.566266	-0.511465	1.065438
C172	C	1.816266	-0.261465	1.315438
H173	H	1.034954	-0.972988	0.593666
H174	H	1.284954	-0.722988	0.843666
H175	H	1.534954	-0.472988	1.093666
H176	H	1.784954	-0.222988	1.343666
H177	H	1.030104	-1.042018	0.533197
H178	H	1.280104	-0.792018	0.783197
H179	H	1.530104	-0.542018	1.033197
H180	H	1.780104	-0.292018	1.283197
H181	H	1.094291	-1.048815	0.605076
H182	H	1.344291	-0.798815	0.855076
H183	H	1.594291	-0.548815	1.105076
H184	H	1.844291	-0.298815	1.355076
H185	H	1.082897	-0.550570	0.999674
H186	H	1.332897	-0.300570	1.249674
H187	H	1.582897	-0.050570	1.499674
H188	H	1.832897	0.199430	1.749674
C189	C	1.245122	-0.957614	0.404040
C190	C	1.495122	-0.707614	0.654040
C191	C	1.745122	-0.457614	0.904040
C192	C	1.995122	-0.207614	1.154040
H193	H	1.276437	-0.996095	0.375820
H194	H	1.526437	-0.746095	0.625820
H195	H	1.776437	-0.496095	0.875820
H196	H	2.026437	-0.246095	1.125820
H197	H	1.217098	-0.920265	0.364408
H198	H	1.467098	-0.670265	0.614408
H199	H	1.717098	-0.420265	0.864408
H200	H	1.967098	-0.170265	1.114408
H201	H	1.281296	-0.927063	0.436279
H202	H	1.531296	-0.677063	0.686279
H203	H	1.781296	-0.427063	0.936279
H204	H	2.031296	-0.177063	1.186279
C205	C	1.245151	-0.404103	0.958265
C206	C	1.495151	-0.154103	1.208265
C207	C	1.745151	0.095897	1.458265
C208	C	1.995151	0.345897	1.708265
H209	H	1.276447	-0.375835	0.996754
H210	H	1.526447	-0.125835	1.246754
H211	H	1.776447	0.124165	1.496754
H212	H	2.026447	0.374165	1.746754
H213	H	1.281328	-0.436345	0.927768
H214	H	1.531328	-0.186345	1.177768
H215	H	1.781328	0.063655	1.427768
H216	H	2.031328	0.313655	1.677768
H217	H	1.217142	-0.364500	0.920866
H218	H	1.467142	-0.114500	1.170866
H219	H	1.717142	0.135500	1.420866
H220	H	1.967142	0.385500	1.670866
C221	C	0.637724	-0.395491	0.395530
C222	C	0.887724	-0.145491	0.645530
C223	C	1.137724	0.104509	0.895530
C224	C	1.387724	0.354509	1.145530
H225	H	0.579148	-0.400491	0.400508
H226	H	0.829148	-0.150491	0.650508
H227	H	1.079148	0.099509	0.900508
H228	H	1.329148	0.349509	1.150508
H229	H	0.654213	-0.340837	0.405879
H230	H	0.904213	-0.090837	0.655879
H231	H	1.154213	0.159163	0.905879
H232	H	1.404213	0.409163	1.155879
H233	H	0.654172	-0.405666	0.340820
H234	H	0.904172	-0.155666	0.590820
H235	H	1.154172	0.094334	0.840820
H236	H	1.404172	0.344334	1.090820
