data_functionalizedCrystal
_audit_creation_method	'MofGen! by Chris Wilmer'
_symmetry_space_group_name_H-M	'P1'
_symmetry_Int_Tables_number	1
_symmetry_cell_setting	triclinic
loop_
_symmetry_equiv_pos_as_xyz
  x,y,z
_cell_length_a	15.995350
_cell_length_b	15.995350
_cell_length_c	14.472310
_cell_angle_alpha	90.001162
_cell_angle_beta	89.990621
_cell_angle_gamma	83.492375
loop_
_atom_site_label
_atom_site_type_symbol
_atom_site_fract_x
_atom_site_fract_y
_atom_site_fract_z
O1	O	1.110997	0.107921	-0.076758
O2	O	1.610997	0.607921	0.423242
O3	O	0.867221	0.121248	-0.076776
O4	O	1.367221	0.621248	0.423224
O5	O	0.995773	-0.007303	-0.076766
O6	O	1.495773	0.492697	0.423234
O7	O	0.982445	0.236472	-0.076769
O8	O	1.482445	0.736472	0.423231
O9	O	0.995740	-0.007296	0.076916
O10	O	1.495740	0.492704	0.576916
O11	O	0.867188	0.121256	0.076906
O12	O	1.367188	0.621256	0.576906
O13	O	1.110963	0.107928	0.076924
O14	O	1.610963	0.607928	0.576924
Cu15	Cu	0.989073	0.114593	0.090947
Cu16	Cu	1.489073	0.614593	0.590947
Cu17	Cu	0.989112	0.114584	-0.090800
Cu18	Cu	1.489112	0.614584	0.409200
O19	O	0.982412	0.236480	0.076913
O20	O	1.482412	0.736480	0.576913
C21	C	0.836010	0.120701	0.000062
C22	C	1.336010	0.620701	0.500062
C23	C	0.743060	0.119049	0.000055
C24	C	1.243060	0.619049	0.500055
C25	C	0.405312	0.113117	0.000074
C26	C	0.905312	0.613117	0.500074
C27	C	0.452746	0.021565	0.000418
C28	C	0.952746	0.521565	0.500418
C29	C	0.549436	0.023217	0.000065
C30	C	1.049436	0.523217	0.500065
C31	C	0.572873	0.116060	0.000065
C32	C	1.072873	0.616060	0.500065
C33	C	0.531804	0.161212	-0.087692
C34	C	1.031804	0.661212	0.412308
C35	C	0.435169	0.158912	-0.087759
C36	C	0.935169	0.658912	0.412241
C37	C	0.434792	0.160812	0.087007
C38	C	0.934792	0.660812	0.587007
C39	C	0.531737	0.160790	0.088160
C40	C	1.031737	0.660790	0.588160
C41	C	0.667570	0.117727	0.000057
C42	C	1.167570	0.617727	0.500057
C43	C	0.310614	0.111452	0.000076
C44	C	0.810614	0.611452	0.500076
C45	C	0.995205	-0.038494	0.000073
C46	C	1.495205	0.461506	0.500073
C47	C	0.993553	-0.131444	0.000068
C48	C	1.493553	0.368556	0.500068
C49	C	0.987621	-0.469192	0.000071
C50	C	1.487621	0.030808	0.500071
C51	C	0.896069	-0.421758	-0.000281
C52	C	1.396069	0.078242	0.499719
C53	C	0.897721	-0.325068	0.000066
C54	C	1.397721	0.174932	0.500066
C55	C	0.990564	-0.301631	0.000069
C56	C	1.490564	0.198369	0.500069
C57	C	1.035701	-0.342705	0.087831
C58	C	1.535701	0.157295	0.587831
C59	C	1.033401	-0.439340	0.087904
C60	C	1.533401	0.060660	0.587904
C61	C	1.035330	-0.439707	-0.086861
C62	C	1.535330	0.060293	0.413139
C63	C	1.035309	-0.342762	-0.088021
C64	C	1.535309	0.157238	0.411979
C65	C	0.992231	-0.206934	0.000071
C66	C	1.492231	0.293066	0.500071
C67	C	0.985956	-0.563890	0.000075
C68	C	1.485956	-0.063890	0.500075
C69	C	1.142175	0.108476	0.000083
C70	C	1.642175	0.608476	0.500083
C71	C	1.235125	0.110127	0.000084
C72	C	1.735125	0.610127	0.500084
C73	C	0.982980	0.267671	0.000072
C74	C	1.482980	0.767671	0.500072
C75	C	0.984631	0.360621	0.000071
C76	C	1.484631	0.860621	0.500071
N77	N	0.989051	0.114598	0.218778
N78	N	1.489051	0.614598	0.718778
N79	N	0.989140	0.114572	-0.218631
N80	N	1.489140	0.614572	0.281369
C81	C	0.989111	0.114581	0.592869
C82	C	1.489111	0.614581	1.092869
C83	C	0.920095	0.183135	0.553698
C84	C	1.420095	0.683135	1.053698
C85	C	0.920254	0.183385	0.446610
C86	C	1.420254	0.683385	0.946610
C87	C	0.989081	0.114590	0.407278
C88	C	1.489081	0.614590	0.907278
C89	C	1.076445	0.133671	0.446122
C90	C	1.576445	0.633671	0.946122
C91	C	1.076057	0.134159	0.553243
C92	C	1.576057	0.634159	1.053243
C93	C	0.971542	0.026741	0.553398
C94	C	1.471542	0.526741	1.053398
C95	C	0.969538	0.027327	0.446270
C96	C	1.469538	0.527327	0.946270
C97	C	0.989069	0.114593	0.302390
C98	C	1.489069	0.614593	0.802390
C99	C	0.989128	0.114579	0.697757
C100	C	1.489128	0.614579	1.197757
H101	H	0.547101	0.228494	0.093461
H102	H	1.047101	0.728494	0.593461
C103	C	0.849433	-0.287411	0.085189
C104	C	1.349433	0.212589	0.585189
H105	H	0.850270	-0.228119	0.085686
H106	H	1.350270	0.271881	0.585686
H107	H	0.875384	-0.310889	0.139782
H108	H	1.375384	0.189111	0.639782
H109	H	0.792841	-0.299982	0.082604
H110	H	1.292841	0.200018	0.582604
C111	C	0.391891	0.251999	0.087810
C112	C	0.891891	0.751999	0.587810
H113	H	0.356180	0.260994	0.035456
H114	H	0.856180	0.760994	0.535456
H115	H	0.433560	0.289819	0.085880
H116	H	0.933560	0.789819	0.585880
H117	H	0.359448	0.261432	0.142582
H118	H	0.859448	0.761432	0.642582
C119	C	0.391601	0.249708	-0.093163
C120	C	0.891601	0.749708	0.406837
H121	H	0.432985	0.287835	-0.095315
H122	H	0.932985	0.787835	0.404685
H123	H	0.357073	0.261269	-0.040248
H124	H	0.857073	0.761269	0.459752
H125	H	0.357877	0.256038	-0.147285
H126	H	0.857877	0.756038	0.352715
H127	H	1.129029	0.085068	0.420643
H128	H	1.629029	0.585068	0.920643
C129	C	0.849777	-0.286670	-0.084911
C130	C	1.349777	0.213330	0.415089
H131	H	0.829109	-0.330160	-0.119954
H132	H	1.329109	0.169840	0.380046
H133	H	0.886678	-0.258381	-0.122043
H134	H	1.386678	0.241619	0.377957
H135	H	0.803945	-0.247790	-0.065156
H136	H	1.303945	0.252210	0.434844
H137	H	0.433166	-0.014865	-0.062168
H138	H	0.933166	0.485135	0.437832
C139	C	1.127842	-0.323619	0.092253
C140	C	1.627842	0.176381	0.592253
H141	H	1.139628	-0.290349	0.040494
H142	H	1.639628	0.209651	0.540494
H143	H	1.164148	-0.374906	0.091442
H144	H	1.664148	0.125094	0.591442
H145	H	1.136588	-0.293810	0.147550
H146	H	1.636588	0.206190	0.647550
C147	C	0.550890	0.253353	-0.092111
C148	C	1.050890	0.753353	0.407889
H149	H	0.584158	0.265131	-0.040354
H150	H	1.084158	0.765131	0.459646
H151	H	0.499603	0.289659	-0.091295
H152	H	0.999603	0.789659	0.408705
H153	H	0.580703	0.262108	-0.147409
H154	H	1.080703	0.762108	0.352591
C155	C	1.124198	-0.482909	0.093304
C156	C	1.624198	0.017091	0.593304
H157	H	1.162324	-0.441525	0.095451
H158	H	1.662324	0.058475	0.595451
H159	H	1.135760	-0.517429	0.040388
H160	H	1.635760	-0.017429	0.540388
H161	H	1.130526	-0.516639	0.147426
H162	H	1.630526	-0.016639	0.647426
H163	H	1.000459	-0.457639	0.153505
H164	H	1.500459	0.042361	0.653505
C165	C	0.832077	0.168033	0.588515
C166	C	1.332077	0.668033	1.088515
H167	H	0.791329	0.210065	0.564087
H168	H	1.291329	0.710065	1.064087
H169	H	0.830943	0.170570	0.654087
H170	H	1.330943	0.670570	1.154087
H171	H	0.819651	0.114144	0.568833
H172	H	1.319651	0.614144	1.068833
C173	C	0.993308	-0.304375	0.176057
C174	C	1.493308	0.195625	0.676057
H175	H	0.948108	-0.263351	0.159596
H176	H	1.448108	0.236649	0.659596
H177	H	1.033287	-0.278634	0.211568
H178	H	1.533287	0.221366	0.711568
H179	H	0.972355	-0.347498	0.211427
H180	H	1.472355	0.152502	0.711427
H181	H	1.005412	-0.460250	-0.153379
H182	H	1.505412	0.039750	0.346621
H183	H	1.103014	-0.327400	-0.093317
H184	H	1.603014	0.172600	0.406683
H185	H	0.416874	0.125979	-0.153359
H186	H	0.916874	0.625979	0.346641
C187	C	0.846645	-0.446804	-0.085292
C188	C	1.346645	0.053196	0.414708
H189	H	0.881396	-0.486417	-0.121331
H190	H	1.381396	0.013583	0.378669
H191	H	0.829814	-0.398230	-0.121433
H192	H	1.329814	0.101770	0.378567
H193	H	0.798234	-0.471238	-0.065552
H194	H	1.298234	0.028762	0.434448
H195	H	1.091540	0.198219	0.578220
H196	H	1.591540	0.698219	1.078220
H197	H	0.859626	-0.441349	0.062299
H198	H	1.359626	0.058651	0.562299
C199	C	1.033029	-0.044826	0.410111
C200	C	1.533029	0.455174	0.910111
H201	H	1.019703	-0.096748	0.434762
H202	H	1.519703	0.403252	0.934762
H203	H	1.088211	-0.035640	0.428679
H204	H	1.588211	0.464360	0.928679
H205	H	1.030333	-0.046610	0.344576
H206	H	1.530333	0.453390	0.844576
H207	H	1.002307	-0.315516	-0.152945
H208	H	1.502307	0.184484	0.347055
C209	C	1.126514	-0.482618	-0.087665
C210	C	1.626514	0.017382	0.412335
H211	H	1.135499	-0.518334	-0.035310
H212	H	1.635499	-0.018334	0.464690
H213	H	1.164341	-0.440956	-0.085738
H214	H	1.664341	0.059044	0.414262
H215	H	1.135946	-0.515057	-0.142436
H216	H	1.635946	-0.015057	0.357564
H217	H	0.855314	0.172016	0.420349
H218	H	1.355314	0.672016	0.920349
C219	C	0.935040	0.270700	0.590041
C220	C	1.435040	0.770700	1.090041
H221	H	0.983159	0.265661	0.628980
H222	H	1.483159	0.765661	1.128980
H223	H	0.887243	0.294013	0.624142
H224	H	1.387243	0.794013	1.124142
H225	H	0.943957	0.306444	0.539415
H226	H	1.443957	0.806444	1.039415
H227	H	0.931473	0.248569	0.420976
H228	H	1.431473	0.748569	0.920976
C229	C	0.587093	-0.025051	-0.085069
C230	C	1.087093	0.474949	0.414931
H231	H	0.543288	-0.045740	-0.119578
H232	H	1.043288	0.454260	0.380422
H233	H	0.626062	-0.070872	-0.065504
H234	H	1.126062	0.429128	0.434496
H235	H	0.615151	0.011690	-0.122661
H236	H	1.115151	0.511690	0.377339
H237	H	1.129018	0.086196	0.579154
H238	H	1.629018	0.586196	1.079154
C239	C	0.568600	0.116258	0.175869
C240	C	1.068600	0.616258	0.675869
H241	H	0.543464	0.143603	0.228925
H242	H	1.043464	0.643603	0.728925
H243	H	0.627673	0.118501	0.177490
H244	H	1.127673	0.618501	0.677490
H245	H	0.557390	0.059192	0.175308
H246	H	1.057390	0.559192	0.675308
C247	C	0.587828	-0.024729	0.085045
C248	C	1.087828	0.475271	0.585045
H249	H	0.544335	-0.045399	0.120093
H250	H	1.044335	0.454601	0.620093
H251	H	0.616110	0.012175	0.122170
H252	H	1.116110	0.512175	0.622170
H253	H	0.626712	-0.070559	0.065297
H254	H	1.126712	0.429441	0.565297
C255	C	0.427702	-0.027871	0.085433
C256	C	0.927702	0.472129	0.585433
H257	H	0.388089	0.006876	0.121478
H258	H	0.888089	0.506876	0.621478
H259	H	0.476277	-0.044703	0.121566
H260	H	0.976277	0.455297	0.621566
H261	H	0.403269	-0.076280	0.065700
H262	H	0.903269	0.423720	0.565700
C263	C	1.039524	-0.042180	0.587623
C264	C	1.539524	0.457820	1.087623
H265	H	1.078430	-0.017589	0.625782
H266	H	1.578430	0.482411	1.125782
H267	H	1.068308	-0.068619	0.536109
H268	H	1.568308	0.431381	1.036109
H269	H	1.013773	-0.082841	0.622114
H270	H	1.513773	0.417159	1.122114
C271	C	1.097862	0.219226	0.409878
C272	C	1.597862	0.719226	0.909878
H273	H	1.053681	0.243426	0.371086
H274	H	1.553681	0.743426	0.871086
H275	H	1.148822	0.211335	0.375643
H276	H	1.648822	0.711335	0.875643
H277	H	1.104277	0.255708	0.460554
H278	H	1.604277	0.755708	0.960554
H279	H	0.909219	0.008392	0.580461
H280	H	1.409219	0.508392	1.080461
C281	C	0.882720	0.007761	0.411981
C282	C	1.382720	0.507761	0.911981
H283	H	0.858480	0.052577	0.374055
H284	H	1.358480	0.552577	0.874055
H285	H	0.847103	0.001592	0.463479
H286	H	1.347103	0.501592	0.963479
H287	H	0.889020	-0.042954	0.377234
H288	H	1.389020	0.457046	0.877234
H289	H	0.560193	0.129845	-0.153002
H290	H	1.060193	0.629845	0.346998
H291	H	0.414242	0.130885	0.153524
H292	H	0.914242	0.630885	0.653524
