data_functionalizedCrystal
_audit_creation_method	'MofGen! by Chris Wilmer'
_symmetry_space_group_name_H-M	'P1'
_symmetry_Int_Tables_number	1
_symmetry_cell_setting	triclinic
loop_
_symmetry_equiv_pos_as_xyz
  x,y,z
_cell_length_a	12.594517
_cell_length_b	18.050583
_cell_length_c	12.594516
_cell_angle_alpha	90.030412
_cell_angle_beta	89.984147
_cell_angle_gamma	89.983678
loop_
_atom_site_label
_atom_site_type_symbol
_atom_site_fract_x
_atom_site_fract_y
_atom_site_fract_z
Zn1	Zn	1.627214	-0.419949	0.423671
Zn2	Zn	2.127214	0.080051	0.923671
Zn3	Zn	1.627121	-0.295772	0.601695
Zn4	Zn	2.127121	0.204228	1.101695
Zn5	Zn	1.449234	-0.295772	0.423730
Zn6	Zn	1.949234	0.204228	0.923730
Zn7	Zn	1.449200	-0.419919	0.601608
Zn8	Zn	1.949200	0.080081	1.101608
O9	O	1.538192	-0.357853	0.512676
O10	O	2.038192	0.142147	1.012676
O11	O	1.776148	-0.403488	0.447299
O12	O	2.276148	0.096512	0.947299
O13	O	1.603498	-0.191847	0.578148
O14	O	2.103498	0.308153	1.078148
O15	O	1.472896	-0.312257	0.274776
O16	O	1.972896	0.187743	0.774776
O17	O	1.776079	-0.312256	0.578092
O18	O	2.276079	0.187744	1.078092
O19	O	1.603658	-0.403489	0.274733
O20	O	2.103658	0.096511	0.774733
O21	O	1.472806	-0.191848	0.447398
O22	O	1.972806	0.308152	0.947398
O23	O	1.300284	-0.312229	0.447314
O24	O	1.800284	0.187771	0.947314
O25	O	1.472840	-0.523848	0.577943
O26	O	1.972840	-0.023848	1.077943
O27	O	1.300259	-0.403439	0.578000
O28	O	1.800259	0.096561	1.078000
O29	O	1.603626	-0.523870	0.447214
O30	O	2.103626	-0.023870	0.947214
O31	O	1.603466	-0.312227	0.750629
O32	O	2.103466	0.187773	1.250629
O33	O	1.472749	-0.403438	0.750565
O34	O	1.972749	0.096562	1.250565
C35	C	1.261651	-0.357831	0.512655
C36	C	1.761651	0.142169	1.012655
C37	C	1.143346	-0.357839	0.512671
C38	C	1.643346	0.142161	1.012671
C39	C	1.074075	-0.308325	0.441494
C40	C	1.574075	0.191675	0.941494
C41	C	1.003267	-0.290060	0.538585
C42	C	1.503267	0.209940	1.038585
C43	C	1.003356	-0.376116	0.415628
C44	C	1.503356	0.123884	0.915628
C45	C	1.074095	-0.339540	0.609813
C46	C	1.574095	0.160460	1.109813
C47	C	1.074191	-0.425627	0.486791
C48	C	1.574191	0.074373	0.986791
C49	C	1.003414	-0.407389	0.583948
C50	C	1.503414	0.092611	1.083948
C51	C	1.538239	-0.551559	0.512562
C52	C	2.038239	-0.051559	1.012562
C53	C	1.538259	-0.634105	0.512514
C54	C	2.038259	-0.134105	1.012514
C55	C	1.609452	-0.833567	0.441389
C56	C	2.109452	-0.333567	0.941389
C57	C	1.512370	-0.882960	0.415339
C58	C	2.012370	-0.382960	0.915339
C59	C	1.538302	-0.785235	0.512496
C60	C	2.038302	-0.285235	1.012496
C61	C	1.635423	-0.882924	0.538479
C62	C	2.135423	-0.382924	1.038479
C63	C	1.538352	-0.931220	0.512476
C64	C	2.038352	-0.431220	1.012476
C65	C	1.441169	-0.833540	0.486395
C66	C	1.941169	-0.333540	0.986395
C67	C	1.564287	-0.833500	0.609580
C68	C	2.064287	-0.333500	1.109580
C69	C	1.467138	-0.882871	0.583567
C70	C	1.967138	-0.382871	1.083567
C71	C	1.538275	-0.701137	0.512504
C72	C	2.038275	-0.201137	1.012504
C73	C	1.538368	-1.015317	0.512468
C74	C	2.038368	-0.515317	1.012468
C75	C	1.815813	-0.357875	0.512698
C76	C	2.315813	0.142125	1.012698
C77	C	1.934119	-0.357885	0.512708
C78	C	2.434119	0.142115	1.012708
C79	C	1.538123	-0.357846	0.789217
C80	C	2.038123	0.142154	1.289217
C81	C	1.538190	-0.357867	0.907522
C82	C	2.038190	0.142133	1.407522
C83	C	1.538207	-0.164901	0.512712
C84	C	2.038207	0.335099	1.012712
C85	C	1.538393	-0.082356	0.512461
C86	C	2.038393	0.417644	1.012461
C87	C	1.538291	-0.357877	0.235055
C88	C	2.038291	0.142123	0.735055
C89	C	1.538334	-0.357887	0.116750
C90	C	2.038334	0.142113	0.616750
C91	C	1.467086	-0.407442	0.976779
C92	C	1.967086	0.092558	1.476779
C93	C	1.441161	-0.339676	1.047652
C94	C	1.941161	0.160324	1.547652
C95	C	1.564212	-0.425645	1.047449
C96	C	2.064212	0.074355	1.547449
C97	C	1.512214	-0.290065	0.976837
C98	C	2.012214	0.209935	1.476837
C99	C	1.635310	-0.376080	0.976627
C100	C	2.135310	0.123920	1.476627
C101	C	1.609422	-0.308267	1.047468
C102	C	2.109422	0.191733	1.547468
H103	H	0.972115	-0.232753	0.560498
H104	H	1.472115	0.267247	1.060498
H105	H	1.717536	-0.904619	0.560462
H106	H	2.217536	-0.404619	1.060462
H107	H	1.490407	-0.904685	0.333228
H108	H	1.990407	-0.404685	0.833228
F109	F	1.333890	-0.319544	1.088426
F110	F	1.833890	0.180456	1.588426
F111	F	1.592903	-0.500554	1.087996
F112	F	2.092903	-0.000554	1.587996
H113	H	0.972583	-0.449281	0.644226
H114	H	1.472583	0.050719	1.144226
F115	F	1.388431	-0.911001	0.662144
F116	F	1.888431	-0.411001	1.162144
H117	H	1.105039	-0.324037	0.691921
H118	H	1.605039	0.175963	1.191921
F119	F	1.114632	-0.253529	0.362895
F120	F	1.614632	0.246471	0.862895
H121	H	1.586280	-0.811761	0.691668
H122	H	2.086280	-0.311761	1.191668
F123	F	1.742552	-0.396237	0.935821
F124	F	2.242552	0.103763	1.435821
H125	H	1.105368	-0.482917	0.464848
H126	H	1.605368	0.017083	0.964848
F127	F	0.962734	-0.396296	0.308342
F128	F	1.462734	0.103704	0.808342
F129	F	1.687972	-0.805268	0.362746
F130	F	2.187972	-0.305268	0.862746
H131	H	1.406848	-0.449305	0.945740
H132	H	1.906848	0.050695	1.445740
H133	H	1.490168	-0.232739	0.945947
H134	H	1.990168	0.267261	1.445947
H135	H	1.359032	-0.811939	0.464315
H136	H	1.859032	-0.311939	0.964315
F137	F	1.688100	-0.253420	1.087782
F138	F	2.188100	0.246580	1.587782
