data_functionalizedCrystal
_audit_creation_method	'MofGen! by Chris Wilmer'
_symmetry_space_group_name_H-M	'P1'
_symmetry_Int_Tables_number	1
_symmetry_cell_setting	triclinic
loop_
_symmetry_equiv_pos_as_xyz
  x,y,z
_cell_length_a	10.685941
_cell_length_b	17.639123
_cell_length_c	10.686551
_cell_angle_alpha	104.623150
_cell_angle_beta	89.639725
_cell_angle_gamma	82.275919
loop_
_atom_site_label
_atom_site_type_symbol
_atom_site_fract_x
_atom_site_fract_y
_atom_site_fract_z
Zn1	Zn	-0.008980	-1.263059	-1.122754
Zn2	Zn	-0.234359	-1.264568	-0.929562
Zn3	Zn	-0.073864	-1.121884	-0.871085
Zn4	Zn	-0.260459	-1.142030	-1.102876
O5	O	-0.144416	-1.197885	-1.006569
O6	O	-0.000800	-1.373624	-1.129919
O7	O	-0.229301	-1.237841	-0.743947
O8	O	0.107156	-1.131548	-0.888317
O9	O	-0.166385	-1.374733	-0.987981
O10	O	0.154826	-1.235269	-1.073217
O11	O	-0.111386	-1.133011	-0.700985
O12	O	-0.136694	-1.014191	-0.869041
O13	O	-0.210868	-1.165884	-1.283370
O14	O	-0.273784	-1.028992	-1.039337
O15	O	-0.026107	-1.254804	-1.297975
O16	O	-0.410234	-1.257376	-0.968705
O17	O	-0.429410	-1.167348	-1.096039
C18	C	-0.215113	-0.992975	-0.945688
C19	C	-0.245384	-0.905317	-0.919675
C20	C	-0.374144	-0.782330	-0.808983
C21	C	-0.345689	-0.864699	-0.833434
C22	C	-0.173498	-0.863576	-0.981505
C23	C	-0.201943	-0.781206	-0.957071
C24	C	-0.302266	-0.740590	-0.870808
C25	C	-0.130065	-0.739466	-1.018897
C26	C	-0.158503	-0.657103	-0.994459
C27	C	-0.258820	-0.616480	-0.908197
C28	C	-0.330705	-0.658227	-0.846370
C29	C	-0.029736	-0.780083	-1.105153
C30	C	0.042142	-0.738343	-1.166978
C31	C	0.013698	-0.655979	-1.142548
C32	C	-0.086618	-0.615356	-1.056286
C33	C	0.085583	-0.614232	-1.204374
C34	C	0.057145	-0.531869	-1.179937
C35	C	-0.115057	-0.532993	-1.031848
C36	C	0.176945	-1.180993	-0.976461
C37	C	0.313890	-1.173794	-0.963631
C38	C	0.535472	-1.214706	-1.036568
C39	C	0.398527	-1.221905	-1.049399
C40	C	-0.114161	-1.212423	-1.338078
C41	C	-0.101269	-1.218618	-1.479348
C42	C	-0.073438	-0.403594	-1.067674
C43	C	-0.043179	-0.491253	-1.093673
C44	C	-0.174448	-1.183444	-0.676355
C45	C	-0.186940	-1.177384	-0.535100
H46	H	-0.281956	-0.549413	-0.888281
H47	H	-0.412408	-0.625156	-0.776138
H48	H	0.366222	-1.268605	-1.132639
H49	H	-0.018057	-1.258667	-1.539700
C50	C	0.357521	-1.110704	-0.851164
H51	H	0.286061	-1.081490	-0.799073
H52	H	0.400319	-1.075864	-0.884922
H53	H	0.413089	-1.135841	-0.800096
C54	C	-0.225415	-0.488307	-0.936966
H55	H	-0.232057	-0.433277	-0.931277
H56	H	-0.210398	-0.497090	-0.853896
H57	H	-0.301880	-0.506978	-0.967212
H58	H	-0.404229	-0.898681	-0.783082
H59	H	-0.455847	-0.749259	-0.738750
C60	C	-0.299350	-1.123287	-1.453587
H61	H	-0.293555	-1.126074	-1.366145
H62	H	-0.376195	-1.140117	-1.486462
H63	H	-0.297633	-1.070286	-1.457844
H64	H	-0.091812	-0.896657	-1.051737
H65	H	-0.006581	-0.847148	-1.125041
C66	C	0.152485	-0.783025	-1.261866
H67	H	0.159124	-0.838057	-1.267574
H68	H	0.228948	-0.764352	-1.231645
H69	H	0.137441	-0.774242	-1.344939
H70	H	0.167274	-0.647314	-1.274600
H71	H	0.115680	-0.497883	-1.230275
