data_functionalizedCrystal
_audit_creation_method	'MofGen! by Chris Wilmer'
_symmetry_space_group_name_H-M	'P1'
_symmetry_Int_Tables_number	1
_symmetry_cell_setting	triclinic
loop_
_symmetry_equiv_pos_as_xyz
  x,y,z
_cell_length_a	18.215407
_cell_length_b	17.640280
_cell_length_c	18.215399
_cell_angle_alpha	78.775397
_cell_angle_beta	89.980167
_cell_angle_gamma	78.800709
loop_
_atom_site_label
_atom_site_type_symbol
_atom_site_fract_x
_atom_site_fract_y
_atom_site_fract_z
Zn1	Zn	1.184366	-0.314661	-0.356963
Zn2	Zn	1.517699	0.018673	-0.023629
Zn3	Zn	1.851032	0.352006	0.309704
Zn4	Zn	1.209181	-0.446838	-0.209048
Zn5	Zn	1.542514	-0.113505	0.124285
Zn6	Zn	1.875848	0.219829	0.457618
Zn7	Zn	1.061303	-0.314687	-0.233905
Zn8	Zn	1.394636	0.018647	0.099428
Zn9	Zn	1.727970	0.351980	0.432761
Zn10	Zn	1.086163	-0.446794	-0.332082
Zn11	Zn	1.419496	-0.113461	0.001252
Zn12	Zn	1.752829	0.219873	0.334585
O13	O	1.135253	-0.380745	-0.282999
O14	O	1.468586	-0.047412	0.050334
O15	O	1.801920	0.285922	0.383667
O16	O	1.290643	-0.332202	-0.337352
O17	O	1.623976	0.001131	-0.004018
O18	O	1.957310	0.334465	0.329315
O19	O	1.189546	-0.429337	-0.109356
O20	O	1.522879	-0.096004	0.223977
O21	O	1.856213	0.237329	0.557311
O22	O	1.056838	-0.204079	-0.271045
O23	O	1.390172	0.129254	0.062289
O24	O	1.723505	0.462587	0.395622
O25	O	1.308875	-0.429312	-0.228680
O26	O	1.642208	-0.095979	0.104654
O27	O	1.975542	0.237355	0.437987
O28	O	1.147252	-0.204060	-0.361454
O29	O	1.480585	0.129273	-0.028121
O30	O	1.813918	0.462606	0.305212
O31	O	1.080901	-0.332246	-0.127618
O32	O	1.414234	0.001087	0.205715
O33	O	1.747567	0.334421	0.539049
O34	O	0.961615	-0.332203	-0.246918
O35	O	1.294948	0.001130	0.086415
O36	O	1.628282	0.334463	0.419748
O37	O	1.099208	-0.429237	-0.438372
O38	O	1.432541	-0.095904	-0.105039
O39	O	1.765875	0.237430	0.228295
O40	O	0.979879	-0.429262	-0.319048
O41	O	1.313213	-0.095929	0.014285
O42	O	1.646546	0.237404	0.347619
O43	O	1.171357	-0.332159	-0.456652
O44	O	1.504691	0.001174	-0.123319
O45	O	1.838024	0.334507	0.210015
O46	O	1.213652	-0.557436	-0.204553
O47	O	1.546985	-0.224103	0.128780
O48	O	1.880318	0.109230	0.462113
O49	O	1.123271	-0.557404	-0.294945
O50	O	1.456604	-0.224071	0.038388
O51	O	1.789937	0.109263	0.371721
C52	C	0.944044	-0.380731	-0.282981
C53	C	1.277378	-0.047398	0.050352
C54	C	1.610711	0.285935	0.383686
C55	C	0.862248	-0.380745	-0.282987
C56	C	1.195581	-0.047411	0.050347
C57	C	1.528915	0.285922	0.383680
C58	C	0.683598	-0.431363	-0.320471
C59	C	1.016932	-0.098029	0.012863
C60	C	1.350265	0.235304	0.346196
C61	C	0.606740	-0.431365	-0.320479
C62	C	0.940073	-0.098032	0.012854
C63	C	1.273407	0.235302	0.346187
C64	C	0.587662	-0.330142	-0.245542
C65	C	0.920996	0.003192	0.087792
C66	C	1.254329	0.336525	0.421125
C67	C	0.664519	-0.330136	-0.245538
C68	C	0.997852	0.003198	0.087796
C69	C	1.331185	0.336531	0.421129
C70	C	0.712485	-0.380751	-0.283000
C71	C	1.045819	-0.047417	0.050333
C72	C	1.379152	0.285916	0.383666
C73	C	0.558771	-0.380759	-0.283013
C74	C	0.892104	-0.047426	0.050320
C75	C	1.225438	0.285908	0.383654
C76	C	0.475438	-0.380761	-0.283022
C77	C	0.808771	-0.047428	0.050311
C78	C	1.142104	0.285905	0.383645
C79	C	0.795824	-0.380748	-0.282993
C80	C	1.129157	-0.047414	0.050341
C81	C	1.462491	0.285919	0.383674
C82	C	1.173871	-0.586099	-0.244368
C83	C	1.507205	-0.252765	0.088965
C84	C	1.840538	0.080568	0.422298
C85	C	1.190460	-0.673950	-0.227866
C86	C	1.523793	-0.340616	0.105467
C87	C	1.857127	-0.007283	0.438800
C88	C	1.009534	-0.962935	-0.408631
C89	C	1.342868	-0.629601	-0.075297
C90	C	1.676201	-0.296268	0.258036
C91	C	1.025123	-1.045484	-0.393101
C92	C	1.358457	-0.712151	-0.059768
C93	C	1.691790	-0.378817	0.273565
C94	C	1.119295	-1.045452	-0.299071
C95	C	1.452629	-0.712119	0.034262
C96	C	1.785962	-0.378786	0.367595
C97	C	1.103717	-0.962901	-0.314596
C98	C	1.437050	-0.629568	0.018738
C99	C	1.770384	-0.296234	0.352071
C100	C	1.048835	-0.921649	-0.369375
C101	C	1.382168	-0.588315	-0.036042
C102	C	1.715502	-0.254982	0.297291
C103	C	1.143018	-0.921615	-0.275340
C104	C	1.476351	-0.588282	0.057993
C105	C	1.809684	-0.254949	0.391326
C106	C	1.127438	-0.839071	-0.290861
C107	C	1.460771	-0.505738	0.042473
C108	C	1.794104	-0.172405	0.375806
C109	C	1.072557	-0.797813	-0.345636
C110	C	1.405890	-0.464480	-0.012303
C111	C	1.739223	-0.131146	0.321030
C112	C	1.033255	-0.839105	-0.384896
C113	C	1.366588	-0.505771	-0.051563
C114	C	1.699922	-0.172438	0.281771
C115	C	1.197896	-0.962869	-0.220557
C116	C	1.531229	-0.629536	0.112777
C117	C	1.864562	-0.296202	0.446110
C118	C	1.237196	-0.921583	-0.181301
C119	C	1.570530	-0.588250	0.152032
C120	C	1.903863	-0.254917	0.485365
C121	C	1.221620	-0.839038	-0.196825
C122	C	1.554953	-0.505704	0.136508
C123	C	1.888287	-0.172371	0.469841
C124	C	1.166739	-0.797780	-0.251601
C125	C	1.500073	-0.464446	0.081732
C126	C	1.833406	-0.131113	0.415065
C127	C	1.260922	-0.797746	-0.157566
C128	C	1.594255	-0.464413	0.175767
C129	C	1.927589	-0.131079	0.509101
C130	C	1.245342	-0.715202	-0.173086
C131	C	1.578675	-0.381869	0.160247
C132	C	1.912008	-0.048535	0.493580
C133	C	1.151159	-0.715236	-0.267122
C134	C	1.484493	-0.381902	0.066212
C135	C	1.817826	-0.048569	0.399545
C136	C	1.327209	-0.380759	-0.283018
C137	C	1.660542	-0.047426	0.050315
C138	C	1.993875	0.285908	0.383648
C139	C	1.409009	-0.380765	-0.283027
C140	C	1.742342	-0.047432	0.050307
C141	C	2.075675	0.285902	0.383640
C142	C	1.135288	-0.380690	-0.474963
C143	C	1.468621	-0.047357	-0.141629
C144	C	1.801954	0.285976	0.191704
C145	C	1.135302	-0.380667	-0.556766
C146	C	1.468636	-0.047334	-0.223433
C147	C	1.801969	0.285999	0.109901
C148	C	1.096504	-0.174589	-0.321798
C149	C	1.429837	0.158744	0.011536
C150	C	1.763171	0.492077	0.344869
C151	C	1.079991	-0.086738	-0.338331
C152	C	1.413325	0.246595	-0.004998
C153	C	1.746658	0.579928	0.328336
C154	C	1.172878	-0.330072	-0.754489
C155	C	1.506212	0.003262	-0.421155
C156	C	1.839545	0.336595	-0.087822
C157	C	1.172883	-0.330049	-0.831352
C158	C	1.506216	0.003285	-0.498018
C159	C	1.839550	0.336618	-0.164685
C160	C	1.097755	-0.431141	-0.812304
C161	C	1.431089	-0.097807	-0.478971
C162	C	1.764422	0.235526	-0.145638
C163	C	1.097747	-0.431159	-0.735444
C164	C	1.431080	-0.097826	-0.402110
C165	C	1.764413	0.235508	-0.068777
C166	C	1.135313	-0.380626	-0.706537
C167	C	1.468646	-0.047292	-0.373204
C168	C	1.801979	0.286041	-0.039871
C169	C	1.135326	-0.380584	-0.860261
C170	C	1.468659	-0.047251	-0.526928
C171	C	1.801992	0.286082	-0.193595
C172	C	1.135330	-0.380560	-0.943600
C173	C	1.468664	-0.047226	-0.610266
C174	C	1.801997	0.286107	-0.276933
C175	C	1.135307	-0.380649	-0.623194
C176	C	1.468641	-0.047316	-0.289861
C177	C	1.801974	0.286018	0.043473
C178	C	1.135250	-0.380742	-0.091794
C179	C	1.468584	-0.047409	0.241540
C180	C	1.801917	0.285924	0.574873
C181	C	1.135336	-0.380543	-0.010033
C182	C	1.468669	-0.047209	0.323301
C183	C	1.802003	0.286124	0.656634
H184	H	1.106474	-0.681646	-0.311735
H185	H	1.439808	-0.348313	0.021599
H186	H	1.773141	-0.014980	0.354932
H187	H	1.059867	-0.730600	-0.358267
H188	H	1.393201	-0.397267	-0.024934
H189	H	1.726534	-0.063934	0.308400
H190	H	1.210581	-1.030082	-0.207924
H191	H	1.543914	-0.696748	0.125409
H192	H	1.877247	-0.363415	0.458743
F193	F	1.287164	-0.671260	-0.131301
F194	F	1.620498	-0.337927	0.202032
F195	F	1.953831	-0.004594	0.535366
H196	H	0.583224	-0.472577	-0.350993
H197	H	0.916558	-0.139244	-0.017660
H198	H	1.249891	0.194089	0.315674
F199	F	0.695263	-0.276260	-0.205659
F200	F	1.028596	0.057073	0.127674
F201	F	1.361930	0.390406	0.461008
H202	H	1.203465	-0.288922	-0.730956
H203	H	1.536798	0.044411	-0.397623
H204	H	1.870131	0.377745	-0.064290
H205	H	0.988570	-0.805515	-0.429509
H206	H	1.321903	-0.472182	-0.096176
H207	H	1.655237	-0.138849	0.237158
F208	F	1.212871	-0.276247	-0.882381
F209	F	1.546205	0.057086	-0.549048
F210	F	1.879538	0.390420	-0.215714
H211	H	0.548599	-0.288934	-0.215039
H212	H	0.881932	0.044399	0.118294
H213	H	1.215266	0.377733	0.451627
H214	H	0.964849	-0.929345	-0.453244
H215	H	1.298183	-0.596012	-0.119910
H216	H	1.631516	-0.262679	0.213423
H217	H	1.067172	-0.472285	-0.835849
H218	H	1.400506	-0.138952	-0.502516
H219	H	1.733839	0.194382	-0.169183
F220	F	1.295604	-0.965495	-0.123003
F221	F	1.628938	-0.632162	0.210330
F222	F	1.962271	-0.298829	0.543663
H223	H	0.722651	-0.472575	-0.350978
H224	H	1.055984	-0.139241	-0.017644
H225	H	1.389318	0.194092	0.315689
F226	F	0.983283	-1.089421	-0.434880
F227	F	1.316616	-0.756088	-0.101547
F228	F	1.649949	-0.422754	0.231787
F229	F	1.319324	-0.841660	-0.099263
F230	F	1.652658	-0.508327	0.234070
F231	F	1.985991	-0.174993	0.567404
H232	H	1.067151	-0.472326	-0.696400
H233	H	1.400484	-0.138992	-0.363067
H234	H	1.733818	0.194341	-0.029733
H235	H	1.163978	-1.079051	-0.254467
H236	H	1.497311	-0.745718	0.078866
H237	H	1.830645	-0.412385	0.412199
