data_functionalizedCrystal
_audit_creation_method	'MofGen! by Chris Wilmer'
_symmetry_space_group_name_H-M	'P1'
_symmetry_Int_Tables_number	1
_symmetry_cell_setting	triclinic
loop_
_symmetry_equiv_pos_as_xyz
  x,y,z
_cell_length_a	14.628931
_cell_length_b	14.560438
_cell_length_c	14.560438
_cell_angle_alpha	60.000905
_cell_angle_beta	90.000974
_cell_angle_gamma	59.999690
loop_
_atom_site_label
_atom_site_type_symbol
_atom_site_fract_x
_atom_site_fract_y
_atom_site_fract_z
Zr1	Zr	0.880618	1.005274	-0.120506
O2	O	0.734654	1.196878	-0.267151
O3	O	0.925364	0.813673	-0.075554
O4	O	0.925359	1.005277	-0.267154
O5	O	0.734662	1.005271	0.075590
O6	O	1.075791	1.005276	-0.267154
O7	O	0.734658	1.005274	-0.075550
O8	O	1.075799	0.662532	0.075584
O9	O	0.734654	1.348016	-0.267148
O10	O	1.056713	0.892480	-0.056379
O11	O	0.944450	0.892479	0.056415
O12	O	0.944445	1.118067	-0.169170
O13	O	0.832182	1.118066	-0.056375
Zr14	Zr	1.120546	1.005269	0.120547
Zr15	Zr	1.120540	1.005274	-0.120506
Zr16	Zr	0.880624	1.005270	0.120546
Zr17	Zr	0.880618	1.246322	-0.120501
Zr18	Zr	1.120545	0.764222	0.120542
O19	O	1.075800	1.196871	0.075594
O20	O	1.075792	1.196877	-0.267151
O21	O	0.734662	1.196872	0.075594
O22	O	1.266510	0.813666	0.267192
O23	O	1.266502	0.813672	-0.075553
O24	O	0.925372	0.813667	0.267191
O25	O	1.266502	1.005272	-0.075550
O26	O	1.075805	1.005267	0.267195
O27	O	0.925373	1.005268	0.267195
O28	O	1.266506	1.005270	0.075591
O29	O	0.925360	1.348015	-0.267148
O30	O	1.075804	0.662528	0.267189
O31	O	1.266510	0.662528	0.267189
O32	O	1.266505	0.662531	0.075585
O33	O	0.734659	1.348013	-0.075544
O34	O	0.925365	1.348012	-0.075544
O35	O	1.056719	0.892476	0.169210
O36	O	1.168982	0.892478	0.056416
O37	O	1.056714	1.118065	-0.056375
O38	O	0.944451	1.118064	0.056420
C39	C	1.000581	0.703758	0.000015
C40	C	1.000581	0.601427	0.000013
C41	C	0.700476	1.005273	0.000020
C42	C	0.598623	1.005273	0.000020
C43	C	1.059179	0.553352	-0.058865
C44	C	1.059183	0.457192	-0.058854
C45	C	0.941983	0.457196	0.058913
C46	C	0.941986	0.553347	0.058908
C47	C	0.608906	0.893367	0.055971
C48	C	0.503637	0.893364	0.055973
C49	C	1.300688	1.005271	0.000021
C50	C	1.402541	1.005271	0.000021
C51	C	1.000574	1.005277	-0.301499
C52	C	1.000572	1.005279	-0.403832
C53	C	1.000582	1.306786	0.000026
C54	C	1.000583	1.409117	0.000028
C55	C	0.941970	1.123031	-0.510784
C56	C	0.941983	1.123025	-0.606933
C57	C	1.059201	0.887504	-0.489164
C58	C	1.059194	0.887511	-0.393018
C59	C	1.000590	1.005267	0.301540
C60	C	1.000592	1.005265	0.403873
C61	C	1.300687	0.703757	0.000015
C62	C	1.402540	0.601426	0.000013
C63	C	1.000589	0.703753	0.301534
C64	C	1.000591	0.601420	0.403865
C65	C	1.300695	0.703752	0.301535
C66	C	1.402550	0.601419	0.403866
C67	C	0.700469	1.306792	-0.301494
C68	C	0.598614	1.409125	-0.403825
C69	C	0.700477	1.306787	0.000026
C70	C	0.598624	1.409118	0.000027
C71	C	1.000575	1.306791	-0.301493
C72	C	1.000572	1.409123	-0.403824
C73	C	1.391790	0.553349	-0.058863
C74	C	1.487496	0.457206	-0.058868
C75	C	1.604697	0.457221	0.058887
C76	C	1.508993	0.553369	0.058886
C77	C	1.059194	0.553341	0.510818
C78	C	1.059184	0.457198	0.606965
C79	C	0.941966	0.457217	0.489192
C80	C	0.941970	0.553365	0.393048
C81	C	1.509002	0.553341	0.393067
C82	C	1.604702	0.457197	0.489221
C83	C	1.487485	0.457213	0.606971
C84	C	1.391787	0.553362	0.510818
H85	H	1.106893	0.592494	-0.106819
H86	H	0.695644	0.797561	0.103878
H87	H	0.393903	1.101083	-0.047889
H88	H	1.106900	0.418051	-0.106796
O89	O	0.483731	1.132182	-0.063438
H90	H	0.473922	1.188683	-0.029426
O91	O	0.878783	1.250029	-0.722290
H92	H	0.814025	1.255655	-0.768924
H93	H	1.106928	0.791622	-0.480373
H94	H	0.512267	0.797557	0.103867
H95	H	0.894236	1.218925	-0.519595
O96	O	0.878764	0.405354	0.477549
H97	H	0.788690	0.486057	0.430873
O98	O	1.520582	0.605221	0.122402
H99	H	1.567054	0.649023	0.088387
O100	O	1.122397	0.760502	-0.277649
H101	H	1.163147	0.678610	-0.286280
O102	O	1.276962	0.605222	0.522468
H103	H	1.212227	0.680166	0.437637
O104	O	0.878770	0.405355	0.122419
H105	H	0.888599	0.330430	0.112521
O106	O	1.475878	0.405373	0.722325
H107	H	1.429396	0.361584	0.732092
O108	O	1.276973	0.605203	-0.122373
H109	H	1.285581	0.555627	-0.163325
O110	O	1.122395	0.405343	0.722320
H111	H	1.112536	0.330422	0.787362
H112	H	0.894268	0.592489	0.106859
O113	O	1.475906	0.405345	-0.122367
H114	H	1.385804	0.454913	-0.163296
H115	H	1.106923	0.592469	0.519632
O116	O	1.719511	0.405376	0.122397
H117	H	1.784257	0.330430	0.112519
H118	H	0.894243	0.592515	0.305956
H119	H	1.517771	0.592469	0.305985
O120	O	1.719522	0.405330	0.477578
H121	H	1.710922	0.454896	0.387053
