data_functionalizedCrystal
_audit_creation_method	'MofGen! by Chris Wilmer'
_symmetry_space_group_name_H-M	'P1'
_symmetry_Int_Tables_number	1
_symmetry_cell_setting	triclinic
loop_
_symmetry_equiv_pos_as_xyz
  x,y,z
_cell_length_a	13.262522
_cell_length_b	10.654550
_cell_length_c	9.730223
_cell_angle_alpha	90.004253
_cell_angle_beta	74.080960
_cell_angle_gamma	95.542596
loop_
_atom_site_label
_atom_site_type_symbol
_atom_site_fract_x
_atom_site_fract_y
_atom_site_fract_z
O1	O	1.393900	-0.169141	-0.635292
O2	O	1.088451	-0.187537	-0.521126
O3	O	1.248198	0.004437	-0.580826
O4	O	1.234153	-0.361115	-0.575593
O5	O	1.248188	0.004442	-0.352242
O6	O	1.088440	-0.187532	-0.292542
O7	O	1.393890	-0.169135	-0.406709
Zn8	Zn	1.241163	-0.178333	-0.313333
Zn9	Zn	1.241177	-0.178340	-0.614502
O10	O	1.234142	-0.361109	-0.347009
C11	C	1.049334	-0.186504	-0.392216
C12	C	0.932794	-0.183419	-0.348657
C13	C	0.878045	-0.181969	-0.203584
C14	C	0.768551	-0.179058	-0.162648
C15	C	0.713795	-0.177607	-0.266780
C16	C	0.768543	-0.179067	-0.411855
C17	C	0.878048	-0.181968	-0.452796
C18	C	0.713798	-0.177606	-0.515992
C19	C	0.768546	-0.179065	-0.661067
C20	C	0.878041	-0.181967	-0.702000
C21	C	0.932797	-0.183418	-0.597869
C22	C	0.604292	-0.174705	-0.475051
C23	C	0.604296	-0.174704	-0.724262
C24	C	0.713789	-0.177615	-0.765199
C25	C	1.247162	0.051232	-0.466149
C26	C	1.244076	0.190659	-0.464998
C27	C	1.433006	-0.170168	-0.535622
C28	C	1.549546	-0.173253	-0.579190
C29	C	1.235179	-0.407905	-0.461689
C30	C	1.238264	-0.547332	-0.462849
N31	N	1.241162	-0.178327	-0.107796
C32	C	1.338133	0.270635	-0.500153
C33	C	1.335228	0.401640	-0.499084
C34	C	1.144200	0.372682	-0.427695
C35	C	1.147107	0.241679	-0.428774
N36	N	1.241187	-0.178335	-0.820042
C37	C	1.311922	-0.093357	-0.062314
C38	C	1.311933	-0.093358	0.081565
C39	C	1.170419	-0.263310	0.134469
C40	C	1.170404	-0.263302	-0.009406
H41	H	0.758381	-0.178803	-0.883321
C42	C	0.708334	-0.177480	-0.003070
N43	N	0.662976	-0.176302	0.117134
H44	H	1.021956	-0.185792	-0.631192
H45	H	1.369551	-0.024166	0.118591
H46	H	1.411818	0.466752	-0.527714
C47	C	1.037539	0.428818	-0.387824
N48	N	0.957200	0.471097	-0.357783
C49	C	0.544068	-0.173111	-0.838816
N50	N	0.498697	-0.171910	-0.925089
C51	C	0.544081	-0.173114	-0.315471
N52	N	0.498729	-0.171922	-0.195266
C53	C	1.043631	0.153700	-0.390105
N54	N	0.965697	0.087435	-0.360986
H55	H	1.369536	-0.024164	-0.142421
C56	C	0.938278	-0.183623	-0.089055
N57	N	0.983645	-0.184891	-0.002783
H58	H	1.417092	0.229099	-0.529652
C59	C	1.092588	-0.356774	0.242710
N60	N	1.033963	-0.427174	0.324237
C61	C	1.092606	-0.356838	-0.059455
N62	N	1.034027	-0.427306	-0.097159
H63	H	0.922615	-0.183138	-0.820131
H64	H	0.624639	-0.175239	-0.233441
