data_functionalizedCrystal
_audit_creation_method	'MofGen! by Chris Wilmer'
_symmetry_space_group_name_H-M	'P1'
_symmetry_Int_Tables_number	1
_symmetry_cell_setting	triclinic
loop_
_symmetry_equiv_pos_as_xyz
  x,y,z
_cell_length_a	22.610064
_cell_length_b	23.532407
_cell_length_c	23.532407
_cell_angle_alpha	82.848678
_cell_angle_beta	89.981742
_cell_angle_gamma	90.003678
loop_
_atom_site_label
_atom_site_type_symbol
_atom_site_fract_x
_atom_site_fract_y
_atom_site_fract_z
O1	O	0.049117	-0.755256	-0.069142
O2	O	0.549117	-0.255256	0.430858
O3	O	0.049135	-0.589393	-0.079146
O4	O	0.549135	-0.089393	0.420854
O5	O	0.049114	-0.677326	0.008788
O6	O	0.549114	-0.177326	0.508788
O7	O	0.049137	-0.667323	-0.157076
O8	O	0.549137	-0.167323	0.342924
O9	O	-0.049255	-0.677325	0.008806
O10	O	0.450745	-0.177325	0.508806
O11	O	-0.049234	-0.589392	-0.079128
O12	O	0.450766	-0.089392	0.420872
O13	O	-0.049252	-0.755255	-0.069124
O14	O	0.450748	-0.255255	0.430876
Zn15	Zn	-0.064862	-0.672323	-0.074123
Zn16	Zn	0.435138	-0.172323	0.425877
Zn17	Zn	0.064744	-0.672325	-0.074147
Zn18	Zn	0.564744	-0.172325	0.425853
O19	O	-0.049232	-0.667322	-0.157058
O20	O	0.450768	-0.167322	0.342942
C21	C	-0.000048	-0.568176	-0.078882
C22	C	0.499952	-0.068176	0.421118
C23	C	-0.000041	-0.504959	-0.078116
C24	C	0.499959	-0.004959	0.421884
N25	N	-0.153314	-0.672327	-0.074106
N26	N	0.346686	-0.172327	0.425894
N27	N	0.153196	-0.672326	-0.074159
N28	N	0.653196	-0.172326	0.425841
C29	C	0.438041	-0.706606	-0.108573
C30	C	0.938041	-0.206606	0.391427
C31	C	0.376122	-0.706606	-0.108577
C32	C	0.876122	-0.206606	0.391423
O33	O	0.344100	-0.735764	-0.137852
O34	O	0.844100	-0.235764	0.362148
N35	N	0.345149	-0.672335	-0.074141
N36	N	0.845149	-0.172335	0.425859
C37	C	0.376099	-0.638065	-0.039695
C38	C	0.876099	-0.138065	0.460305
O39	O	0.344069	-0.608915	-0.010405
O40	O	0.844069	-0.108915	0.489595
C41	C	0.438018	-0.638068	-0.039689
C42	C	0.938018	-0.138068	0.460311
C43	C	0.468987	-0.672338	-0.074131
C44	C	0.968987	-0.172338	0.425869
C45	C	0.469011	-0.740873	-0.143012
C46	C	0.969011	-0.240873	0.356988
C47	C	0.530927	-0.740872	-0.143009
C48	C	1.030927	-0.240872	0.356991
C49	C	0.561873	-0.706603	-0.108567
C50	C	1.061873	-0.206603	0.391433
C51	C	0.530903	-0.672336	-0.074128
C52	C	1.030903	-0.172336	0.425872
C53	C	0.468967	-0.603802	-0.005240
C54	C	0.968967	-0.103802	0.494760
C55	C	0.530890	-0.603809	-0.005237
C56	C	1.030890	-0.103809	0.494763
C57	C	0.561860	-0.638078	-0.039679
C58	C	1.061860	-0.138078	0.460321
C59	C	0.623765	-0.638067	-0.039683
C60	C	1.123765	-0.138067	0.460317
N61	N	0.654738	-0.672338	-0.074119
N62	N	1.154738	-0.172338	0.425881
C63	C	0.623791	-0.706607	-0.108561
C64	C	1.123791	-0.206607	0.391439
C65	C	0.246066	-0.638062	-0.039710
C66	C	0.746066	-0.138062	0.460290
C67	C	0.184148	-0.638055	-0.039719
C68	C	0.684148	-0.138055	0.460281
C69	C	0.184175	-0.706597	-0.108600
C70	C	0.684175	-0.206597	0.391400
C71	C	0.246093	-0.706600	-0.108594
C72	C	0.746093	-0.206600	0.391406
C73	C	0.277038	-0.672333	-0.074146
C74	C	0.777038	-0.172333	0.425854
C75	C	0.753819	-0.706601	-0.108553
C76	C	1.253819	-0.206601	0.391447
C77	C	0.815740	-0.706595	-0.108548
C78	C	1.315740	-0.206595	0.391452
C79	C	0.815708	-0.638056	-0.039665
C80	C	1.315708	-0.138056	0.460335
C81	C	0.753792	-0.638059	-0.039672
C82	C	1.253792	-0.138059	0.460328
C83	C	0.722849	-0.672336	-0.074117
C84	C	1.222849	-0.172336	0.425883
O85	O	0.655825	-0.608926	-0.010421
O86	O	1.155825	-0.108926	0.489579
O87	O	0.655829	-0.735758	-0.137841
O88	O	1.155829	-0.235758	0.362159
C89	C	-0.000072	-0.677071	0.030013
C90	C	0.499928	-0.177071	0.530013
C91	C	-0.000076	-0.676305	0.093230
C92	C	0.499924	-0.176305	0.593230
C93	C	-0.000069	-0.776472	-0.069388
C94	C	0.499931	-0.276472	0.430612
C95	C	-0.000071	-0.839689	-0.070154
C96	C	0.499929	-0.339689	0.429846
C97	C	-0.000061	-0.105856	-0.125350
C98	C	0.499939	0.394144	0.374650
C99	C	-0.000065	-0.046456	-0.124638
C100	C	0.499935	0.453544	0.375362
O101	O	-0.000081	-0.009711	-0.168424
O102	O	0.499919	0.490289	0.331576
N103	N	-0.000071	-0.023830	-0.072362
N104	N	0.499929	0.476170	0.427638
C105	C	-0.000080	-0.060607	-0.020794
C106	C	0.499920	0.439393	0.479206
O107	O	-0.000086	-0.035908	0.023737
O108	O	0.499914	0.464092	0.523737
C109	C	-0.000080	-0.120006	-0.021506
C110	C	0.499920	0.379994	0.478494
C111	C	-0.000068	-0.142629	-0.073785
C112	C	0.499932	0.357371	0.426215
C113	C	-0.000050	-0.128479	-0.177625
C114	C	0.499950	0.371521	0.322375
C115	C	-0.000045	-0.187876	-0.178336
C116	C	0.499955	0.312124	0.321664
C117	C	-0.000052	-0.224649	-0.126772
C118	C	0.499948	0.275351	0.373228
C119	C	-0.000063	-0.202025	-0.074496
C120	C	0.499937	0.297975	0.425504
C121	C	-0.000093	-0.156783	0.030062
C122	C	0.499907	0.343217	0.530062
C123	C	-0.000094	-0.216185	0.029345
C124	C	0.499906	0.283815	0.529345
C125	C	-0.000082	-0.238808	-0.022934
C126	C	0.499918	0.261192	0.477066
C127	C	-0.000065	-0.298194	-0.023643
C128	C	0.499935	0.201806	0.476357
N129	N	-0.000059	-0.320820	-0.075920
N130	N	0.499941	0.179180	0.424080
C131	C	-0.000052	-0.284048	-0.127484
C132	C	0.499948	0.215952	0.372516
C133	C	-0.000080	0.064135	-0.019302
C134	C	0.499920	0.564135	0.480698
C135	C	-0.000075	0.123533	-0.018589
C136	C	0.499925	0.623533	0.481411
C137	C	-0.000061	0.137680	-0.122434
C138	C	0.499939	0.637680	0.377566
C139	C	-0.000062	0.078281	-0.123146
C140	C	0.499938	0.578281	0.376854
C141	C	-0.000074	0.041509	-0.071578
C142	C	0.499926	0.541509	0.428422
C143	C	-0.000042	-0.408784	-0.128974
C144	C	0.499958	0.091216	0.371026
C145	C	-0.000034	-0.468186	-0.129680
C146	C	0.499966	0.031814	0.370320
C147	C	-0.000051	-0.482329	-0.025836
C148	C	0.499949	0.017671	0.474164
C149	C	-0.000055	-0.422932	-0.025129
C150	C	0.499945	0.077068	0.474871
C151	C	-0.000052	-0.386160	-0.076702
C152	C	0.499948	0.113840	0.423298
O153	O	-0.000052	-0.334974	0.020119
O154	O	0.499948	0.165026	0.520119
O155	O	-0.000054	-0.308755	-0.172007
O156	O	0.499946	0.191245	0.327993
C157	C	-0.000045	-0.667577	-0.178283
C158	C	0.499955	-0.167577	0.321717
C159	C	-0.000036	-0.668343	-0.241500
C160	C	0.499964	-0.168343	0.258500
C161	C	-0.000049	-0.723539	0.492333
C162	C	0.499951	-0.223539	0.992333
C163	C	-0.000044	-0.722827	0.551733
C164	C	0.499956	-0.222827	1.051733
O165	O	-0.000027	-0.766613	0.588478
O166	O	0.499973	-0.266613	1.088478
N167	N	-0.000039	-0.670551	0.574359
N168	N	0.499961	-0.170551	1.074359
C169	C	-0.000032	-0.618983	0.537582
C170	C	0.499968	-0.118983	1.037582
O171	O	-0.000027	-0.574452	0.562281
O172	O	0.499973	-0.074452	1.062281
C173	C	-0.000033	-0.619695	0.478182
C174	C	0.499967	-0.119695	0.978182
C175	C	-0.000044	-0.671974	0.455560
C176	C	0.499956	-0.171974	0.955560
C177	C	-0.000060	-0.775814	0.469710
C178	C	0.499940	-0.275814	0.969710
C179	C	-0.000065	-0.776525	0.410313
C180	C	0.499935	-0.276525	0.910313
C181	C	-0.000060	-0.724961	0.373540
C182	C	0.499940	-0.224961	0.873540
C183	C	-0.000050	-0.672685	0.396164
C184	C	0.499950	-0.172685	0.896164
C185	C	-0.000022	-0.568127	0.441406
C186	C	0.499978	-0.068127	0.941406
C187	C	-0.000021	-0.568844	0.382004
C188	C	0.499979	-0.068844	0.882004
C189	C	-0.000033	-0.621123	0.359381
C190	C	0.499967	-0.121123	0.859381
C191	C	-0.000050	-0.621832	0.299995
C192	C	0.499950	-0.121832	0.799995
N193	N	-0.000056	-0.674109	0.277369
N194	N	0.499944	-0.174109	0.777369
C195	C	-0.000061	-0.725673	0.314141
C196	C	0.499939	-0.225673	0.814141
C197	C	-0.000031	-0.617491	0.662324
C198	C	0.499969	-0.117491	1.162324
C199	C	-0.000034	-0.616778	0.721722
C200	C	0.499966	-0.116778	1.221722
C201	C	-0.000045	-0.720623	0.735869
C202	C	0.499955	-0.220623	1.235869
C203	C	-0.000046	-0.721335	0.676470
C204	C	0.499954	-0.221335	1.176470
C205	C	-0.000036	-0.669767	0.639698
C206	C	0.499964	-0.169767	1.139698
C207	C	-0.000073	-0.727163	0.189405
C208	C	0.499927	-0.227163	0.689405
C209	C	-0.000081	-0.727869	0.130003
C210	C	0.499919	-0.227869	0.630003
C211	C	-0.000067	-0.624025	0.115860
C212	C	0.499933	-0.124025	0.615860
C213	C	-0.000062	-0.623318	0.175257
C214	C	0.499938	-0.123318	0.675257
C215	C	-0.000063	-0.674891	0.212029
C216	C	0.499937	-0.174891	0.712029
O217	O	-0.000065	-0.578070	0.263215
O218	O	0.499935	-0.078070	0.763215
O219	O	-0.000058	-0.770196	0.289434
O220	O	0.499942	-0.270196	0.789434
H221	H	0.840953	-0.734501	-0.136598
H222	H	1.340953	-0.234501	0.363402
Br223	Br	-0.000033	-0.545825	0.752416
Br224	Br	0.499967	-0.045825	1.252416
Br225	Br	-0.000097	-0.798825	0.099305
Br226	Br	0.499903	-0.298825	0.599305
Br227	Br	0.288056	-0.591545	0.007039
Br228	Br	0.788056	-0.091545	0.507039
H229	H	-0.000055	0.059867	-0.165717
H230	H	0.499945	0.559867	0.334283
H231	H	-0.000065	-0.582043	0.085909
H232	H	0.499935	-0.082043	0.585909
H233	H	-0.000041	-0.378852	-0.170970
H234	H	0.499959	0.121148	0.329030
Br235	Br	-0.000062	-0.792288	0.645775
Br236	Br	0.499938	-0.292288	1.145775
Br237	Br	0.711834	-0.753121	-0.155300
Br238	Br	1.211834	-0.253121	0.344700
Br239	Br	0.142126	-0.591534	0.007015
Br240	Br	0.642126	-0.091534	0.507015
H241	H	0.728575	-0.610147	-0.011633
H242	H	1.228575	-0.110147	0.488367
Br243	Br	-0.000074	-0.797156	0.239299
Br244	Br	0.499926	-0.297156	0.739299
Br245	Br	0.288117	-0.753112	-0.155337
Br246	Br	0.788117	-0.253112	0.344663
H247	H	0.556137	-0.768780	-0.171053
H248	H	1.056137	-0.268780	0.328947
H249	H	-0.000035	-0.206289	-0.220908
H250	H	0.499965	0.293711	0.279092
H251	H	0.556082	-0.575904	0.022816
H252	H	1.056082	-0.075904	0.522816
H253	H	-0.000013	-0.526850	0.352066
H254	H	0.499987	-0.026850	0.852066
Br255	Br	0.857718	-0.591549	0.007073
Br256	Br	1.357718	-0.091549	0.507073
H257	H	-0.000024	-0.486602	-0.172255
H258	H	0.499976	0.013398	0.327745
Br259	Br	-0.000064	-0.847480	0.379621
Br260	Br	0.499936	-0.347480	0.879621
H261	H	0.443821	-0.768781	-0.171059
H262	H	0.943821	-0.268781	0.328941
Br263	Br	-0.000022	-0.547499	0.612424
Br264	Br	0.499978	-0.047499	1.112424
H265	H	-0.000103	-0.138375	0.072634
H266	H	0.499897	0.361625	0.572634
Br267	Br	0.142164	-0.753106	-0.155342
Br268	Br	0.642164	-0.253106	0.344658
H269	H	0.443762	-0.575897	0.022807
H270	H	0.943762	-0.075897	0.522807
H271	H	-0.000046	-0.098544	-0.219617
H272	H	0.499954	0.401456	0.280383
Br273	Br	-0.000054	0.187598	-0.192415
Br274	Br	0.499946	0.687598	0.307585
H275	H	-0.000069	-0.580748	0.193677
H276	H	0.499931	-0.080748	0.693677
Br277	Br	-0.000074	0.154227	0.052364
Br278	Br	0.499926	0.654227	0.552364
H279	H	-0.000056	-0.404512	0.017441
H280	H	0.499944	0.095488	0.517441
H281	H	-0.000084	0.034198	0.022693
H282	H	0.499916	0.534198	0.522693
H283	H	-0.000104	-0.246123	0.071339
H284	H	0.499896	0.253877	0.571339
H285	H	-0.000061	-0.817806	0.499645
H286	H	0.499939	-0.317806	0.999645
H287	H	-0.000047	-0.762610	0.765821
H288	H	0.499953	-0.262610	1.265821
H289	H	-0.000054	-0.512280	0.016146
H290	H	0.499946	-0.012280	0.516146
Br291	Br	-0.000004	-0.497171	0.472092
Br292	Br	0.499996	0.002829	0.972092
