data_functionalizedCrystal
_audit_creation_method	'MofGen! by Chris Wilmer'
_symmetry_space_group_name_H-M	'P1'
_symmetry_Int_Tables_number	1
_symmetry_cell_setting	triclinic
loop_
_symmetry_equiv_pos_as_xyz
  x,y,z
_cell_length_a	27.435584
_cell_length_b	27.434948
_cell_length_c	27.431174
_cell_angle_alpha	60.005483
_cell_angle_beta	60.011353
_cell_angle_gamma	59.993028
loop_
_atom_site_label
_atom_site_type_symbol
_atom_site_fract_x
_atom_site_fract_y
_atom_site_fract_z
O1	O	0.067437	-0.712144	0.595551
O2	O	0.567437	-0.212144	1.095551
O3	O	0.025356	-0.554453	0.479848
O4	O	0.525356	-0.054453	0.979848
O5	O	0.125206	-0.654236	0.479781
O6	O	0.625206	-0.154236	0.979781
O7	O	-0.032412	-0.612361	0.595618
O8	O	0.467588	-0.112361	1.095618
O9	O	0.158328	-0.621117	0.512835
O10	O	0.658328	-0.121117	1.012835
O11	O	0.058479	-0.521333	0.512902
O12	O	0.558479	-0.021333	1.012902
O13	O	0.100560	-0.679025	0.628605
O14	O	0.600560	-0.179025	1.128605
Zn15	Zn	0.084778	-0.594921	0.576001
Zn16	Zn	0.584778	-0.094921	1.076001
Zn17	Zn	0.041138	-0.638557	0.532452
Zn18	Zn	0.541138	-0.138557	1.032452
O19	O	0.000710	-0.579241	0.628672
O20	O	0.500710	-0.079241	1.128672
N21	N	0.114563	-0.565144	0.605726
N22	N	0.614563	-0.065144	1.105726
N23	N	0.011358	-0.668338	0.502727
N24	N	0.511358	-0.168338	1.002727
C25	C	0.156385	-0.523520	0.904506
C26	C	0.656385	-0.023520	1.404506
C27	C	0.413419	-0.523497	0.647322
C28	C	0.913419	-0.023497	1.147322
C29	C	0.156253	-0.523488	0.647384
C30	C	0.656253	-0.023488	1.147384
C31	C	0.156238	-0.266354	0.647407
C32	C	0.656238	0.233646	1.147407
C33	C	0.197637	-0.390463	0.688753
C34	C	0.697637	0.109537	1.188753
C35	C	0.197646	-0.482126	0.688741
C36	C	0.697646	0.017874	1.188741
C37	C	0.220575	-0.459215	0.711654
C38	C	0.720575	0.040785	1.211654
C39	C	0.320555	-0.441991	0.659023
C40	C	0.820555	0.058009	1.159023
C41	C	0.383051	-0.462825	0.638179
C42	C	0.883051	0.037175	1.138179
C43	C	0.383069	-0.563942	0.676737
C44	C	0.883069	-0.063942	1.176737
C45	C	0.320575	-0.543107	0.697583
C46	C	0.820575	-0.043107	1.197583
C47	C	0.212704	-0.359206	0.627313
C48	C	0.712704	0.140794	1.127313
C49	C	0.191849	-0.296705	0.606496
C50	C	0.691849	0.203295	1.106496
C51	C	0.140866	-0.296722	0.708562
C52	C	0.640866	0.203278	1.208562
C53	C	0.161721	-0.359223	0.729379
C54	C	0.661721	0.140777	1.229379
C55	C	0.136200	-0.467030	0.703858
C56	C	0.636200	0.032970	1.203858
C57	C	0.115361	-0.487857	0.683021
C58	C	0.615361	0.012143	1.183021
C59	C	0.217408	-0.538877	0.631968
C60	C	0.717408	-0.038877	1.131968
C61	C	0.238249	-0.518050	0.652796
C62	C	0.738249	-0.018050	1.152796
C63	C	0.136259	-0.467047	0.811668
C64	C	0.636259	0.032953	1.311668
C65	C	0.115461	-0.487892	0.874167
C66	C	0.615461	0.012108	1.374167
C67	C	0.217537	-0.538923	0.874131
C68	C	0.717537	-0.038923	1.374131
C69	C	0.238333	-0.518080	0.811631
C70	C	0.738333	-0.018080	1.311631
C71	C	0.197693	-0.482140	0.780401
C72	C	0.697693	0.017860	1.280401
C73	C	0.289320	-0.482131	0.688723
C74	C	0.789320	0.017869	1.188723
C75	C	0.132699	-0.546027	0.973247
C76	C	0.632699	-0.046027	1.473247
C77	C	0.482158	-0.545613	0.624075
C78	C	0.982158	-0.045613	1.124075
C79	C	0.132521	-0.546006	0.624886
C80	C	0.632521	-0.046006	1.124886
C81	C	0.132917	-0.197607	0.625310
C82	C	0.632917	0.302393	1.125310
C83	C	-0.098217	-0.686189	0.484419
C84	C	0.401783	-0.186189	0.984419
C85	C	-0.006438	-0.686322	0.392891
C86	C	0.493562	-0.186322	0.892891
C87	C	-0.006621	-0.777944	0.484592
C88	C	0.493379	-0.277944	0.984592
C89	C	-0.006606	-0.686315	0.484649
C90	C	0.493394	-0.186315	0.984649
C91	C	-0.029470	-0.709193	0.461638
C92	C	0.470530	-0.209193	0.961638
N93	N	0.538410	-0.565162	0.605628
N94	N	1.038410	-0.065162	1.105628
O95	O	0.742647	-0.575135	0.458625
O96	O	1.242647	-0.075135	0.958625
O97	O	0.742821	-0.691181	0.616169
O98	O	1.242821	-0.191181	1.116169
O99	O	0.742757	-0.690917	0.516248
O100	O	1.242757	-0.190917	1.016248
O101	O	0.742711	-0.575399	0.558546
O102	O	1.242711	-0.075399	1.058546
O103	O	0.643472	-0.657878	0.549405
O104	O	1.143472	-0.157878	1.049405
O105	O	0.643536	-0.658142	0.649326
O106	O	1.143536	-0.158142	1.149326
O107	O	0.643362	-0.542096	0.491782
O108	O	1.143362	-0.042096	0.991782
Zn109	Zn	0.627685	-0.594873	0.575818
Zn110	Zn	1.127685	-0.094873	1.075818
Zn111	Zn	0.758498	-0.638404	0.532133
Zn112	Zn	1.258498	-0.138404	1.032133
O113	O	0.643426	-0.542360	0.591702
O114	O	1.143426	-0.042360	1.091702
N115	N	0.847774	-0.668115	0.502317
N116	N	1.347774	-0.168115	1.002317
N117	N	0.114542	-0.141354	0.605766
N118	N	0.614542	0.358646	1.105766
O119	O	-0.032397	0.062987	0.595660
O120	O	0.467603	0.562987	1.095660
O121	O	0.125155	0.062987	0.479633
O122	O	0.625155	0.562987	0.979633
O123	O	0.025219	0.062974	0.479910
O124	O	0.525219	0.562974	0.979910
O125	O	0.067539	0.063001	0.595383
O126	O	0.567539	0.563001	1.095383
O127	O	0.058343	-0.036320	0.513009
O128	O	0.558343	0.463680	1.013009
O129	O	0.158279	-0.036306	0.512732
O130	O	0.658279	0.463694	1.012732
O131	O	0.000728	-0.036306	0.628759
O132	O	0.500728	0.463694	1.128759
Zn133	Zn	0.084763	-0.052071	0.576000
Zn134	Zn	0.584763	0.447929	1.076000
Zn135	Zn	0.041120	0.078752	0.532392
Zn136	Zn	0.541120	0.578752	1.032392
O137	O	0.100664	-0.036292	0.628482
O138	O	0.600664	0.463708	1.128482
N139	N	0.011333	0.168036	0.502628
N140	N	0.511333	0.668036	1.002628
N141	N	0.114782	-0.565197	1.029501
N142	N	0.614782	-0.065197	1.529501
O143	O	0.104681	-0.712124	1.233827
O144	O	0.604681	-0.212124	1.733827
O145	O	-0.011334	-0.554523	1.233839
O146	O	0.488666	-0.054523	1.733839
O147	O	-0.011066	-0.654443	1.233797
O148	O	0.488934	-0.154443	1.733797
O149	O	0.104414	-0.612204	1.233869
O150	O	0.604414	-0.112204	1.733869
O151	O	0.022028	-0.621336	1.134509
O152	O	0.522028	-0.121336	1.634509
O153	O	0.021760	-0.521417	1.134551
O154	O	0.521760	-0.021417	1.634551
O155	O	0.137775	-0.679018	1.134539
O156	O	0.637775	-0.179018	1.634539
Zn157	Zn	0.085022	-0.594961	1.118780
Zn158	Zn	0.585022	-0.094961	1.618780
Zn159	Zn	0.041420	-0.638580	1.249597
Zn160	Zn	0.541420	-0.138580	1.749597
O161	O	0.137508	-0.579098	1.134580
O162	O	0.637508	-0.079098	1.634580
N163	N	0.011658	-0.668350	1.338876
N164	N	0.511658	-0.168350	1.838876
C165	C	0.037974	-0.518023	0.480435
C166	C	0.537974	-0.018023	0.980435
C167	C	0.161625	-0.641592	0.480351
C168	C	0.661625	-0.141592	0.980351
C169	C	0.087941	-0.715455	0.628017
C170	C	0.587941	-0.215455	1.128017
C171	C	-0.035710	-0.591885	0.628101
C172	C	0.464290	-0.091885	1.128101
C173	C	0.693199	-0.690642	0.652596
C174	C	1.193199	-0.190642	1.152596
C175	C	0.693122	-0.690315	0.528855
C176	C	1.193122	-0.190315	1.028855
C177	C	0.692981	-0.542634	0.455356
C178	C	1.192981	-0.042634	0.955356
C179	C	0.693062	-0.542961	0.579095
C180	C	1.193062	-0.042961	1.079095
C181	C	0.161524	0.013463	0.480164
C182	C	0.661524	0.513463	0.980164
C183	C	0.037807	0.013324	0.480547
C184	C	0.537807	0.513324	0.980547
C185	C	-0.035683	0.013341	0.628188
C186	C	0.464317	0.513341	1.128188
C187	C	0.088076	0.013357	0.627845
C188	C	0.588076	0.513357	1.127845
C189	C	-0.010764	-0.518114	1.184196
C190	C	0.489236	-0.018114	1.684196
C191	C	-0.010426	-0.641846	1.184125
C192	C	0.489574	-0.141846	1.684125
C193	C	0.137205	-0.715426	1.184182
C194	C	0.637205	-0.215426	1.684182
C195	C	0.136875	-0.591687	1.184231
C196	C	0.636875	-0.091687	1.684231
H197	H	0.065433	-0.475593	0.899616
H198	H	0.565433	0.024407	1.399616
O199	O	-0.053745	-0.652609	1.184155
O200	O	0.446255	-0.152609	1.684155
C201	C	-0.104116	-0.645955	1.235546
C202	C	0.395884	-0.145955	1.735546
H203	H	-0.089862	-0.652447	1.271532
H204	H	0.410138	-0.152447	1.771532
H205	H	-0.125290	-0.680715	1.252752
H206	H	0.374710	-0.180715	1.752752
H207	H	-0.137927	-0.599326	1.223910
H208	H	0.362073	-0.099326	1.723910
H209	H	0.028987	-0.472723	0.444098
H210	H	0.528987	0.027277	0.944098
O211	O	0.215444	0.013713	0.436671
O212	O	0.715444	0.513713	0.936671
C213	C	0.260668	-0.037602	0.456843
C214	C	0.760668	0.462398	0.956843
H215	H	0.244407	-0.054937	0.507728
H216	H	0.744407	0.445063	1.007728
H217	H	0.302186	-0.025807	0.439358
H218	H	0.802186	0.474193	0.939358
H219	H	0.271980	-0.073556	0.439754
H220	H	0.771980	0.426444	0.939754
H221	H	-0.047187	-0.472851	1.184199
H222	H	0.452813	0.027149	1.684199
O223	O	0.180588	-0.769465	1.184202
O224	O	0.680588	-0.269465	1.684202
C225	C	0.159107	-0.806602	1.184159
C226	C	0.659107	-0.306602	1.684159
H227	H	0.108256	-0.790425	1.202947
H228	H	0.608256	-0.290425	1.702947
H229	H	0.177412	-0.854432	1.212978
H230	H	0.677412	-0.354432	1.712978
H231	H	0.174282	-0.804981	1.136517
H232	H	0.674282	-0.304981	1.636517
O233	O	0.692940	-0.499239	0.401340
O234	O	1.192940	0.000761	0.901340
C235	C	0.692911	-0.520728	0.364192
C236	C	1.192911	-0.020728	0.864192
H237	H	0.711754	-0.571581	0.380336
H238	H	1.211754	-0.071581	0.880336
H239	H	0.721689	-0.502398	0.316361
H240	H	1.221689	-0.002398	0.816361
H241	H	0.645269	-0.505580	0.365838
H242	H	1.145269	-0.005580	0.865838
H243	H	0.173154	-0.582650	1.184245
H244	H	0.673154	-0.082650	1.684245
H245	H	0.028745	0.013321	0.444270
H246	H	0.528745	0.513321	0.944270
H247	H	-0.080930	0.013340	0.664614
H248	H	0.419070	0.513340	1.164614
O249	O	0.215586	-0.652244	0.436897
O250	O	0.715586	-0.152244	0.936897
C251	C	0.207741	-0.645540	0.386591
C252	C	0.707741	-0.145540	0.886591
H253	H	0.164008	-0.652097	0.400962
H254	H	0.664008	-0.152097	0.900962
H255	H	0.246449	-0.680231	0.365296
H256	H	0.746449	-0.180231	0.865296
H257	H	0.206425	-0.598873	0.352838
H258	H	0.706425	-0.098873	0.852838
O259	O	0.096697	-0.432163	0.781424
O260	O	0.596697	0.067837	1.281424
C261	C	0.038012	-0.423296	0.822423
C262	C	0.538012	0.076704	1.322423
H263	H	0.038149	-0.460980	0.866967
H264	H	0.538149	0.039020	1.366967
H265	H	0.008326	-0.422964	0.804376
H266	H	0.508326	0.077036	1.304376
H267	H	0.020108	-0.378775	0.829077
H268	H	0.520108	0.121225	1.329077
H269	H	0.097136	0.013366	0.664120
H270	H	0.597136	0.513366	1.164120
O271	O	0.693019	-0.499724	0.589997
O272	O	1.193019	0.000276	1.089997
C273	C	0.693088	-0.521478	0.648667
C274	C	1.193088	-0.021478	1.148667
H275	H	0.674331	-0.559820	0.676913
H276	H	1.174331	-0.059820	1.176913
H277	H	0.664254	-0.484097	0.668772
H278	H	1.164254	0.015903	1.168772
H279	H	0.740731	-0.538108	0.647761
H280	H	1.240731	-0.038108	1.147761
H281	H	0.693242	-0.727072	0.697844
H282	H	1.193242	-0.227072	1.197844
H283	H	0.250633	-0.568176	0.899553
H284	H	0.750633	-0.068176	1.399553
H285	H	0.096930	-0.760753	0.664356
H286	H	0.596930	-0.260753	1.164356
O287	O	-0.089740	-0.581133	0.671444
O288	O	0.410260	-0.081133	1.171444
C289	C	-0.126839	-0.522474	0.649852
C290	C	0.373161	-0.022474	1.149852
H291	H	-0.098087	-0.494128	0.611514
H292	H	0.401913	0.005872	1.111514
H293	H	-0.155440	-0.502481	0.687315
H294	H	0.344560	-0.002481	1.187315
H295	H	-0.156987	-0.523379	0.633269
H296	H	0.343013	-0.023379	1.133269
O297	O	0.693114	-0.733536	0.517971
O298	O	1.193114	-0.233536	1.017971
C299	C	0.693078	-0.711793	0.459289
C300	C	1.193078	-0.211793	0.959289
H301	H	0.674241	-0.660940	0.443599
H302	H	1.174241	-0.160940	0.943599
H303	H	0.664262	-0.729988	0.458438
H304	H	1.164262	-0.229988	0.958438
H305	H	0.740700	-0.726867	0.428381
H306	H	1.240700	-0.226867	0.928381
O307	O	0.413343	-0.623197	0.685408
O308	O	0.913343	-0.123197	1.185408
C309	C	0.372372	-0.654157	0.716077
C310	C	0.872372	-0.154157	1.216077
H311	H	0.327829	-0.626894	0.741697
H312	H	0.827829	-0.126894	1.241697
H313	H	0.390451	-0.699230	0.748695
H314	H	0.890451	-0.199230	1.248695
H315	H	0.365707	-0.661385	0.682642
H316	H	0.865707	-0.161385	1.182642
H317	H	0.103135	-0.437780	0.733124
H318	H	0.603135	0.062220	1.233124
O319	O	0.298001	-0.532638	0.781194
O320	O	0.798001	-0.032638	1.281194
C321	C	0.313087	-0.480125	0.745057
C322	C	0.813087	0.019875	1.245057
H323	H	0.271890	-0.440852	0.735710
H324	H	0.771890	0.059148	1.235710
H325	H	0.349314	-0.485712	0.701101
H326	H	0.849314	0.014288	1.201101
H327	H	0.330256	-0.471349	0.769138
H328	H	0.830256	0.028651	1.269138
O329	O	0.055654	-0.473166	0.697784
O330	O	0.555654	0.026834	1.197784
C331	C	0.024283	-0.436985	0.733969
C332	C	0.524283	0.063015	1.233969
H333	H	0.054107	-0.444962	0.756677
H334	H	0.554107	0.055038	1.256677
H335	H	-0.017405	-0.448711	0.769339
H336	H	0.482595	0.051289	1.269339
H337	H	0.010778	-0.388026	0.705152
H338	H	0.510778	0.111974	1.205152
H339	H	0.149444	-0.384673	0.779411
H340	H	0.649444	0.115327	1.279411
O341	O	0.256884	-0.573682	0.596967
O342	O	0.756884	-0.073682	1.096967
C343	C	0.292998	-0.542113	0.544564
C344	C	0.792998	-0.042113	1.044564
H345	H	0.268844	-0.492112	0.535892
H346	H	0.768844	0.007888	1.035892
H347	H	0.302443	-0.553284	0.505186
H348	H	0.802443	-0.053284	1.005186
H349	H	0.336909	-0.555415	0.550239
H350	H	0.836909	-0.055415	1.050239
O351	O	0.290139	-0.582023	0.726466
O352	O	0.790139	-0.082023	1.226466
C353	C	0.228276	-0.550558	0.742954
C354	C	0.728276	-0.050558	1.242954
H355	H	0.219740	-0.506670	0.745643
H356	H	0.719740	-0.006670	1.245643
H357	H	0.204544	-0.578620	0.788348
H358	H	0.704544	-0.078620	1.288348
H359	H	0.210521	-0.540941	0.708204
H360	H	0.710521	-0.040941	1.208204
O361	O	0.413302	-0.423750	0.609315
O362	O	0.913302	0.076250	1.109315
C363	C	0.372313	-0.365464	0.605978
C364	C	0.872313	0.134536	1.105978
H365	H	0.327759	-0.363027	0.610080
H366	H	0.827759	0.136973	1.110080
H367	H	0.390353	-0.332437	0.561309
H368	H	0.890353	0.167563	1.061309
H369	H	0.365684	-0.353798	0.643843
H370	H	0.865684	0.146202	1.143843
O371	O	0.247562	-0.389461	0.587771
O372	O	0.747562	0.110539	1.087771
C373	C	0.256393	-0.348468	0.529077
C374	C	0.756393	0.151532	1.029077
H375	H	0.218707	-0.303918	0.529204
H376	H	0.718707	0.196082	1.029204
H377	H	0.256701	-0.366521	0.499408
H378	H	0.756701	0.133479	0.999408
H379	H	0.300911	-0.341818	0.511157
H380	H	0.800911	0.158182	1.011157
O381	O	0.206380	-0.266311	0.546816
O382	O	0.706380	0.233689	1.046816
C383	C	0.153852	-0.230145	0.531733
C384	C	0.653852	0.269855	1.031733
H385	H	0.116322	-0.248986	0.566971
H386	H	0.616322	0.251014	1.066971
H387	H	0.162066	-0.229424	0.486362
H388	H	0.662066	0.270576	0.986362
H389	H	0.140693	-0.182780	0.529667
H390	H	0.640693	0.317220	1.029667
O391	O	0.297930	-0.532602	0.638051
O392	O	0.797930	-0.032602	1.138051
C393	C	0.312997	-0.480079	0.606615
C394	C	0.812997	0.019921	1.106615
H395	H	0.277745	-0.442536	0.585478
H396	H	0.777745	0.057464	1.085478
H397	H	0.358357	-0.488301	0.570186
H398	H	0.858357	0.011699	1.070186
H399	H	0.315074	-0.466929	0.638758
H400	H	0.815074	0.033071	1.138758
H401	H	0.111630	-0.271286	0.741644
H402	H	0.611630	0.228714	1.241644
H403	H	0.295112	-0.392340	0.651807
H404	H	0.795112	0.107660	1.151807
