data_functionalizedCrystal
_audit_creation_method	'MofGen! by Chris Wilmer'
_symmetry_space_group_name_H-M	'P1'
_symmetry_Int_Tables_number	1
_symmetry_cell_setting	triclinic
loop_
_symmetry_equiv_pos_as_xyz
  x,y,z
_cell_length_a	18.050591
_cell_length_b	18.050590
_cell_length_c	16.625539
_cell_angle_alpha	89.970044
_cell_angle_beta	89.973401
_cell_angle_gamma	90.014558
loop_
_atom_site_label
_atom_site_type_symbol
_atom_site_fract_x
_atom_site_fract_y
_atom_site_fract_z
Zn1	Zn	1.135384	-0.295737	-0.456030
Zn2	Zn	1.635384	0.204263	0.043970
Zn3	Zn	1.135303	-0.419935	-0.321193
Zn4	Zn	1.635303	0.080065	0.178807
Zn5	Zn	1.011191	-0.295755	-0.321196
Zn6	Zn	1.511191	0.204245	0.178804
Zn7	Zn	1.011172	-0.419881	-0.455969
Zn8	Zn	1.511172	0.080119	0.044031
O9	O	1.073263	-0.357827	-0.388597
O10	O	1.573263	0.142173	0.111403
O11	O	1.239298	-0.312227	-0.438168
O12	O	1.739298	0.187773	0.061832
O13	O	1.118814	-0.403492	-0.208361
O14	O	1.618814	0.096508	0.291639
O15	O	1.027707	-0.191828	-0.339109
O16	O	1.527707	0.308172	0.160891
O17	O	1.239239	-0.403475	-0.339104
O18	O	1.739239	0.096525	0.160896
O19	O	1.118951	-0.191815	-0.438171
O20	O	1.618951	0.308185	0.061829
O21	O	1.027629	-0.312257	-0.208363
O22	O	1.527629	0.187743	0.291637
O23	O	0.907264	-0.312205	-0.339050
O24	O	1.407264	0.187795	0.160950
O25	O	1.027675	-0.403384	-0.568809
O26	O	1.527675	0.096616	-0.068809
O27	O	0.907250	-0.403400	-0.438067
O28	O	1.407250	0.096600	0.061933
O29	O	1.118933	-0.312175	-0.568854
O30	O	1.618933	0.187825	-0.068854
O31	O	1.118796	-0.523852	-0.339045
O32	O	1.618796	-0.023852	0.160955
O33	O	1.027597	-0.523813	-0.438064
O34	O	1.527597	-0.023813	0.061936
C35	C	0.880311	-0.357799	-0.388552
C36	C	1.380311	0.142201	0.111448
C37	C	0.797765	-0.357805	-0.388552
C38	C	1.297765	0.142195	0.111448
C39	C	0.598300	-0.308156	-0.334831
C40	C	1.098300	0.191844	0.165169
C41	C	0.548890	-0.375894	-0.314987
C42	C	1.048890	0.124106	0.185013
C43	C	0.646634	-0.357828	-0.388589
C44	C	1.146634	0.142172	0.111411
C45	C	0.548963	-0.290113	-0.408430
C46	C	1.048963	0.209887	0.091570
C47	C	0.500649	-0.357844	-0.388623
C48	C	1.000649	0.142156	0.111377
C49	C	0.598312	-0.425601	-0.368707
C50	C	1.098312	0.074399	0.131293
C51	C	0.598389	-0.339775	-0.462184
C52	C	1.098389	0.160225	0.037816
C53	C	0.549001	-0.407560	-0.442368
C54	C	1.049001	0.092440	0.057632
C55	C	0.730733	-0.357818	-0.388567
C56	C	1.230733	0.142182	0.111433
C57	C	0.416553	-0.357861	-0.388644
C58	C	0.916553	0.142139	0.111356
C59	C	1.073206	-0.550779	-0.388565
C60	C	1.573206	-0.050779	0.111435
C61	C	1.073249	-0.633325	-0.388578
C62	C	1.573249	-0.133325	0.111422
C63	C	1.122946	-0.832770	-0.334807
C64	C	1.622946	-0.332770	0.165193
C65	C	1.141088	-0.882102	-0.408399
C66	C	1.641088	-0.382102	0.091601
C67	C	1.073291	-0.784455	-0.388610
C68	C	1.573291	-0.284455	0.111390
C69	C	1.055225	-0.882205	-0.315051
C70	C	1.555225	-0.382205	0.184949
C71	C	1.073333	-0.930440	-0.388635
C72	C	1.573333	-0.430440	0.111365
C73	C	1.091468	-0.832700	-0.462241
C74	C	1.591468	-0.332700	0.037759
C75	C	1.005573	-0.832798	-0.368844
C76	C	1.505573	-0.332798	0.131156
C77	C	1.023689	-0.882108	-0.442487
C78	C	1.523689	-0.382108	0.057513
C79	C	1.073269	-0.700357	-0.388595
C80	C	1.573269	-0.200357	0.111405
C81	C	1.073356	-1.014537	-0.388658
C82	C	1.573356	-0.514537	0.111342
C83	C	1.266968	-0.357855	-0.388642
C84	C	1.766968	0.142145	0.111358
C85	C	1.349514	-0.357867	-0.388661
C86	C	1.849514	0.142133	0.111339
C87	C	1.073311	-0.357772	-0.598906
C88	C	1.573311	0.142228	-0.098906
C89	C	1.073332	-0.357748	-0.688527
C90	C	1.573332	0.142252	-0.188527
C91	C	1.073340	-0.164121	-0.388647
C92	C	1.573340	0.335879	0.111353
C93	C	1.073373	-0.081576	-0.388668
C94	C	1.573373	0.418424	0.111332
C95	C	1.073366	-0.357665	-1.016703
C96	C	1.573366	0.142335	-0.516703
C97	C	1.073354	-0.357690	-0.925394
C98	C	1.573354	0.142310	-0.425394
C99	C	1.073349	-0.357707	-0.852618
C100	C	1.573349	0.142293	-0.352618
C101	C	1.073337	-0.357731	-0.761304
C102	C	1.573337	0.142269	-0.261304
C103	C	1.073257	-0.357828	-0.179106
C104	C	1.573257	0.142172	0.320894
C105	C	1.073381	-0.357643	-0.089485
C106	C	1.573381	0.142357	0.410515
H107	H	0.619898	-0.482890	-0.351870
H108	H	1.119898	0.017110	0.148130
O109	O	1.209383	-0.907966	-0.428510
O110	O	1.709383	-0.407966	0.071490
C111	C	1.204226	-0.950881	-0.499122
C112	C	1.704226	-0.450881	0.000878
H113	H	1.152639	-0.934039	-0.534173
H114	H	1.652639	-0.434039	-0.034173
H115	H	1.255460	-0.941277	-0.537873
H116	H	1.755460	-0.441277	-0.037873
H117	H	1.200411	-1.012028	-0.482420
H118	H	1.700411	-0.512028	0.017580
O119	O	0.523208	-0.457677	-0.496613
O120	O	1.023208	0.042323	0.003387
C121	C	0.445104	-0.456726	-0.496489
C122	C	0.945104	0.043274	0.003511
H123	H	0.424767	-0.401137	-0.472618
H124	H	0.924767	0.098863	0.027382
H125	H	0.423885	-0.465095	-0.560416
H126	H	0.923885	0.034905	-0.060416
H127	H	0.423503	-0.503176	-0.456335
H128	H	0.923503	-0.003176	0.043665
O129	O	0.624318	-0.321395	-0.536370
O130	O	1.124318	0.178605	-0.036370
C131	C	0.599204	-0.249926	-0.557049
C132	C	1.099204	0.250074	-0.057049
H133	H	0.585300	-0.217821	-0.499977
H134	H	1.085300	0.282179	0.000023
H135	H	0.644439	-0.219500	-0.591721
H136	H	1.144439	0.280500	-0.091721
H137	H	0.547566	-0.254664	-0.596169
H138	H	1.047566	0.245336	-0.096169
H139	H	0.527247	-0.232849	-0.425171
H140	H	1.027247	0.267151	0.074829
O141	O	1.109823	-0.806751	-0.536432
O142	O	1.609823	-0.306751	-0.036432
C143	C	1.109591	-0.728646	-0.535519
C144	C	1.609591	-0.228646	-0.035519
H145	H	1.117878	-0.708237	-0.471271
H146	H	1.617878	-0.208237	0.028729
H147	H	1.156412	-0.707028	-0.575145
H148	H	1.656412	-0.207028	-0.075145
H149	H	1.054298	-0.707515	-0.559402
H150	H	1.554298	-0.207515	-0.059402
O151	O	1.037010	-0.908270	-0.240868
O152	O	1.537010	-0.408270	0.259132
C153	C	1.036610	-0.986370	-0.242101
C154	C	1.536610	-0.486370	0.257899
H155	H	1.073035	-1.006885	-0.293499
H156	H	1.573035	-0.506885	0.206501
H157	H	1.058957	-1.008362	-0.182579
H158	H	1.558957	-0.508362	0.317421
H159	H	0.977517	-1.007018	-0.251221
H160	H	1.477517	-0.507018	0.248779
H161	H	1.164952	-0.811105	-0.289354
H162	H	1.664952	-0.311105	0.210646
O163	O	0.973699	-0.907761	-0.496948
O164	O	1.473699	-0.407761	0.003052
C165	C	0.993034	-0.882382	-0.574382
C166	C	1.493034	-0.382382	-0.074382
H167	H	1.054644	-0.868559	-0.575982
H168	H	1.554644	-0.368559	-0.075982
H169	H	0.980558	-0.927425	-0.620470
H170	H	1.480558	-0.427425	-0.120470
H171	H	0.959535	-0.830640	-0.589311
H172	H	1.459535	-0.330640	-0.089311
O173	O	0.937275	-0.806968	-0.348716
O174	O	1.437275	-0.306968	0.151284
C175	C	0.918409	-0.832165	-0.271076
C176	C	1.418409	-0.332165	0.228924
H177	H	0.971057	-0.846030	-0.236350
H178	H	1.471057	-0.346030	0.263650
H179	H	0.886523	-0.786994	-0.237961
H180	H	1.386523	-0.286994	0.262039
H181	H	0.882392	-0.883842	-0.276133
H182	H	1.382392	-0.383842	0.223867
H183	H	0.619947	-0.266195	-0.289321
H184	H	1.119947	0.233805	0.210679
H185	H	0.527149	-0.391175	-0.252764
H186	H	1.027149	0.108825	0.247236
