data_functionalizedCrystal
_audit_creation_method	'MofGen! by Chris Wilmer'
_symmetry_space_group_name_H-M	'P1'
_symmetry_Int_Tables_number	1
_symmetry_cell_setting	triclinic
loop_
_symmetry_equiv_pos_as_xyz
  x,y,z
_cell_length_a	6.817900
_cell_length_b	17.284796
_cell_length_c	12.200875
_cell_angle_alpha	91.041467
_cell_angle_beta	107.143593
_cell_angle_gamma	103.042616
loop_
_atom_site_label
_atom_site_type_symbol
_atom_site_fract_x
_atom_site_fract_y
_atom_site_fract_z
V1	V	-4.060296	-0.109233	-0.347874
V2	V	-3.560296	0.390767	0.152126
O3	O	-4.055411	0.005065	-0.351306
O4	O	-3.555411	0.505065	0.148694
O5	O	-4.003658	-0.216413	-0.335825
O6	O	-3.503658	0.283587	0.164175
O7	O	-4.030136	-0.107633	-0.504005
O8	O	-3.530136	0.392367	-0.004005
O9	O	-4.028750	-0.104468	-0.181961
O10	O	-3.528750	0.395532	0.318039
V11	V	-4.542628	-0.095552	-0.329204
V12	V	-4.042628	0.404448	0.170796
O13	O	-4.324167	-0.139243	-0.388828
O14	O	-3.824167	0.360757	0.111172
O15	O	-4.728954	-0.065542	-0.288250
O16	O	-4.228954	0.434458	0.211750
O17	O	-4.376059	0.011628	-0.341253
O18	O	-3.876059	0.511628	0.158747
O19	O	-4.664909	-0.209849	-0.325772
O20	O	-4.164909	0.290151	0.174228
O21	O	-4.691571	-0.100317	-0.495117
O22	O	-4.191571	0.399683	0.004883
O23	O	-4.349580	-0.097151	-0.173072
O24	O	-3.849580	0.402849	0.326928
C25	C	-3.846065	-0.242538	-0.327841
C26	C	-3.346065	0.257462	0.172159
C27	C	-3.881165	-0.330160	-0.319030
C28	C	-3.381165	0.169840	0.180970
C29	C	-4.073026	-0.822149	-0.258164
C30	C	-3.573026	-0.322149	0.241836
C31	C	-4.040065	-0.739821	-0.266462
C32	C	-3.540065	-0.239821	0.233538
C33	C	-4.075226	-0.709976	-0.374649
C34	C	-3.575226	-0.209976	0.125351
C35	C	-4.143332	-0.762463	-0.474543
C36	C	-3.643332	-0.262463	0.025457
C37	C	-4.176277	-0.844789	-0.466244
C38	C	-3.676277	-0.344789	0.033756
C39	C	-3.982217	-0.464972	-0.410626
C40	C	-3.482217	0.035028	0.089374
C41	C	-3.949271	-0.382640	-0.418918
C42	C	-3.449271	0.117360	0.081082
C43	C	-3.846002	-0.360004	-0.210835
C44	C	-3.346002	0.139996	0.289165
C45	C	-3.878966	-0.442333	-0.202546
C46	C	-3.378966	0.057667	0.297454
C47	C	-3.947058	-0.494812	-0.302440
C48	C	-3.447058	0.005188	0.197560
N49	N	-4.041542	-0.625825	-0.383133
N50	N	-3.541542	-0.125825	0.116867
N51	N	-3.980726	-0.578962	-0.293954
N52	N	-3.480726	-0.078962	0.206046
C53	C	-3.879839	-0.103778	-0.542372
C54	C	-3.379839	0.396222	-0.042372
C55	C	-3.936410	-0.103180	-0.669946
C56	C	-3.436410	0.396820	-0.169946
C57	C	-4.039942	-0.102085	-0.903519
C58	C	-3.539942	0.397915	-0.403519
C59	C	-3.982321	-0.102694	-0.773542
C60	C	-3.482321	0.397306	-0.273542
C61	C	-4.196994	0.037750	-0.349233
C62	C	-3.696994	0.537750	0.150767
C63	C	-4.141132	0.125371	-0.358051
C64	C	-3.641132	0.625371	0.141949
C65	C	-4.163219	-0.101009	-0.134700
C66	C	-3.663219	0.398991	0.365300
C67	C	-4.085887	-0.101603	-0.007125
C68	C	-3.585887	0.398397	0.492875
H69	H	-4.171945	-0.738156	-0.562631
H70	H	-3.671945	-0.238156	-0.062631
Br71	Br	-3.997016	-0.342137	-0.565754
Br72	Br	-3.497016	0.157863	-0.065754
H73	H	-4.231728	-0.887518	-0.547583
H74	H	-3.731728	-0.387518	-0.047583
Br75	Br	-4.025320	-0.862645	-0.111332
Br76	Br	-3.525320	-0.362645	0.388668
H77	H	-4.037665	-0.507692	-0.491968
H78	H	-3.537665	-0.007692	0.008032
H79	H	-3.850336	-0.466626	-0.114449
H80	H	-3.350336	0.033374	0.385551
Br81	Br	-3.947624	-0.668600	-0.130893
Br82	Br	-3.447624	-0.168600	0.369107
H83	H	-3.790557	-0.317267	-0.129507
H84	H	-3.290557	0.182733	0.370493
