data_functionalizedCrystal
_audit_creation_method	'MofGen! by Chris Wilmer'
_symmetry_space_group_name_H-M	'P1'
_symmetry_Int_Tables_number	1
_symmetry_cell_setting	triclinic
loop_
_symmetry_equiv_pos_as_xyz
  x,y,z
_cell_length_a	19.805407
_cell_length_b	16.959454
_cell_length_c	19.805398
_cell_angle_alpha	89.976589
_cell_angle_beta	89.986879
_cell_angle_gamma	90.020075
loop_
_atom_site_label
_atom_site_type_symbol
_atom_site_fract_x
_atom_site_fract_y
_atom_site_fract_z
Zn1	Zn	1.034722	-0.314692	-0.382744
Zn2	Zn	1.534722	0.185308	0.117256
Zn3	Zn	1.034662	-0.446877	-0.269566
Zn4	Zn	1.534662	0.053123	0.230434
Zn5	Zn	0.921550	-0.314716	-0.269569
Zn6	Zn	1.421550	0.185284	0.230431
Zn7	Zn	0.921513	-0.446832	-0.382713
Zn8	Zn	1.421513	0.053168	0.117287
O9	O	0.978112	-0.380779	-0.326148
O10	O	1.478112	0.119221	0.173852
O11	O	1.129431	-0.332235	-0.367743
O12	O	1.629431	0.167765	0.132257
O13	O	1.019648	-0.429374	-0.174850
O14	O	1.519648	0.070626	0.325150
O15	O	0.936603	-0.204102	-0.284596
O16	O	1.436603	0.295898	0.215404
O17	O	1.129387	-0.429350	-0.284591
O18	O	1.629387	0.070650	0.215409
O19	O	1.019750	-0.204084	-0.367745
O20	O	1.519750	0.295916	0.132255
O21	O	0.936545	-0.332276	-0.174852
O22	O	1.436545	0.167724	0.325148
O23	O	0.826828	-0.332233	-0.284565
O24	O	1.326828	0.167767	0.215435
O25	O	0.936540	-0.429275	-0.477434
O26	O	1.436540	0.070725	0.022566
O27	O	0.826801	-0.429298	-0.367692
O28	O	1.326801	0.070702	0.132308
O29	O	1.019715	-0.332192	-0.477457
O30	O	1.519715	0.167808	0.022543
O31	O	1.019613	-0.557482	-0.284561
O32	O	1.519613	-0.057482	0.215439
O33	O	0.936482	-0.557449	-0.367690
O34	O	1.436482	-0.057449	0.132310
C35	C	0.802256	-0.380764	-0.326126
C36	C	1.302256	0.119236	0.173874
C37	C	0.727024	-0.380777	-0.326133
C38	C	1.227024	0.119223	0.173867
C39	C	0.691683	-0.431395	-0.369347
C40	C	1.191683	0.068605	0.130653
C41	C	0.620995	-0.431396	-0.369356
C42	C	1.120995	0.068604	0.130644
C43	C	0.585648	-0.380783	-0.326148
C44	C	1.085648	0.119217	0.173852
C45	C	0.620994	-0.330159	-0.282932
C46	C	1.120994	0.169841	0.217068
C47	C	0.691681	-0.330154	-0.282926
C48	C	1.191681	0.169846	0.217074
C49	C	0.335920	-0.330177	-0.282954
C50	C	0.835920	0.169823	0.217046
C51	C	0.265228	-0.330187	-0.282962
C52	C	0.765228	0.169813	0.217038
C53	C	0.265235	-0.431418	-0.369384
C54	C	0.765235	0.068582	0.130616
C55	C	0.335922	-0.431413	-0.369379
C56	C	0.835922	0.068587	0.130621
C57	C	0.371261	-0.380787	-0.326166
C58	C	0.871261	0.119213	0.173834
C59	C	0.447909	-0.380785	-0.326157
C60	C	0.947909	0.119215	0.173843
C61	C	0.509001	-0.380788	-0.326153
C62	C	1.009001	0.119212	0.173847
C63	C	0.978055	-0.586145	-0.326136
C64	C	1.478055	-0.086145	0.173864
C65	C	0.978093	-0.674002	-0.326154
C66	C	1.478093	-0.174002	0.173846
C67	C	0.934889	-1.045491	-0.369428
C68	C	1.434889	-0.545491	0.130572
C69	C	1.021524	-1.045465	-0.282937
C70	C	1.521524	-0.545465	0.217063
C71	C	1.021500	-0.962919	-0.282930
C72	C	1.521500	-0.462919	0.217070
C73	C	0.978169	-0.921655	-0.326173
C74	C	1.478169	-0.421655	0.173827
C75	C	0.934862	-0.962937	-0.369422
C76	C	1.434862	-0.462937	0.130578
C77	C	1.064801	-0.921630	-0.239677
C78	C	1.564801	-0.421630	0.260323
C79	C	1.064779	-0.839080	-0.239669
C80	C	1.564779	-0.339080	0.260331
C81	C	1.021451	-0.797814	-0.282915
C82	C	1.521451	-0.297814	0.217085
C83	C	0.978143	-0.839101	-0.326167
C84	C	1.478143	-0.339101	0.173833
C85	C	0.934812	-0.797838	-0.369409
C86	C	1.434812	-0.297838	0.130591
C87	C	0.891507	-0.839123	-0.412665
C88	C	1.391507	-0.339123	0.087335
C89	C	0.891535	-0.921672	-0.412669
C90	C	1.391535	-0.421672	0.087331
C91	C	1.021424	-0.715266	-0.282911
C92	C	1.521424	-0.215266	0.217089
C93	C	0.934786	-0.715284	-0.369403
C94	C	1.434786	-0.215284	0.130597
C95	C	1.154655	-0.380795	-0.326170
C96	C	1.654655	0.119205	0.173830
C97	C	1.229887	-0.380802	-0.326180
C98	C	1.729887	0.119198	0.173820
C99	C	0.978130	-0.380726	-0.502691
C100	C	1.478130	0.119274	-0.002691
C101	C	0.978138	-0.380703	-0.577923
C102	C	1.478138	0.119297	-0.077923
C103	C	0.978187	-0.174611	-0.326174
C104	C	1.478187	0.325389	0.173826
C105	C	0.978219	-0.086754	-0.326186
C106	C	1.478219	0.413246	0.173814
C107	C	1.021516	-0.431136	-1.039711
C108	C	1.521516	0.068864	-0.539711
C109	C	1.021498	-0.431158	-0.969022
C110	C	1.521498	0.068842	-0.469022
C111	C	0.978222	-0.380614	-0.933685
C112	C	1.478222	0.119386	-0.433685
C113	C	0.934957	-0.330051	-0.969039
C114	C	1.434957	0.169949	-0.469039
C115	C	0.934973	-0.330034	-1.039727
C116	C	1.434973	0.169966	-0.539727
C117	C	0.934892	-0.330119	-0.683966
C118	C	1.434892	0.169881	-0.183966
C119	C	0.934881	-0.330138	-0.613274
C120	C	1.434881	0.169862	-0.113274
C121	C	1.021417	-0.431242	-0.613261
C122	C	1.521417	0.068758	-0.113261
C123	C	1.021432	-0.431225	-0.683949
C124	C	1.521432	0.068775	-0.183949
C125	C	0.978165	-0.380666	-0.719297
C126	C	1.478165	0.119334	-0.219297
C127	C	0.978185	-0.380644	-0.795946
C128	C	1.478185	0.119356	-0.295946
C129	C	0.978205	-0.380631	-0.857037
C130	C	1.478205	0.119369	-0.357037
C131	C	0.978133	-0.380775	-0.150292
C132	C	1.478133	0.119225	0.349708
C133	C	0.978256	-0.380576	-0.075060
C134	C	1.478256	0.119424	0.424940
H135	H	0.592224	-0.472615	-0.404545
H136	H	1.092224	0.027385	0.095455
H137	H	1.056716	-0.472339	-0.940243
H138	H	1.556716	0.027661	-0.440243
Cl139	Cl	0.837033	-0.787239	-0.467021
Cl140	Cl	1.337033	-0.287239	0.032979
H141	H	0.236451	-0.288967	-0.247776
H142	H	0.736451	0.211033	0.252224
Cl143	Cl	0.880468	-0.266593	-0.728395
Cl144	Cl	1.380468	0.233407	-0.228395
Cl145	Cl	0.837097	-0.973578	-0.467040
Cl146	Cl	1.337097	-0.473578	0.032960
Cl147	Cl	1.075853	-0.663367	-0.228531
Cl148	Cl	1.575853	-0.163367	0.271469
Cl149	Cl	0.880562	-0.266499	-0.924615
Cl150	Cl	1.380562	0.233501	-0.424615
H151	H	0.364697	-0.472631	-0.404561
H152	H	0.864697	0.027369	0.095439
Cl153	Cl	0.380338	-0.266530	-0.228631
Cl154	Cl	0.880338	0.233470	0.271369
H155	H	1.100041	-0.805470	-0.204449
H156	H	1.600041	-0.305470	0.295551
H157	H	0.899638	-0.288977	-0.584504
H158	H	1.399638	0.211023	-0.084504
H159	H	0.899503	-0.681692	-0.404619
H160	H	1.399503	-0.181692	0.095381
Cl161	Cl	0.880454	-1.097390	-0.423806
Cl162	Cl	1.380454	-0.597390	0.076194
H163	H	0.236453	-0.472638	-0.404573
H164	H	0.736453	0.027362	0.095427
Cl165	Cl	1.075928	-0.494676	-1.084128
Cl166	Cl	1.575928	0.005324	-0.584128
Cl167	Cl	0.576558	-0.266526	-0.228617
Cl168	Cl	1.076558	0.233474	0.271383
H169	H	1.056645	-0.472413	-0.584472
H170	H	1.556645	0.027587	-0.084472
H171	H	1.056674	-0.472380	-0.712717
H172	H	1.556674	0.027620	-0.212717
H173	H	0.720458	-0.472612	-0.404530
H174	H	1.220458	0.027388	0.095470
Cl175	Cl	0.880590	-0.266465	-1.084166
Cl176	Cl	1.380590	0.233535	-0.584166
H177	H	0.720454	-0.288932	-0.247741
H178	H	1.220454	0.211068	0.252259
Cl179	Cl	1.075994	-1.097340	-0.228578
Cl180	Cl	1.575994	-0.597340	0.271422
Cl181	Cl	1.119274	-0.973508	-0.185323
Cl182	Cl	1.619274	-0.473508	0.314677
