data_functionalizedCrystal
_audit_creation_method	'MofGen! by Chris Wilmer'
_symmetry_space_group_name_H-M	'P1'
_symmetry_Int_Tables_number	1
_symmetry_cell_setting	triclinic
loop_
_symmetry_equiv_pos_as_xyz
  x,y,z
_cell_length_a	10.489716
_cell_length_b	10.489716
_cell_length_c	10.268362
_cell_angle_alpha	89.998762
_cell_angle_beta	89.995798
_cell_angle_gamma	84.529136
loop_
_atom_site_label
_atom_site_type_symbol
_atom_site_fract_x
_atom_site_fract_y
_atom_site_fract_z
O1	O	1.694056	0.179822	-0.108277
O2	O	1.322855	0.196747	-0.108281
O3	O	1.516918	0.002684	-0.108283
O4	O	1.499993	0.373885	-0.108274
O5	O	1.516901	0.002676	0.108317
O6	O	1.322838	0.196739	0.108320
O7	O	1.694039	0.179814	0.108324
Cu8	Cu	1.508437	0.188276	0.128099
Cu9	Cu	1.508457	0.188285	-0.128056
O10	O	1.499976	0.373877	0.108326
C11	C	1.275314	0.195472	0.000019
C12	C	1.133684	0.191667	0.000017
C13	C	1.035999	0.310673	0.000017
C14	C	0.958650	0.247784	0.106817
C15	C	0.958674	0.247763	-0.106735
C16	C	1.058200	0.128828	0.106905
C17	C	1.058229	0.128825	-0.106742
C18	C	0.980929	0.065848	0.000084
C19	C	1.515638	-0.044852	0.000013
C20	C	1.511833	-0.186483	0.000001
C21	C	1.630839	-0.284167	0.000014
C22	C	1.567962	-0.361518	-0.106779
C23	C	1.567918	-0.361490	0.106773
C24	C	1.449006	-0.261968	-0.106880
C25	C	1.448979	-0.261935	0.106767
C26	C	1.386015	-0.339237	-0.000051
C27	C	1.741580	0.181089	0.000021
C28	C	1.883210	0.184894	0.000015
C29	C	1.501256	0.421413	0.000027
C30	C	1.505061	0.563044	0.000030
N31	N	1.508432	0.188268	0.308265
N32	N	1.508472	0.188283	-0.308222
C33	C	1.508451	0.188283	0.573936
C34	C	1.508436	0.188278	0.426098
H35	H	0.915156	0.298018	0.197109
F36	F	1.114809	0.063199	0.225041
F37	F	1.766138	-0.251922	-0.000122
F38	F	0.948999	-0.069551	0.000161
F39	F	1.068244	0.445972	0.000151
H40	H	0.915193	0.298028	-0.197012
F41	F	1.633633	-0.418374	-0.224788
F42	F	1.383384	-0.205026	0.224784
F43	F	1.115115	0.063227	-0.224767
H44	H	1.398803	-0.218657	-0.197265
F45	F	1.250613	-0.371162	-0.000124
F46	F	1.633601	-0.418320	0.224781
