data_functionalizedCrystal
_audit_creation_method	'MofGen! by Chris Wilmer'
_symmetry_space_group_name_H-M	'P1'
_symmetry_Int_Tables_number	1
_symmetry_cell_setting	triclinic
loop_
_symmetry_equiv_pos_as_xyz
  x,y,z
_cell_length_a	19.121241
_cell_length_b	19.121063
_cell_length_c	19.120904
_cell_angle_alpha	94.741613
_cell_angle_beta	90.124528
_cell_angle_gamma	84.996879
loop_
_atom_site_label
_atom_site_type_symbol
_atom_site_fract_x
_atom_site_fract_y
_atom_site_fract_z
Zn1	Zn	1.043557	0.254510	0.452551
Zn2	Zn	1.293557	0.504510	0.702551
Zn3	Zn	1.543557	0.754510	0.952551
Zn4	Zn	1.793557	1.004510	1.202551
Zn5	Zn	1.043470	0.367161	0.339898
Zn6	Zn	1.293470	0.617161	0.589898
Zn7	Zn	1.543470	0.867161	0.839898
Zn8	Zn	1.793470	1.117161	1.089898
Zn9	Zn	0.931342	0.254092	0.330304
Zn10	Zn	1.181342	0.504092	0.580304
Zn11	Zn	1.431342	0.754092	0.830304
Zn12	Zn	1.681342	1.004092	1.080304
Zn13	Zn	0.920835	0.377147	0.452491
Zn14	Zn	1.170835	0.627147	0.702491
Zn15	Zn	1.420835	0.877147	0.952491
Zn16	Zn	1.670835	1.127147	1.202491
O17	O	0.984801	0.313228	0.393811
O18	O	1.234801	0.563228	0.643811
O19	O	1.484801	0.813228	0.893811
O20	O	1.734801	1.063228	1.143811
O21	O	1.141831	0.265449	0.441648
O22	O	1.391831	0.515449	0.691648
O23	O	1.641831	0.765449	0.941648
O24	O	1.891831	1.015449	1.191648
O25	O	1.032957	0.347808	0.240344
O26	O	1.282957	0.597808	0.490344
O27	O	1.532957	0.847808	0.740344
O28	O	1.782957	1.097808	0.990344
O29	O	0.950661	0.155504	0.342530
O30	O	1.200661	0.405504	0.592530
O31	O	1.450661	0.655504	0.842530
O32	O	1.700661	0.905504	1.092530
O33	O	1.141767	0.348213	0.358882
O34	O	1.391767	0.598213	0.608882
O35	O	1.641767	0.848213	0.858882
O36	O	1.891767	1.098213	1.108882
O37	O	1.033105	0.155811	0.432344
O38	O	1.283105	0.405811	0.682344
O39	O	1.533105	0.655811	0.932344
O40	O	1.783105	0.905811	1.182344
O41	O	0.950577	0.264736	0.233295
O42	O	1.200577	0.514736	0.483295
O43	O	1.450577	0.764736	0.733295
O44	O	1.700577	1.014736	0.983295
O45	O	0.831663	0.274420	0.342472
O46	O	1.081663	0.524420	0.592472
O47	O	1.331663	0.774420	0.842472
O48	O	1.581663	1.024420	1.092472
O49	O	0.932754	0.365234	0.550781
O50	O	1.182754	0.615234	0.800781
O51	O	1.432754	0.865234	1.050781
O52	O	1.682754	1.115234	1.300781
O53	O	0.823943	0.364828	0.432242
O54	O	1.073943	0.614828	0.682242
O55	O	1.323943	0.864828	0.932242
O56	O	1.573943	1.114828	1.182242
O57	O	1.022917	0.275133	0.550825
O58	O	1.272917	0.525133	0.800825
O59	O	1.522917	0.775133	1.050825
O60	O	1.772917	1.025133	1.300825
O61	O	1.022769	0.467129	0.358824
O62	O	1.272769	0.717129	0.608824
O63	O	1.522769	0.967129	0.858824
O64	O	1.772769	1.217129	1.108824
O65	O	0.932669	0.474466	0.441546
O66	O	1.182669	0.724466	0.691546
O67	O	1.432669	0.974466	0.941546
O68	O	1.682669	1.224466	1.191546
C69	C	0.802319	0.320663	0.386310
C70	C	1.052319	0.570663	0.636310
C71	C	1.302319	0.820663	0.886310
C72	C	1.552319	1.070663	1.136310
C73	C	0.724250	0.323861	0.383118
C74	C	0.974250	0.573861	0.633118
C75	C	1.224250	0.823861	0.883118
C76	C	1.474250	1.073861	1.133118
C77	C	0.687602	0.282348	0.424782
C78	C	0.937602	0.532348	0.674782
C79	C	1.187602	0.782348	0.924782
C80	C	1.437602	1.032348	1.174782
C81	C	0.614249	0.285349	0.421777
C82	C	0.864249	0.535349	0.671777
C83	C	1.114249	0.785349	0.921777
C84	C	1.364249	1.035349	1.171777
C85	C	0.577546	0.329869	0.377111
C86	C	0.827546	0.579869	0.627111
C87	C	1.077546	0.829869	0.877111
C88	C	1.327546	1.079869	1.127111
C89	C	0.614200	0.371384	0.335443
C90	C	0.864200	0.621384	0.585443
C91	C	1.114200	0.871384	0.835443
C92	C	1.364200	1.121384	1.085443
C93	C	0.687552	0.368378	0.338445
C94	C	0.937552	0.618378	0.588445
C95	C	1.187552	0.868378	0.838445
C96	C	1.437552	1.118378	1.088445
C97	C	0.356069	0.341093	0.365885
C98	C	0.606069	0.591093	0.615885
C99	C	0.856069	0.841093	0.865885
C100	C	1.106069	1.091093	1.115885
C101	C	0.282712	0.344097	0.362887
C102	C	0.532712	0.594097	0.612887
C103	C	0.782712	0.844097	0.862887
C104	C	1.032712	1.094097	1.112887
C105	C	0.282766	0.258061	0.449221
C106	C	0.532766	0.508061	0.699221
C107	C	0.782766	0.758061	0.949221
C108	C	1.032766	1.008061	1.199221
C109	C	0.356119	0.255063	0.452222
C110	C	0.606119	0.505063	0.702222
C111	C	0.856119	0.755063	0.952222
C112	C	1.106119	1.005063	1.202222
C113	C	0.392767	0.296575	0.410551
C114	C	0.642767	0.546575	0.660551
C115	C	0.892767	0.796575	0.910551
C116	C	1.142767	1.046575	1.160551
C117	C	0.502567	0.332939	0.374040
C118	C	0.752567	0.582939	0.624040
C119	C	1.002567	0.832939	0.874040
C120	C	1.252567	1.082939	1.124040
C121	C	0.467744	0.293500	0.413619
C122	C	0.717744	0.543500	0.663619
C123	C	0.967744	0.793500	0.913619
C124	C	1.217744	1.043500	1.163619
C125	C	0.976588	0.496375	0.401236
C126	C	1.226588	0.746375	0.651236
C127	C	1.476588	0.996375	0.901236
C128	C	1.726588	1.246375	1.151236
C129	C	0.973137	0.574724	0.404438
C130	C	1.223137	0.824724	0.654438
C131	C	1.473137	1.074724	0.904438
C132	C	1.723137	1.324724	1.154438
C133	C	0.976673	0.321344	0.576998
C134	C	1.226673	0.571344	0.826998
C135	C	1.476673	0.821344	1.076998
C136	C	1.726673	1.071344	1.326998
C137	C	0.973209	0.324803	0.655062
C138	C	1.223209	0.574803	0.905062
C139	C	1.473209	0.824803	1.155062
C140	C	1.723209	1.074803	1.405062
C141	C	1.167996	0.305764	0.401342
C142	C	1.417996	0.555764	0.651342
C143	C	1.667996	0.805764	0.901342
C144	C	1.917996	1.055764	1.151342
C145	C	1.246063	0.302584	0.404551
C146	C	1.496063	0.552584	0.654551
C147	C	1.746063	0.802584	0.904551
C148	C	1.996063	1.052584	1.154551
C149	C	0.993065	0.129365	0.386373
C150	C	1.243065	0.379365	0.636373
C151	C	1.493065	0.629365	0.886373
C152	C	1.743065	0.879365	1.136373
C153	C	0.996587	0.051014	0.383204
C154	C	1.246587	0.301014	0.633204
C155	C	1.496587	0.551014	0.883204
C156	C	1.746587	0.801014	1.133204
C157	C	1.018459	0.607690	0.362913
C158	C	1.268459	0.857690	0.612913
C159	C	1.518459	1.107690	0.862913
C160	C	1.768459	1.357690	1.112913
C161	C	1.015218	0.681308	0.365929
C162	C	1.265218	0.931308	0.615929
C163	C	1.515218	1.181308	0.865929
C164	C	1.765218	1.431308	1.115929
C165	C	0.966651	0.721959	0.410467
C166	C	1.216651	0.971959	0.660467
C167	C	1.466651	1.221959	0.910467
C168	C	1.716651	1.471959	1.160467
C169	C	0.921327	0.688989	0.451998
C170	C	1.171327	0.938989	0.701998
C171	C	1.421327	1.188989	0.951998
C172	C	1.671327	1.438989	1.201998
C173	C	0.924572	0.615372	0.448985
C174	C	1.174572	0.865372	0.698985
C175	C	1.424572	1.115372	0.948985
C176	C	1.674572	1.365372	1.198985
C177	C	0.954507	0.944426	0.421721
C178	C	1.204507	1.194426	0.671721
C179	C	1.454507	1.444426	0.921721
C180	C	1.704507	1.694426	1.171721
C181	C	0.951264	1.018048	0.424729
C182	C	1.201264	1.268048	0.674729
C183	C	1.451264	1.518048	0.924729
C184	C	1.701264	1.768048	1.174729
C185	C	1.045157	1.010363	0.338661
C186	C	1.295157	1.260363	0.588661
C187	C	1.545157	1.510363	0.838661
C188	C	1.795157	1.760363	1.088661
C189	C	1.048395	0.936745	0.335649
C190	C	1.298395	1.186745	0.585649
C191	C	1.548395	1.436745	0.835649
C192	C	1.798395	1.686745	1.085649
C193	C	1.003073	0.903781	0.377182
C194	C	1.253073	1.153781	0.627182
C195	C	1.503073	1.403781	0.877182
C196	C	1.753073	1.653781	1.127182
C197	C	0.963335	0.797209	0.413550
C198	C	1.213335	1.047209	0.663550
C199	C	1.463335	1.297209	0.913550
C200	C	1.713335	1.547209	1.163550
C201	C	1.006393	0.828532	0.374103
C202	C	1.256393	1.078532	0.624103
C203	C	1.506393	1.328532	0.874103
C204	C	1.756393	1.578532	1.124103
C205	C	0.992940	0.305090	0.211336
C206	C	1.242940	0.555090	0.461336
C207	C	1.492940	0.805090	0.711336
C208	C	1.742940	1.055090	0.961336
C209	C	0.996549	0.301428	0.133270
C210	C	1.246549	0.551428	0.383270
C211	C	1.496549	0.801428	0.633270
C212	C	1.746549	1.051428	0.883270
C213	C	1.018523	0.279519	0.691760
C214	C	1.268523	0.529519	0.941760
C215	C	1.518523	0.779519	1.191760
C216	C	1.768523	1.029519	1.441760
C217	C	1.015260	0.282766	0.765109
C218	C	1.265260	0.532766	1.015109
C219	C	1.515260	0.782766	1.265109
C220	C	1.765260	1.032766	1.515109
C221	C	0.966686	0.331301	0.801758
C222	C	1.216686	0.581301	1.051758
C223	C	1.466686	0.831301	1.301758
C224	C	1.716686	1.081301	1.551758
C225	C	0.921368	0.376587	0.765054
C226	C	1.171368	0.626587	1.015054
C227	C	1.421368	0.876587	1.265054
C228	C	1.671368	1.126587	1.515054
C229	C	0.924628	0.373336	0.691707
C230	C	1.174628	0.623336	0.941707
C231	C	1.424628	0.873336	1.191707
C232	C	1.674628	1.123336	1.441707
C233	C	0.954491	0.343462	1.023219
C234	C	1.204491	0.593462	1.273219
C235	C	1.454491	0.843462	1.523219
C236	C	1.704491	1.093462	1.773219
C237	C	0.951236	0.346711	1.096572
C238	C	1.201236	0.596711	1.346572
C239	C	1.451236	0.846711	1.596572
C240	C	1.701236	1.096711	1.846572
C241	C	1.045127	0.252889	1.096621
C242	C	1.295127	0.502889	1.346621
C243	C	1.545127	0.752889	1.596621
C244	C	1.795127	1.002889	1.846621
C245	C	1.048386	0.249645	1.023272
C246	C	1.298386	0.499645	1.273272
C247	C	1.548386	0.749645	1.523272
C248	C	1.798386	0.999645	1.773272
C249	C	1.003065	0.294928	0.986575
C250	C	1.253065	0.544928	1.236575
C251	C	1.503065	0.794928	1.486575
C252	C	1.753065	1.044928	1.736575
C253	C	0.963351	0.334623	0.876732
C254	C	1.213351	0.584623	1.126732
C255	C	1.463351	0.834623	1.376732
C256	C	1.713351	1.084623	1.626732
C257	C	1.006397	0.291602	0.911602
C258	C	1.256397	0.541602	1.161602
C259	C	1.506397	0.791602	1.411602
C260	C	1.756397	1.041602	1.661602
H261	H	0.717390	0.402182	0.304517
H262	H	0.967390	0.652182	0.554517
H263	H	1.217390	0.902182	0.804517
H264	H	1.467390	1.152182	1.054517
H265	H	0.497631	0.257250	0.449982
H266	H	0.747631	0.507250	0.699982
H267	H	0.997631	0.757250	0.949982
H268	H	1.247631	1.007250	1.199982
H269	H	1.045943	0.252083	0.881759
H270	H	1.295943	0.502083	1.131759
H271	H	1.545943	0.752083	1.381759
H272	H	1.795943	1.002083	1.631759
H273	H	0.917597	0.380345	0.993349
H274	H	1.167597	0.630345	1.243349
H275	H	1.417597	0.880345	1.493349
H276	H	1.667597	1.130345	1.743349
C277	C	1.059814	0.783814	0.325110
C278	C	1.309814	1.033814	0.575110
C279	C	1.559814	1.283814	0.825110
C280	C	1.809814	1.533814	1.075110
N281	N	1.100048	0.750126	0.288206
N282	N	1.350048	1.000126	0.538206
N283	N	1.600048	1.250126	0.788206
N284	N	1.850048	1.500126	1.038206
C285	C	1.101805	0.892034	0.286634
C286	C	1.351805	1.142034	0.536634
C287	C	1.601805	1.392034	0.786634
C288	C	1.851805	1.642034	1.036634
N289	N	1.142027	0.858358	0.249707
N290	N	1.392027	1.108358	0.499707
N291	N	1.642027	1.358358	0.749707
N292	N	1.892027	1.608358	0.999707
C293	C	0.909917	0.388006	0.917053
C294	C	1.159917	0.638006	1.167053
C295	C	1.409917	0.888006	1.417053
C296	C	1.659917	1.138006	1.667053
N297	N	0.869667	0.428211	0.947425
N298	N	1.119667	0.678211	1.197425
N299	N	1.369667	0.928211	1.447425
N300	N	1.619667	1.178211	1.697425
C301	C	1.101814	0.196246	0.982963
C302	C	1.351814	0.446246	1.232963
C303	C	1.601814	0.696246	1.482963
C304	C	1.851814	0.946246	1.732963
N305	N	1.142056	0.156024	0.952602
N306	N	1.392056	0.406024	1.202602
N307	N	1.642056	0.656024	1.452602
N308	N	1.892056	0.906024	1.702602
C309	C	0.867900	0.733707	0.500988
C310	C	1.117900	0.983707	0.750988
C311	C	1.367900	1.233707	1.000988
C312	C	1.617900	1.483707	1.250988
N313	N	0.827655	0.767389	0.537886
N314	N	1.077655	1.017389	0.787886
N315	N	1.327655	1.267389	1.037886
N316	N	1.577655	1.517389	1.287886
C317	C	0.904686	0.908176	0.467446
C318	C	1.154686	1.158176	0.717446
C319	C	1.404686	1.408176	0.967446
C320	C	1.654686	1.658176	1.217446
N321	N	0.867171	0.880869	0.501903
N322	N	1.117171	1.130869	0.751903
N323	N	1.367171	1.380869	1.001903
N324	N	1.617171	1.630869	1.251903
H325	H	1.082056	1.037210	0.304849
H326	H	1.332056	1.287210	0.554849
H327	H	1.582056	1.537210	0.804849
H328	H	1.832056	1.787210	1.054849
C329	C	0.396372	0.386761	0.320048
C330	C	0.646372	0.636761	0.570048
C331	C	0.896372	0.886761	0.820048
C332	C	1.146372	1.136761	1.070048
N333	N	0.426731	0.421161	0.285522
N334	N	0.676731	0.671161	0.535522
N335	N	0.926731	0.921161	0.785522
N336	N	1.176731	1.171161	1.035522
H337	H	0.252919	0.224264	0.483146
H338	H	0.502919	0.474264	0.733146
H339	H	0.752919	0.724264	0.983146
H340	H	1.002919	0.974264	1.233146
H341	H	0.584412	0.251546	0.455705
H342	H	0.834412	0.501546	0.705705
H343	H	1.084412	0.751546	0.955705
H344	H	1.334412	1.001546	1.205705
H345	H	0.584311	0.407629	0.299072
H346	H	0.834311	0.657629	0.549072
H347	H	1.084311	0.907629	0.799072
H348	H	1.334311	1.157629	1.049072
H349	H	1.052160	0.245893	0.794986
H350	H	1.302160	0.495893	1.044986
H351	H	1.552160	0.745893	1.294986
H352	H	1.802160	0.995893	1.544986
C353	C	0.867929	0.429969	0.805371
C354	C	1.117929	0.679969	1.055371
C355	C	1.367929	0.929969	1.305371
C356	C	1.617929	1.179969	1.555371
N357	N	0.827678	0.470178	0.835736
N358	N	1.077678	0.720178	1.085736
N359	N	1.327678	0.970178	1.335736
N360	N	1.577678	1.220178	1.585736
H361	H	1.058005	0.574597	0.326641
H362	H	1.308005	0.824597	0.576641
H363	H	1.558005	1.074597	0.826641
H364	H	1.808005	1.324597	1.076641
H365	H	1.082024	0.216022	1.126508
H366	H	1.332024	0.466022	1.376508
H367	H	1.582024	0.716022	1.626508
H368	H	1.832024	0.966022	1.876508
H369	H	0.911723	1.051145	0.461011
H370	H	1.161723	1.301145	0.711011
H371	H	1.411723	1.551145	0.961011
H372	H	1.661723	1.801145	1.211011
H373	H	0.911679	0.386236	1.126409
H374	H	1.161679	0.636236	1.376409
H375	H	1.411679	0.886236	1.626409
H376	H	1.661679	1.136236	1.876409
C377	C	1.071957	0.226125	0.651453
C378	C	1.321957	0.476125	0.901453
C379	C	1.571957	0.726125	1.151453
C380	C	1.821957	0.976125	1.401453
N381	N	1.112204	0.185906	0.621095
N382	N	1.362204	0.435906	0.871095
N383	N	1.612204	0.685906	1.121095
N384	N	1.862204	0.935906	1.371095
C385	C	0.874714	0.579110	0.494667
C386	C	1.124714	0.829110	0.744667
C387	C	1.374714	1.079110	0.994667
C388	C	1.624714	1.329110	1.244667
N389	N	0.837161	0.551799	0.529078
N390	N	1.087161	0.801799	0.779078
N391	N	1.337161	1.051799	1.029078
N392	N	1.587161	1.301799	1.279078
C393	C	0.874780	0.423152	0.651339
C394	C	1.124780	0.673152	0.901339
C395	C	1.374780	0.923152	1.151339
C396	C	1.624780	1.173152	1.401339
N397	N	0.837232	0.460675	0.620935
N398	N	1.087232	0.710675	0.870935
N399	N	1.337232	0.960675	1.120935
N400	N	1.587232	1.210675	1.370935
H401	H	0.923790	0.830315	0.449812
H402	H	1.173790	1.080315	0.699812
H403	H	1.423790	1.330315	0.949812
H404	H	1.673790	1.580315	1.199812
H405	H	0.385997	0.218813	0.488596
H406	H	0.635997	0.468813	0.738596
H407	H	0.885997	0.718813	0.988596
H408	H	1.135997	0.968813	1.238596
C409	C	0.242340	0.393074	0.313750
C410	C	0.492340	0.643074	0.563750
C411	C	0.742340	0.893074	0.813750
C412	C	0.992340	1.143074	1.063750
N413	N	0.211932	0.429963	0.276743
N414	N	0.461932	0.679963	0.526743
N415	N	0.711932	0.929963	0.776743
N416	N	0.961932	1.179963	1.026743
H417	H	0.717480	0.246097	0.461155
H418	H	0.967480	0.496097	0.711155
H419	H	1.217480	0.746097	0.961155
H420	H	1.467480	0.996097	1.211155
H421	H	0.472675	0.369187	0.337673
H422	H	0.722675	0.619187	0.587673
H423	H	0.972675	0.869187	0.837673
H424	H	1.222675	1.119187	1.087673
H425	H	1.052124	0.708145	0.332114
H426	H	1.302124	0.958145	0.582114
H427	H	1.552124	1.208145	0.832114
H428	H	1.802124	1.458145	1.082114
