data_functionalizedCrystal
_audit_creation_method	'MofGen! by Chris Wilmer'
_symmetry_space_group_name_H-M	'P1'
_symmetry_Int_Tables_number	1
_symmetry_cell_setting	triclinic
loop_
_symmetry_equiv_pos_as_xyz
  x,y,z
_cell_length_a	18.215407
_cell_length_b	16.120484
_cell_length_c	18.215399
_cell_angle_alpha	92.869346
_cell_angle_beta	89.980650
_cell_angle_gamma	92.926015
loop_
_atom_site_label
_atom_site_type_symbol
_atom_site_fract_x
_atom_site_fract_y
_atom_site_fract_z
Zn1	Zn	1.110209	-0.331903	-0.430960
Zn2	Zn	1.103877	-0.471325	-0.314129
Zn3	Zn	0.987141	-0.331931	-0.307908
Zn4	Zn	0.980868	-0.471278	-0.437152
O5	O	1.045524	-0.401609	-0.372537
O6	O	1.212353	-0.350406	-0.415474
O7	O	1.088367	-0.452866	-0.210321
O8	O	1.008742	-0.215262	-0.319037
O9	O	1.207700	-0.452839	-0.329639
O10	O	1.099160	-0.215241	-0.409442
O11	O	1.002602	-0.350454	-0.205751
O12	O	0.883325	-0.350408	-0.325041
O13	O	0.998050	-0.452758	-0.539313
O14	O	0.878716	-0.452785	-0.419995
O15	O	1.093076	-0.350360	-0.534764
O16	O	1.082283	-0.587985	-0.335643
O17	O	0.991909	-0.587950	-0.426027
C18	C	0.854318	-0.401595	-0.372515
C19	C	0.772519	-0.401609	-0.372524
C20	C	0.581940	-0.455001	-0.421912
C21	C	0.505081	-0.455003	-0.421921
C22	C	0.509859	-0.348233	-0.323179
C23	C	0.586716	-0.348227	-0.323174
C24	C	0.622755	-0.401615	-0.372539
C25	C	0.469038	-0.401624	-0.372554
C26	C	0.385705	-0.401627	-0.372564
C27	C	0.706094	-0.401612	-0.372531
C28	C	1.035748	-0.618218	-0.382198
C29	C	1.031634	-0.710884	-0.386355
C30	C	1.024126	-0.880546	-0.393961
C31	C	1.067053	-0.921833	-0.351125
C32	C	1.062876	-1.016238	-0.355357
C33	C	1.028302	-0.786131	-0.389730
C34	C	1.237476	-0.401624	-0.372559
C35	C	1.319274	-0.401631	-0.372569
C36	C	1.045570	-0.401550	-0.564487
C37	C	1.045589	-0.401525	-0.646285
C38	C	1.055357	-0.184155	-0.362855
C39	C	1.059548	-0.091489	-0.358729
C40	C	1.095100	-0.348134	-0.908972
C41	C	1.095090	-0.348157	-0.832114
C42	C	0.996144	-0.454795	-0.836842
C43	C	0.996157	-0.454776	-0.913698
C44	C	1.045635	-0.401441	-0.949761
C45	C	1.045611	-0.401482	-0.796047
C46	C	1.045600	-0.401507	-0.712714
C47	C	1.045647	-0.401417	-1.033099
C48	C	1.045523	-0.401608	-0.181331
C49	C	1.045657	-0.401398	-0.099523
H50	H	0.471853	-0.498474	-0.462126
H51	H	1.106942	-0.886278	-0.311274
H52	H	0.955860	-0.498217	-0.807470
N53	N	0.620808	-0.512582	-0.475156
H54	H	0.608035	-0.499707	-0.527183
H55	H	0.675679	-0.504455	-0.467598
N56	N	0.971286	-0.927638	-0.446737
H57	H	0.919364	-0.912601	-0.434591
H58	H	0.983396	-0.912472	-0.498646
N59	N	1.148460	-0.290610	-0.947871
H60	H	1.179794	-0.256845	-0.910365
H61	H	1.180991	-0.324535	-0.981276
N62	N	0.630737	-0.290633	-0.269923
H63	H	0.616763	-0.303502	-0.217895
H64	H	0.684881	-0.298749	-0.277475
N65	N	1.148444	-0.290665	-0.788120
H66	H	1.179788	-0.256878	-0.822630
H67	H	1.120226	-0.252093	-0.754507
H68	H	0.955876	-0.498189	-0.946910
H69	H	0.480507	-0.304767	-0.282986
