data_functionalizedCrystal
_audit_creation_method	'MofGen! by Chris Wilmer'
_symmetry_space_group_name_H-M	'P1'
_symmetry_Int_Tables_number	1
_symmetry_cell_setting	triclinic
loop_
_symmetry_equiv_pos_as_xyz
  x,y,z
_cell_length_a	16.956984
_cell_length_b	16.992695
_cell_length_c	16.053802
_cell_angle_alpha	87.258926
_cell_angle_beta	92.389299
_cell_angle_gamma	83.360821
loop_
_atom_site_label
_atom_site_type_symbol
_atom_site_fract_x
_atom_site_fract_y
_atom_site_fract_z
O1	O	1.063242	0.028849	0.069433
O2	O	0.832831	0.056264	0.069434
O3	O	0.947113	-0.071526	0.069427
O4	O	0.948961	0.156639	0.069441
O5	O	0.940821	-0.064519	-0.069431
O6	O	0.826539	0.063271	-0.069424
O7	O	1.056950	0.035855	-0.069425
Zn8	Zn	0.940746	0.050676	-0.091471
Zn9	Zn	0.949036	0.041444	0.091481
O10	O	0.942669	0.163646	-0.069418
C11	C	0.800067	0.061171	0.000005
C12	C	0.711812	0.065345	0.000006
C13	C	0.941590	-0.097081	-0.000002
C14	C	0.934500	-0.183666	-0.000002
C15	C	0.675280	-0.004440	-0.000000
C16	C	0.592356	-0.000514	0.000006
C17	C	0.545964	0.073198	0.000012
C18	C	0.582501	0.142989	0.000020
C19	C	0.665424	0.139062	0.000020
C20	C	0.297430	0.092637	0.000019
C21	C	0.214501	0.096559	0.000017
C22	C	0.224362	-0.046944	0.000004
C23	C	0.307286	-0.050864	-0.000001
C24	C	0.343816	0.018925	0.000012
N25	N	0.461201	0.077213	0.000016
N26	N	0.428578	0.014909	0.000014
C27	C	1.002914	-0.238341	-0.000003
C28	C	0.996248	-0.319696	0.000005
C29	C	0.921165	-0.346374	0.000008
C30	C	0.852745	-0.291692	0.000012
C31	C	0.859413	-0.210339	0.000010
C32	C	0.893530	-0.588181	0.000020
C33	C	0.886867	-0.669540	0.000019
C34	C	1.030371	-0.697538	0.000014
C35	C	1.037031	-0.616182	0.000007
C36	C	0.968612	-0.561508	0.000015
N37	N	0.914349	-0.429531	0.000014
N38	N	0.975429	-0.478353	0.000016
C39	C	1.089715	0.030948	0.000006
C40	C	1.177970	0.026774	0.000011
C41	C	0.948191	0.189201	0.000013
C42	C	0.955282	0.275785	0.000018
N43	N	0.935094	0.056975	-0.216331
C44	C	0.983741	0.002617	-0.260028
C45	C	0.979795	0.007031	-0.347435
C46	C	0.927206	0.065806	-0.391143
C47	C	0.878553	0.120167	-0.347440
C48	C	0.882496	0.115749	-0.260035
C49	C	0.909984	0.085081	-0.652551
C50	C	0.906047	0.089496	-0.739962
C51	C	1.007288	-0.023642	-0.739952
C52	C	1.011229	-0.028051	-0.652545
C53	C	0.962573	0.026307	-0.608849
N54	N	0.923173	0.070321	-0.480486
N55	N	0.966603	0.021788	-0.519508
N56	N	0.954694	0.035138	0.216341
H57	H	0.713047	-0.064464	-0.000008
Cl58	Cl	0.821333	0.184086	-0.205102
Cl59	Cl	0.773402	-0.141604	0.000015
Cl60	Cl	1.049860	-0.071273	-0.205090
Cl61	Cl	1.077342	-0.101941	-0.597598
H62	H	1.046900	-0.067898	-0.775536
H63	H	1.098172	-0.594468	0.000004
Cl64	Cl	1.097309	-0.204812	-0.000015
Cl65	Cl	0.812436	0.194054	-0.402385
Cl66	Cl	0.758355	-0.325230	0.000026
H67	H	0.863220	0.137361	-0.775545
H68	H	0.870368	0.129343	-0.616981
Cl69	Cl	0.792470	-0.703075	0.000018
H70	H	0.695167	0.195888	0.000021
Cl71	Cl	1.082260	-0.388427	0.000001
Cl72	Cl	1.116378	-0.766275	0.000006
Cl73	Cl	0.546435	-0.088249	0.000023
Cl74	Cl	0.365602	-0.143535	-0.000014
Cl75	Cl	0.524180	0.235656	0.000035
Cl76	Cl	0.343343	0.180374	0.000033
H77	H	0.837817	-0.543674	0.000026
Cl78	Cl	0.178434	-0.134674	-0.000006
H79	H	0.176730	0.156588	0.000017
Cl80	Cl	1.040951	-0.061307	-0.402370
