data_functionalizedCrystal
_audit_creation_method	'MofGen! by Chris Wilmer'
_symmetry_space_group_name_H-M	'P1'
_symmetry_Int_Tables_number	1
_symmetry_cell_setting	triclinic
loop_
_symmetry_equiv_pos_as_xyz
  x,y,z
_cell_length_a	14.908520
_cell_length_b	12.827893
_cell_length_c	12.827885
_cell_angle_alpha	90.021379
_cell_angle_beta	93.263527
_cell_angle_gamma	86.681073
loop_
_atom_site_label
_atom_site_type_symbol
_atom_site_fract_x
_atom_site_fract_y
_atom_site_fract_z
Zn1	Zn	-0.359156	-1.573614	-0.614872
Zn2	Zn	-0.025823	-1.240280	-0.281539
Zn3	Zn	0.307510	-0.906947	0.051795
Zn4	Zn	-0.510040	-1.563401	-0.450202
Zn5	Zn	-0.176706	-1.230067	-0.116869
Zn6	Zn	0.156627	-0.896734	0.216465
Zn7	Zn	-0.359196	-1.398852	-0.440142
Zn8	Zn	-0.025862	-1.065519	-0.106809
Zn9	Zn	0.307471	-0.732185	0.226524
Zn10	Zn	-0.509968	-1.388739	-0.624891
Zn11	Zn	-0.176635	-1.055405	-0.291558
Zn12	Zn	0.156699	-0.722072	0.041775
O13	O	-0.434590	-1.481151	-0.532527
O14	O	-0.101257	-1.147818	-0.199194
O15	O	0.232077	-0.814485	0.134140
O16	O	-0.379185	-1.718494	-0.593045
O17	O	-0.045852	-1.385161	-0.259712
O18	O	0.287482	-1.051827	0.073622
O19	O	-0.490076	-1.541531	-0.302635
O20	O	-0.156743	-1.208198	0.030699
O21	O	0.176590	-0.874864	0.364032
O22	O	-0.232946	-1.430541	-0.454917
O23	O	0.100387	-1.097208	-0.121584
O24	O	0.433720	-0.763875	0.211749
O25	O	-0.490038	-1.710990	-0.472063
O26	O	-0.156705	-1.377657	-0.138729
O27	O	0.176628	-1.044324	0.194604
O28	O	-0.232918	-1.558938	-0.583290
O29	O	0.100416	-1.225605	-0.249957
O30	O	0.433749	-0.892271	0.083376
O31	O	-0.379252	-1.420638	-0.295244
O32	O	-0.045919	-1.087305	0.038090
O33	O	0.287415	-0.753971	0.371423
O34	O	-0.379182	-1.251275	-0.464633
O35	O	-0.045849	-0.917942	-0.131300
O36	O	0.287484	-0.584609	0.202034
O37	O	-0.489916	-1.413304	-0.769795
O38	O	-0.156583	-1.079971	-0.436462
O39	O	0.176751	-0.746638	-0.103129
O40	O	-0.489954	-1.243845	-0.600367
O41	O	-0.156621	-0.910512	-0.267034
O42	O	0.176713	-0.577178	0.066299
O43	O	-0.379115	-1.549131	-0.762434
O44	O	-0.045782	-1.215798	-0.429101
O45	O	0.287551	-0.882465	-0.095767
O46	O	-0.636274	-1.531724	-0.481778
O47	O	-0.302941	-1.198391	-0.148445
O48	O	0.030392	-0.865058	0.184888
O49	O	-0.636222	-1.403401	-0.610122
O50	O	-0.302888	-1.070068	-0.276788
O51	O	0.030445	-0.736734	0.056545
C52	C	-0.434565	-1.209643	-0.532496
C53	C	-0.101232	-0.876310	-0.199163
C54	C	0.232101	-0.542976	0.134170
C55	C	-0.434577	-1.093489	-0.532509
C56	C	-0.101243	-0.760156	-0.199176
C57	C	0.232090	-0.426822	0.134157
C58	C	-0.379819	-1.045411	-0.592479
C59	C	-0.046485	-0.712077	-0.259146
C60	C	0.286848	-0.378744	0.074188
C61	C	-0.379829	-0.925360	-0.592494
C62	C	-0.046495	-0.592026	-0.259161
C63	C	0.286838	-0.258693	0.074173
C64	C	-0.668982	-1.465385	-0.548152
C65	C	-0.335648	-1.132052	-0.214818
C66	C	-0.002315	-0.798719	0.118515
C67	C	-0.769255	-1.458736	-0.554871
C68	C	-0.435922	-1.125403	-0.221538
C69	C	-0.102589	-0.792070	0.111796
C70	C	-0.957674	-1.580003	-0.433961
C71	C	-0.624341	-1.246669	-0.100627
C72	C	-0.291008	-0.913336	0.232706
C73	C	-1.051890	-1.573759	-0.440271
C74	C	-0.718557	-1.240425	-0.106937
C75	C	-0.385224	-0.907092	0.226396
C76	C	-1.051905	-1.440011	-0.573805
C77	C	-0.718572	-1.106677	-0.240472
C78	C	-0.385239	-0.773344	0.092861
C79	C	-0.957689	-1.446254	-0.567495
C80	C	-0.624356	-1.112921	-0.234162
C81	C	-0.291023	-0.779588	0.099171
C82	C	-0.910577	-1.516252	-0.497570
C83	C	-0.577244	-1.182918	-0.164236
C84	C	-0.243910	-0.849585	0.169097
C85	C	-0.816359	-1.522490	-0.491255
C86	C	-0.483026	-1.189156	-0.157922
C87	C	-0.149692	-0.855823	0.175412
C88	C	-0.816376	-1.388747	-0.624794
C89	C	-0.483043	-1.055414	-0.291461
C90	C	-0.149709	-0.722081	0.041872
C91	C	-0.910592	-1.382504	-0.631104
C92	C	-0.577259	-1.049170	-0.297771
C93	C	-0.243925	-0.715837	0.035562
C94	C	-0.199283	-1.497007	-0.516864
C95	C	0.134050	-1.163674	-0.183531
C96	C	0.467384	-0.830340	0.149803
C97	C	-0.099009	-1.503764	-0.510190
C98	C	0.234324	-1.170431	-0.176856
C99	C	0.567657	-0.837097	0.156477
C100	C	-0.434503	-1.481229	-0.805091
C101	C	-0.101170	-1.147896	-0.471758
C102	C	0.232163	-0.814562	-0.138425
C103	C	-0.434466	-1.481262	-0.921242
C104	C	-0.101133	-1.147929	-0.587909
C105	C	0.232200	-0.814596	-0.254576
C106	C	-0.434608	-0.753720	-0.532549
C107	C	-0.101275	-0.420387	-0.199216
C108	C	0.232059	-0.087053	0.134117
C109	C	-0.434597	-0.869874	-0.532536
C110	C	-0.101263	-0.536541	-0.199203
C111	C	0.232070	-0.203207	0.134130
C112	C	-0.379616	-1.421461	-0.969369
C113	C	-0.046283	-1.088128	-0.636036
C114	C	0.287051	-0.754795	-0.302702
C115	C	-0.379577	-1.421494	-1.089417
C116	C	-0.046243	-1.088161	-0.756084
C117	C	0.287090	-0.754828	-0.422750
C118	C	-0.434611	-1.481138	-0.261018
C119	C	-0.101278	-1.147805	0.072315
C120	C	0.232056	-0.814472	0.405648
C121	C	-0.434394	-1.481324	-0.144851
C122	C	-0.101061	-1.147991	0.188482
C123	C	0.232273	-0.814658	0.521815
H124	H	-0.778001	-1.579482	-0.434315
H125	H	-0.444668	-1.246149	-0.100982
H126	H	-0.111334	-0.912815	0.232351
H127	H	-1.090233	-1.625673	-0.388476
H128	H	-0.756900	-1.292340	-0.055142
H129	H	-0.423567	-0.959007	0.278191
F130	F	-0.318527	-1.107773	-0.659572
F131	F	0.014806	-0.774440	-0.326238
F132	F	0.348139	-0.441107	0.007095
F133	F	-0.907532	-1.654484	-0.359529
F134	F	-0.574198	-1.321151	-0.026195
F135	F	-0.240865	-0.987817	0.307138
F136	F	-0.495814	-1.548210	-0.983548
F137	F	-0.162481	-1.214877	-0.650214
F138	F	0.170852	-0.881543	-0.316881
H139	H	-0.332951	-0.883999	-0.643840
H140	H	0.000382	-0.550666	-0.310506
H141	H	0.333715	-0.217332	0.022827
F142	F	-0.766245	-1.320884	-0.692485
F143	F	-0.432912	-0.987550	-0.359151
F144	F	-0.099578	-0.654217	-0.025818
F145	F	-0.495882	-0.923924	-0.465429
F146	F	-0.162549	-0.590591	-0.132095
F147	F	0.170785	-0.257257	0.201238
F148	F	-0.495860	-1.031127	-0.465408
F149	F	-0.162527	-0.697794	-0.132075
F150	F	0.170806	-0.364460	0.201259
H151	H	-1.090281	-1.383029	-0.630742
H152	H	-0.756947	-1.049696	-0.297409
H153	H	-0.423614	-0.716363	0.035924
F154	F	-0.960742	-1.308015	-0.705524
F155	F	-0.627409	-0.974682	-0.372190
F156	F	-0.294075	-0.641349	-0.038857
H157	H	-0.332690	-1.370235	-0.921698
H158	H	0.000644	-1.036902	-0.588364
H159	H	0.333977	-0.703568	-0.255031
H160	H	-0.332614	-1.370302	-1.130819
H161	H	0.000720	-1.036968	-0.797485
H162	H	0.334053	-0.703635	-0.464152
H163	H	-0.481352	-1.532529	-1.103456
H164	H	-0.148019	-1.199196	-0.770123
H165	H	0.185314	-0.865862	-0.436789
