data_functionalizedCrystal
_audit_creation_method	'MofGen! by Chris Wilmer'
_symmetry_space_group_name_H-M	'P1'
_symmetry_Int_Tables_number	1
_symmetry_cell_setting	triclinic
loop_
_symmetry_equiv_pos_as_xyz
  x,y,z
_cell_length_a	17.699083
_cell_length_b	23.532407
_cell_length_c	16.776229
_cell_angle_alpha	89.988688
_cell_angle_beta	89.998886
_cell_angle_gamma	83.065847
loop_
_atom_site_label
_atom_site_type_symbol
_atom_site_fract_x
_atom_site_fract_y
_atom_site_fract_z
O1	O	1.003713	0.072020	-0.066185
O2	O	0.783287	0.081390	-0.066212
O3	O	0.900147	-0.006208	-0.066183
O4	O	0.886853	0.159617	-0.066214
O5	O	0.900132	-0.006213	0.066394
O6	O	0.783272	0.081384	0.066365
O7	O	1.003698	0.072015	0.066392
Zn8	Zn	0.893482	0.076699	0.087428
Zn9	Zn	0.893503	0.076706	-0.087248
O10	O	0.886838	0.159612	0.066363
C11	C	0.755084	0.081051	0.000073
C12	C	0.671071	0.080044	0.000063
C13	C	0.899801	-0.027427	0.000107
C14	C	0.898783	-0.090647	0.000113
C15	C	0.622189	0.131462	0.000054
C16	C	0.543251	0.130512	0.000065
C17	C	0.513196	0.078144	0.000079
C18	C	0.562084	0.026722	0.000090
C19	C	0.641021	0.027672	0.000086
C20	C	0.243740	0.022888	0.000111
C21	C	0.164797	0.021942	0.000113
C22	C	0.145970	0.125728	0.000090
C23	C	0.224907	0.126678	0.000085
C24	C	0.273788	0.075257	0.000101
C25	C	0.359382	0.076287	0.000091
C26	C	0.427603	0.077113	0.000083
C27	C	0.961554	-0.489570	0.000077
C28	C	0.960609	-0.548973	0.000071
O29	O	1.018799	-0.585550	0.000049
N30	N	0.891136	-0.571799	0.000063
C31	C	0.822604	-0.535218	0.000053
O32	O	0.763424	-0.560088	0.000045
C33	C	0.823550	-0.475816	0.000054
C34	C	0.893028	-0.452994	0.000070
C35	C	1.031026	-0.466747	0.000093
C36	C	1.031972	-0.407348	0.000100
C37	C	0.963445	-0.370772	0.000093
C38	C	0.893973	-0.393595	0.000078
C39	C	0.755019	-0.439237	0.000038
C40	C	0.755971	-0.379832	0.000038
C41	C	0.825448	-0.357009	0.000054
C42	C	0.826391	-0.297620	0.000078
N43	N	0.895864	-0.274795	0.000086
C44	C	0.964391	-0.311371	0.000093
C45	C	0.820622	-0.659966	0.000051
C46	C	0.819674	-0.719367	0.000056
C47	C	0.957680	-0.733118	0.000073
C48	C	0.958626	-0.673716	0.000073
C49	C	0.890095	-0.637141	0.000059
C50	C	0.966371	-0.186628	0.000110
C51	C	0.967310	-0.127223	0.000121
C52	C	0.829305	-0.113478	0.000100
C53	C	0.828365	-0.172877	0.000094
C54	C	0.896904	-0.209452	0.000096
O55	O	0.768232	-0.261008	0.000097
O56	O	1.023560	-0.286493	0.000091
C57	C	1.031901	0.072353	0.000105
C58	C	1.115914	0.073360	0.000110
C59	C	0.887184	0.180832	0.000071
C60	C	0.888202	0.244052	0.000060
N61	N	0.893474	0.076693	0.206639
N62	N	0.893517	0.076706	-0.206459
C63	C	0.945235	0.037921	0.248369
C64	C	0.945239	0.037921	0.331821
C65	C	0.893485	0.076696	0.373542
C66	C	0.841719	0.115470	0.331806
C67	C	0.841712	0.115467	0.248355
C68	C	0.841746	0.115481	0.668353
C69	C	0.841759	0.115482	0.751810
C70	C	0.945274	0.037935	0.751819
C71	C	0.945267	0.037932	0.668368
C72	C	0.893498	0.076704	0.626640
C73	C	0.893493	0.076703	0.536151
C74	C	0.893493	0.076699	0.464029
H75	H	0.646653	0.174106	0.000042
O76	O	1.024300	-0.768596	-0.000034
C77	C	1.141942	-0.798547	-0.068738
C78	C	1.066538	-0.758327	-0.068708
H79	H	1.176105	-0.790267	-0.124264
H80	H	1.176207	-0.790267	-0.013290
H81	H	1.129308	-0.844917	-0.068706
H82	H	1.079103	-0.711942	-0.068768
H83	H	1.032295	-0.766656	-0.124151
O84	O	0.291183	-0.027077	-0.000021
C85	C	0.331383	-0.115511	-0.068662
C86	C	0.277621	-0.058937	-0.068622
H87	H	0.320426	-0.141291	-0.124112
H88	H	0.392981	-0.105878	-0.068716
H89	H	0.320505	-0.141265	-0.013149
H90	H	0.288430	-0.033156	-0.124126
H91	H	0.216040	-0.068610	-0.068527
O92	O	0.791404	0.153168	0.792215
C93	C	0.688745	0.230102	0.783405
C94	C	0.745714	0.187448	0.737546
H95	H	0.651801	0.257837	0.739225
H96	H	0.651083	0.205574	0.822467
H97	H	0.721220	0.258500	0.822481
H98	H	0.713302	0.159039	0.698427
H99	H	0.783376	0.212012	0.698534
H100	H	0.773512	-0.083687	0.000097
O101	O	0.791571	0.153174	0.627742
C102	C	0.774868	0.231001	0.533554
C103	C	0.831774	0.188331	0.579483
H104	H	0.807350	0.259444	0.494538
H105	H	0.737244	0.206487	0.494441
H106	H	0.737875	0.258689	0.577730
H107	H	0.868818	0.160632	0.535364
H108	H	0.869346	0.212879	0.618607
H109	H	0.799561	0.147039	0.214380
H110	H	0.140330	-0.020705	0.000126
O111	O	0.688477	-0.022290	-0.000051
C112	C	0.728695	-0.110720	-0.068693
C113	C	0.674921	-0.054153	-0.068651
H114	H	0.717742	-0.136503	-0.124143
H115	H	0.790290	-0.101079	-0.068749
H116	H	0.717824	-0.136476	-0.013179
H117	H	0.685722	-0.028369	-0.124156
H118	H	0.613343	-0.063834	-0.068555
O119	O	1.034871	-0.105150	0.000098
C120	C	1.171652	-0.125069	0.000160
C121	C	1.095198	-0.150141	0.000169
H122	H	1.220447	-0.161432	0.000234
H123	H	1.175605	-0.097613	-0.055333
H124	H	1.175501	-0.097593	0.055633
H125	H	1.091298	-0.177642	-0.055267
H126	H	1.091278	-0.177564	0.055699
O127	O	0.532928	-0.024164	0.000244
C128	C	0.524913	-0.113183	0.068917
C129	C	0.557964	-0.055568	0.068857
H130	H	0.545154	-0.138594	0.124376
H131	H	0.460095	-0.105066	0.068967
H132	H	0.545065	-0.138559	0.013413
H133	H	0.537870	-0.030162	0.124352
H134	H	0.622779	-0.063725	0.068766
O135	O	0.791339	0.153078	0.372297
C136	C	0.659490	0.186591	0.397804
C137	C	0.716461	0.143959	0.351913
H138	H	0.598938	0.179241	0.381327
H139	H	0.668322	0.179934	0.464626
H140	H	0.669039	0.232192	0.381389
H141	H	0.706946	0.098340	0.368261
H142	H	0.707615	0.150666	0.285103
H143	H	1.022182	-0.216401	0.000109
H144	H	1.015201	-0.655139	0.000086
H145	H	0.764811	-0.630189	0.000046
O146	O	0.495875	0.180512	0.000019
C147	C	0.485531	0.283558	0.000040
C148	C	0.539270	0.226973	0.000070
H149	H	0.520594	0.321136	0.000099
H150	H	0.448112	0.285749	-0.055452
H151	H	0.448094	0.285676	0.055514
H152	H	0.576755	0.224817	-0.055366
H153	H	0.576637	0.224806	0.055599
H154	H	0.249373	0.169322	0.000070
H155	H	0.763099	-0.737943	0.000057
O156	O	1.099529	-0.385278	0.000074
C157	C	1.236310	-0.405208	0.000133
C158	C	1.159851	-0.430273	0.000147
H159	H	1.285100	-0.441575	0.000210
H160	H	1.240266	-0.377756	-0.055362
H161	H	1.240164	-0.377731	0.055605
H162	H	1.155945	-0.457776	-0.055286
H163	H	1.155928	-0.457694	0.055679
H164	H	0.987382	0.006348	0.214405
H165	H	1.086833	-0.496522	0.000096
O166	O	0.098562	0.175718	0.000188
C167	C	0.058292	0.264123	0.068872
C168	C	0.112033	0.207539	0.068855
H169	H	0.069153	0.289860	0.124392
H170	H	0.069176	0.289939	0.013418
H171	H	-0.003284	0.254438	0.068842
H172	H	0.173628	0.217172	0.068913
H173	H	0.101083	0.181739	0.124304
O174	O	0.687460	-0.461302	-0.000017
C175	C	0.550680	-0.441368	-0.000004
C176	C	0.627141	-0.416305	0.000041
H177	H	0.501892	-0.405000	0.000060
H178	H	0.546740	-0.468803	-0.055504
H179	H	0.546808	-0.468863	0.055462
H180	H	0.631065	-0.388785	-0.055387
H181	H	0.631048	-0.388903	0.055578
H182	H	0.771791	-0.191460	0.000103
O183	O	0.689417	-0.344279	-0.000115
C184	C	0.610419	-0.269197	-0.068782
C185	C	0.685808	-0.309435	-0.068720
H186	H	0.607483	-0.241008	-0.124234
H187	H	0.560574	-0.295689	-0.068845
H188	H	0.607410	-0.241079	-0.013271
H189	H	0.688891	-0.337562	-0.124221
H190	H	0.735617	-0.282910	-0.068615
O191	O	0.995602	0.000242	0.372234
C192	C	1.098267	-0.076685	0.363436
C193	C	1.041279	-0.034037	0.317571
H194	H	1.135201	-0.104419	0.319261
H195	H	1.135938	-0.052152	0.402467
H196	H	1.065809	-0.105085	0.402545
H197	H	1.073675	-0.005627	0.278419
H198	H	1.003609	-0.058605	0.278590
H199	H	0.987412	0.006360	0.634402
H200	H	0.987425	0.006362	0.785803
