data_functionalizedCrystal
_audit_creation_method	'MofGen! by Chris Wilmer'
_symmetry_space_group_name_H-M	'P1'
_symmetry_Int_Tables_number	1
_symmetry_cell_setting	triclinic
loop_
_symmetry_equiv_pos_as_xyz
  x,y,z
_cell_length_a	17.038272
_cell_length_b	17.038272
_cell_length_c	16.176319
_cell_angle_alpha	89.993159
_cell_angle_beta	89.998402
_cell_angle_gamma	91.111556
loop_
_atom_site_label
_atom_site_type_symbol
_atom_site_fract_x
_atom_site_fract_y
_atom_site_fract_z
O1	O	1.048758	0.170539	-0.068644
O2	O	0.820946	0.167831	-0.068668
O3	O	0.933498	0.055279	-0.068650
O4	O	0.936206	0.283091	-0.068662
O5	O	0.933481	0.055270	0.068844
O6	O	0.820929	0.167822	0.068825
O7	O	1.048741	0.170530	0.068849
Cu8	Cu	0.934833	0.169175	0.081391
Cu9	Cu	0.934854	0.169186	-0.081210
O10	O	0.936189	0.283082	0.068831
C11	C	0.791645	0.165364	0.000075
C12	C	0.704361	0.158016	0.000066
C13	C	0.658752	0.225479	0.000063
C14	C	0.576740	0.218570	0.000075
C15	C	0.540339	0.144197	0.000084
C16	C	0.585954	0.076728	0.000090
C17	C	0.667965	0.083638	0.000084
C18	C	0.292951	0.119787	0.000107
C19	C	0.210935	0.112882	0.000111
C20	C	0.201726	0.254725	0.000098
C21	C	0.283739	0.261628	0.000087
C22	C	0.329347	0.194159	0.000097
C23	C	0.456510	0.137133	0.000093
C24	C	0.413174	0.201224	0.000093
C25	C	0.931027	0.025982	0.000097
C26	C	0.923679	-0.061301	0.000096
C27	C	0.991142	-0.106911	0.000104
C28	C	0.984233	-0.188923	0.000095
C29	C	0.909860	-0.225324	0.000084
C30	C	0.842391	-0.179708	0.000074
C31	C	0.849301	-0.097698	0.000077
C32	C	0.885449	-0.472712	0.000070
C33	C	0.878545	-0.554728	0.000070
C34	C	1.020387	-0.563937	0.000090
C35	C	1.027291	-0.481924	0.000098
C36	C	0.959822	-0.436316	0.000083
C37	C	0.902796	-0.309153	0.000078
C38	C	0.966886	-0.352488	0.000083
C39	C	1.078042	0.172997	0.000104
C40	C	1.165326	0.180346	0.000108
C41	C	0.938660	0.312379	0.000083
C42	C	0.946008	0.399663	0.000078
N43	N	0.934825	0.169168	0.195757
N44	N	0.934868	0.169187	-0.195575
C45	C	0.984680	0.119353	0.239029
C46	C	0.984684	0.119352	0.325576
C47	C	0.934836	0.169171	0.368849
C48	C	0.884975	0.218989	0.325571
C49	C	0.884968	0.218985	0.239025
C50	C	0.885003	0.219005	0.674599
C51	C	0.885016	0.219007	0.761151
C52	C	0.984719	0.119373	0.761150
C53	C	0.984712	0.119369	0.674604
C54	C	0.934849	0.169183	0.631333
C55	C	0.934844	0.169182	0.537489
C56	C	0.934844	0.169177	0.462692
H57	H	0.181300	0.052315	0.000117
H58	H	0.844384	0.259549	0.360809
H59	H	0.844421	0.259577	0.796382
F60	F	0.716505	0.011834	0.000090
F61	F	1.092187	-0.612481	0.000105
H62	H	0.688384	0.286042	0.000055
F63	F	0.831902	0.272003	0.192973
H64	H	0.817978	-0.584363	0.000075
H65	H	0.426863	0.076578	0.000124
H66	H	1.025306	0.078804	0.639374
F67	F	0.341480	0.047979	0.000118
F68	F	0.451917	0.280375	0.000087
H69	H	0.830511	-0.435587	0.000059
F70	F	0.777497	-0.049157	0.000065
F71	F	0.528203	0.290375	0.000068
H72	H	1.027441	-0.322847	0.000073
H73	H	0.313370	0.322190	0.000070
H74	H	0.844404	0.259567	0.639375
F75	F	0.153181	0.326524	0.000089
H76	H	1.051705	-0.077279	0.000117
F77	F	0.547212	-0.002426	0.000105
F78	F	1.056038	-0.237460	0.000105
H79	H	1.087853	-0.452293	0.000106
H80	H	1.025319	0.078809	0.796390
H81	H	1.025276	0.078788	0.203802
F82	F	0.763237	-0.218451	0.000053
F83	F	0.823644	-0.347901	0.000063
H84	H	1.025280	0.078789	0.360808
