data_functionalizedCrystal
_audit_creation_method	'MofGen! by Chris Wilmer'
_symmetry_space_group_name_H-M	'P1'
_symmetry_Int_Tables_number	1
_symmetry_cell_setting	triclinic
loop_
_symmetry_equiv_pos_as_xyz
  x,y,z
_cell_length_a	15.297475
_cell_length_b	21.395361
_cell_length_c	21.395355
_cell_angle_alpha	89.978489
_cell_angle_beta	99.687451
_cell_angle_gamma	99.667694
loop_
_atom_site_label
_atom_site_type_symbol
_atom_site_fract_x
_atom_site_fract_y
_atom_site_fract_z
Zn1	Zn	1.379208	0.415565	0.519713
Zn2	Zn	1.712541	0.748898	0.853047
Zn3	Zn	2.045874	1.082232	1.186380
Zn4	Zn	1.379067	0.520308	0.414914
Zn5	Zn	1.712401	0.853641	0.748247
Zn6	Zn	2.045734	1.186975	1.081580
Zn7	Zn	1.228329	0.397400	0.396849
Zn8	Zn	1.561663	0.730733	0.730182
Zn9	Zn	1.894996	1.064066	1.063516
Zn10	Zn	1.228285	0.502138	0.501564
Zn11	Zn	1.561618	0.835471	0.834898
Zn12	Zn	1.894951	1.168805	1.168231
O13	O	1.303722	0.458853	0.458260
O14	O	1.637056	0.792186	0.791593
O15	O	1.970389	1.125519	1.124927
O16	O	1.505435	0.444666	0.520967
O17	O	1.838768	0.777999	0.854300
O18	O	2.172102	1.111333	1.187634
O19	O	1.359031	0.504006	0.324835
O20	O	1.692365	0.837339	0.658168
O21	O	2.025698	1.170673	0.991501
O22	O	1.248421	0.312141	0.413183
O23	O	1.581754	0.645474	0.746516
O24	O	1.915088	0.978807	1.079849
O25	O	1.505332	0.521620	0.443971
O26	O	1.838665	0.854953	0.777304
O27	O	2.171999	1.188287	1.110638
O28	O	1.359271	0.325487	0.503451
O29	O	1.692604	0.658820	0.836784
O30	O	2.025937	0.992153	1.170117
O31	O	1.248285	0.413706	0.311563
O32	O	1.581618	0.747039	0.644896
O33	O	1.914951	1.080372	0.978229
O34	O	1.102077	0.396087	0.395584
O35	O	1.435411	0.729420	0.728918
O36	O	1.768744	1.062754	1.062251
O37	O	1.248345	0.490652	0.591655
O38	O	1.581679	0.823985	0.924988
O39	O	1.915012	1.157319	1.258321
O40	O	1.102045	0.473038	0.472518
O41	O	1.435378	0.806371	0.805851
O42	O	1.768711	1.139704	1.139185
O43	O	1.359228	0.427047	0.604989
O44	O	1.692561	0.760380	0.938322
O45	O	2.025894	1.093714	1.271655
O46	O	1.358988	0.605566	0.426373
O47	O	1.692322	0.938900	0.759706
O48	O	2.025655	1.272233	1.093039
O49	O	1.248209	0.592217	0.490034
O50	O	1.581542	0.925550	0.823368
O51	O	1.914876	1.258883	1.156701
C52	C	1.069327	0.430620	0.430122
C53	C	1.402660	0.763953	0.763455
C54	C	1.735993	1.097287	1.096789
C55	C	0.969051	0.418557	0.418099
C56	C	1.302385	0.751890	0.751432
C57	C	1.635718	1.085224	1.084766
C58	C	1.303603	0.621626	0.458211
C59	C	1.636936	0.954959	0.791544
C60	C	1.970270	1.288293	1.124878
C61	C	1.303635	0.691271	0.458221
C62	C	1.636968	1.024604	0.791554
C63	C	1.970301	1.357938	1.124887
C64	C	1.303797	0.458849	0.621692
C65	C	1.637130	0.792182	0.955026
C66	C	1.970464	1.125516	1.288359
C67	C	1.303829	0.458847	0.691338
C68	C	1.637162	0.792181	1.024671
C69	C	1.970496	1.125514	1.358004
C70	C	0.686423	0.545073	0.544191
C71	C	1.019757	0.878407	0.877524
C72	C	1.353090	1.211740	1.210857
C73	C	0.780637	0.556412	0.555485
C74	C	1.113970	0.889745	0.888818
C75	C	1.447304	1.223078	1.222152
C76	C	0.827745	0.521949	0.521140
C77	C	1.161079	0.855282	0.854473
C78	C	1.494412	1.188616	1.187806
C79	C	0.780630	0.476146	0.475498
C80	C	1.113964	0.809479	0.808831
C81	C	1.447297	1.142813	1.142164
C82	C	0.686407	0.464810	0.464199
C83	C	1.019741	0.798143	0.797532
C84	C	1.353074	1.131476	1.130865
C85	C	0.827729	0.441685	0.441148
C86	C	1.161063	0.775019	0.774481
C87	C	1.494396	1.108352	1.107814
C88	C	0.780614	0.395882	0.395506
C89	C	1.113948	0.729216	0.728839
C90	C	1.447281	1.062549	1.062173
C91	C	0.686401	0.384548	0.384209
C92	C	1.019734	0.717881	0.717543
C93	C	1.353067	1.051215	1.050876
C94	C	0.639293	0.419011	0.418555
C95	C	0.972626	0.752344	0.751888
C96	C	1.305959	1.085678	1.085221
C97	C	0.921952	0.453021	0.452447
C98	C	1.255286	0.786355	0.785780
C99	C	1.588619	1.119688	1.119113
C100	C	0.921936	0.372758	0.372455
C101	C	1.255270	0.706091	0.705788
C102	C	1.588603	1.039425	1.039122
C103	C	0.827723	0.361420	0.361161
C104	C	1.161056	0.694753	0.694494
C105	C	1.494389	1.028086	1.027827
C106	C	1.539033	0.487196	0.486509
C107	C	1.872366	0.820529	0.819842
C108	C	2.205700	1.153863	1.153175
C109	C	1.639309	0.499274	0.498546
C110	C	1.972642	0.832608	0.831880
C111	C	2.305975	1.165941	1.165213
C112	C	1.303866	0.295447	0.458326
C113	C	1.637200	0.628780	0.791659
C114	C	1.970533	0.962113	1.124993
C115	C	1.303928	0.225813	0.458354
C116	C	1.637261	0.559146	0.791688
C117	C	1.970594	0.892479	1.125021
C118	C	1.361369	0.730920	0.425119
C119	C	1.694702	1.064254	0.758453
C120	C	2.028035	1.397587	1.091786
C121	C	1.361411	0.796361	0.425138
C122	C	1.694744	1.129694	0.758472
C123	C	2.028077	1.463028	1.091805
C124	C	1.303703	0.822147	0.458250
C125	C	1.637036	1.155481	0.791584
C126	C	1.970369	1.488814	1.124917
C127	C	1.245965	0.782490	0.491359
C128	C	1.579298	1.115823	0.824693
C129	C	1.912631	1.449156	1.158026
C130	C	1.245931	0.717051	0.491344
C131	C	1.579264	1.050385	0.824678
C132	C	1.912597	1.383718	1.158011
C133	C	1.222472	0.916083	0.453415
C134	C	1.555805	1.249416	0.786748
C135	C	1.889139	1.582749	1.120082
C136	C	1.222504	0.981519	0.453425
C137	C	1.555838	1.314853	0.786759
C138	C	1.889171	1.648186	1.120092
C139	C	1.303808	1.023981	0.458300
C140	C	1.637141	1.357314	0.791633
C141	C	1.970474	1.690647	1.124966
C142	C	1.385081	1.000998	0.463151
C143	C	1.718414	1.334331	0.796485
C144	C	2.051748	1.667664	1.129818
C145	C	1.385047	0.935559	0.463136
C146	C	1.718381	1.268893	0.796470
C147	C	2.051714	1.602226	1.129803
C148	C	1.303733	0.893103	0.458270
C149	C	1.637067	1.226437	0.791604
C150	C	1.970400	1.559770	1.124937
C151	C	1.361592	1.134589	0.425217
C152	C	1.694925	1.467922	0.758551
C153	C	2.028258	1.801256	1.091884
C154	C	1.361635	1.200031	0.425241
C155	C	1.694969	1.533364	0.758574
C156	C	2.028302	1.866697	1.091908
C157	C	1.246181	1.186157	0.491458
C158	C	1.579515	1.519490	0.824791
C159	C	1.912848	1.852824	1.158124
C160	C	1.246146	1.120717	0.491438
C161	C	1.579479	1.454051	0.824772
C162	C	1.912813	1.787384	1.158105
C163	C	1.303850	1.094937	0.458315
C164	C	1.637183	1.428271	0.791648
C165	C	1.970517	1.761604	1.124981
C166	C	1.303700	0.458817	0.295470
C167	C	1.637033	0.792151	0.628803
C168	C	1.970366	1.125484	0.962137
C169	C	1.303842	0.458663	0.225846
C170	C	1.637176	0.791997	0.559179
C171	C	1.970509	1.125330	0.892513
C172	C	1.361563	0.425726	0.730994
C173	C	1.694896	0.759060	1.064328
C174	C	2.028230	1.092393	1.397661
C175	C	1.361562	0.425699	0.796430
C176	C	1.694895	0.759033	1.129763
C177	C	2.028228	1.092366	1.463096
C178	C	1.303836	0.458806	0.822207
C179	C	1.637169	0.792139	1.155540
C180	C	1.970503	1.125472	1.488873
C181	C	1.246091	0.491928	0.782541
C182	C	1.579424	0.825261	1.115874
C183	C	1.912758	1.158595	1.449207
C184	C	1.246087	0.491949	0.717106
C185	C	1.579421	0.825282	1.050439
C186	C	1.912754	1.158616	1.383773
C187	C	1.296671	0.514358	0.925010
C188	C	1.630005	0.847692	1.258343
C189	C	1.963338	1.181025	1.591676
C190	C	1.296681	0.514339	0.990444
C191	C	1.630014	0.847672	1.323777
C192	C	1.963348	1.181006	1.657111
C193	C	1.303842	0.458740	1.024028
C194	C	1.637175	0.792073	1.357362
C195	C	1.970508	1.125407	1.690695
C196	C	1.311011	0.403161	0.992173
C197	C	1.644345	0.736494	1.325506
C198	C	1.977678	1.069827	1.658839
C199	C	1.311008	0.403181	0.926738
C200	C	1.644341	0.736515	1.260071
C201	C	1.977674	1.069848	1.593405
C202	C	1.303833	0.458786	0.893159
C203	C	1.637166	0.792120	1.226492
C204	C	1.970500	1.125453	1.559826
C205	C	1.361577	0.425587	1.134638
C206	C	1.694911	0.758920	1.467971
C207	C	2.028244	1.092253	1.801305
C208	C	1.361570	0.425558	1.200074
C209	C	1.694903	0.758891	1.533407
C210	C	2.028237	1.092224	1.866740
C211	C	1.246104	0.491793	1.186184
C212	C	1.579437	0.825126	1.519517
C213	C	1.912770	1.158459	1.852851
C214	C	1.246106	0.491815	1.120749
C215	C	1.579440	0.825149	1.454082
C216	C	1.912773	1.158482	1.787416
C217	C	1.303848	0.458714	1.094980
C218	C	1.637181	0.792047	1.428314
C219	C	1.970515	1.125380	1.761647
H220	H	0.960304	0.490314	0.489609
H221	H	1.293637	0.823648	0.822943
H222	H	1.626971	1.156981	1.156276
H223	H	1.199198	1.207152	0.518421
H224	H	1.532532	1.540485	0.851755
H225	H	1.865865	1.873819	1.185088
Br226	Br	0.985861	0.325989	0.325835
Br227	Br	1.319194	0.659322	0.659169
Br228	Br	1.652527	0.992656	0.992502
Br229	Br	1.495341	0.904369	0.469725
Br230	Br	1.828674	1.237702	0.803058
Br231	Br	2.162008	1.571035	1.136391
H232	H	1.290599	0.559593	0.897642
H233	H	1.623932	0.892926	1.230975
H234	H	1.957266	1.226260	1.564309
Br235	Br	0.955609	0.537337	0.536469
Br236	Br	1.288942	0.870670	0.869802
Br237	Br	1.622276	1.204003	1.203136
Br238	Br	1.439693	0.695937	0.380176
Br239	Br	1.773026	1.029270	0.713509
Br240	Br	2.106360	1.362604	1.046843
H241	H	0.648059	0.573132	0.572146
H242	H	0.981393	0.906465	0.905479
H243	H	1.314726	1.239798	1.238812
Br244	Br	1.167750	0.536769	1.066925
Br245	Br	1.501084	0.870102	1.400258
Br246	Br	1.834417	1.203436	1.733592
H247	H	1.156326	1.000227	0.449469
H248	H	1.489659	1.333560	0.782802
H249	H	1.822993	1.666893	1.116135
H250	H	1.199130	1.088432	0.518390
H251	H	1.532463	1.421765	0.851723
H252	H	1.865796	1.755099	1.185056
Br253	Br	0.844573	0.618572	0.617422
Br254	Br	1.177906	0.951906	0.950755
Br255	Br	1.511239	1.285239	1.284089
H256	H	1.408428	0.828650	0.398184
H257	H	1.741761	1.161983	0.731517
H258	H	2.075094	1.495317	1.064850
H259	H	0.562576	0.409780	0.409363
H260	H	0.895909	0.743114	0.742696
H261	H	1.229243	1.076447	1.076029
H262	H	1.156260	0.881515	0.449447
H263	H	1.489593	1.214848	0.782781
H264	H	1.822926	1.548182	1.116114
Br265	Br	1.495429	1.058616	0.469757
Br266	Br	1.828762	1.391949	0.803091
Br267	Br	2.162095	1.725282	1.136424
Br268	Br	1.167748	0.536714	1.221158
Br269	Br	1.501082	0.870047	1.554492
Br270	Br	1.834415	1.203381	1.887825
H271	H	0.648042	0.347259	0.347038
H272	H	0.981376	0.680592	0.680372
H273	H	1.314709	1.013925	1.013705
Br274	Br	1.439899	1.099597	0.380263
Br275	Br	1.773232	1.432930	0.713596
Br276	Br	2.106566	1.766264	1.046929
Br277	Br	1.439923	0.380800	0.696025
Br278	Br	1.773256	0.714134	1.029359
Br279	Br	2.106589	1.047467	1.362692
H280	H	1.316844	0.357887	1.019516
H281	H	1.650177	0.691220	1.352849
H282	H	1.983510	1.024553	1.686183
H283	H	1.199087	0.518881	0.803532
H284	H	1.532421	0.852214	1.136865
H285	H	1.865754	1.185548	1.470199
H286	H	1.290849	0.559596	1.016376
H287	H	1.624182	0.892929	1.349710
H288	H	1.957515	1.226263	1.683043
Br289	Br	1.167726	0.536901	0.663282
Br290	Br	1.501060	0.870235	0.996615
Br291	Br	1.834393	1.203568	1.329948
Br292	Br	1.439898	0.380728	0.850258
Br293	Br	1.773231	0.714061	1.183591
Br294	Br	2.106565	1.047395	1.516925
H295	H	0.789348	0.324126	0.323998
H296	H	1.122682	0.657460	0.657332
H297	H	1.456015	0.990793	0.990665
Br298	Br	1.440005	1.253844	0.380321
Br299	Br	1.773338	1.587178	0.713654
Br300	Br	2.106672	1.920511	1.046988
Br301	Br	1.167653	0.817484	0.536303
Br302	Br	1.500986	1.150818	0.869637
Br303	Br	1.834320	1.484151	1.202970
H304	H	1.198916	0.684767	0.518300
H305	H	1.532249	1.018100	0.851634
H306	H	1.865583	1.351434	1.184967
Br307	Br	1.320733	0.327756	0.883506
Br308	Br	1.654066	0.661089	1.216840
Br309	Br	1.987400	0.994423	1.550173
Br310	Br	1.439936	0.380662	1.099662
Br311	Br	1.773269	0.713995	1.432995
Br312	Br	2.106602	1.047329	1.766329
Br313	Br	1.439944	0.380615	1.253898
Br314	Br	1.773277	0.713948	1.587231
Br315	Br	2.106611	1.047282	1.920565
