data_functionalizedCrystal
_audit_creation_method	'MofGen! by Chris Wilmer'
_symmetry_space_group_name_H-M	'P1'
_symmetry_Int_Tables_number	1
_symmetry_cell_setting	triclinic
loop_
_symmetry_equiv_pos_as_xyz
  x,y,z
_cell_length_a	10.654541
_cell_length_b	10.489716
_cell_length_c	8.965430
_cell_angle_alpha	89.996170
_cell_angle_beta	89.997102
_cell_angle_gamma	84.506532
loop_
_atom_site_label
_atom_site_type_symbol
_atom_site_fract_x
_atom_site_fract_y
_atom_site_fract_z
O1	O	1.667909	0.179155	-0.124016
O2	O	1.302437	0.196228	-0.124020
O3	O	1.493505	0.002088	-0.124023
O4	O	1.476841	0.373296	-0.124013
O5	O	1.493494	0.002070	0.124056
O6	O	1.302426	0.196210	0.124059
O7	O	1.667899	0.179137	0.124063
Cu8	Cu	1.485161	0.187672	0.146713
Cu9	Cu	1.485174	0.187694	-0.146669
O10	O	1.476830	0.373277	0.124066
C11	C	1.492248	-0.045453	0.000012
C12	C	1.488502	-0.187082	-0.000002
C13	C	1.255633	0.194966	0.000019
C14	C	1.116188	0.191218	0.000017
C15	C	1.714702	0.180399	0.000021
C16	C	1.854147	0.184148	0.000013
C17	C	1.605671	-0.284813	0.000013
C18	C	1.543761	-0.362135	-0.122300
C19	C	1.543724	-0.362117	0.122287
C20	C	1.426641	-0.262538	-0.122415
C21	C	1.426621	-0.262514	0.122281
C22	C	1.364625	-0.339786	-0.000062
C23	C	1.882030	-0.048000	-0.000012
C24	C	1.961480	-0.162307	-0.000032
C25	C	2.092500	-0.158777	-0.000037
C26	C	2.144070	-0.040927	-0.000018
C27	C	2.064619	0.073380	0.000002
C28	C	1.933598	0.069838	0.000003
C29	C	2.036737	0.305525	0.000037
C30	C	1.905718	0.301998	0.000032
C31	C	2.088307	0.423375	0.000057
C32	C	2.008856	0.537685	0.000066
C33	C	1.877830	0.534150	0.000070
C34	C	1.826267	0.416305	0.000052
C35	C	1.478088	0.420818	0.000028
C36	C	1.481834	0.562447	0.000032
N37	N	1.485162	0.187656	0.353062
N38	N	1.485184	0.187699	-0.353018
C39	C	1.572832	0.097165	0.549730
C40	C	1.599242	0.212301	0.450257
C41	C	1.458808	0.072530	0.450328
C42	C	1.511651	0.302894	0.549697
C43	C	1.371166	0.163047	0.549777
C44	C	1.397529	0.278266	0.450348
H45	H	1.707588	-0.260187	-0.000110
C46	C	1.359861	-0.203690	0.261977
H47	H	1.401633	-0.237941	0.348808
H48	H	1.274698	-0.223448	0.262859
H49	H	1.362099	-0.113380	0.260466
C50	C	1.610558	-0.420874	0.261985
H51	H	1.696130	-0.402412	0.261822
H52	H	1.607002	-0.511014	0.261477
H53	H	1.569787	-0.385417	0.348843
C54	C	1.297382	0.381769	0.391749
H55	H	1.237264	0.342626	0.333441
H56	H	1.336958	0.441149	0.332061
H57	H	1.256126	0.425376	0.473602
H58	H	1.593228	-0.405646	-0.225707
H59	H	1.534055	0.400297	0.593164
H60	H	2.194991	0.426241	0.000062
H61	H	1.377211	-0.219202	-0.225936
C62	C	1.240966	0.134842	0.608891
H63	H	1.222359	0.052950	0.574930
H64	H	1.178516	0.198301	0.573385
H65	H	1.241712	0.135840	0.714842
H66	H	1.436508	-0.024850	0.406676
H67	H	1.647014	0.020709	0.593365
H68	H	1.775348	-0.050886	-0.000024
C69	C	1.226848	-0.372736	-0.000149
H70	H	1.185426	-0.338316	-0.087116
H71	H	1.184944	-0.337114	0.085914
H72	H	1.225179	-0.463121	0.000670
H73	H	1.919477	-0.258258	-0.000026
H74	H	2.157189	-0.251856	-0.000049
H75	H	2.050856	0.633629	0.000092
H76	H	2.250754	-0.038063	-0.000004
H77	H	1.719586	0.413416	0.000049
C78	C	1.790438	0.659887	0.000094
H79	H	1.705020	0.640912	0.000102
H80	H	1.806187	0.708178	-0.086405
H81	H	1.806183	0.708138	0.086627
C82	C	1.729479	0.240456	0.391188
H83	H	1.791671	0.176069	0.425207
H84	H	1.748814	0.321633	0.426672
H85	H	1.728304	0.241005	0.285236
