data_functionalizedCrystal
_audit_creation_method	'MofGen! by Chris Wilmer'
_symmetry_space_group_name_H-M	'P1'
_symmetry_Int_Tables_number	1
_symmetry_cell_setting	triclinic
loop_
_symmetry_equiv_pos_as_xyz
  x,y,z
_cell_length_a	16.959455
_cell_length_b	16.959454
_cell_length_c	17.077396
_cell_angle_alpha	90.024735
_cell_angle_beta	90.018472
_cell_angle_gamma	90.017022
loop_
_atom_site_label
_atom_site_type_symbol
_atom_site_fract_x
_atom_site_fract_y
_atom_site_fract_z
Zn1	Zn	1.208416	-0.314746	0.443842
Zn2	Zn	1.708416	0.185254	0.943842
Zn3	Zn	1.208329	-0.446934	0.312584
Zn4	Zn	1.708329	0.053066	0.812584
Zn5	Zn	1.076235	-0.314766	0.312592
Zn6	Zn	1.576235	0.185234	0.812592
Zn7	Zn	1.076209	-0.446879	0.443810
Zn8	Zn	1.576209	0.053121	0.943810
O9	O	1.142297	-0.380831	0.378207
O10	O	1.642297	0.119169	0.878207
O11	O	1.319015	-0.332295	0.426440
O12	O	1.819015	0.167705	0.926440
O13	O	1.190781	-0.429433	0.202738
O14	O	1.690781	0.070567	0.702738
O15	O	1.093816	-0.204153	0.330019
O16	O	1.593816	0.295847	0.830019
O17	O	1.318951	-0.429413	0.330006
O18	O	1.818951	0.070587	0.830006
O19	O	1.190929	-0.204138	0.426447
O20	O	1.690929	0.295862	0.926447
O21	O	1.093732	-0.332330	0.202744
O22	O	1.593732	0.167670	0.702744
O23	O	0.965621	-0.332277	0.329988
O24	O	1.465621	0.167723	0.829988
O25	O	1.093772	-0.429320	0.553661
O26	O	1.593772	0.070680	1.053661
O27	O	0.965602	-0.429340	0.426394
O28	O	1.465602	0.070660	0.926394
O29	O	1.190904	-0.332242	0.553684
O30	O	1.690904	0.167758	1.053684
O31	O	1.190756	-0.557537	0.329975
O32	O	1.690756	-0.057537	0.829975
O33	O	1.093688	-0.557497	0.426386
O34	O	1.593688	-0.057497	0.926386
C35	C	0.936931	-0.380805	0.378189
C36	C	1.436931	0.119195	0.878189
C37	C	0.849075	-0.380813	0.378200
C38	C	1.349075	0.119187	0.878200
C39	C	1.142231	-0.586198	0.378194
C40	C	1.642231	-0.086198	0.878194
C41	C	1.142275	-0.674054	0.378214
C42	C	1.642275	-0.174054	0.878214
C43	C	0.477584	-0.330249	0.328113
C44	C	0.977584	0.169751	0.828113
C45	C	0.477613	-0.431478	0.428345
C46	C	0.977613	0.068522	0.928345
C47	C	0.560159	-0.431467	0.428341
C48	C	1.060159	0.068533	0.928341
C49	C	0.601422	-0.380847	0.378221
C50	C	1.101422	0.119153	0.878221
C51	C	0.560138	-0.330238	0.328105
C52	C	1.060138	0.169762	0.828105
C53	C	0.601449	-0.482081	0.478449
C54	C	1.101449	0.017919	0.978449
C55	C	0.684000	-0.482072	0.478446
C56	C	1.184000	0.017928	0.978446
C57	C	0.725264	-0.431447	0.428329
C58	C	1.225264	0.068553	0.928329
C59	C	0.683975	-0.380836	0.378213
C60	C	1.183975	0.119164	0.878213
C61	C	0.725237	-0.330215	0.328093
C62	C	1.225237	0.169785	0.828093
C63	C	0.683950	-0.279599	0.277979
C64	C	1.183950	0.220401	0.777979
C65	C	0.601402	-0.279613	0.277989
C66	C	1.101402	0.220387	0.777989
C67	C	0.807812	-0.431433	0.428320
C68	C	1.307812	0.068567	0.928320
C69	C	0.807791	-0.330204	0.328085
C70	C	1.307791	0.169796	0.828085
C71	C	1.091827	-1.045539	0.428403
C72	C	1.591827	-0.545539	0.928403
C73	C	1.192987	-1.045521	0.328091
C74	C	1.692987	-0.545521	0.828091
C75	C	1.192960	-0.962975	0.328084
C76	C	1.692960	-0.462975	0.828084
C77	C	1.142364	-0.921707	0.378236
C78	C	1.642364	-0.421707	0.878236
C79	C	1.091797	-0.962985	0.428395
C80	C	1.591797	-0.462985	0.928395
C81	C	1.243521	-0.921690	0.277920
C82	C	1.743521	-0.421690	0.777920
C83	C	1.243495	-0.839139	0.277910
C84	C	1.743495	-0.339139	0.777910
C85	C	1.192903	-0.797870	0.328067
C86	C	1.692903	-0.297870	0.828067
C87	C	1.142334	-0.839154	0.378229
C88	C	1.642334	-0.339154	0.878229
C89	C	1.091738	-0.797886	0.428381
C90	C	1.591738	-0.297886	0.928381
C91	C	1.041172	-0.839168	0.478548
C92	C	1.541172	-0.339168	0.978548
C93	C	1.041205	-0.921716	0.478552
C94	C	1.541205	-0.421716	0.978552
C95	C	1.192871	-0.715322	0.328062
C96	C	1.692871	-0.215322	0.828062
C97	C	1.091707	-0.715332	0.428374
C98	C	1.591707	-0.215332	0.928374
C99	C	1.348466	-0.380858	0.378225
C100	C	1.848466	0.119142	0.878225
C101	C	1.436322	-0.380869	0.378233
C102	C	1.936322	0.119131	0.878233
C103	C	1.142345	-0.380773	0.582951
C104	C	1.642345	0.119227	1.082951
C105	C	1.142366	-0.380748	0.670201
C106	C	1.642366	0.119252	1.170201
C107	C	1.142385	-0.174663	0.378238
C108	C	1.642385	0.325337	0.878238
C109	C	1.142423	-0.086806	0.378251
C110	C	1.642423	0.413194	0.878251
C111	C	1.142295	-0.380832	0.174259
C112	C	1.642295	0.119168	0.674259
C113	C	1.142428	-0.380634	0.087010
C114	C	1.642428	0.119366	0.587010
C115	C	1.192944	-0.330196	0.711205
C116	C	1.692944	0.169804	1.211205
C117	C	1.192953	-0.330169	0.793185
C118	C	1.692953	0.169831	1.293185
C119	C	1.142388	-0.380700	0.834161
C120	C	1.642388	0.119300	1.334161
C121	C	1.091804	-0.431255	0.793151
C122	C	1.591804	0.068745	1.293151
C123	C	1.091791	-0.431277	0.711172
C124	C	1.591791	0.068723	1.211172
C125	C	1.091836	-0.431207	0.964022
C126	C	1.591836	0.068793	1.464022
C127	C	1.091850	-0.431187	1.046006
C128	C	1.591850	0.068813	1.546006
C129	C	1.192998	-0.330100	1.046034
C130	C	1.692998	0.169900	1.546034
C131	C	1.192985	-0.330122	0.964055
C132	C	1.692985	0.169878	1.464055
C133	C	1.142402	-0.380678	0.923052
C134	C	1.642402	0.119322	1.423052
H135	H	0.717556	-0.238388	0.237168
H136	H	1.217556	0.261612	0.737168
H137	H	1.234175	-1.079126	0.287255
H138	H	1.734175	-0.579126	0.787255
C139	C	1.299181	-0.967084	0.222768
C140	C	1.799181	-0.467084	0.722768
H141	H	1.291966	-1.022159	0.229969
H142	H	1.791966	-0.522159	0.729969
H143	H	1.287649	-0.953602	0.170010
H144	H	1.787649	-0.453602	0.670010
H145	H	1.352277	-0.953507	0.234316
H146	H	1.852277	-0.453507	0.734316
H147	H	1.000036	-0.955335	0.519394
H148	H	1.500036	-0.455335	1.019394
C149	C	1.036052	-0.669944	0.483543
C150	C	1.536052	-0.169944	0.983543
H151	H	1.005942	-0.706354	0.513415
H152	H	1.505942	-0.206354	1.013415
H153	H	1.066256	-0.637700	0.517767
H154	H	1.566256	-0.137700	1.017767
H155	H	1.001612	-0.637784	0.453478
H156	H	1.501612	-0.137784	0.953478
H157	H	0.841425	-0.472647	0.469119
H158	H	1.341425	0.027353	0.969119
H159	H	1.050660	-1.079154	0.469249
H160	H	1.550660	-0.579154	0.969249
C161	C	1.299121	-0.793736	0.222737
C162	C	1.799121	-0.293736	0.722737
H163	H	1.329261	-0.830138	0.192874
H164	H	1.829261	-0.330138	0.692874
H165	H	1.268899	-0.761567	0.188505
H166	H	1.768899	-0.261567	0.688505
H167	H	1.333535	-0.761501	0.252802
H168	H	1.833535	-0.261501	0.752802
H169	H	1.234141	-0.289006	0.826567
H170	H	1.734141	0.210994	1.326567
C171	C	1.248485	-0.669915	0.272886
C172	C	1.748485	-0.169915	0.772886
H173	H	1.278624	-0.706316	0.243020
H174	H	1.778624	-0.206316	0.743020
H175	H	1.218257	-0.637748	0.238658
H176	H	1.718257	-0.137748	0.738658
H177	H	1.282902	-0.637678	0.302947
H178	H	1.782902	-0.137678	0.802947
H179	H	1.234165	-0.288979	0.930695
H180	H	1.734165	0.211021	1.430695
C181	C	1.248563	-0.274607	0.666139
C182	C	1.748563	0.225393	1.166139
H183	H	1.278680	-0.244490	0.702303
H184	H	1.778680	0.255510	1.202303
H185	H	1.282987	-0.304851	0.634156
H186	H	1.782987	0.195149	1.134156
H187	H	1.218327	-0.240169	0.634163
H188	H	1.718327	0.259831	1.134163
H189	H	0.444013	-0.472696	0.469146
H190	H	0.944013	0.027304	0.969146
C191	C	1.248638	-0.274486	1.091131
C192	C	1.748638	0.225514	1.591131
H193	H	1.278758	-0.244402	1.054986
H194	H	1.778758	0.255598	1.554986
H195	H	1.218425	-0.240030	1.123111
H196	H	1.718425	0.259970	1.623111
H197	H	1.283071	-0.304725	1.123111
H198	H	1.783071	0.195275	1.623111
C199	C	1.036225	-0.486765	1.091078
C200	C	1.536225	0.013235	1.591078
H201	H	1.006089	-0.516869	1.054918
H202	H	1.506089	-0.016869	1.554918
H203	H	1.066449	-0.521202	1.123057
H204	H	1.566449	-0.021202	1.623057
H205	H	1.001806	-0.456505	1.123058
H206	H	1.501806	0.043495	1.623058
C207	C	1.036222	-0.486844	0.918919
C208	C	1.536222	0.013156	1.418919
H209	H	1.006121	-0.516949	0.955062
H210	H	1.506121	-0.016949	1.455062
H211	H	1.001781	-0.456638	0.886924
H212	H	1.501781	0.043362	1.386924
H213	H	1.066469	-0.521290	0.886954
H214	H	1.566469	-0.021290	1.386954
C215	C	1.036175	-0.486904	0.666069
C216	C	1.536175	0.013096	1.166069
H217	H	1.006071	-0.517006	0.702212
H218	H	1.506071	-0.017006	1.202212
H219	H	1.001737	-0.456688	0.634079
H220	H	1.501737	0.043312	1.134079
H221	H	1.066412	-0.521354	0.634098
H222	H	1.566412	-0.021354	1.134098
C223	C	0.729409	-0.537739	0.533574
C224	C	1.229409	-0.037739	1.033574
H225	H	0.693011	-0.567883	0.563428
H226	H	1.193011	-0.067883	1.063428
H227	H	0.761599	-0.572136	0.503491
H228	H	1.261599	-0.072136	1.003491
H229	H	0.761625	-0.507532	0.567828
H230	H	1.261625	-0.007532	1.067828
C231	C	0.985521	-0.793772	0.533715
C232	C	1.485521	-0.293772	1.033715
H233	H	0.955408	-0.830176	0.563592
H234	H	1.455408	-0.330176	1.063592
H235	H	1.015729	-0.761527	0.567934
H236	H	1.515729	-0.261527	1.067934
H237	H	0.951083	-0.761612	0.503647
H238	H	1.451083	-0.261612	1.003647
H239	H	0.841381	-0.288978	0.287275
H240	H	1.341381	0.211022	0.787275
H241	H	1.050630	-0.472395	0.826520
H242	H	1.550630	0.027605	1.326520
H243	H	0.443965	-0.289037	0.287315
H244	H	0.943965	0.210963	0.787315
C245	C	0.555985	-0.223953	0.222860
C246	C	1.055985	0.276047	0.722860
H247	H	0.500913	-0.231219	0.230036
H248	H	1.000913	0.268781	0.730036
H249	H	0.569519	-0.170854	0.234428
H250	H	1.069519	0.329146	0.734428
H251	H	0.569494	-0.235463	0.170097
H252	H	1.069494	0.264537	0.670097
H253	H	0.567847	-0.523299	0.519248
H254	H	1.067847	-0.023299	1.019248
