data_functionalizedCrystal
_audit_creation_method	'MofGen! by Chris Wilmer'
_symmetry_space_group_name_H-M	'P1'
_symmetry_Int_Tables_number	1
_symmetry_cell_setting	triclinic
loop_
_symmetry_equiv_pos_as_xyz
  x,y,z
_cell_length_a	19.288840
_cell_length_b	19.288865
_cell_length_c	18.366186
_cell_angle_alpha	89.988521
_cell_angle_beta	89.983729
_cell_angle_gamma	83.131131
loop_
_atom_site_label
_atom_site_type_symbol
_atom_site_fract_x
_atom_site_fract_y
_atom_site_fract_z
O1	O	0.921364	0.086566	-0.060680
O2	O	1.254697	0.419899	0.272654
O3	O	1.588030	0.753232	0.605987
O4	O	0.719101	0.098273	-0.060655
O5	O	1.052434	0.431606	0.272678
O6	O	1.385767	0.764939	0.606011
O7	O	0.826077	-0.008712	-0.060654
O8	O	1.159410	0.324622	0.272680
O9	O	1.492743	0.657955	0.606013
O10	O	0.814388	0.193550	-0.060681
O11	O	1.147721	0.526883	0.272652
O12	O	1.481055	0.860217	0.605985
O13	O	0.826059	-0.008717	0.060446
O14	O	1.159392	0.324617	0.393779
O15	O	1.492725	0.657950	0.727112
O16	O	0.719083	0.098268	0.060444
O17	O	1.052416	0.431601	0.393777
O18	O	1.385749	0.764934	0.727111
O19	O	0.921346	0.086561	0.060420
O20	O	1.254679	0.419894	0.393753
O21	O	1.588012	0.753227	0.727086
Zn22	Zn	0.820211	0.092413	0.079659
Zn23	Zn	1.153545	0.425747	0.412992
Zn24	Zn	1.486878	0.759080	0.746326
Zn25	Zn	0.820235	0.092420	-0.079895
Zn26	Zn	1.153568	0.425753	0.253439
Zn27	Zn	1.486902	0.759087	0.586772
O28	O	0.814370	0.193545	0.060418
O29	O	1.147703	0.526878	0.393751
O30	O	1.481036	0.860212	0.727085
C31	C	0.693215	0.097896	-0.000102
C32	C	1.026548	0.431230	0.333231
C33	C	1.359882	0.764563	0.666564
C34	C	0.616110	0.096774	-0.000093
C35	C	0.949444	0.430108	0.333241
C36	C	1.282777	0.763441	0.666574
C37	C	0.579917	0.096238	-0.066106
C38	C	0.913250	0.429571	0.267228
C39	C	1.246583	0.762905	0.600561
C40	C	0.507470	0.095176	-0.066114
C41	C	0.840803	0.428509	0.267219
C42	C	1.174137	0.761843	0.600552
C43	C	0.471221	0.094636	-0.000106
C44	C	0.804555	0.427970	0.333227
C45	C	1.137888	0.761303	0.666560
C46	C	0.507423	0.095176	0.065915
C47	C	0.840756	0.428510	0.399249
C48	C	1.174090	0.761843	0.732582
C49	C	0.579868	0.096245	0.065922
C50	C	0.913201	0.429579	0.399256
C51	C	1.246534	0.762912	0.732589
C52	C	0.361886	0.052256	0.050461
C53	C	0.695219	0.385590	0.383794
C54	C	1.028553	0.718923	0.717127
C55	C	0.289443	0.051183	0.050451
C56	C	0.622777	0.384516	0.383784
C57	C	0.956110	0.717850	0.717118
C58	C	0.247778	0.091342	-0.000125
C59	C	0.581111	0.424675	0.333208
C60	C	0.914444	0.758009	0.666542
C61	C	0.278565	0.132566	-0.050703
C62	C	0.611898	0.465899	0.282630
C63	C	0.945231	0.799232	0.615963
C64	C	0.351009	0.133635	-0.050697
C65	C	0.684343	0.466968	0.282637
C66	C	1.017676	0.800301	0.615970
C67	C	0.392667	0.093477	-0.000107
C68	C	0.726001	0.426811	0.333227
C69	C	1.059334	0.760144	0.666560
C70	C	0.133029	0.089655	-0.066152
C71	C	0.466362	0.422989	0.267181
C72	C	0.799695	0.756322	0.600515
C73	C	0.060580	0.088598	-0.066158
C74	C	0.393913	0.421931	0.267175
C75	C	0.727246	0.755264	0.600509
C76	C	0.060535	0.088591	0.065874
C77	C	0.393869	0.421924	0.399207
C78	C	0.727202	0.755258	0.732540
C79	C	0.132982	0.089656	0.065878
C80	C	0.466315	0.422989	0.399211
C81	C	0.799649	0.756322	0.732544
C82	C	0.169225	0.090185	-0.000137
C83	C	0.502558	0.423518	0.333196
C84	C	0.835891	0.756851	0.666530
C85	C	0.825692	-0.034591	-0.000102
C86	C	1.159025	0.298743	0.333231
C87	C	1.492358	0.632076	0.666565
C88	C	0.824563	-0.111694	-0.000095
C89	C	1.157896	0.221639	0.333238
C90	C	1.491229	0.554973	0.666571
C91	C	0.887331	-0.156396	-0.000099
C92	C	1.220665	0.176937	0.333234
C93	C	1.553998	0.510271	0.666567
C94	C	0.886270	-0.228843	-0.000111
C95	C	1.219604	0.104490	0.333223
C96	C	1.552937	0.437824	0.666556
C97	C	0.822438	-0.256585	-0.000103
C98	C	1.155771	0.076749	0.333230
C99	C	1.489104	0.410082	0.666563
C100	C	0.759661	-0.211873	-0.000104
C101	C	1.092994	0.121460	0.333230
C102	C	1.426327	0.454794	0.666563
C103	C	0.760723	-0.139428	-0.000100
C104	C	1.094056	0.193906	0.333234
C105	C	1.427390	0.527239	0.666567
C106	C	0.772251	-0.364870	0.042321
C107	C	1.105584	-0.031536	0.375654
C108	C	1.438918	0.301797	0.708988
C109	C	0.771191	-0.437314	0.042321
C110	C	1.104525	-0.103981	0.375655
C111	C	1.437858	0.229353	0.708988
C112	C	0.819158	-0.480030	-0.000119
C113	C	1.152491	-0.146697	0.333214
C114	C	1.485825	0.186637	0.666547
C115	C	0.868196	-0.450295	-0.042551
C116	C	1.201530	-0.116961	0.290782
C117	C	1.534863	0.216372	0.624115
C118	C	0.869259	-0.377849	-0.042547
C119	C	1.202592	-0.044516	0.290786
C120	C	1.535925	0.288817	0.624120
C121	C	0.821278	-0.335139	-0.000108
C122	C	1.154612	-0.001805	0.333225
C123	C	1.487945	0.331528	0.666558
C124	C	0.880781	-0.603288	-0.000137
C125	C	1.214114	-0.269955	0.333197
C126	C	1.547447	0.063379	0.666530
C127	C	0.879717	-0.675736	-0.000153
C128	C	1.213051	-0.342403	0.333181
C129	C	1.546384	-0.009069	0.666514
C130	C	0.753106	-0.658764	-0.000138
C131	C	1.086439	-0.325431	0.333195
C132	C	1.419772	0.007902	0.666528
C133	C	0.754171	-0.586318	-0.000130
C134	C	1.087504	-0.252985	0.333204
C135	C	1.420838	0.080349	0.666537
C136	C	0.818010	-0.558584	-0.000125
C137	C	1.151344	-0.225251	0.333208
C138	C	1.484677	0.108082	0.666541
C139	C	0.947232	0.086937	-0.000135
C140	C	1.280565	0.420270	0.333199
C141	C	1.613898	0.753604	0.666532
C142	C	1.024336	0.088059	-0.000149
C143	C	1.357669	0.421392	0.333184
C144	C	1.691003	0.754726	0.666517
C145	C	0.814755	0.219424	-0.000135
C146	C	1.148088	0.552757	0.333198
C147	C	1.481422	0.886091	0.666531
C148	C	0.815884	0.296527	-0.000147
C149	C	1.149217	0.629861	0.333187
C150	C	1.482551	0.963194	0.666520
N151	N	0.820200	0.092408	0.188550
N152	N	1.153533	0.425741	0.521883
N153	N	1.486867	0.759075	0.855217
N154	N	0.820252	0.092420	-0.188786
N155	N	1.153585	0.425753	0.144548
N156	N	1.486919	0.759086	0.477881
C157	C	0.867584	0.045059	0.226651
C158	C	1.200918	0.378392	0.559985
C159	C	1.534251	0.711725	0.893318
C160	C	0.867589	0.045055	0.302879
C161	C	1.200922	0.378389	0.636212
C162	C	1.534256	0.711722	0.969546
C163	C	0.820215	0.092414	0.341003
C164	C	1.153549	0.425747	0.674336
C165	C	1.486882	0.759080	1.007670
C166	C	0.772822	0.139767	0.302893
C167	C	1.106156	0.473100	0.636226
C168	C	1.439489	0.806434	0.969559
C169	C	0.772814	0.139764	0.226666
C170	C	1.106148	0.473097	0.560000
C171	C	1.439481	0.806431	0.893333
C172	C	0.810917	0.155702	0.461755
C173	C	1.144251	0.489036	0.795089
C174	C	1.477584	0.822369	1.128422
C175	C	0.810930	0.155706	0.537980
C176	C	1.144263	0.489040	0.871314
C177	C	1.477596	0.822373	1.204647
C178	C	0.820235	0.092422	0.576110
C179	C	1.153569	0.425756	0.909444
C180	C	1.486902	0.759089	1.242777
C181	C	0.829543	0.029132	0.538006
C182	C	1.162876	0.362466	0.871340
C183	C	1.496210	0.695799	1.204673
C184	C	0.829535	0.029129	0.461780
C185	C	1.162869	0.362463	0.795113
C186	C	1.496202	0.695796	1.128447
C187	C	0.820218	0.092422	0.423658
C188	C	1.153552	0.425755	0.756991
C189	C	1.486885	0.759089	1.090324
C190	C	0.867627	0.045066	0.696866
C191	C	1.200960	0.378399	1.030200
C192	C	1.534294	0.711732	1.363533
C193	C	0.867627	0.045062	0.773096
C194	C	1.200960	0.378395	1.106429
C195	C	1.534293	0.711728	1.439762
C196	C	0.772863	0.139779	0.773108
C197	C	1.106197	0.473112	1.106441
C198	C	1.439530	0.806446	1.439774
C199	C	0.772860	0.139777	0.696880
C200	C	1.106194	0.473110	1.030213
C201	C	1.439527	0.806444	1.363547
C202	C	0.820246	0.092421	0.658764
C203	C	1.153579	0.425755	0.992097
C204	C	1.486913	0.759088	1.325431
H205	H	0.162538	0.090093	-0.119905
H206	H	0.495871	0.423427	0.213428
H207	H	0.829205	0.756760	0.546761
O208	O	0.406827	0.008940	0.105012
O209	O	0.740160	0.342273	0.438345
O210	O	1.073494	0.675607	0.771679
H211	H	0.400411	-0.047036	0.097534
H212	H	0.733744	0.286298	0.430868
H213	H	1.067078	0.619631	0.764201
H214	H	0.937386	-0.265246	-0.000117
H215	H	1.270719	0.068087	0.333217
H216	H	1.604053	0.401420	0.666550
H217	H	0.264383	0.017613	0.091632
H218	H	0.597716	0.350946	0.424965
H219	H	0.931050	0.684279	0.758298
H220	H	0.734249	0.178326	0.333937
H221	H	1.067582	0.511659	0.667270
H222	H	1.400916	0.844992	1.000603
O223	O	0.721769	0.190873	0.814204
O224	O	1.055102	0.524207	1.147538
O225	O	1.388436	0.857540	1.480871
H226	H	0.688102	0.161738	0.848962
H227	H	1.021435	0.495072	1.182295
H228	H	1.354768	0.828405	1.515628
H229	H	0.837120	-0.022400	0.569050
H230	H	1.170453	0.310934	0.902383
H231	H	1.503787	0.644267	1.235717
O232	O	0.918736	-0.006015	0.814191
O233	O	1.252070	0.327318	1.147524
O234	O	1.585403	0.660651	1.480857
H235	H	0.910776	0.001935	0.873600
H236	H	1.244109	0.335268	1.206933
H237	H	1.577443	0.668601	1.540267
O238	O	0.619008	0.096814	-0.137304
O239	O	0.952342	0.430147	0.196030
O240	O	1.285675	0.763480	0.529363
H241	H	0.598770	0.143944	-0.168964
H242	H	0.932103	0.477277	0.164370
H243	H	1.265436	0.810611	0.497703
O244	O	0.800900	0.223969	0.579069
O245	O	1.134233	0.557303	0.912402
O246	O	1.467567	0.890636	1.245736
H247	H	0.753641	0.225692	0.613826
H248	H	1.086975	0.559025	0.947159
H249	H	1.420308	0.892358	1.280492
O250	O	0.233637	0.175890	-0.105256
O251	O	0.566971	0.509224	0.228077
O252	O	0.900304	0.842557	0.561411
H253	H	0.178089	0.168232	-0.096759
H254	H	0.511422	0.501565	0.236574
H255	H	0.844755	0.834898	0.569907
H256	H	0.734278	0.178336	0.665856
H257	H	1.067612	0.511670	0.999189
H258	H	1.400945	0.845003	1.332523
H259	H	0.803327	0.207239	0.430716
H260	H	1.136661	0.540572	0.764049
H261	H	1.469994	0.873906	1.097383
O262	O	0.021540	0.087995	-0.137361
O263	O	0.354873	0.421328	0.195972
O264	O	0.688206	0.754661	0.529306
H265	H	0.058918	0.088526	-0.183260
H266	H	0.392251	0.421860	0.150073
H267	H	0.725584	0.755193	0.483406
H268	H	0.707687	-0.234465	-0.000099
H269	H	1.041021	0.098868	0.333234
H270	H	1.374354	0.432202	0.666567
O271	O	0.684257	-0.688679	-0.000126
O272	O	1.017590	-0.355346	0.333207
O273	O	1.350924	-0.022012	0.666541
H274	H	0.654114	-0.670699	-0.049482
H275	H	0.987447	-0.337366	0.283852
H276	H	1.320780	-0.004033	0.617185
O277	O	0.468288	0.094930	0.137111
O278	O	0.801622	0.428263	0.470445
O279	O	1.134955	0.761597	0.803778
H280	H	0.411816	0.094213	0.126017
H281	H	0.745150	0.427546	0.459350
H282	H	1.078483	0.760879	0.792683
H283	H	0.734228	0.178322	0.195644
H284	H	1.067561	0.511656	0.528977
H285	H	1.400894	0.844989	0.862310
H286	H	0.733189	-0.330095	0.076885
H287	H	1.066522	0.003238	0.410219
H288	H	1.399856	0.336572	0.743552
H289	H	0.906167	0.006497	0.195619
H290	H	1.239500	0.339830	0.528953
H291	H	1.572834	0.673164	0.862286
O292	O	0.021433	0.088140	0.137072
O293	O	0.354767	0.421473	0.470405
O294	O	0.688100	0.754806	0.803738
H295	H	-0.035029	0.087351	0.125978
H296	H	0.298304	0.420684	0.459311
H297	H	0.631637	0.754017	0.792645
O298	O	0.947422	-0.723955	-0.000160
O299	O	1.280755	-0.390622	0.333173
O300	O	1.614088	-0.057289	0.666506
H301	H	0.949949	-0.757384	0.049191
H302	H	1.283283	-0.424051	0.382524
H303	H	1.616616	-0.090718	0.715858
H304	H	0.837112	-0.022404	0.430759
H305	H	1.170445	0.310930	0.764092
H306	H	1.503779	0.644263	1.097425
H307	H	0.906209	0.006503	0.665831
H308	H	1.239543	0.339837	0.999164
H309	H	1.572876	0.673170	1.332498
O310	O	0.718307	-0.469385	0.088089
O311	O	1.051640	-0.136052	0.421422
O312	O	1.384974	0.197282	0.754755
H313	H	0.664837	-0.448290	0.070622
H314	H	0.998170	-0.114956	0.403956
H315	H	1.331503	0.218377	0.737289
H316	H	0.477995	0.094741	-0.119872
H317	H	0.811328	0.428074	0.213461
H318	H	1.144662	0.761407	0.546795
O319	O	0.919943	-0.496348	-0.088333
O320	O	1.253276	-0.163015	0.245000
O321	O	1.586610	0.170319	0.578334
H322	H	0.891368	-0.525572	-0.128185
H323	H	1.224701	-0.192238	0.205149
H324	H	1.558034	0.141095	0.538482
O325	O	0.384218	0.178102	-0.105235
O326	O	0.717551	0.511435	0.228098
O327	O	1.050885	0.844769	0.561432
H328	H	0.343079	0.205855	-0.140404
H329	H	0.676413	0.539188	0.192930
H330	H	1.009746	0.872521	0.526263
H331	H	0.162452	0.090088	0.119633
H332	H	0.495785	0.423421	0.452966
H333	H	0.829118	0.756754	0.786300
O334	O	0.918703	-0.006015	0.343983
O335	O	1.252037	0.327318	0.677316
O336	O	1.585370	0.660652	1.010649
H337	H	0.910745	0.001942	0.403391
H338	H	1.244078	0.335275	0.736724
H339	H	1.577411	0.668609	1.070058
H340	H	0.609336	0.096683	0.119680
H341	H	0.942669	0.430016	0.453013
H342	H	1.276003	0.763349	0.786346
H343	H	0.939314	-0.133820	-0.000098
H344	H	1.272647	0.199513	0.333235
H345	H	1.605981	0.532846	0.666568
H346	H	0.703058	-0.549920	-0.000122
H347	H	1.036391	-0.216587	0.333211
H348	H	1.369724	0.116746	0.666544
O349	O	0.922135	-0.345772	-0.088320
O350	O	1.255468	-0.012439	0.245013
O351	O	1.588801	0.320895	0.578347
H352	H	0.955309	-0.387640	-0.117841
H353	H	1.288642	-0.054307	0.215493
H354	H	1.621975	0.279027	0.548826
H355	H	0.932763	-0.580706	-0.000137
H356	H	1.266096	-0.247373	0.333197
H357	H	1.599429	0.085961	0.666530
H358	H	0.709608	-0.103030	-0.000096
H359	H	1.042941	0.230303	0.333237
H360	H	1.376274	0.563636	0.666571
