data_functionalizedCrystal
_audit_creation_method	'MofGen! by Chris Wilmer'
_symmetry_space_group_name_H-M	'P1'
_symmetry_Int_Tables_number	1
_symmetry_cell_setting	triclinic
loop_
_symmetry_equiv_pos_as_xyz
  x,y,z
_cell_length_a	6.394989
_cell_length_b	11.026607
_cell_length_c	10.065875
_cell_angle_alpha	79.302338
_cell_angle_beta	80.951547
_cell_angle_gamma	82.458136
loop_
_atom_site_label
_atom_site_type_symbol
_atom_site_fract_x
_atom_site_fract_y
_atom_site_fract_z
O1	O	-0.855566	1.641000	-0.113474
O2	O	-0.755391	1.286163	-0.113478
O3	O	-0.503308	1.468618	-0.113477
O4	O	-1.107649	1.458545	-0.113475
O5	O	-0.551624	1.433830	0.113511
O6	O	-0.803707	1.251375	0.113510
O7	O	-0.903882	1.606212	0.113514
Zn8	Zn	-0.861465	1.423270	0.149552
Zn9	Zn	-0.797807	1.469105	-0.149516
O10	O	-1.155965	1.423757	0.113513
C11	C	-0.761068	1.223275	0.000015
C12	C	-0.705977	1.087719	0.000013
C13	C	-0.858092	1.016240	0.000013
C14	C	-0.801156	0.876135	0.000011
C15	C	-0.448894	1.449233	0.000012
C16	C	-0.210370	1.443147	0.000011
C17	C	-0.898204	1.669100	0.000018
C18	C	-0.953293	1.804658	0.000011
N19	N	-0.904912	1.391998	0.353657
N20	N	-0.754347	1.500386	-0.353621
C21	C	-0.812908	1.458216	0.421436
C22	C	-0.846365	1.434158	0.578603
H23	H	-0.533588	1.045197	-0.000022
H24	H	-0.709360	1.532715	0.363112
C25	C	-0.616116	1.599750	0.568876
C26	C	-0.537682	1.656156	0.661869
C27	C	-0.410316	1.747681	0.590524
H28	H	-0.698615	1.660445	0.513115
H29	H	-0.500389	1.562868	0.513173
H30	H	-0.653391	1.693039	0.717549
H31	H	-0.455149	1.595494	0.717633
H32	H	-0.294589	1.710799	0.534821
H33	H	-0.492830	1.808368	0.534765
H34	H	-0.357067	1.785956	0.653609
C35	C	-0.984099	1.334617	0.656285
C36	C	-0.898003	1.219349	0.621676
C37	C	-1.024804	1.127623	0.693224
H38	H	-1.124387	1.353623	0.632995
H39	H	-0.988196	1.331566	0.751597
H40	H	-0.893930	1.222402	0.526385
H41	H	-0.757731	1.200304	0.644969
H42	H	-1.028901	1.124572	0.788536
H43	H	-1.165086	1.146641	0.669928
H44	H	-0.966396	1.049402	0.669761
H45	H	-1.008441	1.317490	0.411983
C46	C	-0.571394	0.819227	-0.000062
C47	C	-0.560589	0.691585	-0.000097
C48	C	-0.348970	0.639123	-0.000184
H49	H	-0.520045	0.832554	0.079071
H50	H	-0.486521	0.856886	-0.079252
H51	H	-0.645431	0.653938	0.079084
H52	H	-0.611894	0.678223	-0.079224
H53	H	-0.264097	0.676782	-0.079374
H54	H	-0.297639	0.652459	0.078950
H55	H	-0.341608	0.552515	-0.000221
H56	H	-1.125689	0.847177	0.000020
C57	C	-1.087814	1.073174	-0.000048
C58	C	-1.098606	1.200825	-0.000076
C59	C	-1.310191	1.253312	-0.000148
H60	H	-1.172841	1.035588	0.079087
H61	H	-1.138985	1.059790	-0.079235
H62	H	-1.047462	1.214200	0.079103
H63	H	-1.013625	1.238445	-0.079205
H64	H	-1.361362	1.239929	-0.079335
H65	H	-1.395200	1.215717	0.078988
H66	H	-1.317539	1.339930	-0.000180
