data_functionalizedCrystal
_audit_creation_method	'MofGen! by Chris Wilmer'
_symmetry_space_group_name_H-M	'P1'
_symmetry_Int_Tables_number	1
_symmetry_cell_setting	triclinic
loop_
_symmetry_equiv_pos_as_xyz
  x,y,z
_cell_length_a	12.594509
_cell_length_b	19.805407
_cell_length_c	19.805405
_cell_angle_alpha	89.974974
_cell_angle_beta	89.965297
_cell_angle_gamma	90.028465
loop_
_atom_site_label
_atom_site_type_symbol
_atom_site_fract_x
_atom_site_fract_y
_atom_site_fract_z
Zn1	Zn	-0.602015	-1.034752	-0.269468
Zn2	Zn	-0.102015	-0.534752	0.230532
Zn3	Zn	-0.424016	-1.034662	-0.382667
Zn4	Zn	0.075984	-0.534662	0.117333
Zn5	Zn	-0.424022	-0.921562	-0.269494
Zn6	Zn	0.075978	-0.421562	0.230506
Zn7	Zn	-0.601924	-0.921530	-0.382617
Zn8	Zn	-0.101924	-0.421530	0.117383
O9	O	-0.512994	-0.978126	-0.326062
O10	O	-0.012994	-0.478126	0.173938
O11	O	-0.578439	-1.129456	-0.284493
O12	O	-0.078439	-0.629456	0.215507
O13	O	-0.275071	-1.019634	-0.367686
O14	O	0.224929	-0.519634	0.132314
O15	O	-0.447673	-0.936627	-0.174774
O16	O	0.052327	-0.436627	0.325226
O17	O	-0.447664	-1.129390	-0.367660
O18	O	0.052336	-0.629390	0.132340
O19	O	-0.578444	-1.019788	-0.174755
O20	O	-0.078444	-0.519788	0.325245
O21	O	-0.275075	-0.936540	-0.284539
O22	O	0.224925	-0.436540	0.215461
O23	O	-0.447585	-0.826841	-0.284491
O24	O	0.052415	-0.326841	0.215509
O25	O	-0.750882	-0.936573	-0.367576
O26	O	-0.250882	-0.436573	0.132424
O27	O	-0.578289	-0.826817	-0.367602
O28	O	-0.078289	-0.326817	0.132398
O29	O	-0.750949	-1.019757	-0.284445
O30	O	-0.250949	-0.519757	0.215555
O31	O	-0.447576	-1.019604	-0.477377
O32	O	0.052424	-0.519604	0.022623
O33	O	-0.578284	-0.936486	-0.477341
O34	O	-0.078284	-0.436486	0.022659
C35	C	-0.512928	-0.802270	-0.326044
C36	C	-0.012928	-0.302270	0.173956
C37	C	-0.512925	-0.727038	-0.326053
C38	C	-0.012925	-0.227038	0.173947
C39	C	-0.580976	-0.265253	-0.369411
C40	C	-0.080976	0.234747	0.130589
C41	C	-0.580958	-0.335941	-0.369411
C42	C	-0.080958	0.164059	0.130589
C43	C	-0.513005	-0.371276	-0.326071
C44	C	-0.013005	0.128724	0.173929
C45	C	-0.445058	-0.335920	-0.282734
C46	C	0.054942	0.164080	0.217266
C47	C	-0.445073	-0.265233	-0.282738
C48	C	0.054927	0.234767	0.217262
C49	C	-0.444998	-0.620993	-0.282717
C50	C	0.055002	-0.120993	0.217283
C51	C	-0.444991	-0.691685	-0.282714
C52	C	0.055009	-0.191685	0.217286
C53	C	-0.580883	-0.691702	-0.369389
C54	C	-0.080883	-0.191702	0.130611
C55	C	-0.580897	-0.621014	-0.369393
C56	C	-0.080897	-0.121014	0.130607
C57	C	-0.512948	-0.585664	-0.326059
C58	C	-0.012948	-0.085664	0.173941
C59	C	-0.512968	-0.509015	-0.326061
C60	C	-0.012968	-0.009015	0.173939
C61	C	-0.512989	-0.447924	-0.326065
C62	C	-0.012989	0.052076	0.173935
C63	C	-0.790615	-0.978172	-0.326002
C64	C	-0.290615	-0.478172	0.173998
C65	C	-0.908921	-0.978191	-0.325977
C66	C	-0.408921	-0.478191	0.174023
C67	C	-0.978138	-0.932962	-0.371166
C68	C	-0.478138	-0.432962	0.128834
C69	C	-1.048937	-0.994719	-0.387705
C70	C	-0.548937	-0.494719	0.112295
C71	C	-1.048920	-0.916482	-0.309397
C72	C	-0.548920	-0.416482	0.190603
C73	C	-0.978162	-1.039980	-0.342549
C74	C	-0.478162	-0.539980	0.157451
C75	C	-0.978139	-0.961702	-0.264212
C76	C	-0.478139	-0.461702	0.235788
C77	C	-1.048907	-1.023502	-0.280727
C78	C	-0.548907	-0.523502	0.219273
C79	C	-0.236453	-0.978120	-0.326072
C80	C	0.263547	-0.478120	0.173928
C81	C	-0.118148	-0.978232	-0.325906
C82	C	0.381852	-0.478232	0.174094
C83	C	-0.512943	-0.978050	-0.501918
C84	C	-0.012943	-0.478050	-0.001918
C85	C	-0.512956	-0.978079	-0.577150
C86	C	-0.012956	-0.478079	-0.077150
C87	C	-0.513048	-0.154669	-0.326077
C88	C	-0.013048	0.345331	0.173923
C89	C	-0.513038	-0.229901	-0.326076
C90	C	-0.013038	0.270099	0.173924
C91	C	-0.444968	-1.021401	-0.612490
C92	C	0.055032	-0.521401	-0.112490
C93	C	-0.444991	-1.021430	-0.683179
C94	C	0.055009	-0.521430	-0.183179
C95	C	-0.512999	-0.978133	-0.718525
C96	C	-0.012999	-0.478133	-0.218525
C97	C	-0.580995	-0.934810	-0.683180
C98	C	-0.080995	-0.434810	-0.183180
C99	C	-0.580976	-0.934785	-0.612492
C100	C	-0.080976	-0.434785	-0.112492
C101	C	-0.581074	-0.934910	-0.968253
C102	C	-0.081074	-0.434910	-0.468253
C103	C	-0.581085	-0.934936	-1.038945
C104	C	-0.081085	-0.434936	-0.538945
C105	C	-0.445089	-1.021554	-1.038939
C106	C	0.054911	-0.521554	-0.538939
C107	C	-0.445070	-1.021529	-0.968252
C108	C	0.054930	-0.521529	-0.468252
C109	C	-0.513070	-0.978209	-0.932912
C110	C	-0.013070	-0.478209	-0.432912
C111	C	-0.513045	-0.978179	-0.856264
C112	C	-0.013045	-0.478179	-0.356264
C113	C	-0.513019	-0.978159	-0.795172
C114	C	-0.013019	-0.478159	-0.295172
C115	C	-0.513069	-0.978221	-0.149519
C116	C	-0.013069	-0.478221	0.350481
C117	C	-0.513101	-0.978262	-0.074287
C118	C	-0.013101	-0.478262	0.425713
H119	H	-0.636278	-0.364722	-0.404700
H120	H	-0.136278	0.135278	0.095300
Cl121	Cl	-1.096910	-0.835885	-0.287790
Cl122	Cl	-0.596910	-0.335885	0.212210
H123	H	-0.389753	-0.236450	-0.247449
H124	H	0.110247	0.263550	0.252551
H125	H	-0.636235	-0.592248	-0.404682
H126	H	-0.136235	-0.092248	0.095318
Cl127	Cl	-1.096954	-1.016287	-0.468302
Cl128	Cl	-0.596954	-0.516287	0.031698
H129	H	-0.947211	-1.092199	-0.356602
H130	H	-0.447211	-0.592199	0.143398
H131	H	-0.389584	-1.056655	-0.583716
H132	H	0.110416	-0.556655	-0.083716
H133	H	-1.079783	-1.061812	-0.242482
H134	H	-0.579783	-0.561812	0.257518
Cl135	Cl	-0.359572	-1.075962	-0.923820
Cl136	Cl	0.140428	-0.575962	-0.423820
H137	H	-0.389627	-1.056706	-0.711950
H138	H	0.110373	-0.556706	-0.211950
H139	H	-0.389725	-1.056830	-1.067721
H140	H	0.110275	-0.556830	-0.567721
Cl141	Cl	-0.930158	-0.873954	-0.430255
Cl142	Cl	-0.430158	-0.373954	0.069745
H143	H	-0.947017	-0.947715	-0.212023
H144	H	-0.447017	-0.447715	0.287977
H145	H	-0.636439	-0.899635	-0.939485
H146	H	-0.136439	-0.399635	-0.439485
H147	H	-0.636473	-0.899680	-1.067722
H148	H	-0.136473	-0.399680	-0.567722
Cl149	Cl	-0.666497	-0.880383	-0.727615
Cl150	Cl	-0.166497	-0.380383	-0.227615
H151	H	-0.389654	-0.720453	-0.247419
H152	H	0.110346	-0.220453	0.252581
H153	H	-0.389725	-0.364695	-0.247449
H154	H	0.110275	0.135305	0.252551
Cl155	Cl	-0.359587	-0.576561	-0.228232
Cl156	Cl	0.140413	-0.076561	0.271768
H157	H	-0.636318	-0.236488	-0.404699
H158	H	-0.136318	0.263512	0.095301
Cl159	Cl	-0.666300	-0.736147	-0.423872
Cl160	Cl	-0.166300	-0.236147	0.076128
Cl161	Cl	-0.666454	-0.880324	-0.568064
Cl162	Cl	-0.166454	-0.380324	-0.068064
