data_functionalizedCrystal
_audit_creation_method	'MofGen! by Chris Wilmer'
_symmetry_space_group_name_H-M	'P1'
_symmetry_Int_Tables_number	1
_symmetry_cell_setting	triclinic
loop_
_symmetry_equiv_pos_as_xyz
  x,y,z
_cell_length_a	8.597339
_cell_length_b	7.088928
_cell_length_c	10.489716
_cell_angle_alpha	83.739863
_cell_angle_beta	95.067036
_cell_angle_gamma	91.310289
loop_
_atom_site_label
_atom_site_type_symbol
_atom_site_fract_x
_atom_site_fract_y
_atom_site_fract_z
O1	O	-2.066272	-0.181328	0.205119
O2	O	-1.616959	-0.107328	0.213727
O3	O	-1.851860	-0.146008	0.024011
O4	O	-1.831371	-0.142648	0.394834
O5	O	-1.820364	-0.458797	0.049336
O6	O	-1.585463	-0.420117	0.239051
O7	O	-2.034776	-0.494117	0.230444
Cu8	Cu	-1.807244	-0.485677	0.237060
Cu9	Cu	-1.844492	-0.115768	0.207111
O10	O	-1.799875	-0.455436	0.420159
C11	C	-1.543677	-0.254246	0.224052
C12	C	-1.372243	-0.226011	0.217073
C13	C	-1.834573	-0.302143	-0.010887
C14	C	-1.829970	-0.301368	-0.152605
C15	C	-1.108059	-0.347203	0.220113
C16	C	-1.279494	-0.375454	0.227076
N17	N	-1.870690	0.144406	0.186037
N18	N	-1.781057	-0.745853	0.258124
C19	C	-1.974016	-0.325109	-0.247621
C20	C	-1.913426	-0.158356	-0.338871
C21	C	-1.882341	-0.466736	-0.313868
C22	C	-1.769453	-0.134498	-0.241999
C23	C	-1.738374	-0.443020	-0.216978
C24	C	-1.677683	-0.276212	-0.308185
C25	C	-1.817163	-0.299297	0.455057
C26	C	-1.821767	-0.300060	0.596774
H27	H	-1.688172	0.187796	0.332834
N28	N	-1.307322	-0.038400	0.199606
N29	N	-1.163484	-0.014945	0.193756
H30	H	-1.117623	0.117559	0.181418
H31	H	-1.963571	0.210768	0.111312
N32	N	-2.006141	-0.007334	-0.405283
N33	N	-1.974562	0.160582	-0.385562
H34	H	-2.040046	0.267239	-0.432464
N35	N	-1.344425	-0.563076	0.244514
N36	N	-1.488265	-0.586538	0.250351
H37	H	-1.534126	-0.719044	0.262664
N38	N	-2.131223	-0.350792	-0.213792
N39	N	-2.232782	-0.232691	-0.259088
H40	H	-2.343808	-0.250821	-0.235197
N41	N	-1.709706	0.041795	-0.202329
N42	N	-1.703699	0.069698	-0.086364
H43	H	-1.661508	0.194203	-0.058343
H44	H	-1.552299	-0.255477	-0.334934
H45	H	-1.664490	-0.563400	-0.164024
H46	H	-1.930052	-0.607131	-0.345663
