data_functionalizedCrystal
_audit_creation_method	'MofGen! by Chris Wilmer'
_symmetry_space_group_name_H-M	'P1'
_symmetry_Int_Tables_number	1
_symmetry_cell_setting	triclinic
loop_
_symmetry_equiv_pos_as_xyz
  x,y,z
_cell_length_a	15.995350
_cell_length_b	14.472310
_cell_length_c	14.519709
_cell_angle_alpha	89.997999
_cell_angle_beta	96.413740
_cell_angle_gamma	90.009379
loop_
_atom_site_label
_atom_site_type_symbol
_atom_site_fract_x
_atom_site_fract_y
_atom_site_fract_z
O1	O	1.111174	0.076765	-0.118867
O2	O	1.611174	0.576765	0.381133
O3	O	0.867421	0.076784	-0.133546
O4	O	1.367421	0.576784	0.366454
O5	O	0.995761	0.076765	0.008044
O6	O	1.495761	0.576765	0.508044
O7	O	0.982835	0.076783	-0.260457
O8	O	1.482835	0.576783	0.239543
O9	O	0.995728	-0.076917	0.008036
O10	O	1.495728	0.423083	0.508036
O11	O	0.867388	-0.076898	-0.133554
O12	O	1.367388	0.423102	0.366446
O13	O	1.111141	-0.076917	-0.118875
O14	O	1.611141	0.423083	0.381125
Cu15	Cu	0.989262	-0.090940	-0.126215
Cu16	Cu	1.489262	0.409060	0.373785
Cu17	Cu	0.989301	0.090807	-0.126206
Cu18	Cu	1.489301	0.590807	0.373794
O19	O	0.982802	-0.076899	-0.260465
O20	O	1.482802	0.423101	0.239535
C21	C	0.836209	-0.000055	-0.132943
C22	C	1.336209	0.499945	0.367057
C23	C	0.743256	-0.000048	-0.131124
C24	C	1.243256	0.499952	0.368876
C25	C	0.405499	-0.000067	-0.124590
C26	C	0.905499	0.499933	0.375410
C27	C	0.452782	-0.000417	-0.023752
C28	C	0.952782	0.499583	0.476248
C29	C	0.549475	-0.000064	-0.025572
C30	C	1.049475	0.499936	0.474428
C31	C	0.573064	-0.000058	-0.127831
C32	C	1.073064	0.499942	0.372169
C33	C	0.532070	0.087701	-0.177563
C34	C	1.032070	0.587701	0.322437
C35	C	0.435431	0.087768	-0.175030
C36	C	0.935431	0.587768	0.324970
C37	C	0.435057	-0.086997	-0.177123
C38	C	0.935057	0.413003	0.322877
C39	C	0.532002	-0.088150	-0.177099
C40	C	1.032002	0.411850	0.322901
C41	C	0.667764	-0.000050	-0.129668
C42	C	1.167764	0.499950	0.370332
C43	C	0.310798	-0.000069	-0.122756
C44	C	0.810798	0.499931	0.377244
N45	N	0.989240	-0.218771	-0.126222
N46	N	1.489240	0.281229	0.373778
C47	C	0.989300	-0.592862	-0.126202
C48	C	1.489300	-0.092862	0.373798
C49	C	0.920397	-0.553686	-0.201710
C50	C	1.420397	-0.053686	0.298290
C51	C	0.920556	-0.446598	-0.201985
C52	C	1.420556	0.053402	0.298015
C53	C	0.989270	-0.407271	-0.126212
C54	C	1.489270	0.092729	0.373788
C55	C	1.076666	-0.446114	-0.147229
C56	C	1.576666	0.053886	0.352771
C57	C	1.076279	-0.553235	-0.147766
C58	C	1.576279	-0.053235	0.352234
C59	C	0.971586	-0.553396	-0.029453
C60	C	1.471586	-0.053396	0.470547
C61	C	0.969583	-0.446269	-0.030098
C62	C	1.469583	0.053731	0.469902
C63	C	0.989258	-0.302383	-0.126215
C64	C	1.489258	0.197617	0.373785
C65	C	0.989317	-0.697750	-0.126200
C66	C	1.489317	-0.197750	0.373800
C67	C	1.142354	-0.000077	-0.119478
C68	C	1.642354	0.499923	0.380522
C69	C	1.235307	-0.000078	-0.121297
C70	C	1.735307	0.499922	0.378703
C71	C	0.995142	-0.000076	0.042398
C72	C	1.495142	0.499924	0.542398
C73	C	0.993337	-0.000076	0.144776
C74	C	1.493337	0.499924	0.644776
N75	N	0.989329	0.218638	-0.126192
N76	N	1.489329	0.718638	0.373808
C77	C	0.983421	-0.000056	-0.294819
C78	C	1.483421	0.499944	0.205181
C79	C	0.985226	-0.000049	-0.397197
C80	C	1.485226	0.499951	0.102803
C81	C	0.986691	-0.000052	0.519660
C82	C	1.486691	0.499948	1.019660
C83	C	0.988537	-0.000059	0.415355
C84	C	1.488537	0.499941	0.915355
C85	C	0.990014	-0.000065	0.332221
C86	C	1.490014	0.499935	0.832221
C87	C	0.991859	-0.000070	0.227910
C88	C	1.491859	0.499930	0.727910
H89	H	0.414458	-0.153516	-0.144160
H90	H	0.914458	0.346484	0.355840
F91	F	0.411445	0.173509	-0.127617
F92	F	0.911445	0.673509	0.372383
H93	H	0.931883	-0.420961	-0.273781
H94	H	1.431883	0.079039	0.226219
H95	H	0.559251	-0.153074	-0.140795
H96	H	1.059251	0.346926	0.359205
F97	F	1.037259	-0.586509	0.043992
F98	F	1.537259	-0.086509	0.543992
H99	H	1.129170	-0.420638	-0.093696
H100	H	1.629170	0.079362	0.406304
F101	F	0.569105	0.173066	-0.132407
F102	F	1.069105	0.673066	0.367593
F103	F	0.552225	-0.095073	-0.274571
F104	F	1.052225	0.404927	0.225429
F105	F	1.096652	-0.585879	-0.239990
F106	F	1.596652	-0.085879	0.260010
H107	H	1.129160	-0.579148	-0.094938
H108	H	1.629160	-0.079148	0.405062
H109	H	1.092622	-0.419273	-0.216983
H110	H	1.592622	0.080727	0.283017
H111	H	0.909233	-0.580460	-0.009244
H112	H	1.409233	-0.080460	0.490756
H113	H	0.546308	0.090969	-0.252690
H114	H	1.046308	0.590969	0.247310
F115	F	0.835212	-0.587369	-0.185602
F116	F	1.335212	-0.087369	0.314398
F117	F	0.935005	-0.588838	-0.295028
F118	F	1.435005	-0.088838	0.204972
H119	H	0.905293	-0.420882	-0.014148
H120	H	1.405293	0.079118	0.485852
F121	F	0.393689	-0.087768	-0.274299
F122	F	0.893689	0.412232	0.225701
H123	H	0.577831	-0.062974	0.013520
H124	H	1.077831	0.437026	0.513520
H125	H	0.855598	-0.420338	-0.189463
H126	H	1.355598	0.079662	0.310537
F127	F	0.393423	0.092980	-0.271794
F128	F	0.893423	0.592980	0.228206
F129	F	1.030910	-0.411293	0.046788
F130	F	1.530910	0.088707	0.546788
H131	H	0.433141	0.062167	0.016373
H132	H	0.933141	0.562167	0.516373
F133	F	0.585807	0.082431	0.025670
F134	F	1.085807	0.582431	0.525670
F135	F	0.428472	-0.082679	0.028928
F136	F	0.928472	0.417321	0.528928
