data_functionalizedCrystal
_audit_creation_method	'MofGen! by Chris Wilmer'
_symmetry_space_group_name_H-M	'P1'
_symmetry_Int_Tables_number	1
_symmetry_cell_setting	triclinic
loop_
_symmetry_equiv_pos_as_xyz
  x,y,z
_cell_length_a	16.120490
_cell_length_b	25.639240
_cell_length_c	16.120297
_cell_angle_alpha	92.861830
_cell_angle_beta	90.129683
_cell_angle_gamma	87.124607
loop_
_atom_site_label
_atom_site_type_symbol
_atom_site_fract_x
_atom_site_fract_y
_atom_site_fract_z
Zn1	Zn	1.247383	-0.264925	-0.534455
Zn2	Zn	1.254313	-0.348157	-0.395372
Zn3	Zn	1.115374	-0.256086	-0.388379
Zn4	Zn	1.108269	-0.347670	-0.527345
O5	O	1.181335	-0.304210	-0.461388
O6	O	1.364668	-0.279869	-0.521908
O7	O	1.241757	-0.332448	-0.278080
O8	O	1.132959	-0.184097	-0.407805
O9	O	1.369760	-0.341019	-0.419724
O10	O	1.229945	-0.190591	-0.515126
O11	O	1.139679	-0.264803	-0.272942
O12	O	0.998066	-0.264332	-0.400911
O13	O	1.120849	-0.340190	-0.644653
O14	O	0.992846	-0.331619	-0.503009
O15	O	1.223055	-0.279397	-0.649877
O16	O	1.234867	-0.421254	-0.412830
O17	O	1.127569	-0.420896	-0.509790
C18	C	0.965283	-0.296964	-0.450430
C19	C	0.872855	-0.293877	-0.445762
C20	C	0.659886	-0.320217	-0.485604
C21	C	0.703631	-0.288246	-0.437238
C22	C	0.797796	-0.291380	-0.441982
C23	C	0.565713	-0.317083	-0.480861
C24	C	1.181221	-0.440046	-0.461317
C25	C	1.181246	-0.498161	-0.461318
C26	C	1.231857	-0.861876	-0.517368
C27	C	1.231881	-0.916482	-0.517386
O28	O	1.274775	-0.947562	-0.564967
N29	N	1.181446	-0.940455	-0.461474
C30	C	1.130978	-0.909819	-0.405546
O31	O	1.088082	-0.935224	-0.357992
C32	C	1.130951	-0.855215	-0.405533
C33	C	1.181395	-0.831245	-0.461443
C34	C	1.282296	-0.837906	-0.573273
C35	C	1.282273	-0.783304	-0.573254
C36	C	1.231812	-0.752672	-0.517329
C37	C	1.181372	-0.776643	-0.461423
C38	C	1.080479	-0.824580	-0.349610
C39	C	1.080456	-0.769972	-0.349602
C40	C	1.130900	-0.746002	-0.405511
C41	C	1.130888	-0.691409	-0.405479
N42	N	1.181322	-0.667436	-0.461390
C43	C	1.231784	-0.698068	-0.517315
C44	C	1.131039	-1.024493	-0.405580
C45	C	1.131070	-1.079097	-0.405589
C46	C	1.231971	-1.085755	-0.517429
C47	C	1.231944	-1.031151	-0.517416
C48	C	1.181473	-1.000520	-0.461492
C49	C	1.231733	-0.583400	-0.517270
C50	C	1.231708	-0.528793	-0.517243
C51	C	1.130804	-0.522139	-0.405406
C52	C	1.130832	-0.576741	-0.405429
C53	C	1.181299	-0.607370	-0.461368
O54	O	1.088013	-0.660296	-0.357924
O55	O	1.274666	-0.672655	-0.564870
C56	C	1.398230	-0.311484	-0.472389
C57	C	1.490658	-0.314584	-0.477077
C58	C	1.170386	-0.310725	-0.678280
C59	C	1.165720	-0.313502	-0.770707
C60	C	1.181471	-0.167844	-0.461479
C61	C	1.181529	-0.109733	-0.461517
C62	C	1.157171	-0.318559	-0.939930
C63	C	1.205662	-0.289709	-0.983706
C64	C	1.200906	-0.292523	-1.077867
C65	C	1.161927	-0.315746	-0.845760
C66	C	1.192289	-0.297683	-0.245342
C67	C	1.197116	-0.294765	-0.152924
H68	H	0.693153	-0.349939	-0.530570
N69	N	1.283286	-0.614674	-0.574416
N70	N	1.328314	-0.593256	-0.624323
H71	H	1.364727	-0.615342	-0.664680
H72	H	1.272789	-0.509278	-0.562771
N73	N	0.661902	-0.250967	-0.380804
N74	N	0.675378	-0.252376	-0.304538
H75	H	0.645903	-0.226051	-0.264680
N76	N	1.262217	-0.256074	-0.942000
N77	N	1.266050	-0.253807	-0.864458
H78	H	1.305991	-0.230053	-0.834999
N79	N	1.100616	-0.352189	-0.981636
N80	N	1.096789	-0.354453	-1.059178
H81	H	1.056849	-0.378205	-1.088642
N82	N	1.333805	-0.758832	-0.630371
N83	N	1.378851	-0.786196	-0.680297
H84	H	1.415247	-0.768916	-0.720642
H85	H	1.089763	-0.596258	-0.359897
H86	H	1.323388	-0.862841	-0.618819
H87	H	1.273059	-1.110705	-0.562968
H88	H	1.273019	-1.011638	-0.562943
N89	N	1.079553	-1.103570	-0.348459
N90	N	1.034509	-1.076207	-0.298529
H91	H	0.998121	-1.093489	-0.258180
H92	H	1.039403	-0.844087	-0.304082
N93	N	1.079479	-0.993214	-0.348442
N94	N	1.034455	-1.014631	-0.298530
H95	H	0.998039	-0.992543	-0.258177
N96	N	1.028890	-0.738692	-0.292473
N97	N	0.983857	-0.760106	-0.242565
H98	H	0.947438	-0.738015	-0.202218
N99	N	1.079276	-0.490836	-0.348279
N100	N	1.079270	-0.442083	-0.348276
H101	H	1.042876	-0.419974	-0.307932
