data_functionalizedCrystal
_audit_creation_method	'MofGen! by Chris Wilmer'
_symmetry_space_group_name_H-M	'P1'
_symmetry_Int_Tables_number	1
_symmetry_cell_setting	triclinic
loop_
_symmetry_equiv_pos_as_xyz
  x,y,z
_cell_length_a	6.817900
_cell_length_b	11.168121
_cell_length_c	11.102291
_cell_angle_alpha	91.986113
_cell_angle_beta	108.605752
_cell_angle_gamma	108.508496
loop_
_atom_site_label
_atom_site_type_symbol
_atom_site_fract_x
_atom_site_fract_y
_atom_site_fract_z
V1	V	-4.111033	-0.174720	-0.396269
O2	O	-4.070595	0.008380	-0.388715
O3	O	-4.087313	-0.346426	-0.393570
O4	O	-4.087825	-0.172040	-0.569092
O5	O	-4.070079	-0.167213	-0.211978
V6	V	-4.588198	-0.152819	-0.374226
O7	O	-4.386237	-0.222764	-0.444625
O8	O	-4.763192	-0.104775	-0.325870
O9	O	-4.388712	0.018886	-0.376925
O10	O	-4.746033	-0.335919	-0.381780
O11	O	-4.746549	-0.160326	-0.558517
O12	O	-4.388199	-0.155499	-0.201403
C13	C	-3.937502	-0.388283	-0.387321
C14	C	-3.999563	-0.528655	-0.386266
C15	C	-3.938155	-0.165836	-0.611215
C16	C	-4.000627	-0.164780	-0.752498
C17	C	-4.213965	-0.170582	-0.825346
C18	C	-4.272639	-0.169566	-0.958092
C19	C	-3.904619	-0.156951	-0.945130
C20	C	-3.845943	-0.157958	-0.812385
C21	C	-4.426442	-0.177871	-0.832832
C22	C	-4.485116	-0.176854	-0.965578
C23	C	-4.202088	-0.597347	-0.391823
C24	C	-4.266235	-0.742429	-0.390732
C25	C	-4.201865	0.060738	-0.383170
C26	C	-4.119044	0.201108	-0.384234
C27	C	-4.201212	-0.161708	-0.159273
C28	C	-4.117977	-0.162757	-0.017989
H29	H	-3.778688	-0.151394	-0.993907
H30	H	-3.945542	-0.739849	-0.379472
H31	H	-4.327991	-0.548751	-0.397395
H32	H	-3.873667	-0.577253	-0.380708
H33	H	-4.521565	-0.272038	-0.808374
O34	O	-3.638882	-0.152574	-0.741567
C35	C	-3.416069	-0.256521	-0.601681
C36	C	-3.650680	-0.262711	-0.681768
H37	H	-3.425526	-0.345568	-0.553334
H38	H	-3.333240	-0.167991	-0.525136
H39	H	-3.315730	-0.251455	-0.667366
H40	H	-3.751198	-0.267825	-0.616186
H41	H	-3.733336	-0.351227	-0.758325
H42	H	-4.521837	-0.087199	-0.994674
O43	O	-4.449928	-0.075725	-0.776430
C44	C	-4.417269	0.038965	-0.579024
C45	C	-4.390622	-0.076777	-0.642736
H46	H	-4.369290	0.038168	-0.470920
H47	H	-4.596323	0.033668	-0.620698
H48	H	-4.305764	0.130807	-0.598289
H49	H	-4.501999	-0.168676	-0.623495
H50	H	-4.211510	-0.071367	-0.601056
H51	H	-4.628549	-0.268156	-1.018430
H52	H	-4.439723	-0.801477	-0.395475
