data_functionalizedCrystal
_audit_creation_method	'MofGen! by Chris Wilmer'
_symmetry_space_group_name_H-M	'P1'
_symmetry_Int_Tables_number	1
_symmetry_cell_setting	triclinic
loop_
_symmetry_equiv_pos_as_xyz
  x,y,z
_cell_length_a	15.297475
_cell_length_b	21.295417
_cell_length_c	21.295412
_cell_angle_alpha	89.969332
_cell_angle_beta	80.312011
_cell_angle_gamma	80.332118
loop_
_atom_site_label
_atom_site_type_symbol
_atom_site_fract_x
_atom_site_fract_y
_atom_site_fract_z
Zn1	Zn	1.379196	-0.417430	-0.522152
Zn2	Zn	1.379059	-0.522682	-0.416860
Zn3	Zn	1.228321	-0.399200	-0.398711
Zn4	Zn	1.228274	-0.504412	-0.503918
O5	O	1.303713	-0.460931	-0.460410
O6	O	1.505424	-0.446667	-0.523411
O7	O	1.359025	-0.506318	-0.326359
O8	O	1.248412	-0.313538	-0.415121
O9	O	1.505323	-0.523995	-0.446054
O10	O	1.359259	-0.326932	-0.505812
O11	O	1.248279	-0.415596	-0.313025
O12	O	1.102069	-0.397881	-0.397440
O13	O	1.248332	-0.492857	-0.594430
O14	O	1.102035	-0.475180	-0.474735
O15	O	1.359214	-0.428952	-0.607827
O16	O	1.358980	-0.608338	-0.428373
O17	O	1.248199	-0.594916	-0.492334
C18	C	1.069318	-0.432570	-0.432140
C19	C	0.969042	-0.420453	-0.420061
C20	C	1.303594	-0.624468	-0.460361
C21	C	1.303626	-0.694440	-0.460371
C22	C	0.686412	-0.547542	-0.546744
C23	C	0.780625	-0.558932	-0.558091
C24	C	0.827734	-0.524313	-0.523585
C25	C	0.780620	-0.478302	-0.477729
C26	C	0.686398	-0.466915	-0.466377
C27	C	0.827720	-0.443686	-0.443218
C28	C	0.780606	-0.397675	-0.397362
C29	C	0.686393	-0.386290	-0.386012
C30	C	0.639284	-0.420909	-0.420518
C31	C	0.921943	-0.455073	-0.454569
C32	C	0.921928	-0.374446	-0.374202
C33	C	0.827715	-0.363056	-0.362855
C34	C	1.361361	-0.734281	-0.427114
C35	C	1.361403	-0.800029	-0.427134
C36	C	1.303695	-0.825931	-0.460401
C37	C	1.245956	-0.786081	-0.493665
C38	C	1.245921	-0.720336	-0.493650
N39	N	1.224775	-0.919652	-0.455681
N40	N	1.224810	-0.982108	-0.455692
C41	C	1.303796	-1.024018	-0.460449
N42	N	1.382747	-1.001113	-0.465183
N43	N	1.382711	-0.938652	-0.465169
C44	C	1.303726	-0.897220	-0.460421
C45	C	1.361581	-1.135151	-0.427212
C46	C	1.361625	-1.200900	-0.427236
C47	C	1.246169	-1.186950	-0.493763
C48	C	1.246134	-1.121203	-0.493743
C49	C	1.303838	-1.095307	-0.460464
C50	C	1.539023	-0.489403	-0.488791
C51	C	1.639298	-0.501536	-0.500886
C52	C	1.303783	-0.460900	-0.624609
C53	C	1.303813	-0.460887	-0.694581
C54	C	1.303856	-0.296758	-0.460476
C55	C	1.303917	-0.226797	-0.460504
C56	C	1.246163	-0.413646	-0.720496
C57	C	1.246160	-0.413634	-0.786238
C58	C	1.303823	-0.460858	-0.826065
C59	C	1.361477	-0.508108	-0.800142
C60	C	1.361473	-0.508123	-0.734400
N61	N	1.382796	-0.475217	-0.938822
N62	N	1.382798	-0.475200	-1.001273
C63	C	1.303840	-0.460819	-1.024141
N64	N	1.224877	-0.446443	-0.982198
N65	N	1.224876	-0.446458	-0.919741
C66	C	1.303834	-0.460848	-0.897351
C67	C	1.246181	-0.413561	-1.121341
C68	C	1.246176	-0.413553	-1.187085
C69	C	1.361502	-0.508026	-1.200988
C70	C	1.361499	-0.508036	-1.135245
C71	C	1.303839	-0.460800	-1.095426
C72	C	1.303694	-0.460922	-0.296856
C73	C	1.303839	-0.460779	-0.226906
H74	H	0.960294	-0.492535	-0.491906
H75	H	1.408350	-0.713199	-0.400018
H76	H	0.904447	-0.533589	-0.532827
H77	H	0.789341	-0.325594	-0.325518
Cl78	Cl	0.627166	-0.328453	-0.328359
H79	H	1.199209	-0.375185	-0.688079
H80	H	1.408421	-0.832474	-0.400052
H81	H	0.818979	-0.596395	-0.595426
Cl82	Cl	1.173668	-0.354173	-1.219661
Cl83	Cl	1.434122	-1.102593	-0.385376
H84	H	1.199230	-0.375100	-1.088919
Cl85	Cl	1.433984	-0.567425	-1.102664
Cl86	Cl	1.433988	-0.567398	-1.251048
H87	H	1.408645	-1.233339	-0.400156
Cl88	Cl	0.627186	-0.591071	-0.590104
Cl89	Cl	0.520839	-0.406588	-0.406259
Cl90	Cl	0.981144	-0.330926	-0.330817
Cl91	Cl	1.433964	-0.567479	-0.850207
Cl92	Cl	1.173412	-0.818644	-0.535490
H93	H	1.198906	-0.687896	-0.520732
Cl94	Cl	1.173699	-0.354228	-0.818828
Cl95	Cl	1.173627	-1.219507	-0.535591
H96	H	1.199117	-1.088762	-0.520821
Cl97	Cl	1.433955	-0.567516	-0.701819
