data_functionalizedCrystal
_audit_creation_method	'MofGen! by Chris Wilmer'
_symmetry_space_group_name_H-M	'P1'
_symmetry_Int_Tables_number	1
_symmetry_cell_setting	triclinic
loop_
_symmetry_equiv_pos_as_xyz
  x,y,z
_cell_length_a	17.077404
_cell_length_b	18.215405
_cell_length_c	17.077396
_cell_angle_alpha	89.968409
_cell_angle_beta	89.980499
_cell_angle_gamma	90.025110
loop_
_atom_site_label
_atom_site_type_symbol
_atom_site_fract_x
_atom_site_fract_y
_atom_site_fract_z
Zn1	Zn	1.200044	-0.292980	-0.443826
Zn2	Zn	1.199946	-0.416053	-0.312553
Zn3	Zn	1.068776	-0.293006	-0.312574
Zn4	Zn	1.068739	-0.416010	-0.443776
O5	O	1.134376	-0.354512	-0.378182
O6	O	1.309878	-0.309313	-0.426424
O7	O	1.182521	-0.399760	-0.202708
O8	O	1.086245	-0.190018	-0.330014
O9	O	1.309806	-0.399735	-0.329978
O10	O	1.182687	-0.189999	-0.426444
O11	O	1.086150	-0.309357	-0.202724
O12	O	0.958924	-0.309315	-0.329966
O13	O	1.086182	-0.399660	-0.553630
O14	O	0.958897	-0.399685	-0.426360
O15	O	1.182651	-0.309271	-0.553666
O16	O	1.182485	-0.519032	-0.329930
O17	O	1.086088	-0.519000	-0.426340
C18	C	0.930428	-0.354499	-0.378160
C19	C	0.843178	-0.354511	-0.378170
C20	C	0.802195	-0.401638	-0.428282
C21	C	0.720214	-0.401639	-0.428294
C22	C	0.679219	-0.354517	-0.378190
C23	C	0.720208	-0.307385	-0.328076
C24	C	0.802187	-0.307380	-0.328068
C25	C	0.549338	-0.307400	-0.328095
C26	C	0.467354	-0.307405	-0.328102
C27	C	0.467365	-0.401659	-0.428321
C28	C	0.549344	-0.401654	-0.428313
C29	C	0.590328	-0.354522	-0.378198
C30	C	1.134293	-0.545718	-0.378144
C31	C	1.134330	-0.627517	-0.378154
C32	C	1.184642	-0.815703	-0.328046
C33	C	1.184677	-0.892562	-0.328065
C34	C	1.084211	-0.892569	-0.428374
C35	C	1.084180	-0.815711	-0.428359
C36	C	1.134395	-0.777281	-0.378190
C37	C	1.134460	-0.930997	-0.378225
C38	C	1.134498	-1.014330	-0.378246
C39	C	1.134358	-0.693942	-0.378170
C40	C	1.339120	-0.354526	-0.378204
C41	C	1.426370	-0.354532	-0.378214
C42	C	1.134424	-0.354458	-0.582926
C43	C	1.134444	-0.354435	-0.670176
C44	C	1.134481	-0.162559	-0.378237
C45	C	1.134525	-0.080760	-0.378261
C46	C	1.184677	-0.307365	-0.711187
C47	C	1.184687	-0.307341	-0.793167
C48	C	1.134466	-0.354390	-0.834136
C49	C	1.084227	-0.401462	-0.793120
C50	C	1.084214	-0.401482	-0.711141
C51	C	1.084259	-0.401418	-0.963990
C52	C	1.084273	-0.401399	-1.045974
C53	C	1.184731	-0.307276	-1.046016
C54	C	1.184718	-0.307296	-0.964037
C55	C	1.134480	-0.354369	-0.923027
C56	C	1.134374	-0.354513	-0.174234
C57	C	1.134506	-0.354329	-0.086985
H58	H	1.225530	-0.784415	-0.287197
N59	N	0.846389	-0.256545	-0.274020
H60	H	0.832095	-0.267906	-0.217912
H61	H	0.904528	-0.263710	-0.281685
N62	N	0.846406	-0.452463	-0.482325
H63	H	0.904558	-0.445312	-0.474716
H64	H	0.832047	-0.505008	-0.470006
N65	N	1.238863	-0.934008	-0.273976
H66	H	1.275236	-0.965845	-0.305916
H67	H	1.270614	-0.897953	-0.242204
N68	N	1.238866	-0.256580	-0.837411
H69	H	1.206986	-0.222466	-0.871426
H70	H	1.270676	-0.226826	-0.798978
N71	N	1.029976	-0.774266	-0.482440
H72	H	1.037579	-0.719746	-0.474817
H73	H	1.042162	-0.787650	-0.538517
N74	N	1.030046	-0.934016	-0.482477
H75	H	1.061933	-0.965857	-0.518891
H76	H	0.993711	-0.965909	-0.450490
H77	H	0.686849	-0.440016	-0.469099
H78	H	1.043301	-0.439804	-0.677751
H79	H	1.043377	-0.439709	-1.079329
H80	H	1.225575	-0.269054	-0.677836
H81	H	1.225616	-0.268989	-0.930683
H82	H	1.043338	-0.439738	-0.930602
H83	H	1.225635	-0.268946	-1.079411
N84	N	1.030052	-0.452192	-0.837316
H85	H	1.061933	-0.486291	-0.871328
H86	H	0.998228	-0.481965	-0.798853
H87	H	0.433993	-0.440032	-0.469129
N88	N	0.423122	-0.256606	-0.274048
H89	H	0.389119	-0.222547	-0.306005
H90	H	0.389142	-0.286555	-0.237641
N91	N	0.593545	-0.256563	-0.274047
H92	H	0.555137	-0.226713	-0.242306
H93	H	0.627531	-0.286475	-0.237660
H94	H	0.582721	-0.440029	-0.469108
H95	H	0.686823	-0.269014	-0.287284
