data_functionalizedCrystal
_audit_creation_method	'MofGen! by Chris Wilmer'
_symmetry_space_group_name_H-M	'P1'
_symmetry_Int_Tables_number	1
_symmetry_cell_setting	triclinic
loop_
_symmetry_equiv_pos_as_xyz
  x,y,z
_cell_length_a	12.759401
_cell_length_b	12.645330
_cell_length_c	12.759393
_cell_angle_alpha	90.031109
_cell_angle_beta	90.020938
_cell_angle_gamma	90.014171
loop_
_atom_site_label
_atom_site_type_symbol
_atom_site_fract_x
_atom_site_fract_y
_atom_site_fract_z
Zn1	Zn	1.606281	-0.421945	0.594016
Zn2	Zn	1.606179	-0.599246	0.418334
Zn3	Zn	1.430580	-0.422001	0.418351
Zn4	Zn	1.430578	-0.599171	0.593971
O5	O	1.518405	-0.510591	0.506168
O6	O	1.753289	-0.445472	0.570723
O7	O	1.582843	-0.575788	0.271315
O8	O	1.453931	-0.273647	0.441679
O9	O	1.753213	-0.575734	0.441650
O10	O	1.583018	-0.273605	0.570739
O11	O	1.453831	-0.445568	0.271327
O12	O	1.283559	-0.445496	0.441636
O13	O	1.453928	-0.575607	0.740998
O14	O	1.283557	-0.575662	0.570663
O15	O	1.583016	-0.445400	0.741031
O16	O	1.582841	-0.747583	0.441607
O17	O	1.453828	-0.747529	0.570647
C18	C	1.245437	-0.510578	0.506147
C19	C	1.128661	-0.510598	0.506163
C20	C	1.518352	-0.786021	0.506143
C21	C	1.518426	-0.903851	0.506168
C22	C	1.073825	-0.578479	0.573242
C23	C	0.964101	-0.578483	0.573263
C24	C	0.964057	-0.442722	0.439117
C25	C	1.073779	-0.442714	0.439102
C26	C	0.814207	-0.616521	0.697123
C27	C	0.759368	-0.684418	0.764192
C28	C	0.794969	-0.787874	0.780139
C29	C	0.885408	-0.823454	0.729001
C30	C	0.940241	-0.755562	0.661924
C31	C	0.904641	-0.652092	0.645997
C32	C	1.223676	-0.404686	0.315241
C33	C	1.278511	-0.336799	0.248157
C34	C	1.242912	-0.233341	0.232200
C35	C	1.152470	-0.197766	0.283319
C36	C	1.097635	-0.265653	0.350403
C37	C	1.133242	-0.369109	0.366362
C38	C	1.599457	-1.071405	0.424824
C39	C	1.599721	-0.948844	0.425023
C40	C	1.548455	-0.948224	0.616912
C41	C	1.549098	-1.070822	0.616481
C42	C	1.407332	-1.071183	0.477858
C43	C	1.407865	-0.948579	0.475374
C44	C	1.792438	-0.510605	0.506189
C45	C	1.909215	-0.510610	0.506199
C46	C	1.518483	-0.510489	0.780201
C47	C	1.518517	-0.510446	0.896978
C48	C	1.518486	-0.234086	0.506216
C49	C	1.518521	-0.116255	0.506236
C50	C	1.518387	-0.510616	0.233200
C51	C	1.518557	-0.510360	0.116424
C52	C	1.585738	-0.442636	0.951859
C53	C	1.585756	-0.442590	1.061583
C54	C	1.451328	-0.578173	1.061536
C55	C	1.451306	-0.578213	0.951814
C56	C	1.623363	-0.317515	1.211562
C57	C	1.690601	-0.249715	1.266447
C58	C	1.793113	-0.233459	1.230856
C59	C	1.828409	-0.285019	1.140382
C60	C	1.761177	-0.352827	1.085503
C61	C	1.658650	-0.369063	1.121093
C62	C	1.413709	-0.703289	0.801832
C63	C	1.346481	-0.771104	0.746952
C64	C	1.243967	-0.787370	0.782541
C65	C	1.208676	-0.735829	0.873018
C66	C	1.275903	-0.668014	0.927899
C67	C	1.378416	-0.651746	0.892302
H68	H	1.013874	-0.784531	0.620287
H69	H	0.914381	-0.907702	0.741982
O70	O	1.384528	-0.826647	0.649329
H71	H	1.320555	-0.876525	0.617141
O72	O	1.656750	-1.108598	0.648323
H73	H	1.690905	-1.156781	0.584125
O74	O	1.237833	-0.612410	1.025479
H75	H	1.287488	-0.635784	1.093045
O76	O	1.474400	-1.110135	0.699558
H77	H	1.518038	-1.158686	0.757399
O78	O	0.661829	-0.646036	0.819345
H79	H	0.594245	-0.696100	0.796065
O80	O	0.904866	-0.369541	0.366753
H81	H	0.819356	-0.380967	0.378014
O82	O	1.327517	-1.109720	0.556411
H83	H	1.291178	-1.040866	0.596298
H84	H	1.118507	-0.633751	0.627850
O85	O	1.658217	-0.369540	0.892709
H86	H	1.704956	-0.322373	0.949310
O87	O	1.865625	-0.160322	1.290051
H88	H	1.935417	-0.205170	1.316870
H89	H	1.497182	-0.690042	0.772841
H90	H	1.352154	-0.365774	0.206532
H91	H	1.580903	-1.100964	0.342468
O92	O	0.735831	-0.861109	0.852483
H93	H	0.666970	-0.818988	0.885365
H94	H	1.491300	-0.919075	0.679196
H95	H	1.252676	-0.488927	0.328237
O96	O	1.098103	-0.753368	0.911405
H97	H	1.084860	-0.706141	0.983543
O98	O	1.000073	-0.227287	0.405523
H99	H	0.967916	-0.291880	0.454836
O100	O	0.775789	-0.504943	0.679893
H101	H	0.703675	-0.491626	0.726695
H102	H	1.385222	-0.919589	0.393875
H103	H	1.189235	-0.842600	0.737852
O104	O	1.114065	-0.086176	0.266121
H105	H	1.167395	-0.044943	0.210896
O106	O	1.302053	-0.160114	0.159845
H107	H	1.370925	-0.202227	0.126975
O108	O	1.708804	-0.909875	0.449893
H109	H	1.738167	-0.861188	0.383766
H110	H	1.580932	-0.918848	0.342907
O111	O	1.799213	-0.408427	0.987913
H112	H	1.867482	-0.458996	1.007743
O113	O	1.707964	-1.112085	0.449416
H114	H	1.708103	-1.199769	0.445405
H115	H	1.911888	-0.271785	1.111416
O116	O	1.654901	-0.907458	0.649291
H117	H	1.686588	-0.855606	0.586693
O118	O	1.371158	-1.112244	0.372744
H119	H	1.432033	-1.165242	0.339553
H120	H	1.344307	-0.917962	0.530323
O121	O	1.652534	-0.194086	1.364015
H122	H	1.569944	-0.216759	1.379533
H123	H	1.539887	-0.330737	1.240544
H124	H	1.396610	-0.633349	1.106197
