data_functionalizedCrystal
_audit_creation_method	'MofGen! by Chris Wilmer'
_symmetry_space_group_name_H-M	'P1'
_symmetry_Int_Tables_number	1
_symmetry_cell_setting	triclinic
loop_
_symmetry_equiv_pos_as_xyz
  x,y,z
_cell_length_a	15.297475
_cell_length_b	18.050589
_cell_length_c	15.296720
_cell_angle_alpha	80.353020
_cell_angle_beta	88.382886
_cell_angle_gamma	80.331321
loop_
_atom_site_label
_atom_site_type_symbol
_atom_site_fract_x
_atom_site_fract_y
_atom_site_fract_z
Zn1	Zn	1.253324	-0.577978	0.726619
Zn2	Zn	1.278573	-0.684914	0.580139
Zn3	Zn	1.132208	-0.536258	0.554858
Zn4	Zn	1.106800	-0.677614	0.701267
O5	O	1.192726	-0.619191	0.640721
O6	O	1.379249	-0.612678	0.728378
O7	O	1.280357	-0.650790	0.454210
O8	O	1.148341	-0.437882	0.577673
O9	O	1.397799	-0.691244	0.620759
O10	O	1.237325	-0.468533	0.703865
O11	O	1.172823	-0.541573	0.435637
O12	O	1.006262	-0.534494	0.553090
O13	O	1.105037	-0.678802	0.827205
O14	O	0.987595	-0.638348	0.660656
O15	O	1.212688	-0.605600	0.845831
O16	O	1.255720	-0.787856	0.596176
O17	O	1.129519	-0.782493	0.685169
C18	C	0.965146	-0.581102	0.601379
C19	C	0.867783	-0.564828	0.584569
C20	C	0.554614	-0.735511	0.760865
C21	C	0.646092	-0.750806	0.776656
C22	C	0.701519	-0.704313	0.728636
C23	C	0.665459	-0.642522	0.664822
C24	C	0.573973	-0.627228	0.649024
C25	C	0.720878	-0.596030	0.616795
C26	C	0.684818	-0.534239	0.552980
C27	C	0.593341	-0.518948	0.537186
C28	C	0.537914	-0.565441	0.585206
C29	C	0.812364	-0.611324	0.632593
C30	C	0.831723	-0.503041	0.520751
C31	C	0.740245	-0.487746	0.504960
C32	C	1.192623	-0.812124	0.640688
C33	C	1.192654	-0.894678	0.640717
C34	C	1.124087	-1.091246	0.689101
C35	C	1.116577	-1.127707	0.605486
C36	C	1.192738	-1.045824	0.640743
C37	C	1.200290	-1.156454	0.724374
C38	C	1.192816	-1.191825	0.640775
C39	C	1.185193	-1.081185	0.557079
C40	C	1.268934	-1.109941	0.676028
C41	C	1.261463	-1.146377	0.592364
C42	C	1.192690	-0.961717	0.640726
C43	C	1.192866	-1.275930	0.640784
C44	C	1.421195	-0.657429	0.680217
C45	C	1.518555	-0.673724	0.697047
C46	C	1.153212	-0.646040	0.869189
C47	C	1.136373	-0.657482	0.966549
C48	C	1.192850	-0.425511	0.640777
C49	C	1.192903	-0.342976	0.640801
C50	C	1.232137	-0.592401	0.413150
C51	C	1.249146	-0.580779	0.315820
C52	C	1.313107	-0.537292	1.279781
C53	C	1.328934	-0.526544	1.188308
C54	C	1.280795	-0.559277	1.132864
C55	C	1.216827	-0.602761	1.168902
C56	C	1.201004	-0.613514	1.260385
C57	C	1.168692	-0.635500	1.113467
C58	C	1.104724	-0.678984	1.149505
C59	C	1.088904	-0.689735	1.240979
C60	C	1.137042	-0.657002	1.296423
C61	C	1.184515	-0.624746	1.021984
C62	C	1.072411	-0.700969	1.002587
C63	C	1.056585	-0.711717	1.094061
H64	H	0.675446	-0.801118	0.828613
O65	O	0.851242	-0.677959	0.701432
H66	H	0.885222	-0.656988	0.753261
H67	H	1.178761	-1.048631	0.486334
O68	O	1.338421	-1.178139	0.538141
H69	H	1.401495	-1.170494	0.566861
H70	H	0.776004	-0.716770	0.741498
O71	O	0.494837	-0.785653	0.812655
H72	H	0.425167	-0.764633	0.790951
O73	O	1.297863	-0.547693	1.034203
H74	H	1.235977	-0.518795	0.998663
O75	O	1.208720	-1.199674	0.818042
H76	H	1.151618	-1.177471	0.858018
O77	O	1.253506	-0.577851	0.983121
H78	H	1.221542	-0.528612	0.934672
H79	H	0.463423	-0.552990	0.572354
O80	O	1.354329	-1.099056	0.715487
H81	H	1.360452	-1.129580	0.784901
H82	H	0.563986	-0.468640	0.485215
O83	O	0.701354	-0.421118	0.436108
H84	H	0.628433	-0.418306	0.433184
H85	H	1.381018	-0.491142	1.158973
O86	O	0.891492	-0.452885	0.468954
H87	H	0.961161	-0.473894	0.490667
O88	O	1.365002	-0.501966	1.339573
H89	H	1.343240	-0.516739	1.409234
H90	H	1.124160	-0.665750	1.370909
O91	O	1.019911	-0.736633	1.279854
H92	H	0.989087	-0.757582	1.225934
H93	H	1.052176	-1.136053	0.575667
O94	O	0.987591	-0.758614	1.132934
H95	H	1.019559	-0.807857	1.181374
O96	O	1.047114	-1.059269	0.743159
H97	H	0.983984	-1.065909	0.713676
O98	O	1.020478	-0.736275	0.942799
H99	H	1.042218	-0.721484	0.873133
