data_functionalizedCrystal
_audit_creation_method	'MofGen! by Chris Wilmer'
_symmetry_space_group_name_H-M	'P1'
_symmetry_Int_Tables_number	1
_symmetry_cell_setting	triclinic
loop_
_symmetry_equiv_pos_as_xyz
  x,y,z
_cell_length_a	16.120542
_cell_length_b	19.077114
_cell_length_c	19.076919
_cell_angle_alpha	94.472739
_cell_angle_beta	89.498748
_cell_angle_gamma	89.535192
loop_
_atom_site_label
_atom_site_type_symbol
_atom_site_fract_x
_atom_site_fract_y
_atom_site_fract_z
Zn1	Zn	-1.235612	0.351939	0.464931
Zn2	Zn	-1.235506	0.465087	0.351775
Zn3	Zn	-1.102602	0.341275	0.341132
Zn4	Zn	-1.090930	0.463319	0.463175
O5	O	-1.166162	0.405405	0.405253
O6	O	-1.351769	0.372151	0.455109
O7	O	-1.222716	0.444941	0.251931
O8	O	-1.125175	0.244260	0.353835
O9	O	-1.351691	0.455281	0.371974
O10	O	-1.222897	0.252095	0.444790
O11	O	-1.125072	0.353976	0.244113
O12	O	-0.984882	0.352261	0.352133
O13	O	-1.105282	0.452267	0.561839
O14	O	-0.976307	0.441926	0.441797
O15	O	-1.211579	0.370436	0.563129
O16	O	-1.211399	0.563282	0.370271
O17	O	-1.105179	0.561982	0.452116
C18	C	-0.950473	0.395745	0.395620
C19	C	-0.858199	0.391630	0.391516
C20	C	-1.157033	0.588155	0.412174
C21	C	-1.153202	0.666341	0.415162
C22	C	-0.643916	0.426728	0.426501
C23	C	-0.689257	0.384124	0.384023
C24	C	-0.783265	0.388302	0.388193
C25	C	-0.549900	0.422551	0.422332
C26	C	-0.382694	0.415099	0.414914
C27	C	-0.474969	0.419219	0.419006
C28	C	-1.206744	0.703729	0.373993
C29	C	-1.203146	0.777193	0.376807
C30	C	-1.146000	0.813267	0.420788
C31	C	-1.092456	0.775874	0.461962
C32	C	-1.096059	0.702412	0.459151
C33	C	-1.129293	1.032906	0.433765
C34	C	-1.125693	1.106374	0.436571
C35	C	-1.236384	1.107688	0.351417
C36	C	-1.239979	1.034224	0.348606
C37	C	-1.186437	0.996837	0.389783
N38	N	-1.142319	0.888359	0.423664
N39	N	-1.190123	0.921747	0.386910
C40	C	-1.157141	0.412344	0.588720
C41	C	-1.153296	0.415301	0.666903
C42	C	-1.175342	1.221943	0.398330
C43	C	-1.179235	1.143762	0.395402
C44	C	-1.175199	0.398444	0.222500
C45	C	-1.179214	0.395297	0.144318
C46	C	-1.206830	0.374087	0.704306
C47	C	-1.203208	0.376862	0.777766
C48	C	-1.146055	0.420855	0.813822
C49	C	-1.092515	0.462070	0.776414
C50	C	-1.096134	0.459291	0.702954
C51	C	-1.129293	0.433733	1.033450
C52	C	-1.125680	0.436510	1.106914
C53	C	-1.236373	0.351301	1.108262
C54	C	-1.239990	0.348528	1.034801
C55	C	-1.186447	0.389741	0.997399
N56	N	-1.142353	0.423694	0.888911
N57	N	-1.190146	0.386897	0.922311
H58	H	-0.675699	0.466337	0.465997
C59	C	-1.295260	0.305964	1.149405
C60	C	-1.356423	0.341268	1.203974
C61	C	-1.415311	0.295927	1.245118
C62	C	-1.413036	0.215281	1.231691
C63	C	-1.351871	0.179971	1.177120
C64	C	-1.292983	0.225313	1.135976
H65	H	-1.358109	0.400972	1.213916
H66	H	-1.460589	0.322065	1.285515
H67	H	-1.456628	0.181716	1.262148
H68	H	-1.350185	0.120268	1.167178
H69	H	-1.247705	0.199174	1.095579
H70	H	-1.085707	0.467301	1.003006
H71	H	-1.279976	1.138136	0.317894
H72	H	-1.079136	0.472336	1.136269
C73	C	-1.302850	0.300126	0.995140
C74	C	-1.306829	0.297065	0.914338
C75	C	-1.369688	0.248661	0.874677
C76	C	-1.428570	0.203319	0.915819
C77	C	-1.424593	0.206378	0.996626
C78	C	-1.361733	0.254782	1.036287
H79	H	-1.263239	0.330632	0.883878
H80	H	-1.372632	0.246397	0.814858
H81	H	-1.475103	0.167488	0.886459
H82	H	-1.468183	0.172812	1.027086
H83	H	-1.358790	0.257046	1.096106
H84	H	-0.657472	0.344512	0.344523
H85	H	-1.045977	0.497888	0.805776
H86	H	-1.045930	0.805252	0.497776
C87	C	-1.037160	0.661281	0.504436
C88	C	-0.975990	0.606764	0.469073
C89	C	-0.917093	0.565634	0.514363
C90	C	-0.919365	0.579020	0.595014
C91	C	-0.980537	0.633539	0.630381
C92	C	-1.039435	0.674669	0.585092
H93	H	-0.974306	0.596853	0.409366
H94	H	-0.871810	0.525275	0.488181
H95	H	-0.875766	0.548573	0.628540
H96	H	-0.982221	0.643450	0.690089
H97	H	-1.084718	0.715028	0.611274
C98	C	-1.269606	0.664050	0.325613
C99	C	-1.266347	0.670869	0.245734
C100	C	-1.329213	0.631192	0.197355
C101	C	-1.395337	0.584697	0.228854
C102	C	-1.398599	0.577877	0.308737
C103	C	-1.335733	0.617553	0.357116
H104	H	-1.217395	0.705289	0.222412
H105	H	-1.326798	0.636242	0.138220
H106	H	-1.441874	0.555327	0.193041
H107	H	-1.447550	0.543457	0.332058
H108	H	-1.338148	0.612504	0.416251
C109	C	-1.262048	0.818316	0.331520
C110	C	-1.259776	0.804932	0.250868
C111	C	-1.318686	0.846053	0.205581
C112	C	-1.379868	0.900558	0.240946
C113	C	-1.382142	0.913944	0.321603
C114	C	-1.323233	0.872823	0.366890
H115	H	-1.214483	0.764583	0.224685
H116	H	-1.317002	0.836144	0.145874
H117	H	-1.423477	0.930998	0.207422
H118	H	-1.427435	0.954294	0.347786
H119	H	-1.324917	0.882733	0.426597
H120	H	-1.286511	1.004854	0.312794
H121	H	-1.253373	0.338265	0.674954
C122	C	-1.062830	1.146057	0.484955
C123	C	-1.003936	1.104936	0.530249
C124	C	-0.941076	1.144620	0.578627
C125	C	-0.937109	1.225425	0.581712
C126	C	-0.996006	1.266551	0.536416
C127	C	-1.058866	1.226867	0.488038
H128	H	-1.006870	1.045115	0.527967
H129	H	-0.897477	1.114175	0.612158
H130	H	-0.890576	1.254801	0.617524
H131	H	-0.993071	1.326372	0.538698
H132	H	-1.102465	1.257312	0.454507
H133	H	-1.085696	1.002472	0.467291
H134	H	-1.246803	0.343303	0.808217
H135	H	-1.052532	0.492844	0.672501
