data_functionalizedCrystal
_audit_creation_method	'MofGen! by Chris Wilmer'
_symmetry_space_group_name_H-M	'P1'
_symmetry_Int_Tables_number	1
_symmetry_cell_setting	triclinic
loop_
_symmetry_equiv_pos_as_xyz
  x,y,z
_cell_length_a	19.188930
_cell_length_b	15.944551
_cell_length_c	15.021413
_cell_angle_alpha	90.002826
_cell_angle_beta	89.998889
_cell_angle_gamma	96.678240
loop_
_atom_site_label
_atom_site_type_symbol
_atom_site_fract_x
_atom_site_fract_y
_atom_site_fract_z
O1	O	0.090039	-1.114192	-0.073949
O2	O	0.590039	-0.614192	0.426051
O3	O	0.101141	-0.869601	-0.073973
O4	O	0.601141	-0.369601	0.426027
O5	O	-0.006048	-0.998955	-0.073943
O6	O	0.493952	-0.498955	0.426057
O7	O	0.197227	-0.984838	-0.073979
O8	O	0.697227	-0.484838	0.426021
O9	O	-0.006033	-0.998934	0.074121
O10	O	0.493967	-0.498934	0.574121
O11	O	0.101156	-0.869580	0.074091
O12	O	0.601156	-0.369580	0.574091
O13	O	0.090054	-1.114171	0.074115
O14	O	0.590054	-0.614171	0.574115
Zn15	Zn	0.095607	-0.991873	0.097611
Zn16	Zn	0.595607	-0.491873	0.597611
Zn17	Zn	0.095587	-0.991900	-0.097470
Zn18	Zn	0.595587	-0.491900	0.402530
O19	O	0.197242	-0.984817	0.074085
O20	O	0.697242	-0.484817	0.574085
C21	C	-0.032052	-0.998487	0.000091
C22	C	0.467948	-0.498487	0.500091
C23	C	-0.109560	-0.997115	0.000099
C24	C	0.390440	-0.497115	0.500099
C25	C	0.100687	-0.838298	0.000056
C26	C	0.600687	-0.338298	0.500056
C27	C	0.099306	-0.745057	0.000048
C28	C	0.599306	-0.245057	0.500048
C29	C	0.090507	-1.145474	0.000083
C30	C	0.590507	-0.645474	0.500083
C31	C	0.091889	-1.238715	0.000086
C32	C	0.591889	-0.738715	0.500086
C33	C	-0.154288	-1.073016	0.000111
C34	C	0.345712	-0.573016	0.500111
C35	C	-0.227115	-1.071726	0.000096
C36	C	0.272885	-0.571726	0.500096
C37	C	-0.255211	-0.994532	0.000088
C38	C	0.244789	-0.494532	0.500088
C39	C	-0.210474	-0.918622	0.000072
C40	C	0.289526	-0.418622	0.500072
C41	C	-0.137648	-0.919913	0.000077
C42	C	0.362352	-0.419913	0.500077
N43	N	-0.363364	-0.935519	0.050472
N44	N	0.136636	-0.435519	0.550472
N45	N	-0.432546	-0.934298	0.050468
N46	N	0.067454	-0.434298	0.550468
C47	C	-0.474630	-0.990637	0.000070
C48	C	0.025370	-0.490637	0.500070
N49	N	-0.444921	-1.048256	-0.050314
N50	N	0.055079	-0.548256	0.449686
N51	N	-0.375733	-1.049480	-0.050307
N52	N	0.124267	-0.549480	0.449693
C53	C	-0.334178	-0.993123	0.000082
C54	C	0.165822	-0.493123	0.500082
C55	C	-0.598326	-1.065145	0.000064
C56	C	-0.098326	-0.565145	0.500064
C57	C	-0.671154	-1.063852	0.000044
C58	C	-0.171154	-0.563852	0.500044
C59	C	-0.654511	-0.910745	0.000029
C60	C	-0.154511	-0.410745	0.500029
C61	C	-0.581685	-0.912040	0.000040
C62	C	-0.081685	-0.412040	0.500040
C63	C	-0.553597	-0.989242	0.000062
C64	C	-0.053597	-0.489242	0.500062
C65	C	0.223247	-0.985285	0.000048
C66	C	0.723247	-0.485285	0.500048
C67	C	0.300755	-0.986657	0.000035
C68	C	0.800755	-0.486657	0.500035
N69	N	0.095621	-0.991860	0.230749
N70	N	0.595621	-0.491860	0.730749
C71	C	0.029563	-0.530462	0.000078
C72	C	0.529563	-0.030462	0.500078
C73	C	0.061941	-0.469331	-0.072931
C74	C	0.561941	0.030669	0.427069
C75	C	0.096806	-0.574341	0.000059
C76	C	0.596806	-0.074341	0.500059
C77	C	0.061972	-0.469332	0.073048
C78	C	0.561972	0.030668	0.573048
C79	C	0.094386	-0.409437	0.000074
C80	C	0.594386	0.090563	0.500074
C81	C	0.129203	-0.514438	-0.073010
C82	C	0.629203	-0.014438	0.426990
C83	C	0.129225	-0.514446	0.073035
C84	C	0.629225	-0.014446	0.573035
C85	C	0.161652	-0.453332	0.000008
C86	C	0.661652	0.046668	0.500008
C87	C	0.098198	-0.669338	0.000050
C88	C	0.598198	-0.169338	0.500050
C89	C	0.093000	-0.314441	0.000076
C90	C	0.593000	0.185559	0.500076
N91	N	0.095568	-0.991919	-0.230607
N92	N	0.595568	-0.491919	0.269393
C93	C	0.145161	-0.932038	0.470418
C94	C	0.645161	-0.432038	0.970418
C95	C	0.158716	-1.007887	0.529757
C96	C	0.658716	-0.507887	1.029757
C97	C	0.095603	-0.991882	0.412356
C98	C	0.595603	-0.491882	0.912356
C99	C	0.082064	-0.916053	0.529759
C100	C	0.582064	-0.416053	1.029759
C101	C	0.095588	-0.991896	0.587780
C102	C	0.595588	-0.491896	1.087780
C103	C	0.109189	-1.067770	0.470388
C104	C	0.609189	-0.567770	0.970388
C105	C	0.032510	-0.975885	0.470384
C106	C	0.532510	-0.475885	0.970384
C107	C	0.046038	-1.051789	0.529697
C108	C	0.546038	-0.551789	1.029697
C109	C	0.095614	-0.991872	0.311299
C110	C	0.595614	-0.491872	0.811299
C111	C	0.095577	-0.991914	0.688835
C112	C	0.595577	-0.491914	1.188835
H113	H	-0.131424	-1.135880	0.000125
H114	H	0.368576	-0.635880	0.500125
C115	C	0.167582	-0.541306	-0.156493
C116	C	0.667582	-0.041306	0.343507
N117	N	0.196486	-0.561546	-0.219373
N118	N	0.696486	-0.061546	0.280627
C119	C	0.023509	-0.442311	-0.156301
C120	C	0.523509	0.057689	0.343699
N121	N	-0.005443	-0.421962	-0.219091
N122	N	0.494557	0.078038	0.280909
H123	H	-0.707571	-1.125662	0.000049
H124	H	-0.207571	-0.625662	0.500049
H125	H	-0.575456	-1.128007	0.000078
H126	H	-0.075456	-0.628007	0.500078
C127	C	-0.088446	-0.836412	0.000067
C128	C	0.411554	-0.336412	0.500067
N129	N	-0.051385	-0.773519	0.000061
N130	N	0.448615	-0.273519	0.500061
C131	C	0.023543	-0.442331	0.156433
C132	C	0.523543	0.057669	0.656433
N133	N	-0.005407	-0.421997	0.219235
N134	N	0.494593	0.078003	0.719235
C135	C	0.167621	-0.541496	0.156413
C136	C	0.667621	-0.041496	0.656413
N137	N	0.196536	-0.561874	0.219221
N138	N	0.696536	-0.061874	0.719221
C139	C	0.237120	-0.408246	-0.000061
C140	C	0.737120	0.091754	0.499939
N141	N	0.293960	-0.374285	-0.000119
N142	N	0.793960	0.125715	0.499881
C143	C	-0.685412	-0.825830	0.000017
C144	C	-0.185412	-0.325830	0.500017
N145	N	-0.708691	-0.761870	0.000006
N146	N	-0.208691	-0.261870	0.500006
C147	C	0.201824	-0.863742	0.435246
C148	C	0.701824	-0.363742	0.935246
N149	N	0.244504	-0.812307	0.408750
N150	N	0.744504	-0.312307	0.908750
C151	C	0.230787	-1.026178	0.565000
C152	C	0.730787	-0.526178	1.065000
N153	N	0.285073	-1.039948	0.591544
N154	N	0.785073	-0.539948	1.091544
H155	H	0.120698	-1.131917	0.444419
H156	H	0.620698	-0.631917	0.944419
H157	H	0.004119	-1.102459	0.555561
H158	H	0.504119	-0.602459	1.055561
C159	C	-0.532482	-0.828542	0.000032
C160	C	-0.032482	-0.328542	0.500032
N161	N	-0.495422	-0.765647	0.000023
N162	N	0.004578	-0.265647	0.500023
H163	H	-0.020823	-0.962318	0.444285
H164	H	0.479177	-0.462318	0.944285
H165	H	0.070620	-0.851919	0.555840
H166	H	0.570620	-0.351919	1.055840
H167	H	-0.233354	-0.855769	0.000063
H168	H	0.266646	-0.355769	0.500063
C169	C	-0.276325	-1.155226	0.000114
C170	C	0.223675	-0.655226	0.500114
N171	N	-0.313387	-1.218119	0.000131
N172	N	0.186613	-0.718119	0.500131
H173	H	-0.026244	-0.564003	-0.000002
H174	H	0.473756	-0.064003	0.499998
