data_functionalizedCrystal
_audit_creation_method	'MofGen! by Chris Wilmer'
_symmetry_space_group_name_H-M	'P1'
_symmetry_Int_Tables_number	1
_symmetry_cell_setting	triclinic
loop_
_symmetry_equiv_pos_as_xyz
  x,y,z
_cell_length_a	14.971486
_cell_length_b	13.339070
_cell_length_c	13.448316
_cell_angle_alpha	89.996829
_cell_angle_beta	89.998199
_cell_angle_gamma	99.621712
loop_
_atom_site_label
_atom_site_type_symbol
_atom_site_fract_x
_atom_site_fract_y
_atom_site_fract_z
O1	O	1.219550	0.131873	-0.082571
O2	O	1.719550	0.631873	0.417429
O3	O	0.963055	0.147665	-0.082597
O4	O	1.463055	0.647665	0.417403
O5	O	1.061865	-0.007530	-0.082584
O6	O	1.561865	0.492470	0.417416
O7	O	1.120740	0.287068	-0.082584
O8	O	1.620740	0.787068	0.417416
O9	O	1.061845	-0.007540	0.082800
O10	O	1.561845	0.492460	0.582800
O11	O	0.963035	0.147656	0.082787
O12	O	1.463035	0.647656	0.582787
O13	O	1.219531	0.131864	0.082813
O14	O	1.719531	0.631864	0.582813
Cu15	Cu	1.091281	0.139759	0.097901
Cu16	Cu	1.591281	0.639759	0.597901
Cu17	Cu	1.091304	0.139770	-0.097685
Cu18	Cu	1.591304	0.639770	0.402315
O19	O	1.120720	0.287059	0.082800
O20	O	1.620720	0.787059	0.582800
C21	C	0.929545	0.146954	0.000091
C22	C	1.429545	0.646954	0.500091
C23	C	0.829725	0.144838	0.000081
C24	C	1.329725	0.644838	0.500081
C25	C	0.795041	0.236011	0.000082
C26	C	1.295041	0.736011	0.500082
C27	C	0.701248	0.234016	0.000097
C28	C	1.201248	0.734016	0.500097
C29	C	0.642141	0.140847	0.000103
C30	C	1.142141	0.640847	0.500103
C31	C	0.676832	0.049667	0.000105
C32	C	1.176832	0.549667	0.500105
C33	C	0.770623	0.051663	0.000097
C34	C	1.270623	0.551663	0.500097
C35	C	0.481342	0.045514	0.000119
C36	C	0.981342	0.545514	0.500119
C37	C	0.387545	0.043518	0.000125
C38	C	0.887545	0.543518	0.500125
C39	C	0.411968	0.227867	0.000119
C40	C	0.911968	0.727867	0.500119
C41	C	0.505759	0.229863	0.000111
C42	C	1.005759	0.729863	0.500111
C43	C	0.540442	0.138682	0.000111
C44	C	1.040442	0.638682	0.500111
C45	C	1.051910	-0.045236	0.000105
C46	C	1.551910	0.454764	0.500105
C47	C	1.022266	-0.157574	0.000098
C48	C	1.522266	0.342426	0.500098
C49	C	1.252762	-0.522088	0.000122
C50	C	1.752762	-0.022088	0.500122
C51	C	1.280617	-0.416541	0.000135
C52	C	1.780617	0.083459	0.500135
C53	C	1.216032	-0.351794	0.000125
C54	C	1.716032	0.148206	0.500125
C55	C	1.123587	-0.392604	0.000104
C56	C	1.623587	0.107396	0.500104
C57	C	1.095729	-0.498161	0.000100
C58	C	1.595729	0.001839	0.500100
C59	C	1.058999	-0.327867	0.000103
C60	C	1.558999	0.172133	0.500103
C61	C	0.966554	-0.368677	0.000082
C62	C	1.466554	0.131323	0.500082
C63	C	0.938701	-0.474224	0.000077
C64	C	1.438701	0.025776	0.500077
C65	C	1.003286	-0.538970	0.000086
C66	C	1.503286	-0.038970	0.500086
C67	C	1.086856	-0.222311	0.000107
C68	C	1.586856	0.277689	0.500107
C69	C	0.929823	-0.198384	0.000084
C70	C	1.429823	0.301616	0.500084
C71	C	0.901968	-0.303930	0.000072
C72	C	1.401968	0.196070	0.500072
C73	C	1.253040	0.132575	0.000122
C74	C	1.753040	0.632575	0.500122
C75	C	1.352860	0.134691	0.000126
C76	C	1.852860	0.634691	0.500126
C77	C	1.130675	0.324765	0.000108
C78	C	1.630675	0.824765	0.500108
C79	C	1.160319	0.437102	0.000109
C80	C	1.660319	0.937102	0.500109
N81	N	1.091271	0.139750	0.235465
N82	N	1.591271	0.639750	0.735465
N83	N	1.091319	0.139771	-0.235249
N84	N	1.591319	0.639771	0.264751
C85	C	1.135050	0.071058	0.287511
C86	C	1.635050	0.571058	0.787511
C87	C	1.135056	0.071057	0.391614
C88	C	1.635056	0.571057	0.891614
C89	C	1.091287	0.139754	0.443669
C90	C	1.591287	0.639754	0.943669
C91	C	1.047502	0.208449	0.391616
C92	C	1.547502	0.708449	0.891616
C93	C	1.047492	0.208445	0.287515
C94	C	1.547492	0.708445	0.787515
C95	C	1.047529	0.208456	0.608596
C96	C	1.547529	0.708456	1.108596
C97	C	1.047540	0.208463	0.712705
C98	C	1.547540	0.708463	1.212705
C99	C	1.135093	0.071069	0.712696
C100	C	1.635093	0.571069	1.212696
C101	C	1.135082	0.071064	0.608594
C102	C	1.635082	0.571064	1.108594
C103	C	1.091299	0.139761	0.556548
C104	C	1.591299	0.639761	1.056548
H105	H	0.843160	0.311879	0.000077
H106	H	1.343160	0.811879	0.500077
F107	F	1.379000	-0.373116	0.000141
F108	F	1.879000	0.126884	0.500141
F109	F	1.000953	0.281578	0.768098
F110	F	1.500953	0.781578	1.268098
H111	H	1.011841	0.264379	0.245140
H112	H	1.511841	0.764379	0.745140
H113	H	1.170742	0.015133	0.755078
H114	H	1.670742	0.515133	1.255078
F115	F	1.181649	-0.002054	0.447006
F116	F	1.681649	0.497946	0.947006
F117	F	1.245680	-0.239462	0.000135
F118	F	1.745680	0.260538	0.500135
F119	F	1.181672	-0.002044	0.553193
F120	F	1.681672	0.497956	1.053193
F121	F	0.840312	-0.517653	0.000067
F122	F	1.340312	-0.017653	0.500067
F123	F	1.321488	-0.591000	0.000148
F124	F	1.821488	-0.091000	0.500148
H125	H	0.383724	0.302110	0.000123
H126	H	0.883724	0.802110	0.500123
H127	H	0.877232	-0.145666	0.000082
H128	H	1.377232	0.354334	0.500082
F129	F	0.664339	0.331055	0.000094
F130	F	1.164339	0.831055	0.500094
F131	F	1.181641	-0.002056	0.232120
F132	F	1.681641	0.497944	0.732120
F133	F	0.973644	-0.651308	-0.000021
F134	F	1.473644	-0.151308	0.499979
H135	H	0.553882	0.305729	0.000096
H136	H	1.053882	0.805729	0.500096
H137	H	0.798860	-0.022579	0.000096
H138	H	1.298860	0.477421	0.500096
F139	F	0.803583	-0.347375	0.000048
F140	F	1.303583	0.152625	0.500048
F141	F	1.000925	0.281570	0.553209
F142	F	1.500925	0.781570	1.053209
H143	H	1.011859	0.264381	0.434005
H144	H	1.511859	0.764381	0.934005
H145	H	0.509578	-0.028735	0.000120
H146	H	1.009578	0.471265	0.500120
F147	F	0.324641	-0.055642	0.000157
F148	F	0.824641	0.444358	0.500157
H149	H	0.628700	-0.026192	0.000124
H150	H	1.128700	0.473808	0.500124
F151	F	1.185240	-0.178890	0.000130
F152	F	1.685240	0.321110	0.500130
