data_functionalizedCrystal
_audit_creation_method	'MofGen! by Chris Wilmer'
_symmetry_space_group_name_H-M	'P1'
_symmetry_Int_Tables_number	1
_symmetry_cell_setting	triclinic
loop_
_symmetry_equiv_pos_as_xyz
  x,y,z
_cell_length_a	6.394989
_cell_length_b	16.992694
_cell_length_c	15.455313
_cell_angle_alpha	92.865953
_cell_angle_beta	87.251077
_cell_angle_gamma	88.582967
loop_
_atom_site_label
_atom_site_type_symbol
_atom_site_fract_x
_atom_site_fract_y
_atom_site_fract_z
O1	O	-0.452196	-1.041422	0.072013
O2	O	-0.447332	-0.813087	0.072039
O3	O	-0.146241	-0.930496	0.072026
O4	O	-0.753287	-0.924014	0.072026
O5	O	-0.129078	-0.937203	-0.072237
O6	O	-0.430169	-0.819794	-0.072224
O7	O	-0.435033	-1.048129	-0.072250
Cu8	Cu	-0.431034	-0.934574	-0.085409
Cu9	Cu	-0.451331	-0.926642	0.085198
O10	O	-0.736124	-0.930721	-0.072237
C11	C	-0.432490	-0.787166	-0.000089
C12	C	-0.413810	-0.699937	-0.000079
N13	N	-0.465593	-0.921064	0.205194
C14	C	-0.449875	-1.074050	-0.000120
C15	C	-0.468556	-1.161279	-0.000124
C16	C	-0.059624	-0.932567	-0.000102
C17	C	0.177264	-0.928650	-0.000100
N18	N	-0.416757	-0.940158	-0.205405
C19	C	-0.594058	-0.651478	-0.000080
C20	C	-0.576491	-0.569518	-0.000092
C21	C	-0.378675	-0.536019	-0.000097
C22	C	-0.198413	-0.584485	-0.000099
C23	C	-0.215981	-0.666443	-0.000093
C24	C	-0.305863	-0.291703	-0.000120
C25	C	-0.288308	-0.209738	-0.000123
C26	C	-0.666388	-0.194777	-0.000118
C27	C	-0.683939	-0.276738	-0.000107
C28	C	-0.503677	-0.325196	-0.000113
N29	N	-0.360715	-0.452243	-0.000106
N30	N	-0.521638	-0.408971	-0.000110
C31	C	-0.337958	-0.971043	0.250583
C32	C	-0.348739	-0.966823	0.341392
C33	C	-0.487145	-0.912619	0.386809
C34	C	-0.614794	-0.862638	0.341414
C35	C	-0.604022	-0.866862	0.250608
C36	C	-0.533634	-0.894402	0.658393
C37	C	-0.544391	-0.890179	0.749206
C38	C	-0.278338	-0.994366	0.749177
C39	C	-0.267570	-0.998583	0.658369
C40	C	-0.395226	-0.948604	0.612981
N41	N	-0.498163	-0.908302	0.479630
N42	N	-0.384217	-0.952925	0.520162
H43	H	-0.755141	-0.678746	-0.000075
H44	H	-0.159079	-0.331149	-0.000126
C45	C	-0.017707	-0.719752	-0.000090
C46	C	0.149568	-0.718149	-0.075004
C47	C	0.347848	-0.771458	-0.075006
C48	C	0.378854	-0.826370	-0.000094
C49	C	0.211573	-0.827976	0.074825
C50	C	0.013293	-0.774667	0.074827
H51	H	0.126621	-0.677497	-0.130463
H52	H	0.471680	-0.770268	-0.130467
H53	H	0.525633	-0.865833	-0.000096
H54	H	0.234521	-0.868628	0.130285
H55	H	-0.110539	-0.775856	0.130288
C56	C	-0.208334	-1.021796	0.391324
C57	C	0.031652	-1.018872	0.378832
C58	C	0.172059	-1.073847	0.428766
C59	C	0.072480	-1.131748	0.491192
C60	C	-0.167519	-1.134675	0.503686
C61	C	-0.307926	-1.079699	0.453752
H62	H	0.105377	-0.976008	0.332618
H63	H	0.349723	-1.071680	0.419516
H64	H	0.176418	-1.172444	0.528156
H65	H	-0.241244	-1.177538	0.549900
H66	H	-0.485590	-1.081866	0.463002
C67	C	-0.864664	-0.141472	-0.000120
C68	C	-1.031944	-0.143073	0.074793
C69	C	-1.230229	-0.089767	0.074788
C70	C	-1.261235	-0.034861	-0.000129
C71	C	-1.093950	-0.033258	-0.075047
C72	C	-0.895665	-0.086563	-0.075043
H73	H	-1.008996	-0.183720	0.130256
H74	H	-1.354064	-0.090954	0.130248
H75	H	-1.408018	0.004599	-0.000133
H76	H	-1.116898	0.007389	-0.130511
H77	H	-0.771829	-0.085376	-0.130502
H78	H	-0.723269	-0.530065	-0.000092
H79	H	-0.127215	-0.182467	-0.000126
H80	H	-0.727498	-0.818506	0.378399
C81	C	-0.675486	-0.839683	0.608798
C82	C	-0.659675	-0.749587	0.621292
C83	C	-0.802229	-0.694991	0.571848
C84	C	-0.960594	-0.730491	0.509910
C85	C	-0.976412	-0.820592	0.497413
C86	C	-0.833858	-0.875188	0.546857
H87	H	-0.542438	-0.723303	0.667145
H88	H	-0.790518	-0.628291	0.581100
H89	H	-1.066121	-0.690076	0.473309
H90	H	-1.093649	-0.846876	0.451561
H91	H	-0.845569	-0.941888	0.537606
H92	H	-0.845022	-0.304006	-0.000093
H93	H	-0.037345	-0.557204	-0.000115
H94	H	-0.225244	-1.015178	0.213610
H95	H	-0.154869	-1.042720	0.621391
H96	H	-0.174409	-1.035057	0.786140
H97	H	-0.657104	-0.846037	0.786181
H98	H	-0.707959	-0.826165	0.213653
