data_functionalizedCrystal
_audit_creation_method	'MofGen! by Chris Wilmer'
_symmetry_space_group_name_H-M	'P1'
_symmetry_Int_Tables_number	1
_symmetry_cell_setting	triclinic
loop_
_symmetry_equiv_pos_as_xyz
  x,y,z
_cell_length_a	16.109302
_cell_length_b	16.109301
_cell_length_c	14.048226
_cell_angle_alpha	89.992144
_cell_angle_beta	89.991597
_cell_angle_gamma	83.461631
loop_
_atom_site_label
_atom_site_type_symbol
_atom_site_fract_x
_atom_site_fract_y
_atom_site_fract_z
O1	O	1.103134	0.106872	-0.079206
O2	O	1.603134	0.606872	0.420794
O3	O	0.861072	0.120171	-0.079199
O4	O	1.361072	0.620171	0.420801
O5	O	0.988752	-0.007510	-0.079193
O6	O	1.488752	0.492490	0.420807
O7	O	0.975453	0.234552	-0.079212
O8	O	1.475453	0.734552	0.420788
O9	O	0.988737	-0.007517	0.079128
O10	O	1.488737	0.492483	0.579128
O11	O	0.861056	0.120163	0.079122
O12	O	1.361056	0.620163	0.579122
O13	O	1.103118	0.106864	0.079115
O14	O	1.603118	0.606864	0.579115
Zn15	Zn	0.982085	0.113512	0.104255
Zn16	Zn	1.482085	0.613512	0.604255
Zn17	Zn	0.982105	0.113522	-0.104340
Zn18	Zn	1.482105	0.613522	0.395660
O19	O	0.975438	0.234545	0.079109
O20	O	1.475438	0.734545	0.579109
C21	C	0.830089	0.119628	-0.000038
C22	C	1.330089	0.619628	0.499962
C23	C	0.737794	0.118013	-0.000035
C24	C	1.237794	0.618013	0.499965
C25	C	0.988206	-0.038488	-0.000032
C26	C	1.488206	0.461512	0.499968
C27	C	0.986591	-0.130784	-0.000031
C28	C	1.486591	0.369216	0.499969
C29	C	0.525445	0.114273	0.086257
C30	C	1.025445	0.614273	0.586257
C31	C	0.438725	0.112747	0.086254
C32	C	0.938725	0.612747	0.586254
C33	C	0.438752	0.112759	-0.086357
C34	C	0.938752	0.612759	0.413643
C35	C	0.525471	0.114280	-0.086352
C36	C	1.025471	0.614280	0.413648
C37	C	0.568815	0.115041	-0.000043
C38	C	1.068815	0.615041	0.499957
C39	C	0.395375	0.111994	-0.000050
C40	C	0.895375	0.611994	0.499950
C41	C	0.301350	0.110338	-0.000054
C42	C	0.801350	0.610338	0.499946
C43	C	0.662847	0.116695	-0.000038
C44	C	1.162847	0.616695	0.499962
C45	C	1.058599	-0.353056	-0.000048
C46	C	1.558599	0.146944	0.499952
C47	C	1.057074	-0.439776	-0.000056
C48	C	1.557074	0.060224	0.499944
C49	C	0.905586	-0.419902	-0.000048
C50	C	1.405586	0.080098	0.499952
C51	C	0.907111	-0.333184	-0.000047
C52	C	1.407111	0.166816	0.499953
C53	C	0.983620	-0.299763	-0.000042
C54	C	1.483620	0.200237	0.499958
C55	C	0.980571	-0.473202	-0.000051
C56	C	1.480571	0.026798	0.499949
C57	C	0.978918	-0.567228	-0.000059
C58	C	1.478918	-0.067228	0.499941
C59	C	0.985273	-0.205731	-0.000035
C60	C	1.485273	0.294269	0.499965
C61	C	1.134101	0.107407	-0.000049
C62	C	1.634101	0.607407	0.499951
C63	C	1.226396	0.109022	-0.000058
C64	C	1.726396	0.609022	0.499942
C65	C	0.975984	0.265523	-0.000054
C66	C	1.475984	0.765523	0.499946
C67	C	0.977599	0.357819	-0.000062
C68	C	1.477599	0.857819	0.499938
N69	N	0.982077	0.113505	0.246616
N70	N	1.482077	0.613505	0.746616
N71	N	0.982119	0.113523	-0.246700
N72	N	1.482119	0.613523	0.253300
C73	C	1.038632	0.056992	0.296437
C74	C	1.538632	0.556992	0.796437
C75	C	1.038638	0.056991	0.396094
C76	C	1.538638	0.556991	0.896094
C77	C	0.982092	0.113509	0.445930
C78	C	1.482092	0.613509	0.945930
C79	C	0.925531	0.170025	0.396102
C80	C	1.425531	0.670025	0.896102
C81	C	0.925522	0.170021	0.296446
C82	C	1.425522	0.670021	0.796446
C83	C	0.925555	0.170031	0.603816
C84	C	1.425555	0.670031	1.103816
C85	C	0.925565	0.170037	0.703479
C86	C	1.425565	0.670037	1.203479
C87	C	1.038670	0.057001	0.703465
C88	C	1.538670	0.557001	1.203465
C89	C	1.038662	0.056997	0.603809
C90	C	1.538662	0.556997	1.103809
C91	C	0.982102	0.113515	0.553988
C92	C	1.482102	0.613515	1.053988
H93	H	0.560732	0.114893	0.156536
H94	H	1.060732	0.614893	0.656536
H95	H	0.843295	-0.447124	-0.000049
H96	H	1.343295	0.052876	0.499951
F97	F	0.392617	0.111932	-0.178208
F98	F	0.892617	0.611932	0.321792
H99	H	0.403417	0.112122	0.156528
H100	H	0.903417	0.612122	0.656528
F101	F	0.865379	0.230190	0.756510
F102	F	1.365379	0.730190	1.256510
H103	H	1.084709	0.010980	0.563233
H104	H	1.584709	0.510980	1.063233
H105	H	1.084723	0.010983	0.744034
H106	H	1.584723	0.510983	1.244034
F107	F	0.865354	0.230182	0.550797
F108	F	1.365354	0.730182	1.050797
F109	F	0.865346	0.230172	0.449141
F110	F	1.365346	0.730172	0.949141
H111	H	0.879469	0.216039	0.255883
H112	H	1.379469	0.716039	0.755883
H113	H	0.560784	0.114903	-0.156632
H114	H	1.060784	0.614903	0.343368
H115	H	1.118130	-0.483165	-0.000063
H116	H	1.618130	0.016835	0.499937
F117	F	1.140026	-0.317490	-0.000044
F118	F	1.640026	0.182510	0.499956
H119	H	0.846050	-0.289790	-0.000045
H120	H	1.346050	0.210210	0.499955
H121	H	1.084688	0.010973	0.436658
H122	H	1.584688	0.510973	0.936658
F123	F	1.098821	-0.003160	0.243408
F124	F	1.598821	0.496840	0.743408
