data_functionalizedCrystal
_audit_creation_method	'MofGen! by Chris Wilmer'
_symmetry_space_group_name_H-M	'P1'
_symmetry_Int_Tables_number	1
_symmetry_cell_setting	triclinic
loop_
_symmetry_equiv_pos_as_xyz
  x,y,z
_cell_length_a	10.654541
_cell_length_b	16.098524
_cell_length_c	10.654555
_cell_angle_alpha	93.038108
_cell_angle_beta	84.486741
_cell_angle_gamma	93.039506
loop_
_atom_site_label
_atom_site_type_symbol
_atom_site_fract_x
_atom_site_fract_y
_atom_site_fract_z
O1	O	1.672906	0.069226	0.181438
O2	O	1.307428	0.069233	0.198247
O3	O	1.498563	0.069229	0.007104
O4	O	1.481771	0.069230	0.372581
O5	O	1.488432	-0.069284	-0.003015
O6	O	1.297297	-0.069281	0.188129
O7	O	1.662775	-0.069287	0.171319
Zn8	Zn	1.478428	-0.091276	0.178117
Zn9	Zn	1.491776	0.091221	0.191449
O10	O	1.471640	-0.069284	0.362462
C11	C	1.255565	-0.000023	0.191955
C12	C	1.116121	-0.000020	0.188264
N13	N	1.469327	-0.215825	0.169018
C14	C	1.088160	-0.000009	0.416828
C15	C	1.008671	-0.000001	0.529371
C16	C	0.877653	0.000000	0.525896
C17	C	0.826122	-0.000010	0.409865
C18	C	0.905611	-0.000019	0.297321
C19	C	1.036631	-0.000017	0.300810
C20	C	0.933572	-0.000036	0.068760
C21	C	1.064590	-0.000031	0.072233
C22	C	0.882041	-0.000046	-0.047272
C23	C	0.961531	-0.000049	-0.159817
C24	C	1.092556	-0.000049	-0.156337
C25	C	1.144079	-0.000039	-0.040311
C26	C	1.542977	-0.259408	0.242717
C27	C	1.536628	-0.346597	0.236343
C28	C	1.456621	-0.390202	0.156277
C29	C	1.382968	-0.346613	0.082570
C30	C	1.389324	-0.259425	0.088938
C31	C	1.433590	-0.653453	0.133199
C32	C	1.427235	-0.740646	0.126840
C33	C	1.580898	-0.740625	0.280612
C34	C	1.587243	-0.653435	0.286978
C35	C	1.513594	-0.609854	0.213266
C36	C	1.450126	-0.479323	0.149763
C37	C	1.520097	-0.520734	0.219774
C38	C	1.714639	-0.000030	0.177612
C39	C	1.854082	-0.000027	0.181303
C40	C	1.492261	-0.000026	-0.044753
C41	C	1.488564	-0.000021	-0.184195
N42	N	1.500886	0.215771	0.200538
C43	C	1.470579	-0.151038	-0.457258
C44	C	1.466788	-0.226543	-0.397259
C45	C	1.470256	-0.226543	-0.266240
C46	C	1.477513	-0.151030	-0.195216
C47	C	1.481304	-0.075525	-0.255215
C48	C	1.477839	-0.075533	-0.386238
C49	C	1.492356	0.075484	-0.244194
C50	C	1.488896	0.075486	-0.375214
C51	C	1.499612	0.150997	-0.173170
C52	C	1.503413	0.226504	-0.233170
C53	C	1.499945	0.226501	-0.364197
C54	C	1.492687	0.150991	-0.435213
C55	C	1.477942	-0.000027	0.414319
C56	C	1.481639	-0.000027	0.553762
H57	H	1.050642	0.000006	0.623842
H58	H	1.194842	0.000008	0.419671
H59	H	1.509312	0.287980	-0.175331
O60	O	1.503669	0.299923	-0.422280
C61	C	1.514854	0.449708	-0.397486
C62	C	1.510691	0.366618	-0.331560
H63	H	1.520505	0.503653	-0.324166
H64	H	1.601261	0.453556	-0.469247
H65	H	1.425776	0.453424	-0.447856
H66	H	1.599707	0.362846	-0.281119
H67	H	1.424226	0.362805	-0.259869
O68	O	1.620804	-0.217183	0.320521
C69	C	1.772493	-0.226374	0.472420
C70	C	1.684425	-0.274294	0.384341
H71	H	1.823934	-0.272527	0.524062
H72	H	1.844375	-0.185573	0.414333
H73	H	1.714289	-0.185537	0.544143
H74	H	1.742524	-0.315176	0.312602
H75	H	1.612540	-0.315043	0.442510
O76	O	0.754796	-0.000080	-0.050880
C77	C	0.582128	-0.000028	-0.181289
C78	C	0.726251	-0.000015	-0.177381
H79	H	0.559006	0.000042	-0.283554
H80	H	0.536053	-0.058002	-0.135887
H81	H	0.544631	0.057933	-0.127299
H82	H	0.763860	-0.057937	-0.231383
H83	H	0.772239	0.057998	-0.222741
H84	H	0.812932	0.000002	0.617538
H85	H	1.652397	-0.617938	0.352173
H86	H	0.719439	-0.000020	0.407044
O87	O	1.608315	-0.388967	0.307747
C88	C	1.770740	-0.487414	0.309397
C89	C	1.689648	-0.439471	0.228380
H90	H	1.836498	-0.528271	0.245263
H91	H	1.829098	-0.441306	0.367688
H92	H	1.706581	-0.528204	0.375236
H93	H	1.753713	-0.398680	0.162469
H94	H	1.631278	-0.485624	0.170174
H95	H	0.919563	-0.000057	-0.254281
O96	O	1.169905	0.000054	-0.265572
C97	C	1.339240	0.071832	-0.389107
C98	C	1.251749	0.071809	-0.265330
H99	H	1.405414	0.129848	-0.388964
H100	H	1.397133	0.013905	-0.397432
H101	H	1.279870	0.071783	-0.472608
H102	H	1.311022	0.071887	-0.181758
H103	H	1.193849	0.129731	-0.257116
O104	O	1.652630	-0.782869	0.352137
C105	C	1.862487	-0.809560	0.401136
C106	C	1.781391	-0.761653	0.320076
H107	H	1.966607	-0.792438	0.375226
H108	H	1.836742	-0.792402	0.505274
H109	H	1.844140	-0.879361	0.382859
H110	H	1.799696	-0.691841	0.338244
H111	H	1.807151	-0.778881	0.215964
H112	H	1.362077	-0.776147	0.061640
H113	H	1.250760	-0.000030	-0.037465
O114	O	1.361916	-0.611254	0.061562
C115	C	1.208881	-0.620485	-0.091679
C116	C	1.289966	-0.668382	-0.010595
H117	H	1.150709	-0.666652	-0.150058
H118	H	1.142948	-0.579692	-0.027634
H119	H	1.273037	-0.579641	-0.157440
H120	H	1.225908	-0.709271	0.055176
H121	H	1.355911	-0.709123	-0.074714
H122	H	1.502429	0.150992	-0.066487
H123	H	1.317830	-0.382123	0.017372
H124	H	1.585243	-0.485228	0.284959
H125	H	1.489869	0.150982	-0.541897
H126	H	1.467146	-0.288026	-0.217387
O127	O	1.317587	-0.217124	0.017490
C128	C	1.107744	-0.190503	-0.031634
C129	C	1.188832	-0.238445	0.049389
H130	H	1.003632	-0.207737	-0.005892
H131	H	1.125922	-0.120689	-0.013324
H132	H	1.133666	-0.207638	-0.135748
H133	H	1.162959	-0.221380	0.153529
H134	H	1.170644	-0.308248	0.030972
H135	H	1.384983	-0.514836	0.084574
H136	H	1.480322	-0.151037	-0.088533
H137	H	1.467768	-0.151045	-0.563943
O138	O	1.459580	-0.299839	-0.466370
C139	C	1.340619	-0.387506	-0.607367
C140	C	1.348639	-0.304462	-0.529185
H141	H	1.250917	-0.391279	-0.658153
H142	H	1.426397	-0.391292	-0.679781
H143	H	1.338569	-0.441457	-0.541964
H144	H	1.350650	-0.250464	-0.594489
H145	H	1.262863	-0.300749	-0.456759
