data_functionalizedCrystal
_audit_creation_method	'MofGen! by Chris Wilmer'
_symmetry_space_group_name_H-M	'P1'
_symmetry_Int_Tables_number	1
_symmetry_cell_setting	triclinic
loop_
_symmetry_equiv_pos_as_xyz
  x,y,z
_cell_length_a	27.732048
_cell_length_b	27.731993
_cell_length_c	26.809956
_cell_angle_alpha	90.002784
_cell_angle_beta	89.999364
_cell_angle_gamma	82.631525
loop_
_atom_site_label
_atom_site_type_symbol
_atom_site_fract_x
_atom_site_fract_y
_atom_site_fract_z
O1	O	0.057385	0.640948	-0.041351
O2	O	0.390718	0.974282	0.291983
O3	O	0.724051	1.307615	0.625316
O4	O	0.066158	0.500151	-0.041382
O5	O	0.399491	0.833484	0.291951
O6	O	0.732824	1.166818	0.625285
O7	O	-0.008626	0.574923	-0.041356
O8	O	0.324707	0.908256	0.291977
O9	O	0.658040	1.241589	0.625311
O10	O	0.132169	0.566177	-0.041377
O11	O	0.465502	0.899510	0.291957
O12	O	0.798835	1.232844	0.625290
O13	O	-0.008615	0.574908	0.041603
O14	O	0.324718	0.908242	0.374937
O15	O	0.658052	1.241575	0.708270
O16	O	0.066169	0.500137	0.041577
O17	O	0.399502	0.833470	0.374911
O18	O	0.732836	1.166804	0.708244
O19	O	0.057396	0.640934	0.041609
O20	O	0.390729	0.974268	0.374942
O21	O	0.724063	1.307601	0.708275
Zn22	Zn	0.061784	0.570533	0.054764
Zn23	Zn	0.395118	0.903867	0.388098
Zn24	Zn	0.728451	1.237200	0.721431
Zn25	Zn	0.061769	0.570552	-0.054538
Zn26	Zn	0.395103	0.903885	0.278795
Zn27	Zn	0.728436	1.237219	0.612129
O28	O	0.132180	0.566163	0.041582
O29	O	0.465513	0.899496	0.374916
O30	O	0.798847	1.232829	0.708249
C31	C	0.065983	0.482137	0.000094
C32	C	0.399317	0.815470	0.333427
C33	C	0.732650	1.148803	0.666761
C34	C	0.065441	0.428480	0.000082
C35	C	0.398774	0.761814	0.333416
C36	C	0.732108	1.095147	0.666749
C37	C	0.061504	0.045328	-0.045114
C38	C	0.394838	0.378661	0.288219
C39	C	0.728171	0.711994	0.621553
C40	C	0.063571	0.246985	-0.045128
C41	C	0.396905	0.580319	0.288206
C42	C	0.730238	0.913652	0.621539
O43	O	0.063814	0.273065	-0.083588
O44	O	0.397147	0.606398	0.249746
O45	O	0.730480	0.939732	0.583079
N46	N	0.063836	0.272198	0.000092
N47	N	0.397169	0.605531	0.333426
N48	N	0.730503	0.938864	0.666759
C49	C	0.063581	0.246993	0.045319
C50	C	0.396914	0.580327	0.378652
C51	C	0.730248	0.913660	0.711986
O52	O	0.063849	0.273066	0.083781
O53	O	0.397182	0.606399	0.417114
O54	O	0.730515	0.939733	0.750448
C55	C	0.061510	0.045337	0.045332
C56	C	0.394844	0.378671	0.378666
C57	C	0.728177	0.712004	0.711999
C58	C	0.061251	0.020127	0.000109
C59	C	0.394584	0.353460	0.333443
C60	C	0.727917	0.686793	0.666776
C61	C	0.061244	0.020117	-0.090333
C62	C	0.394577	0.353451	0.243000
C63	C	0.727910	0.686784	0.576333
C64	C	0.060730	-0.030295	-0.090329
C65	C	0.394063	0.303039	0.243004
C66	C	0.727396	0.636372	0.576337
C67	C	0.060476	-0.055496	-0.045106
C68	C	0.393809	0.277838	0.288227
C69	C	0.727143	0.611171	0.621561
C70	C	0.060736	-0.030285	0.000113
C71	C	0.394070	0.303048	0.333447
C72	C	0.727403	0.636382	0.666780
C73	C	0.061252	0.020134	0.090558
C74	C	0.394585	0.353468	0.423892
C75	C	0.727919	0.686801	0.757225
C76	C	0.060733	-0.030283	0.090558
C77	C	0.394066	0.303051	0.423891
C78	C	0.727400	0.636384	0.757224
C79	C	0.060473	-0.055493	0.045335
C80	C	0.393806	0.277840	0.378668
C81	C	0.727140	0.611173	0.712001
C82	C	0.059969	-0.105898	0.045340
C83	C	0.393302	0.227436	0.378674
C84	C	0.726635	0.560769	0.712007
N85	N	0.059704	-0.131110	0.000120
N86	N	0.393037	0.202223	0.333454
N87	N	0.726371	0.535556	0.666787
C88	C	0.059958	-0.105909	-0.045103
C89	C	0.393291	0.227424	0.288230
C90	C	0.726624	0.560757	0.621564
C91	C	0.064669	0.352866	0.045309
C92	C	0.398002	0.686199	0.378642
C93	C	0.731336	1.019532	0.711975
C94	C	0.065187	0.403279	0.045306
C95	C	0.398521	0.736613	0.378639
C96	C	0.731854	1.069946	0.711972
C97	C	0.065177	0.403268	-0.045141
C98	C	0.398510	0.736601	0.288192
C99	C	0.731843	1.069934	0.621525
C100	C	0.064662	0.352853	-0.045138
C101	C	0.397995	0.686186	0.288196
C102	C	0.731328	1.019519	0.621529
C103	C	0.064404	0.327653	0.000089
C104	C	0.397737	0.660986	0.333422
C105	C	0.731071	0.994320	0.666755
C106	C	0.058878	-0.211777	-0.045091
C107	C	0.392212	0.121556	0.288242
C108	C	0.725545	0.454889	0.621575
C109	C	0.058366	-0.262194	-0.045083
C110	C	0.391700	0.071139	0.288250
C111	C	0.725033	0.404473	0.621583
C112	C	0.058374	-0.262178	0.045363
C113	C	0.391708	0.071156	0.378697
C114	C	0.725041	0.404489	0.712030
C115	C	0.058889	-0.211766	0.045356
C116	C	0.392222	0.121567	0.378689
C117	C	0.725556	0.454901	0.712022
C118	C	0.059139	-0.186567	0.000124
C119	C	0.392473	0.146766	0.333458
C120	C	0.725806	0.480100	0.666791
O121	O	0.059720	-0.132008	0.083780
O122	O	0.393054	0.201326	0.417113
O123	O	0.726387	0.534659	0.750447
O124	O	0.059679	-0.131989	-0.083559
O125	O	0.393012	0.201344	0.249774
O126	O	0.726346	0.534678	0.583107
C127	C	0.062018	0.095740	-0.045118
C128	C	0.395352	0.429073	0.288215
C129	C	0.728685	0.762406	0.621549
C130	C	0.062279	0.120950	0.000101
C131	C	0.395612	0.454283	0.333435
C132	C	0.728945	0.787617	0.666768
C133	C	0.062025	0.095749	0.045325
C134	C	0.395358	0.429082	0.378658
C135	C	0.728692	0.762416	0.711991
C136	C	0.062797	0.171364	0.000098
C137	C	0.396131	0.504697	0.333432
C138	C	0.729464	0.838030	0.666765
C139	C	0.063051	0.196565	-0.045125
C140	C	0.396384	0.529898	0.288208
C141	C	0.729717	0.863232	0.621542
C142	C	0.062786	0.171352	-0.090345
C143	C	0.396119	0.504686	0.242988
C144	C	0.729453	0.838019	0.576322
C145	C	0.062272	0.120941	-0.090341
C146	C	0.395605	0.454274	0.242992
C147	C	0.728939	0.787607	0.576326
C148	C	0.062290	0.120962	0.090545
C149	C	0.395623	0.454295	0.423878
C150	C	0.728957	0.787628	0.757211
C151	C	0.062805	0.171373	0.090537
C152	C	0.396138	0.504707	0.423870
C153	C	0.729471	0.838040	0.757204
C154	C	0.063058	0.196574	0.045314
C155	C	0.396392	0.529908	0.378647
C156	C	0.729725	0.863241	0.711981
C157	C	-0.026628	0.574732	0.000125
C158	C	0.306706	0.908065	0.333458
C159	C	0.640039	1.241399	0.666792
C160	C	-0.080282	0.574179	0.000129
C161	C	0.253051	0.907512	0.333462
C162	C	0.586384	1.240846	0.666796
C163	C	-0.419105	0.614884	0.000113
C164	C	-0.085772	0.948217	0.333446
C165	C	0.247561	1.281551	0.666779
C166	C	-0.620765	0.612833	0.000105
C167	C	-0.287431	0.946166	0.333438
C168	C	0.045902	1.279500	0.666772
O169	O	-0.652028	0.650055	0.000092
O170	O	-0.318694	0.983388	0.333425
O171	O	0.014639	1.316721	0.666758
N172	N	-0.639880	0.568497	0.000096
N173	N	-0.306546	0.901830	0.333429
N174	N	0.026787	1.235163	0.666762
C175	C	-0.608576	0.524670	0.000085
C176	C	-0.275243	0.858003	0.333418
C177	C	0.058090	1.191336	0.666752
O178	O	-0.629462	0.486912	0.000072
O179	O	-0.296129	0.820245	0.333405
O180	O	0.037204	1.153579	0.666738
C181	C	-0.406918	0.526721	0.000089
C182	C	-0.073585	0.860055	0.333422
C183	C	0.259748	1.193388	0.666755
C184	C	-0.387806	0.571061	0.000103
C185	C	-0.054473	0.904394	0.333437
C186	C	0.278860	1.237727	0.666770
C187	C	-0.399993	0.659220	0.000126
C188	C	-0.066660	0.992553	0.333460
C189	C	0.266674	1.325886	0.666793
C190	C	-0.349581	0.659732	0.000131
C191	C	-0.016248	0.993065	0.333464
C192	C	0.317086	1.326399	0.666798
C193	C	-0.318282	0.615909	0.000122
C194	C	0.015052	0.949242	0.333455
C195	C	0.348385	1.282575	0.666788
C196	C	-0.337394	0.571573	0.000108
C197	C	-0.004061	0.904906	0.333441
C198	C	0.329272	1.238240	0.666774
C199	C	-0.375616	0.482895	0.000074
C200	C	-0.042283	0.816228	0.333408
C201	C	0.291051	1.149562	0.666741
C202	C	-0.325199	0.483412	0.000074
C203	C	0.008135	0.816745	0.333407
C204	C	0.341468	1.150079	0.666741
C205	C	-0.306087	0.527751	0.000089
C206	C	0.027247	0.861085	0.333422
C207	C	0.360580	1.194418	0.666755
C208	C	-0.255683	0.528262	0.000103
C209	C	0.077650	0.861595	0.333436
C210	C	0.410983	1.194928	0.666770
N211	N	-0.236568	0.572598	0.000112
N212	N	0.096765	0.905932	0.333446
N213	N	0.430098	1.239265	0.666779
C214	C	-0.267867	0.616422	0.000122
C215	C	0.065466	0.949755	0.333455
C216	C	0.398799	1.283088	0.666788
C217	C	-0.714450	0.523596	0.000084
C218	C	-0.381117	0.856929	0.333417
C219	C	-0.047784	1.190262	0.666751
C220	C	-0.764865	0.523083	0.000084
C221	C	-0.431531	0.856416	0.333417
C222	C	-0.098198	1.189749	0.666751
C223	C	-0.777049	0.611246	0.000103
C224	C	-0.443716	0.944579	0.333436
C225	C	-0.110383	1.277913	0.666770
C226	C	-0.726634	0.611759	0.000107
C227	C	-0.393301	0.945092	0.333440
C228	C	-0.059967	1.278425	0.666773
C229	C	-0.695335	0.567932	0.000093
C230	C	-0.362002	0.901266	0.333427
C231	C	-0.028669	1.234599	0.666760
C232	C	-0.161998	0.617494	0.000132
C233	C	0.171335	0.950827	0.333465
C234	C	0.504668	1.284161	0.666798
C235	C	-0.111582	0.618003	0.000138
C236	C	0.221752	0.951336	0.333472
C237	C	0.555085	1.284669	0.666805
C238	C	-0.099401	0.529839	0.000117
C239	C	0.233932	0.863173	0.333450
C240	C	0.567265	1.196506	0.666783
C241	C	-0.149814	0.529331	0.000113
C242	C	0.183520	0.862664	0.333446
C243	C	0.516853	1.195997	0.666779
C244	C	-0.181112	0.573162	0.000118
C245	C	0.152222	0.906495	0.333452
C246	C	0.485555	1.239829	0.666785
O247	O	-0.224392	0.491060	0.000111
O248	O	0.108941	0.824393	0.333444
O249	O	0.442275	1.157727	0.666778
O250	O	-0.246972	0.654174	0.000124
O251	O	0.086361	0.987507	0.333457
O252	O	0.419694	1.320841	0.666791
C253	C	-0.469517	0.614372	0.000108
C254	C	-0.136184	0.947705	0.333441
C255	C	0.197149	1.281038	0.666775
C256	C	-0.488630	0.570036	0.000094
C257	C	-0.155297	0.903369	0.333427
C258	C	0.178037	1.236703	0.666761
C259	C	-0.457331	0.526213	0.000085
C260	C	-0.123997	0.859546	0.333418
C261	C	0.209336	1.192879	0.666751
C262	C	-0.539044	0.569523	0.000094
C263	C	-0.205711	0.902856	0.333427
C264	C	0.127622	1.236190	0.666761
C265	C	-0.570343	0.613346	0.000103
C266	C	-0.237010	0.946680	0.333437
C267	C	0.096323	1.280013	0.666770
C268	C	-0.551228	0.657683	0.000113
C269	C	-0.217895	0.991016	0.333446
C270	C	0.115438	1.324349	0.666779
C271	C	-0.500817	0.658195	0.000117
C272	C	-0.167483	0.991528	0.333451
C273	C	0.165850	1.324862	0.666784
C274	C	-0.476446	0.481876	0.000075
C275	C	-0.143112	0.815210	0.333409
C276	C	0.190221	1.148543	0.666742
C277	C	-0.526858	0.481368	0.000071
C278	C	-0.193525	0.814701	0.333405
C279	C	0.139809	1.148034	0.666738
C280	C	-0.558157	0.525191	0.000081
C281	C	-0.224824	0.858524	0.333414
C282	C	0.108509	1.191858	0.666747
C283	C	0.150181	0.566353	0.000100
C284	C	0.483515	0.899687	0.333434
C285	C	0.816848	1.233020	0.666767
C286	C	0.203836	0.566906	0.000093
C287	C	0.537169	0.900239	0.333426
C288	C	0.870503	1.233573	0.666760
C289	C	0.057570	0.658949	0.000132
C290	C	0.390904	0.992282	0.333465
C291	C	0.724237	1.325615	0.666798
C292	C	0.058113	0.712605	0.000140
C293	C	0.391446	1.045938	0.333473
C294	C	0.724779	1.379272	0.666807
N295	N	0.061794	0.570524	0.129360
N296	N	0.395128	0.903858	0.462694
N297	N	0.728461	1.237191	0.796027
N298	N	0.061756	0.570565	-0.129134
N299	N	0.395089	0.903898	0.204199
N300	N	0.728422	1.237232	0.537533
C301	C	0.028663	0.603656	0.473998
C302	C	0.361996	0.936990	0.807331
C303	C	0.695330	1.270323	1.140665
C304	C	0.028656	0.603668	0.682876
C305	C	0.361989	0.937001	1.016209
C306	C	0.695322	1.270335	1.349542
O307	O	0.000489	0.631819	0.709889
O308	O	0.333823	0.965152	1.043223
O309	O	0.667156	1.298485	1.376556
N310	N	0.061759	0.570555	0.708988
N311	N	0.395092	0.903888	1.042321
N312	N	0.728425	1.237221	1.375654
C313	C	0.094864	0.537434	0.682877
C314	C	0.428197	0.870767	1.016210
C315	C	0.761530	1.204101	1.349543
O316	O	0.123016	0.509266	0.709879
O317	O	0.456350	0.842599	1.043213
O318	O	0.789683	1.175933	1.376546
C319	C	0.094869	0.537421	0.474000
C320	C	0.428202	0.870754	0.807333
C321	C	0.761535	1.204087	1.140667
C322	C	0.061767	0.570539	0.447891
C323	C	0.395100	0.903873	0.781224
C324	C	0.728433	1.237206	1.114558
C325	C	-0.004437	0.636772	0.447889
C326	C	0.328897	0.970106	0.781222
C327	C	0.662230	1.303439	1.114556
C328	C	-0.004433	0.636771	0.395673
C329	C	0.328901	0.970104	0.729006
C330	C	0.662234	1.303437	1.062339
C331	C	0.028671	0.603654	0.369565
C332	C	0.362004	0.936987	0.702899
C333	C	0.695338	1.270320	1.036232
C334	C	0.061771	0.570538	0.395675
C335	C	0.395104	0.903871	0.729008
C336	C	0.728437	1.237205	1.062341
C337	C	0.127971	0.504298	0.447890
C338	C	0.461304	0.837631	0.781223
C339	C	0.794638	1.170965	1.114557
C340	C	0.127968	0.504297	0.395668
C341	C	0.461302	0.837630	0.729001
C342	C	0.794635	1.170963	1.062334
C343	C	0.094867	0.537415	0.369559
C344	C	0.428200	0.870749	0.702892
C345	C	0.761533	1.204082	1.036225
C346	C	0.094878	0.537419	0.317351
C347	C	0.428211	0.870753	0.650685
C348	C	0.761545	1.204086	0.984018
N349	N	0.061775	0.570533	0.291239
N350	N	0.395108	0.903866	0.624573
N351	N	0.728442	1.237199	0.957906
C352	C	0.028671	0.603650	0.317347
C353	C	0.362005	0.936983	0.650680
C354	C	0.695338	1.270316	0.984013
C355	C	0.094860	0.537444	0.792540
C356	C	0.428193	0.870777	1.125873
C357	C	0.761526	1.204111	1.459207
C358	C	0.094859	0.537448	0.844759
C359	C	0.428192	0.870781	1.178092
C360	C	0.761526	1.204114	1.511426
C361	C	0.028650	0.603681	0.844754
C362	C	0.361983	0.937015	1.178088
C363	C	0.695317	1.270348	1.511421
C364	C	0.028653	0.603679	0.792534
C365	C	0.361987	0.937013	1.125868
C366	C	0.695320	1.270346	1.459201
C367	C	0.061757	0.570557	0.766428
C368	C	0.395090	0.903891	1.099762
C369	C	0.728423	1.237224	1.433095
C370	C	0.028683	0.603644	0.207689
C371	C	0.362016	0.936978	0.541022
C372	C	0.695349	1.270311	0.874355
C373	C	0.028691	0.603641	0.155468
C374	C	0.362024	0.936975	0.488801
C375	C	0.695357	1.270308	0.822134
C376	C	0.094898	0.537406	0.155477
C377	C	0.428231	0.870740	0.488810
C378	C	0.761564	1.204073	0.822143
C379	C	0.094891	0.537411	0.207693
C380	C	0.428225	0.870744	0.541026
C381	C	0.761558	1.204078	0.874360
C382	C	0.061780	0.570532	0.233798
C383	C	0.395113	0.903865	0.567131
C384	C	0.728446	1.237198	0.900464
O385	O	0.123026	0.509280	0.290305
O386	O	0.456359	0.842613	0.623639
O387	O	0.789693	1.175946	0.956972
O388	O	0.000516	0.631806	0.290335
O389	O	0.333849	0.965140	0.623668
O390	O	0.667183	1.298473	0.957002
C391	C	0.028659	0.603658	0.526214
C392	C	0.361992	0.936991	0.859548
C393	C	0.695326	1.270325	1.192881
C394	C	0.061759	0.570542	0.552324
C395	C	0.395092	0.903876	0.885657
C396	C	0.728425	1.237209	1.218990
C397	C	0.094862	0.537425	0.526216
C398	C	0.428196	0.870758	0.859550
C399	C	0.761529	1.204092	1.192883
C400	C	0.061758	0.570546	0.604542
C401	C	0.395092	0.903879	0.937876
C402	C	0.728425	1.237213	1.271209
C403	C	0.028655	0.603663	0.630650
C404	C	0.361988	0.936997	0.963983
C405	C	0.695321	1.270330	1.297316
C406	C	-0.004448	0.636777	0.604538
C407	C	0.328885	0.970110	0.937871
C408	C	0.662218	1.303443	1.271204
C409	C	-0.004444	0.636775	0.552322
C410	C	0.328889	0.970108	0.885655
C411	C	0.662222	1.303442	1.218988
C412	C	0.127965	0.504312	0.552328
C413	C	0.461299	0.837645	0.885661
C414	C	0.794632	1.170978	1.218995
C415	C	0.127959	0.504316	0.604545
C416	C	0.461292	0.837650	0.937878
C417	C	0.794626	1.170983	1.271211
C418	C	0.094855	0.537433	0.630652
C419	C	0.428189	0.870767	0.963985
C420	C	0.761522	1.204100	1.297318
H421	H	0.061449	0.040631	-0.127161
H422	H	0.394782	0.373964	0.206172
H423	H	0.728115	0.707297	0.539505
Br424	Br	-0.085647	0.678181	0.000158
Br425	Br	0.247686	1.011515	0.333492
Br426	Br	0.581019	1.344848	0.666825
H427	H	0.060516	-0.050816	-0.127155
H428	H	0.393849	0.282517	0.206179
H429	H	0.727182	0.615850	0.539512
Br430	Br	-0.552789	0.421187	0.000056
Br431	Br	-0.219455	0.754520	0.333389
Br432	Br	0.113878	1.087854	0.666722
H433	H	-0.031401	0.663744	0.625803
H434	H	0.301932	0.997077	0.959136
H435	H	0.635266	1.330410	1.292469
H436	H	-0.688970	0.487905	0.000073
H437	H	-0.355637	0.821238	0.333406
H438	H	-0.022304	1.154572	0.666740
H439	H	-0.391168	0.446789	0.000060
H440	H	-0.057834	0.780123	0.333393
H441	H	0.275499	1.113456	0.666726
Br442	Br	0.172897	0.459349	0.483313
Br443	Br	0.506230	0.792682	0.816647
Br444	Br	0.839563	1.126016	1.149980
Br445	Br	0.139823	0.492469	0.243126
Br446	Br	0.473156	0.825802	0.576459
Br447	Br	0.806490	1.159136	0.909792
H448	H	-0.425472	0.694908	0.000132
H449	H	-0.092139	1.028241	0.333465
H450	H	0.241194	1.361575	0.666799
Br451	Br	-0.056915	0.470368	0.000104
Br452	Br	0.276419	0.803701	0.333437
Br453	Br	0.609752	1.137034	0.666771
H454	H	0.058156	-0.282718	-0.081911
H455	H	0.391489	0.050615	0.251422
H456	H	0.724823	0.383948	0.584756
Br457	Br	0.172895	0.459340	0.360241
Br458	Br	0.506229	0.792674	0.693575
Br459	Br	0.839562	1.126007	1.026908
Br460	Br	0.172890	0.459368	0.639973
Br461	Br	0.506223	0.792701	0.973306
Br462	Br	0.839557	1.126035	1.306639
Br463	Br	-0.433975	0.422395	0.000060
Br464	Br	-0.100642	0.755729	0.333394
Br465	Br	0.232691	1.089062	0.666727
H466	H	0.059083	-0.191266	-0.081923
H467	H	0.392416	0.142067	0.251410
H468	H	0.725750	0.475400	0.584744
Br469	Br	0.139824	0.492464	0.120037
Br470	Br	0.473157	0.825798	0.453371
Br471	Br	0.806491	1.159131	0.786704
H472	H	0.064458	0.332353	0.082140
H473	H	0.397791	0.665686	0.415473
H474	H	0.731124	0.999020	0.748806
Br475	Br	-0.282724	0.423930	0.000054
Br476	Br	0.050609	0.757263	0.333387
Br477	Br	0.383942	1.090596	0.666720
H478	H	0.064450	0.332329	-0.081962
H479	H	0.397783	0.665663	0.251371
H480	H	0.731117	0.998996	0.584704
H481	H	0.059110	-0.191240	0.082180
H482	H	0.392444	0.142094	0.415513
H483	H	0.725777	0.475427	0.748847
H484	H	0.001735	0.630612	0.134211
H485	H	0.335068	0.963946	0.467544
H486	H	0.668402	1.297279	0.800878
Br487	Br	0.063162	0.205581	0.151917
Br488	Br	0.396495	0.538914	0.485251
Br489	Br	0.729829	0.872247	0.818584
H490	H	0.121819	0.510484	0.866013
H491	H	0.455152	0.843818	1.199347
H492	H	0.788485	1.177151	1.532680
Br493	Br	-0.016272	0.648628	0.757106
Br494	Br	0.317061	0.981961	1.090440
Br495	Br	0.650394	1.315294	1.423773
Br496	Br	-0.175753	0.469156	0.000104
Br497	Br	0.157581	0.802489	0.333438
Br498	Br	0.490914	1.135822	0.666771
H499	H	0.065385	0.423795	-0.081964
H500	H	0.398718	0.757128	0.251369
H501	H	0.732052	1.090461	0.584703
Br502	Br	0.139790	0.492489	0.757116
Br503	Br	0.473123	0.825823	1.090449
Br504	Br	0.806457	1.159156	1.423783
Br505	Br	-0.016255	0.648595	0.243108
Br506	Br	0.317078	0.981928	0.576441
Br507	Br	0.650411	1.315261	0.909774
H508	H	-0.485261	0.694301	0.000129
H509	H	-0.151927	1.027634	0.333462
H510	H	0.181406	1.360967	0.666795
Br511	Br	0.065552	0.437486	0.106682
Br512	Br	0.398886	0.770819	0.440015
Br513	Br	0.732219	1.104152	0.773349
Br514	Br	0.061606	0.054336	0.151937
Br515	Br	0.394939	0.387669	0.485270
Br516	Br	0.728272	0.721003	0.818603
H517	H	-0.031388	0.663737	0.374418
H518	H	0.301945	0.997071	0.707751
H519	H	0.635278	1.330404	1.041084
Br520	Br	-0.016275	0.648626	0.880196
Br521	Br	0.317058	0.981959	1.213530
Br522	Br	0.650391	1.315292	1.546863
Br523	Br	-0.593716	0.717157	0.000129
Br524	Br	-0.260383	1.050490	0.333463
Br525	Br	0.072951	1.383823	0.666796
Br526	Br	-0.049370	0.681724	0.516895
Br527	Br	0.283963	1.015058	0.850228
Br528	Br	0.617296	1.348391	1.183562
H529	H	0.058170	-0.282706	0.082183
H530	H	0.391503	0.050628	0.415516
H531	H	0.724837	0.383961	0.748850
H532	H	0.060527	-0.050798	0.127387
H533	H	0.393861	0.282535	0.460721
H534	H	0.727194	0.615869	0.794054
H535	H	0.062060	0.100419	-0.127166
H536	H	0.395394	0.433752	0.206167
H537	H	0.728727	0.767085	0.539500
H538	H	0.154922	0.477343	0.531076
H539	H	0.488255	0.810676	0.864409
H540	H	0.821588	1.144010	1.197742
H541	H	0.062081	0.100448	0.127372
H542	H	0.395414	0.433782	0.460705
H543	H	0.728748	0.767115	0.794038
Br544	Br	0.063133	0.205563	-0.151719
Br545	Br	0.396467	0.538897	0.181615
Br546	Br	0.729800	0.872230	0.514948
Br547	Br	-0.204466	0.676980	0.000139
Br548	Br	0.128867	1.010313	0.333473
Br549	Br	0.462200	1.343647	0.666806
H550	H	-0.334025	0.695838	0.000141
H551	H	-0.000692	1.029171	0.333474
H552	H	0.332642	1.362504	0.666807
H553	H	-0.711077	0.647864	0.000118
H554	H	-0.377744	0.981197	0.333451
H555	H	-0.044410	1.314530	0.666785
H556	H	-0.802542	0.646929	0.000111
H557	H	-0.469209	0.980262	0.333444
H558	H	-0.135875	1.313596	0.666778
H559	H	-0.780421	0.486977	0.000081
H560	H	-0.447088	0.820311	0.333414
H561	H	-0.113754	1.153644	0.666747
H562	H	-0.031396	0.663740	0.469141
H563	H	0.301938	0.997074	0.802474
H564	H	0.635271	1.330407	1.135807
