data_functionalizedCrystal
_audit_creation_method	'MofGen! by Chris Wilmer'
_symmetry_space_group_name_H-M	'P1'
_symmetry_Int_Tables_number	1
_symmetry_cell_setting	triclinic
loop_
_symmetry_equiv_pos_as_xyz
  x,y,z
_cell_length_a	14.044191
_cell_length_b	11.792241
_cell_length_c	10.868271
_cell_angle_alpha	90.005281
_cell_angle_beta	89.998192
_cell_angle_gamma	91.307404
loop_
_atom_site_label
_atom_site_type_symbol
_atom_site_fract_x
_atom_site_fract_y
_atom_site_fract_z
O1	O	1.259115	-0.273808	-0.102263
O2	O	0.983095	-0.263921	-0.102279
O3	O	1.127803	-0.104323	-0.102262
O4	O	1.114407	-0.433406	-0.102280
O5	O	1.127791	-0.104315	0.102383
O6	O	0.983083	-0.263913	0.102366
O7	O	1.259103	-0.273801	0.102381
Zn8	Zn	1.121091	-0.268856	0.134865
Zn9	Zn	1.121107	-0.268866	-0.134763
O10	O	1.114395	-0.433398	0.102364
C11	C	0.947752	-0.259592	0.000041
C12	C	0.842460	-0.246689	0.000036
C13	C	0.592522	-0.314607	0.000044
C14	C	0.649681	-0.223120	0.000047
C15	C	0.756953	-0.236237	0.000041
C16	C	0.485241	-0.301491	0.000051
C17	C	1.126956	-0.061949	0.000060
C18	C	1.124437	0.064301	0.000058
C19	C	1.294446	-0.278130	0.000058
C20	C	1.399738	-0.291032	0.000056
C21	C	1.115242	-0.475772	0.000040
C22	C	1.117761	-0.602023	0.000033
N23	N	1.121087	-0.268848	0.318879
C24	C	1.119806	0.295448	0.000038
C25	C	1.122379	0.166821	0.000049
N26	N	1.121118	-0.268865	-0.318777
C27	C	1.121102	-0.268863	0.569885
C28	C	1.121091	-0.268858	0.430208
H29	H	0.624149	-0.402776	0.000036
C30	C	0.637360	-0.045024	-0.105158
C31	C	0.606997	-0.104080	0.000044
H32	H	0.611010	0.028466	-0.105157
H33	H	0.616769	-0.085118	-0.176505
H34	H	0.704895	-0.038352	-0.105145
H35	H	0.539462	-0.110758	0.000027
H36	H	0.627583	-0.063975	0.071410
