data_functionalizedCrystal
_audit_creation_method	'MofGen! by Chris Wilmer'
_symmetry_space_group_name_H-M	'P1'
_symmetry_Int_Tables_number	1
_symmetry_cell_setting	triclinic
loop_
_symmetry_equiv_pos_as_xyz
  x,y,z
_cell_length_a	10.723024
_cell_length_b	15.944551
_cell_length_c	9.798715
_cell_angle_alpha	89.995900
_cell_angle_beta	89.996609
_cell_angle_gamma	83.983304
loop_
_atom_site_label
_atom_site_type_symbol
_atom_site_fract_x
_atom_site_fract_y
_atom_site_fract_z
O1	O	1.655699	0.117808	-0.113485
O2	O	1.292404	0.129085	-0.113490
O3	O	1.483972	0.001228	-0.113475
O4	O	1.464131	0.245664	-0.113500
O5	O	1.483958	0.001228	0.113507
O6	O	1.292390	0.129084	0.113492
O7	O	1.655685	0.117808	0.113497
Zn8	Zn	1.474035	0.123446	0.149533
Zn9	Zn	1.474054	0.123446	-0.149526
O10	O	1.464116	0.245664	0.113482
C11	C	1.245908	0.128264	0.000000
C12	C	1.107384	0.125809	-0.000001
C13	C	1.031498	0.197350	-0.000009
C14	C	0.888327	0.194814	-0.000011
C15	C	1.483141	-0.030070	0.000016
C16	C	1.480672	-0.123331	0.000017
C17	C	1.356026	-0.338901	-0.000004
C18	C	1.413901	-0.399587	0.111913
C19	C	1.476205	-0.294082	0.000006
C20	C	1.413943	-0.399570	-0.111874
C21	C	1.471880	-0.459020	-0.000010
C22	C	1.534112	-0.353540	0.112015
C23	C	1.534137	-0.353517	-0.111872
C24	C	1.592099	-0.414184	0.000072
C25	C	1.478692	-0.199066	0.000016
C26	C	1.469402	-0.554035	-0.000011
C27	C	1.702181	0.118629	0.000003
C28	C	1.840704	0.121084	-0.000004
C29	C	1.464947	0.276963	-0.000012
C30	C	1.467417	0.370223	-0.000022
N31	N	1.474031	0.123445	0.353632
N32	N	1.474067	0.123441	-0.353626
C33	C	1.554469	0.069525	0.421415
C34	C	1.554489	0.069522	0.578578
H35	H	0.905903	0.059835	-0.000006
C36	C	1.647528	0.007155	0.657314
C37	C	1.789680	0.009132	0.637722
C38	C	1.882722	-0.053237	0.716461
C39	C	1.833613	-0.117584	0.814792
C40	C	1.691453	-0.119564	0.834389
C41	C	1.598411	-0.057194	0.755650
H42	H	1.826040	0.056768	0.564927
H43	H	1.987959	-0.051771	0.701953
H44	H	1.902488	-0.163754	0.873079
H45	H	1.655093	-0.167200	0.907183
H46	H	1.493175	-0.058660	0.770157
C47	C	1.647489	0.007160	0.342646
C48	C	1.647221	0.007171	0.185490
C49	C	1.740245	-0.055197	0.106727
C50	C	1.833536	-0.117575	0.185119
C51	C	1.833807	-0.117588	0.342284
C52	C	1.740783	-0.055220	0.421048
H53	H	1.578158	0.053349	0.127451
H54	H	1.740044	-0.055187	-0.009618
H55	H	1.902398	-0.163743	0.126814
H56	H	1.902870	-0.163766	0.400323
H57	H	1.740984	-0.055230	0.537392
C58	C	1.381025	0.185810	0.567647
C59	C	1.286172	0.152547	0.468580
C60	C	1.193129	0.214917	0.389842
C61	C	1.194940	0.310550	0.410169
C62	C	1.289796	0.343818	0.509240
C63	C	1.382839	0.281448	0.587979
H64	H	1.284828	0.081750	0.453529
H65	H	1.122910	0.190289	0.316503
H66	H	1.126064	0.356719	0.351882
H67	H	1.291140	0.414615	0.524292
H68	H	1.453058	0.306076	0.661318
H69	H	1.405176	0.169603	0.411951
H70	H	1.363064	-0.419986	0.206528
H71	H	1.066360	0.062682	-0.000030
C72	C	1.221272	-0.294668	0.000137
C73	C	1.131861	-0.309424	0.118700
C74	C	0.997111	-0.265190	0.118848
C75	C	0.951773	-0.206201	0.000433
C76	C	1.041186	-0.191443	-0.118139
C77	C	1.175935	-0.235676	-0.118287
H78	H	1.165422	-0.353093	0.206366
H79	H	0.930922	-0.276115	0.206624
H80	H	0.852023	-0.173456	0.000543
H81	H	1.007625	-0.147773	-0.205805
H82	H	1.242124	-0.224751	-0.206063
H83	H	1.072523	0.260477	-0.000008
C84	C	1.602710	-0.326150	0.239984
C85	C	1.617666	-0.232253	0.263670
C86	C	1.686258	-0.204861	0.391638
C87	C	1.739894	-0.271365	0.495921
C88	C	1.724939	-0.365267	0.472238
C89	C	1.656348	-0.392660	0.344269
H90	H	1.577961	-0.183018	0.186471
H91	H	1.697328	-0.135348	0.409169
H92	H	1.790670	-0.251087	0.590650
H93	H	1.764645	-0.414503	0.549436
H94	H	1.645278	-0.462173	0.326738
H95	H	1.584930	-0.333095	-0.206492
C96	C	0.800248	0.277559	-0.000020
C97	C	0.706663	0.296918	-0.117889
C98	C	0.618581	0.379666	-0.117899
C99	C	0.624083	0.443054	-0.000039
C100	C	0.717670	0.423696	0.117838
C101	C	0.805753	0.340949	0.117848
H102	H	0.702587	0.249993	-0.205144
H103	H	0.549301	0.393995	-0.205160
H104	H	0.558879	0.504308	-0.000046
H105	H	0.721746	0.470622	0.205093
H106	H	0.875033	0.326619	0.205109
H107	H	1.691940	-0.446772	0.000137
C108	C	1.345265	-0.427098	-0.239697
C109	C	1.414743	-0.488044	-0.342956
C110	C	1.346056	-0.515567	-0.470772
C111	C	1.207891	-0.482144	-0.495329
C112	C	1.138405	-0.421194	-0.392067
C113	C	1.207092	-0.393672	-0.264251
H114	H	1.517028	-0.512789	-0.324780
H115	H	1.397495	-0.560685	-0.547214
H116	H	1.157045	-0.502518	-0.589947
H117	H	1.036120	-0.396449	-0.410243
H118	H	1.155654	-0.348553	-0.187809
