data_functionalizedCrystal
_audit_creation_method	'MofGen! by Chris Wilmer'
_symmetry_space_group_name_H-M	'P1'
_symmetry_Int_Tables_number	1
_symmetry_cell_setting	triclinic
loop_
_symmetry_equiv_pos_as_xyz
  x,y,z
_cell_length_a	19.805407
_cell_length_b	19.805405
_cell_length_c	12.759393
_cell_angle_alpha	89.965008
_cell_angle_beta	89.977411
_cell_angle_gamma	90.026726
loop_
_atom_site_label
_atom_site_type_symbol
_atom_site_fract_x
_atom_site_fract_y
_atom_site_fract_z
Zn1	Zn	1.034754	-0.269423	-0.594073
Zn2	Zn	1.534754	0.230577	-0.094073
Zn3	Zn	1.034663	-0.382628	-0.418382
Zn4	Zn	1.534663	0.117372	0.081618
Zn5	Zn	0.921563	-0.269458	-0.418399
Zn6	Zn	1.421563	0.230542	0.081601
Zn7	Zn	0.921532	-0.382575	-0.594011
Zn8	Zn	1.421532	0.117425	-0.094011
O9	O	0.978128	-0.326021	-0.506216
O10	O	1.478128	0.173979	-0.006216
O11	O	1.129459	-0.284447	-0.570786
O12	O	1.629459	0.215553	-0.070786
O13	O	1.019634	-0.367652	-0.271363
O14	O	1.519634	0.132348	0.228637
O15	O	0.936630	-0.174737	-0.441736
O16	O	1.436630	0.325263	0.058264
O17	O	1.129391	-0.367618	-0.441707
O18	O	1.629391	0.132382	0.058293
O19	O	1.019791	-0.174711	-0.570802
O20	O	1.519791	0.325289	-0.070802
O21	O	0.936541	-0.284507	-0.271376
O22	O	1.436541	0.215493	0.228624
O23	O	0.826842	-0.284456	-0.441676
O24	O	1.326842	0.215544	0.058324
O25	O	0.936576	-0.367529	-0.741040
O26	O	1.436576	0.132471	-0.241040
O27	O	0.826819	-0.367563	-0.570697
O28	O	1.326819	0.132437	-0.070697
O29	O	1.019761	-0.284396	-0.741086
O30	O	1.519761	0.215604	-0.241086
O31	O	1.019604	-0.477337	-0.441647
O32	O	1.519604	0.022663	0.058353
O33	O	0.936487	-0.477299	-0.570681
O34	O	1.436487	0.022701	-0.070681
C35	C	0.802272	-0.326008	-0.506182
C36	C	1.302272	0.173992	-0.006182
C37	C	0.727040	-0.326019	-0.506193
C38	C	1.227040	0.173981	-0.006193
C39	C	0.691702	-0.369358	-0.573265
C40	C	1.191702	0.130642	-0.073265
C41	C	0.621013	-0.369359	-0.573280
C42	C	1.121013	0.130641	-0.073280
C43	C	0.585664	-0.326024	-0.506216
C44	C	1.085664	0.173976	-0.006216
C45	C	0.621008	-0.282681	-0.439141
C46	C	1.121008	0.217319	0.060859
C47	C	0.691695	-0.282676	-0.439132
C48	C	1.191695	0.217324	0.060868
C49	C	0.335934	-0.282695	-0.439175
C50	C	0.835934	0.217305	0.060825
C51	C	0.265242	-0.282704	-0.439187
C52	C	0.765242	0.217296	0.060813
C53	C	0.265253	-0.369378	-0.573324
C54	C	0.765253	0.130622	-0.073324
C55	C	0.335940	-0.369374	-0.573315
C56	C	0.835940	0.130626	-0.073315
C57	C	0.371277	-0.326028	-0.506244
C58	C	0.871277	0.173972	-0.006244
C59	C	0.447925	-0.326026	-0.506230
C60	C	0.947925	0.173974	-0.006230
C61	C	0.509017	-0.326029	-0.506224
C62	C	1.009017	0.173971	-0.006224
C63	C	0.978051	-0.501877	-0.506178
C64	C	1.478051	-0.001877	-0.006178
C65	C	0.978080	-0.577109	-0.506197
C66	C	1.478080	-0.077109	-0.006197
C67	C	1.021356	-0.612381	-0.573455
C68	C	1.521356	-0.112381	-0.073455
C69	C	1.021381	-0.683070	-0.573474
C70	C	1.521381	-0.183070	-0.073474
C71	C	0.978132	-0.718485	-0.506230
C72	C	1.478132	-0.218485	-0.006230
C73	C	0.934850	-0.683207	-0.438970
C74	C	1.434850	-0.183207	0.061030
C75	C	0.934823	-0.612520	-0.438956
C76	C	1.434823	-0.112520	0.061044
C77	C	0.934959	-0.968280	-0.439024
C78	C	1.434959	-0.468280	0.060976
C79	C	0.934991	-1.038973	-0.439040
C80	C	1.434991	-0.538973	0.060960
C81	C	1.021517	-1.038830	-0.573542
C82	C	1.521517	-0.538830	-0.073542
C83	C	1.021489	-0.968143	-0.573528
C84	C	1.521489	-0.468143	-0.073528
C85	C	0.978206	-0.932872	-0.506272
C86	C	1.478206	-0.432872	-0.006272
C87	C	0.978179	-0.856224	-0.506253
C88	C	1.478179	-0.356224	-0.006253
C89	C	0.978161	-0.795132	-0.506243
C90	C	1.478161	-0.295132	-0.006243
C91	C	1.154671	-0.326035	-0.506251
C92	C	1.654671	0.173965	-0.006251
C93	C	1.229903	-0.326040	-0.506266
C94	C	1.729903	0.173960	-0.006266
C95	C	0.978175	-0.325953	-0.780250
C96	C	1.478175	0.174047	-0.280250
C97	C	0.978195	-0.325923	-0.897027
C98	C	1.478195	0.174077	-0.397027
C99	C	0.978224	-0.149478	-0.506278
C100	C	1.478224	0.350522	-0.006278
C101	C	0.978265	-0.074246	-0.506304
C102	C	1.478265	0.425754	-0.006304
C103	C	0.934944	-0.282622	-0.951895
C104	C	1.434944	0.217378	-0.451895
C105	C	0.934960	-0.282601	-1.061619
C106	C	1.434960	0.217399	-0.561619
C107	C	1.021484	-0.369185	-1.061597
C108	C	1.521484	0.130815	-0.561597
C109	C	1.021464	-0.369209	-0.951875
C110	C	1.521464	0.130791	-0.451875
C111	C	0.978120	-0.326040	-0.233249
C112	C	1.478120	0.173960	0.266751
C113	C	0.978231	-0.325879	-0.116473
C114	C	1.478231	0.174121	0.383527
H115	H	0.364717	-0.404664	-0.627922
H116	H	0.864717	0.095336	-0.127922
H117	H	0.236473	-0.404670	-0.627940
H118	H	0.736473	0.095330	-0.127940
H119	H	0.899711	-0.247376	-0.907240
H120	H	1.399711	0.252624	-0.407240
O121	O	0.725932	-0.411475	-0.638512
O122	O	1.225932	0.088525	-0.138512
C123	C	0.679579	-0.449738	-0.697698
C124	C	1.179579	0.050262	-0.197698
H125	H	0.629204	-0.422019	-0.701415
H126	H	1.129204	0.077981	-0.201415
H127	H	0.700024	-0.457017	-0.780454
H128	H	1.200024	0.042983	-0.280454
H129	H	0.672029	-0.501115	-0.659086
H130	H	1.172029	-0.001115	-0.159086
O131	O	0.586659	-0.411366	-0.638544
O132	O	1.086659	0.088634	-0.138544
C133	C	0.545796	-0.372893	-0.706508
C134	C	1.045796	0.127107	-0.206508
H135	H	0.567118	-0.319587	-0.713148
H136	H	1.067118	0.180413	-0.213148
H137	H	0.545016	-0.397440	-0.787290
H138	H	1.045016	0.102560	-0.287290
H139	H	0.492212	-0.370542	-0.674046
H140	H	0.992212	0.129458	-0.174046
O141	O	0.892941	-0.933919	-0.373787
O142	O	1.392941	-0.433919	0.126213
C143	C	0.902195	-0.863934	-0.388172
C144	C	1.402195	-0.363934	0.111828
H145	H	0.924329	-0.854219	-0.469282
H146	H	1.424329	-0.354219	0.030718
H147	H	0.851486	-0.837121	-0.380965
H148	H	1.351486	-0.337121	0.119035
H149	H	0.938252	-0.843872	-0.325902
H150	H	1.438252	-0.343872	0.174098
H151	H	1.056709	-0.939311	-0.628281
H152	H	1.556709	-0.439311	-0.128281
H153	H	0.592221	-0.247394	-0.384541
H154	H	1.092221	0.252606	0.115459
H155	H	1.056687	-0.404473	-0.907200
H156	H	1.556687	0.095527	-0.407200
O157	O	1.063652	-1.073061	-0.638781
O158	O	1.563652	-0.573061	-0.138781
C159	C	1.131113	-1.055730	-0.615935
C160	C	1.631113	-0.555730	-0.115935
H161	H	1.134556	-1.036343	-0.532000
H162	H	1.634556	-0.536343	-0.032000
H163	H	1.164568	-1.102182	-0.625059
H164	H	1.664568	-0.602182	-0.125059
H165	H	1.148767	-1.014651	-0.672273
H166	H	1.648767	-0.514651	-0.172273
O167	O	0.370150	-0.240569	-0.373927
O168	O	0.870150	0.259431	0.126073
C169	C	0.323790	-0.202312	-0.314758
C170	C	0.823790	0.297688	0.185242
H171	H	0.273393	-0.230042	-0.311045
H172	H	0.773393	0.269958	0.188955
H173	H	0.344191	-0.195021	-0.232000
H174	H	0.844191	0.304979	0.268000
H175	H	0.316298	-0.150940	-0.353383
H176	H	0.816298	0.349060	0.146617
H177	H	0.899582	-0.583802	-0.384190
H178	H	1.399582	-0.083802	0.115810
O179	O	0.892925	-0.240472	-1.114755
O180	O	1.392925	0.259528	-0.614755
C181	C	0.854721	-0.202288	-1.042811
C182	C	1.354721	0.297712	-0.542811
H183	H	0.882434	-0.199965	-0.964605
H184	H	1.382434	0.300035	-0.464605
H185	H	0.847537	-0.148952	-1.074535
H186	H	1.347537	0.351048	-0.574535
H187	H	0.803299	-0.227070	-1.031117
H188	H	1.303299	0.272930	-0.531117
O189	O	0.230877	-0.240704	-0.373919
O190	O	0.730877	0.259296	0.126081
C191	C	0.189948	-0.279195	-0.305973
C192	C	0.689948	0.220805	0.194027
H193	H	0.211230	-0.332496	-0.299342
H194	H	0.711230	0.167504	0.200658
H195	H	0.189135	-0.254657	-0.225185
H196	H	0.689135	0.245343	0.274815
H197	H	0.136382	-0.281557	-0.338448
H198	H	0.636382	0.218443	0.161552
H199	H	0.720466	-0.247382	-0.384520
H200	H	1.220466	0.252618	0.115480
O201	O	1.063389	-0.578087	-0.638879
O202	O	1.563389	-0.078087	-0.138879
C203	C	1.101601	-0.624381	-0.698230
C204	C	1.601601	-0.124381	-0.198230
H205	H	1.073895	-0.674792	-0.701830
H206	H	1.573895	-0.174792	-0.201830
H207	H	1.108780	-0.603914	-0.781016
H208	H	1.608780	-0.103914	-0.281016
H209	H	1.153024	-0.631872	-0.659838
H210	H	1.653024	-0.131872	-0.159838
H211	H	1.056626	-0.711786	-0.628234
H212	H	1.556626	-0.211786	-0.128234
H213	H	1.056713	-0.404426	-1.106268
H214	H	1.556713	0.095574	-0.606268
H215	H	0.899769	-1.067805	-0.384280
H216	H	1.399769	-0.567805	0.115720
H217	H	0.899633	-0.712047	-0.384223
H218	H	1.399633	-0.212047	0.115777
