data_functionalizedCrystal
_audit_creation_method	'MofGen! by Chris Wilmer'
_symmetry_space_group_name_H-M	'P1'
_symmetry_Int_Tables_number	1
_symmetry_cell_setting	triclinic
loop_
_symmetry_equiv_pos_as_xyz
  x,y,z
_cell_length_a	17.038272
_cell_length_b	9.065218
_cell_length_c	8.140239
_cell_angle_alpha	90.002802
_cell_angle_beta	89.996147
_cell_angle_gamma	91.936279
loop_
_atom_site_label
_atom_site_type_symbol
_atom_site_fract_x
_atom_site_fract_y
_atom_site_fract_z
O1	O	0.114742	-1.971908	-0.136620
O2	O	0.124153	-1.543567	-0.136623
O3	O	0.005614	-1.755192	-0.136608
O4	O	0.233281	-1.760283	-0.136634
O5	O	0.005612	-1.755179	0.136619
O6	O	0.124152	-1.543555	0.136605
O7	O	0.114740	-1.971895	0.136607
Zn8	Zn	0.119446	-1.757723	0.179986
Zn9	Zn	0.119448	-1.757740	-0.180002
O10	O	0.233280	-1.760271	0.136593
C11	C	0.123248	-1.488484	-0.000009
C12	C	0.120544	-1.324369	-0.000010
C13	C	-0.023549	-1.750555	0.000005
C14	C	-0.110441	-1.736739	0.000005
N15	N	0.119444	-1.757722	0.425669
C16	C	-0.159639	-1.863587	0.000007
C17	C	-0.241284	-1.850596	-0.000009
C18	C	-0.273728	-1.710756	-0.000015
C19	C	-0.224524	-1.583899	-0.000022
C20	C	-0.142881	-1.596891	-0.000019
C21	C	-0.519818	-1.664859	-0.000038
C22	C	-0.601467	-1.651876	-0.000037
C23	C	-0.618221	-1.918575	-0.000026
C24	C	-0.536576	-1.931554	-0.000012
C25	C	-0.487379	-1.804697	-0.000028
C26	C	-0.357182	-1.697475	-0.000026
C27	C	-0.403927	-1.817980	-0.000029
C28	C	0.262442	-1.764908	-0.000024
C29	C	0.349335	-1.778724	-0.000034
C30	C	0.115646	-2.026979	-0.000010
C31	C	0.118350	-2.191093	-0.000020
N32	N	0.119443	-1.757751	-0.425685
H33	H	-0.133230	-1.977459	0.000022
H34	H	-0.383607	-1.583616	-0.000027
H35	H	-0.479770	-1.561561	-0.000050
H36	H	-0.627879	-1.537996	-0.000015
H37	H	-0.281338	-1.953890	-0.000003
H38	H	-0.510166	-2.045426	-0.000007
O39	O	-0.256167	-1.448170	0.000044
C40	C	-0.374513	-1.309956	-0.000053
C41	C	-0.338784	-1.463761	-0.000097
H42	H	-0.441314	-1.322509	-0.000202
H43	H	-0.354388	-1.246718	0.114317
H44	H	-0.354279	-1.246767	-0.114373
H45	H	-0.359002	-1.527072	0.114145
H46	H	-0.358906	-1.526887	-0.114543
H47	H	-0.377507	-1.931837	-0.000060
O48	O	-0.095200	-1.473520	0.000052
C49	C	-0.087193	-1.207622	-0.000070
C50	C	-0.141280	-1.347221	-0.000098
H51	H	-0.124427	-1.105474	-0.000227
H52	H	-0.048567	-1.206920	0.114299
H53	H	-0.048533	-1.207135	-0.114391
H54	H	-0.179989	-1.347800	0.114145
H55	H	-0.179853	-1.347869	-0.114543
H56	H	-0.658286	-2.021854	-0.000016
