data_functionalizedCrystal
_audit_creation_method	'MofGen! by Chris Wilmer'
_symmetry_space_group_name_H-M	'P1'
_symmetry_Int_Tables_number	1
_symmetry_cell_setting	triclinic
loop_
_symmetry_equiv_pos_as_xyz
  x,y,z
_cell_length_a	25.639242
_cell_length_b	16.994747
_cell_length_c	25.639233
_cell_angle_alpha	89.993240
_cell_angle_beta	90.022166
_cell_angle_gamma	90.006589
loop_
_atom_site_label
_atom_site_type_symbol
_atom_site_fract_x
_atom_site_fract_y
_atom_site_fract_z
Zn1	Zn	0.799326	-0.314218	0.295835
Zn2	Zn	0.799291	-0.446103	0.208438
Zn3	Zn	0.711902	-0.314207	0.208399
Zn4	Zn	0.711889	-0.446074	0.295828
O5	O	0.755602	-0.380150	0.252125
O6	O	0.872486	-0.331730	0.284261
O7	O	0.787690	-0.428614	0.135268
O8	O	0.723518	-0.203827	0.219984
O9	O	0.872461	-0.428625	0.220051
O10	O	0.787748	-0.203835	0.284223
O11	O	0.723485	-0.331710	0.135239
O12	O	0.638735	-0.331682	0.219977
O13	O	0.723497	-0.428575	0.368994
O14	O	0.638726	-0.428564	0.284211
O15	O	0.787736	-0.331702	0.368999
O16	O	0.787677	-0.556480	0.220044
O17	O	0.723463	-0.556459	0.284249
C18	C	0.619759	-0.380119	0.252090
C19	C	0.561645	-0.380125	0.252087
C20	C	0.755572	-0.585090	0.252149
C21	C	0.755575	-0.674412	0.252147
Zn22	Zn	0.711917	-0.945293	0.208384
Zn23	Zn	0.799349	-0.945283	0.295812
Zn24	Zn	0.711907	-0.813466	0.295819
Zn25	Zn	0.799301	-0.813358	0.208421
O26	O	0.755618	-0.879350	0.252109
O27	O	0.723539	-1.055673	0.219963
O28	O	0.787765	-0.927838	0.368978
O29	O	0.638743	-0.831003	0.284209
O30	O	0.787775	-1.055666	0.284196
O31	O	0.638750	-0.927855	0.219971
O32	O	0.723522	-0.830993	0.368984
O33	O	0.723476	-0.703071	0.284244
O34	O	0.787693	-0.830819	0.135251
O35	O	0.787683	-0.702991	0.220033
O36	O	0.723492	-0.927751	0.135224
O37	O	0.872508	-0.927734	0.284232
O38	O	0.872472	-0.830809	0.220026
C39	C	0.201286	-0.430681	0.285540
C40	C	0.146682	-0.430686	0.285548
O41	O	0.118449	-0.473632	0.313961
N42	N	0.119363	-0.380172	0.252159
C43	C	0.146651	-0.329644	0.218764
O44	O	0.118400	-0.286678	0.190365
C45	C	0.201254	-0.329636	0.218758
C46	C	0.228570	-0.380159	0.252146
C47	C	0.228603	-0.481199	0.318925
C48	C	0.283203	-0.481195	0.318916
C49	C	0.310487	-0.430673	0.285522
C50	C	0.283171	-0.380155	0.252137
C51	C	0.228541	-0.279105	0.185366
C52	C	0.283148	-0.279101	0.185364
C53	C	0.310464	-0.329624	0.218751
C54	C	0.365056	-0.329629	0.218733
N55	N	0.392375	-0.380143	0.252122
C56	C	0.365091	-0.430665	0.285517
C57	C	0.031980	-0.329664	0.218778
C58	C	-0.022622	-0.329676	0.218780
C59	C	-0.022587	-0.430717	0.285565
C60	C	0.032016	-0.430709	0.285560
C61	C	0.059299	-0.380178	0.252167
C62	C	0.479756	-0.430653	0.285495
C63	C	0.534361	-0.430647	0.285481
C64	C	0.534321	-0.329604	0.218698
C65	C	0.479721	-0.329612	0.218709
C66	C	0.452439	-0.380140	0.252112
O67	O	0.393324	-0.286702	0.190336
O68	O	0.393348	-0.473617	0.313916
C69	C	0.891975	-0.380182	0.252161
C70	C	0.950089	-0.380196	0.252176
C71	C	0.755619	-0.380137	0.388498
C72	C	0.755626	-0.380131	0.446612
C73	C	0.755635	-0.174410	0.252098
C74	C	0.755651	-0.085088	0.252087
C75	C	0.755615	-0.380107	0.116283
C76	C	0.755709	-0.379891	0.058169
C77	C	0.789118	-0.329539	0.806984
C78	C	0.789124	-0.329517	0.861588
O79	O	0.817558	-0.286595	0.889832
N80	N	0.755684	-0.379946	0.888895
C81	C	0.722231	-0.430394	0.861595
O82	O	0.693787	-0.473285	0.889835
C83	C	0.722222	-0.430411	0.806991
C84	C	0.755668	-0.379985	0.779687
C85	C	0.822561	-0.279115	0.779680
C86	C	0.822555	-0.279139	0.725079
C87	C	0.789106	-0.329585	0.697783
C88	C	0.755662	-0.380008	0.725087
C89	C	0.688767	-0.480855	0.779692
C90	C	0.688761	-0.480868	0.725085
C91	C	0.722207	-0.430441	0.697781
C92	C	0.722207	-0.430477	0.643190
N93	N	0.755648	-0.380048	0.615883
C94	C	0.789097	-0.329602	0.643179
C95	C	0.722251	-0.430353	0.976265
C96	C	0.722262	-0.430340	1.030868
C97	C	0.789155	-0.329462	1.030857
C98	C	0.789146	-0.329479	0.976254
C99	C	0.755691	-0.379924	0.948958
C100	C	0.789083	-0.329655	0.528514
C101	C	0.789075	-0.329684	0.473909
C102	C	0.722181	-0.430560	0.473924
C103	C	0.722190	-0.430533	0.528524
C104	C	0.755642	-0.380074	0.555818
O105	O	0.693787	-0.473375	0.614911
O106	O	0.817531	-0.286711	0.614932
C107	C	0.891461	-0.879261	0.252133
C108	C	0.949575	-0.879245	0.252159
C109	C	0.755588	-0.879274	0.115736
C110	C	0.755576	-0.879241	0.057622
C111	C	0.619245	-0.879442	0.252086
C112	C	0.561131	-0.879481	0.252077
C113	C	0.755611	-0.879471	0.387952
C114	C	0.755477	-0.879654	0.446065
C115	C	0.976869	-0.929749	0.285572
C116	C	1.031473	-0.929750	0.285597
C117	C	1.058783	-0.879243	0.252210
C118	C	1.031485	-0.828737	0.218793
C119	C	0.976881	-0.828741	0.218766
C120	C	0.722140	-0.929694	0.030314
C121	C	0.722118	-0.929663	-0.024290
C122	C	0.755534	-0.879184	-0.051586
C123	C	0.788971	-0.828726	-0.024274
C124	C	0.788991	-0.828753	0.030330
C125	C	0.533834	-0.829068	0.285518
C126	C	0.479229	-0.829089	0.285509
C127	C	0.451924	-0.879529	0.252061
C128	C	0.479225	-0.929944	0.218616
C129	C	0.533828	-0.929919	0.218623
C130	C	0.722207	-0.828952	0.473337
C131	C	0.722071	-0.829124	0.527941
C132	C	0.755210	-0.879994	0.555273
C133	C	0.788482	-0.930701	0.527998
C134	C	0.788615	-0.930533	0.473394
H135	H	0.457550	-0.471796	0.312696
O136	O	1.058097	-0.779698	0.186414
C137	C	1.112143	-0.790545	0.193602
H138	H	1.119587	-0.816460	0.233935
H139	H	1.127643	-0.832488	0.162566
C140	C	1.131043	-0.678896	0.139356
C141	C	1.140186	-0.710720	0.188896
H142	H	1.148342	-0.629658	0.136451
H143	H	1.094631	-0.671590	0.134512
H144	H	1.143960	-0.713856	0.113498
H145	H	1.127263	-0.675765	0.214753
H146	H	1.176596	-0.718018	0.193745
H147	H	0.816313	-0.288620	0.451680
H148	H	0.661511	-0.521939	0.702864
O149	O	0.453235	-0.280579	0.186206
C150	C	0.466528	-0.297705	0.134074
H151	H	0.506171	-0.328022	0.132946
H152	H	0.435782	-0.338219	0.116435
C153	C	0.420340	-0.183496	0.103862
C154	C	0.469033	-0.220726	0.102477
H155	H	0.421883	-0.136013	0.084370
H156	H	0.411382	-0.171959	0.138984
H157	H	0.394723	-0.217265	0.089164
H158	H	0.494648	-0.186960	0.117180
H159	H	0.477995	-0.232255	0.067356
O160	O	0.560262	-0.978975	0.186124
C161	C	0.524447	-1.023482	0.156597
H162	H	0.485531	-1.026231	0.178009
H163	H	0.518626	-0.994583	0.116890
C164	C	0.593555	-1.104050	0.122755
C165	C	0.545758	-1.107431	0.149057
H166	H	0.606701	-1.155832	0.118102
H167	H	0.617684	-1.074063	0.142647
H168	H	0.588698	-1.079964	0.089669
H169	H	0.550617	-1.131507	0.182145
H170	H	0.521630	-1.137424	0.129171
H171	H	1.053692	-0.970877	0.312811
H172	H	0.755514	-0.879171	-0.096047
O173	O	0.202185	-0.530357	0.351382
C174	C	0.238014	-0.574922	0.380853
H175	H	0.276925	-0.577584	0.359426
H176	H	0.243842	-0.546128	0.420588
C177	C	0.168928	-0.655630	0.414628
C178	C	0.216717	-0.658906	0.388310
H179	H	0.155791	-0.707434	0.419231
H180	H	0.144788	-0.625604	0.394775
H181	H	0.173791	-0.631632	0.447739
H182	H	0.211853	-0.682894	0.355198
H183	H	0.240856	-0.688937	0.408157
H184	H	0.457008	-0.788034	0.312745
O185	O	0.821577	-0.280376	0.949758
C186	C	0.810173	-0.201758	0.963098
H187	H	0.768406	-0.197765	0.978095
H188	H	0.838211	-0.181142	0.994799
C189	C	0.867561	-0.154023	0.896168
C190	C	0.816260	-0.149119	0.914584
H191	H	0.871318	-0.121551	0.866244
H192	H	0.875245	-0.206989	0.887181
H193	H	0.890920	-0.136845	0.922590
H194	H	0.792903	-0.166306	0.888164
H195	H	0.808572	-0.096153	0.923565
H196	H	0.695221	-0.787524	0.451090
H197	H	0.694978	-0.787829	0.550140
H198	H	0.456984	-0.971010	0.191383
H199	H	0.556546	-0.288472	0.191507
H200	H	0.305439	-0.522335	0.346105
H201	H	0.206310	-0.237966	0.158177
O202	O	0.821500	-0.779855	0.056912
C203	C	0.855301	-0.824757	0.088481
H204	H	0.836875	-0.884548	0.096656
H205	H	0.894039	-0.833391	0.067434
C206	C	0.887412	-0.707936	0.130311
C207	C	0.864780	-0.781370	0.140356
H208	H	0.893262	-0.681172	0.162310
H209	H	0.864642	-0.677683	0.109042
H210	H	0.919692	-0.715141	0.112771
H211	H	0.832499	-0.774163	0.157890
H212	H	0.887546	-0.811620	0.161630
H213	H	1.103244	-0.879248	0.252237
O214	O	0.689623	-0.978762	-0.050733
C215	C	0.660133	-1.023313	-0.014928
H216	H	0.681567	-1.026037	0.023994
H217	H	0.620417	-0.994469	-0.009117
C218	C	0.626293	-1.103919	-0.084049
C219	C	0.652620	-1.107270	-0.036246
H220	H	0.621656	-1.155706	-0.097199
H221	H	0.646159	-1.073903	-0.108172
H222	H	0.593199	-1.079878	-0.079200
H223	H	0.685716	-1.131301	-0.041097
H224	H	0.632759	-1.137292	-0.012124
H225	H	0.815462	-0.972120	0.550259
H226	H	0.695007	-0.471436	0.954045
H227	H	0.661531	-0.521918	0.801914
O228	O	0.560376	-0.780178	0.318065
C229	C	0.591987	-0.825077	0.351828
H230	H	0.575545	-0.887214	0.355050
H231	H	0.633367	-0.827760	0.335671
C232	C	0.613021	-0.710242	0.402228
C233	C	0.592825	-0.786558	0.406188
H234	H	0.613540	-0.686480	0.435759
H235	H	0.591726	-0.679991	0.379480
H236	H	0.647502	-0.712488	0.388761
H237	H	0.558341	-0.784309	0.419648
H238	H	0.614114	-0.816807	0.428940
O239	O	0.398882	-0.879479	0.252142
C240	C	0.380649	-0.824150	0.288825
H241	H	0.412128	-0.813106	0.319372
H242	H	0.370944	-0.766627	0.268103
C243	C	0.292655	-0.869900	0.278105
C244	C	0.331317	-0.856341	0.315626
H245	H	0.262224	-0.889754	0.294636
H246	H	0.304938	-0.907174	0.253389
H247	H	0.284575	-0.821961	0.260840
H248	H	0.339402	-0.904281	0.332886
H249	H	0.319034	-0.819075	0.340345
H250	H	0.849800	-0.238032	0.801899
O251	O	0.950428	-0.978887	0.318025
C252	C	0.986237	-1.023442	0.347527
H253	H	1.025159	-1.026127	0.326123
H254	H	0.992046	-0.994627	0.387258
C255	C	0.917123	-1.104114	0.381285
C256	C	0.964927	-1.107417	0.354994
H257	H	0.903978	-1.155913	0.385893
H258	H	0.892998	-1.074095	0.361411
H259	H	0.921970	-1.080098	0.414392
H260	H	0.960078	-1.131423	0.321885
H261	H	0.989051	-1.137442	0.374863
O262	O	0.821419	-0.779775	-0.050873
C263	C	0.814221	-0.790571	-0.104922
H264	H	0.797098	-0.851449	-0.112379
H265	H	0.786370	-0.743790	-0.120418
C266	C	0.888142	-0.708553	-0.123796
C267	C	0.867115	-0.783326	-0.132956
H268	H	0.920769	-0.704080	-0.141090
H269	H	0.892991	-0.701276	-0.087383
H270	H	0.864928	-0.669576	-0.136710
H271	H	0.890326	-0.822300	-0.120036
H272	H	0.862272	-0.790608	-0.169368
O273	O	0.755032	-0.880025	0.608314
C274	C	0.718550	-0.824373	0.626518
H275	H	0.711516	-0.778125	0.595085
H276	H	0.680260	-0.855286	0.636062
C277	C	0.748562	-0.841102	0.714578
C278	C	0.739927	-0.784295	0.675973
H279	H	0.761747	-0.816382	0.745086
H280	H	0.773140	-0.878597	0.702315
H281	H	0.716652	-0.866857	0.722525
H282	H	0.771838	-0.758548	0.668022
H283	H	0.715355	-0.746794	0.688236
O284	O	0.309569	-0.229993	0.152872
C285	C	0.273746	-0.185395	0.123417
H286	H	0.234820	-0.217704	0.121587
H287	H	0.267952	-0.125530	0.142618
C288	C	0.342830	-0.134219	0.070023
C289	C	0.295023	-0.173904	0.067772
H290	H	0.355955	-0.127127	0.035699
H291	H	0.366966	-0.164263	0.089868
H292	H	0.337996	-0.084336	0.086026
H293	H	0.299859	-0.223790	0.051775
H294	H	0.270888	-0.143868	0.047922
H295	H	0.816321	-0.288564	0.550730
H296	H	0.556600	-0.471792	0.312670
O297	O	0.058468	-0.479807	0.318045
C298	C	0.022671	-0.524413	0.347507
H299	H	-0.016251	-0.492111	0.349345
H300	H	0.016854	-0.584278	0.328307
C301	C	0.091804	-0.575576	0.400886
C302	C	0.044002	-0.535900	0.403147
H303	H	0.104963	-0.582666	0.435207
H304	H	0.115922	-0.545527	0.381035
H305	H	0.086951	-0.625460	0.384883
H306	H	0.048857	-0.486014	0.419144
H307	H	0.019885	-0.565941	0.423002
H308	H	0.816390	-0.288384	1.053092
H309	H	-0.044812	-0.471852	0.312759
O310	O	0.854985	-0.230025	0.698590
C311	C	0.843569	-0.151414	0.711938
H312	H	0.801800	-0.147437	0.726929
H313	H	0.871600	-0.130799	0.743645
C314	C	0.900962	-0.103645	0.645022
C315	C	0.849658	-0.098760	0.663431
H316	H	0.904720	-0.071164	0.615102
H317	H	0.908654	-0.156607	0.636031
H318	H	0.924314	-0.086468	0.671450
H319	H	0.826307	-0.115946	0.637006
H320	H	0.841962	-0.045799	0.672417
H321	H	-0.044858	-0.288543	0.191587
H322	H	0.695032	-0.471411	1.053094
O323	O	0.058400	-0.280560	0.186281
C324	C	0.022574	-0.235970	0.156824
H325	H	-0.016349	-0.268284	0.154996
H326	H	0.016776	-0.176104	0.176023
C327	C	0.091655	-0.184789	0.103428
C328	C	0.043850	-0.224481	0.101179
H329	H	0.104779	-0.177699	0.069104
H330	H	0.115792	-0.214827	0.123275
H331	H	0.086817	-0.134905	0.119429
H332	H	0.048689	-0.274368	0.085184
H333	H	0.019713	-0.194451	0.081328
H334	H	0.694949	-0.471634	0.451689
O335	O	0.689655	-0.479547	0.554970
C336	C	0.660143	-0.524095	0.519165
H337	H	0.658338	-0.491804	0.480232
H338	H	0.679279	-0.584009	0.513382
C339	C	0.606714	-0.575102	0.588277
C340	C	0.604492	-0.535439	0.540460
H341	H	0.572386	-0.582103	0.601413
H342	H	0.626597	-0.545092	0.612400
H343	H	0.622663	-0.625026	0.583451
H344	H	0.588549	-0.485512	0.545288
H345	H	0.584604	-0.565441	0.516339
H346	H	0.954663	-0.787610	0.191558
H347	H	0.694927	-0.970803	0.052531
H348	H	0.815711	-0.971818	0.451195
