data_functionalizedCrystal
_audit_creation_method	'MofGen! by Chris Wilmer'
_symmetry_space_group_name_H-M	'P1'
_symmetry_Int_Tables_number	1
_symmetry_cell_setting	triclinic
loop_
_symmetry_equiv_pos_as_xyz
  x,y,z
_cell_length_a	18.050589
_cell_length_b	18.101398
_cell_length_c	18.101389
_cell_angle_alpha	90.026909
_cell_angle_beta	89.985984
_cell_angle_gamma	89.979808
loop_
_atom_site_label
_atom_site_type_symbol
_atom_site_fract_x
_atom_site_fract_y
_atom_site_fract_z
Zn1	Zn	-0.295896	-1.132136	-0.418912
Zn2	Zn	0.037437	-0.798803	-0.085579
Zn3	Zn	0.370770	-0.465469	0.247754
Zn4	Zn	-0.420071	-1.132038	-0.295080
Zn5	Zn	-0.086737	-0.798705	0.038253
Zn6	Zn	0.246596	-0.465371	0.371586
Zn7	Zn	-0.295882	-1.008295	-0.295068
Zn8	Zn	0.037452	-0.674961	0.038265
Zn9	Zn	0.370785	-0.341628	0.371599
Zn10	Zn	-0.420032	-1.008252	-0.418863
Zn11	Zn	-0.086698	-0.674918	-0.085530
Zn12	Zn	0.246635	-0.341585	0.247803
O13	O	-0.357970	-1.070180	-0.356981
O14	O	-0.024637	-0.736847	-0.023648
O15	O	0.308697	-0.403513	0.309686
O16	O	-0.312391	-1.235756	-0.402512
O17	O	0.020942	-0.902422	-0.069178
O18	O	0.354276	-0.569089	0.264155
O19	O	-0.403607	-1.115600	-0.191446
O20	O	-0.070273	-0.782267	0.141888
O21	O	0.263060	-0.448934	0.475221
O22	O	-0.191959	-1.024782	-0.311512
O23	O	0.141374	-0.691448	0.021822
O24	O	0.474708	-0.358115	0.355155
O25	O	-0.403621	-1.235684	-0.311533
O26	O	-0.070288	-0.902350	0.021801
O27	O	0.263046	-0.569017	0.355134
O28	O	-0.191970	-1.115767	-0.402499
O29	O	0.141364	-0.782434	-0.069166
O30	O	0.474697	-0.449100	0.264167
O31	O	-0.312366	-1.024687	-0.191437
O32	O	0.020968	-0.691353	0.141897
O33	O	0.354301	-0.358020	0.475230
O34	O	-0.312328	-0.904656	-0.311464
O35	O	0.021006	-0.571323	0.021869
O36	O	0.354339	-0.237990	0.355203
O37	O	-0.403555	-1.024708	-0.522503
O38	O	-0.070221	-0.691375	-0.189169
O39	O	0.263112	-0.358042	0.144164
O40	O	-0.403540	-0.904625	-0.402416
O41	O	-0.070207	-0.571291	-0.069083
O42	O	0.263126	-0.237958	0.264251
O43	O	-0.312353	-1.115725	-0.522539
O44	O	0.020980	-0.782392	-0.189206
O45	O	0.354314	-0.449059	0.144128
O46	O	-0.523990	-1.115558	-0.311485
O47	O	-0.190657	-0.782225	0.021848
O48	O	0.142677	-0.448892	0.355182
O49	O	-0.523961	-1.024613	-0.402428
O50	O	-0.190628	-0.691280	-0.069095
O51	O	0.142705	-0.357947	0.264239
C52	C	-0.357929	-0.877770	-0.356934
C53	C	-0.024595	-0.544436	-0.023600
C54	C	0.308738	-0.211103	0.309733
C55	C	-0.357929	-0.795455	-0.356931
C56	C	-0.024596	-0.462122	-0.023598
C57	C	0.308738	-0.128789	0.309736
C58	C	-0.357958	-0.496364	-0.356980
C59	C	-0.024625	-0.163031	-0.023646
C60	C	0.308709	0.170302	0.309687
C61	C	-0.300285	-0.527685	-0.300036
C62	C	0.033049	-0.194352	0.033297
C63	C	0.366382	0.138982	0.366631
C64	C	-0.300444	-0.613303	-0.299797
C65	C	0.032889	-0.279970	0.033537
C66	C	0.366222	0.053364	0.366870
C67	C	-0.357943	-0.644747	-0.356956
C68	C	-0.024610	-0.311414	-0.023622
C69	C	0.308724	0.021920	0.309711
C70	C	-0.436169	-0.613633	-0.335636
C71	C	-0.102835	-0.280299	-0.002302
C72	C	0.230498	0.053034	0.331031
C73	C	-0.435843	-0.527988	-0.335236
C74	C	-0.102510	-0.194654	-0.001903
C75	C	0.230823	0.138679	0.331431
C76	C	-0.338088	-0.527978	-0.435379
C77	C	-0.004754	-0.194645	-0.102046
C78	C	0.328579	0.138689	0.231288
C79	C	-0.336351	-0.613629	-0.434955
C80	C	-0.003017	-0.280295	-0.101622
C81	C	0.330316	0.053038	0.231712
C82	C	-0.357939	-0.728606	-0.356943
C83	C	-0.024606	-0.395273	-0.023610
C84	C	0.308727	-0.061940	0.309724
C85	C	-0.357967	-0.412505	-0.356990
C86	C	-0.024634	-0.079172	-0.023657
C87	C	0.308700	0.254162	0.309676
C88	C	-0.550922	-1.070091	-0.356969
C89	C	-0.217589	-0.736757	-0.023635
C90	C	0.115744	-0.403424	0.309698
C91	C	-0.633468	-1.070120	-0.356988
C92	C	-0.300135	-0.736787	-0.023655
C93	C	0.033199	-0.403454	0.309678
C94	C	-0.832930	-1.020713	-0.406426
C95	C	-0.499597	-0.687379	-0.073092
C96	C	-0.166263	-0.354046	0.260241
C97	C	-0.882356	-1.002661	-0.338846
C98	C	-0.549023	-0.669328	-0.005513
C99	C	-0.215690	-0.335994	0.327821
C100	C	-0.784598	-1.070193	-0.356998
C101	C	-0.451265	-0.736860	-0.023665
C102	C	-0.117932	-0.403526	0.309669
C103	C	-0.882254	-1.088281	-0.424585
C104	C	-0.548920	-0.754948	-0.091252
C105	C	-0.215587	-0.421615	0.242081
C106	C	-0.930583	-1.070262	-0.357013
C107	C	-0.597250	-0.736928	-0.023680
C108	C	-0.263917	-0.403595	0.309653
C109	C	-0.832938	-1.052106	-0.289383
C110	C	-0.499604	-0.718772	0.043951
C111	C	-0.166271	-0.385439	0.377284
C112	C	-0.832830	-1.137757	-0.375167
C113	C	-0.499497	-0.804424	-0.041834
C114	C	-0.166164	-0.471091	0.291499
C115	C	-0.882234	-1.119731	-0.307541
C116	C	-0.548901	-0.786398	0.025792
C117	C	-0.215568	-0.453064	0.359126
C118	C	-0.700500	-1.070151	-0.356990
C119	C	-0.367167	-0.736818	-0.023657
C120	C	-0.033833	-0.403485	0.309677
C121	C	-1.014680	-1.070304	-0.357013
C122	C	-0.681347	-0.736970	-0.023680
C123	C	-0.348013	-0.403637	0.309653
C124	C	-0.164264	-1.070290	-0.357010
C125	C	0.169069	-0.736957	-0.023676
C126	C	0.502402	-0.403623	0.309657
C127	C	-0.081719	-1.070337	-0.357022
C128	C	0.251615	-0.737004	-0.023688
C129	C	0.584948	-0.403670	0.309645
C130	C	-0.357951	-1.070223	-0.550143
C131	C	-0.024618	-0.736890	-0.216810
C132	C	0.308715	-0.403556	0.116524
C133	C	-0.357943	-1.070241	-0.632457
C134	C	-0.024610	-0.736908	-0.299124
C135	C	0.308723	-0.403574	0.034210
C136	C	-0.357997	-0.263342	-0.357018
C137	C	-0.024664	0.069991	-0.023684
C138	C	0.308669	0.403325	0.309649
C139	C	-0.357972	-0.345656	-0.357004
C140	C	-0.024639	-0.012323	-0.023671
C141	C	0.308694	0.321011	0.309662
C142	C	-0.357804	-1.070284	-0.931548
C143	C	-0.024471	-0.736951	-0.598215
C144	C	0.308863	-0.403618	-0.264882
C145	C	-0.415003	-1.012822	-0.900200
C146	C	-0.081670	-0.679488	-0.566867
C147	C	0.251664	-0.346155	-0.233534
C148	C	-0.415269	-1.012977	-0.814582
C149	C	-0.081935	-0.679644	-0.481249
C150	C	0.251398	-0.346310	-0.147915
C151	C	-0.357873	-1.070262	-0.783166
C152	C	-0.024540	-0.736929	-0.449832
C153	C	0.308794	-0.403596	-0.116499
C154	C	-0.379128	-1.148289	-0.814277
C155	C	-0.045794	-0.814955	-0.480943
C156	C	0.287539	-0.481622	-0.147610
C157	C	-0.379503	-1.147969	-0.899922
C158	C	-0.046170	-0.814635	-0.566588
C159	C	0.287163	-0.481302	-0.233255
C160	C	-0.279223	-1.050399	-0.899966
C161	C	0.054110	-0.717066	-0.566632
C162	C	0.387444	-0.383732	-0.233299
C163	C	-0.279677	-1.048663	-0.814315
C164	C	0.053656	-0.715330	-0.480981
C165	C	0.386990	-0.381996	-0.147648
C166	C	-0.357911	-1.070255	-0.699306
C167	C	-0.024578	-0.736921	-0.365973
C168	C	0.308756	-0.403588	-0.032639
C169	C	-0.357768	-1.070297	-1.015408
C170	C	-0.024435	-0.736964	-0.682074
C171	C	0.308899	-0.403630	-0.348741
C172	C	-0.357935	-1.070180	-0.164571
C173	C	-0.024602	-0.736847	0.168763
C174	C	0.308731	-0.403513	0.502096
C175	C	-0.357734	-1.070305	-0.082257
C176	C	-0.024401	-0.736972	0.251077
C177	C	0.308933	-0.403639	0.584410
H178	H	-0.452696	-0.507977	-0.277922
H179	H	-0.119363	-0.174643	0.055411
H180	H	0.213970	0.158690	0.388744
H181	H	-0.903747	-1.161604	-0.265700
H182	H	-0.570414	-0.828271	0.067633
H183	H	-0.237080	-0.494938	0.400967
H184	H	-0.811365	-1.036768	-0.232215
H185	H	-0.478032	-0.703434	0.101118
H186	H	-0.144698	-0.370101	0.434452
H187	H	-0.811280	-0.978808	-0.448166
H188	H	-0.477947	-0.645474	-0.114833
H189	H	-0.144614	-0.312141	0.218501
H190	H	-0.401838	-0.954788	-0.920783
H191	H	-0.068504	-0.621455	-0.587449
H192	H	0.264829	-0.288121	-0.254116
H193	H	-0.313581	-0.633757	-0.241705
H194	H	0.019752	-0.300424	0.091628
H195	H	0.353085	0.032909	0.424961
N196	N	-0.911166	-0.927017	-0.318481
N197	N	-0.577833	-0.593684	0.014853
N198	N	-0.244500	-0.260351	0.348186
H199	H	-0.893235	-0.889648	-0.355839
H200	H	-0.559902	-0.556314	-0.022505
H201	H	-0.226568	-0.222981	0.310828
H202	H	-0.967111	-0.927788	-0.318152
H203	H	-0.633778	-0.594455	0.015182
H204	H	-0.300445	-0.261121	0.348515
N205	N	-0.387941	-0.641977	-0.494174
N206	N	-0.054608	-0.308644	-0.160841
N207	N	0.278726	0.024690	0.172493
H208	H	-0.426214	-0.675541	-0.471177
H209	H	-0.092881	-0.342208	-0.137843
H210	H	0.240452	-0.008875	0.195490
H211	H	-0.413531	-0.598889	-0.518766
H212	H	-0.080198	-0.265556	-0.185433
H213	H	0.253136	0.067777	0.147900
N214	N	-0.803992	-1.213383	-0.395541
N215	N	-0.470658	-0.880049	-0.062208
N216	N	-0.137325	-0.546716	0.271125
H217	H	-0.821898	-1.226977	-0.446626
H218	H	-0.488564	-0.893644	-0.113293
H219	H	-0.155231	-0.560310	0.220040
H220	H	-0.748047	-1.212856	-0.394863
H221	H	-0.414714	-0.879523	-0.061529
H222	H	-0.081380	-0.546190	0.271804
N223	N	-0.253568	-0.976341	-0.928541
N224	N	0.079766	-0.643008	-0.595208
N225	N	0.413099	-0.309675	-0.261875
H226	H	-0.250592	-0.977895	-0.984239
H227	H	0.082741	-0.644562	-0.650905
H228	H	0.416075	-0.311229	-0.317572
H229	H	-0.289896	-0.936875	-0.912891
H230	H	0.043438	-0.603541	-0.579558
H231	H	0.376771	-0.270208	-0.246224
N232	N	-0.491694	-1.030050	-0.928692
N233	N	-0.158360	-0.696716	-0.595358
N234	N	0.174973	-0.363383	-0.262025
H235	H	-0.489545	-1.074913	-0.961820
H236	H	-0.156212	-0.741579	-0.628487
H237	H	0.177122	-0.408246	-0.295153
H238	H	-0.525771	-1.040274	-0.885636
H239	H	-0.192437	-0.706941	-0.552302
H240	H	0.140896	-0.373608	-0.218969
N241	N	-0.455596	-1.170282	-0.926403
N242	N	-0.122263	-0.836949	-0.593070
N243	N	0.211070	-0.503616	-0.259737
H244	H	-0.456603	-1.170295	-0.982191
H245	H	-0.123269	-0.836961	-0.648857
H246	H	0.210064	-0.503628	-0.315524
H247	H	-0.467568	-1.221417	-0.907576
H248	H	-0.134235	-0.888084	-0.574242
H249	H	0.199098	-0.554751	-0.240909
N250	N	-0.397625	-0.936337	-0.786728
N251	N	-0.064291	-0.603004	-0.453394
N252	N	0.269042	-0.269670	-0.120061
H253	H	-0.436156	-0.900443	-0.805397
H254	H	-0.102822	-0.567110	-0.472064
H255	H	0.230511	-0.233776	-0.138731
H256	H	-0.397744	-0.936346	-0.730933
H257	H	-0.064410	-0.603012	-0.397600
H258	H	0.268923	-0.269679	-0.064266
H259	H	-0.380095	-0.507724	-0.477808
H260	H	-0.046762	-0.174390	-0.144474
H261	H	0.286571	0.158943	0.188859
N262	N	-0.910956	-1.108513	-0.500284
N263	N	-0.577622	-0.775179	-0.166951
N264	N	-0.244289	-0.441846	0.166383
H265	H	-0.893021	-1.071074	-0.537571
H266	H	-0.559688	-0.737740	-0.204237
H267	H	-0.226355	-0.404407	0.129096
H268	H	-0.892162	-1.159170	-0.514323
H269	H	-0.558828	-0.825837	-0.180989
H270	H	-0.225495	-0.492503	0.152344
H271	H	-0.282037	-0.506403	-0.454762
H272	H	0.051297	-0.173070	-0.121429
H273	H	0.384630	0.160263	0.211905
N274	N	-0.326730	-1.206611	-0.927401
N275	N	0.006604	-0.873277	-0.594068
N276	N	0.339937	-0.539944	-0.260734
H277	H	-0.303327	-1.232556	-0.883877
H278	H	0.030006	-0.899223	-0.550543
H279	H	0.363339	-0.565889	-0.217210
H280	H	-0.354789	-1.243656	-0.958348
H281	H	-0.021455	-0.910322	-0.625014
H282	H	0.311878	-0.576989	-0.291681
N283	N	-0.492425	-1.030374	-0.787469
N284	N	-0.159092	-0.697041	-0.454136
N285	N	0.174241	-0.363708	-0.120802
H286	H	-0.507948	-1.080548	-0.806349
H287	H	-0.174615	-0.747215	-0.473016
H288	H	0.158719	-0.413881	-0.139683
H289	H	-0.492883	-1.030500	-0.731676
H290	H	-0.159550	-0.697167	-0.398343
H291	H	0.173783	-0.363834	-0.065010
H292	H	-0.338776	-1.192253	-0.793929
H293	H	-0.005443	-0.858919	-0.460596
H294	H	0.327891	-0.525586	-0.127263
N295	N	-0.454408	-1.171012	-0.785884
N296	N	-0.121075	-0.837679	-0.452551
N297	N	0.212258	-0.504345	-0.119218
H298	H	-0.474852	-1.130883	-0.752878
H299	H	-0.141519	-0.797549	-0.419544
H300	H	0.191815	-0.464216	-0.086211
H301	H	-0.489016	-1.178992	-0.828986
H302	H	-0.155683	-0.845658	-0.495653
H303	H	0.177651	-0.512325	-0.162320
N304	N	-0.258436	-0.972606	-0.787378
N305	N	0.074897	-0.639273	-0.454045
N306	N	0.408231	-0.305939	-0.120711
H307	H	-0.299290	-0.952220	-0.755131
H308	H	0.034044	-0.618887	-0.421797
H309	H	0.367377	-0.285554	-0.088464
H310	H	-0.211067	-0.975856	-0.757872
H311	H	0.122266	-0.642522	-0.424539
H312	H	0.455599	-0.309189	-0.091206
H313	H	-0.234797	-1.087462	-0.792929
H314	H	0.098536	-0.754128	-0.459595
H315	H	0.431869	-0.420795	-0.126262
N316	N	-0.222764	-1.105828	-0.926818
N317	N	0.110570	-0.772495	-0.593484
N318	N	0.443903	-0.439162	-0.260151
H319	H	-0.237200	-1.156874	-0.909522
H320	H	0.096133	-0.823540	-0.576188
H321	H	0.429467	-0.490207	-0.242855
H322	H	-0.220902	-1.104915	-0.982574
H323	H	0.112431	-0.771581	-0.649241
H324	H	0.445764	-0.438248	-0.315907
N325	N	-0.223607	-0.641178	-0.317488
N326	N	0.109726	-0.307845	0.015845
N327	N	0.443060	0.025488	0.349179
H328	H	-0.208187	-0.622740	-0.367848
H329	H	0.125147	-0.289407	-0.034515
H330	H	0.458480	0.043927	0.298818
H331	H	-0.187640	-0.622485	-0.279060
H332	H	0.145694	-0.289151	0.054273
H333	H	0.479027	0.044182	0.387606
N334	N	-0.223207	-0.500427	-0.317524
N335	N	0.110127	-0.167094	0.015809
N336	N	0.443460	0.166240	0.349142
H337	H	-0.224922	-0.467510	-0.362529
H338	H	0.108412	-0.134176	-0.029196
H339	H	0.441745	0.199157	0.304138
H340	H	-0.203376	-0.471547	-0.274070
H341	H	0.129957	-0.138213	0.059263
H342	H	0.463290	0.195120	0.392597
H343	H	-0.313271	-0.506136	-0.242281
H344	H	0.020062	-0.172803	0.091053
H345	H	0.353396	0.160531	0.424386
H346	H	-0.480269	-0.507268	-0.374903
H347	H	-0.146936	-0.173935	-0.041570
H348	H	0.186398	0.159399	0.291764
H349	H	-0.453317	-0.635048	-0.278943
H350	H	-0.119983	-0.301715	0.054390
H351	H	0.213350	0.031618	0.387724
N352	N	-0.494617	-0.640580	-0.388871
N353	N	-0.161284	-0.307247	-0.055538
N354	N	0.172049	0.026086	0.277795
H355	H	-0.470894	-0.673299	-0.427410
H356	H	-0.137561	-0.339966	-0.094077
H357	H	0.195773	-0.006633	0.239257
H358	H	-0.533362	-0.669591	-0.360984
H359	H	-0.200029	-0.336257	-0.027651
H360	H	0.133305	-0.002924	0.305682
N361	N	-0.260095	-0.640560	-0.456252
N362	N	0.073238	-0.307227	-0.122919
N363	N	0.406571	0.026106	0.210414
H364	H	-0.239616	-0.672786	-0.415552
H365	H	0.093717	-0.339453	-0.082218
H366	H	0.427050	-0.006119	0.251115
H367	H	-0.263388	-0.670085	-0.503493
H368	H	0.069946	-0.336752	-0.170160
H369	H	0.403279	-0.003419	0.163174
