data_functionalizedCrystal
_audit_creation_method	'MofGen! by Chris Wilmer'
_symmetry_space_group_name_H-M	'P1'
_symmetry_Int_Tables_number	1
_symmetry_cell_setting	triclinic
loop_
_symmetry_equiv_pos_as_xyz
  x,y,z
_cell_length_a	17.077404
_cell_length_b	16.120484
_cell_length_c	17.077396
_cell_angle_alpha	92.868746
_cell_angle_beta	89.980499
_cell_angle_gamma	92.925780
loop_
_atom_site_label
_atom_site_type_symbol
_atom_site_fract_x
_atom_site_fract_y
_atom_site_fract_z
Zn1	Zn	1.184194	-0.331902	-0.459673
Zn2	Zn	1.517528	0.001431	-0.126340
Zn3	Zn	1.850861	0.334764	0.206994
Zn4	Zn	1.177439	-0.471326	-0.335057
Zn5	Zn	1.510772	-0.137993	-0.001724
Zn6	Zn	1.844105	0.195340	0.331610
Zn7	Zn	1.052925	-0.331932	-0.328422
Zn8	Zn	1.386258	0.001402	0.004911
Zn9	Zn	1.719591	0.334735	0.338244
Zn10	Zn	1.046234	-0.471277	-0.466278
Zn11	Zn	1.379567	-0.137944	-0.132945
Zn12	Zn	1.712901	0.195390	0.200389
O13	O	1.115198	-0.401609	-0.397358
O14	O	1.448531	-0.068276	-0.064024
O15	O	1.781865	0.265057	0.269309
O16	O	1.293145	-0.350406	-0.443155
O17	O	1.626478	-0.017073	-0.109821
O18	O	1.959811	0.316261	0.223512
O19	O	1.160895	-0.452868	-0.224331
O20	O	1.494228	-0.119535	0.109002
O21	O	1.827561	0.213798	0.442335
O22	O	1.075965	-0.215262	-0.340292
O23	O	1.409299	0.118071	-0.006959
O24	O	1.742632	0.451405	0.326375
O25	O	1.288181	-0.452840	-0.351600
O26	O	1.621515	-0.119507	-0.018266
O27	O	1.954848	0.213827	0.315067
O28	O	1.172408	-0.215241	-0.436721
O29	O	1.505742	0.118093	-0.103388
O30	O	1.839075	0.451426	0.229945
O31	O	1.069415	-0.350456	-0.219457
O32	O	1.402748	-0.017122	0.113876
O33	O	1.736081	0.316211	0.447210
O34	O	0.942191	-0.350408	-0.346697
O35	O	1.275524	-0.017074	-0.013364
O36	O	1.608857	0.316259	0.319970
O37	O	1.064562	-0.452756	-0.575247
O38	O	1.397895	-0.119422	-0.241914
O39	O	1.731228	0.213911	0.091419
O40	O	0.937275	-0.452784	-0.447979
O41	O	1.270608	-0.119451	-0.114646
O42	O	1.603942	0.213883	0.218688
O43	O	1.165921	-0.350358	-0.570395
O44	O	1.499254	-0.017025	-0.237061
O45	O	1.832587	0.316309	0.096272
O46	O	1.154407	-0.587986	-0.358004
O47	O	1.487740	-0.254652	-0.024671
O48	O	1.821074	0.078681	0.308662
O49	O	1.058011	-0.587949	-0.454412
O50	O	1.391345	-0.254616	-0.121079
O51	O	1.724678	0.078717	0.212254
C52	C	0.911251	-0.401594	-0.397335
C53	C	1.244584	-0.068261	-0.064002
C54	C	1.577917	0.265072	0.269331
C55	C	0.824000	-0.401608	-0.397345
C56	C	1.157334	-0.068275	-0.064012
C57	C	1.490667	0.265059	0.269321
C58	C	0.780467	-0.454996	-0.450006
C59	C	1.113801	-0.121662	-0.116673
C60	C	1.447134	0.211671	0.216661
C61	C	0.698487	-0.454997	-0.450019
C62	C	1.031820	-0.121664	-0.116685
C63	C	1.365153	0.211669	0.216648
C64	C	0.660041	-0.401615	-0.397366
C65	C	0.993374	-0.068282	-0.064033
C66	C	1.326707	0.265052	0.269301
C67	C	0.703580	-0.348221	-0.344703
C68	C	1.036913	-0.014888	-0.011369
C69	C	1.370246	0.318445	0.321964
C70	C	0.785559	-0.348216	-0.344694
C71	C	1.118892	-0.014883	-0.011361
C72	C	1.452226	0.318451	0.321972
C73	C	0.532709	-0.348238	-0.344722
C74	C	0.866042	-0.014905	-0.011389
C75	C	1.199376	0.318429	0.321944
C76	C	0.450724	-0.348244	-0.344729
C77	C	0.784057	-0.014911	-0.011396
C78	C	1.117391	0.318423	0.321937
C79	C	0.445637	-0.455019	-0.450047
C80	C	0.778970	-0.121686	-0.116713
C81	C	1.112303	0.211647	0.216620
C82	C	0.527616	-0.455014	-0.450038
C83	C	0.860949	-0.121681	-0.116705
C84	C	1.194283	0.211653	0.216628
C85	C	0.571149	-0.401621	-0.397374
C86	C	0.904483	-0.068288	-0.064040
C87	C	1.237816	0.265046	0.269293
C88	C	1.104771	-0.618218	-0.407662
C89	C	1.438105	-0.284884	-0.074329
C90	C	1.771438	0.048449	0.259005
C91	C	1.100383	-0.710884	-0.412097
C92	C	1.433716	-0.377550	-0.078763
C93	C	1.767049	-0.044217	0.254570
C94	C	1.092374	-0.880545	-0.420209
C95	C	1.425708	-0.547212	-0.086876
C96	C	1.759041	-0.213879	0.246457
C97	C	1.138162	-0.921833	-0.374519
C98	C	1.471495	-0.588500	-0.041185
C99	C	1.804829	-0.255166	0.292148
C100	C	1.133706	-1.016239	-0.379033
C101	C	1.467040	-0.682905	-0.045699
C102	C	1.800373	-0.349572	0.287634
C103	C	1.096829	-0.786131	-0.415696
C104	C	1.430162	-0.452798	-0.082363
C105	C	1.763496	-0.119464	0.250970
C106	C	1.319941	-0.401625	-0.397381
C107	C	1.653275	-0.068292	-0.064047
C108	C	1.986608	0.265041	0.269286
C109	C	1.407191	-0.401632	-0.397390
C110	C	1.740524	-0.068299	-0.064057
C111	C	2.073858	0.265035	0.269276
C112	C	1.115248	-0.401548	-0.602099
C113	C	1.448582	-0.068215	-0.268766
C114	C	1.781915	0.265119	0.064568
C115	C	1.115270	-0.401522	-0.689348
C116	C	1.448603	-0.068188	-0.356014
C117	C	1.781937	0.265145	-0.022681
C118	C	1.125687	-0.184155	-0.387030
C119	C	1.459020	0.149178	-0.053697
C120	C	1.792353	0.482511	0.279637
C121	C	1.130156	-0.091489	-0.382629
C122	C	1.463490	0.241844	-0.049296
C123	C	1.796823	0.575177	0.284038
C124	C	1.168049	-0.348199	-0.727812
C125	C	1.501383	-0.014866	-0.394479
C126	C	1.834716	0.318468	-0.061145
C127	C	1.168060	-0.348171	-0.809791
C128	C	1.501394	-0.014838	-0.476458
C129	C	1.834727	0.318496	-0.143125
C130	C	1.115295	-0.401471	-0.853305
C131	C	1.448628	-0.068138	-0.519971
C132	C	1.781961	0.265196	-0.186638
C133	C	1.062509	-0.454796	-0.814835
C134	C	1.395843	-0.121463	-0.481501
C135	C	1.729176	0.211870	-0.148168
C136	C	1.062495	-0.454819	-0.732857
C137	C	1.395829	-0.121486	-0.399523
C138	C	1.729162	0.211847	-0.066190
C139	C	1.062543	-0.454746	-0.985702
C140	C	1.395877	-0.121413	-0.652369
C141	C	1.729210	0.211920	-0.319036
C142	C	1.062558	-0.454725	-1.067686
C143	C	1.395891	-0.121391	-0.734353
C144	C	1.729225	0.211942	-0.401019
C145	C	1.168108	-0.348098	-1.062637
C146	C	1.501441	-0.014765	-0.729304
C147	C	1.834775	0.318569	-0.395970
C148	C	1.168094	-0.348121	-0.980659
C149	C	1.501428	-0.014788	-0.647326
C150	C	1.834761	0.318546	-0.313992
C151	C	1.115310	-0.401448	-0.942195
C152	C	1.448643	-0.068114	-0.608861
C153	C	1.781976	0.265219	-0.275528
C154	C	1.115196	-0.401610	-0.193410
C155	C	1.448529	-0.068277	0.139924
C156	C	1.781862	0.265056	0.473257
C157	C	1.115338	-0.401402	-0.106150
C158	C	1.448671	-0.068068	0.227183
C159	C	1.782004	0.265265	0.560516
H160	H	0.663045	-0.498472	-0.492900
H161	H	0.996379	-0.165139	-0.159566
H162	H	1.329712	0.168195	0.173767
H163	H	1.211040	-0.304752	-0.841105
H164	H	1.544374	0.028581	-0.507772
H165	H	1.877707	0.361915	-0.174438
H166	H	1.049831	-0.916096	-0.462712
H167	H	1.383164	-0.582763	-0.129379
H168	H	1.716497	-0.249430	0.203955
H169	H	1.211020	-0.304798	-0.692389
H170	H	1.544353	0.028535	-0.359056
H171	H	1.877686	0.361868	-0.025722
H172	H	0.821003	-0.304738	-0.301816
H173	H	1.154336	0.028595	0.031517
H174	H	1.487670	0.361929	0.364850
C175	C	1.226137	-0.289486	-0.932795
C176	C	1.559471	0.043847	-0.599462
C177	C	1.892804	0.377180	-0.266129
N178	N	1.269854	-0.245319	-0.896744
N179	N	1.603187	0.088015	-0.563411
N180	N	1.936520	0.421348	-0.230078
H181	H	1.019544	-0.498191	-0.850270
H182	H	1.352877	-0.164858	-0.516936
H183	H	1.686210	0.168475	-0.183603
C184	C	0.822750	-0.513722	-0.507929
C185	C	1.156084	-0.180389	-0.174596
C186	C	1.489417	0.152945	0.158738
N187	N	0.854596	-0.557954	-0.551560
N188	N	1.187929	-0.224621	-0.218227
N189	N	1.521262	0.108713	0.115106
H190	H	1.019590	-0.498124	-1.103113
H191	H	1.352923	-0.164791	-0.769779
H192	H	1.686257	0.168542	-0.436446
C193	C	1.195635	-0.873804	-0.317088
C194	C	1.528969	-0.540471	0.016246
C195	C	1.862302	-0.207137	0.349579
N196	N	1.238919	-0.837625	-0.273829
N197	N	1.572252	-0.504291	0.059504
N198	N	1.905586	-0.170958	0.392837
C199	C	0.661286	-0.289498	-0.286786
C200	C	0.994619	0.043835	0.046547
C201	C	1.327953	0.377169	0.379881
N202	N	0.629431	-0.245268	-0.243160
N203	N	0.962765	0.088065	0.090173
N204	N	1.296098	0.421398	0.423507
C205	C	1.226171	-0.289437	-1.104949
C206	C	1.559505	0.043896	-0.771616
C207	C	1.892838	0.377229	-0.438282
N208	N	1.269905	-0.245259	-1.136822
N209	N	1.603238	0.088075	-0.803489
N210	N	1.936572	0.421408	-0.470156
C211	C	0.408435	-0.289518	-0.286812
C212	C	0.741768	0.043816	0.046522
C213	C	1.075102	0.377149	0.379855
N214	N	0.376583	-0.245284	-0.243188
N215	N	0.709916	0.088050	0.090146
N216	N	1.043250	0.421383	0.423479
H217	H	1.019509	-0.498232	-0.701540
H218	H	1.352843	-0.164899	-0.368207
H219	H	1.686176	0.168435	-0.034873
C220	C	0.569905	-0.513742	-0.507955
C221	C	0.903238	-0.180408	-0.174622
C222	C	1.236571	0.152925	0.158712
N223	N	0.601757	-0.557975	-0.551580
N224	N	0.935090	-0.224642	-0.218246
N225	N	1.268423	0.108691	0.115087
H226	H	0.410188	-0.498491	-0.492930
H227	H	0.743521	-0.165158	-0.159597
H228	H	1.076855	0.168175	0.173736
C229	C	1.004480	-0.513412	-0.943394
C230	C	1.337813	-0.180078	-0.610061
C231	C	1.671146	0.153255	-0.276727
N232	N	0.960751	-0.557602	-0.911527
N233	N	1.294084	-0.224268	-0.578194
N234	N	1.627418	0.109065	-0.244861
H235	H	0.568152	-0.304752	-0.301844
H236	H	0.901485	0.028581	0.031489
H237	H	1.234819	0.361914	0.364823
