data_functionalizedCrystal
_audit_creation_method	'MofGen! by Chris Wilmer'
_symmetry_space_group_name_H-M	'P1'
_symmetry_Int_Tables_number	1
_symmetry_cell_setting	triclinic
loop_
_symmetry_equiv_pos_as_xyz
  x,y,z
_cell_length_a	19.077105
_cell_length_b	19.077068
_cell_length_c	19.077174
_cell_angle_alpha	94.657148
_cell_angle_beta	85.483752
_cell_angle_gamma	90.115316
loop_
_atom_site_label
_atom_site_type_symbol
_atom_site_fract_x
_atom_site_fract_y
_atom_site_fract_z
Zn1	Zn	1.080478	-0.341972	-0.455027
Zn2	Zn	1.580478	0.158028	0.044973
Zn3	Zn	1.071301	-0.454742	-0.341487
Zn4	Zn	1.571301	0.045258	0.158513
Zn5	Zn	0.958244	-0.332134	-0.332045
Zn6	Zn	1.458244	0.167866	0.167955
Zn7	Zn	0.958197	-0.454696	-0.454603
Zn8	Zn	1.458197	0.045304	0.045397
O9	O	1.017055	-0.395886	-0.395791
O10	O	1.517055	0.104114	0.104209
O11	O	1.177751	-0.361068	-0.444095
O12	O	1.677751	0.138932	0.055905
O13	O	1.052483	-0.434380	-0.241427
O14	O	1.552483	0.065620	0.258573
O15	O	0.978319	-0.234951	-0.344585
O16	O	1.478319	0.265049	0.155415
O17	O	1.171009	-0.443920	-0.360677
O18	O	1.671009	0.056080	0.139323
O19	O	1.068124	-0.242180	-0.434939
O20	O	1.568124	0.257820	0.065061
O21	O	0.969420	-0.344300	-0.234490
O22	O	1.469420	0.155700	0.265510
O23	O	0.859748	-0.344255	-0.344174
O24	O	1.359748	0.155745	0.155826
O25	O	0.978239	-0.443841	-0.553467
O26	O	1.478239	0.056159	-0.053467
O27	O	0.859713	-0.434301	-0.434217
O28	O	1.359713	0.065699	0.065783
O29	O	1.068079	-0.361024	-0.553779
O30	O	1.568079	0.138976	-0.053779
O31	O	1.052438	-0.553224	-0.360266
O32	O	1.552438	-0.053224	0.139734
O33	O	0.969340	-0.553190	-0.443372
O34	O	1.469340	-0.053190	0.056628
C35	C	0.834193	-0.388206	-0.388125
C36	C	1.334193	0.111794	0.111875
C37	C	0.755964	-0.384938	-0.384863
C38	C	1.255964	0.115062	0.115137
C39	C	0.719207	-0.430350	-0.430143
C40	C	1.219207	0.069650	0.069857
C41	C	0.645702	-0.427270	-0.427081
C42	C	1.145702	0.072730	0.072919
C43	C	0.608956	-0.378782	-0.378736
C44	C	1.108956	0.121218	0.121264
C45	C	0.645719	-0.333365	-0.333454
C46	C	1.145719	0.166635	0.166546
C47	C	0.719222	-0.336442	-0.336520
C48	C	1.219222	0.163558	0.163480
C49	C	0.389126	-0.364542	-0.364550
C50	C	0.889126	0.135458	0.135450
C51	C	0.315618	-0.361471	-0.361486
C52	C	0.815618	0.138529	0.138514
C53	C	0.315607	-0.455375	-0.455114
C54	C	0.815607	0.044625	0.044886
C55	C	0.389111	-0.458451	-0.458173
C56	C	0.889111	0.041549	0.041827
C57	C	0.425867	-0.413032	-0.412894
C58	C	0.925867	0.086968	0.087106
N59	N	0.533823	-0.375634	-0.375603
N60	N	1.033823	0.124366	0.124397
N61	N	0.500999	-0.416176	-0.416030
N62	N	1.000999	0.083824	0.083970
C63	C	1.009908	-0.578745	-0.402813
C64	C	1.509908	-0.078745	0.097187
C65	C	1.006916	-0.656976	-0.405844
C66	C	1.506916	-0.156976	0.094156
C67	C	1.048810	-0.693727	-0.364038
C68	C	1.548810	-0.193727	0.135962
C69	C	1.046000	-0.767234	-0.366893
C70	C	1.546000	-0.267234	0.133107
C71	C	1.001291	-0.803989	-0.411551
C72	C	1.501291	-0.303989	0.088449
C73	C	0.959395	-0.767233	-0.453361
C74	C	1.459395	-0.267233	0.046639
C75	C	0.962209	-0.693728	-0.450510
C76	C	1.462209	-0.193728	0.049490
C77	C	0.988234	-1.023827	-0.424718
C78	C	1.488234	-0.523827	0.075282
C79	C	0.985422	-1.097337	-0.427565
C80	C	1.485422	-0.597337	0.072435
C81	C	1.072029	-1.097333	-0.341097
C82	C	1.572029	-0.597333	0.158903
C83	C	1.074836	-1.023826	-0.338247
C84	C	1.574836	-0.523826	0.161753
C85	C	1.032942	-0.987077	-0.380060
C86	C	1.532942	-0.487077	0.119940
N87	N	0.998416	-0.879124	-0.414468
N88	N	1.498416	-0.379124	0.085532
N89	N	1.035821	-0.911943	-0.377146
N90	N	1.535821	-0.411943	0.122854
C91	C	1.200631	-0.403597	-0.403486
C92	C	1.700631	0.096403	0.096514
C93	C	1.278861	-0.406882	-0.406766
C94	C	1.778861	0.093118	0.093234
C95	C	1.024177	-0.403525	-0.579959
C96	C	1.524177	0.096475	-0.079959
C97	C	1.027212	-0.406780	-0.658440
C98	C	1.527212	0.093220	-0.158440
C99	C	1.024250	-0.212315	-0.388757
C100	C	1.524250	0.287685	0.111243
C101	C	1.027316	-0.134088	-0.385759
C102	C	1.527316	0.365912	0.114241
C103	C	0.985394	-0.361410	-0.691699
C104	C	1.485394	0.138590	-0.191699
C105	C	0.988242	-0.364475	-0.765441
C106	C	1.488242	0.135525	-0.265441
C107	C	1.032914	-0.412906	-0.805923
C108	C	1.532914	0.087094	-0.305923
C109	C	1.074734	-0.458280	-0.772659
C110	C	1.574734	0.041720	-0.272659
C111	C	1.071881	-0.455219	-0.698918
C112	C	1.571881	0.044781	-0.198918
C113	C	1.046080	-0.427094	-1.026851
C114	C	1.546080	0.072906	-0.526851
C115	C	1.048931	-0.430150	-1.100597
C116	C	1.548931	0.069850	-0.600597
C117	C	0.962438	-0.336345	-1.093373
C118	C	1.462438	0.163655	-0.593373
C119	C	0.959592	-0.333285	-1.019632
C120	C	1.459592	0.166715	-0.519632
C121	C	1.001410	-0.378662	-0.986374
C122	C	1.501410	0.121338	-0.486374
N123	N	1.035828	-0.416037	-0.881299
N124	N	1.535828	0.083963	-0.381299
N125	N	0.998491	-0.375533	-0.911000
N126	N	1.498491	0.124467	-0.411000
C127	C	1.010004	-0.388228	-0.212338
C128	C	1.510004	0.111772	0.287662
C129	C	1.007113	-0.384781	-0.133855
C130	C	1.507113	0.115219	0.366145
H131	H	0.419044	-0.327564	-0.327676
H132	H	0.919044	0.172436	0.172324
H133	H	0.949023	-1.127262	-0.463943
H134	H	1.449023	-0.627262	0.036057
H135	H	1.111241	-0.993902	-0.301883
H136	H	1.611241	-0.493902	0.198117
O137	O	1.112706	-1.133143	-0.300562
O138	O	1.612706	-0.633143	0.199438
C139	C	1.146741	-1.246378	-0.266613
C140	C	1.646741	-0.746378	0.233387
C141	C	1.100640	-1.205913	-0.312566
C142	C	1.600640	-0.705913	0.187434
H143	H	1.136990	-1.305219	-0.276291
H144	H	1.636990	-0.805219	0.223709
H145	H	1.204530	-1.234818	-0.280887
H146	H	1.704530	-0.734818	0.219113
H147	H	1.132794	-1.229044	-0.208597
H148	H	1.632794	-0.729044	0.291403
H149	H	1.114524	-1.223224	-0.370594
H150	H	1.614524	-0.723224	0.129406
H151	H	1.042862	-1.217475	-0.298232
H152	H	1.542862	-0.717475	0.201768
H153	H	1.080115	-0.797153	-0.332849
H154	H	1.580115	-0.297153	0.167151
O155	O	0.947460	-0.988241	-0.465347
O156	O	1.447460	-0.488241	0.034653
C157	C	0.861273	-0.996010	-0.551424
C158	C	1.361273	-0.496010	-0.051424
C159	C	0.907407	-1.036401	-0.505440
C160	C	1.407407	-0.536401	-0.005440
H161	H	0.828890	-1.034931	-0.583862
H162	H	1.328890	-0.534931	-0.083862
H163	H	0.824514	-0.958775	-0.516129
H164	H	1.324514	-0.458775	-0.016129
H165	H	0.896306	-0.964417	-0.588362
H166	H	1.396306	-0.464417	-0.088362
H167	H	0.872430	-1.068034	-0.468496
H168	H	1.372430	-0.568034	0.031504
H169	H	0.944172	-1.073594	-0.540778
H170	H	1.444172	-0.573594	-0.040778
H171	H	0.949021	-0.321969	-0.658744
H172	H	1.449021	0.178031	-0.158744
H173	H	0.615795	-0.293882	-0.294093
H174	H	1.115795	0.206118	0.205907
H175	H	0.954186	-0.327532	-0.792517
H176	H	1.454186	0.172468	-0.292517
O177	O	0.609910	-0.471412	-0.470961
O178	O	1.109910	0.028588	0.029039
C179	C	0.523600	-0.563387	-0.480480
C180	C	1.023600	-0.063387	0.019520
C181	C	0.564075	-0.513423	-0.430705
C182	C	1.064075	-0.013423	0.069295
H183	H	0.486543	-0.597376	-0.447953
H184	H	0.986543	-0.097376	0.052047
H185	H	0.491836	-0.531263	-0.514770
H186	H	0.991836	-0.031263	-0.014770
H187	H	0.562499	-0.598546	-0.515574
H188	H	1.062499	-0.098546	-0.015574
H189	H	0.525224	-0.478254	-0.395567
H190	H	1.025224	0.021746	0.104433
H191	H	0.595849	-0.545590	-0.396463
H192	H	1.095849	-0.045590	0.103537
H193	H	0.922995	-0.797165	-0.489726
H194	H	1.422995	-0.297165	0.010274
O195	O	0.754819	-0.292303	-0.292459
O196	O	1.254819	0.207697	0.207541
C197	C	0.747080	-0.198815	-0.199293
C198	C	1.247080	0.301185	0.300707
C199	C	0.706679	-0.248775	-0.249139
C200	C	1.206679	0.251225	0.250861
H201	H	0.708177	-0.163600	-0.164267
H202	H	1.208177	0.336400	0.335733
H203	H	0.778774	-0.230943	-0.164946
H204	H	1.278774	0.269057	0.335054
H205	H	0.784209	-0.164883	-0.231807
H206	H	1.284209	0.335117	0.268193
H207	H	0.669513	-0.282718	-0.216682
H208	H	1.169513	0.217282	0.283318
H209	H	0.675031	-0.216606	-0.283489
H210	H	1.175031	0.283394	0.216511
O211	O	0.424697	-0.505573	-0.505199
O212	O	0.924697	-0.005573	-0.005199
C213	C	0.416924	-0.598420	-0.597710
C214	C	0.916924	-0.098420	-0.097710
C215	C	0.376537	-0.545073	-0.544501
C216	C	0.876537	-0.045073	-0.044501
H217	H	0.378003	-0.630380	-0.629490
H218	H	0.878003	-0.130380	-0.129490
H219	H	0.454016	-0.569177	-0.634928
H220	H	0.954016	-0.069177	-0.134928
H221	H	0.448656	-0.635232	-0.568063
H222	H	0.948656	-0.135232	-0.068063
H223	H	0.344764	-0.508248	-0.574089
H224	H	0.844764	-0.008248	-0.074089
H225	H	0.339487	-0.574362	-0.507285
H226	H	0.839487	-0.074362	-0.007285
H227	H	0.928095	-0.663806	-0.484553
H228	H	1.428095	-0.163806	0.015447
H229	H	0.923214	-0.293850	-0.986676
H230	H	1.423214	0.206150	-0.486676
H231	H	0.928392	-0.299403	-1.120460
H232	H	1.428392	0.200597	-0.620460
H233	H	1.085311	-0.469589	-1.133555
H234	H	1.585311	0.030411	-0.633555
H235	H	1.080123	-0.464050	-0.999782
H236	H	1.580123	0.035950	-0.499782
H237	H	1.111103	-0.497717	-0.805625
H238	H	1.611103	0.002283	-0.305625
H239	H	1.105940	-0.492158	-0.671840
H240	H	1.605940	0.007842	-0.171840
O241	O	0.279875	-0.499387	-0.499170
O242	O	0.779875	0.000613	0.000830
C243	C	0.200185	-0.509474	-0.591364
C244	C	0.700185	-0.009474	-0.091364
C245	C	0.240625	-0.459553	-0.541518
C246	C	0.740625	0.040447	-0.041518
H247	H	0.168431	-0.477288	-0.625605
H248	H	0.668431	0.022712	-0.125605
H249	H	0.239043	-0.544647	-0.626497
H250	H	0.739043	-0.044647	-0.126497
H251	H	0.163104	-0.543453	-0.558852
H252	H	0.663104	-0.043453	-0.058852
H253	H	0.277707	-0.425529	-0.573974
H254	H	0.777707	0.074471	-0.073974
H255	H	0.201727	-0.424428	-0.506383
H256	H	0.701727	0.075572	-0.006383
O257	O	0.754792	-0.477473	-0.477169
O258	O	1.254792	0.022527	0.022831
C259	C	0.747012	-0.570312	-0.569687
C260	C	1.247012	-0.070312	-0.069687
C261	C	0.706628	-0.516969	-0.516471
C262	C	1.206628	-0.016969	-0.016471
H263	H	0.708089	-0.602268	-0.601467
H264	H	1.208089	-0.102268	-0.101467
H265	H	0.784102	-0.541065	-0.606905
H266	H	1.284102	-0.041065	-0.106905
H267	H	0.778746	-0.607127	-0.540047
H268	H	1.278746	-0.107127	-0.040047
H269	H	0.674854	-0.480140	-0.546053
H270	H	1.174854	0.019860	-0.046053
H271	H	0.669581	-0.546261	-0.479255
H272	H	1.169581	-0.046261	0.020745
O273	O	1.092199	-0.658097	-0.320559
O274	O	1.592199	-0.158097	0.179441
C275	C	1.122650	-0.632056	-0.201040
C276	C	1.622650	-0.132056	0.298960
C277	C	1.073472	-0.672455	-0.250201
C278	C	1.573472	-0.172455	0.249799
H279	H	1.107518	-0.643638	-0.144144
H280	H	1.607518	-0.143638	0.355856
H281	H	1.179331	-0.649363	-0.216366
H282	H	1.679331	-0.149363	0.283634
H283	H	1.117478	-0.573212	-0.206218
H284	H	1.617478	-0.073212	0.293782
H285	H	1.078582	-0.731307	-0.245049
H286	H	1.578582	-0.231307	0.254951
H287	H	1.016811	-0.655090	-0.234861
H288	H	1.516811	-0.155090	0.265139
O289	O	0.280032	-0.314301	-0.314502
O290	O	0.780032	0.185699	0.185498
C291	C	0.287794	-0.221510	-0.221933
C292	C	0.787794	0.278490	0.278067
C293	C	0.328183	-0.274878	-0.275118
C294	C	0.828183	0.225122	0.224882
H295	H	0.326705	-0.189633	-0.190067
H296	H	0.826705	0.310367	0.309933
H297	H	0.256095	-0.184624	-0.251532
H298	H	0.756095	0.315376	0.248468
H299	H	0.250668	-0.250805	-0.184792
H300	H	0.750668	0.249195	0.315208
H301	H	0.365344	-0.245642	-0.312273
H302	H	0.865344	0.254358	0.187727
H303	H	0.359835	-0.311762	-0.245473
H304	H	0.859835	0.188238	0.254527
