data_functionalizedCrystal
_audit_creation_method	'MofGen! by Chris Wilmer'
_symmetry_space_group_name_H-M	'P1'
_symmetry_Int_Tables_number	1
_symmetry_cell_setting	triclinic
loop_
_symmetry_equiv_pos_as_xyz
  x,y,z
_cell_length_a	25.427154
_cell_length_b	25.426324
_cell_length_c	25.422586
_cell_angle_alpha	60.006367
_cell_angle_beta	60.012446
_cell_angle_gamma	59.992398
loop_
_atom_site_label
_atom_site_type_symbol
_atom_site_fract_x
_atom_site_fract_y
_atom_site_fract_z
O1	O	0.072968	-0.768436	0.642532
O2	O	0.027520	-0.598284	0.517710
O3	O	0.135268	-0.705940	0.517611
O4	O	-0.034780	-0.660780	0.642632
O5	O	0.171018	-0.670200	0.553260
O6	O	0.063270	-0.562544	0.553360
O7	O	0.108718	-0.732696	0.678182
Zn8	Zn	0.091670	-0.641945	0.621431
Zn9	Zn	0.044568	-0.689034	0.574461
O10	O	0.000970	-0.625039	0.678281
N11	N	0.123818	-0.609812	0.653490
N12	N	0.012426	-0.721173	0.542402
C13	C	0.168482	-0.466269	0.698103
C14	C	0.168494	-0.565177	0.698095
C15	C	0.193243	-0.540453	0.722807
C16	C	0.301113	-0.521853	0.665993
C17	C	0.368545	-0.544324	0.643486
C18	C	0.368579	-0.653434	0.685090
C19	C	0.301149	-0.630961	0.707599
C20	C	0.184722	-0.432539	0.631812
C21	C	0.162210	-0.365100	0.609357
C22	C	0.107225	-0.365129	0.719489
C23	C	0.129737	-0.432567	0.741943
C24	C	0.102194	-0.548896	0.714421
C25	C	0.079702	-0.571372	0.691949
C26	C	0.189805	-0.626409	0.636839
C27	C	0.212300	-0.603934	0.659303
C28	C	0.102289	-0.548918	0.830735
C29	C	0.079866	-0.571415	0.898171
C30	C	0.190015	-0.626466	0.898104
C31	C	0.212437	-0.603971	0.830666
C32	C	0.168573	-0.565195	0.796984
C33	C	0.267418	-0.565170	0.698047
C34	C	-0.130981	-0.765617	0.497386
C35	C	-0.032127	-0.765741	0.497606
C36	C	-0.056804	-0.790430	0.472789
C37	C	-0.075480	-0.898263	0.529507
C38	C	-0.053057	-0.965702	0.552014
C39	C	0.056052	-0.965829	0.510599
C40	C	0.033627	-0.898392	0.488091
C41	C	-0.164787	-0.781859	0.563659
C42	C	-0.232219	-0.759299	0.586018
C43	C	-0.232034	-0.704261	0.475827
C44	C	-0.164602	-0.726821	0.453469
C45	C	-0.048372	-0.699446	0.481299
C46	C	-0.025938	-0.677008	0.503867
C47	C	0.028987	-0.787155	0.559036
C48	C	0.006552	-0.809596	0.536475
C49	C	-0.048188	-0.699454	0.364860
C50	C	-0.025608	-0.677017	0.297425
C51	C	0.029406	-0.787170	0.297492
C52	C	0.006827	-0.809605	0.364929
C53	C	-0.031972	-0.765745	0.398611
C54	C	-0.032140	-0.864611	0.497548
N55	N	0.401319	-0.609788	0.653344
O56	O	0.621664	-0.620517	0.494685
O57	O	0.621901	-0.745740	0.664659
O58	O	0.621803	-0.745452	0.556857
O59	O	0.621762	-0.620805	0.602487
O60	O	0.514676	-0.709815	0.592658
O61	O	0.514774	-0.710104	0.700460
O62	O	0.514537	-0.584881	0.530485
Zn63	Zn	0.497647	-0.641834	0.621157
Zn64	Zn	0.638791	-0.688787	0.573988
O65	O	0.514635	-0.585169	0.638287
N66	N	0.735119	-0.720834	0.541794
N67	N	0.123794	-0.332357	0.653504
O68	O	-0.034774	-0.111885	0.642639
O69	O	0.135202	-0.111860	0.517412
O70	O	0.027364	-0.111888	0.517742
O71	O	0.073064	-0.111857	0.642310
O72	O	0.063120	-0.219026	0.553444
O73	O	0.170958	-0.218998	0.553115
O74	O	0.000983	-0.219022	0.678342
Zn75	Zn	0.091647	-0.236020	0.621397
Zn76	Zn	0.044537	-0.094862	0.574357
O77	O	0.108821	-0.218994	0.678013
N78	N	0.012383	0.001474	0.542251
N79	N	0.124036	-0.609854	0.930891
O80	O	0.113202	-0.768401	1.151342
O81	O	-0.011992	-0.598359	1.151385
O82	O	-0.011700	-0.706176	1.151343
O83	O	0.112910	-0.660584	1.151384
O84	O	0.023980	-0.670446	1.044212
O85	O	0.023689	-0.562630	1.044253
O86	O	0.148882	-0.732671	1.044211
Zn87	Zn	0.091951	-0.641977	1.027223
Zn88	Zn	0.044940	-0.689053	1.168373
O89	O	0.148590	-0.624854	1.044252
N90	N	0.012853	-0.721183	1.264704
C91	C	0.041135	-0.558973	0.518338
C92	C	0.174567	-0.692292	0.518215
C93	C	0.095103	-0.772007	0.677553
C94	C	-0.038330	-0.638687	0.677677
C95	C	0.568366	-0.745166	0.703974
C96	C	0.568246	-0.744810	0.570474
C97	C	0.568069	-0.585454	0.491172
C98	C	0.568192	-0.585812	0.624671
C99	C	0.174449	-0.165294	0.517975
C100	C	0.040949	-0.165460	0.518427
C101	C	-0.038309	-0.165456	0.677735
C102	C	0.095236	-0.165423	0.677328
C103	C	-0.011393	-0.559072	1.097824
C104	C	-0.011024	-0.692583	1.097752
C105	C	0.148283	-0.771958	1.097772
C106	C	0.147922	-0.638440	1.097820
H107	H	0.025889	-0.558152	0.925643
O108	O	0.194691	-0.626923	1.097851
C109	C	0.303246	-0.669064	1.097799
C110	C	0.250333	-0.682198	1.097779
H111	H	0.348250	-0.713740	1.097727
H112	H	0.285451	-0.656833	1.142651
H113	H	0.315223	-0.626871	1.052983
H114	H	0.238333	-0.724398	1.142565
H115	H	0.268157	-0.694391	1.052897
H116	H	0.105023	-0.165413	0.716462
O117	O	0.568150	-0.791468	0.558837
C118	C	0.512657	-0.822229	0.530484
C119	C	0.512679	-0.769340	0.543661
H120	H	0.467820	-0.804353	0.518198
H121	H	0.512685	-0.867238	0.575145
H122	H	0.557483	-0.834238	0.488307
H123	H	0.467860	-0.757276	0.585817
H124	H	0.512685	-0.724364	0.498967
O125	O	0.195097	-0.830262	1.097783
C126	C	0.225064	-0.936363	1.097698
C127	C	0.171985	-0.870370	1.097703
H128	H	0.206402	-0.968804	1.097621
H129	H	0.239121	-0.959551	1.142544
H130	H	0.268987	-0.929570	1.052876
H131	H	0.128027	-0.877107	1.142496
H132	H	0.157983	-0.847204	1.052828
O133	O	0.568067	-0.538527	0.432935
C134	C	0.623452	-0.468054	0.338367
C135	C	0.623528	-0.521185	0.404314
H136	H	0.668294	-0.454026	0.315202
H137	H	0.578623	-0.424110	0.345147
H138	H	0.623402	-0.486727	0.305910
H139	H	0.623601	-0.502572	0.436805
H140	H	0.668353	-0.565118	0.397485
O141	O	-0.058347	-0.500839	1.097808
C142	C	-0.166960	-0.434836	1.097850
C143	C	-0.113838	-0.500808	1.097855
H144	H	-0.211841	-0.434793	1.097901
H145	H	-0.149296	-0.395481	1.053014
H146	H	-0.179081	-0.425407	1.142683
H147	H	-0.101692	-0.510299	1.053053
H148	H	-0.131529	-0.540127	1.142721
O149	O	0.029486	-0.500693	0.471547
C150	C	-0.035837	-0.423100	0.403745
C151	C	-0.022705	-0.489120	0.456727
H152	H	-0.078043	-0.413717	0.391757
H153	H	0.008830	-0.422862	0.358752
H154	H	-0.048047	-0.383821	0.421539
H155	H	-0.010512	-0.528436	0.438994
H156	H	-0.067383	-0.489303	0.501710
H157	H	0.066565	-0.517338	0.803314
H158	H	0.568427	-0.784476	0.752793
H159	H	0.568183	-0.546658	0.634434
H160	H	0.223406	-0.701920	0.478955
O161	O	0.232588	-0.164899	0.471014
C162	C	0.338538	-0.164387	0.440871
C163	C	0.272720	-0.164819	0.494105
H164	H	0.371008	-0.164335	0.459525
H165	H	0.331526	-0.119441	0.397082
H166	H	0.361821	-0.209114	0.426606
H167	H	0.249402	-0.120122	0.508425
H168	H	0.279775	-0.209793	0.537859
H169	H	0.104814	-0.820885	0.716757
H170	H	0.225736	-0.658027	0.925521
O171	O	-0.057732	-0.704089	1.097598
C172	C	-0.127925	-0.673079	1.041985
C173	C	-0.075042	-0.659969	1.042085
H174	H	-0.141927	-0.637425	0.997101
H175	H	-0.171937	-0.667283	1.086775
H176	H	-0.109029	-0.724273	1.041985
H177	H	-0.093878	-0.608778	1.042062
H178	H	-0.031040	-0.665808	0.997299
O179	O	0.029188	-0.165517	0.471823
C180	C	-0.047372	-0.165544	0.442401
C181	C	-0.034138	-0.165482	0.495236
H182	H	-0.098574	-0.165502	0.461306
H183	H	-0.011745	-0.210399	0.428339
H184	H	-0.041603	-0.120726	0.398419
H185	H	-0.039915	-0.210270	0.539252
H186	H	-0.069763	-0.120598	0.509244
O187	O	-0.096620	-0.627094	0.724455
C188	C	-0.202708	-0.550783	0.754236
C189	C	-0.136720	-0.563823	0.701208
H190	H	-0.235151	-0.499635	0.735456
H191	H	-0.195989	-0.556549	0.798161
H192	H	-0.225850	-0.586538	0.768336
H193	H	-0.113541	-0.528080	0.687053
H194	H	-0.143481	-0.558080	0.657317
O195	O	-0.096592	-0.165423	0.724555
C196	C	-0.202702	-0.165460	0.754540
C197	C	-0.136729	-0.165489	0.701459
H198	H	-0.235166	-0.165527	0.735891
H199	H	-0.225867	-0.120605	0.768571
H200	H	-0.195892	-0.210278	0.798479
H201	H	-0.143482	-0.120701	0.657485
H202	H	-0.113586	-0.210374	0.687483
H203	H	0.266414	-0.617231	0.803190
H204	H	0.025716	-0.558101	0.705227
O205	O	0.059615	-0.511155	0.752002
C206	C	-0.027675	-0.411926	0.760684
C207	C	0.020522	-0.454597	0.718047
H208	H	-0.059303	-0.366196	0.733253
H209	H	-0.000246	-0.398604	0.773930
H210	H	-0.059187	-0.439416	0.806457
H211	H	0.052047	-0.427147	0.672247
H212	H	-0.006946	-0.467923	0.704853
O213	O	0.232393	-0.663959	0.599067
C214	C	0.319617	-0.672543	0.499803
C215	C	0.271404	-0.629949	0.542515
H216	H	0.351178	-0.645069	0.454079
H217	H	0.292201	-0.685805	0.486480
H218	H	0.351194	-0.718312	0.527258
H219	H	0.239814	-0.584153	0.515100
H220	H	0.298859	-0.616739	0.555841
O221	O	0.268445	-0.673052	0.738631
C222	C	0.247837	-0.752352	0.732645
C223	C	0.284901	-0.704698	0.697420
H224	H	0.261138	-0.777961	0.699345
H225	H	0.193839	-0.725019	0.747074
H226	H	0.261128	-0.789391	0.777616
H227	H	0.271664	-0.667649	0.652425
H228	H	0.338890	-0.732075	0.683039
O229	O	0.401247	-0.502205	0.612251
C230	C	0.421780	-0.408698	0.521382
C231	C	0.384716	-0.456363	0.556685
H232	H	0.408418	-0.371615	0.476458
H233	H	0.475778	-0.436021	0.506884
H234	H	0.408550	-0.383144	0.554702
H235	H	0.397892	-0.481930	0.523402
H236	H	0.330728	-0.429005	0.571194
O237	O	0.268278	-0.457970	0.656829
C238	C	0.192197	-0.376373	0.706532
C239	C	0.229331	-0.448741	0.717003
H240	H	0.160709	-0.368887	0.755174
H241	H	0.160552	-0.357363	0.676937
H242	H	0.227879	-0.349286	0.679727
H243	H	0.193695	-0.475880	0.743825
H244	H	0.260985	-0.467701	0.746571
H245	H	0.068924	-0.870994	0.462067
O246	O	0.222260	-0.465251	0.589205
C247	C	0.230820	-0.485842	0.501950
C248	C	0.188235	-0.448766	0.550179
H249	H	0.203333	-0.472517	0.470376
H250	H	0.244107	-0.539843	0.529355
H251	H	0.276571	-0.472578	0.470384
H252	H	0.142458	-0.461975	0.581757
H253	H	0.175000	-0.394774	0.522734
O254	O	0.113927	-0.465238	0.806364
C255	C	0.056979	-0.458153	0.913233
C256	C	0.074849	-0.421074	0.840297
H257	H	0.025371	-0.422463	0.940689
H258	H	0.102737	-0.489704	0.926519
H259	H	0.029562	-0.489748	0.926487
H260	H	0.102250	-0.389444	0.826990
H261	H	0.029068	-0.389564	0.827051
O262	O	-0.041456	-0.612595	0.264745
C263	C	-0.098388	-0.505710	0.271803
C264	C	-0.080502	-0.578647	0.308894
H265	H	-0.129947	-0.478241	0.307481
H266	H	-0.125816	-0.492375	0.240168
H267	H	-0.052595	-0.492516	0.240292
H268	H	-0.126261	-0.591892	0.340440
H269	H	-0.053048	-0.591942	0.340487
H270	H	0.266286	-0.617183	0.646003
H271	H	0.396045	-0.707006	0.692856
H272	H	0.175430	-0.337636	0.555374
H273	H	-0.079784	-0.663733	0.392281
O274	O	0.067101	-0.829863	0.264878
C275	C	0.119238	-0.941490	0.272071
C276	C	0.076555	-0.893208	0.309087
H277	H	0.126883	-0.992715	0.307797
H278	H	0.167799	-0.933840	0.240600
H279	H	0.094591	-0.933653	0.240403
H280	H	0.101145	-0.901016	0.340789
H281	H	0.027996	-0.900871	0.340516
O282	O	-0.086040	-0.656817	0.443644
C283	C	-0.185199	-0.569453	0.434841
C284	C	-0.142610	-0.617708	0.477559
H285	H	-0.230938	-0.537813	0.462239
H286	H	-0.198499	-0.596840	0.421522
H287	H	-0.157659	-0.537954	0.389111
H288	H	-0.170110	-0.649221	0.523316
H289	H	-0.129306	-0.590282	0.490827
O290	O	0.066627	-0.829820	0.596713
C291	C	0.165820	-0.917132	0.605494
C292	C	0.123249	-0.868858	0.562760
H293	H	0.211614	-0.948697	0.578056
H294	H	0.138347	-0.948704	0.651210
H295	H	0.179032	-0.889696	0.618841
H296	H	0.110025	-0.896241	0.549364
H297	H	0.150746	-0.837286	0.517075
O298	O	0.119964	-0.998549	0.501338
C299	C	0.225816	-0.991563	0.457916
C300	C	0.153458	-0.954430	0.468351
H301	H	0.252915	-0.955909	0.431257
H302	H	0.244868	-1.023127	0.428227
H303	H	0.233227	-1.023151	0.506586
H304	H	0.145991	-0.922807	0.419711
H305	H	0.134441	-0.922906	0.498069
O306	O	-0.095258	-0.998293	0.583148
C307	C	-0.205867	-0.991052	0.621995
C308	C	-0.158138	-0.954061	0.586690
H309	H	-0.256714	-0.955306	0.624858
H310	H	-0.203878	-1.022552	0.672734
H311	H	-0.192331	-1.022691	0.594486
H312	H	-0.171641	-0.922386	0.614145
H313	H	-0.160135	-0.922601	0.535948
O314	O	0.022304	-0.874007	0.552402
C315	C	0.016992	-0.974980	0.637860
C316	C	-0.000877	-0.902051	0.619930
H317	H	-0.001754	-0.997673	0.692456
H318	H	0.071592	-0.997808	0.619381
H319	H	-0.005673	-0.983441	0.615007
H320	H	0.021745	-0.893532	0.642777
H321	H	-0.055482	-0.879259	0.638397
H322	H	0.020039	-0.863588	0.392405
O323	O	-0.139338	-0.865372	0.538570
C324	C	-0.220795	-0.789188	0.488694
C325	C	-0.148458	-0.826393	0.478346
H326	H	-0.228193	-0.757675	0.440012
H327	H	-0.239832	-0.757557	0.518309
H328	H	-0.247918	-0.824831	0.515429
H329	H	-0.121282	-0.790797	0.451594
H330	H	-0.129470	-0.858034	0.448757
O331	O	-0.132226	-0.819514	0.606405
C332	C	-0.139527	-0.871749	0.718061
C333	C	-0.176481	-0.829086	0.669720
H334	H	-0.175291	-0.879512	0.769261
H335	H	-0.107970	-0.847099	0.710413
H336	H	-0.107953	-0.920261	0.710291
H337	H	-0.208090	-0.780566	0.677461
H338	H	-0.207997	-0.853787	0.677380
H339	H	0.075686	-0.337687	0.755188
H340	H	-0.259745	-0.772522	0.639985
O341	O	-0.264730	-0.666668	0.433196
C342	C	-0.340810	-0.654537	0.394509
C343	C	-0.303811	-0.697185	0.442811
H344	H	-0.372426	-0.679186	0.402274
H345	H	-0.305097	-0.646820	0.343282
H346	H	-0.372333	-0.606002	0.402240
H347	H	-0.272287	-0.745743	0.435139
H348	H	-0.339559	-0.704848	0.494020
O349	O	-0.131786	-0.711125	0.389082
C350	C	-0.111028	-0.716259	0.288028
C351	C	-0.148220	-0.734088	0.360937
H352	H	-0.124312	-0.734804	0.265249
H353	H	-0.057050	-0.739066	0.279555
H354	H	-0.124222	-0.661659	0.265295
H355	H	-0.135081	-0.788678	0.383718
H356	H	-0.202189	-0.711235	0.369364
H357	H	-0.039168	-0.623025	0.490592
