data_functionalizedCrystal
_audit_creation_method	'MofGen! by Chris Wilmer'
_symmetry_space_group_name_H-M	'P1'
_symmetry_Int_Tables_number	1
_symmetry_cell_setting	triclinic
loop_
_symmetry_equiv_pos_as_xyz
  x,y,z
_cell_length_a	12.837942
_cell_length_b	16.109301
_cell_length_c	14.586319
_cell_angle_alpha	90.000787
_cell_angle_beta	89.996741
_cell_angle_gamma	90.854789
loop_
_atom_site_label
_atom_site_type_symbol
_atom_site_fract_x
_atom_site_fract_y
_atom_site_fract_z
O1	O	0.133240	-1.113716	-0.076181
O2	O	0.149822	-0.872971	-0.076196
O3	O	-0.009370	-0.988005	-0.076183
O4	O	0.292432	-0.998682	-0.076194
O5	O	-0.009372	-0.987996	0.076298
O6	O	0.149819	-0.872962	0.076285
O7	O	0.133238	-1.113707	0.076299
Cu8	Cu	0.141528	-0.993333	0.090215
Cu9	Cu	0.141531	-0.993344	-0.090111
O10	O	0.292430	-0.998673	0.076287
C11	C	0.149149	-0.841938	0.000043
C12	C	0.147135	-0.749483	0.000037
C13	C	-0.047991	-0.984394	0.000056
C14	C	-0.163064	-0.973637	0.000054
C15	C	0.133911	-1.144739	0.000059
C16	C	0.135924	-1.237195	0.000058
C17	C	-0.404066	-1.102954	0.000043
C18	C	-0.512188	-1.092851	0.000041
C19	C	-0.487433	-0.943328	0.000041
C20	C	-0.379311	-0.953431	0.000043
C21	C	-0.337632	-1.033247	0.000046
C22	C	-0.229507	-1.043349	0.000054
C23	C	-0.204754	-0.893827	0.000048
C24	C	-0.312876	-0.883724	0.000046
C25	C	0.331050	-1.002284	0.000045
C26	C	0.446124	-1.013041	0.000041
N27	N	0.141526	-0.993332	0.217047
C28	C	0.236914	-0.534343	0.000045
C29	C	0.235014	-0.447471	0.000051
C30	C	0.046138	-0.452341	0.000054
C31	C	0.048040	-0.539211	0.000054
C32	C	0.143431	-0.580209	0.000045
C33	C	0.139629	-0.406468	0.000050
C34	C	0.137568	-0.312278	0.000057
C35	C	0.145492	-0.674405	0.000040
N36	N	0.141526	-0.993352	-0.216943
C37	C	0.071059	-1.044290	0.452059
C38	C	0.071057	-1.044292	0.548040
C39	C	0.211995	-0.942388	0.548038
C40	C	0.211992	-0.942382	0.452059
C41	C	0.141525	-0.993338	0.404071
C42	C	0.141526	-0.993346	0.596032
C43	C	0.141524	-0.993348	0.700099
C44	C	0.141526	-0.993335	0.299998
H45	H	-0.195574	-1.108339	0.000059
H46	H	0.269370	-0.900903	0.587119
Cl47	Cl	-0.539849	-0.842997	0.000011
H48	H	0.311138	-0.410130	0.000052
H49	H	0.013676	-1.085780	0.587108
Cl50	Cl	0.300580	-0.878319	0.391726
H51	H	0.314588	-0.567721	0.000044
H52	H	-0.031526	-0.418949	0.000066
H53	H	-0.028091	-0.576557	0.000057
Cl54	Cl	-0.121229	-0.806190	0.000063
H55	H	-0.370130	-1.167943	0.000054
H56	H	0.013680	-1.085779	0.412990
H57	H	-0.566277	-1.149614	0.000036
Cl58	Cl	-0.365284	-0.783391	0.000036
