data_functionalizedCrystal
_audit_creation_method	'MofGen! by Chris Wilmer'
_symmetry_space_group_name_H-M	'P1'
_symmetry_Int_Tables_number	1
_symmetry_cell_setting	triclinic
loop_
_symmetry_equiv_pos_as_xyz
  x,y,z
_cell_length_a	29.839134
_cell_length_b	8.497374
_cell_length_c	16.994747
_cell_angle_alpha	89.988005
_cell_angle_beta	90.003809
_cell_angle_gamma	90.015618
loop_
_atom_site_label
_atom_site_type_symbol
_atom_site_fract_x
_atom_site_fract_y
_atom_site_fract_z
Zn1	Zn	0.686776	0.892765	-0.314317
Zn2	Zn	0.686759	0.629062	-0.446190
Zn3	Zn	0.611670	0.628929	-0.314287
Zn4	Zn	0.611646	0.892729	-0.446167
O5	O	0.649213	0.760871	-0.380240
O6	O	0.749641	0.857855	-0.331833
O7	O	0.676802	0.408282	-0.428690
O8	O	0.621650	0.663886	-0.203910
O9	O	0.749629	0.664114	-0.428719
O10	O	0.676830	0.857726	-0.203932
O11	O	0.621634	0.408184	-0.331782
O12	O	0.548800	0.663852	-0.331759
O13	O	0.621609	1.113497	-0.428679
O14	O	0.548782	0.857665	-0.428650
O15	O	0.676807	1.113523	-0.331810
O16	O	0.676778	0.664079	-0.556568
O17	O	0.621593	0.857794	-0.556551
C18	C	0.532490	0.760741	-0.380199
C19	C	0.482556	0.760722	-0.380201
C20	C	0.649187	0.760942	-0.585180
C21	C	0.649190	0.760938	-0.674502
C22	C	0.125965	0.660159	-0.329715
C23	C	0.313638	0.660063	-0.329692
O24	O	0.337900	0.574413	-0.286700
N25	N	0.337111	0.760802	-0.380214
C26	C	0.313662	0.861579	-0.430740
O27	O	0.337933	0.947273	-0.473706
C28	C	0.125990	0.861682	-0.430758
C29	C	0.102520	0.760925	-0.380239
C30	C	0.102495	0.559411	-0.279199
C31	C	0.055580	0.559430	-0.279208
C32	C	0.032134	0.660196	-0.329733
C33	C	0.055604	0.760944	-0.380248
C34	C	0.102542	0.962466	-0.481280
C35	C	0.055621	0.962485	-0.481279
C36	C	0.032151	0.861729	-0.430760
C37	C	-0.014757	0.861729	-0.430782
N38	N	-0.038229	0.760990	-0.380261
C39	C	-0.014783	0.660224	-0.329736
C40	C	0.412193	0.861516	-0.430729
C41	C	0.459110	0.861489	-0.430725
C42	C	0.459084	0.659974	-0.329676
C43	C	0.412165	0.659995	-0.329684
C44	C	0.388720	0.760777	-0.380207
C45	C	-0.113309	0.660270	-0.329760
C46	C	-0.160229	0.660293	-0.329776
C47	C	-0.160198	0.861813	-0.430821
C48	C	-0.113282	0.861785	-0.430809
C49	C	-0.089839	0.761008	-0.380272
O50	O	-0.039047	0.947346	-0.473745
O51	O	-0.039062	0.574567	-0.286765
C52	C	0.172881	0.660140	-0.329706
C53	C	0.196351	0.760887	-0.380221
C54	C	0.172905	0.861653	-0.430745
C55	C	0.243269	0.760860	-0.380218
C56	C	0.266714	0.660094	-0.329693
C57	C	0.243242	0.559355	-0.279172
C58	C	0.196326	0.559374	-0.279181
C59	C	0.196378	0.962392	-0.481267
C60	C	0.243293	0.962364	-0.481254
C61	C	0.266739	0.861598	-0.430730
Zn62	Zn	0.611683	0.628884	-0.945374
Zn63	Zn	0.686796	0.892696	-0.945382
Zn64	Zn	0.611662	0.892703	-0.813559
Zn65	Zn	0.686767	0.629011	-0.813445
O66	O	0.649227	0.760823	-0.879440
O67	O	0.621668	0.663824	-1.055756
O68	O	0.676832	1.113459	-0.927947
O69	O	0.548797	0.857657	-0.831089
O70	O	0.676853	0.857645	-1.055762
O71	O	0.548813	0.663831	-0.927932
O72	O	0.621631	1.113464	-0.831097
O73	O	0.621604	0.857779	-0.703163
O74	O	0.676804	0.408231	-0.830895
O75	O	0.676784	0.664046	-0.703079
O76	O	0.621640	0.408139	-0.927822
O77	O	0.749659	0.857767	-0.927837
O78	O	0.749638	0.664039	-0.830903
C79	C	0.766391	0.761003	-0.380282
C80	C	0.816326	0.761060	-0.380300
C81	C	0.649210	1.172352	-0.380242
C82	C	0.649211	1.350996	-0.380250
C83	C	0.649241	0.760791	-0.174500
C84	C	0.649255	0.760757	-0.085178
C85	C	0.649221	0.170703	-0.879314
C86	C	0.649225	0.349347	-0.879348
C87	C	0.765950	0.760920	-0.879361
C88	C	0.815884	0.761007	-0.879350
C89	C	0.532049	0.760731	-0.879522
C90	C	0.482114	0.760691	-0.879557
C91	C	0.839331	0.861831	-0.929860
C92	C	0.886250	0.861913	-0.929865
C93	C	0.909720	0.761179	-0.879355
C94	C	0.886270	0.660345	-0.828843
C95	C	0.839352	0.660255	-0.828842
C96	C	0.458654	0.861588	-0.829146
C97	C	0.411735	0.861551	-0.829163
C98	C	0.388278	0.760624	-0.879596
C99	C	0.411741	0.659716	-0.930010
C100	C	0.458659	0.659746	-0.929988
H101	H	-0.179336	0.578240	-0.288636
Br102	Br	-0.192026	0.998536	-0.499400
Br103	Br	0.490492	0.522796	-0.998408
Br104	Br	0.807536	0.523418	-0.760281
H105	H	0.177293	1.044452	-0.522410
H106	H	0.820228	0.943869	-0.970990
H107	H	0.947924	0.761268	-0.879363
Br108	Br	0.023735	0.422697	-0.210635
Br109	Br	0.918129	0.523649	-0.760295
H110	H	0.477747	0.943777	-0.788075
H111	H	-0.094227	0.578215	-0.288604
Br112	Br	0.379902	0.998513	-0.760742
Br113	Br	0.324603	0.760604	-0.879616
H114	H	0.121580	0.477355	-0.238052
Br115	Br	0.275070	0.422594	-0.210607
Br116	Br	0.490911	0.523218	-0.261108
Br117	Br	0.380318	0.523248	-0.261121
Br118	Br	0.490957	0.998208	-0.499303
Br119	Br	-0.081429	0.998506	-0.499381
Br120	Br	0.164481	0.422626	-0.210615
H121	H	0.392635	0.577542	-0.971070
H122	H	0.393108	0.943588	-0.471874
Br123	Br	0.275139	1.099108	-0.549828
H124	H	0.121643	1.044512	-0.522419
H125	H	0.036535	1.044562	-0.522419
H126	H	0.905337	0.944031	-0.970997
