data_functionalizedCrystal
_audit_creation_method	'MofGen! by Chris Wilmer'
_symmetry_space_group_name_H-M	'P1'
_symmetry_Int_Tables_number	1
_symmetry_cell_setting	triclinic
loop_
_symmetry_equiv_pos_as_xyz
  x,y,z
_cell_length_a	12.759401
_cell_length_b	29.839131
_cell_length_c	12.759393
_cell_angle_alpha	90.045545
_cell_angle_beta	90.018567
_cell_angle_gamma	90.034273
loop_
_atom_site_label
_atom_site_type_symbol
_atom_site_fract_x
_atom_site_fract_y
_atom_site_fract_z
Zn1	Zn	1.606105	-0.178838	0.593881
Zn2	Zn	2.106105	0.321162	1.093881
Zn3	Zn	1.605937	-0.253977	0.418158
Zn4	Zn	2.105937	0.246023	0.918158
Zn5	Zn	1.430407	-0.178860	0.418220
Zn6	Zn	1.930407	0.321140	0.918220
Zn7	Zn	1.430333	-0.253941	0.593800
Zn8	Zn	1.930333	0.246059	1.093800
O9	O	1.518196	-0.216404	0.506015
O10	O	2.018196	0.283596	1.006015
O11	O	1.753104	-0.188811	0.570579
O12	O	2.253104	0.311189	1.070579
O13	O	1.582613	-0.244037	0.271146
O14	O	2.082613	0.255963	0.771146
O15	O	1.453816	-0.115990	0.441582
O16	O	1.953816	0.384010	0.941582
O17	O	1.752980	-0.244015	0.441477
O18	O	2.252980	0.255985	0.941477
O19	O	1.582900	-0.115974	0.570639
O20	O	2.082900	0.384026	1.070639
O21	O	1.453652	-0.188849	0.271191
O22	O	1.953652	0.311151	0.771191
O23	O	1.283377	-0.188814	0.441503
O24	O	1.783377	0.311186	0.941503
O25	O	1.453689	-0.243954	0.740832
O26	O	1.953689	0.256046	1.240832
O27	O	1.283322	-0.243975	0.570501
O28	O	1.783322	0.256025	1.070501
O29	O	1.582828	-0.188776	0.740892
O30	O	2.082828	0.311224	1.240892
O31	O	1.582541	-0.316839	0.441398
O32	O	2.082541	0.183161	0.941398
O33	O	1.453526	-0.316813	0.570441
O34	O	1.953526	0.183187	1.070441
C35	C	1.245228	-0.216394	0.506000
C36	C	1.745228	0.283606	1.006000
C37	C	1.128452	-0.216400	0.506019
C38	C	1.628452	0.283600	1.006019
C39	C	1.073647	-0.187709	0.573347
C40	C	1.573647	0.312291	1.073347
C41	C	0.963923	-0.187718	0.573354
C42	C	1.463923	0.312282	1.073354
C43	C	0.963818	-0.245111	0.438701
C44	C	1.463818	0.254889	0.938701
C45	C	1.073540	-0.245100	0.438690
C46	C	1.573540	0.254900	0.938690
C47	C	1.073707	-0.154575	0.651091
C48	C	1.573707	0.345425	1.151091
C49	C	0.963983	-0.154584	0.651097
C50	C	1.463983	0.345416	1.151097
C51	C	1.518036	-0.333127	0.505926
C52	C	2.018036	0.166873	1.005926
C53	C	1.518063	-0.383061	0.505924
C54	C	2.018063	0.116939	1.005924
C55	C	1.585395	-0.692661	0.573311
C56	C	2.085395	-0.192661	1.073311
C57	C	1.585509	-0.880334	0.573374
C58	C	2.085509	-0.380334	1.073374
O59	O	1.642601	-0.904562	0.630603
O60	O	2.142601	-0.404562	1.130603
N61	N	1.518374	-0.903846	0.506132
N62	N	2.018374	-0.403846	1.006132
C63	C	1.451201	-0.880437	0.438873
C64	C	1.951201	-0.380437	0.938873
O65	O	1.394093	-0.904742	0.381689
O66	O	1.894093	-0.404742	0.881689
C67	C	1.451082	-0.692765	0.438816
C68	C	1.951082	-0.192765	0.938816
C69	C	1.518229	-0.669255	0.506056
C70	C	2.018229	-0.169255	1.006056
C71	C	1.652536	-0.669152	0.640545
C72	C	2.152536	-0.169152	1.140545
C73	C	1.652511	-0.622236	0.640525
C74	C	2.152511	-0.122236	1.140525
C75	C	1.585345	-0.598830	0.573270
C76	C	2.085345	-0.098830	1.073270
C77	C	1.518204	-0.622340	0.506035
C78	C	2.018204	-0.122340	1.006035
C79	C	1.383904	-0.669356	0.371564
C80	C	1.883904	-0.169356	0.871564
C81	C	1.383879	-0.622435	0.371558
C82	C	1.883879	-0.122435	0.871558
C83	C	1.451026	-0.598926	0.438797
C84	C	1.951026	-0.098926	0.938797
C85	C	1.451013	-0.552018	0.438760
C86	C	1.951013	-0.052018	0.938760
N87	N	1.518148	-0.528507	0.506002
N88	N	2.018148	-0.028507	1.006002
C89	C	1.585314	-0.551912	0.573257
C90	C	2.085314	-0.051912	1.073257
C91	C	1.451269	-0.978968	0.438907
C92	C	1.951269	-0.478968	0.938907
C93	C	1.451300	-1.025885	0.438919
C94	C	1.951300	-0.525885	0.938919
C95	C	1.585608	-1.025779	0.573422
C96	C	2.085608	-0.525779	1.073422
C97	C	1.585581	-0.978861	0.573403
C98	C	2.085581	-0.478861	1.073403
C99	C	1.518404	-0.955456	0.506149
C100	C	2.018404	-0.455456	1.006149
C101	C	1.585257	-0.453387	0.573208
C102	C	2.085257	0.046613	1.073208
C103	C	1.585229	-0.406467	0.573179
C104	C	2.085229	0.093533	1.073179
C105	C	1.450918	-0.406577	0.438681
C106	C	1.950918	0.093423	0.938681
C107	C	1.450950	-0.453493	0.438706
C108	C	1.950950	0.046507	0.938706
C109	C	1.518123	-0.476896	0.505978
C110	C	2.018123	0.023104	1.005978
O111	O	1.393943	-0.527762	0.381569
O112	O	1.893943	-0.027762	0.881569
O113	O	1.642397	-0.527600	0.630450
O114	O	2.142397	-0.027600	1.130450
C115	C	1.585421	-0.739577	0.573331
C116	C	2.085421	-0.239577	1.073331
C117	C	1.518280	-0.763086	0.506097
C118	C	2.018280	-0.263086	1.006097
C119	C	1.451114	-0.739680	0.438842
C120	C	1.951114	-0.239680	0.938842
C121	C	1.518310	-0.810004	0.506109
C122	C	2.018310	-0.310004	1.006109
C123	C	1.585476	-0.833410	0.573365
C124	C	2.085476	-0.333410	1.073365
C125	C	1.652612	-0.809898	0.640607
C126	C	2.152612	-0.309898	1.140607
C127	C	1.652587	-0.762982	0.640586
C128	C	2.152587	-0.262982	1.140586
C129	C	1.383978	-0.763192	0.371599
C130	C	1.883978	-0.263192	0.871599
C131	C	1.384010	-0.810108	0.371624
C132	C	1.884010	-0.310108	0.871624
C133	C	1.451176	-0.833514	0.438879
C134	C	1.951176	-0.333514	0.938879
C135	C	1.792229	-0.216415	0.506030
C136	C	2.292229	0.283585	1.006030
C137	C	1.909006	-0.216420	0.506037
C138	C	2.409006	0.283580	1.006037
C139	C	1.518269	-0.216359	0.780048
C140	C	2.018269	0.283641	1.280048
C141	C	1.518301	-0.216339	0.896825
C142	C	2.018301	0.283661	1.396825
C143	C	1.518385	-0.099226	0.506127
C144	C	2.018385	0.400774	1.006127
C145	C	1.518466	-0.049291	0.506175
C146	C	2.018466	0.450709	1.006175
C147	C	1.518183	-0.216417	0.233048
C148	C	2.018183	0.283583	0.733048
C149	C	1.518355	-0.216310	0.116272
C150	C	2.018355	0.283690	0.616272
C151	C	1.585553	-0.187606	0.951720
C152	C	2.085553	0.312394	1.451720
C153	C	1.585578	-0.187590	1.061444
C154	C	2.085578	0.312410	1.561444
C155	C	1.451096	-0.245044	1.061369
C156	C	1.951096	0.254956	1.561369
C157	C	1.451066	-0.245058	0.951647
C158	C	1.951066	0.254942	1.451647
C159	C	1.663198	-0.154436	0.951765
C160	C	2.163198	0.345564	1.451765
C161	C	1.663223	-0.154420	1.061489
C162	C	2.163223	0.345580	1.561489
H163	H	1.639912	-0.387327	0.627933
H164	H	2.139912	0.112673	1.127933
Cl165	Cl	1.737003	-0.733435	0.725123
Cl166	Cl	2.237003	-0.233435	1.225123
Cl167	Cl	1.788840	-0.168801	1.107464
Cl168	Cl	2.288840	0.331199	1.607464
H169	H	1.107762	-0.167075	0.728321
H170	H	1.607762	0.332925	1.228321
H171	H	1.640298	-1.044844	0.628182
H172	H	2.140298	-0.544844	1.128182
H173	H	0.919095	-0.268478	0.383885
H174	H	1.419095	0.231522	0.883885
H175	H	0.934230	-0.163946	0.732428
H176	H	1.434230	0.336054	1.232428
H177	H	1.639949	-0.472436	0.627995
H178	H	2.139949	0.027564	1.127995
Cl179	Cl	1.736921	-0.592688	0.725068
Cl180	Cl	2.236921	-0.092688	1.225068
Cl181	Cl	1.366578	-0.281146	1.130295
Cl182	Cl	1.866578	0.218854	1.630295
Cl183	Cl	1.366548	-0.483048	0.354163
Cl184	Cl	1.866548	0.016952	0.854163
H185	H	1.396299	-0.268454	0.906955
H186	H	1.896299	0.231546	1.406955
H187	H	1.396633	-1.045023	0.384155
H188	H	1.896633	-0.545023	0.884155
H189	H	1.329226	-0.688490	0.316810
H190	H	1.829226	-0.188490	0.816810
Cl191	Cl	0.911459	-0.103535	0.606350
Cl192	Cl	1.411459	0.396465	1.106350
Cl193	Cl	1.142434	-0.281156	0.354015
Cl194	Cl	1.642434	0.218844	0.854015
Cl195	Cl	1.618167	-0.103407	1.114094
Cl196	Cl	2.118167	0.396593	1.614094
Cl197	Cl	1.736982	-0.698568	0.725110
Cl198	Cl	2.236982	-0.198568	1.225110
H199	H	1.640258	-0.959722	0.628155
H200	H	2.140258	-0.459722	1.128155
H201	H	1.103503	-0.119767	0.629457
H202	H	1.603503	0.380233	1.129457
Cl203	Cl	1.366806	-0.949551	0.354353
Cl204	Cl	1.866806	-0.449551	0.854353
Cl205	Cl	1.366485	-0.377144	0.354137
Cl206	Cl	1.866485	0.122856	0.854137
Cl207	Cl	1.299422	-0.593015	0.287004
Cl208	Cl	1.799422	-0.093015	0.787004
H209	H	1.707305	-0.828963	0.695365
H210	H	2.207305	-0.328963	1.195365
Cl211	Cl	1.299591	-0.839657	0.287082
Cl212	Cl	1.799591	-0.339657	0.787082
H213	H	1.329282	-0.744139	0.316833
H214	H	1.829282	-0.244139	0.816833
H215	H	1.641459	-0.119644	0.922028
H216	H	2.141459	0.380356	1.422028
H217	H	1.740459	-0.166909	0.917722
H218	H	2.240459	0.333091	1.417722
