data_functionalizedCrystal
_audit_creation_method	'MofGen! by Chris Wilmer'
_symmetry_space_group_name_H-M	'P1'
_symmetry_Int_Tables_number	1
_symmetry_cell_setting	triclinic
loop_
_symmetry_equiv_pos_as_xyz
  x,y,z
_cell_length_a	21.295418
_cell_length_b	19.805405
_cell_length_c	19.805407
_cell_angle_alpha	90.015038
_cell_angle_beta	90.027474
_cell_angle_gamma	90.042223
loop_
_atom_site_label
_atom_site_type_symbol
_atom_site_fract_x
_atom_site_fract_y
_atom_site_fract_z
Zn1	Zn	0.962273	-0.269289	0.383041
Zn2	Zn	0.962212	-0.382449	0.269849
Zn3	Zn	0.857026	-0.269310	0.269830
Zn4	Zn	0.856973	-0.382472	0.382960
O5	O	0.909621	-0.325880	0.326420
O6	O	1.050354	-0.284281	0.368068
O7	O	0.948256	-0.367440	0.175130
O8	O	0.871034	-0.174591	0.284873
O9	O	1.050310	-0.367419	0.284907
O10	O	0.948359	-0.174575	0.368049
O11	O	0.870976	-0.284318	0.175116
O12	O	0.768929	-0.284340	0.284794
O13	O	0.870944	-0.367459	0.477687
O14	O	0.768890	-0.367480	0.367911
O15	O	0.948307	-0.284303	0.477747
O16	O	0.948205	-0.477168	0.284828
O17	O	0.870886	-0.477186	0.367930
C18	C	0.909550	-0.501736	0.326387
C19	C	0.909577	-0.576968	0.326396
C20	C	0.746069	-0.325916	0.326342
C21	C	0.676101	-0.325947	0.326325
C22	C	0.949876	-0.612281	0.283170
C23	C	0.949903	-0.682969	0.283185
C24	C	0.909627	-0.718344	0.326423
C25	C	0.869326	-0.683026	0.369654
C26	C	0.869303	-0.612339	0.369641
C27	C	0.869419	-0.968099	0.369704
C28	C	0.869444	-1.038791	0.369711
C29	C	0.950019	-1.038729	0.283247
C30	C	0.949996	-0.968042	0.283235
C31	C	0.909698	-0.932731	0.326468
C32	C	0.909670	-0.856082	0.326452
C33	C	0.909651	-0.794991	0.326436
C34	C	0.643231	-0.369295	0.369539
C35	C	0.577488	-0.369278	0.369569
C36	C	0.544619	-0.325921	0.326374
C37	C	0.577497	-0.282564	0.283156
C38	C	0.643238	-0.282577	0.283132
N39	N	0.441358	-0.320618	0.267174
N40	N	0.378906	-0.320609	0.267199
C41	C	0.346544	-0.325878	0.326445
N42	N	0.378992	-0.331168	0.385667
N43	N	0.441449	-0.331180	0.385641
C44	C	0.473333	-0.325901	0.326395
C45	C	0.242388	-0.369210	0.369696
C46	C	0.176644	-0.369189	0.369728
C47	C	0.176654	-0.282478	0.283309
C48	C	0.242397	-0.282496	0.283283
C49	C	0.275260	-0.325865	0.326476
C50	C	1.073811	-0.325845	0.326499
C51	C	1.143779	-0.325830	0.326532
C52	C	0.909626	-0.325881	0.502963
C53	C	0.909629	-0.325882	0.578195
C54	C	0.909709	-0.149337	0.326468
C55	C	0.909747	-0.074105	0.326488
C56	C	0.949907	-0.282589	0.613571
C57	C	0.949901	-0.282587	0.684259
C58	C	0.909621	-0.325882	0.719570
C59	C	0.869338	-0.369176	0.684189
C60	C	0.869341	-0.369174	0.613502
C61	C	0.869326	-0.369184	0.969262
C62	C	0.869328	-0.369184	1.039955
C63	C	0.949886	-0.282597	1.040020
C64	C	0.949889	-0.282595	0.969333
C65	C	0.909605	-0.325887	0.933958
C66	C	0.909610	-0.325888	0.857309
C67	C	0.909618	-0.325885	0.796217
C68	C	0.909609	-0.325892	1.150564
C69	C	0.909603	-0.325888	1.075332
H70	H	0.982718	-0.711718	0.247986
O71	O	0.675122	-0.411346	0.411598
C72	C	0.659105	-0.396667	0.479088
H73	H	0.641083	-0.342596	0.482609
H74	H	0.702357	-0.402560	0.512505
H75	H	0.620925	-0.432974	0.496724
H76	H	0.836533	-0.404444	0.940469
H77	H	0.836536	-0.404420	0.584700
O78	O	0.989105	-0.240609	1.074354
C79	C	1.051836	-0.255379	1.057101
H80	H	1.054987	-0.309451	1.037658
H81	H	1.082937	-0.249541	1.103606
H82	H	1.068311	-0.219089	1.016087
O83	O	0.830189	-0.578106	0.411725
C84	C	0.843918	-0.595323	0.479206
H85	H	0.868128	-0.646620	0.480647
H86	H	0.798468	-0.597778	0.509499
H87	H	0.876257	-0.555495	0.502037
H88	H	0.836535	-0.711833	0.404861
H89	H	0.836523	-0.404441	1.068703
O90	O	0.274399	-0.240487	0.241264
C91	C	0.312347	-0.278964	0.197453
H92	H	0.322170	-0.330296	0.221228
H93	H	0.358593	-0.251390	0.188413
H94	H	0.286965	-0.286318	0.147290
H95	H	0.550720	-0.404577	0.404762
H96	H	0.550730	-0.247261	0.247987
O97	O	0.989105	-1.073008	0.241163
C98	C	0.975404	-1.055776	0.173680
H99	H	0.925111	-1.036404	0.170187
H100	H	0.980866	-1.102275	0.140262
H101	H	1.009153	-1.014716	0.156022
O102	O	0.830267	-0.411209	0.718593
C103	C	0.838890	-0.401918	0.788569
H104	H	0.887481	-0.379742	0.798257
H105	H	0.834592	-0.452619	0.815417
H106	H	0.801570	-0.365881	0.808619
H107	H	0.670001	-0.247276	0.247942
H108	H	0.982790	-0.939243	0.248025
O109	O	0.989059	-0.578026	0.241145
C110	C	1.024622	-0.624355	0.202984
H111	H	1.026799	-0.674728	0.230721
H112	H	1.074218	-0.603877	0.195826
H113	H	1.001609	-0.631924	0.151550
H114	H	0.836647	-1.067591	0.404926
H115	H	0.149893	-0.247172	0.248141
H116	H	0.269146	-0.404521	0.404870
O117	O	0.988969	-0.240435	0.579304
C118	C	0.975253	-0.172981	0.596605
H119	H	0.924964	-0.169577	0.616007
H120	H	0.980694	-0.139537	0.550132
H121	H	1.009007	-0.155283	0.637662
O122	O	0.830206	-0.933908	0.411710
C123	C	0.794671	-0.980291	0.449879
H124	H	0.792537	-1.030694	0.422161
H125	H	0.745058	-0.959928	0.457019
H126	H	0.817680	-0.987758	0.501322
H127	H	0.982701	-0.247336	0.713060
H128	H	0.149882	-0.404486	0.404922
O129	O	0.988950	-0.240437	0.935068
C130	C	0.975229	-0.172986	0.952372
H131	H	0.924941	-0.169587	0.971775
H132	H	0.980669	-0.139538	0.905902
H133	H	1.008983	-0.155288	0.993430
