data_functionalizedCrystal
_audit_creation_method	'MofGen! by Chris Wilmer'
_symmetry_space_group_name_H-M	'P1'
_symmetry_Int_Tables_number	1
_symmetry_cell_setting	triclinic
loop_
_symmetry_equiv_pos_as_xyz
  x,y,z
_cell_length_a	25.639243
_cell_length_b	25.639239
_cell_length_c	18.050582
_cell_angle_alpha	90.024638
_cell_angle_beta	90.017474
_cell_angle_gamma	90.041410
loop_
_atom_site_label
_atom_site_type_symbol
_atom_site_fract_x
_atom_site_fract_y
_atom_site_fract_z
Zn1	Zn	0.799233	-0.208146	0.419952
Zn2	Zn	1.132566	0.125187	0.753286
Zn3	Zn	1.465900	0.458521	1.086619
Zn4	Zn	0.799154	-0.295574	0.295758
Zn5	Zn	1.132487	0.037760	0.629091
Zn6	Zn	1.465821	0.371093	0.962425
Zn7	Zn	0.711807	-0.208158	0.295771
Zn8	Zn	1.045140	0.125175	0.629104
Zn9	Zn	1.378474	0.458508	0.962438
Zn10	Zn	0.711754	-0.295556	0.419901
Zn11	Zn	1.045088	0.037777	0.753234
Zn12	Zn	1.378421	0.371110	1.086568
O13	O	0.755487	-0.251859	0.357846
O14	O	1.088820	0.081475	0.691179
O15	O	1.422154	0.414808	1.024512
O16	O	0.872388	-0.219746	0.403494
O17	O	1.205721	0.113588	0.736827
O18	O	1.539054	0.446921	1.070161
O19	O	0.787556	-0.283990	0.191835
O20	O	1.120890	0.049343	0.525168
O21	O	1.454223	0.382676	0.858502
O22	O	0.723459	-0.134991	0.312271
O23	O	1.056792	0.198342	0.645604
O24	O	1.390126	0.531675	0.978938
O25	O	0.872330	-0.283978	0.312249
O26	O	1.205663	0.049355	0.645582
O27	O	1.538996	0.382688	0.978915
O28	O	0.787691	-0.134982	0.403507
O29	O	1.121024	0.198351	0.736840
O30	O	1.454357	0.531684	1.070173
O31	O	0.723383	-0.219767	0.191845
O32	O	1.056716	0.113567	0.525178
O33	O	1.390049	0.446900	0.858511
O34	O	0.638635	-0.219750	0.312221
O35	O	0.971968	0.113584	0.645554
O36	O	1.305301	0.446917	0.978888
O37	O	0.723370	-0.283949	0.523832
O38	O	1.056703	0.049385	0.857166
O39	O	1.390036	0.382718	1.190499
O40	O	0.638596	-0.283961	0.403419
O41	O	0.971929	0.049373	0.736752
O42	O	1.305263	0.382706	1.070085
O43	O	0.787640	-0.219729	0.523870
O44	O	1.120973	0.113605	0.857204
O45	O	1.454306	0.446938	1.190537
O46	O	0.787505	-0.368737	0.312199
O47	O	1.120839	-0.035403	0.645532
O48	O	1.454172	0.297930	0.978865
O49	O	0.723293	-0.368724	0.403406
O50	O	1.056626	-0.035391	0.736739
O51	O	1.389960	0.297943	1.070073
C52	C	0.619644	-0.251855	0.357816
C53	C	0.952978	0.081478	0.691149
C54	C	1.286311	0.414812	1.024483
C55	C	0.561530	-0.251866	0.357821
C56	C	0.894864	0.081467	0.691154
C57	C	1.228197	0.414801	1.024488
C58	C	0.201192	-0.218465	0.405436
C59	C	0.534525	0.114868	0.738769
C60	C	0.867859	0.448202	1.072103
C61	C	0.146588	-0.218465	0.405441
C62	C	0.479921	0.114869	0.738774
C63	C	0.813254	0.448202	1.072107
O64	O	0.118372	-0.190056	0.445888
O65	O	0.451705	0.143277	0.779221
O66	O	0.785038	0.476610	1.112555
N67	N	0.119248	-0.251857	0.357866
N68	N	0.452581	0.081476	0.691199
N69	N	0.785915	0.414810	1.024533
C70	C	0.146515	-0.285248	0.310278
C71	C	0.479849	0.048085	0.643612
C72	C	0.813182	0.381418	0.976945
O73	O	0.118247	-0.313651	0.269812
O74	O	0.451580	0.019683	0.603145
O75	O	0.784914	0.353016	0.936479
C76	C	0.201119	-0.285246	0.310270
C77	C	0.534452	0.048088	0.643604
C78	C	0.867785	0.381421	0.976937
C79	C	0.228456	-0.251855	0.357854
C80	C	0.561789	0.081478	0.691187
C81	C	0.895122	0.414812	1.024520
C82	C	0.228529	-0.185077	0.453015
C83	C	0.561862	0.148257	0.786348
C84	C	0.895195	0.481590	1.119682
C85	C	0.283129	-0.185078	0.453011
C86	C	0.616463	0.148255	0.786344
C87	C	0.949796	0.481589	1.119678
C88	C	0.310393	-0.218468	0.405429
C89	C	0.643726	0.114866	0.738762
C90	C	0.977060	0.448199	1.072095
C91	C	0.283056	-0.251856	0.357850
C92	C	0.616389	0.081477	0.691183
C93	C	0.949723	0.414810	1.024516
C94	C	0.228385	-0.318634	0.262679
C95	C	0.561719	0.014699	0.596013
C96	C	0.895052	0.348033	0.929346
C97	C	0.282992	-0.318628	0.262675
C98	C	0.616326	0.014705	0.596009
C99	C	0.949659	0.348038	0.929342
C100	C	0.310329	-0.285237	0.310259
C101	C	0.643662	0.048096	0.643592
C102	C	0.976996	0.381429	0.976925
C103	C	0.364920	-0.285247	0.310263
C104	C	0.698254	0.048086	0.643597
C105	C	1.031587	0.381419	0.976930
N106	N	0.392260	-0.251855	0.357838
N107	N	0.725593	0.081478	0.691172
N108	N	1.058927	0.414812	1.024505
C109	C	0.364996	-0.218465	0.405421
C110	C	0.698330	0.114868	0.738754
C111	C	1.031663	0.448202	1.072087
C112	C	0.031845	-0.285251	0.310297
C113	C	0.365178	0.048083	0.643631
C114	C	0.698511	0.381416	0.976964
C115	C	-0.022758	-0.285256	0.310308
C116	C	0.310576	0.048077	0.643642
C117	C	0.643909	0.381410	0.976975
C118	C	-0.022682	-0.218472	0.405470
C119	C	0.310652	0.114862	0.738803
C120	C	0.643985	0.448195	1.072137
C121	C	0.031922	-0.218469	0.405462
C122	C	0.365255	0.114864	0.738796
C123	C	0.698588	0.448198	1.072129
C124	C	0.059184	-0.251858	0.357872
C125	C	0.392518	0.081475	0.691205
C126	C	0.725851	0.414808	1.024539
C127	C	0.479661	-0.218471	0.405410
C128	C	0.812995	0.114863	0.738743
C129	C	1.146328	0.448196	1.072076
C130	C	0.534267	-0.218476	0.405404
C131	C	0.867600	0.114857	0.738737
C132	C	1.200933	0.448190	1.072070
C133	C	0.534186	-0.285259	0.310240
C134	C	0.867519	0.048075	0.643573
C135	C	1.200853	0.381408	0.976906
C136	C	0.479585	-0.285255	0.310248
C137	C	0.812919	0.048078	0.643581
C138	C	1.146252	0.381412	0.976914
C139	C	0.452324	-0.251857	0.357835
C140	C	0.785658	0.081477	0.691169
C141	C	1.118991	0.414810	1.024502
O142	O	0.393171	-0.313640	0.269835
O143	O	0.726504	0.019694	0.603168
O144	O	1.059838	0.353027	0.936501
O145	O	0.393271	-0.190063	0.445873
O146	O	0.726605	0.143271	0.779207
O147	O	1.059938	0.476604	1.112540
C148	C	0.755399	-0.387701	0.357812
C149	C	1.088732	-0.054368	0.691145
C150	C	1.422066	0.278965	1.024478
C151	C	0.755409	-0.445815	0.357822
C152	C	1.088743	-0.112482	0.691155
C153	C	1.422076	0.220851	1.024489
C154	C	0.789010	-0.806172	0.310435
C155	C	1.122343	-0.472839	0.643768
C156	C	1.455676	-0.139506	0.977102
C157	C	0.789030	-0.860777	0.310445
C158	C	1.122363	-0.527443	0.643778
C159	C	1.455696	-0.194110	0.977111
O160	O	0.817507	-0.889008	0.270117
O161	O	1.150840	-0.555675	0.603451
O162	O	1.484173	-0.222342	0.936784
N163	N	0.755579	-0.888098	0.357895
N164	N	1.088912	-0.554764	0.691228
N165	N	1.422246	-0.221431	1.024561
C166	C	0.722109	-0.860812	0.405343
C167	C	1.055443	-0.527478	0.738677
C168	C	1.388776	-0.194145	1.072010
O169	O	0.693659	-0.889064	0.445705
O170	O	1.026992	-0.555731	0.779038
O171	O	1.360326	-0.222397	1.112371
C172	C	0.722092	-0.806208	0.405337
C173	C	1.055425	-0.472875	0.738670
C174	C	1.388759	-0.139542	1.072003
C175	C	0.755541	-0.778890	0.357878
C176	C	1.088875	-0.445557	0.691211
C177	C	1.422208	-0.112223	1.024545
C178	C	0.822457	-0.778854	0.262981
C179	C	1.155790	-0.445521	0.596314
C180	C	1.489123	-0.112187	0.929648
C181	C	0.822436	-0.724254	0.262970
C182	C	1.155769	-0.390920	0.596304
C183	C	1.489102	-0.057587	0.929637
C184	C	0.788967	-0.696971	0.310413
C185	C	1.122301	-0.363638	0.643747
C186	C	1.455634	-0.030305	0.977080
C187	C	0.755520	-0.724290	0.357867
C188	C	1.088854	-0.390956	0.691201
C189	C	1.422187	-0.057623	1.024534
C190	C	0.688626	-0.778923	0.452788
C191	C	1.021959	-0.445590	0.786122
C192	C	1.355292	-0.112256	1.119455
C193	C	0.688611	-0.724316	0.452778
C194	C	1.021945	-0.390983	0.786111
C195	C	1.355278	-0.057649	1.119444
C196	C	0.722061	-0.696998	0.405319
C197	C	1.055394	-0.363665	0.738653
C198	C	1.388727	-0.030331	1.071986
C199	C	0.722031	-0.642407	0.405300
C200	C	1.055364	-0.309073	0.738633
C201	C	1.388698	0.024260	1.071967
N202	N	0.755482	-0.615086	0.357850
N203	N	1.088815	-0.281752	0.691183
N204	N	1.422149	0.051581	1.024517
C205	C	0.788950	-0.642368	0.310407
C206	C	1.122284	-0.309035	0.643740
C207	C	1.455617	0.024299	0.977073
C208	C	0.722149	-0.975482	0.405355
C209	C	1.055482	-0.642149	0.738688
C210	C	1.388815	-0.308815	1.072021
C211	C	0.722163	-1.030084	0.405358
C212	C	1.055496	-0.696751	0.738692
C213	C	1.388830	-0.363418	1.072025
C214	C	0.789084	-1.030046	0.310461
C215	C	1.122418	-0.696712	0.643794
C216	C	1.455751	-0.363379	0.977127
C217	C	0.789067	-0.975442	0.310454
C218	C	1.122400	-0.642109	0.643787
C219	C	1.455734	-0.308776	0.977121
C220	C	0.755600	-0.948161	0.357905
C221	C	1.088933	-0.614828	0.691238
C222	C	1.422266	-0.281494	1.024571
C223	C	0.788903	-0.527703	0.310387
C224	C	1.122236	-0.194370	0.643721
C225	C	1.455570	0.138964	0.977054
C226	C	0.788877	-0.473098	0.310379
C227	C	1.122211	-0.139764	0.643712
C228	C	1.455544	0.193569	0.977045
C229	C	0.721958	-0.473141	0.405279
C230	C	1.055292	-0.139808	0.738612
C231	C	1.388625	0.193526	1.071945
C232	C	0.721982	-0.527742	0.405285
C233	C	1.055315	-0.194408	0.738618
C234	C	1.388648	0.138925	1.071952
C235	C	0.755458	-0.555021	0.357837
C236	C	1.088792	-0.221688	0.691170
C237	C	1.422125	0.111645	1.024503
O238	O	0.693570	-0.614140	0.445609
O239	O	1.026904	-0.280807	0.778942
O240	O	1.360237	0.052526	1.112276
O241	O	0.817401	-0.614109	0.270059
O242	O	1.150734	-0.280775	0.603392
O243	O	1.484067	0.052558	0.936726
C244	C	0.891860	-0.251863	0.357876
C245	C	1.225193	0.081471	0.691209
C246	C	1.558527	0.414804	1.024542
C247	C	0.949974	-0.251864	0.357888
C248	C	1.283307	0.081469	0.691222
C249	C	1.616641	0.414802	1.024555
C250	C	0.755508	-0.251835	0.551551
C251	C	1.088841	0.081498	0.884885
C252	C	1.422174	0.414831	1.218218
C253	C	0.755516	-0.251826	0.634097
C254	C	1.088850	0.081508	0.967430
C255	C	1.422183	0.414841	1.300764
C256	C	0.755590	-0.115486	0.357896
C257	C	1.088923	0.217848	0.691229
C258	C	1.422256	0.551181	1.024563
C259	C	0.755633	-0.057372	0.357917
C260	C	1.088967	0.275962	0.691251
C261	C	1.422300	0.609295	1.024584
C262	C	0.755497	-0.251844	0.164893
C263	C	1.088830	0.081489	0.498227
C264	C	1.422163	0.414823	0.831560
C265	C	0.755589	-0.251707	0.082348
C266	C	1.088923	0.081627	0.415681
C267	C	1.422256	0.414960	0.749015
C268	C	0.720593	-0.286701	0.833527
C269	C	1.053926	0.046633	1.166861
C270	C	1.387260	0.379966	1.500194
C271	C	0.768292	-0.299479	0.882921
C272	C	1.101625	0.033854	1.216254
C273	C	1.434958	0.367188	1.549588
C274	C	0.755542	-0.251786	0.785228
C275	C	1.088875	0.081548	1.118561
C276	C	1.422209	0.414881	1.451894
C277	C	0.707869	-0.238993	0.882916
C278	C	1.041203	0.094340	1.216249
C279	C	1.374536	0.427674	1.549582
C280	C	0.755563	-0.251748	0.931213
C281	C	1.088896	0.081585	1.264546
C282	C	1.422229	0.414919	1.597879
C283	C	0.803266	-0.264589	0.833534
C284	C	1.136599	0.068744	1.166867
C285	C	1.469933	0.402078	1.500201
C286	C	0.742811	-0.204081	0.833524
C287	C	1.076145	0.129253	1.166858
C288	C	1.409478	0.462586	1.500191
C289	C	0.790543	-0.216841	0.882896
C290	C	1.123877	0.116493	1.216229
C291	C	1.457210	0.449826	1.549562
C292	C	0.755529	-0.251809	0.701129
C293	C	1.088863	0.081525	1.034463
C294	C	1.422196	0.414858	1.367796
C295	C	0.755581	-0.251725	1.015309
C296	C	1.088914	0.081608	1.348643
C297	C	1.422247	0.414942	1.681976
H298	H	0.305382	-0.157887	0.491757
H299	H	0.638716	0.175447	0.825090
H300	H	0.972049	0.508780	1.158424
H301	H	0.694920	-1.052322	0.443997
H302	H	1.028254	-0.718989	0.777330
H303	H	1.361587	-0.385656	1.110663
Cl304	Cl	0.680067	-0.941191	0.465007
Cl305	Cl	1.013400	-0.607858	0.798341
Cl306	Cl	1.346733	-0.274524	1.131674
H307	H	0.661385	-0.801156	0.491431
H308	H	0.994718	-0.467823	0.824764
H309	H	1.328052	-0.134490	1.158097
Cl310	Cl	0.726146	-0.141836	0.799996
Cl311	Cl	1.059479	0.191497	1.133329
Cl312	Cl	1.392813	0.524830	1.466662
Cl313	Cl	0.784936	-0.361740	0.916423
Cl314	Cl	1.118270	-0.028406	1.249756
Cl315	Cl	1.451603	0.304927	1.583089
H316	H	0.457327	-0.312451	0.271510
H317	H	0.790660	0.020883	0.604844
H318	H	1.123993	0.354216	0.938177
Cl319	Cl	0.317262	-0.360607	0.202845
Cl320	Cl	0.650595	-0.027274	0.536179
Cl321	Cl	0.983929	0.306059	0.869512
Cl322	Cl	0.645612	-0.222311	0.916407
Cl323	Cl	0.978945	0.111023	1.249740
Cl324	Cl	1.312279	0.444356	1.583073
H325	H	0.054176	-0.191278	0.444207
H326	H	0.387509	0.142055	0.777540
H327	H	0.720842	0.475388	1.110874
Cl328	Cl	0.830931	-0.438758	0.250712
Cl329	Cl	1.164265	-0.105425	0.584046
Cl330	Cl	1.497598	0.227909	0.917379
H331	H	-0.044890	-0.191283	0.444213
H332	H	0.288444	0.142051	0.777546
H333	H	0.621777	0.475384	1.110879
Cl334	Cl	0.836239	-0.171230	0.916158
Cl335	Cl	1.169572	0.162103	1.249491
Cl336	Cl	1.502905	0.495437	1.582825
H337	H	-0.045011	-0.312452	0.271570
H338	H	0.288323	0.020881	0.604903
H339	H	0.621656	0.354214	0.938236
Cl340	Cl	0.831120	-0.941105	0.250791
Cl341	Cl	1.164453	-0.607772	0.584124
Cl342	Cl	1.497787	-0.274439	0.917458
Cl343	Cl	0.865542	-0.281347	0.800189
Cl344	Cl	1.198875	0.051986	1.133523
Cl345	Cl	1.532208	0.385320	1.466856
H346	H	0.556522	-0.191285	0.444154
H347	H	0.889855	0.142048	0.777488
H348	H	1.223189	0.475382	1.110821
Cl349	Cl	0.066112	-0.327233	0.250468
Cl350	Cl	0.399446	0.006100	0.583801
Cl351	Cl	0.732779	0.339434	0.917134
Cl352	Cl	0.646536	-0.690023	0.512435
Cl353	Cl	0.979869	-0.356690	0.845769
Cl354	Cl	1.313203	-0.023356	1.179102
Cl355	Cl	0.831158	-1.064354	0.250816
Cl356	Cl	1.164491	-0.731020	0.584149
Cl357	Cl	1.497825	-0.397687	0.917483
Cl358	Cl	0.675005	-0.332344	0.800057
Cl359	Cl	1.008338	0.000989	1.133390
Cl360	Cl	1.341671	0.334322	1.466723
Cl361	Cl	0.679920	-0.562085	0.464932
Cl362	Cl	1.013253	-0.228752	0.798266
Cl363	Cl	1.346587	0.104581	1.131599
H364	H	0.206137	-0.345824	0.223931
H365	H	0.539470	-0.012491	0.557265
H366	H	0.872804	0.320843	0.890598
Cl367	Cl	0.679889	-0.438833	0.464922
Cl368	Cl	1.013222	-0.105500	0.798256
Cl369	Cl	1.346556	0.227834	1.131589
H370	H	0.457472	-0.191273	0.444158
H371	H	0.790805	0.142060	0.777491
H372	H	1.124139	0.475394	1.110824
Cl373	Cl	0.864497	-0.689919	0.203316
Cl374	Cl	1.197830	-0.356586	0.536649
Cl375	Cl	1.531163	-0.023252	0.869983
Cl376	Cl	0.194264	-0.143096	0.512842
Cl377	Cl	0.527598	0.190238	0.846176
Cl378	Cl	0.860931	0.523571	1.179509
Cl379	Cl	0.568471	-0.327232	0.250425
Cl380	Cl	0.901804	0.006101	0.583758
Cl381	Cl	1.235137	0.339434	0.917091
H382	H	0.849713	-0.801062	0.224347
H383	H	1.183047	-0.467728	0.557680
H384	H	1.516380	-0.134395	0.891013
Cl385	Cl	0.830988	-0.561989	0.250736
Cl386	Cl	1.164321	-0.228656	0.584069
Cl387	Cl	1.497654	0.104678	0.917403
