data_functionalizedCrystal
_audit_creation_method	'MofGen! by Chris Wilmer'
_symmetry_space_group_name_H-M	'P1'
_symmetry_Int_Tables_number	1
_symmetry_cell_setting	triclinic
loop_
_symmetry_equiv_pos_as_xyz
  x,y,z
_cell_length_a	19.188930
_cell_length_b	17.666332
_cell_length_c	19.188924
_cell_angle_alpha	90.008552
_cell_angle_beta	83.143372
_cell_angle_gamma	90.023234
loop_
_atom_site_label
_atom_site_type_symbol
_atom_site_fract_x
_atom_site_fract_y
_atom_site_fract_z
O1	O	0.926147	0.063195	0.087169
O2	O	0.722836	0.063144	0.098903
O3	O	0.830361	0.063162	-0.008620
O4	O	0.818622	0.063177	0.194692
O5	O	0.830343	-0.062735	-0.008625
O6	O	0.722817	-0.062753	0.098898
O7	O	0.926129	-0.062702	0.087163
Cu8	Cu	0.824471	-0.074223	0.093030
Cu9	Cu	0.824493	0.074665	0.093037
O10	O	0.818603	-0.062720	0.194687
C11	C	0.696815	0.000189	0.098521
C12	C	0.619311	0.000169	0.097380
N13	N	0.824461	-0.178942	0.093025
C14	C	0.574386	0.000185	0.160471
C15	C	0.501562	0.000193	0.159399
C16	C	0.473667	0.000200	0.095233
C17	C	0.518602	0.000180	0.032134
C18	C	0.591424	0.000164	0.033207
N19	N	0.365694	0.043075	0.046188
N20	N	0.296516	0.043092	0.045172
C21	C	0.254258	0.000246	0.091995
N22	N	0.283791	-0.042607	0.139882
N23	N	0.352976	-0.042620	0.140899
C24	C	0.394704	0.000217	0.094062
C25	C	0.130368	0.000271	0.153928
C26	C	0.057543	0.000274	0.152854
C27	C	0.074585	0.000268	0.025586
C28	C	0.147409	0.000257	0.026663
C29	C	0.175295	0.000262	0.090835
C30	C	0.872088	-0.218544	0.045437
C31	C	0.872092	-0.297791	0.045433
C32	C	0.824475	-0.337434	0.093030
C33	C	0.776839	-0.297823	0.140622
C34	C	0.776831	-0.218577	0.140619
N35	N	0.815398	-0.461850	0.154838
N36	N	0.815409	-0.537130	0.154838
C37	C	0.824494	-0.576198	0.093040
N38	N	0.833581	-0.537142	0.031239
N39	N	0.833573	-0.461855	0.031240
C40	C	0.824478	-0.423363	0.093038
C41	C	0.872128	-0.701729	0.045444
C42	C	0.872128	-0.780978	0.045440
C43	C	0.776878	-0.781009	0.140634
C44	C	0.776875	-0.701761	0.140633
C45	C	0.824504	-0.662126	0.093038
C46	C	0.952149	0.000255	0.087546
C47	C	1.029654	0.000280	0.088687
C48	C	0.829973	0.000213	-0.034634
C49	C	0.828834	0.000210	-0.112138
N50	N	0.824509	0.179384	0.093036
C51	C	0.828313	0.068837	-0.148534
C52	C	0.827233	0.068842	-0.221357
C53	C	0.826688	0.000217	-0.257783
C54	C	0.827205	-0.068418	-0.221378
C55	C	0.828278	-0.068421	-0.148556
N56	N	0.864728	-0.050849	-0.377448
N57	N	0.863710	-0.050841	-0.446627
C58	C	0.823454	0.000224	-0.477192
N59	N	0.784262	0.051292	-0.435967
N60	N	0.785283	0.051286	-0.366783
C61	C	0.825524	0.000214	-0.336746
C62	C	0.821761	0.068861	-0.592550
C63	C	0.820676	0.068864	-0.665374
C64	C	0.820656	-0.068399	-0.665394
C65	C	0.821734	-0.068399	-0.592571
C66	C	0.822289	0.000233	-0.556154
C67	C	0.818992	0.000231	0.220700
C68	C	0.820131	0.000238	0.298205
H69	H	0.464976	0.000205	0.210777
N70	N	0.822260	-0.138501	-0.555390
N71	N	0.772927	-0.184463	-0.556942
H72	H	0.773296	-0.233976	-0.530682
N73	N	0.820084	-0.138499	-0.702590
N74	N	0.770273	-0.153822	-0.736634
H75	H	0.769865	-0.203333	-0.762906
H76	H	0.820249	0.124750	-0.695006
H77	H	0.910910	-0.813223	0.006684
H78	H	0.738095	-0.669515	0.179386
H79	H	0.597086	0.000191	0.212725
H80	H	0.828763	0.124722	-0.118888
H81	H	0.828700	-0.124307	-0.118922
N82	N	0.728235	-0.821505	0.189243
N83	N	0.728243	-0.892259	0.189236
H84	H	0.693886	-0.920864	0.223565
N85	N	0.637309	0.000143	-0.031248
N86	N	0.612398	0.000142	-0.088537
H87	H	0.644805	0.000128	-0.134061
H88	H	0.826804	0.124728	-0.250996
H89	H	0.822209	0.124745	-0.562898
H90	H	0.826760	-0.124293	-0.251040
N91	N	0.490100	0.000179	-0.033405
N92	N	0.425080	0.000193	-0.034355
H93	H	0.404950	0.000189	-0.080644
N94	N	0.920723	-0.178048	-0.003184
N95	N	0.920709	-0.107293	-0.003186
H96	H	0.955055	-0.078689	-0.037526
N97	N	0.158848	0.000271	0.219481
N98	N	0.118723	0.000276	0.275811
H99	H	0.138835	0.000276	0.322109
N100	N	0.728183	-0.178108	0.189226
N101	N	0.684917	-0.133911	0.167178
H102	H	0.650559	-0.105327	0.201508
N103	N	0.011654	0.000271	0.217306
N104	N	0.014061	-0.052796	0.260029
H105	H	-0.018349	-0.052801	0.305550
N106	N	0.046089	0.000261	-0.039953
N107	N	-0.018931	0.000268	-0.040904
H108	H	-0.039060	0.000258	-0.087193
H109	H	0.183988	0.000248	-0.024713
H110	H	0.738067	-0.330104	0.179375
N111	N	0.920747	-0.338243	-0.003186
N112	N	0.963265	-0.302846	-0.045678
H113	H	0.997629	-0.331412	-0.080015
N114	N	0.920695	-0.661249	-0.003261
N115	N	0.963156	-0.696622	-0.045811
H116	H	0.997424	-0.668036	-0.080243
