data_functionalizedCrystal
_audit_creation_method	'MofGen! by Chris Wilmer'
_symmetry_space_group_name_H-M	'P1'
_symmetry_Int_Tables_number	1
_symmetry_cell_setting	triclinic
loop_
_symmetry_equiv_pos_as_xyz
  x,y,z
_cell_length_a	17.699083
_cell_length_b	17.699083
_cell_length_c	16.176319
_cell_angle_alpha	90.001389
_cell_angle_beta	89.992304
_cell_angle_gamma	96.716985
loop_
_atom_site_label
_atom_site_type_symbol
_atom_site_fract_x
_atom_site_fract_y
_atom_site_fract_z
O1	O	0.095713	-1.004079	-0.068632
O2	O	0.595713	-0.504079	0.431368
O3	O	0.108166	-0.783700	-0.068660
O4	O	0.608166	-0.283700	0.431340
O5	O	-0.008250	-0.900116	-0.068638
O6	O	0.491750	-0.400116	0.431362
O7	O	0.212129	-0.887663	-0.068654
O8	O	0.712129	-0.387663	0.431346
O9	O	-0.008257	-0.900100	0.068855
O10	O	0.491743	-0.400100	0.568855
O11	O	0.108158	-0.783684	0.068834
O12	O	0.608158	-0.283684	0.568834
O13	O	0.095706	-1.004063	0.068861
O14	O	0.595706	-0.504063	0.568861
Cu15	Cu	0.101931	-0.893872	0.081401
Cu16	Cu	0.601931	-0.393872	0.581401
Cu17	Cu	0.101940	-0.893891	-0.081200
Cu18	Cu	0.601940	-0.393891	0.418800
O19	O	0.212121	-0.887647	0.068839
O20	O	0.712121	-0.387647	0.568839
C21	C	-0.036451	-0.899662	0.000109
C22	C	0.463549	-0.399662	0.500109
C23	C	-0.120469	-0.898323	0.000109
C24	C	0.379531	-0.398323	0.500109
C25	C	0.107716	-0.755495	0.000084
C26	C	0.607716	-0.255495	0.500084
C27	C	0.106377	-0.671477	0.000073
C28	C	0.606377	-0.171477	0.500073
C29	C	0.096156	-1.032268	0.000116
C30	C	0.596156	-0.532268	0.500116
C31	C	0.097494	-1.116286	0.000121
C32	C	0.597494	-0.616286	0.500121
C33	C	-0.169090	-0.966656	0.000119
C34	C	0.330910	-0.466656	0.500119
C35	C	-0.248033	-0.965394	0.000111
C36	C	0.251967	-0.465394	0.500111
C37	C	-0.278354	-0.895798	0.000100
C38	C	0.221646	-0.395798	0.500100
C39	C	-0.229727	-0.827459	0.000088
C40	C	0.270273	-0.327459	0.500088
C41	C	-0.150785	-0.828722	0.000089
C42	C	0.349215	-0.328722	0.500089
C43	C	-0.548090	-0.822364	0.000080
C44	C	-0.048090	-0.322364	0.500080
C45	C	-0.627038	-0.821106	0.000081
C46	C	-0.127038	-0.321106	0.500081
C47	C	-0.645338	-0.959036	0.000102
C48	C	-0.145338	-0.459036	0.500102
C49	C	-0.566396	-0.960299	0.000104
C50	C	-0.066396	-0.460299	0.500104
C51	C	-0.517776	-0.891961	0.000087
C52	C	-0.017776	-0.391961	0.500087
C53	C	-0.432177	-0.893330	0.000094
C54	C	0.067823	-0.393330	0.500094
C55	C	-0.363951	-0.894427	0.000099
C56	C	0.136049	-0.394427	0.500099
C57	C	0.240322	-0.888102	0.000091
C58	C	0.740322	-0.388102	0.500091
C59	C	0.324340	-0.889440	0.000085
C60	C	0.824340	-0.389440	0.500085
N61	N	0.101925	-0.893864	0.195767
N62	N	0.601925	-0.393864	0.695767
C63	C	0.174710	-0.622856	0.000069
C64	C	0.674710	-0.122856	0.500069
C65	C	0.173448	-0.543913	0.000079
C66	C	0.673448	-0.043913	0.500079
C67	C	0.103852	-0.513592	0.000089
C68	C	0.603852	-0.013592	0.500089
C69	C	0.035513	-0.562219	0.000096
C70	C	0.535513	-0.062219	0.500096
C71	C	0.036776	-0.641161	0.000091
C72	C	0.536776	-0.141161	0.500091
C73	C	0.030418	-0.243856	0.000117
C74	C	0.530418	0.256144	0.500117
C75	C	0.029160	-0.164908	0.000120
C76	C	0.529160	0.335092	0.500120
C77	C	0.167090	-0.146608	0.000105
C78	C	0.667090	0.353392	0.500105
C79	C	0.168353	-0.225550	0.000100
C80	C	0.668353	0.274450	0.500100
C81	C	0.100015	-0.274170	0.000112
C82	C	0.600015	0.225830	0.500112
C83	C	0.101384	-0.359769	0.000102
C84	C	0.601384	0.140231	0.500102
C85	C	0.102481	-0.427995	0.000093
C86	C	0.602481	0.072005	0.500093
N87	N	0.101941	-0.893905	-0.195565
N88	N	0.601941	-0.393905	0.304435
C89	C	0.050397	-0.945429	0.239040
C90	C	0.550397	-0.445429	0.739040
C91	C	0.050396	-0.945432	0.325588
C92	C	0.550396	-0.445432	0.825588
C93	C	0.101927	-0.893875	0.368859
C94	C	0.601927	-0.393875	0.868859
C95	C	0.153457	-0.842305	0.325579
C96	C	0.653457	-0.342305	0.825579
C97	C	0.153454	-0.842299	0.239034
C98	C	0.653454	-0.342299	0.739034
C99	C	0.153472	-0.842331	0.674608
C100	C	0.653472	-0.342331	1.174608
C101	C	0.153473	-0.842344	0.761159
C102	C	0.653473	-0.342344	1.261159
C103	C	0.050414	-0.945465	0.761161
C104	C	0.550414	-0.445465	1.261161
C105	C	0.050410	-0.945458	0.674616
C106	C	0.550410	-0.445458	1.174616
C107	C	0.101937	-0.893886	0.631344
C108	C	0.601937	-0.393886	1.131344
C109	C	0.101937	-0.893882	0.537499
C110	C	0.601937	-0.393882	1.037499
C111	C	0.101932	-0.893883	0.462702
C112	C	0.601932	-0.393883	0.962702
H113	H	-0.287618	-1.021038	0.000121
H114	H	0.212382	-0.521038	0.500121
H115	H	0.008451	-0.987444	0.639387
H116	H	0.508451	-0.487444	1.139387
O117	O	-0.533700	-1.035368	0.000110
O118	O	-0.033700	-0.535368	0.500110
H119	H	-0.498183	-1.039244	0.056153
H120	H	0.001817	-0.539244	0.556153
H121	H	0.225025	-0.250232	0.000089
H122	H	0.725025	0.249768	0.500089
O123	O	-0.005173	-1.001086	0.807832
O124	O	0.494827	-0.501086	1.307832
H125	H	0.003477	-0.992426	0.875282
H126	H	0.503477	-0.492426	1.375282
H127	H	-0.027517	-0.140225	0.000128
H128	H	0.472483	0.359775	0.500128
O129	O	-0.495652	-0.748661	0.000067
O130	O	0.004348	-0.248661	0.500067
H131	H	-0.459249	-0.745935	0.056103
H132	H	0.040751	-0.245935	0.556103
O133	O	-0.043286	-0.296293	0.000129
O134	O	0.456714	0.203707	0.500129
H135	H	-0.091890	-0.261944	0.000130
H136	H	0.408110	0.238056	0.500130
H137	H	0.195428	-0.800341	0.639382
H138	H	0.695428	-0.300341	1.139382
O139	O	-0.005166	-1.001061	0.372265
O140	O	0.494834	-0.501061	0.872265
H141	H	-0.040988	-1.036922	0.327636
H142	H	0.459012	-0.536922	0.827636
H143	H	-0.018868	-0.680748	0.000095
H144	H	0.481132	-0.180748	0.500095
H145	H	-0.144409	-1.023330	0.000133
H146	H	0.355591	-0.523330	0.500133
O147	O	-0.697783	-1.032745	0.000116
O148	O	-0.197783	-0.532745	0.500116
H149	H	-0.663435	-1.081350	0.000136
H150	H	-0.163435	-0.581350	0.500136
H151	H	-0.651721	-0.764429	0.000074
H152	H	-0.151721	-0.264429	0.500074
O153	O	0.209066	-0.786745	0.807836
O154	O	0.709066	-0.286745	1.307836
H155	H	0.244897	-0.750882	0.763208
H156	H	0.744897	-0.250882	1.263208
H157	H	-0.254420	-0.770792	0.000073
H158	H	0.245580	-0.270792	0.500073
O159	O	-0.005186	-1.001034	0.192369
O160	O	0.494814	-0.501034	0.692369
H161	H	-0.041022	-1.036884	0.237004
H162	H	0.458978	-0.536884	0.737004
O163	O	-0.098338	-0.755021	0.000088
O164	O	0.401662	-0.255021	0.500088
H165	H	-0.132682	-0.706413	0.000090
H166	H	0.367318	-0.206413	0.500090
O167	O	-0.039555	-0.529522	0.000110
O168	O	0.460445	-0.029522	0.500110
H169	H	-0.028955	-0.466461	0.000105
H170	H	0.471045	0.033539	0.500105
H171	H	0.195413	-0.800323	0.360816
H172	H	0.695413	-0.300323	0.860816
H173	H	0.231384	-0.647537	0.000060
H174	H	0.731384	-0.147537	0.500060
H175	H	0.195412	-0.800309	0.203801
H176	H	0.695412	-0.300309	0.703801
O177	O	0.247150	-0.491469	0.000075
O178	O	0.747150	0.008531	0.500075
H179	H	0.295756	-0.525815	0.000057
H180	H	0.795756	-0.025815	0.500057
O181	O	0.240803	-0.094169	0.000111
O182	O	0.740803	0.405831	0.500111
H183	H	0.228237	-0.034181	0.000128
H184	H	0.728237	0.465819	0.500128
