data_functionalizedCrystal
_audit_creation_method	'MofGen! by Chris Wilmer'
_symmetry_space_group_name_H-M	'P1'
_symmetry_Int_Tables_number	1
_symmetry_cell_setting	triclinic
loop_
_symmetry_equiv_pos_as_xyz
  x,y,z
_cell_length_a	18.215405
_cell_length_b	17.077404
_cell_length_c	17.077396
_cell_angle_alpha	89.978543
_cell_angle_beta	90.031591
_cell_angle_gamma	89.976011
loop_
_atom_site_label
_atom_site_type_symbol
_atom_site_fract_x
_atom_site_fract_y
_atom_site_fract_z
Zn1	Zn	-0.293002	-1.200044	0.443867
Zn2	Zn	0.040331	-0.866710	0.777200
Zn3	Zn	0.373665	-0.533377	1.110533
Zn4	Zn	-0.416075	-1.199946	0.312594
Zn5	Zn	-0.082742	-0.866613	0.645927
Zn6	Zn	0.250591	-0.533280	0.979260
Zn7	Zn	-0.293025	-1.068776	0.312610
Zn8	Zn	0.040308	-0.735442	0.645943
Zn9	Zn	0.373641	-0.402109	0.979277
Zn10	Zn	-0.416029	-1.068739	0.443813
Zn11	Zn	-0.082696	-0.735406	0.777146
Zn12	Zn	0.250637	-0.402072	1.110479
O13	O	-0.354533	-1.134376	0.378221
O14	O	-0.021200	-0.801043	0.711554
O15	O	0.312134	-0.467709	1.044887
O16	O	-0.309337	-1.309878	0.426469
O17	O	0.023996	-0.976544	0.759802
O18	O	0.357329	-0.643211	1.093135
O19	O	-0.399782	-1.182521	0.202749
O20	O	-0.066448	-0.849187	0.536082
O21	O	0.266885	-0.515854	0.869415
O22	O	-0.190038	-1.086245	0.330051
O23	O	0.143295	-0.752911	0.663385
O24	O	0.476629	-0.419578	0.996718
O25	O	-0.399759	-1.309806	0.330023
O26	O	-0.066426	-0.976473	0.663356
O27	O	0.266908	-0.643139	0.996690
O28	O	-0.190021	-1.182687	0.426485
O29	O	0.143313	-0.849354	0.759818
O30	O	0.476646	-0.516020	1.093151
O31	O	-0.309377	-1.086150	0.202761
O32	O	0.023956	-0.752817	0.536094
O33	O	0.357289	-0.419483	0.869428
O34	O	-0.309333	-0.958924	0.329999
O35	O	0.024001	-0.625590	0.663332
O36	O	0.357334	-0.292257	0.996665
O37	O	-0.399680	-1.086182	0.553667
O38	O	-0.066347	-0.752849	0.887000
O39	O	0.266986	-0.419516	1.220333
O40	O	-0.399703	-0.958897	0.426393
O41	O	-0.066370	-0.625564	0.759726
O42	O	0.266964	-0.292230	1.093059
O43	O	-0.309293	-1.182651	0.553707
O44	O	0.024041	-0.849318	0.887040
O45	O	0.357374	-0.515985	1.220373
O46	O	-0.519054	-1.182485	0.329970
O47	O	-0.185720	-0.849152	0.663304
O48	O	0.147613	-0.515819	0.996637
O49	O	-0.519020	-1.086088	0.426377
O50	O	-0.185686	-0.752754	0.759710
O51	O	0.147647	-0.419421	1.093043
C52	C	-0.354516	-0.930428	0.378192
C53	C	-0.021183	-0.597095	0.711525
C54	C	0.312151	-0.263762	1.044859
C55	C	-0.354526	-0.843178	0.378199
C56	C	-0.021193	-0.509845	0.711532
C57	C	0.312140	-0.176512	1.044865
C58	C	-0.401652	-0.802195	0.428309
C59	C	-0.068319	-0.468861	0.761642
C60	C	0.265014	-0.135528	1.094976
C61	C	-0.401653	-0.720214	0.428319
C62	C	-0.068319	-0.386881	0.761652
C63	C	0.265014	-0.053548	1.094985
C64	C	-0.354530	-0.679219	0.378213
C65	C	-0.021196	-0.345886	0.711547
C66	C	0.312137	-0.012552	1.044880
C67	C	-0.307398	-0.720208	0.328101
C68	C	0.025935	-0.386875	0.661434
C69	C	0.359268	-0.053542	0.994768
C70	C	-0.307395	-0.802187	0.328096
C71	C	0.025938	-0.468854	0.661429
C72	C	0.359272	-0.135521	0.994762
C73	C	-0.307410	-0.549338	0.328114
C74	C	0.025924	-0.216005	0.661447
C75	C	0.359257	0.117328	0.994781
C76	C	-0.307414	-0.467354	0.328118
C77	C	0.025920	-0.134020	0.661451
C78	C	0.359253	0.199313	0.994785
C79	C	-0.401667	-0.467365	0.428337
C80	C	-0.068334	-0.134032	0.761670
C81	C	0.265000	0.199301	1.095004
C82	C	-0.401664	-0.549344	0.428332
C83	C	-0.068331	-0.216011	0.761665
C84	C	0.265003	0.117322	1.094998
C85	C	-0.354533	-0.590328	0.378218
C86	C	-0.021200	-0.256995	0.711551
C87	C	0.312133	0.076339	1.044885
C88	C	-0.545739	-1.134293	0.378183
C89	C	-0.212406	-0.800960	0.711516
C90	C	0.120927	-0.467627	1.044850
C91	C	-0.627538	-1.134330	0.378193
C92	C	-0.294205	-0.800996	0.711526
C93	C	0.039129	-0.467663	1.044860
C94	C	-0.815725	-1.184642	0.328087
C95	C	-0.482392	-0.851308	0.661420
C96	C	-0.149059	-0.517975	0.994754
C97	C	-0.892584	-1.184677	0.328106
C98	C	-0.559251	-0.851343	0.661439
C99	C	-0.225917	-0.518010	0.994773
C100	C	-0.892589	-1.084211	0.428411
C101	C	-0.559255	-0.750878	0.761744
C102	C	-0.225922	-0.417544	1.095078
C103	C	-0.815731	-1.084181	0.428396
C104	C	-0.482398	-0.750847	0.761729
C105	C	-0.149065	-0.417514	1.095062
C106	C	-0.777302	-1.134395	0.378229
C107	C	-0.443968	-0.801061	0.711562
C108	C	-0.110635	-0.467728	1.044896
C109	C	-0.931018	-1.134460	0.378264
C110	C	-0.597684	-0.801127	0.711597
C111	C	-0.264351	-0.467794	1.044930
C112	C	-1.014351	-1.134498	0.378285
C113	C	-0.681018	-0.801165	0.711618
C114	C	-0.347685	-0.467831	1.044951
C115	C	-0.693963	-1.134358	0.378209
C116	C	-0.360629	-0.801025	0.711542
C117	C	-0.027296	-0.467691	1.044875
C118	C	-0.162580	-1.134481	0.378276
C119	C	0.170753	-0.801147	0.711609
C120	C	0.504087	-0.467814	1.044943
C121	C	-0.080781	-1.134525	0.378299
C122	C	0.252552	-0.801192	0.711633
C123	C	0.585886	-0.467859	1.044966
C124	C	-0.354479	-1.134424	0.582965
C125	C	-0.021145	-0.801090	0.916298
C126	C	0.312188	-0.467757	1.249632
C127	C	-0.354456	-1.134444	0.670215
C128	C	-0.021122	-0.801111	1.003548
C129	C	0.312211	-0.467777	1.336882
C130	C	-0.354546	-0.339120	0.378241
C131	C	-0.021213	-0.005787	0.711575
C132	C	0.312121	0.327546	1.044908
C133	C	-0.354540	-0.426370	0.378228
C134	C	-0.021206	-0.093037	0.711562
C135	C	0.312127	0.240297	1.044895
C136	C	-0.354534	-1.134374	0.174273
C137	C	-0.021201	-0.801041	0.507606
C138	C	0.312133	-0.467707	0.840940
C139	C	-0.354350	-1.134506	0.087024
C140	C	-0.021016	-0.801172	0.420357
C141	C	0.312317	-0.467839	0.753690
C142	C	-0.307387	-1.184677	0.711227
C143	C	0.025946	-0.851344	1.044560
C144	C	0.359280	-0.518010	1.377894
C145	C	-0.307362	-1.184687	0.793208
C146	C	0.025971	-0.851353	1.126541
C147	C	0.359304	-0.518020	1.459874
C148	C	-0.354411	-1.134466	0.834175
C149	C	-0.021078	-0.801133	1.167508
C150	C	0.312256	-0.467799	1.500841
C151	C	-0.401482	-1.084227	0.793157
C152	C	-0.068148	-0.750894	1.126490
C153	C	0.265185	-0.417561	1.459823
C154	C	-0.401502	-1.084214	0.711178
C155	C	-0.068169	-0.750881	1.044511
C156	C	0.265165	-0.417548	1.377844
C157	C	-0.401438	-1.084259	0.964027
C158	C	-0.068104	-0.750926	1.297360
C159	C	0.265229	-0.417592	1.630693
C160	C	-0.401418	-1.084273	1.046011
C161	C	-0.068085	-0.750939	1.379345
C162	C	0.265248	-0.417606	1.712678
C163	C	-0.307298	-1.184731	1.046057
C164	C	0.026035	-0.851398	1.379390
C165	C	0.359369	-0.518064	1.712723
C166	C	-0.307318	-1.184718	0.964078
C167	C	0.026015	-0.851385	1.297411
C168	C	0.359349	-0.518051	1.630744
C169	C	-0.354390	-1.134480	0.923066
C170	C	-0.021057	-0.801147	1.256399
C171	C	0.312277	-0.467814	1.589732
H172	H	-0.440028	-0.835567	0.469108
H173	H	-0.106695	-0.502234	0.802441
H174	H	0.226639	-0.168901	1.135775
H175	H	-0.923865	-1.225594	0.287276
H176	H	-0.590532	-0.892261	0.620610
H177	H	-0.257198	-0.558927	0.953943
H178	H	-0.784438	-1.225530	0.287239
H179	H	-0.451104	-0.892197	0.620573
H180	H	-0.117771	-0.558863	0.953906
H181	H	-0.269033	-0.433978	0.287327
H182	H	0.064300	-0.100644	0.620661
H183	H	0.397633	0.232689	0.953994
H184	H	-0.923887	-1.043327	0.469254
H185	H	-0.590554	-0.709994	0.802587
H186	H	-0.257221	-0.376661	1.135920
C187	C	-0.255564	-0.594419	0.272993
C188	C	0.077769	-0.261086	0.606326
C189	C	0.411102	0.072248	0.939659
H190	H	-0.227504	-0.558264	0.243148
H191	H	0.105829	-0.224931	0.576481
H192	H	0.439163	0.108403	0.909814
H193	H	-0.223534	-0.626424	0.303082
H194	H	0.109799	-0.293091	0.636415
H195	H	0.443132	0.040242	0.969749
H196	H	-0.283677	-0.626373	0.238730
H197	H	0.049656	-0.293039	0.572064
H198	H	0.382990	0.040294	0.905397
C199	C	-0.773462	-1.028905	0.483553
C200	C	-0.440129	-0.695572	0.816887
C201	C	-0.106796	-0.362238	1.150220
H202	H	-0.807356	-0.998996	0.513425
H203	H	-0.474023	-0.665663	0.846758
H204	H	-0.140689	-0.332329	1.180092
H205	H	-0.743434	-1.058900	0.517778
H206	H	-0.410101	-0.725567	0.851111
H207	H	-0.076767	-0.392234	1.184444
H208	H	-0.743527	-0.994708	0.453479
H209	H	-0.410194	-0.661375	0.786813
H210	H	-0.076861	-0.328041	1.120146
H211	H	-0.269077	-1.225575	0.677878
H212	H	0.064257	-0.892242	1.011211
H213	H	0.397590	-0.558908	1.344544
H214	H	-0.440028	-0.686849	0.469123
H215	H	-0.106695	-0.353516	0.802456
H216	H	0.226639	-0.020182	1.135790
C217	C	-0.255590	-1.239947	0.838318
C218	C	0.077743	-0.906614	1.171651
C219	C	0.411076	-0.573280	1.504984
H220	H	-0.227580	-1.269862	0.802178
H221	H	0.105753	-0.936528	1.135511
H222	H	0.439086	-0.603195	1.468845
H223	H	-0.223511	-1.209946	0.870301
H224	H	0.109823	-0.876613	1.203634
H225	H	0.443156	-0.543280	1.536967
H226	H	-0.283744	-1.274139	0.870296
H227	H	0.049589	-0.940806	1.203629
H228	H	0.382923	-0.607472	1.536963
H229	H	-0.269011	-1.225616	0.930725
H230	H	0.064322	-0.892283	1.264058
H231	H	0.397656	-0.558950	1.597391
H232	H	-0.268969	-1.225635	1.079453
H233	H	0.064364	-0.892302	1.412786
H234	H	0.397698	-0.558969	1.746119
H235	H	-0.439728	-1.043377	1.079365
H236	H	-0.106395	-0.710044	1.412698
H237	H	0.226939	-0.376710	1.746031
H238	H	-0.439757	-1.043338	0.930637
H239	H	-0.106424	-0.710004	1.263971
H240	H	0.226910	-0.376671	1.597304
H241	H	-0.439823	-1.043301	0.677787
H242	H	-0.106490	-0.709968	1.011120
H243	H	0.226844	-0.376635	1.344453
C244	C	-0.453497	-0.594438	0.483446
C245	C	-0.120164	-0.261105	0.816780
C246	C	0.213170	0.072229	1.150113
H247	H	-0.481562	-0.558290	0.513299
H248	H	-0.148228	-0.224957	0.846632
H249	H	0.185105	0.108377	1.179965
H250	H	-0.485523	-0.626394	0.453355
H251	H	-0.152190	-0.293061	0.786688
H252	H	0.181143	0.040272	1.120022
H253	H	-0.425377	-0.626442	0.517702
H254	H	-0.092044	-0.293109	0.851036
H255	H	0.241290	0.040225	1.184369
C256	C	-0.453506	-0.422287	0.483466
C257	C	-0.120172	-0.088954	0.816799
C258	C	0.213161	0.244380	1.150132
H259	H	-0.446754	-0.367592	0.476301
H260	H	-0.113420	-0.034259	0.809635
H261	H	0.219913	0.299075	1.142968
H262	H	-0.502938	-0.435695	0.471880
H263	H	-0.169605	-0.102362	0.805213
H264	H	0.163729	0.230972	1.138546
H265	H	-0.442794	-0.435753	0.536230
H266	H	-0.109461	-0.102420	0.869563
H267	H	0.223873	0.230913	1.202896
H268	H	-0.439787	-1.043334	0.826518
H269	H	-0.106453	-0.710001	1.159852
H270	H	0.226880	-0.376667	1.493185
H271	H	-0.269016	-0.835555	0.287295
H272	H	0.064317	-0.502222	0.620628
H273	H	0.397650	-0.168889	0.953961
H274	H	-0.269027	-0.686823	0.287308
H275	H	0.064307	-0.353490	0.620641
H276	H	0.397640	-0.020157	0.953974
