data_functionalizedCrystal
_audit_creation_method	'MofGen! by Chris Wilmer'
_symmetry_space_group_name_H-M	'P1'
_symmetry_Int_Tables_number	1
_symmetry_cell_setting	triclinic
loop_
_symmetry_equiv_pos_as_xyz
  x,y,z
_cell_length_a	14.519731
_cell_length_b	13.596369
_cell_length_c	9.065215
_cell_angle_alpha	90.005011
_cell_angle_beta	84.351775
_cell_angle_gamma	90.005416
loop_
_atom_site_label
_atom_site_type_symbol
_atom_site_fract_x
_atom_site_fract_y
_atom_site_fract_z
O1	O	1.225272	0.081791	0.193547
O2	O	1.558606	0.415125	0.526880
O3	O	1.891939	0.748458	0.860214
O4	O	0.956964	0.081793	0.216289
O5	O	1.290298	0.415126	0.549622
O6	O	1.623631	0.748459	0.882955
O7	O	1.096666	0.081788	-0.009828
O8	O	1.429999	0.415121	0.323505
O9	O	1.763332	0.748455	0.656839
O10	O	1.085571	0.081796	0.419664
O11	O	1.418904	0.415130	0.752997
O12	O	1.752238	0.748463	1.086330
O13	O	1.096651	-0.081795	-0.009840
O14	O	1.429985	0.251538	0.323493
O15	O	1.763318	0.584872	0.656827
O16	O	0.956950	-0.081790	0.216277
O17	O	1.290283	0.251543	0.549610
O18	O	1.623617	0.584876	0.882943
O19	O	1.225258	-0.081791	0.193535
O20	O	1.558591	0.251542	0.526868
O21	O	1.891925	0.584875	0.860202
Zn22	Zn	1.091102	-0.107763	0.204904
Zn23	Zn	1.424435	0.225570	0.538237
Zn24	Zn	1.757768	0.558904	0.871571
Zn25	Zn	1.091121	0.107764	0.204920
Zn26	Zn	1.424454	0.441098	0.538253
Zn27	Zn	1.757787	0.774431	0.871586
O28	O	1.085557	-0.081787	0.419652
O29	O	1.418890	0.251547	0.752985
O30	O	1.752223	0.584880	1.086318
C31	C	0.922590	0.000001	0.215217
C32	C	1.255923	0.333335	0.548550
C33	C	1.589257	0.666668	0.881884
C34	C	0.820186	0.000002	0.212024
C35	C	1.153520	0.333335	0.545357
C36	C	1.486853	0.666669	0.878691
C37	C	0.737023	0.000006	0.209429
C38	C	1.070357	0.333339	0.542763
C39	C	1.403690	0.666673	0.876096
C40	C	0.632691	0.000006	0.206187
C41	C	0.966024	0.333339	0.539521
C42	C	1.299357	0.666673	0.872854
C43	C	0.549533	0.000006	0.203614
C44	C	0.882866	0.333339	0.536948
C45	C	1.216200	0.666673	0.870281
C46	C	0.445194	0.000008	0.200373
C47	C	0.778527	0.333341	0.533706
C48	C	1.111860	0.666675	0.867039
N49	N	1.091096	-0.254855	0.204892
N50	N	1.424429	0.078478	0.538226
N51	N	1.757762	0.411812	0.871559
C52	C	1.091119	-0.656146	0.204921
C53	C	1.424453	-0.322813	0.538255
C54	C	1.757786	0.010521	0.871588
C55	C	1.091110	-0.544495	0.204918
C56	C	1.424443	-0.211161	0.538252
C57	C	1.757777	0.122172	0.871585
C58	C	1.091108	-0.455504	0.204908
C59	C	1.424441	-0.122171	0.538241
C60	C	1.757775	0.211163	0.871575
C61	C	1.091098	-0.343846	0.204903
C62	C	1.424431	-0.010512	0.538236
C63	C	1.757765	0.322821	0.871569
C64	C	1.259632	0.000002	0.194607
C65	C	1.592966	0.333335	0.527940
C66	C	1.926299	0.666669	0.861273
C67	C	1.362036	0.000008	0.197800
C68	C	1.695369	0.333341	0.531133
C69	C	2.028703	0.666675	0.864466
C70	C	1.095593	-0.000003	-0.064801
C71	C	1.428926	0.333331	0.268532
C72	C	1.762259	0.666664	0.601866
C73	C	1.092407	0.000000	-0.228585
C74	C	1.425740	0.333334	0.104749
C75	C	1.759073	0.666667	0.438082
N76	N	1.091134	0.254856	0.204920
N77	N	1.424467	0.588190	0.538253
N78	N	1.757800	0.921523	0.871586
C79	C	1.086630	0.000006	0.474625
C80	C	1.419963	0.333339	0.807958
C81	C	1.753296	0.666673	1.141291
C82	C	1.089816	0.000009	0.638408
C83	C	1.423149	0.333343	0.971742
C84	C	1.756482	0.666676	1.305075
