data_functionalizedCrystal
_audit_creation_method	'MofGen! by Chris Wilmer'
_symmetry_space_group_name_H-M	'P1'
_symmetry_Int_Tables_number	1
_symmetry_cell_setting	triclinic
loop_
_symmetry_equiv_pos_as_xyz
  x,y,z
_cell_length_a	25.639239
_cell_length_b	17.640112
_cell_length_c	17.640968
_cell_angle_alpha	87.860920
_cell_angle_beta	78.768464
_cell_angle_gamma	78.735466
loop_
_atom_site_label
_atom_site_type_symbol
_atom_site_fract_x
_atom_site_fract_y
_atom_site_fract_z
Zn1	Zn	-0.015023	-1.247772	-0.195080
Zn2	Zn	-0.122900	-1.221955	-0.068097
Zn3	Zn	-0.049036	-1.095089	-0.093726
Zn4	Zn	-0.116017	-1.120698	-0.220679
O5	O	-0.075744	-1.171378	-0.144396
O6	O	-0.017980	-1.350621	-0.156796
O7	O	-0.130216	-1.183603	0.034776
O8	O	0.028654	-1.115429	-0.107183
O9	O	-0.097236	-1.331654	-0.063503
O10	O	0.053643	-1.227605	-0.181647
O11	O	-0.075949	-1.090396	0.015947
O12	O	-0.069275	-0.992212	-0.132006
O13	O	-0.085505	-1.159077	-0.323556
O14	O	-0.118486	-1.011027	-0.225278
O15	O	-0.011306	-1.252437	-0.304749
O16	O	-0.195165	-1.208436	-0.088325
O17	O	-0.190109	-1.134044	-0.200427
C18	C	-0.096825	-0.974064	-0.184201
C19	C	-0.105853	-0.889655	-0.201248
C20	C	-0.043844	-1.211494	-0.342479
C21	C	-0.030250	-1.228589	-0.426890
C22	C	-0.211606	-1.171241	-0.144385
C23	C	-0.269717	-1.171257	-0.144392
C24	C	-0.518277	-1.132630	-0.202753
C25	C	-0.463677	-1.132600	-0.202750
O26	O	-0.433219	-1.099628	-0.252371
N27	N	-0.438975	-1.171361	-0.144412
C28	C	-0.468874	-1.210160	-0.086078
O29	O	-0.442849	-1.243127	-0.036458
C30	C	-0.523472	-1.210194	-0.086085
C31	C	-0.548172	-1.171425	-0.144422
C32	C	-0.542978	-1.093864	-0.261086
C33	C	-0.597574	-1.093893	-0.261088
C34	C	-0.627470	-1.132688	-0.202757
C35	C	-0.602769	-1.171454	-0.144425
C36	C	-0.553368	-1.248998	-0.027755
C37	C	-0.607970	-1.249029	-0.027767
C38	C	-0.632671	-1.210260	-0.086104
C39	C	-0.687261	-1.210277	-0.086096
N40	N	-0.711963	-1.171516	-0.144434
C41	C	-0.682068	-1.132722	-0.202764
C42	C	-0.354214	-1.210087	-0.086069
C43	C	-0.299618	-1.210049	-0.086059
C44	C	-0.294425	-1.132489	-0.202731
C45	C	-0.349023	-1.132524	-0.202738
C46	C	-0.378917	-1.171326	-0.144407
C47	C	-0.796724	-1.132785	-0.202764
C48	C	-0.851326	-1.132814	-0.202759
C49	C	-0.856514	-1.210377	-0.086089
C50	C	-0.801917	-1.210344	-0.086091
C51	C	-0.772023	-1.171547	-0.144435
O52	O	-0.717752	-1.243235	-0.036502
O53	O	-0.708098	-1.099769	-0.252382
C54	C	0.060654	-1.171540	-0.144419
C55	C	0.118778	-1.171609	-0.144428
C56	C	-0.054581	-1.369464	-0.104435
C57	C	-0.045563	-1.453876	-0.087406
C58	C	-0.007149	-0.563036	-0.014898
C59	C	-0.015641	-0.483723	-0.030927
C60	C	-0.067003	-0.503336	-0.127883
C61	C	-0.058513	-0.582653	-0.111865
C62	C	-0.028586	-0.612496	-0.055372
C63	C	-0.079950	-0.632112	-0.152339
C64	C	-0.071463	-0.711421	-0.136319
C65	C	-0.041539	-0.741270	-0.079826
C66	C	-0.020099	-0.691804	-0.039352
C67	C	-0.109880	-0.602267	-0.208829
C68	C	-0.131317	-0.651727	-0.249302
C69	C	-0.122827	-0.731038	-0.233287
C70	C	-0.092903	-0.760887	-0.176794
C71	C	-0.144267	-0.780503	-0.273761
C72	C	-0.135780	-0.859812	-0.257742
C73	C	-0.084416	-0.840196	-0.160774
C74	C	-0.178701	-1.041802	-0.753462
C75	C	-0.165919	-1.057882	-0.832776
C76	C	-0.088661	-1.155089	-0.813183
C77	C	-0.101435	-1.139016	-0.733866
C78	C	-0.146456	-1.082372	-0.704013
C79	C	-0.069191	-1.179585	-0.684417
C80	C	-0.081966	-1.163515	-0.605106
C81	C	-0.126985	-1.106876	-0.575246
C82	C	-0.159231	-1.066302	-0.624702
C83	C	-0.024172	-1.236232	-0.714271
C84	C	0.008072	-1.276802	-0.664821
C85	C	-0.004700	-1.260728	-0.585510
C86	C	-0.049720	-1.204089	-0.555650
C87	C	0.027546	-1.301302	-0.536054
C88	C	0.014771	-1.285232	-0.456744
C89	C	-0.062494	-1.188019	-0.476340
C90	C	-0.107478	-1.131463	0.052926
C91	C	-0.120909	-1.114515	0.137366
H92	H	-0.871435	-1.101242	-0.250266
F93	F	-0.052560	-0.871962	-0.100652
H94	H	0.064198	-1.347426	-0.560372
H95	H	-0.034630	-0.805849	-0.066783
F96	F	-0.273338	-1.251302	-0.023961
H97	H	-0.195881	-1.020159	-0.600398
F98	F	-0.118919	-0.517856	-0.225869
F99	F	-0.163173	-0.619955	-0.309417
F100	F	-0.176127	-0.748729	-0.333872
F101	F	-0.226614	-0.981509	-0.721687
F102	F	-0.775632	-1.251590	-0.023992
H103	H	-0.091371	-0.479026	-0.173878
F104	F	-0.010579	-1.253337	-0.798681
F105	F	-0.375307	-1.091260	-0.264828
F106	F	-0.200241	-1.014695	-0.885404
F107	F	-0.511169	-1.052571	-0.323176
F108	F	-0.262599	-1.091199	-0.264812
H109	H	-0.880865	-1.241959	-0.038596
F110	F	-0.386026	-1.251383	-0.023977
F111	F	0.049088	-1.328413	-0.404112
F112	F	-0.527090	-1.290271	0.034331
F113	F	-0.110407	-1.127726	-0.444564
H114	H	-0.772390	-1.101194	-0.250274
H115	H	-0.153236	-0.900084	-0.290700
F116	F	-0.140584	-1.089776	-0.490835
H117	H	0.044727	-1.322923	-0.689139
F118	F	-0.623854	-1.052639	-0.323186
H119	H	-0.052007	-1.201210	-0.837501
H120	H	-0.632306	-1.280631	0.019732
H121	H	0.017231	-0.587338	0.031094
F122	F	0.011757	-0.723571	0.020771
F123	F	0.007174	-0.431085	0.012160
