data_functionalizedCrystal
_audit_creation_method	'MofGen! by Chris Wilmer'
_symmetry_space_group_name_H-M	'P1'
_symmetry_Int_Tables_number	1
_symmetry_cell_setting	triclinic
loop_
_symmetry_equiv_pos_as_xyz
  x,y,z
_cell_length_a	12.645331
_cell_length_b	16.994747
_cell_length_c	12.645323
_cell_angle_alpha	90.006372
_cell_angle_beta	90.022676
_cell_angle_gamma	90.010038
loop_
_atom_site_label
_atom_site_type_symbol
_atom_site_fract_x
_atom_site_fract_y
_atom_site_fract_z
Zn1	Zn	1.620780	-0.314043	0.599583
Zn2	Zn	1.620682	-0.445958	0.422380
Zn3	Zn	1.443495	-0.314070	0.422327
Zn4	Zn	1.443497	-0.445907	0.599595
O5	O	1.532114	-0.379995	0.510971
O6	O	1.769114	-0.331552	0.576093
O7	O	1.597136	-0.428496	0.274026
O8	O	1.467052	-0.203685	0.445813
O9	O	1.769043	-0.428470	0.445903
O10	O	1.597303	-0.203666	0.576042
O11	O	1.466957	-0.331598	0.273987
O12	O	1.295148	-0.331548	0.445825
O13	O	1.467056	-0.428382	0.747941
O14	O	1.295149	-0.428408	0.576063
O15	O	1.597305	-0.331503	0.747932
O16	O	1.597138	-0.556333	0.445915
O17	O	1.466961	-0.556295	0.576115
C18	C	1.256684	-0.379976	0.510941
C19	C	1.138854	-0.379987	0.510953
C20	C	1.532052	-0.584934	0.511019
C21	C	1.532060	-0.674257	0.511016
Zn22	Zn	1.443525	-0.945156	0.422297
Zn23	Zn	1.620827	-0.945108	0.599536
Zn24	Zn	1.443533	-0.813299	0.599577
Zn25	Zn	1.620702	-0.813214	0.422345
O26	O	1.532147	-0.879194	0.510939
O27	O	1.467094	-1.055531	0.445771
O28	O	1.597365	-0.927639	0.747889
O29	O	1.295185	-0.830846	0.576058
O30	O	1.597357	-1.055496	0.575987
O31	O	1.295179	-0.927721	0.445811
O32	O	1.467108	-0.830800	0.747919
O33	O	1.466986	-0.702907	0.576105
O34	O	1.597143	-0.830700	0.273992
O35	O	1.597151	-0.702844	0.445893
O36	O	1.466972	-0.927638	0.273956
O37	O	1.769158	-0.927556	0.576034
O38	O	1.769066	-0.830654	0.445853
C39	C	0.971253	-0.318772	0.429471
C40	C	1.093813	-0.318930	0.429113
C41	C	1.094346	-0.463080	0.480474
C42	C	0.971748	-0.462746	0.479918
C43	C	0.971701	-0.358899	0.623227
C44	C	1.094307	-0.357043	0.622603
C45	C	1.808619	-0.380014	0.511003
C46	C	1.926449	-0.380022	0.511016
C47	C	1.532192	-0.379934	0.787477
C48	C	1.532225	-0.379908	0.905307
C49	C	1.532180	-0.174254	0.510917
C50	C	1.532213	-0.084932	0.510895
C51	C	1.532097	-0.379998	0.235541
C52	C	1.532269	-0.379802	0.117712
C53	C	1.450032	-0.440567	1.072877
C54	C	1.450248	-0.440868	0.950317
C55	C	1.643928	-0.402468	0.949836
C56	C	1.643477	-0.402849	1.072435
C57	C	1.503771	-0.296348	1.072468
C58	C	1.501279	-0.296849	0.949862
C59	C	1.807577	-0.879092	0.510947
C60	C	1.925407	-0.879072	0.510981
C61	C	1.532043	-0.879165	0.234434
C62	C	1.531998	-0.879153	0.116603
C63	C	1.255642	-0.879299	0.510934
C64	C	1.137812	-0.879343	0.510932
C65	C	1.532175	-0.879268	0.786369
C66	C	1.531924	-0.879431	0.904198
C67	C	2.092957	-0.818263	0.428924
C68	C	1.970397	-0.818025	0.429121
C69	C	1.969907	-0.856576	0.622732
C70	C	2.092505	-0.856133	0.622301
C71	C	2.092617	-0.962524	0.482403
C72	C	1.970011	-0.962084	0.479892
C73	C	1.613524	-0.817954	-0.050938
C74	C	1.613912	-0.818134	0.071622
C75	C	1.562351	-0.962256	0.072094
C76	C	1.562878	-0.961900	-0.050504
C77	C	1.419713	-0.857974	-0.050607
C78	C	1.420369	-0.856139	0.072000
H79	H	1.123904	-0.257313	0.448212
F80	F	1.393827	-0.274612	0.911830
H81	H	1.366956	-0.426585	1.102344
H82	H	1.125005	-0.481301	0.399323
F83	F	0.933833	-0.417209	0.702643
H84	H	1.940928	-0.979048	0.397653
F85	F	1.488544	-1.023526	-0.089300
F86	F	1.929784	-0.777717	0.654983
H87	H	1.367416	-0.426750	0.920209
H88	H	2.122416	-0.832181	0.345821
H89	H	2.121106	-0.795131	0.646569
H90	H	2.123770	-0.756781	0.447668
H91	H	1.397479	-0.794983	0.101093
F92	F	1.932065	-0.737205	0.453899
F93	F	1.474334	-0.520920	1.113255
H94	H	1.423734	-0.275783	1.103363
F95	F	0.933007	-0.524417	0.554160
H96	H	1.469062	-0.502736	0.921029
H97	H	1.667632	-0.463855	1.101072
F98	F	2.133027	-0.989301	0.377746
F99	F	2.130551	-1.021744	0.560577
H100	H	1.939377	-1.009811	0.535315
F101	F	1.726236	-0.347476	1.111206
F102	F	1.582059	-0.237173	1.110364
H103	H	0.941780	-0.256969	0.448366
F104	F	1.134381	-0.411102	0.706262
H105	H	0.940408	-0.332578	0.346806
F106	F	1.726167	-0.346450	0.911734
H107	H	1.123093	-0.332892	0.345958
H108	H	1.643469	-0.980537	0.102819
F109	F	1.383567	-0.780134	-0.091011
H110	H	1.668496	-0.462836	0.919174
H111	H	1.123401	-0.295895	0.645586
H112	H	1.556799	-0.249182	0.919220
H113	H	1.358887	-0.902548	-0.079621
H114	H	1.940310	-0.832096	0.346260
F115	F	2.131293	-0.911506	0.705020
H116	H	1.594893	-0.756513	0.101716
F117	F	1.931820	-0.912677	0.704864
H118	H	1.594707	-0.756136	-0.080406
F119	F	1.721540	-0.836051	-0.091199
F120	F	1.722579	-0.836466	0.109954
H121	H	1.504763	-1.009085	0.101230
F122	F	0.934306	-0.486158	0.372697
F123	F	1.336644	-0.910156	0.112020
H124	H	1.644878	-0.979853	-0.079106
H125	H	0.940795	-0.299365	0.650953
F126	F	1.132470	-0.524325	0.555676
