data_functionalizedCrystal
_audit_creation_method	'MofGen! by Chris Wilmer'
_symmetry_space_group_name_H-M	'P1'
_symmetry_Int_Tables_number	1
_symmetry_cell_setting	triclinic
loop_
_symmetry_equiv_pos_as_xyz
  x,y,z
_cell_length_a	8.559649
_cell_length_b	10.723024
_cell_length_c	7.681481
_cell_angle_alpha	84.204337
_cell_angle_beta	94.913240
_cell_angle_gamma	77.123267
loop_
_atom_site_label
_atom_site_type_symbol
_atom_site_fract_x
_atom_site_fract_y
_atom_site_fract_z
O1	O	2.104705	-0.029042	-0.146401
O2	O	1.640206	0.035334	-0.146409
O3	O	1.883170	-0.179530	-0.146398
O4	O	1.861740	0.185821	-0.146412
O5	O	1.913074	-0.206029	0.146461
O6	O	1.670110	0.008834	0.146450
O7	O	2.134609	-0.055542	0.146458
Zn8	Zn	1.907107	-0.027561	0.192952
Zn9	Zn	1.867707	0.007353	-0.192903
O10	O	1.891644	0.159322	0.146447
C11	C	1.595681	0.026963	0.000019
C12	C	1.418460	0.041484	0.000016
C13	C	1.896563	-0.239119	0.000029
C14	C	1.891896	-0.377194	0.000023
C15	C	2.027846	-0.466115	0.000023
C16	C	2.023026	-0.608823	0.000016
C17	C	2.179133	-0.047170	0.000026
C18	C	2.356353	-0.061691	0.000018
C19	C	1.878251	0.218911	0.000016
C20	C	1.882917	0.356988	0.000011
N21	N	1.934009	-0.051391	0.456287
N22	N	1.840818	0.031172	-0.456238
H23	H	1.336043	0.140934	0.000003
C24	C	1.627510	-0.184828	0.000035
C25	C	1.467591	-0.195942	0.000028
H26	H	1.696188	-0.267713	0.000053
H27	H	1.636978	-0.130392	-0.102087
H28	H	1.657825	-0.148860	0.102167
H29	H	1.437271	-0.231901	-0.102110
H30	H	1.458116	-0.250398	0.102161
H31	H	2.029155	-0.135661	0.531497
H32	H	2.147806	-0.436592	0.000036
C33	C	1.744030	0.261065	0.486673
C34	C	1.712390	0.144938	0.442252
H35	H	1.664746	0.331299	0.423988
H36	H	1.741108	0.263649	0.609608
H37	H	1.847688	0.267009	0.456519
H38	H	1.608736	0.138989	0.472418
H39	H	1.715295	0.142353	0.319290
C40	C	2.171006	-0.774606	-0.150544
C41	C	2.180153	-0.711901	0.000009
H42	H	2.268018	-0.838237	-0.150551
H43	H	2.082494	-0.814554	-0.150531
H44	H	2.156329	-0.713550	-0.252656
H45	H	2.194818	-0.772955	0.102121
H46	H	2.268690	-0.671952	0.000012
C47	C	1.704184	-0.449978	-0.150542
C48	C	1.725783	-0.539940	0.000004
H49	H	1.607170	-0.386345	-0.150549
H50	H	1.792699	-0.410033	-0.150521
H51	H	1.698007	-0.492546	-0.252658
H52	H	1.731972	-0.497374	0.102121
H53	H	1.637244	-0.579889	-0.000001
H54	H	1.771936	-0.406717	0.000009
