data_functionalizedCrystal
_audit_creation_method	'MofGen! by Chris Wilmer'
_symmetry_space_group_name_H-M	'P1'
_symmetry_Int_Tables_number	1
_symmetry_cell_setting	triclinic
loop_
_symmetry_equiv_pos_as_xyz
  x,y,z
_cell_length_a	19.288864
_cell_length_b	27.731996
_cell_length_c	17.766277
_cell_angle_alpha	89.987644
_cell_angle_beta	89.976791
_cell_angle_gamma	82.878815
loop_
_atom_site_label
_atom_site_type_symbol
_atom_site_fract_x
_atom_site_fract_y
_atom_site_fract_z
O1	O	0.920961	0.060301	-0.062845
O2	O	1.420961	0.560301	0.437155
O3	O	0.718647	0.068436	-0.062795
O4	O	1.218647	0.568436	0.437205
O5	O	0.826106	-0.006011	-0.062805
O6	O	1.326106	0.493989	0.437195
O7	O	0.813502	0.134748	-0.062835
O8	O	1.313502	0.634748	0.437165
O9	O	0.826088	-0.006015	0.062383
O10	O	1.326088	0.493985	0.562383
O11	O	0.718628	0.068432	0.062393
O12	O	1.218628	0.568432	0.562393
O13	O	0.920942	0.060298	0.062343
O14	O	1.420942	0.560298	0.562343
Cu15	Cu	0.819784	0.064365	0.073799
Cu16	Cu	1.319784	0.564365	0.573799
Cu17	Cu	0.819806	0.064369	-0.074251
Cu18	Cu	1.319806	0.564369	0.425749
O19	O	0.813483	0.134744	0.062354
O20	O	1.313483	0.634744	0.562354
C21	C	0.692763	0.068172	-0.000194
C22	C	1.192763	0.568172	0.499806
C23	C	0.615665	0.067387	-0.000174
C24	C	1.115665	0.567387	0.499826
C25	C	0.570684	0.111069	-0.000195
C26	C	1.070684	0.611069	0.499805
C27	C	0.498242	0.110330	-0.000203
C28	C	0.998242	0.610330	0.499797
C29	C	0.470783	0.065908	-0.000206
C30	C	0.970783	0.565908	0.499794
C31	C	0.515774	0.022220	-0.000180
C32	C	1.015774	0.522220	0.499820
C33	C	0.588214	0.022959	-0.000165
C34	C	1.088214	0.522959	0.499835
C35	C	0.362755	0.030988	-0.044083
C36	C	0.862755	0.530988	0.455917
C37	C	0.290315	0.030250	-0.044103
C38	C	0.790315	0.530250	0.455897
C39	C	0.247353	0.063625	-0.000251
C40	C	0.747353	0.563625	0.499749
C41	C	0.276837	0.097746	0.043612
C42	C	0.776837	0.597746	0.543612
C43	C	0.349277	0.098486	0.043628
C44	C	0.849277	0.598486	0.543628
C45	C	0.392235	0.065101	-0.000222
C46	C	0.892235	0.565101	0.499778
C47	C	0.123821	0.106510	-0.000280
C48	C	0.623821	0.606510	0.499720
C49	C	0.051378	0.105770	-0.000283
C50	C	0.551378	0.605770	0.499717
C51	C	0.068912	0.017658	-0.000268
C52	C	0.568912	0.517658	0.499732
C53	C	0.141353	0.018400	-0.000257
C54	C	0.641353	0.518400	0.499743
C55	C	0.168803	0.062827	-0.000266
C56	C	0.668803	0.562827	0.499734
C57	C	0.825838	-0.024021	-0.000209
C58	C	1.325838	0.475979	0.499791
C59	C	0.825058	-0.077680	-0.000201
C60	C	1.325058	0.422320	0.499799
C61	C	0.820161	-0.410409	-0.068476
C62	C	1.320161	0.089591	0.431524
C63	C	0.817200	-0.612076	-0.068489
C64	C	1.317200	-0.112076	0.431511
O65	O	0.816796	-0.638146	-0.126525
O66	O	1.316796	-0.138146	0.373475
N67	N	0.816822	-0.637296	-0.000249
N68	N	1.316822	-0.137296	0.499751
C69	C	0.817180	-0.612096	0.067998
C70	C	1.317180	-0.112096	0.567998
O71	O	0.816783	-0.638174	0.126040
O72	O	1.316783	-0.138174	0.626040
C73	C	0.820136	-0.410429	0.068010
C74	C	1.320136	0.089571	0.568010
C75	C	0.820521	-0.385212	-0.000234
C76	C	1.320521	0.114788	0.499766
C77	C	0.820546	-0.385191	-0.136715
C78	C	1.320546	0.114809	0.363285
C79	C	0.821290	-0.334778	-0.136711
C80	C	1.321290	0.165222	0.363289
C81	C	0.821650	-0.309582	-0.068469
C82	C	1.321650	0.190418	0.431531
C83	C	0.821266	-0.334799	-0.000230
C84	C	1.321266	0.165201	0.499770
C85	C	0.820489	-0.385230	0.136257
C86	C	1.320489	0.114770	0.636257
C87	C	0.821227	-0.334810	0.136254
C88	C	1.321227	0.165190	0.636254
C89	C	0.821612	-0.309593	0.068010
C90	C	1.321612	0.190407	0.568010
C91	C	0.822370	-0.259189	0.068016
C92	C	1.322370	0.240811	0.568016
N93	N	0.822748	-0.233969	-0.000224
N94	N	1.322748	0.266031	0.499776
C95	C	0.822388	-0.259165	-0.068466
C96	C	1.322388	0.240835	0.431534
C97	C	0.815629	-0.717974	0.067987
C98	C	1.315629	-0.217974	0.567987
C99	C	0.814891	-0.768391	0.067985
C100	C	1.314891	-0.268391	0.567985
C101	C	0.814910	-0.768367	-0.068503
C102	C	1.314910	-0.268367	0.431497
C103	C	0.815653	-0.717950	-0.068499
C104	C	1.315653	-0.217950	0.431501
C105	C	0.816007	-0.692754	-0.000252
C106	C	1.316007	-0.192754	0.499748
C107	C	0.823951	-0.153293	-0.068453
C108	C	1.323951	0.346707	0.431547
C109	C	0.824698	-0.102876	-0.068443
C110	C	1.324698	0.397124	0.431557
C111	C	0.824676	-0.102904	0.068044
C112	C	1.324676	0.397096	0.568044
C113	C	0.823932	-0.153317	0.068035
C114	C	1.323932	0.346683	0.568035
C115	C	0.823568	-0.178511	-0.000220
C116	C	1.323568	0.321489	0.499780
O117	O	0.822766	-0.233087	0.126022
O118	O	1.322766	0.266913	0.626022
O119	O	0.822769	-0.233077	-0.126499
O120	O	1.322769	0.266923	0.373501
C121	C	0.819417	-0.460822	-0.068480
C122	C	1.319417	0.039178	0.431520
C123	C	0.819033	-0.486039	-0.000242
C124	C	1.319033	0.013961	0.499758
C125	C	0.819393	-0.460843	0.068001
C126	C	1.319393	0.039157	0.568001
C127	C	0.818295	-0.536456	-0.000244
C128	C	1.318295	-0.036456	0.499756
C129	C	0.817935	-0.561652	-0.068487
C130	C	1.317935	-0.061652	0.431513
C131	C	0.818313	-0.536432	-0.136727
C132	C	1.318313	-0.036432	0.363273
C133	C	0.819057	-0.486018	-0.136723
C134	C	1.319057	0.013982	0.363277
C135	C	0.819015	-0.486063	0.136240
C136	C	1.319015	0.013937	0.636240
C137	C	0.818272	-0.536477	0.136231
C138	C	1.318272	-0.036477	0.636231
C139	C	0.817912	-0.561673	0.067989
C140	C	1.317912	-0.061673	0.567989
C141	C	0.946826	0.060561	-0.000259
C142	C	1.446826	0.560561	0.499741
C143	C	1.023925	0.061347	-0.000284
C144	C	1.523925	0.561347	0.499716
C145	C	0.813751	0.152754	-0.000245
C146	C	1.313751	0.652754	0.499755
C147	C	0.814531	0.206413	-0.000258
C148	C	1.314531	0.706413	0.499742
N149	N	0.819773	0.064361	0.177929
N150	N	1.319773	0.564361	0.677929
N151	N	0.819822	0.064369	-0.178381
N152	N	1.319822	0.564369	0.321619
C153	C	0.867371	0.031412	0.217312
C154	C	1.367371	0.531412	0.717312
C155	C	0.867375	0.031410	0.296114
C156	C	1.367375	0.531410	0.796114
C157	C	0.819788	0.064365	0.335530
C158	C	1.319788	0.564365	0.835530
C159	C	0.772181	0.097316	0.296138
C160	C	1.272181	0.597316	0.796138
C161	C	0.772173	0.097314	0.217338
C162	C	1.272173	0.597314	0.717338
C163	C	0.810202	0.108409	0.460360
C164	C	1.310202	0.608409	0.960360
C165	C	0.810214	0.108411	0.539159
C166	C	1.310214	0.608411	1.039159
C167	C	0.819806	0.064371	0.578576
C168	C	1.319806	0.564371	1.078576
C169	C	0.829401	0.020326	0.539185
C170	C	1.329401	0.520326	1.039185
C171	C	0.829393	0.020324	0.460385
C172	C	1.329393	0.520324	0.960385
C173	C	0.819790	0.064370	0.420976
C174	C	1.319790	0.564370	0.920976
C175	C	0.867411	0.031417	0.703405
C176	C	1.367411	0.531417	1.203405
C177	C	0.867410	0.031414	0.782208
C178	C	1.367410	0.531414	1.282208
C179	C	0.772219	0.097324	0.782231
C180	C	1.272219	0.597324	1.282231
C181	C	0.772217	0.097323	0.703429
C182	C	1.272217	0.597323	1.203429
C183	C	0.819816	0.064370	0.664021
C184	C	1.319816	0.564370	1.164021
H185	H	0.046556	-0.018511	-0.000316
H186	H	0.546556	0.481489	0.499684
H187	H	0.802407	0.144275	0.571225
H188	H	1.302407	0.644275	1.071225
N189	N	0.817870	-0.562239	0.205940
N190	N	1.317870	-0.062239	0.705940
N191	N	0.817198	-0.607252	0.205937
N192	N	1.317198	-0.107252	0.705937
H193	H	0.816908	-0.625445	0.255167
H194	H	1.316908	-0.125445	0.755167
N195	N	0.819380	-0.460337	0.205959
N196	N	1.319380	0.039663	0.705959
N197	N	0.819040	-0.482866	0.266877
N198	N	1.319040	0.017134	0.766877
H199	H	0.819301	-0.464700	0.316121
H200	H	1.319301	0.035300	0.816121
H201	H	0.815921	-0.697464	0.123566
H202	H	1.315921	-0.197464	0.623566
N203	N	0.916005	-0.002258	0.177095
N204	N	1.416005	0.497742	0.677095
N205	N	0.894343	-0.032248	0.133153
N206	N	1.394343	0.467752	0.633153
H207	H	0.928700	-0.056030	0.104762
H208	H	1.428700	0.443970	0.604762
N209	N	0.814498	-0.794138	0.137702
N210	N	1.314498	-0.294138	0.637702
N211	N	0.765592	-0.783943	0.183403
N212	N	1.265592	-0.283943	0.683403
H213	H	0.765311	-0.802125	0.232644
H214	H	1.265311	-0.302125	0.732644
N215	N	0.820096	-0.410989	0.205960
N216	N	1.320096	0.089011	0.705960
N217	N	0.868656	-0.443691	0.221187
N218	N	1.368656	0.056309	0.721187
H219	H	0.868377	-0.461884	0.270417
H220	H	1.368377	0.038116	0.770417
H221	H	0.906136	0.004578	0.328185
H222	H	1.406136	0.504578	0.828185
H223	H	0.397730	0.003809	-0.079797
H224	H	0.897730	0.503809	0.420203
H225	H	0.373280	0.126266	0.079345
H226	H	0.873280	0.626266	0.579345
H227	H	0.177978	-0.017171	-0.000244
H228	H	0.677978	0.482829	0.499756
H229	H	0.821504	-0.314297	0.191830
H230	H	1.321504	0.185703	0.691830
H231	H	0.266315	0.002469	-0.079822
H232	H	0.766315	0.502469	0.420178
H233	H	0.837203	-0.015539	0.428316
H234	H	1.337203	0.484461	0.928316
N235	N	0.823576	-0.179015	-0.138179
N236	N	1.323576	0.320985	0.361821
N237	N	0.823919	-0.156486	-0.199096
N238	N	1.323919	0.343514	0.300904
H239	H	0.823657	-0.174651	-0.248341
H240	H	1.323657	0.325349	0.251659
H241	H	0.733461	0.124155	0.671362
H242	H	1.233461	0.624155	1.171362
N243	N	0.800411	0.153403	0.420112
N244	N	1.300411	0.653403	0.920112
N245	N	0.791861	0.192723	0.455288
N246	N	1.291861	0.692723	0.955288
H247	H	0.784951	0.224500	0.426865
H248	H	1.284951	0.724500	0.926865
N249	N	0.916023	-0.002258	0.822427
N250	N	1.416023	0.497742	1.322427
N251	N	0.915560	-0.046936	0.813627
N252	N	1.415560	0.453064	1.313627
H253	H	0.949893	-0.070720	0.842029
H254	H	1.449893	0.429280	1.342029
N255	N	0.825034	-0.077151	0.137741
N256	N	1.325034	0.422849	0.637741
N257	N	0.776462	-0.044454	0.152964
N258	N	1.276462	0.455546	0.652964
H259	H	0.776710	-0.026263	0.202187
H260	H	1.276710	0.473737	0.702187
H261	H	0.493412	-0.013949	-0.000193
H262	H	0.993412	0.486051	0.499807
H263	H	0.906168	0.004582	0.671317
H264	H	1.406168	0.504582	1.171317
H265	H	0.837211	-0.015536	0.571277
H266	H	1.337211	0.484464	1.071277
H267	H	0.624838	-0.012613	-0.000148
H268	H	1.124838	0.487387	0.499852
H269	H	0.146172	0.142685	-0.000276
H270	H	0.646172	0.642685	0.499724
H271	H	0.241857	0.124923	0.079322
H272	H	0.741857	0.624923	0.579322
N273	N	0.825097	-0.077126	-0.138163
N274	N	1.325097	0.422874	0.361837
N275	N	0.824775	-0.099633	-0.199087
N276	N	1.324775	0.400367	0.300913
H277	H	0.825057	-0.081449	-0.248326
H278	H	1.325057	0.418551	0.251674
N279	N	0.821681	-0.309031	-0.206429
N280	N	1.321681	0.190969	0.293571
N281	N	0.821356	-0.331541	-0.267349
N282	N	1.321356	0.168459	0.232651
H283	H	0.821630	-0.313360	-0.316591
H284	H	1.321630	0.186640	0.183409
H285	H	0.820250	-0.405701	-0.192289
H286	H	1.320250	0.094299	0.307711
H287	H	0.014755	0.141343	-0.000296
H288	H	0.514755	0.641343	0.499704
N289	N	0.816049	-0.692201	-0.138215
N290	N	1.316049	-0.192201	0.361785
N291	N	0.815733	-0.714711	-0.199137
N292	N	1.315733	-0.214711	0.300863
H293	H	0.816013	-0.696528	-0.248378
H294	H	1.316013	-0.196528	0.251622
H295	H	0.814618	-0.788890	-0.124069
H296	H	1.314618	-0.288890	0.375931
N297	N	0.817952	-0.562166	-0.206443
N298	N	1.317952	-0.062166	0.293557
N299	N	0.867020	-0.561098	-0.252151
N300	N	1.367020	-0.061098	0.247849
H301	H	0.866763	-0.579274	-0.301386
H302	H	1.366763	-0.079274	0.198614
H303	H	0.733470	0.124155	0.814323
H304	H	1.233470	0.624155	1.314323
H305	H	0.823625	-0.173851	0.123605
H306	H	1.323625	0.326149	0.623605
H307	H	0.819371	-0.465491	-0.192294
H308	H	1.319371	0.034509	0.307706
N309	N	0.723572	0.130973	0.336409
N310	N	1.223572	0.630973	0.836409
N311	N	0.723584	0.130971	0.406765
N312	N	1.223584	0.630971	0.906765
H313	H	0.689250	0.154740	0.435207
H314	H	1.189250	0.654740	0.935207
H315	H	0.593029	0.147245	-0.000204
H316	H	1.093029	0.647245	0.499796
N317	N	0.723544	0.130975	0.177117
N318	N	1.223544	0.630975	0.677117
N319	N	0.681053	0.160394	0.212315
N320	N	1.181053	0.660394	0.712315
H321	H	0.646708	0.184168	0.183909
H322	H	1.146708	0.684168	0.683909
H323	H	0.461612	0.145903	-0.000218
H324	H	0.961612	0.645903	0.499782
