data_functionalizedCrystal
_audit_creation_method	'MofGen! by Chris Wilmer'
_symmetry_space_group_name_H-M	'P1'
_symmetry_Int_Tables_number	1
_symmetry_cell_setting	triclinic
loop_
_symmetry_equiv_pos_as_xyz
  x,y,z
_cell_length_a	10.685904
_cell_length_b	16.625545
_cell_length_c	16.625539
_cell_angle_alpha	90.023904
_cell_angle_beta	85.608338
_cell_angle_gamma	85.606116
loop_
_atom_site_label
_atom_site_type_symbol
_atom_site_fract_x
_atom_site_fract_y
_atom_site_fract_z
Zn1	Zn	1.929125	0.226561	-0.550542
Zn2	Zn	2.262458	0.559895	-0.217209
Zn3	Zn	2.595792	0.893228	0.116125
Zn4	Zn	1.928970	0.361408	-0.415708
Zn5	Zn	2.262303	0.694741	-0.082374
Zn6	Zn	2.595637	1.028074	0.250959
Zn7	Zn	1.718109	0.236917	-0.405373
Zn8	Zn	2.051443	0.570250	-0.072039
Zn9	Zn	2.384776	0.903584	0.261294
Zn10	Zn	1.718033	0.371691	-0.540152
Zn11	Zn	2.051367	0.705024	-0.206818
Zn12	Zn	2.384700	1.038358	0.126515
O13	O	1.823559	0.299144	-0.477944
O14	O	2.156893	0.632478	-0.144610
O15	O	2.490226	0.965811	0.188723
O16	O	2.105693	0.235812	-0.541330
O17	O	2.439026	0.569145	-0.207996
O18	O	2.772359	0.902478	0.125337
O19	O	1.900966	0.344924	-0.301503
O20	O	2.234299	0.678257	0.031831
O21	O	2.567632	1.011591	0.365164
O22	O	1.746197	0.122706	-0.424653
O23	O	2.079531	0.456039	-0.091320
O24	O	2.412864	0.789373	0.242014
O25	O	2.105579	0.334883	-0.442267
O26	O	2.438912	0.668216	-0.108934
O27	O	2.772246	1.001549	0.224399
O28	O	1.901230	0.115098	-0.531308
O29	O	2.234563	0.448431	-0.197975
O30	O	2.567896	0.781765	0.135358
O31	O	1.746047	0.253461	-0.293910
O32	O	2.079380	0.586794	0.039424
O33	O	2.412714	0.920128	0.372757
O34	O	1.541511	0.263433	-0.414578
O35	O	1.874844	0.596766	-0.081245
O36	O	2.208177	0.930099	0.252089
O37	O	1.746068	0.352409	-0.654364
O38	O	2.079402	0.685743	-0.321031
O39	O	2.412735	1.019076	0.012303
O40	O	1.541455	0.362451	-0.513599
O41	O	1.874788	0.695784	-0.180266
O42	O	2.208122	1.029117	0.153067
O43	O	1.901156	0.245783	-0.661998
O44	O	2.234490	0.579116	-0.328664
O45	O	2.567823	0.912450	0.004669
O46	O	1.900892	0.475609	-0.432192
O47	O	2.234225	0.808942	-0.098859
O48	O	2.567559	1.142276	0.234475
O49	O	1.745918	0.483164	-0.523621
O50	O	2.079251	0.816498	-0.190287
O51	O	2.412585	1.149831	0.143046
C52	C	1.495696	0.315182	-0.461840
C53	C	1.829029	0.648515	-0.128507
C54	C	2.162362	0.981848	0.204827
C55	C	1.355434	0.322062	-0.454970
C56	C	1.688767	0.655395	-0.121637
C57	C	2.022101	0.988729	0.211697
C58	C	1.823414	0.508642	-0.477920
C59	C	2.156748	0.841976	-0.144586
C60	C	2.490081	1.175309	0.188747
C61	C	1.823468	0.598261	-0.477942
C62	C	2.156801	0.931594	-0.144609
C63	C	2.490134	1.264927	0.188725
C64	C	1.823514	0.671041	-0.477963
C65	C	2.156847	1.004374	-0.144630
C66	C	2.490181	1.337708	0.188703
C67	C	1.823584	0.762346	-0.477988
C68	C	2.156917	1.095679	-0.144655
C69	C	2.490251	1.429013	0.188678
C70	C	1.823647	0.835119	-0.478004
C71	C	2.156980	1.168453	-0.144671
C72	C	2.490313	1.501786	0.188662
C73	C	1.823715	0.926430	-0.478028
C74	C	2.157049	1.259764	-0.144695
C75	C	2.490382	1.593097	0.188639
C76	C	2.152704	0.283045	-0.494110
C77	C	2.486037	0.616378	-0.160777
C78	C	2.819370	0.949712	0.172556
C79	C	2.292965	0.276184	-0.501000
C80	C	2.626298	0.609518	-0.167666
C81	C	2.959632	0.942851	0.165667
C82	C	1.823621	0.299088	-0.688256
C83	C	2.156955	0.632421	-0.354922
C84	C	2.490288	0.965755	-0.021589
C85	C	1.823648	0.299064	-0.777878
C86	C	2.156981	0.632397	-0.444545
C87	C	2.490314	0.965731	-0.111211
C88	C	1.823730	1.088827	-0.477997
C89	C	2.157063	1.422160	-0.144663
C90	C	2.490397	1.755494	0.188670
C91	C	1.823778	0.999204	-0.478044
C92	C	2.157111	1.332537	-0.144711
C93	C	2.490445	1.665870	0.188622
C94	C	1.823668	0.299045	-0.850662
C95	C	2.157002	0.632379	-0.517328
C96	C	2.490335	0.965712	-0.183995
C97	C	1.823698	0.299014	-0.941971
C98	C	2.157031	0.632347	-0.608638
C99	C	2.490364	0.965680	-0.275305
C100	C	1.823727	0.298984	-1.014749
C101	C	2.157061	0.632317	-0.681416
C102	C	2.490394	0.965651	-0.348083
C103	C	1.823759	0.298953	-1.106065
C104	C	2.157092	0.632287	-0.772732
C105	C	2.490425	0.965620	-0.439399
C106	C	1.823570	0.299139	-0.268453
C107	C	2.156904	0.632472	0.064880
C108	C	2.490237	0.965805	0.398213
C109	C	1.823789	0.298923	-0.178843
C110	C	2.157122	0.632257	0.154490
C111	C	2.490455	0.965590	0.487823
H112	H	1.346794	0.231638	-0.545661
H113	H	1.680127	0.564972	-0.212328
H114	H	2.013460	0.898305	0.121005
H115	H	1.301612	0.366600	-0.410306
H116	H	1.634945	0.699933	-0.076973
H117	H	1.968278	1.033266	0.256360
