data_functionalizedCrystal
_audit_creation_method	'MofGen! by Chris Wilmer'
_symmetry_space_group_name_H-M	'P1'
_symmetry_Int_Tables_number	1
_symmetry_cell_setting	triclinic
loop_
_symmetry_equiv_pos_as_xyz
  x,y,z
_cell_length_a	14.853566
_cell_length_b	14.519731
_cell_length_c	13.596369
_cell_angle_alpha	90.001373
_cell_angle_beta	90.003082
_cell_angle_gamma	83.661634
loop_
_atom_site_label
_atom_site_type_symbol
_atom_site_fract_x
_atom_site_fract_y
_atom_site_fract_z
O1	O	1.196424	0.120392	0.081729
O2	O	0.933971	0.134737	0.081745
O3	O	1.072146	-0.006675	0.081727
O4	O	1.058249	0.261805	0.081746
O5	O	1.072129	-0.006668	-0.081855
O6	O	0.933954	0.134745	-0.081838
O7	O	1.196407	0.120400	-0.081854
Zn8	Zn	1.065177	0.127574	-0.107818
Zn9	Zn	1.065200	0.127563	0.107709
O10	O	1.058232	0.261812	-0.081837
C11	C	0.900373	0.134091	-0.000044
C12	C	0.800289	0.132144	-0.000038
C13	C	0.377109	0.123904	0.089113
C14	C	0.377112	0.123913	-0.089231
C15	C	0.471147	0.125742	-0.089228
C16	C	0.518167	0.126653	-0.000053
C17	C	0.471152	0.125736	0.089119
C18	C	0.518167	0.126669	-0.178399
C19	C	0.612208	0.128498	-0.178399
C20	C	0.659231	0.129403	-0.089223
C21	C	0.612210	0.128484	-0.000047
C22	C	0.659231	0.129395	0.089128
C23	C	0.612213	0.128470	0.178305
C24	C	0.518175	0.126640	0.178295
C25	C	0.753268	0.131233	-0.089213
C26	C	0.753274	0.131227	0.089134
C27	C	1.071486	-0.041031	-0.000064
C28	C	1.069535	-0.143410	-0.000065
C29	C	1.067949	-0.226554	-0.000062
C30	C	1.065968	-0.330862	-0.000055
C31	C	1.064396	-0.414000	-0.000048
C32	C	1.062415	-0.518315	-0.000042
C33	C	1.230004	0.121046	-0.000063
C34	C	1.330089	0.122993	-0.000062
C35	C	1.058891	0.296168	-0.000043
C36	C	1.060843	0.398547	-0.000036
N37	N	1.065169	0.127580	-0.254910
C38	C	1.065173	0.127582	-0.343908
C39	C	1.065182	0.127576	-0.455559
C40	C	1.065194	0.127565	-0.544550
C41	C	1.065204	0.127560	-0.656208
N42	N	1.065216	0.127550	0.254801
H43	H	0.791551	0.131965	0.161752
H44	H	0.479876	0.125933	-0.251000
N45	N	0.467456	0.125643	0.274465
H46	H	0.421230	0.182009	0.278438
H47	H	0.511567	0.126461	0.330908
H48	H	0.650482	0.129249	-0.251012
N49	N	0.662926	0.129454	0.274488
H50	H	0.694726	0.187339	0.278467
H51	H	0.709111	0.073055	0.278397
H52	H	0.791545	0.131995	-0.161820
N53	N	0.326407	0.122897	0.185293
H54	H	0.259699	0.121595	0.171764
H55	H	0.335629	0.180339	0.224242
H56	H	0.338822	0.123178	-0.161834
