data_functionalizedCrystal
_audit_creation_method	'MofGen! by Chris Wilmer'
_symmetry_space_group_name_H-M	'P1'
_symmetry_Int_Tables_number	1
_symmetry_cell_setting	triclinic
loop_
_symmetry_equiv_pos_as_xyz
  x,y,z
_cell_length_a	23.532407
_cell_length_b	16.974885
_cell_length_c	16.053802
_cell_angle_alpha	96.211606
_cell_angle_beta	87.440303
_cell_angle_gamma	83.122480
loop_
_atom_site_label
_atom_site_type_symbol
_atom_site_fract_x
_atom_site_fract_y
_atom_site_fract_z
O1	O	0.757759	0.092943	-0.063048
O2	O	1.257759	0.592943	0.436952
O3	O	0.591910	0.106875	-0.062131
O4	O	1.091910	0.606875	0.437869
O5	O	0.679728	-0.015605	-0.070385
O6	O	1.179728	0.484395	0.429615
O7	O	0.669942	0.215423	-0.054794
O8	O	1.169942	0.715423	0.445206
O9	O	0.674894	-0.008891	0.068926
O10	O	1.174894	0.491109	0.568926
O11	O	0.587076	0.113589	0.077180
O12	O	1.087076	0.613589	0.577180
O13	O	0.752926	0.099657	0.076264
O14	O	1.252926	0.599657	0.576264
Zn15	Zn	0.669234	0.107689	0.098841
Zn16	Zn	1.169234	0.607689	0.598841
Zn17	Zn	0.675602	0.098843	-0.084708
Zn18	Zn	1.175602	0.598843	0.415292
O19	O	0.665108	0.222137	0.084517
O20	O	1.165108	0.722137	0.584517
C21	C	0.568277	0.109877	0.007497
C22	C	1.068277	0.609877	0.507497
C23	C	0.505059	0.108810	0.007416
C24	C	1.005059	0.608810	0.507416
C25	C	0.677028	-0.041799	-0.002725
C26	C	1.177028	0.458201	0.497275
C27	C	0.676180	-0.129854	-0.008674
C28	C	1.176180	0.370146	0.491326
C29	C	0.673145	-0.167569	0.064467
C30	C	1.173145	0.332431	0.564467
C31	C	0.672352	-0.250306	0.058870
C32	C	1.172352	0.249694	0.558870
C33	C	0.674589	-0.295326	-0.019867
C34	C	1.174589	0.204674	0.480133
C35	C	0.677626	-0.257605	-0.093013
C36	C	1.177626	0.242395	0.406987
C37	C	0.678423	-0.174870	-0.087416
C38	C	1.178423	0.325130	0.412584
C39	C	0.672490	-0.543159	-0.044750
C40	C	1.172490	-0.043159	0.455250
C41	C	0.671691	-0.625899	-0.050342
C42	C	1.171691	-0.125899	0.449658
C43	C	0.666418	-0.618595	0.101543
C44	C	1.166418	-0.118595	0.601543
C45	C	0.667212	-0.535858	0.107133
C46	C	1.167212	-0.035858	0.607133
C47	C	0.670252	-0.498145	0.033987
C48	C	1.170252	0.001855	0.533987
N49	N	0.673776	-0.379896	-0.025590
N50	N	1.173776	0.120104	0.474410
N51	N	0.671069	-0.413577	0.039710
N52	N	1.171069	0.086423	0.539710
C53	C	0.106017	0.174602	0.011894
C54	C	0.606017	0.674602	0.511894
C55	C	0.046615	0.173612	0.011832
C56	C	0.546615	0.673612	0.511832
O57	O	0.009927	0.234602	0.015978
O58	O	0.509927	0.734602	0.515978
N59	N	0.023921	0.100797	0.006917
N60	N	0.523921	0.600797	0.506917
C61	C	0.060631	0.028969	0.002072
C62	C	0.560631	0.528969	0.502072
O63	O	0.035873	-0.033057	-0.002114
O64	O	0.535873	0.466943	0.497886
C65	C	0.120031	0.029960	0.002139
C66	C	0.620031	0.529960	0.502139
C67	C	0.142722	0.102779	0.007046
C68	C	0.642722	0.602779	0.507046
C69	C	0.128709	0.247416	0.016801
C70	C	0.628709	0.747416	0.516801
C71	C	0.188106	0.248406	0.016862
C72	C	0.688106	0.748406	0.516862
C73	C	0.224811	0.176583	0.012014
C74	C	0.724811	0.676583	0.512014
C75	C	0.202119	0.103770	0.007107
C76	C	0.702119	0.603770	0.507107
C77	C	0.156739	-0.041867	-0.002700
C78	C	0.656739	0.458133	0.497300
C79	C	0.216143	-0.040869	-0.002631
C80	C	0.716143	0.459131	0.497369
C81	C	0.238834	0.031950	0.002276
C82	C	0.738834	0.531950	0.502276
C83	C	0.298222	0.032937	0.002319
C84	C	0.798222	0.532937	0.502319
N85	N	0.320917	0.105752	0.007235
N86	N	0.820917	0.605752	0.507235
C87	C	0.284211	0.177575	0.012082
C88	C	0.784211	0.677575	0.512082
C89	C	-0.064114	0.026891	0.001931
C90	C	0.435886	0.526891	0.501931
C91	C	-0.123512	0.025898	0.001857
C92	C	0.376488	0.525898	0.501857
C93	C	-0.137524	0.170542	0.011619
C94	C	0.362476	0.670542	0.511619
C95	C	-0.078124	0.171534	0.011687
C96	C	0.421876	0.671534	0.511687
C97	C	-0.041419	0.099706	0.006846
C98	C	0.458581	0.599706	0.506846
C99	C	0.408951	0.179649	0.012207
C100	C	0.908951	0.679649	0.512207
C101	C	0.468354	0.180633	0.012263
C102	C	0.968354	0.680633	0.512263
C103	C	0.482360	0.035990	0.002506
C104	C	0.982360	0.535990	0.502506
C105	C	0.422962	0.035006	0.002445
C106	C	0.922962	0.535006	0.502445
C107	C	0.386258	0.106842	0.007299
C108	C	0.886258	0.606842	0.507299
O109	O	0.334945	-0.028021	-0.001821
O110	O	0.834945	0.471979	0.498179
O111	O	0.308977	0.239591	0.016278
O112	O	0.808977	0.739591	0.516278
C113	C	0.776559	0.096655	0.006633
C114	C	1.276559	0.596655	0.506633
C115	C	0.839777	0.097722	0.006709
C116	C	1.339777	0.597722	0.506709
C117	C	0.667808	0.248331	0.016856
C118	C	1.167808	0.748331	0.516856
C119	C	0.668656	0.336385	0.022799
C120	C	1.168656	0.836385	0.522799
N121	N	0.664891	0.113726	0.224108
N122	N	1.164891	0.613726	0.724108
N123	N	0.679949	0.092800	-0.209976
N124	N	1.179949	0.592800	0.290024
C125	C	0.702271	0.061629	0.264291
C126	C	1.202271	0.561629	0.764291
C127	C	0.699239	0.065859	0.351983
C128	C	1.199239	0.565859	0.851983
C129	C	0.658829	0.122190	0.399490
C130	C	1.158829	0.622190	0.899490
C131	C	0.621445	0.174290	0.359301
C132	C	1.121445	0.674290	0.859301
C133	C	0.624475	0.170055	0.271610
C134	C	1.124475	0.670055	0.771610
C135	C	0.645595	0.140665	0.662145
C136	C	1.145595	0.640665	1.162145
C137	C	0.642569	0.144897	0.749841
C138	C	1.142569	0.644897	1.249841
C139	C	0.720362	0.036465	0.742517
C140	C	1.220362	0.536465	1.242517
C141	C	0.723391	0.032238	0.654825
C142	C	1.223391	0.532238	1.154825
C143	C	0.686005	0.084335	0.614643
C144	C	1.186005	0.584335	1.114643
N145	N	0.655730	0.126517	0.489125
N146	N	1.155730	0.626517	0.989125
N147	N	0.689102	0.080003	0.525009
N148	N	1.189102	0.580003	1.025009
H149	H	0.671314	-0.130918	0.128584
H150	H	1.171314	0.369082	0.628584
C151	C	0.256515	-0.119882	-0.007966
C152	C	0.756515	0.380118	0.492034
H153	H	0.234489	-0.163387	-0.010905
H154	H	0.734489	0.336613	0.489095
H155	H	0.278300	-0.120165	0.040434
H156	H	0.778300	0.379835	0.540434
H157	H	0.281656	-0.124843	-0.056734
H158	H	0.781656	0.375157	0.443266
H159	H	-0.141982	-0.033399	-0.002152
H160	H	0.358018	0.466601	0.497848
H161	H	0.680895	-0.144164	-0.146975
H162	H	1.180895	0.355836	0.353025
C163	C	-0.023743	-0.052125	-0.003413
C164	C	0.476257	0.447875	0.496587
H165	H	-0.045770	-0.095628	-0.006358
H166	H	0.454230	0.404372	0.493642
H167	H	-0.001958	-0.052415	0.044988
H168	H	0.498042	0.447585	0.544988
H169	H	0.001400	-0.057085	-0.052179
H170	H	0.501400	0.442915	0.447821
C171	C	0.598116	0.206862	0.802102
C172	C	1.098116	0.706862	1.302102
H173	H	0.601673	0.201927	0.860082
H174	H	1.101673	0.701927	1.360082
H175	H	0.560632	0.197821	0.787182
H176	H	1.060632	0.697821	1.287182
H177	H	0.604631	0.259071	0.791292
H178	H	1.104631	0.759071	1.291292
C179	C	0.493311	0.260737	0.017666
C180	C	0.993311	0.760737	0.517666
H181	H	0.462939	0.303369	0.020553
H182	H	0.962939	0.803369	0.520553
H183	H	0.517872	0.261793	-0.030687
H184	H	1.017872	0.761793	0.469313
H185	H	0.514510	0.266472	0.066481
H186	H	1.014510	0.766472	0.566481
H187	H	0.750800	-0.005951	0.775241
H188	H	1.250800	0.494049	1.275241
C189	C	0.368585	0.258666	0.017535
C190	C	0.868585	0.758666	0.517535
H191	H	0.390615	0.302167	0.020457
H192	H	0.890615	0.802167	0.520457
H193	H	0.343438	0.263641	0.066293
H194	H	0.843438	0.763641	0.566293
H195	H	0.346806	0.258942	-0.030876
H196	H	0.846806	0.758942	0.469124
C197	C	0.746722	-0.000338	0.212040
C198	C	1.246722	0.499662	0.712040
H199	H	0.768546	-0.030764	0.248534
H200	H	1.268546	0.469236	0.748534
H201	H	0.771521	0.026376	0.179737
H202	H	1.271521	0.526376	0.679737
H203	H	0.727518	-0.034870	0.175624
H204	H	1.227518	0.465130	0.675624
C205	C	0.680085	-0.307124	-0.179623
C206	C	1.180085	0.192876	0.320377
H207	H	0.679169	-0.361799	-0.172482
H208	H	1.179169	0.138201	0.327518
H209	H	0.714507	-0.301377	-0.210332
H210	H	1.214507	0.198623	0.289668
H211	H	0.648085	-0.288750	-0.209483
H212	H	1.148085	0.211250	0.290517
H213	H	0.206575	0.307702	0.020857
H214	H	0.706575	0.807702	0.520857
C215	C	0.674183	-0.675426	-0.136957
C216	C	1.174183	-0.175426	0.363043
H217	H	0.676121	-0.641119	-0.179719
H218	H	1.176121	-0.141119	0.320281
H219	H	0.640782	-0.701558	-0.141906
H220	H	1.140782	-0.201558	0.358094
H221	H	0.707202	-0.714150	-0.142684
H222	H	1.207202	-0.214150	0.357316
H223	H	0.663944	-0.649310	0.161094
H224	H	1.163944	-0.149310	0.661094
H225	H	0.098828	0.305906	0.020752
H226	H	0.598828	0.805906	0.520752
H227	H	-0.167420	0.229024	0.015570
H228	H	0.332580	0.729024	0.515570
C229	C	0.131791	-0.121968	-0.008086
C230	C	0.631791	0.378032	0.491914
H231	H	0.162166	-0.164593	-0.010951
H232	H	0.662166	0.335407	0.489049
H233	H	0.110590	-0.127720	-0.056892
H234	H	0.610590	0.372280	0.443108
H235	H	0.107233	-0.123016	0.040277
H236	H	0.607233	0.376984	0.540277
H237	H	0.669883	-0.281010	0.118429
H238	H	1.169883	0.218990	0.618429
H239	H	0.665403	-0.499211	0.171249
H240	H	1.165403	0.000789	0.671249
C241	C	0.398000	-0.045093	-0.002962
C242	C	0.898000	0.454907	0.497038
H243	H	0.428370	-0.087725	-0.005838
H244	H	0.928370	0.412275	0.494162
H245	H	0.376796	-0.050829	-0.051766
H246	H	0.876796	0.449171	0.448234
H247	H	0.373443	-0.046145	0.045402
H248	H	0.873443	0.453855	0.545402
C249	C	-0.053169	0.251634	0.017092
C250	C	0.446831	0.751634	0.517092
H251	H	-0.083541	0.294263	0.019973
H252	H	0.416459	0.794263	0.519973
H253	H	-0.028604	0.252690	-0.031257
H254	H	0.471396	0.752690	0.468743
H255	H	-0.031974	0.257372	0.065911
H256	H	0.468026	0.757372	0.565911
C257	C	0.522742	-0.043008	-0.002820
C258	C	1.022742	0.456992	0.497180
H259	H	0.561367	-0.031982	-0.002070
H260	H	1.061367	0.468018	0.497930
H261	H	0.517573	-0.075237	-0.053412
H262	H	1.017573	0.424763	0.446588
H263	H	0.514205	-0.070537	0.043757
H264	H	1.014205	0.429463	0.543757
C265	C	0.583360	0.227362	0.227405
C266	C	1.083360	0.727362	0.727405
H267	H	0.590948	0.216767	0.168376
H268	H	1.090948	0.716767	0.668376
H269	H	0.588879	0.280956	0.245336
H270	H	1.088879	0.780956	0.745336
H271	H	0.544882	0.219702	0.241222
H272	H	1.044882	0.719702	0.741222
C273	C	0.675824	-0.501683	-0.125207
C274	C	1.175824	-0.001683	0.374793
H275	H	0.677034	-0.540345	-0.172899
H276	H	1.177034	-0.040345	0.327101
H277	H	0.709452	-0.475869	-0.126611
H278	H	1.209452	0.024131	0.373389
H279	H	0.643030	-0.463251	-0.125757
H280	H	1.143030	0.036749	0.374243
H281	H	0.729677	0.023437	0.384699
H282	H	1.229677	0.523437	0.884699
H283	H	0.756296	-0.013631	0.616146
H284	H	1.256296	0.486369	1.116146
H285	H	0.615155	0.183086	0.629436
H286	H	1.115155	0.683086	1.129436
H287	H	0.588540	0.220154	0.397986
H288	H	1.088540	0.720154	0.897986
