data_functionalizedCrystal
_audit_creation_method	'MofGen! by Chris Wilmer'
_symmetry_space_group_name_H-M	'P1'
_symmetry_Int_Tables_number	1
_symmetry_cell_setting	triclinic
loop_
_symmetry_equiv_pos_as_xyz
  x,y,z
_cell_length_a	15.698487
_cell_length_b	15.698487
_cell_length_c	21.606444
_cell_angle_alpha	60.000496
_cell_angle_beta	60.001563
_cell_angle_gamma	90.005253
loop_
_atom_site_label
_atom_site_type_symbol
_atom_site_fract_x
_atom_site_fract_y
_atom_site_fract_z
Zr1	Zr	-0.111801	0.820629	0.677449
O2	O	-0.247815	0.862316	0.677446
O3	O	-0.070109	0.684614	0.677452
O4	O	-0.247826	0.684603	0.806570
O5	O	0.070091	1.002520	0.446474
O6	O	-0.247831	0.684604	0.908424
O7	O	-0.070098	0.862327	0.548327
O8	O	0.070072	0.684623	0.677454
O9	O	-0.247812	1.002501	0.677443
O10	O	-0.052328	0.775495	0.753463
O11	O	0.052298	0.880119	0.601438
O12	O	-0.156941	0.880106	0.753459
O13	O	-0.052315	0.984730	0.601435
Zr14	Zr	0.111776	1.044222	0.677449
Zr15	Zr	-0.111810	0.820630	0.839893
Zr16	Zr	0.111784	1.044221	0.515004
Zr17	Zr	-0.111796	1.044207	0.677445
Zr18	Zr	0.111771	0.820644	0.677453
O19	O	0.070084	1.180237	0.677446
O20	O	-0.247827	0.862318	0.908421
O21	O	0.070095	1.180235	0.446470
O22	O	0.247790	1.002535	0.677452
O23	O	-0.070120	0.684616	0.908427
O24	O	0.247802	1.002533	0.446477
O25	O	-0.070116	0.862330	0.908424
O26	O	0.247801	1.180248	0.548327
O27	O	0.247806	1.180247	0.446474
O28	O	0.070073	1.002524	0.806570
O29	O	-0.247818	1.002502	0.806565
O30	O	0.247793	0.862349	0.548333
O31	O	0.247787	0.862350	0.677454
O32	O	0.070066	0.684624	0.806576
O33	O	-0.070091	1.180226	0.548321
O34	O	-0.070097	1.180228	0.677443
O35	O	0.156916	0.984745	0.601438
O36	O	0.052290	0.880121	0.753463
O37	O	-0.052323	0.984732	0.753459
O38	O	0.052303	1.089355	0.601435
C39	C	-0.000019	0.652763	0.677454
C40	C	-0.000021	0.557849	0.677455
C41	C	-0.279668	0.932406	0.677444
C42	C	-0.374580	0.932400	0.677442
C43	C	-0.000003	0.384084	0.677440
C44	C	-0.000010	0.480782	0.677445
C45	C	-0.548366	0.932433	0.677457
C46	C	-0.451662	0.932412	0.677453
C47	C	0.279643	0.932445	0.677454
C48	C	0.374555	0.932451	0.677455
C49	C	-0.000002	0.932424	0.474255
C50	C	0.000001	0.932423	0.405294
C51	C	-0.000006	1.212087	0.677444
C52	C	-0.000004	1.307002	0.677442
C53	C	0.054604	0.877814	0.372899
C54	C	0.054605	0.877818	0.308101
C55	C	-0.000004	0.932426	0.275703
C56	C	-0.054609	0.987041	0.308100
C57	C	-0.054603	0.987043	0.372893
C58	C	-0.054632	0.987039	0.046799
C59	C	-0.054636	0.987031	-0.017996
C60	C	0.054576	0.877815	-0.017993
C61	C	0.054582	0.877816	0.046800
C62	C	-0.000018	0.932436	0.079188
C63	C	-0.000017	0.932432	0.149448
C64	C	-0.000012	0.932424	0.205449
C65	C	-0.000023	0.932427	0.880642
C66	C	-0.000026	0.932428	0.949604
C67	C	-0.279684	0.652746	0.880642
C68	C	-0.374602	0.557825	0.949604
C69	C	-0.000029	0.652765	0.880647
C70	C	-0.000035	0.557851	0.949610
C71	C	0.279653	0.932443	0.474260
C72	C	0.374569	0.932449	0.405300
C73	C	0.000004	1.212086	0.474251
C74	C	0.000010	1.307000	0.405287
C75	C	0.279659	1.212105	0.474255
C76	C	0.374577	1.307026	0.405294
C77	C	-0.279678	0.932408	0.880637
C78	C	-0.374594	0.932402	0.949597
C79	C	-0.473793	0.567855	0.981994
C80	C	-0.562988	0.478676	1.046801
C81	C	-0.552989	0.379467	1.079211
C82	C	-0.453787	0.369439	1.046818
C83	C	-0.364595	0.458618	0.982017
C84	C	-0.054656	0.458656	0.982003
C85	C	-0.054682	0.369465	1.046811
C86	C	-0.000080	0.379473	1.079220
C87	C	0.054543	0.478678	1.046824
C88	C	0.054562	0.567867	0.982022
C89	C	0.473761	0.987074	0.372909
C90	C	0.562953	0.987101	0.308104
C91	C	0.552951	0.932495	0.275697
C92	C	0.453748	0.877868	0.308091
C93	C	0.364558	0.877848	0.372889
C94	C	0.054622	1.406195	0.372901
C95	C	0.054623	1.495386	0.308111
C96	C	0.000018	1.485378	0.275704
C97	C	-0.054601	1.386172	0.308097
C98	C	-0.054608	1.296984	0.372890
C99	C	0.364545	1.406216	0.372899
C100	C	0.453722	1.495413	0.308093
C101	C	0.552931	1.485416	0.275687
C102	C	0.562961	1.386215	0.308083
C103	C	0.473785	1.297021	0.372884
C104	C	-0.364558	0.987013	0.981988
C105	C	-0.453733	0.987004	1.046792
C106	C	-0.552943	0.932390	1.079200
C107	C	-0.562977	0.877772	1.046806
C108	C	-0.473803	0.877776	0.982008
H109	H	0.099078	0.833351	0.399269
H110	H	-0.099066	1.031510	0.281713
F111	F	-0.112709	1.375538	0.273596
F112	F	0.258992	0.819699	0.407360
F113	F	-0.484459	0.673432	0.947518
F114	F	-0.112818	0.263893	1.081274
H115	H	-0.000104	0.306841	1.131985
F116	F	0.000036	1.580311	0.206744
H117	H	0.481926	1.031544	0.399285
H118	H	-0.099077	1.216218	0.399250
H119	H	0.283772	1.414376	0.399277
H120	H	0.445535	1.576178	0.281726
F121	F	0.668522	1.045242	0.273642
H122	H	0.098998	0.486811	1.073222
F123	F	0.443119	0.819756	0.273591
F124	F	0.647831	1.580356	0.206720
H125	H	0.099048	0.648633	0.955650
H126	H	-0.099107	1.031503	-0.044373
H127	H	0.625583	0.932520	0.222933
H128	H	0.099095	1.414363	0.399275
F129	F	0.668555	1.375592	0.273586
H130	H	-0.099054	1.031524	0.399258
F131	F	-0.112778	0.447982	0.947525
F132	F	0.112762	1.600957	0.273646
F133	F	0.484478	1.191457	0.407357
F134	F	0.112692	0.819688	-0.052471
H135	H	-0.625546	0.932396	1.131963
F136	F	-0.258979	1.045145	0.947510
F137	F	-0.668572	0.819659	1.081300
H138	H	-0.445543	1.031485	1.073156
H139	H	-0.481989	0.833307	0.955638
H140	H	0.099047	0.833346	0.073177
F141	F	-0.112745	1.045168	0.081263
F142	F	0.112731	0.819706	0.273620
H143	H	-0.625623	0.306861	1.131976
F144	F	-0.668555	0.489370	1.081261
H145	H	-0.283833	0.450437	0.955646
F146	F	-0.443162	0.263846	1.081316
