data_functionalizedCrystal
_audit_creation_method	'MofGen! by Chris Wilmer'
_symmetry_space_group_name_H-M	'P1'
_symmetry_Int_Tables_number	1
_symmetry_cell_setting	triclinic
loop_
_symmetry_equiv_pos_as_xyz
  x,y,z
_cell_length_a	13.897441
_cell_length_b	18.215407
_cell_length_c	18.215405
_cell_angle_alpha	89.974667
_cell_angle_beta	89.965178
_cell_angle_gamma	90.022034
loop_
_atom_site_label
_atom_site_type_symbol
_atom_site_fract_x
_atom_site_fract_y
_atom_site_fract_z
Zn1	Zn	-0.545386	-1.125088	-0.292952
Zn2	Zn	-0.212053	-0.791755	0.040381
Zn3	Zn	0.121280	-0.458421	0.373715
Zn4	Zn	-0.384076	-1.124992	-0.416032
Zn5	Zn	-0.050742	-0.791658	-0.082699
Zn6	Zn	0.282591	-0.458325	0.250634
Zn7	Zn	-0.384101	-1.002016	-0.292985
Zn8	Zn	-0.050768	-0.668682	0.040348
Zn9	Zn	0.282566	-0.335349	0.373681
Zn10	Zn	-0.545325	-1.001986	-0.415982
Zn11	Zn	-0.211991	-0.668653	-0.082649
Zn12	Zn	0.121342	-0.335320	0.250684
O13	O	-0.464722	-1.063520	-0.354488
O14	O	-0.131389	-0.730187	-0.021155
O15	O	0.201945	-0.396854	0.312179
O16	O	-0.524003	-1.228059	-0.309286
O17	O	-0.190670	-0.894726	0.024047
O18	O	0.142663	-0.561393	0.357381
O19	O	-0.249097	-1.108651	-0.399745
O20	O	0.084236	-0.775317	-0.066412
O21	O	0.417569	-0.441984	0.266922
O22	O	-0.405532	-1.018394	-0.189997
O23	O	-0.072199	-0.685061	0.143337
O24	O	0.261134	-0.351728	0.476670
O25	O	-0.405489	-1.227989	-0.399713
O26	O	-0.072156	-0.894655	-0.066379
O27	O	0.261177	-0.561322	0.266954
O28	O	-0.524028	-1.108815	-0.189972
O29	O	-0.190694	-0.775481	0.143361
O30	O	0.142639	-0.442148	0.476695
O31	O	-0.249116	-1.018301	-0.309343
O32	O	0.084217	-0.684967	0.023991
O33	O	0.417551	-0.351634	0.357324
O34	O	-0.405472	-0.899028	-0.309294
O35	O	-0.072139	-0.565694	0.024039
O36	O	0.261194	-0.232361	0.357373
O37	O	-0.680315	-1.018344	-0.399627
O38	O	-0.346981	-0.685011	-0.066294
O39	O	-0.013648	-0.351677	0.267039
O40	O	-0.523923	-0.899006	-0.399659
O41	O	-0.190590	-0.565673	-0.066326
O42	O	0.142744	-0.232339	0.267007
O43	O	-0.680360	-1.108786	-0.309237
O44	O	-0.347027	-0.775453	0.024096
O45	O	-0.013693	-0.442120	0.357429
O46	O	-0.405430	-1.108622	-0.519010
O47	O	-0.072096	-0.775289	-0.185677
O48	O	0.261237	-0.441955	0.147657
O49	O	-0.523898	-1.018251	-0.518973
O50	O	-0.190565	-0.684917	-0.185640
O51	O	0.142768	-0.351584	0.147693
C52	C	-0.464694	-0.872314	-0.354475
C53	C	-0.131361	-0.538981	-0.021142
C54	C	0.201972	-0.205647	0.312191
C55	C	-0.464705	-0.790515	-0.354488
C56	C	-0.131372	-0.457182	-0.021154
C57	C	0.201961	-0.123849	0.312179
C58	C	-0.716315	-1.063573	-0.354423
C59	C	-0.382982	-0.730239	-0.021090
C60	C	-0.049648	-0.396906	0.312244
C61	C	-0.823529	-1.063595	-0.354395
C62	C	-0.490196	-0.730262	-0.021062
C63	C	-0.156862	-0.396928	0.312271
C64	C	-0.464676	-1.063443	-0.545694
C65	C	-0.131342	-0.730109	-0.212361
C66	C	0.201991	-0.396776	0.120972
C67	C	-0.464688	-1.063477	-0.627493
C68	C	-0.131355	-0.730143	-0.294160
C69	C	0.201979	-0.396810	0.039173
C70	C	-1.019824	-1.063615	-0.354345
C71	C	-0.686491	-0.730282	-0.021012
C72	C	-0.353158	-0.396948	0.312321
C73	C	-0.910592	-1.063602	-0.354375
C74	C	-0.577258	-0.730268	-0.021042
C75	C	-0.243925	-0.396935	0.312291
C76	C	-0.214108	-1.063511	-0.354500
C77	C	0.119226	-0.730177	-0.021166
C78	C	0.452559	-0.396844	0.312167
C79	C	-0.106894	-1.063631	-0.354320
C80	C	0.226439	-0.730298	-0.020987
C81	C	0.559772	-0.396964	0.312347
C82	C	-0.464750	-1.255473	-0.354501
C83	C	-0.131417	-0.922140	-0.021168
C84	C	0.201916	-0.588807	0.312165
C85	C	-0.464762	-1.337272	-0.354507
C86	C	-0.131429	-1.003939	-0.021173
C87	C	0.201904	-0.670606	0.312160
C88	C	-0.526305	-0.602329	-0.401615
C89	C	-0.192972	-0.268996	-0.068282
C90	C	0.140362	0.064337	0.265052
C91	C	-0.526317	-0.525471	-0.401617
C92	C	-0.192984	-0.192137	-0.068284
C93	C	0.140350	0.141196	0.265049
C94	C	-0.403160	-0.525464	-0.307374
C95	C	-0.069827	-0.192130	0.025959
C96	C	0.263507	0.141203	0.359292
C97	C	-0.403154	-0.602321	-0.307369
C98	C	-0.069820	-0.268988	0.025964
C99	C	0.263513	0.064346	0.359298
C100	C	-0.464725	-0.640752	-0.354493
C101	C	-0.131391	-0.307418	-0.021160
C102	C	0.201942	0.025915	0.312173
C103	C	-0.464743	-0.487036	-0.354501
C104	C	-0.131410	-0.153702	-0.021168
C105	C	0.201924	0.179631	0.312166
C106	C	-0.464756	-0.403702	-0.354503
C107	C	-0.131422	-0.070369	-0.021170
C108	C	0.201911	0.262965	0.312163
C109	C	-0.464714	-0.724091	-0.354490
C110	C	-0.131380	-0.390757	-0.021157
C111	C	0.201953	-0.057424	0.312176
C112	C	-0.403115	-1.110644	-0.815682
C113	C	-0.069781	-0.777310	-0.482348
C114	C	0.263552	-0.443977	-0.149015
C115	C	-0.403138	-1.110677	-0.892541
C116	C	-0.069805	-0.777343	-0.559207
C117	C	0.263529	-0.444010	-0.225874
C118	C	-0.526399	-1.016491	-0.892542
C119	C	-0.193065	-0.683158	-0.559209
C120	C	0.140268	-0.349825	-0.225875
C121	C	-0.526379	-1.016463	-0.815685
C122	C	-0.193046	-0.683129	-0.482351
C123	C	0.140287	-0.349796	-0.149018
C124	C	-0.464732	-1.063538	-0.777257
C125	C	-0.131399	-0.730204	-0.443923
C126	C	0.201935	-0.396871	-0.110590
C127	C	-0.464775	-1.063599	-0.930973
C128	C	-0.131441	-0.730266	-0.597639
C129	C	0.201892	-0.396933	-0.264306
C130	C	-0.464800	-1.063635	-1.014306
C131	C	-0.131467	-0.730301	-0.680973
C132	C	0.201866	-0.396968	-0.347640
C133	C	-0.464707	-1.063504	-0.693918
C134	C	-0.131374	-0.730170	-0.360584
C135	C	0.201959	-0.396837	-0.027251
C136	C	-0.464790	-1.063619	-0.162535
C137	C	-0.131456	-0.730285	0.170798
C138	C	0.201877	-0.396952	0.504132
C139	C	-0.464819	-1.063660	-0.080736
C140	C	-0.131485	-0.730327	0.252597
C141	C	0.201848	-0.396994	0.585931
H142	H	-0.576463	-0.494190	-0.439987
H143	H	-0.243130	-0.160857	-0.106654
H144	H	0.090203	0.172476	0.226679
O145	O	-0.592846	-0.965652	-0.774238
O146	O	-0.259512	-0.632319	-0.440905
O147	O	0.073821	-0.298986	-0.107571
H148	H	-0.582483	-0.973549	-0.714339
H149	H	-0.249149	-0.640216	-0.381005
H150	H	0.084184	-0.306882	-0.047672
O151	O	-0.336730	-0.643765	-0.256539
O152	O	-0.003397	-0.310432	0.076794
O153	O	0.329936	0.022902	0.410128
H154	H	-0.347080	-0.703665	-0.264447
H155	H	-0.013747	-0.370331	0.068887
H156	H	0.319586	-0.036998	0.402220
O157	O	-0.592721	-0.643784	-0.452430
O158	O	-0.259388	-0.310450	-0.119097
O159	O	0.073945	0.022883	0.214236
H160	H	-0.635552	-0.604150	-0.485191
H161	H	-0.302218	-0.270817	-0.151858
H162	H	0.031115	0.062516	0.181476
H163	H	-0.353030	-0.494164	-0.269008
H164	H	-0.019696	-0.160830	0.064325
H165	H	0.313637	0.172503	0.397658
H166	H	-0.352919	-1.148976	-0.784395
H167	H	-0.019586	-0.815643	-0.451062
H168	H	0.313748	-0.482309	-0.117729
H169	H	-0.352965	-1.149036	-0.923823
H170	H	-0.019631	-0.815703	-0.590490
H171	H	0.313702	-0.482369	-0.257156
O172	O	-0.592870	-0.965704	-0.933988
O173	O	-0.259537	-0.632371	-0.600655
O174	O	0.073797	-0.299038	-0.267322
H175	H	-0.582522	-0.973628	-0.993888
H176	H	-0.249188	-0.640295	-0.660555
H177	H	0.084145	-0.306962	-0.327221
