data_functionalizedCrystal
_audit_creation_method	'MofGen! by Chris Wilmer'
_symmetry_space_group_name_H-M	'P1'
_symmetry_Int_Tables_number	1
_symmetry_cell_setting	triclinic
loop_
_symmetry_equiv_pos_as_xyz
  x,y,z
_cell_length_a	19.288840
_cell_length_b	16.109301
_cell_length_c	18.366186
_cell_angle_alpha	89.992337
_cell_angle_beta	89.983729
_cell_angle_gamma	83.293748
loop_
_atom_site_label
_atom_site_type_symbol
_atom_site_fract_x
_atom_site_fract_y
_atom_site_fract_z
O1	O	0.921611	0.103617	-0.060674
O2	O	0.719382	0.117629	-0.060649
O3	O	0.826052	-0.010428	-0.060654
O4	O	0.814941	0.231674	-0.060668
O5	O	0.826034	-0.010434	0.060445
O6	O	0.719363	0.117623	0.060451
O7	O	0.921593	0.103610	0.060426
Zn8	Zn	0.820475	0.110616	0.079665
Zn9	Zn	0.820499	0.110624	-0.079888
O10	O	0.814923	0.231667	0.060432
C11	C	0.693495	0.117179	-0.000096
C12	C	0.616387	0.115836	-0.000086
C13	C	0.580192	0.115194	-0.066099
C14	C	0.507742	0.113923	-0.066108
C15	C	0.471492	0.113277	-0.000100
C16	C	0.507695	0.113923	0.065922
C17	C	0.580143	0.115203	0.065929
C18	C	0.362035	0.062549	0.050464
C19	C	0.289590	0.061264	0.050455
C20	C	0.248039	0.109334	-0.000119
C21	C	0.278944	0.158677	-0.050694
C22	C	0.351391	0.159957	-0.050687
C23	C	0.392934	0.111890	-0.000100
C24	C	0.133285	0.107315	-0.066146
C25	C	0.060833	0.106049	-0.066152
C26	C	0.060789	0.106041	0.065880
C27	C	0.133238	0.107315	0.065884
C28	C	0.169482	0.107948	-0.000131
C29	C	0.825593	-0.041404	-0.000104
C30	C	0.824243	-0.133694	-0.000103
C31	C	0.884402	-0.356179	-0.000122
C32	C	0.883129	-0.442895	-0.000128
C33	C	0.756568	-0.422574	-0.000109
C34	C	0.757842	-0.335860	-0.000109
C35	C	0.821761	-0.302665	-0.000111
C36	C	0.819214	-0.476095	-0.000118
C37	C	0.817833	-0.570116	-0.000124
C38	C	0.823142	-0.208638	-0.000106
C39	C	0.947480	0.104061	-0.000129
C40	C	1.024588	0.105404	-0.000143
N41	N	0.820464	0.110610	0.188557
C42	C	0.815382	0.262644	-0.000120
C43	C	0.816731	0.354934	-0.000126
N44	N	0.820516	0.110624	-0.188779
C45	C	0.867713	0.053934	0.226654
C46	C	0.867718	0.053930	0.302882
C47	C	0.820480	0.110617	0.341009
C48	C	0.773222	0.167297	0.302902
C49	C	0.773214	0.167293	0.226676
C50	C	0.811362	0.186371	0.461766
C51	C	0.811375	0.186376	0.537991
C52	C	0.820499	0.110627	0.576117
C53	C	0.829626	0.034870	0.538008
C54	C	0.829618	0.034867	0.461782
C55	C	0.820482	0.110626	0.423664
C56	C	0.867756	0.053942	0.696870
C57	C	0.867755	0.053938	0.773099
C58	C	0.773263	0.167311	0.773117
C59	C	0.773260	0.167309	0.696890
C60	C	0.820510	0.110625	0.658770
H61	H	0.031364	0.105531	-0.119910
H62	H	0.803948	0.248061	0.569013
Cl63	Cl	0.676217	-0.464311	-0.000106
H64	H	0.706829	-0.292286	-0.000102
H65	H	0.934137	-0.486463	-0.000138
Cl66	Cl	0.799955	0.281610	0.413845
H67	H	0.478175	0.113399	0.119666
Cl68	Cl	0.015223	0.105237	0.148862
H69	H	0.936449	-0.329155	-0.000126
H70	H	0.906185	0.007777	0.195620
Cl71	Cl	0.927123	-0.017325	0.350785
H72	H	0.837048	-0.026817	0.430757
Cl73	Cl	0.462230	0.113115	-0.149102
Cl74	Cl	0.178744	0.108117	0.148877
H75	H	0.837056	-0.026812	0.569049
Cl76	Cl	0.713811	0.238550	0.178778
H77	H	0.906228	0.007784	0.665832
H78	H	0.609612	0.115726	0.119686
H79	H	0.734759	0.213450	0.333949
H80	H	0.395861	0.023403	0.091650
H81	H	0.906229	0.007781	0.804119
H82	H	0.245113	0.197823	-0.091873
H83	H	0.734798	0.213463	0.804160
H84	H	0.734788	0.213463	0.665868
H85	H	0.609697	0.115710	-0.119854
Cl86	Cl	0.250743	-0.000746	0.114049
H87	H	0.162795	0.107839	-0.119899
Cl88	Cl	0.390241	0.221989	-0.114262
