data_functionalizedCrystal
_audit_creation_method	'MofGen! by Chris Wilmer'
_symmetry_space_group_name_H-M	'P1'
_symmetry_Int_Tables_number	1
_symmetry_cell_setting	triclinic
loop_
_symmetry_equiv_pos_as_xyz
  x,y,z
_cell_length_a	11.792254
_cell_length_b	11.792241
_cell_length_c	14.586319
_cell_angle_alpha	90.000319
_cell_angle_beta	90.005826
_cell_angle_gamma	84.196007
loop_
_atom_site_label
_atom_site_type_symbol
_atom_site_fract_x
_atom_site_fract_y
_atom_site_fract_z
O1	O	1.506903	0.155628	0.076240
O2	O	1.176564	0.171646	0.076242
O3	O	1.349750	-0.001533	0.076235
O4	O	1.333717	0.328808	0.076247
O5	O	1.349729	-0.001523	-0.076246
O6	O	1.176543	0.171657	-0.076239
O7	O	1.506882	0.155639	-0.076241
Cu8	Cu	1.341711	0.163649	-0.090163
Cu9	Cu	1.341736	0.163636	0.090164
O10	O	1.333696	0.328818	-0.076233
C11	C	1.134263	0.170642	0.000002
C12	C	1.008250	0.167622	0.000002
C13	C	0.905913	0.165168	0.000006
C14	C	0.777527	0.162100	0.000007
C15	C	1.348732	-0.043819	-0.000006
C16	C	1.345718	-0.169832	-0.000005
C17	C	1.340175	-0.400545	0.000011
C18	C	1.343255	-0.272160	0.000002
C19	C	1.549183	0.156643	0.000001
C20	C	1.675196	0.159663	0.000007
C21	C	1.334714	0.371104	0.000009
C22	C	1.337728	0.497118	0.000014
N23	N	1.341701	0.163656	-0.216994
C24	C	1.410979	0.232946	-0.451998
C25	C	1.410991	0.232938	-0.547979
C26	C	1.272473	0.094322	-0.547994
C27	C	1.272468	0.094325	-0.452014
C28	C	1.341719	0.163643	-0.404019
C29	C	1.341736	0.163633	-0.595980
C30	C	1.341748	0.163624	-0.700047
C31	C	1.341709	0.163651	-0.299945
N32	N	1.341754	0.163620	0.216995
H33	H	1.467368	0.289389	-0.412923
C34	C	1.196275	0.018104	-0.600787
H35	H	1.155027	-0.023172	-0.558463
H36	H	1.144334	0.064278	-0.638228
H37	H	1.242455	-0.033830	-0.638230
C38	C	1.487169	0.309175	-0.600757
H39	H	1.477265	0.299240	-0.664793
H40	H	1.466553	0.386692	-0.585031
H41	H	1.564699	0.288607	-0.585016
H42	H	1.216067	0.037885	-0.412949
