data_functionalizedCrystal
_audit_creation_method	'MofGen! by Chris Wilmer'
_symmetry_space_group_name_H-M	'P1'
_symmetry_Int_Tables_number	1
_symmetry_cell_setting	triclinic
loop_
_symmetry_equiv_pos_as_xyz
  x,y,z
_cell_length_a	17.077404
_cell_length_b	19.077068
_cell_length_c	17.077396
_cell_angle_alpha	87.732878
_cell_angle_beta	90.019501
_cell_angle_gamma	92.327269
loop_
_atom_site_label
_atom_site_type_symbol
_atom_site_fract_x
_atom_site_fract_y
_atom_site_fract_z
Zn1	Zn	1.187475	-0.280197	0.456376
Zn2	Zn	1.687475	0.219803	0.956376
Zn3	Zn	1.182097	-0.397901	0.330375
Zn4	Zn	1.682097	0.102099	0.830375
Zn5	Zn	1.056205	-0.280222	0.325125
Zn6	Zn	1.556205	0.219778	0.825125
Zn7	Zn	1.050892	-0.397859	0.461596
Zn8	Zn	1.550892	0.102141	0.961596
O9	O	1.119167	-0.339045	0.393368
O10	O	1.619167	0.160955	0.893368
O11	O	1.296608	-0.295818	0.439674
O12	O	1.796608	0.204182	0.939674
O13	O	1.165371	-0.382318	0.219833
O14	O	1.665371	0.117682	0.719833
O15	O	1.078093	-0.181727	0.338154
O16	O	1.578093	0.318273	0.838154
O17	O	1.292657	-0.382294	0.347101
O18	O	1.792657	0.117706	0.847101
O19	O	1.174536	-0.181709	0.434583
O20	O	1.674536	0.318291	0.934583
O21	O	1.072878	-0.295860	0.215976
O22	O	1.572878	0.204140	0.715976
O23	O	0.945654	-0.295819	0.343216
O24	O	1.445654	0.204181	0.843216
O25	O	1.069036	-0.382223	0.570750
O26	O	1.569036	0.117777	1.070750
O27	O	0.941750	-0.382247	0.443481
O28	O	1.441750	0.117753	0.943481
O29	O	1.169383	-0.295777	0.566914
O30	O	1.669383	0.204223	1.066914
O31	O	1.160218	-0.496386	0.352163
O32	O	1.660218	0.003614	0.852163
O33	O	1.063822	-0.496356	0.448571
O34	O	1.563822	0.003644	0.948571
C35	C	0.915220	-0.339032	0.393346
C36	C	1.415220	0.160968	0.893346
C37	C	0.827970	-0.339043	0.393356
C38	C	1.327970	0.160957	0.893356
C39	C	1.110881	-0.521909	0.401521
C40	C	1.610881	-0.021909	0.901521
C41	C	1.107408	-0.600139	0.405035
C42	C	1.607408	-0.100139	0.905035
C43	C	0.784964	-0.384114	0.445486
C44	C	1.284964	0.115886	0.945486
C45	C	0.702984	-0.384116	0.445499
C46	C	1.202984	0.115884	0.945499
C47	C	0.664010	-0.339050	0.393376
C48	C	1.164010	0.160950	0.893376
C49	C	0.707021	-0.293974	0.341243
C50	C	1.207021	0.206026	0.841243
C51	C	0.789000	-0.293969	0.341235
C52	C	1.289000	0.206031	0.841235
C53	C	0.536151	-0.293988	0.341263
C54	C	1.036151	0.206012	0.841263
C55	C	0.454166	-0.293993	0.341270
C56	C	0.954166	0.206007	0.841270
C57	C	0.450134	-0.384134	0.445526
C58	C	0.950134	0.115866	0.945526
C59	C	0.532113	-0.384130	0.445518
C60	C	1.032113	0.115870	0.945518
C61	C	0.575119	-0.339055	0.393384
C62	C	1.075119	0.160945	0.893384
C63	C	1.156004	-0.636884	0.356533
C64	C	1.656004	-0.136884	0.856533
C65	C	1.152742	-0.710389	0.359843
C66	C	1.652742	-0.210389	0.859843
C67	C	1.100880	-0.747148	0.411651
C68	C	1.600880	-0.247148	0.911651
C69	C	1.052283	-0.710398	0.460158
C70	C	1.552283	-0.210398	0.960158
C71	C	1.055549	-0.636894	0.456852
C72	C	1.555549	-0.136894	0.956852
C73	C	1.085729	-0.966982	0.426921
C74	C	1.585729	-0.466982	0.926921
C75	C	1.082465	-1.040491	0.430222
C76	C	1.582465	-0.540491	0.930222
C77	C	1.182926	-1.040478	0.329907
C78	C	1.682926	-0.540478	0.829907
C79	C	1.186184	-0.966973	0.326602
C80	C	1.686184	-0.466973	0.826602
C81	C	1.137590	-0.930229	0.375112
C82	C	1.637590	-0.430229	0.875112
N83	N	1.097543	-0.822282	0.415033
N84	N	1.597543	-0.322282	0.915033
N85	N	1.140931	-0.855096	0.371733
N86	N	1.640931	-0.355096	0.871733
C87	C	1.323911	-0.339058	0.393391
C88	C	1.823911	0.160942	0.893391
C89	C	1.411160	-0.339064	0.393400
C90	C	1.911160	0.160936	0.893400
C91	C	1.119217	-0.338993	0.598110
C92	C	1.619217	0.161007	1.098110
C93	C	1.119238	-0.338971	0.685359
C94	C	1.619238	0.161029	1.185359
C95	C	1.127507	-0.155467	0.385201
C96	C	1.627507	0.344533	0.885201
C97	C	1.131061	-0.077237	0.381720
C98	C	1.631061	0.422763	0.881720
C99	C	1.119165	-0.339046	0.189420
C100	C	1.619165	0.160954	0.689420
C101	C	1.119305	-0.338869	0.102163
C102	C	1.619305	0.161131	0.602163
C103	C	1.171491	-0.293955	0.724353
C104	C	1.671491	0.206045	1.224353
C105	C	1.171501	-0.293931	0.806332
C106	C	1.671501	0.206069	1.306332
C107	C	1.119262	-0.338928	0.849316
C108	C	1.619262	0.161072	1.349316
C109	C	1.067004	-0.383946	0.810317
C110	C	1.567004	0.116054	1.310317
C111	C	1.066990	-0.383965	0.728339
C112	C	1.566990	0.116035	1.228339
C113	C	1.067038	-0.383904	0.981185
C114	C	1.567038	0.116096	1.481185
C115	C	1.067052	-0.383885	1.063169
C116	C	1.567052	0.116115	1.563169
C117	C	1.171549	-0.293870	1.059179
C118	C	1.671549	0.206130	1.559179
C119	C	1.171535	-0.293889	0.977201
C120	C	1.671535	0.206111	1.477201
C121	C	1.119277	-0.338908	0.938207
C122	C	1.619277	0.161092	1.438207
H123	H	0.816690	-0.420815	0.487928
H124	H	1.316690	0.079185	0.987928
H125	H	1.024472	-0.420552	0.949438
H126	H	1.524472	0.079448	1.449438
O127	O	1.026520	-1.080146	0.486095
O128	O	1.526520	-0.580146	0.986095
H129	H	1.060141	-1.113595	0.527558
H130	H	1.560141	-0.613595	1.027558
H131	H	1.214077	-0.257253	0.942205
H132	H	1.714077	0.242747	1.442205
H133	H	1.024468	-0.420581	0.845321
H134	H	1.524468	0.079419	1.345321
O135	O	1.010629	-0.432519	0.686281
O136	O	1.510629	0.067481	1.186281
H137	H	1.019388	-0.424967	0.622055
H138	H	1.519388	0.075033	1.122055
H139	H	1.010059	-0.740332	0.502345
H140	H	1.510059	-0.240332	1.002345
H141	H	0.422436	-0.257288	0.298836
H142	H	0.922436	0.242712	0.798836
O143	O	0.656590	-0.432862	0.501580
O144	O	1.156590	0.067138	1.001580
H145	H	0.697461	-0.464253	0.537762
H146	H	1.197461	0.035747	1.037762
H147	H	1.214052	-0.257276	0.838078
H148	H	1.714052	0.242724	1.338078
O149	O	1.227908	-0.245304	1.101229
O150	O	1.727908	0.254696	1.601229
H151	H	1.219135	-0.252841	1.165454
H152	H	1.719135	0.247159	1.665454
O153	O	1.211948	-0.597235	0.300662
O154	O	1.711948	-0.097235	0.800662
H155	H	1.197904	-0.611392	0.239676
H156	H	1.697904	-0.111392	0.739676
O157	O	1.010701	-0.432404	1.109537
O158	O	1.510701	0.067596	1.609537
H159	H	1.021632	-0.487652	1.096265
H160	H	1.521632	0.012348	1.596265
O161	O	0.574154	-0.432732	0.501736
O162	O	1.074154	0.067268	1.001736
H163	H	0.530479	-0.464071	0.537996
H164	H	1.030479	0.035929	1.037996
H165	H	0.571164	-0.257277	0.298816
H166	H	1.071164	0.242723	0.798816
H167	H	0.415115	-0.420834	0.487978
H168	H	0.915115	0.079166	0.987978
H169	H	0.675282	-0.257277	0.298808
H170	H	1.175282	0.242723	0.798808
O171	O	1.227841	-0.245427	0.677995
O172	O	1.727841	0.254573	1.177995
H173	H	1.194332	-0.209628	0.639040
H174	H	1.694332	0.290372	1.139040
H175	H	1.192313	-0.740304	0.320346
H176	H	1.692313	-0.240304	0.820346
O177	O	1.242128	-0.927325	0.270731
O178	O	1.742128	-0.427325	0.770731
H179	H	1.275379	-0.965226	0.237565
H180	H	1.775379	-0.465226	0.737565
H181	H	1.015978	-0.606976	0.496348
H182	H	1.515978	-0.106976	0.996348
O183	O	0.835391	-0.245366	0.285001
O184	O	1.335391	0.254634	0.785001
H185	H	0.794519	-0.214036	0.248750
H186	H	1.294519	0.285964	0.748750
O187	O	1.235360	-1.080107	0.277610
O188	O	1.735360	-0.580107	0.777610
H189	H	1.224390	-1.137394	0.288620
H190	H	1.724390	-0.637394	0.788620
O191	O	1.033295	-0.927355	0.479216
O192	O	1.533295	-0.427355	0.979216
H193	H	0.996672	-0.965266	0.515781
H194	H	1.496672	-0.465266	1.015781
