data_functionalizedCrystal
_audit_creation_method	'MofGen! by Chris Wilmer'
_symmetry_space_group_name_H-M	'P1'
_symmetry_Int_Tables_number	1
_symmetry_cell_setting	triclinic
loop_
_symmetry_equiv_pos_as_xyz
  x,y,z
_cell_length_a	17.640112
_cell_length_b	13.897448
_cell_length_c	13.897433
_cell_angle_alpha	90.068930
_cell_angle_beta	101.155478
_cell_angle_gamma	78.756147
loop_
_atom_site_label
_atom_site_type_symbol
_atom_site_fract_x
_atom_site_fract_y
_atom_site_fract_z
Zn1	Zn	1.208442	0.085372	-0.247746
Zn2	Zn	1.541775	0.418705	0.085588
Zn3	Zn	1.875109	0.752039	0.418921
Zn4	Zn	1.208287	0.246847	-0.086492
Zn5	Zn	1.541620	0.580181	0.246841
Zn6	Zn	1.874954	0.913514	0.580174
Zn7	Zn	1.076215	0.118161	-0.119033
Zn8	Zn	1.409548	0.451494	0.214300
Zn9	Zn	1.742881	0.784828	0.547634
Zn10	Zn	1.076260	0.279247	-0.280265
Zn11	Zn	1.409593	0.612581	0.053068
Zn12	Zn	1.742926	0.945914	0.386402
O13	O	1.142301	0.182407	-0.183384
O14	O	1.475634	0.515740	0.149949
O15	O	1.808967	0.849074	0.483283
O16	O	1.319013	0.079510	-0.199127
O17	O	1.652346	0.412844	0.134206
O18	O	1.985680	0.746177	0.467540
O19	O	1.190684	0.229940	0.044152
O20	O	1.524017	0.563273	0.377486
O21	O	1.857350	0.896606	0.710819
O22	O	1.093801	-0.021182	-0.136116
O23	O	1.427135	0.312152	0.197218
O24	O	1.760468	0.645485	0.530551
O25	O	1.318899	0.198146	-0.080655
O26	O	1.652232	0.531479	0.252678
O27	O	1.985566	0.864812	0.586012
O28	O	1.190948	-0.045271	-0.230680
O29	O	1.524281	0.288062	0.102653
O30	O	1.857615	0.621395	0.435986
O31	O	1.093651	0.135394	0.020245
O32	O	1.426984	0.468728	0.353578
O33	O	1.760317	0.802061	0.686912
O34	O	0.965629	0.166811	-0.167649
O35	O	1.298963	0.500145	0.165685
O36	O	1.632296	0.833478	0.499018
O37	O	1.093878	0.253366	-0.410913
O38	O	1.427211	0.586700	-0.077579
O39	O	1.760544	0.920033	0.255754
O40	O	0.965662	0.285161	-0.286105
O41	O	1.298995	0.618494	0.047228
O42	O	1.632329	0.951827	0.380562
O43	O	1.190992	0.110927	-0.387021
O44	O	1.524325	0.444261	-0.053687
O45	O	1.857658	0.777594	0.279646
O46	O	1.190727	0.386138	-0.112188
O47	O	1.524060	0.719472	0.221146
O48	O	1.857394	1.052805	0.554479
O49	O	1.093727	0.409942	-0.254552
O50	O	1.427060	0.743276	0.078782
O51	O	1.760394	1.076609	0.412115
C52	C	0.936970	0.233060	-0.233937
C53	C	1.270304	0.566394	0.099396
C54	C	1.603637	0.899727	0.432729
C55	C	0.849129	0.254753	-0.255587
C56	C	1.182463	0.588087	0.077746
C57	C	1.515796	0.921420	0.411080
C58	C	0.560035	0.017591	-0.018921
C59	C	0.893369	0.350924	0.314413
C60	C	1.226702	0.684257	0.647746
C61	C	0.477495	0.037994	-0.039277
C62	C	0.810829	0.371328	0.294056
C63	C	1.144162	0.704661	0.627390
C64	C	0.477584	0.161401	-0.162413
C65	C	0.810917	0.494735	0.170920
C66	C	1.144250	0.828068	0.504254
C67	C	0.560126	0.141005	-0.142070
C68	C	0.893459	0.474338	0.191263
C69	C	1.226792	0.807672	0.524596
C70	C	0.601345	0.069099	-0.070322
C71	C	0.934678	0.402433	0.263011
C72	C	1.268012	0.735766	0.596344
C73	C	0.601435	0.192514	-0.193472
C74	C	0.934768	0.525847	0.139861
C75	C	1.268102	0.859180	0.473195
C76	C	0.683970	0.172122	-0.173127
C77	C	1.017303	0.505456	0.160206
C78	C	1.350636	0.838789	0.493539
C79	C	0.725195	0.100222	-0.101380
C80	C	1.058528	0.433555	0.231953
C81	C	1.391862	0.766889	0.565286
C82	C	0.683880	0.048708	-0.049977
C83	C	1.017213	0.382041	0.283356
C84	C	1.350546	0.715375	0.616689
C85	C	0.560214	0.264424	-0.265215
C86	C	0.893548	0.597757	0.068118
C87	C	1.226881	0.931090	0.401452
C88	C	0.601524	0.315932	-0.316617
C89	C	0.934857	0.649266	0.016717
C90	C	1.268190	0.982599	0.350050
C91	C	0.684060	0.295536	-0.296277
C92	C	1.017393	0.628870	0.037056
C93	C	1.350727	0.962203	0.370390
C94	C	0.725285	0.223636	-0.224530
C95	C	1.058618	0.556970	0.108803
C96	C	1.391952	0.890303	0.442136
C97	C	0.725375	0.347050	-0.347680
C98	C	1.058709	0.680384	-0.014347
C99	C	1.392042	1.013717	0.318987
C100	C	0.807910	0.326659	-0.327335
C101	C	1.141243	0.659992	0.005998
C102	C	1.474577	0.993326	0.339332
C103	C	0.807820	0.203245	-0.204185
C104	C	1.141153	0.536578	0.129148
C105	C	1.474486	0.869911	0.462481
C106	C	1.142236	0.433037	-0.183383
C107	C	1.475570	0.766371	0.149950
C108	C	1.808903	1.099704	0.483283
C109	C	1.142281	0.540240	-0.183397
C110	C	1.475615	0.873573	0.149936
C111	C	1.808948	1.206907	0.483269
C112	C	1.142359	0.736516	-0.183448
C113	C	1.475692	1.069849	0.149886
C114	C	1.809026	1.403183	0.483219
C115	C	1.142313	0.627295	-0.183423
C116	C	1.475647	0.960628	0.149910
C117	C	1.808980	1.293961	0.483244
C118	C	1.348433	0.131556	-0.132634
C119	C	1.681766	0.464890	0.200700
C120	C	2.015100	0.798223	0.534033
C121	C	1.436274	0.109887	-0.111007
C122	C	1.769608	0.443220	0.222326
C123	C	2.102941	0.776554	0.555660
C124	C	1.142457	0.182103	-0.434939
C125	C	1.475790	0.515437	-0.101606
C126	C	1.809124	0.848770	0.231728
C127	C	1.142523	0.181974	-0.542137
C128	C	1.475857	0.515307	-0.208803
C129	C	1.809190	0.848641	0.124530
C130	C	1.142380	0.930794	-0.183413
C131	C	1.475714	1.264128	0.149920
C132	C	1.809047	1.597461	0.483253
C133	C	1.142397	0.823576	-0.183459
C134	C	1.475730	1.156910	0.149874
C135	C	1.809064	1.490243	0.483207
C136	C	1.142191	0.182628	0.067204
C137	C	1.475524	0.515962	0.400537
C138	C	1.808858	0.849295	0.733870
C139	C	1.142277	0.182448	0.174439
C140	C	1.475611	0.515782	0.507772
C141	C	1.808944	0.849115	0.841105
C142	C	1.142453	0.182121	0.370776
C143	C	1.475787	0.515455	0.704110
C144	C	1.809120	0.848788	1.037443
C145	C	1.142358	0.182305	0.261521
C146	C	1.475691	0.515639	0.594854
C147	C	1.809025	0.848972	0.928187
H148	H	0.444012	0.219950	-0.220827
H149	H	0.777345	0.553283	0.112506
H150	H	1.110678	0.886616	0.445839
Br151	Br	0.421434	-0.031909	0.030501
Br152	Br	0.754767	0.301425	0.363835
Br153	Br	1.088100	0.634758	0.697168
H154	H	0.493009	0.281024	-0.281777
H155	H	0.826343	0.614357	0.051556
H156	H	1.159676	0.947691	0.384890
Br157	Br	0.545576	0.413530	-0.413971
Br158	Br	0.878910	0.746863	-0.080637
Br159	Br	1.212243	1.080196	0.252696
Br160	Br	0.669425	0.444655	-0.445026
Br161	Br	1.002759	0.777988	-0.111692
Br162	Br	1.336092	1.111322	0.221641
H163	H	0.841383	0.144678	-0.145775
H164	H	1.174716	0.478011	0.187558
H165	H	1.508050	0.811344	0.520891
Br166	Br	0.739828	-0.048889	0.047387
Br167	Br	1.073161	0.284445	0.380720
Br168	Br	1.406495	0.617778	0.714054
H169	H	0.841545	0.368601	-0.369193
H170	H	1.174878	0.701935	-0.035859
H171	H	1.508212	1.035268	0.297474
Br172	Br	0.615984	-0.080006	0.078444
Br173	Br	0.949317	0.253328	0.411777
Br174	Br	1.282651	0.586661	0.745110
Br175	Br	0.837208	0.072552	-0.073759
Br176	Br	1.170541	0.405886	0.259575
Br177	Br	1.503875	0.739219	0.592908
