data_functionalizedCrystal
_audit_creation_method	'MofGen! by Chris Wilmer'
_symmetry_space_group_name_H-M	'P1'
_symmetry_Int_Tables_number	1
_symmetry_cell_setting	triclinic
loop_
_symmetry_equiv_pos_as_xyz
  x,y,z
_cell_length_a	15.995350
_cell_length_b	12.837942
_cell_length_c	14.472311
_cell_angle_alpha	89.992378
_cell_angle_beta	90.001458
_cell_angle_gamma	90.839342
loop_
_atom_site_label
_atom_site_type_symbol
_atom_site_fract_x
_atom_site_fract_y
_atom_site_fract_z
O1	O	1.121647	-0.133624	0.076761
O2	O	1.621647	0.366376	0.576761
O3	O	0.879188	-0.150124	0.076780
O4	O	1.379188	0.349876	0.576780
O5	O	0.995042	0.009029	0.076766
O6	O	1.495042	0.509029	0.576766
O7	O	1.005794	-0.292776	0.076776
O8	O	1.505794	0.207224	0.576776
O9	O	0.995029	0.009045	-0.076916
O10	O	1.495029	0.509045	0.423084
O11	O	0.879176	-0.150108	-0.076902
O12	O	1.379176	0.349892	0.423098
O13	O	1.121634	-0.133608	-0.076921
O14	O	1.621634	0.366392	0.423079
Cu15	Cu	1.000404	-0.141857	-0.090943
Cu16	Cu	1.500404	0.358143	0.409057
Cu17	Cu	1.000419	-0.141875	0.090803
Cu18	Cu	1.500419	0.358125	0.590803
O19	O	1.005781	-0.292761	-0.076906
O20	O	1.505781	0.207239	0.423094
C21	C	0.991403	0.047657	-0.000075
C22	C	1.491403	0.547657	0.499925
C23	C	0.980569	0.162735	-0.000072
C24	C	1.480569	0.662735	0.499928
C25	C	0.847933	-0.149434	-0.000058
C26	C	1.347933	0.350566	0.499942
C27	C	0.754819	-0.147389	-0.000051
C28	C	1.254819	0.352611	0.499949
N29	N	1.000399	-0.141843	-0.218774
N30	N	1.500399	0.358157	0.281226
C31	C	0.416486	-0.140044	-0.000071
C32	C	0.916486	0.359956	0.499929
C33	C	0.454876	-0.026699	-0.000417
C34	C	0.954876	0.473301	0.499583
C35	C	0.551730	-0.028744	-0.000064
C36	C	1.051730	0.471256	0.499936
C37	C	0.584337	-0.143687	-0.000061
C38	C	1.084337	0.356313	0.499939
C39	C	0.547718	-0.199602	0.087697
C40	C	1.047718	0.300398	0.587697
C41	C	0.450855	-0.196755	0.087764
C42	C	0.950855	0.303245	0.587764
C43	C	0.450688	-0.199079	-0.087001
C44	C	0.950688	0.300921	0.412999
C45	C	0.547631	-0.199052	-0.088155
C46	C	1.047631	0.300948	0.411845
C47	C	0.679199	-0.145752	-0.000053
C48	C	1.179199	0.354248	0.499947
C49	C	0.321623	-0.137983	-0.000073
C50	C	0.821623	0.362017	0.499927
C51	C	1.152890	-0.134298	-0.000080
C52	C	1.652890	0.365702	0.499920
C53	C	1.246003	-0.136343	-0.000081
C54	C	1.746003	0.363657	0.499919
C55	C	1.009420	-0.331389	-0.000064
C56	C	1.509420	0.168611	0.499936
C57	C	1.020253	-0.446466	-0.000060
C58	C	1.520253	0.053534	0.499940
C59	C	1.110807	0.403693	-0.000063
C60	C	1.610807	0.903693	0.499937
C61	C	1.100632	0.511819	-0.000061
C62	C	1.600632	1.011819	0.499939
C63	C	0.950045	0.487114	-0.000059
C64	C	1.450045	0.987114	0.499941
C65	C	0.960220	0.378988	-0.000061
C66	C	1.460220	0.878988	0.499939
C67	C	1.040604	0.337282	-0.000065
C68	C	1.540604	0.837282	0.499935
C69	C	1.050778	0.229154	-0.000073
C70	C	1.550778	0.729154	0.499927
C71	C	0.900191	0.204452	-0.000065
C72	C	1.400191	0.704452	0.499935
C73	C	0.890016	0.312577	-0.000062
C74	C	1.390016	0.812577	0.499938
C75	C	1.000409	-0.141856	-0.407275
C76	C	1.500409	0.358144	0.092725
C77	C	1.062418	-0.056726	-0.446484
C78	C	1.562418	0.443274	0.053516
C79	C	1.062686	-0.056952	-0.553572
C80	C	1.562686	0.443048	-0.053572
C81	C	1.000419	-0.141867	-0.592866
C82	C	1.500419	0.358133	-0.092866
C83	C	1.027780	-0.250163	-0.553970
C84	C	1.527780	0.249837	-0.053970
C85	C	1.028228	-0.249657	-0.446849
C86	C	1.528228	0.250343	0.053151
C87	C	0.910911	-0.119666	-0.446760
C88	C	1.410911	0.380334	0.053240
C89	C	0.911309	-0.117215	-0.553888
C90	C	1.411309	0.382785	-0.053888
C91	C	1.000424	-0.141880	-0.697754
C92	C	1.500424	0.358120	-0.197754
C93	C	1.000407	-0.141850	-0.302386
C94	C	1.500407	0.358150	0.197614
N95	N	1.000430	-0.141880	0.218634
N96	N	1.500430	0.358120	0.718634
H97	H	0.432734	0.018615	-0.063352
H98	H	0.932734	0.518615	0.436648
O99	O	1.115021	-0.275456	-0.413737
O100	O	1.615021	0.224544	0.086263
H101	H	1.156280	-0.288171	-0.474235
H102	H	1.656280	0.211829	0.025765
H103	H	0.571686	-0.158235	-0.153078
H104	H	1.071686	0.341765	0.346922
H105	H	0.569684	-0.282872	-0.093453
H106	H	1.069684	0.217128	0.406547
O107	O	0.584737	0.029463	-0.083401
O108	O	1.084737	0.529463	0.416599
H109	H	0.563580	0.111367	-0.080814
H110	H	1.063580	0.611367	0.419186
O111	O	0.863349	0.532103	-0.000043
O112	O	1.363349	1.032103	0.499957
H113	H	0.829190	0.505437	-0.062676
H114	H	1.329190	1.005437	0.437324
H115	H	1.176258	0.369735	-0.000075
H116	H	1.676258	0.869735	0.499925
H117	H	1.157799	0.565888	-0.000057
H118	H	1.657799	1.065888	0.499943
H119	H	0.843027	0.150367	-0.000073
H120	H	1.343027	0.650367	0.499927
H121	H	0.824570	0.346550	-0.000056
H122	H	1.324570	0.846550	0.499944
H123	H	0.425594	-0.282648	-0.087593
H124	H	0.925594	0.217352	0.412407
H125	H	1.116230	0.195199	-0.000080
H126	H	1.616230	0.695199	0.499920
O127	O	1.039529	0.049674	-0.588421
O128	O	1.539529	0.549674	-0.088421
H129	H	1.028037	0.101865	-0.528761
H130	H	1.528037	0.601865	-0.028761
H131	H	0.431690	0.018393	0.062168
H132	H	0.931690	0.518393	0.562168
O133	O	0.878796	-0.017262	-0.410995
O134	O	1.378796	0.482738	0.089005
H135	H	0.815624	-0.003415	-0.439828
H136	H	1.315624	0.496585	0.060172
O137	O	1.039433	0.050256	-0.412394
O138	O	1.539433	0.550256	0.087606
H139	H	0.983573	0.043899	-0.367132
H140	H	1.483573	0.543899	0.132868
H141	H	0.576063	0.015492	0.062951
H142	H	1.076063	0.515492	0.562951
H143	H	1.128276	-0.070735	-0.419551
H144	H	1.628276	0.429265	0.080449
O145	O	0.422291	-0.142741	0.174644
O146	O	0.922291	0.357259	0.674644
H147	H	0.477655	-0.118893	0.216213
H148	H	0.977655	0.381107	0.716213
H149	H	0.425246	-0.279972	0.091749
H150	H	0.925246	0.220028	0.591749
H151	H	1.128930	-0.071175	-0.579197
H152	H	1.628930	0.428825	-0.079197
H153	H	0.864668	-0.181744	-0.421401
H154	H	1.364668	0.318256	0.078599
H155	H	0.985062	-0.314778	-0.420909
H156	H	1.485062	0.185222	0.079091
H157	H	0.984165	-0.315058	-0.579420
H158	H	1.484165	0.184942	-0.079420
O159	O	0.575354	-0.311460	0.092040
O160	O	1.075354	0.188540	0.592040
H161	H	0.615582	-0.328425	0.031552
H162	H	1.115582	0.171575	0.531552
H163	H	1.092609	-0.270122	-0.580796
H164	H	1.592609	0.229878	-0.080796
H165	H	0.427191	-0.162017	-0.153520
H166	H	0.927191	0.337983	0.346480
O167	O	0.884059	-0.011685	-0.587561
O168	O	1.384059	0.488315	-0.087561
H169	H	0.821033	0.005160	-0.559710
H170	H	1.321033	0.505160	-0.059710
O171	O	0.846466	-0.193984	-0.589305
O172	O	1.346466	0.306016	-0.089305
H173	H	0.876876	-0.251168	-0.635441
H174	H	1.376876	0.248832	-0.135441
H175	H	0.572999	-0.160779	0.153006
H176	H	1.072999	0.339221	0.653006
