data_functionalizedCrystal
_audit_creation_method	'MofGen! by Chris Wilmer'
_symmetry_space_group_name_H-M	'P1'
_symmetry_Int_Tables_number	1
_symmetry_cell_setting	triclinic
loop_
_symmetry_equiv_pos_as_xyz
  x,y,z
_cell_length_a	13.897449
_cell_length_b	13.897441
_cell_length_c	17.077402
_cell_angle_alpha	89.970213
_cell_angle_beta	90.024772
_cell_angle_gamma	89.981404
loop_
_atom_site_label
_atom_site_type_symbol
_atom_site_fract_x
_atom_site_fract_y
_atom_site_fract_z
Zn1	Zn	1.474643	-0.545380	-0.312464
Zn2	Zn	1.724643	-0.295380	-0.062464
Zn3	Zn	1.974643	-0.045380	0.187536
Zn4	Zn	2.224643	0.204620	0.437536
Zn5	Zn	1.474527	-0.384081	-0.443744
Zn6	Zn	1.724527	-0.134081	-0.193744
Zn7	Zn	1.974527	0.115919	0.056256
Zn8	Zn	2.224527	0.365919	0.306256
Zn9	Zn	1.313339	-0.384098	-0.312499
Zn10	Zn	1.563339	-0.134098	-0.062499
Zn11	Zn	1.813339	0.115902	0.187501
Zn12	Zn	2.063339	0.365902	0.437501
Zn13	Zn	1.313298	-0.545334	-0.443695
Zn14	Zn	1.563298	-0.295334	-0.193695
Zn15	Zn	1.813298	-0.045334	0.056305
Zn16	Zn	2.063298	0.204666	0.306305
O17	O	1.393952	-0.464723	-0.378100
O18	O	1.643952	-0.214723	-0.128100
O19	O	1.893952	0.035277	0.121900
O20	O	2.143952	0.285277	0.371900
O21	O	1.609610	-0.523996	-0.329884
O22	O	1.859610	-0.273996	-0.079884
O23	O	2.109610	-0.023996	0.170116
O24	O	2.359610	0.226004	0.420116
O25	O	1.453113	-0.249102	-0.426369
O26	O	1.703113	0.000898	-0.176369
O27	O	1.953113	0.250898	0.073631
O28	O	2.203113	0.500898	0.323631
O29	O	1.334802	-0.405520	-0.202647
O30	O	1.584802	-0.155520	0.047353
O31	O	1.834802	0.094480	0.297353
O32	O	2.084802	0.344480	0.547353
O33	O	1.609524	-0.405490	-0.426335
O34	O	1.859524	-0.155490	-0.176335
O35	O	2.109524	0.094510	0.073665
O36	O	2.359524	0.344510	0.323665
O37	O	1.453312	-0.524012	-0.202622
O38	O	1.703312	-0.274012	0.047378
O39	O	1.953312	-0.024012	0.297378
O40	O	2.203312	0.225988	0.547378
O41	O	1.334689	-0.249114	-0.329944
O42	O	1.584689	0.000886	-0.079944
O43	O	1.834689	0.250886	0.170056
O44	O	2.084689	0.500886	0.420056
O45	O	1.178352	-0.405475	-0.329896
O46	O	1.428352	-0.155475	-0.079896
O47	O	1.678352	0.094525	0.170104
O48	O	1.928352	0.344525	0.420104
O49	O	1.334732	-0.680322	-0.426251
O50	O	1.584732	-0.430322	-0.176251
O51	O	1.834732	-0.180322	0.073749
O52	O	2.084732	0.069678	0.323749
O53	O	1.178322	-0.523933	-0.426285
O54	O	1.428322	-0.273933	-0.176285
O55	O	1.678322	-0.023933	0.073715
O56	O	1.928322	0.226067	0.323715
O57	O	1.453272	-0.680356	-0.329837
O58	O	1.703272	-0.430356	-0.079837
O59	O	1.953272	-0.180356	0.170163
O60	O	2.203272	0.069644	0.420163
O61	O	1.453074	-0.405445	-0.553584
O62	O	1.703074	-0.155445	-0.303584
O63	O	1.953074	0.094555	-0.053584
O64	O	2.203074	0.344555	0.196416
O65	O	1.334620	-0.523916	-0.553548
O66	O	1.584620	-0.273916	-0.303548
O67	O	1.834620	-0.023916	-0.053548
O68	O	2.084620	0.226084	0.196452
C69	C	1.143337	-0.464701	-0.378090
C70	C	1.393337	-0.214701	-0.128090
C71	C	1.643337	0.035299	0.121910
C72	C	1.893337	0.285299	0.371910
C73	C	1.036123	-0.464715	-0.378104
C74	C	1.286123	-0.214715	-0.128104
C75	C	1.536123	0.035285	0.121896
C76	C	1.786123	0.285285	0.371896
C77	C	1.394011	-0.716316	-0.378034
C78	C	1.644011	-0.466316	-0.128034
C79	C	1.894011	-0.216316	0.121966
C80	C	2.144011	0.033684	0.371966
C81	C	1.394036	-0.823530	-0.378006
C82	C	1.644036	-0.573530	-0.128006
C83	C	1.894036	-0.323530	0.121994
C84	C	2.144036	-0.073530	0.371994
C85	C	1.393856	-0.464695	-0.582048
C86	C	1.643856	-0.214695	-0.332048
C87	C	1.893856	0.035305	-0.082048
C88	C	2.143856	0.285305	0.167952
C89	C	1.393903	-0.464715	-0.669298
C90	C	1.643903	-0.214715	-0.419298
C91	C	1.893903	0.035285	-0.169298
C92	C	2.143903	0.285285	0.080702
C93	C	0.839828	-0.464740	-0.378107
C94	C	1.089828	-0.214740	-0.128107
C95	C	1.339828	0.035260	0.121893
C96	C	1.589828	0.285260	0.371893
C97	C	0.949061	-0.464723	-0.378103
C98	C	1.199061	-0.214723	-0.128103
C99	C	1.449061	0.035277	0.121897
C100	C	1.699061	0.285277	0.371897
C101	C	1.645545	-0.464746	-0.378111
C102	C	1.895545	-0.214746	-0.128111
C103	C	2.145545	0.035254	0.121889
C104	C	2.395545	0.285254	0.371889
C105	C	1.752759	-0.464756	-0.378116
C106	C	2.002759	-0.214756	-0.128116
C107	C	2.252759	0.035244	0.121884
C108	C	2.502759	0.285244	0.371884
C109	C	1.394056	-0.910600	-0.377984
C110	C	1.644056	-0.660600	-0.127984
C111	C	1.894056	-0.410600	0.122016
C112	C	2.144056	-0.160600	0.372016
C113	C	1.394083	-1.019833	-0.377949
C114	C	1.644083	-0.769833	-0.127949
C115	C	1.894083	-0.519833	0.122051
C116	C	2.144083	-0.269833	0.372051
C117	C	1.393948	-0.214109	-0.378109
C118	C	1.643948	0.035891	-0.128109
C119	C	1.893948	0.285891	0.121891
C120	C	2.143948	0.535891	0.371891
C121	C	1.394110	-0.106896	-0.377916
C122	C	1.644110	0.143104	-0.127916
C123	C	1.894110	0.393104	0.122084
C124	C	2.144110	0.643104	0.372084
C125	C	1.455578	-0.526464	-0.710207
C126	C	1.705578	-0.276464	-0.460207
C127	C	1.955578	-0.026464	-0.210207
C128	C	2.205578	0.223536	0.039793
C129	C	1.455618	-0.526484	-0.792188
C130	C	1.705618	-0.276484	-0.542188
C131	C	1.955618	-0.026484	-0.292188
C132	C	2.205618	0.223516	-0.042188
C133	C	1.393988	-0.464750	-0.833257
C134	C	1.643988	-0.214750	-0.583257
C135	C	1.893988	0.035250	-0.333257
C136	C	2.143988	0.285250	-0.083257
C137	C	1.332307	-0.402998	-0.792342
C138	C	1.582307	-0.152998	-0.542342
C139	C	1.832307	0.097002	-0.292342
C140	C	2.082307	0.347002	-0.042342
C141	C	1.332262	-0.402984	-0.710364
C142	C	1.582262	-0.152984	-0.460364
C143	C	1.832262	0.097016	-0.210364
C144	C	2.082262	0.347016	0.039636
C145	C	1.332406	-0.403032	-0.963212
C146	C	1.582406	-0.153032	-0.713212
C147	C	1.832406	0.096968	-0.463212
C148	C	2.082406	0.346968	-0.213212
C149	C	1.332452	-0.403046	-1.045197
C150	C	1.582452	-0.153046	-0.795197
C151	C	1.832452	0.096954	-0.545197
C152	C	2.082452	0.346954	-0.295197
C153	C	1.455762	-0.526533	-1.045037
C154	C	1.705762	-0.276533	-0.795037
C155	C	1.955762	-0.026533	-0.545037
C156	C	2.205762	0.223467	-0.295037
C157	C	1.455717	-0.526518	-0.963058
C158	C	1.705717	-0.276518	-0.713058
C159	C	1.955717	-0.026518	-0.463058
C160	C	2.205717	0.223482	-0.213058
C161	C	1.394037	-0.464765	-0.922148
C162	C	1.644037	-0.214765	-0.672148
C163	C	1.894037	0.035235	-0.422148
C164	C	2.144037	0.285235	-0.172148
C165	C	1.394074	-0.464773	-0.173356
C166	C	1.644074	-0.214773	0.076644
C167	C	1.894074	0.035227	0.326644
C168	C	2.144074	0.285227	0.576644
C169	C	1.394126	-0.464794	-0.086106
C170	C	1.644126	-0.214794	0.163894
C171	C	1.894126	0.035206	0.413894
C172	C	2.144126	0.285206	0.663894
H173	H	1.505768	-0.576730	-0.676774
H174	H	1.755768	-0.326730	-0.426774
H175	H	2.005768	-0.076730	-0.176774
H176	H	2.255768	0.173270	0.073226
Cl177	Cl	1.533143	-0.604128	-0.843613
Cl178	Cl	1.783143	-0.354128	-0.593613
Cl179	Cl	2.033143	-0.104128	-0.343613
Cl180	Cl	2.283143	0.145872	-0.093613
H181	H	1.505906	-0.576781	-0.929619
H182	H	1.755906	-0.326781	-0.679619
H183	H	2.005906	-0.076781	-0.429619
H184	H	2.255906	0.173219	-0.179619
Cl185	Cl	1.533306	-0.604162	-1.096465
Cl186	Cl	1.783306	-0.354162	-0.846465
Cl187	Cl	2.033306	-0.104162	-0.596465
Cl188	Cl	2.283306	0.145838	-0.346465
Cl189	Cl	1.254866	-0.325396	-0.911785
Cl190	Cl	1.504866	-0.075396	-0.661785
Cl191	Cl	1.754866	0.174604	-0.411785
Cl192	Cl	2.004866	0.424604	-0.161785
Cl193	Cl	1.254819	-0.325399	-0.843973
Cl194	Cl	1.504819	-0.075399	-0.593973
Cl195	Cl	1.754819	0.174601	-0.343973
Cl196	Cl	2.004819	0.424601	-0.093973
Cl197	Cl	1.254724	-0.325354	-0.658935
Cl198	Cl	1.504724	-0.075354	-0.408935
Cl199	Cl	1.754724	0.174646	-0.158935
Cl200	Cl	2.004724	0.424646	0.091065
H201	H	1.282263	-0.352780	-1.078634
H202	H	1.532263	-0.102780	-0.828634
H203	H	1.782263	0.147220	-0.578634
H204	H	2.032263	0.397220	-0.328634
