data_functionalizedCrystal
_audit_creation_method	'MofGen! by Chris Wilmer'
_symmetry_space_group_name_H-M	'P1'
_symmetry_Int_Tables_number	1
_symmetry_cell_setting	triclinic
loop_
_symmetry_equiv_pos_as_xyz
  x,y,z
_cell_length_a	19.805407
_cell_length_b	19.121063
_cell_length_c	19.120915
_cell_angle_alpha	94.738654
_cell_angle_beta	92.425914
_cell_angle_gamma	92.466276
loop_
_atom_site_label
_atom_site_type_symbol
_atom_site_fract_x
_atom_site_fract_y
_atom_site_fract_z
Zn1	Zn	1.005639	-0.297138	-0.409756
Zn2	Zn	1.005559	-0.409791	-0.297107
Zn3	Zn	0.897504	-0.292140	-0.292111
Zn4	Zn	0.887375	-0.414760	-0.414729
O5	O	0.949019	-0.353457	-0.353426
O6	O	1.100344	-0.312095	-0.394823
O7	O	0.995432	-0.390013	-0.197984
O8	O	0.916121	-0.194341	-0.303545
O9	O	1.100286	-0.394860	-0.312060
O10	O	0.995568	-0.198013	-0.389978
O11	O	0.916044	-0.303575	-0.194314
O12	O	0.801445	-0.308393	-0.308366
O13	O	0.898857	-0.403328	-0.512529
O14	O	0.794003	-0.398481	-0.398453
O15	O	0.985745	-0.316912	-0.508876
O16	O	0.985609	-0.508913	-0.316882
O17	O	0.898779	-0.512563	-0.403298
C18	C	0.773165	-0.353435	-0.353408
C19	C	0.697932	-0.353442	-0.353417
C20	C	0.662613	-0.310429	-0.396584
C21	C	0.591924	-0.310433	-0.396587
C22	C	0.556556	-0.353454	-0.353426
C23	C	0.591880	-0.396469	-0.310255
C24	C	0.662568	-0.396461	-0.310249
C25	C	0.306805	-0.396502	-0.310278
C26	C	0.236112	-0.396508	-0.310289
C27	C	0.236161	-0.310473	-0.396616
C28	C	0.306849	-0.310465	-0.396610
C29	C	0.342167	-0.353478	-0.353436
C30	C	0.418816	-0.353472	-0.353432
C31	C	0.479908	-0.353464	-0.353433
C32	C	0.941104	-0.536269	-0.361187
C33	C	0.937779	-0.614477	-0.364531
C34	C	0.981456	-0.649297	-0.321147
C35	C	0.978333	-0.722783	-0.324297
C36	C	0.931528	-0.761446	-0.370827
C37	C	0.887849	-0.726621	-0.414215
C38	C	0.890976	-0.653137	-0.411069
C39	C	0.919825	-0.983417	-0.382578
C40	C	0.916700	-1.056906	-0.385719
C41	C	1.007185	-1.053062	-0.295801
C42	C	1.010306	-0.979577	-0.292656
C43	C	0.966629	-0.944758	-0.336048
C44	C	0.928333	-0.836560	-0.374045
C45	C	0.969828	-0.869646	-0.332832
C46	C	1.125560	-0.353481	-0.353444
C47	C	1.200792	-0.353491	-0.353452
C48	C	0.941180	-0.361232	-0.536946
C49	C	0.937839	-0.364545	-0.615151
C50	C	0.956983	-0.169933	-0.345649
C51	C	0.960377	-0.091726	-0.342335
C52	C	0.916681	-0.385580	-1.057563
C53	C	0.919817	-0.382457	-0.984080
C54	C	0.966627	-0.335907	-0.945440
C55	C	1.010298	-0.292473	-0.980286
C56	C	1.007158	-0.295593	-1.053768
C57	C	0.978370	-0.324231	-0.723479
C58	C	0.981509	-0.321116	-0.649993
C59	C	0.891026	-0.411099	-0.653791
C60	C	0.887893	-0.414218	-0.727274
C61	C	0.931561	-0.370782	-0.762114
C62	C	0.969836	-0.332715	-0.870329
C63	C	0.928349	-0.373971	-0.837223
C64	C	0.956869	-0.345662	-0.170617
C65	C	0.960350	-0.342151	-0.092404
H66	H	0.335553	-0.431526	-0.275124
C67	C	0.871771	-0.430233	-0.945769
C68	C	0.794647	-0.424901	-0.955644
C69	C	0.746591	-0.472679	-0.917340
C70	C	0.775660	-0.525789	-0.869161
C71	C	0.852788	-0.531123	-0.859283
C72	C	0.900843	-0.483345	-0.897587
H73	H	0.773125	-0.385584	-0.991312
H74	H	0.689496	-0.468730	-0.924653
H75	H	0.740086	-0.561157	-0.840806
H76	H	0.874309	-0.570439	-0.823615
H77	H	0.957939	-0.487293	-0.890274
H78	H	0.691324	-0.431487	-0.275098
H79	H	0.849742	-0.758107	-0.452104
H80	H	0.691405	-0.275398	-0.431732
C81	C	1.055232	-1.091363	-0.248077
C82	C	1.132357	-1.081437	-0.253456
C83	C	1.180408	-1.119737	-0.205731
C84	C	1.151334	-1.167962	-0.152627
C85	C	1.074205	-1.177889	-0.147246
C86	C	1.026154	-1.139589	-0.194971
H87	H	1.153882	-1.045737	-0.292769
H88	H	1.237504	-1.112388	-0.209715
H89	H	1.186904	-1.196313	-0.117298
H90	H	1.052680	-1.213590	-0.107933
H91	H	0.969058	-1.146939	-0.190987
H92	H	0.207396	-0.275448	-0.431767
C93	C	0.553073	-0.263119	-0.444073
C94	C	0.591975	-0.215802	-0.491553
C95	C	0.553124	-0.168485	-0.539041
C96	C	0.475371	-0.168486	-0.539048
C97	C	0.436464	-0.215806	-0.491566
C98	C	0.475315	-0.263122	-0.444078
H99	H	0.649537	-0.215800	-0.491550
H100	H	0.581926	-0.133457	-0.574190
H101	H	0.446611	-0.133460	-0.574201
H102	H	0.378902	-0.215808	-0.491569
H103	H	0.446513	-0.298151	-0.408929
C104	C	0.865188	-0.436786	-1.100063
C105	C	0.861731	-0.440224	-1.180890
C106	C	0.810235	-0.491430	-1.223388
C107	C	0.762197	-0.539198	-1.185060
C108	C	0.765653	-0.535762	-1.104228
C109	C	0.817148	-0.484556	-1.061730
H110	H	0.897293	-0.404862	-1.209267
H111	H	0.807677	-0.493973	-1.283225
H112	H	0.724077	-0.577103	-1.216519
H113	H	0.730091	-0.571124	-1.075851
H114	H	0.819706	-0.482013	-1.001893
H115	H	0.207317	-0.431543	-0.275140
C116	C	1.021312	-0.827118	-0.281650
C117	C	0.996527	-0.774303	-0.224228
C118	C	1.048009	-0.731768	-0.173044
C119	C	1.124276	-0.742046	-0.179282
C120	C	1.149065	-0.794863	-0.236706
C121	C	1.097583	-0.837398	-0.287890
H122	H	0.940066	-0.766692	-0.219609
H123	H	1.029658	-0.692669	-0.130535
H124	H	1.162386	-0.710559	-0.141392
H125	H	1.205525	-0.802473	-0.241325
H126	H	1.115933	-0.876497	-0.330399
C127	C	0.842994	-0.458875	-0.615463
C128	C	0.793338	-0.426234	-0.563650
C129	C	0.745303	-0.474011	-0.525321
C130	C	0.746924	-0.554429	-0.538806
C131	C	0.796581	-0.587074	-0.590622
C132	C	0.844616	-0.539297	-0.628951
H133	H	0.792137	-0.366700	-0.553665
H134	H	0.708543	-0.449845	-0.486963
H135	H	0.711365	-0.589796	-0.510433
H136	H	0.797783	-0.646608	-0.600607
H137	H	0.881376	-0.563463	-0.667309
C138	C	0.876847	-0.879095	-0.425225
C139	C	0.822891	-0.928381	-0.396848
C140	C	0.771409	-0.970920	-0.448029
C141	C	0.773883	-0.964173	-0.527588
C142	C	0.827841	-0.914885	-0.555969
C143	C	0.879324	-0.872346	-0.504787
H144	H	0.821058	-0.933378	-0.337950
H145	H	0.731466	-1.007407	-0.427019
H146	H	0.735773	-0.995663	-0.565476
H147	H	0.829675	-0.909888	-0.614867
H148	H	0.919267	-0.835859	-0.525797
H149	H	0.335642	-0.275435	-0.431758
H150	H	0.563078	-0.431495	-0.275110
C151	C	1.061791	-0.241269	-0.937783
C152	C	1.037024	-0.183879	-0.884923
C153	C	1.088520	-0.132677	-0.842422
C154	C	1.164783	-0.138863	-0.852780
C155	C	1.189553	-0.196255	-0.905643
C156	C	1.138057	-0.247457	-0.948145
H157	H	0.980567	-0.179298	-0.877253
H158	H	1.070183	-0.090192	-0.803289
H159	H	1.202903	-0.100960	-0.821318
H160	H	1.246010	-0.200836	-0.913313
H161	H	1.156394	-0.289942	-0.987277
H162	H	1.019567	-0.617822	-0.283255
C163	C	1.032999	-0.269906	-0.607484
C164	C	1.030514	-0.190345	-0.614192
C165	C	1.082001	-0.139140	-0.571681
C166	C	1.135974	-0.167497	-0.522462
C167	C	1.138462	-0.247063	-0.515752
C168	C	1.086974	-0.298267	-0.558263
H169	H	0.990558	-0.169349	-0.650629
H170	H	1.080160	-0.080240	-0.576649
H171	H	1.174089	-0.129592	-0.490993
H172	H	1.178418	-0.268058	-0.479315
H173	H	1.088816	-0.357167	-0.553295
H174	H	0.878593	-1.088384	-0.423622
H175	H	1.007950	-0.294815	-0.838860
H176	H	1.013899	-0.751130	-0.288968
H177	H	1.048418	-0.948098	-0.254768
H178	H	1.042716	-0.260225	-1.082134
H179	H	0.884260	-0.955073	-0.417908
H180	H	1.013932	-0.288866	-0.751837
H181	H	0.855410	-0.624787	-0.446398
H182	H	0.849776	-0.452125	-0.758730
H183	H	0.890233	-0.411868	-0.868687
