data_functionalizedCrystal
_audit_creation_method	'MofGen! by Chris Wilmer'
_symmetry_space_group_name_H-M	'P1'
_symmetry_Int_Tables_number	1
_symmetry_cell_setting	triclinic
loop_
_symmetry_equiv_pos_as_xyz
  x,y,z
_cell_length_a	19.288859
_cell_length_b	19.188924
_cell_length_c	18.366186
_cell_angle_alpha	89.991683
_cell_angle_beta	89.990083
_cell_angle_gamma	83.137845
loop_
_atom_site_label
_atom_site_type_symbol
_atom_site_fract_x
_atom_site_fract_y
_atom_site_fract_z
O1	O	0.921360	0.087079	-0.060567
O2	O	1.421360	0.587079	0.439433
O3	O	0.719099	0.098833	-0.060566
O4	O	1.219099	0.598833	0.439434
O5	O	0.826069	-0.008701	-0.060558
O6	O	1.326069	0.491299	0.439442
O7	O	0.814390	0.194612	-0.060575
O8	O	1.314390	0.694612	0.439425
O9	O	0.826051	-0.008706	0.060541
O10	O	1.326051	0.491294	0.560541
O11	O	0.719081	0.098828	0.060533
O12	O	1.219081	0.598828	0.560533
O13	O	0.921342	0.087074	0.060532
O14	O	1.421342	0.587074	0.560532
Zn15	Zn	0.820208	0.092950	0.079760
Zn16	Zn	1.320208	0.592950	0.579760
Zn17	Zn	0.820232	0.092957	-0.079794
Zn18	Zn	1.320232	0.592957	0.420206
O19	O	0.814372	0.194607	0.060524
O20	O	1.314372	0.694607	0.560524
C21	C	0.693214	0.098453	-0.000016
C22	C	1.193214	0.598453	0.499984
C23	C	0.616110	0.097320	-0.000015
C24	C	1.116110	0.597320	0.499985
C25	C	0.052072	0.152750	-0.000021
C26	C	0.552072	0.652750	0.499979
C27	C	0.124518	0.153821	-0.000025
C28	C	0.624518	0.653821	0.499975
C29	C	0.169222	0.090725	-0.000018
C30	C	0.669222	0.590725	0.499982
C31	C	0.141474	0.026553	-0.000026
C32	C	0.641474	0.526553	0.499974
C33	C	0.069028	0.025484	-0.000030
C34	C	0.569028	0.525484	0.499970
C35	C	0.290483	0.043667	0.042415
C36	C	0.790483	0.543667	0.542415
C37	C	0.362927	0.044738	0.042423
C38	C	0.862927	0.544738	0.542423
C39	C	0.392668	0.094019	-0.000011
C40	C	0.892668	0.594019	0.499989
C41	C	0.349954	0.142241	-0.042443
C42	C	0.849954	0.642241	0.457557
C43	C	0.277509	0.141172	-0.042447
C44	C	0.777509	0.641172	0.457553
C45	C	0.247778	0.091877	-0.000015
C46	C	0.747778	0.591877	0.499985
C47	C	0.498963	0.159348	-0.000012
C48	C	0.998963	0.659348	0.499988
C49	C	0.571411	0.160416	-0.000021
C50	C	1.071411	0.660416	0.499979
C51	C	0.588365	0.033147	-0.000015
C52	C	1.088365	0.533147	0.499985
C53	C	0.515918	0.032081	-0.000014
C54	C	1.015918	0.532081	0.499986
C55	C	0.471221	0.095183	-0.000009
C56	C	0.971221	0.595183	0.499991
C57	C	0.825682	-0.034714	-0.000008
C58	C	1.325682	0.465286	0.499992
C59	C	0.824549	-0.112219	-0.000006
C60	C	1.324549	0.387781	0.499994
C61	C	0.824031	-0.148615	-0.066017
C62	C	1.324031	0.351385	0.433983
C63	C	0.822956	-0.221438	-0.066023
C64	C	1.322956	0.278562	0.433977
C65	C	0.822415	-0.257863	-0.000013
C66	C	1.322415	0.242137	0.499987
C67	C	0.822930	-0.221458	0.066007
C68	C	1.322930	0.278542	0.566007
C69	C	0.823997	-0.148636	0.066011
C70	C	1.323997	0.351364	0.566011
N71	N	0.860259	-0.377532	0.049116
N72	N	1.360259	0.122468	0.549116
N73	N	0.859246	-0.446711	0.049108
N74	N	1.359246	0.053289	0.549108
C75	C	0.819197	-0.477272	-0.000020
C76	C	1.319197	0.022728	0.499980
N77	N	0.780208	-0.436043	-0.049151
N78	N	1.280208	0.063957	0.450849
N79	N	0.781224	-0.366859	-0.049145
N80	N	1.281224	0.133141	0.450855
C81	C	0.821257	-0.336827	-0.000010
C82	C	1.321257	0.163173	0.499990
C83	C	0.817513	-0.592631	-0.066042
C84	C	1.317513	-0.092631	0.433958
C85	C	0.816434	-0.665454	-0.066045
C86	C	1.316434	-0.165454	0.433955
C87	C	0.816415	-0.665474	0.065987
C88	C	1.316415	-0.165474	0.565987
C89	C	0.817486	-0.592651	0.065988
C90	C	1.317486	-0.092651	0.565988
C91	C	0.818039	-0.556234	-0.000029
C92	C	1.318039	-0.056234	0.499971
C93	C	0.947227	0.087454	-0.000019
C94	C	1.447227	0.587454	0.499981
C95	C	1.024331	0.088587	-0.000025
C96	C	1.524331	0.588587	0.499975
C97	C	0.814758	0.220621	-0.000028
C98	C	1.314758	0.720621	0.499972
C99	C	0.815891	0.298126	-0.000034
C100	C	1.315891	0.798126	0.499966
N101	N	0.820197	0.092945	0.188651
N102	N	1.320197	0.592945	0.688651
N103	N	0.820249	0.092956	-0.188685
N104	N	1.320249	0.592956	0.311315
C105	C	0.867579	0.045352	0.226755
C106	C	1.367579	0.545352	0.726755
C107	C	0.867583	0.045349	0.302983
C108	C	1.367583	0.545349	0.802983
C109	C	0.820213	0.092950	0.341104
C110	C	1.320213	0.592950	0.841104
C111	C	0.772822	0.140547	0.302991
C112	C	1.272822	0.640547	0.802991
C113	C	0.772814	0.140544	0.226764
C114	C	1.272814	0.640544	0.726764
C115	C	0.810918	0.156568	0.461859
C116	C	1.310918	0.656568	0.961859
C117	C	0.810930	0.156571	0.538084
C118	C	1.310930	0.656571	1.038084
C119	C	0.820232	0.092959	0.576211
C120	C	1.320232	0.592959	1.076211
C121	C	0.829537	0.029340	0.538105
C122	C	1.329537	0.529340	1.038105
C123	C	0.829529	0.029337	0.461878
C124	C	1.329529	0.529337	0.961878
C125	C	0.820215	0.092959	0.423758
C126	C	1.320215	0.592959	0.923758
C127	C	0.867621	0.045359	0.696970
C128	C	1.367621	0.545359	1.196970
C129	C	0.867621	0.045355	0.773199
C130	C	1.367621	0.545355	1.273199
C131	C	0.772863	0.140559	0.773206
C132	C	1.272863	0.640559	1.273206
C133	C	0.772860	0.140557	0.696978
C134	C	1.272860	0.640557	1.196978
C135	C	0.820243	0.092958	0.658865
C136	C	1.320243	0.592958	1.158865
H137	H	0.493332	-0.020168	-0.000013
H138	H	0.993332	0.479832	0.499987
C139	C	0.824572	-0.108600	0.138632
C140	C	1.324572	0.391400	0.638632
N141	N	0.825007	-0.078444	0.193331
N142	N	1.325007	0.421556	0.693331
C143	C	0.449793	0.228761	-0.000021
C144	C	0.949793	0.728761	0.499979
N145	N	0.412761	0.281044	-0.000030
N146	N	0.912761	0.781044	0.499970
H147	H	0.734291	0.179314	0.804243
H148	H	1.234291	0.679314	1.304243
C149	C	0.815898	-0.705494	-0.138667
C150	C	1.315898	-0.205494	0.361333
N151	N	0.815509	-0.735655	-0.193367
N152	N	1.315509	-0.235655	0.306633
H153	H	0.815968	-0.695130	0.119733
H154	H	1.315968	-0.195130	0.619733
H155	H	0.837103	-0.022463	0.430855
H156	H	1.337103	0.477537	0.930855
C157	C	0.818064	-0.552615	0.138607
C158	C	1.318064	-0.052615	0.638607
N159	N	0.818499	-0.522460	0.193307
N160	N	1.318499	-0.022460	0.693307
C161	C	0.839768	-0.040639	0.580039
C162	C	1.339768	0.459361	1.080039
N163	N	0.847475	-0.093346	0.611627
N164	N	1.347475	0.406654	1.111627
C165	C	0.824632	-0.108560	-0.138638
C166	C	1.324632	0.391440	0.361362
N167	N	0.825082	-0.078389	-0.193336
N168	N	1.325082	0.421611	0.306664
C169	C	0.155040	0.224408	-0.000016
C170	C	0.655040	0.724408	0.499984
N171	N	0.178027	0.277574	-0.000006
N172	N	0.678027	0.777574	0.499994
C173	C	0.720719	0.192932	0.184849
C174	C	1.220719	0.692932	0.684849
N175	N	0.681491	0.232403	0.153277
N176	N	1.181491	0.732403	0.653277
H177	H	0.374167	0.182372	-0.076995
H178	H	0.874167	0.682372	0.423005
C179	C	0.919736	-0.007015	0.815113
C180	C	1.419736	0.492985	1.315113
N181	N	0.958986	-0.046465	0.846684
N182	N	1.458986	0.453535	1.346684
H183	H	0.906168	0.006592	0.334013
H184	H	1.406168	0.506592	0.834013
C185	C	0.919736	-0.007007	0.655043
C186	C	1.419736	0.492993	1.155043
N187	N	0.958989	-0.046450	0.623465
N188	N	1.458989	0.453550	1.123465
H189	H	0.734280	0.179314	0.665952
H190	H	1.234280	0.679314	1.165952
H191	H	0.803331	0.208372	0.430822
H192	H	1.303331	0.708372	0.930822
H193	H	0.803358	0.208374	0.569104
H194	H	1.303358	0.708374	1.069104
C195	C	0.919695	-0.007015	0.184835
C196	C	1.419695	0.492985	0.684835
N197	N	0.958947	-0.046461	0.153259
N198	N	1.458947	0.453539	0.653259
H199	H	0.242735	0.180434	-0.076998
H200	H	0.742735	0.680434	0.423002
C201	C	0.720711	0.192905	0.344925
C202	C	1.220711	0.692905	0.844925
N203	N	0.681457	0.232341	0.376510
N204	N	1.181457	0.732341	0.876510
C205	C	0.601924	0.231004	-0.000013
C206	C	1.101924	0.731004	0.499987
N207	N	0.624907	0.284173	-0.000005
N208	N	1.124907	0.784173	0.499995
C209	C	0.818110	-0.552568	-0.138661
C210	C	1.318110	-0.052568	0.361339
N211	N	0.818557	-0.522395	-0.193358
N212	N	1.318557	-0.022395	0.306642
C213	C	0.822381	-0.261481	-0.138643
C214	C	1.322381	0.238519	0.361357
N215	N	0.821947	-0.291639	-0.193341
N216	N	1.321947	0.208361	0.306659
H217	H	0.822487	-0.251120	0.119753
H218	H	1.322487	0.248880	0.619753
C219	C	0.409905	-0.008305	0.089101
C220	C	0.909905	0.491695	0.589101
N221	N	0.445287	-0.048259	0.124259
N222	N	0.945287	0.451741	0.624259
C223	C	0.002909	0.222165	-0.000012
C224	C	0.502909	0.722165	0.499988
N225	N	-0.034122	0.274449	-0.000003
N226	N	0.465878	0.774449	0.499997
H227	H	0.266276	0.003532	0.076971
H228	H	0.766276	0.503532	0.576971
C229	C	0.190649	-0.042852	-0.000015
C230	C	0.690649	0.457148	0.499985
N231	N	0.227688	-0.095131	-0.000006
N232	N	0.727688	0.404869	0.499994
C233	C	0.038513	-0.045103	-0.000025
C234	C	0.538513	0.454897	0.499975
N235	N	0.015529	-0.098271	-0.000018
N236	N	0.515529	0.401729	0.499982
C237	C	0.637535	-0.036260	-0.000010
C238	C	1.137535	0.463740	0.499990
N239	N	0.674574	-0.088538	-0.000007
N240	N	1.174574	0.411462	0.499993
