data_functionalizedCrystal
_audit_creation_method	'MofGen! by Chris Wilmer'
_symmetry_space_group_name_H-M	'P1'
_symmetry_Int_Tables_number	1
_symmetry_cell_setting	triclinic
loop_
_symmetry_equiv_pos_as_xyz
  x,y,z
_cell_length_a	12.827893
_cell_length_b	15.297327
_cell_length_c	12.827885
_cell_angle_alpha	80.357285
_cell_angle_beta	90.019272
_cell_angle_gamma	99.706564
loop_
_atom_site_label
_atom_site_type_symbol
_atom_site_fract_x
_atom_site_fract_y
_atom_site_fract_z
Zn1	Zn	1.525601	-0.359117	0.662774
Zn2	Zn	1.495216	-0.510002	0.518254
Zn3	Zn	1.350834	-0.359161	0.488057
Zn4	Zn	1.320562	-0.509935	0.692941
O5	O	1.423053	-0.434554	0.590506
O6	O	1.667805	-0.379142	0.643616
O7	O	1.476016	-0.490040	0.368022
O8	O	1.399403	-0.232910	0.485971
O9	O	1.645481	-0.489997	0.537438
O10	O	1.527804	-0.232878	0.614335
O11	O	1.369939	-0.379217	0.345836
O12	O	1.200584	-0.379152	0.515222
O13	O	1.347808	-0.489883	0.835166
O14	O	1.178343	-0.489925	0.665749
O15	O	1.498450	-0.379077	0.813003
O16	O	1.446662	-0.636239	0.566689
O17	O	1.318345	-0.636189	0.695031
C18	C	1.151547	-0.434537	0.590483
C19	C	1.035391	-0.434551	0.590502
C20	C	0.972611	-0.489451	0.664907
C21	C	0.852558	-0.489467	0.664929
C22	C	1.375950	-0.668948	0.637433
C23	C	1.355894	-0.769223	0.657544
C24	C	1.566825	-1.051858	0.447130
C25	C	1.585667	-0.957645	0.428230
C26	C	1.528226	-0.910535	0.485557
C27	C	1.451938	-0.957647	0.561787
C28	C	1.433088	-1.051869	0.580683
C29	C	1.394489	-0.910546	0.619110
C30	C	1.318201	-0.957658	0.695340
C31	C	1.299355	-1.051871	0.714233
C32	C	1.356796	-1.098981	0.656906
C33	C	1.413339	-0.816324	0.600214
C34	C	1.279602	-0.816335	0.733767
C35	C	1.260760	-0.910548	0.752667
C36	C	1.695620	-0.434572	0.590531
C37	C	1.811771	-0.434580	0.590541
C38	C	1.423142	-0.434468	0.863059
C39	C	1.423180	-0.434431	0.979205
C40	C	1.470370	-0.199245	0.543419
C41	C	1.490533	-0.098970	0.523353
C42	C	1.423038	-0.434575	0.319001
C43	C	1.423254	-0.434358	0.202805
C44	C	1.497731	-0.379590	1.020021
C45	C	1.497772	-0.379551	1.140063
H46	H	1.000261	-0.387558	0.526821
O47	O	0.788186	-0.545412	0.741014
C48	C	0.662395	-0.557611	0.884384
C49	C	0.735273	-0.494149	0.798277
H50	H	0.619579	-0.516190	0.930690
H51	H	0.711737	-0.598917	0.940464
H52	H	0.601858	-0.604719	0.845688
H53	H	0.795823	-0.446985	0.836881
H54	H	0.685863	-0.452905	0.742206
H55	H	1.232826	-0.777979	0.780445
O56	O	1.573796	-0.323697	0.955552
C57	C	1.643050	-0.272714	0.777115
C58	C	1.556855	-0.336073	0.850004
H59	H	1.629370	-0.282684	0.691762
H60	H	1.724177	-0.288545	0.801610
H61	H	1.639373	-0.199953	0.784012
H62	H	1.560433	-0.408855	0.843143
H63	H	1.475765	-0.320164	0.825488
H64	H	1.543571	-0.833822	0.470163
O65	O	1.573814	-0.323561	1.182145
C66	C	1.643248	-0.272535	1.340174
C67	C	1.557053	-0.335977	1.292652
H68	H	1.629739	-0.282564	1.429528
H69	H	1.639537	-0.199760	1.304288
H70	H	1.724333	-0.288359	1.321886
H71	H	1.475926	-0.320234	1.310924
H72	H	1.560857	-0.408732	1.328539
H73	H	1.359428	-0.481315	1.167670
H74	H	1.613579	-1.090224	0.400457
H75	H	1.007743	-0.536437	0.728595
O76	O	0.876024	-0.378378	0.514563
C77	C	0.940470	-0.224889	0.433457
C78	C	0.867633	-0.288434	0.519532
H79	H	0.933728	-0.152156	0.437460
H80	H	0.915860	-0.240559	0.352269
H81	H	1.025813	-0.234913	0.446969
H82	H	0.782270	-0.278445	0.506120
H83	H	0.892334	-0.272749	0.600690
O84	O	1.347199	-0.490511	1.043595
C85	C	1.308832	-0.612142	1.191337
C86	C	1.394987	-0.548698	1.118481
H87	H	1.347437	-0.659190	1.251914
H88	H	1.252702	-0.653506	1.141995
H89	H	1.262569	-0.570647	1.234085
H90	H	1.441326	-0.590123	1.075718
H91	H	1.451044	-0.507331	1.167879
O92	O	1.338592	-1.190503	0.675436
C93	C	1.338319	-1.325616	0.802768
C94	C	1.358987	-1.221969	0.781923
H95	H	1.354778	-1.351088	0.888865
H96	H	1.392513	-1.351234	0.748776
H97	H	1.252281	-1.351258	0.786102
H98	H	1.444997	-1.196250	0.798600
H99	H	1.304726	-1.196412	0.835906
H100	H	1.475453	-0.777973	0.538147
O101	O	1.225238	-1.097498	0.788345
C102	C	1.094531	-1.087563	0.918770
C103	C	1.178454	-1.035782	0.834888
H104	H	1.056667	-1.037688	0.956407
H105	H	1.133623	-1.131581	0.982350
H106	H	1.031117	-1.131766	0.879590
H107	H	1.241893	-0.991530	0.873974
H108	H	1.139287	-0.991821	0.771316
H109	H	1.647779	-0.919290	0.366164
H110	H	1.198645	-0.948920	0.814734
