data_functionalizedCrystal
_audit_creation_method	'MofGen! by Chris Wilmer'
_symmetry_space_group_name_H-M	'P1'
_symmetry_Int_Tables_number	1
_symmetry_cell_setting	triclinic
loop_
_symmetry_equiv_pos_as_xyz
  x,y,z
_cell_length_a	19.805407
_cell_length_b	14.908520
_cell_length_c	19.805399
_cell_angle_alpha	86.729391
_cell_angle_beta	90.019573
_cell_angle_gamma	93.320773
loop_
_atom_site_label
_atom_site_type_symbol
_atom_site_fract_x
_atom_site_fract_y
_atom_site_fract_z
Zn1	Zn	1.019204	-0.359181	0.398269
Zn2	Zn	1.519204	0.140819	0.898269
Zn3	Zn	1.012594	-0.510047	0.291612
Zn4	Zn	1.512594	-0.010047	0.791612
Zn5	Zn	0.906017	-0.359206	0.285095
Zn6	Zn	1.406017	0.140794	0.785095
Zn7	Zn	0.899460	-0.509999	0.404757
Zn8	Zn	1.399460	-0.009999	0.904757
O9	O	0.959319	-0.434608	0.344934
O10	O	1.459319	0.065392	0.844934
O11	O	1.113043	-0.379203	0.384134
O12	O	1.613043	0.120797	0.884134
O13	O	0.998435	-0.490068	0.196033
O14	O	1.498435	0.009932	0.696033
O15	O	0.926542	-0.232958	0.294665
O16	O	1.426542	0.267042	0.794665
O17	O	1.108187	-0.490044	0.305773
O18	O	1.608187	0.009956	0.805773
O19	O	1.009699	-0.232939	0.377814
O20	O	1.509699	0.267061	0.877814
O21	O	0.920133	-0.379246	0.191244
O22	O	1.420133	0.120754	0.691244
O23	O	0.810431	-0.379199	0.300956
O24	O	1.310431	0.120801	0.800956
O25	O	0.915366	-0.489962	0.498612
O26	O	1.415366	0.010038	0.998612
O27	O	0.805614	-0.489986	0.388871
O28	O	1.305614	0.010014	0.888871
O29	O	1.003341	-0.379157	0.493845
O30	O	1.503341	0.120843	0.993845
O31	O	0.992077	-0.636286	0.312064
O32	O	1.492077	-0.136286	0.812064
O33	O	0.908957	-0.636250	0.395191
O34	O	1.408957	-0.136250	0.895191
C35	C	0.783463	-0.434591	0.344911
C36	C	1.283463	0.065409	0.844911
C37	C	0.708231	-0.434605	0.344918
C38	C	1.208231	0.065395	0.844918
C39	C	0.670392	-0.492379	0.390629
C40	C	1.170392	0.007621	0.890629
C41	C	0.599704	-0.492380	0.390639
C42	C	1.099704	0.007620	0.890639
C43	C	0.566855	-0.434612	0.344934
C44	C	1.066855	0.065388	0.844934
C45	C	0.604699	-0.376832	0.299220
C46	C	1.104699	0.123168	0.799220
C47	C	0.675386	-0.376827	0.299214
C48	C	1.175386	0.123173	0.799214
C49	C	0.319625	-0.376852	0.299244
C50	C	0.819625	0.123148	0.799244
C51	C	0.248932	-0.376864	0.299252
C52	C	0.748932	0.123136	0.799252
C53	C	0.243942	-0.492406	0.390668
C54	C	0.743942	0.007594	0.890668
C55	C	0.314629	-0.492400	0.390662
C56	C	0.814629	0.007600	0.890662
C57	C	0.352467	-0.434618	0.344952
C58	C	0.852467	0.065382	0.844952
C59	C	0.429116	-0.434615	0.344943
C60	C	0.929116	0.065385	0.844943
C61	C	0.490208	-0.434618	0.344939
C62	C	0.990208	0.065382	0.844939
C63	C	0.949107	-0.669002	0.355053
C64	C	1.449107	-0.169002	0.855053
C65	C	0.944800	-0.769277	0.359405
C66	C	1.444800	-0.269277	0.859405
C67	C	1.023348	-0.957679	0.281093
C68	C	1.523348	-0.457679	0.781093
C69	C	1.019304	-1.051896	0.285180
C70	C	1.519304	-0.551896	0.785180
C71	C	0.932671	-1.051929	0.371669
C72	C	1.432671	-0.551929	0.871669
C73	C	0.936715	-0.957712	0.367582
C74	C	1.436715	-0.457712	0.867582
C75	C	0.982055	-0.910590	0.322292
C76	C	1.482055	-0.410590	0.822292
C77	C	0.986095	-0.816372	0.318202
C78	C	1.486095	-0.316372	0.818202
C79	C	0.899466	-0.816407	0.404694
C80	C	1.399466	-0.316407	0.904694
C81	C	0.895421	-0.910624	0.408781
C82	C	1.395421	-0.410624	0.908781
C83	C	1.135861	-0.434626	0.344957
C84	C	1.635861	0.065374	0.844957
C85	C	1.211092	-0.434634	0.344967
C86	C	1.711092	0.065366	0.844967
C87	C	0.959359	-0.434551	0.521474
C88	C	1.459359	0.065449	1.021474
C89	C	0.959376	-0.434527	0.596705
C90	C	1.459376	0.065473	1.096705
C91	C	0.969589	-0.199299	0.334789
C92	C	1.469589	0.300701	0.834789
C93	C	0.973966	-0.099024	0.330466
C94	C	1.473966	0.400976	0.830466
C95	C	0.959320	-0.434600	0.169077
C96	C	1.459320	0.065400	0.669077
C97	C	0.959445	-0.434370	0.093836
C98	C	1.459445	0.065630	0.593836
C99	C	1.005186	-0.376828	0.629568
C100	C	1.505186	0.123172	1.129568
C101	C	1.005194	-0.376802	0.700255
C102	C	1.505194	0.123198	1.200255
C103	C	0.959395	-0.434480	0.738078
C104	C	1.459395	0.065520	1.238078
C105	C	0.913581	-0.492182	0.705210
C106	C	1.413581	0.007818	1.205210
C107	C	0.913570	-0.492203	0.634524
C108	C	1.413570	0.007797	1.134524
C109	C	0.913622	-0.492098	0.990280
C110	C	1.413622	0.007902	1.490280
C111	C	0.913638	-0.492074	1.060971
C112	C	1.413638	0.007926	1.560971
C113	C	1.005247	-0.376697	1.056011
C114	C	1.505247	0.123303	1.556011
C115	C	1.005236	-0.376718	0.985325
C116	C	1.505236	0.123282	1.485325
C117	C	0.959419	-0.434416	0.952463
C118	C	1.459419	0.065584	1.452463
C119	C	0.959410	-0.434442	0.875816
C120	C	1.459410	0.065558	1.375816
C121	C	0.959407	-0.434459	0.814725
C122	C	1.459407	0.065541	1.314725
H123	H	0.341371	-0.539444	0.427878
H124	H	0.841371	-0.039444	0.927878
O125	O	1.049740	-0.320926	0.592804
O126	O	1.549740	0.179074	1.092804
C127	C	1.091199	-0.372298	0.554123
C128	C	1.591199	0.127702	1.054123
H129	H	1.092287	-0.443346	0.578487
H130	H	1.592287	0.056654	1.078487
H131	H	1.144711	-0.339669	0.551925
H132	H	1.644711	0.160331	1.051925
H133	H	1.070127	-0.375420	0.500682
H134	H	1.570127	0.124580	1.000682
H135	H	0.876260	-0.539178	0.607768
H136	H	1.376260	-0.039178	1.107768
O137	O	0.563027	-0.548468	0.435130
O138	O	1.063027	-0.048468	0.935130
C139	C	0.581171	-0.528870	0.501769
C140	C	1.081171	-0.028870	1.001769
H141	H	0.634003	-0.494181	0.501715
H142	H	1.134003	0.005819	1.001715
H143	H	0.580772	-0.594040	0.534842
H144	H	1.080772	-0.094040	1.034842
H145	H	0.543412	-0.482543	0.522636
H146	H	1.043412	0.017457	1.022636
O147	O	1.049690	-0.320761	0.948483
O148	O	1.549690	0.179239	1.448483
C149	C	1.039840	-0.333129	0.879046
C150	C	1.539840	0.166871	1.379046
H151	H	1.014647	-0.402759	0.872385
H152	H	1.514647	0.097241	1.372385
H153	H	1.090798	-0.326998	0.851920
H154	H	1.590798	0.173002	1.351920
H155	H	1.006113	-0.279631	0.856683
H156	H	1.506113	0.220369	1.356683
O157	O	0.869170	-0.548228	1.097643
O158	O	1.369170	-0.048228	1.597643
C159	C	0.880039	-0.638153	1.084261
C160	C	1.380039	-0.138153	1.584261
H161	H	0.905965	-0.640044	1.033022
H162	H	1.405965	-0.140044	1.533022
H163	H	0.829421	-0.678595	1.083579
H164	H	1.329421	-0.178595	1.583579
H165	H	0.913517	-0.668535	1.125359
H166	H	1.413517	-0.168535	1.625359
O167	O	0.572900	-0.320631	0.254796
O168	O	1.072900	0.179369	0.754796
C169	C	0.621458	-0.269653	0.214438
C170	C	1.121458	0.230347	0.714438
H171	H	0.671991	-0.266571	0.242030
H172	H	1.171991	0.233429	0.742030
H173	H	0.604125	-0.198562	0.204236
H174	H	1.104125	0.301438	0.704236
H175	H	0.627521	-0.302600	0.164414
H176	H	1.127521	0.197400	0.664414
H177	H	1.042499	-0.329820	0.727009
H178	H	1.542499	0.170180	1.227009
O179	O	1.049684	-0.320668	1.088040
O180	O	1.549684	0.179332	1.588040
C181	C	1.039886	-0.333025	1.158541
C182	C	1.539886	0.166975	1.658541
H183	H	0.986363	-0.362560	1.169460
H184	H	1.486363	0.137440	1.669460
H185	H	1.047432	-0.265439	1.182490
H186	H	1.547432	0.234561	1.682490
H187	H	1.077939	-0.381065	1.180681
H188	H	1.577939	0.118935	1.680681
H189	H	0.213126	-0.539452	0.427890
H190	H	0.713126	-0.039452	0.927890
O191	O	0.217130	-0.320655	0.254829
O192	O	0.717130	0.179345	0.754829
C193	C	0.265683	-0.269667	0.214471
C194	C	0.765683	0.230333	0.714471
H195	H	0.316218	-0.266585	0.242060
H196	H	0.816218	0.233415	0.742060
H197	H	0.248347	-0.198577	0.204277
H198	H	0.748347	0.301423	0.704277
H199	H	0.271745	-0.302605	0.164444
H200	H	0.771745	0.197395	0.664444
H201	H	0.876325	-0.539092	0.963533
H202	H	1.376325	-0.039092	1.463533
O203	O	1.059507	-1.097662	0.245268
O204	O	1.559507	-0.597662	0.745268
C205	C	1.100850	-1.152075	0.286225
C206	C	1.600850	-0.652075	0.786225
H207	H	1.106183	-1.123636	0.338307
H208	H	1.606183	-0.623636	0.838307
H209	H	1.152924	-1.153072	0.261864
H210	H	1.652924	-0.653072	0.761864
H211	H	1.076875	-1.223514	0.291622
H212	H	1.576875	-0.723514	0.791622
O213	O	0.869155	-0.548180	0.742053
O214	O	1.369155	-0.048180	1.242053
C215	C	0.878975	-0.535776	0.811489
C216	C	1.378975	-0.035776	1.311489
H217	H	0.932502	-0.506235	0.819881
H218	H	1.432502	-0.006235	1.319881
H219	H	0.871437	-0.603343	0.841265
H220	H	1.371437	-0.103343	1.341265
H221	H	0.840929	-0.487722	0.829470
H222	H	1.340929	0.012278	1.329470
O223	O	1.030098	-0.770694	0.274120
O224	O	1.530098	-0.270694	0.774120
C225	C	1.014351	-0.793772	0.207646
C226	C	1.514351	-0.293772	0.707646
H227	H	0.985395	-0.862212	0.209186
H228	H	1.485395	-0.362212	0.709186
H229	H	1.063084	-0.796962	0.177485
H230	H	1.563084	-0.296962	0.677485
H231	H	0.981841	-0.740805	0.182514
H232	H	1.481841	-0.240805	0.682514
H233	H	0.706194	-0.329777	0.261995
H234	H	1.206194	0.170223	0.761995
H235	H	0.895762	-1.090312	0.408547
H236	H	1.395762	-0.590312	0.908547
H237	H	0.697132	-0.539423	0.427846
H238	H	1.197132	-0.039423	0.927846
H239	H	1.060261	-0.919312	0.244211
H240	H	1.560261	-0.419312	0.744211
O241	O	0.356440	-0.320854	0.254809
O242	O	0.856440	0.179146	0.754809
C243	C	0.395065	-0.372132	0.213226
C244	C	0.895065	0.127868	0.713226
H245	H	0.402695	-0.440539	0.239966
H246	H	0.902695	0.059461	0.739966
H247	H	0.446365	-0.335357	0.202603
H248	H	0.946365	0.164643	0.702603
H249	H	0.367369	-0.381965	0.163484
H250	H	0.867369	0.118035	0.663484
O251	O	0.851470	-0.956502	0.452810
O252	O	1.351470	-0.456502	0.952810
C253	C	0.887640	-1.010902	0.498938
C254	C	1.387640	-0.510902	0.998938
H255	H	0.938348	-1.024974	0.475732
H256	H	1.438348	-0.524974	0.975732
H257	H	0.857220	-1.077182	0.510854
H258	H	1.357220	-0.577182	1.010854
H259	H	0.896600	-0.974543	0.547528
H260	H	1.396600	-0.474543	1.047528
H261	H	0.865840	-0.778057	0.438239
H262	H	1.365840	-0.278057	0.938239
