data_functionalizedCrystal
_audit_creation_method	'MofGen! by Chris Wilmer'
_symmetry_space_group_name_H-M	'P1'
_symmetry_Int_Tables_number	1
_symmetry_cell_setting	triclinic
loop_
_symmetry_equiv_pos_as_xyz
  x,y,z
_cell_length_a	13.032831
_cell_length_b	13.032721
_cell_length_c	13.032268
_cell_angle_alpha	76.710373
_cell_angle_beta	89.113023
_cell_angle_gamma	90.902885
loop_
_atom_site_label
_atom_site_type_symbol
_atom_site_fract_x
_atom_site_fract_y
_atom_site_fract_z
Zn1	Zn	1.399428	-0.702884	0.857492
Zn2	Zn	1.399318	-0.857952	0.702424
Zn3	Zn	1.255414	-0.659406	0.658991
Zn4	Zn	1.206359	-0.852325	0.851935
O5	O	1.315130	-0.768142	0.767710
O6	O	1.540438	-0.744005	0.857424
O7	O	1.400712	-0.815774	0.551018
O8	O	1.295093	-0.519539	0.669471
O9	O	1.540357	-0.857933	0.743496
O10	O	1.400900	-0.551483	0.815309
O11	O	1.294986	-0.669903	0.519108
O12	O	1.107882	-0.664446	0.664083
O13	O	1.211487	-0.848342	0.998317
O14	O	1.071842	-0.806183	0.805839
O15	O	1.353334	-0.738549	1.002399
O16	O	1.353146	-1.002840	0.738108
O17	O	1.211380	-0.998706	0.847953
C18	C	1.053296	-0.729987	0.729646
C19	C	0.941275	-0.713692	0.713389
C20	C	0.873527	-0.776647	0.776195
C21	C	0.757747	-0.759806	0.759394
C22	C	1.276952	-1.038540	0.797167
C23	C	1.260707	-1.154235	0.809817
C24	C	1.323655	-1.207840	0.761163
C25	C	1.306867	-1.327417	0.774236
C26	C	1.577986	-0.806447	0.805925
C27	C	1.690000	-0.822770	0.822209
C28	C	1.276951	-0.797668	1.039178
C29	C	1.260681	-0.810250	1.154861
C30	C	1.353481	-0.496694	0.738165
C31	C	1.369823	-0.381019	0.725575
C32	C	1.353229	-0.738664	0.497299
C33	C	1.369735	-0.725817	0.381613
C34	C	1.323611	-0.761535	1.208456
C35	C	1.306797	-0.774538	1.328021
H36	H	0.730039	-0.693432	0.693185
H37	H	1.436059	-0.674475	1.338985
F38	F	1.173984	-0.877341	1.210578
F39	F	1.220178	-1.383133	0.841344
F40	F	0.905057	-0.626940	0.626852
F41	F	1.174023	-1.209956	0.876921
F42	F	1.410349	-1.152122	0.694072
F43	F	1.456521	-1.325307	0.658478
F44	F	1.410286	-0.694414	1.152733
H45	H	0.901241	-0.843009	0.842407
F46	F	0.726211	-0.909510	0.908768
H47	H	1.240463	-0.825867	1.370647
