data_functionalizedCrystal
_audit_creation_method	'MofGen! by Chris Wilmer'
_symmetry_space_group_name_H-M	'P1'
_symmetry_Int_Tables_number	1
_symmetry_cell_setting	triclinic
loop_
_symmetry_equiv_pos_as_xyz
  x,y,z
_cell_length_a	29.999520
_cell_length_b	29.998686
_cell_length_c	29.995014
_cell_angle_alpha	60.005185
_cell_angle_beta	60.010401
_cell_angle_gamma	59.993433
loop_
_atom_site_label
_atom_site_type_symbol
_atom_site_fract_x
_atom_site_fract_y
_atom_site_fract_z
O1	O	0.061772	-0.651300	0.544623
O2	O	0.023267	-0.507084	0.438819
O3	O	0.114589	-0.598332	0.438743
O4	O	-0.029550	-0.560051	0.544699
O5	O	0.144886	-0.568039	0.468961
O6	O	0.053564	-0.476791	0.469038
O7	O	0.092069	-0.621007	0.574841
Zn8	Zn	0.077627	-0.544089	0.526737
Zn9	Zn	0.037709	-0.584002	0.486923
O10	O	0.000748	-0.529758	0.574918
N11	N	0.104871	-0.516854	0.553912
N12	N	0.010470	-0.611242	0.459748
C13	C	0.143162	-0.478782	0.827124
C14	C	0.378203	-0.478734	0.591892
C15	C	0.143005	-0.478752	0.591997
C16	C	0.142986	-0.243586	0.592008
C17	C	0.180857	-0.357087	0.629814
C18	C	0.180866	-0.440920	0.629807
C19	C	0.201840	-0.419964	0.650755
C20	C	0.293272	-0.404201	0.602606
C21	C	0.350426	-0.423248	0.583534
C22	C	0.350451	-0.515727	0.618798
C23	C	0.293297	-0.496678	0.637872
C24	C	0.194628	-0.328499	0.573626
C25	C	0.175551	-0.271340	0.554591
C26	C	0.128936	-0.271362	0.647935
C27	C	0.148014	-0.328521	0.666970
C28	C	0.124672	-0.427119	0.643641
C29	C	0.105611	-0.446170	0.624592
C30	C	0.198934	-0.492820	0.577889
C31	C	0.217998	-0.473770	0.596931
C32	C	0.124740	-0.427136	0.742229
C33	C	0.105728	-0.446202	0.799386
C34	C	0.199085	-0.492863	0.799337
C35	C	0.218096	-0.473798	0.742178
C36	C	0.180923	-0.440933	0.713626
C37	C	0.264710	-0.440915	0.629773
C38	C	0.121509	-0.499370	0.889991
C39	C	0.441068	-0.498953	0.570621
C40	C	0.121297	-0.499349	0.571429
C41	C	0.121653	-0.180715	0.571802
C42	C	-0.111071	-0.648912	0.421584
C43	C	-0.027286	-0.649018	0.421777
C44	C	-0.048200	-0.669944	0.400740
C45	C	-0.064036	-0.761340	0.448814
C46	C	-0.045033	-0.818500	0.467893
C47	C	0.047447	-0.818609	0.432797
C48	C	0.028444	-0.761451	0.413717
C49	C	-0.139731	-0.662677	0.477755
C50	C	-0.196885	-0.643554	0.496701
C51	C	-0.196717	-0.596907	0.403303
C52	C	-0.139562	-0.616030	0.384357
C53	C	-0.041053	-0.592827	0.407952
C54	C	-0.022041	-0.573809	0.427083
C55	C	0.024504	-0.667167	0.473848
C56	C	0.005492	-0.686188	0.454725
C57	C	-0.040886	-0.592836	0.309259
C58	C	-0.021740	-0.573821	0.252102
C59	C	0.024886	-0.667185	0.252163
C60	C	0.005743	-0.686199	0.309322
C61	C	-0.027145	-0.649023	0.337868
C62	C	-0.027299	-0.732818	0.421728
N63	N	0.492511	-0.516826	0.553742
O64	O	0.679283	-0.525926	0.419277
O65	O	0.679465	-0.632059	0.563349
O66	O	0.679393	-0.631817	0.471975
O67	O	0.679355	-0.526168	0.510650
O68	O	0.588593	-0.601610	0.502313
O69	O	0.588665	-0.601852	0.593686
O70	O	0.588483	-0.495720	0.449614
Zn71	Zn	0.574158	-0.543990	0.526467
Zn72	Zn	0.693790	-0.583788	0.486496
O73	O	0.588555	-0.495962	0.540987
N74	N	0.775436	-0.610952	0.459215
N75	N	0.104844	-0.129269	0.553931
O76	O	-0.029548	0.057600	0.544709
O77	O	0.114530	0.057617	0.438578
O78	O	0.023130	0.057594	0.438850
O79	O	0.061852	0.057623	0.544437
O80	O	0.053431	-0.033213	0.469115
O81	O	0.144831	-0.033190	0.468843
O82	O	0.000753	-0.033207	0.574974
Zn83	Zn	0.077603	-0.047616	0.526714
Zn84	Zn	0.037680	0.072026	0.486838
O85	O	0.092153	-0.033184	0.574702
N86	N	0.010432	0.153679	0.459622
N87	N	0.105130	-0.516904	0.941437
O88	O	0.095923	-0.651280	1.128292
O89	O	-0.010184	-0.507155	1.128318
O90	O	-0.009938	-0.598539	1.128284
O91	O	0.095677	-0.559897	1.128326
O92	O	0.020315	-0.568257	1.037481
O93	O	0.020068	-0.476874	1.037515
O94	O	0.126176	-0.620999	1.037489
Zn95	Zn	0.077925	-0.544128	1.023085
Zn96	Zn	0.038066	-0.584026	1.142722
O97	O	0.125929	-0.529616	1.037523
N98	N	0.010860	-0.611256	1.224371
C99	C	0.034807	-0.473765	0.439352
C100	C	0.147897	-0.586765	0.439257
C101	C	0.080529	-0.654326	0.574308
C102	C	-0.032561	-0.541326	0.574403
C103	C	0.634087	-0.631571	0.596668
C104	C	0.633999	-0.631272	0.483513
C105	C	0.633858	-0.496206	0.416295
C106	C	0.633949	-0.496507	0.529449
C107	C	0.147793	0.012327	0.439058
C108	C	0.034644	0.012187	0.439432
C109	C	-0.032548	0.012195	0.574457
C110	C	0.080639	0.012222	0.574120
C111	C	-0.009670	-0.473857	1.082920
C112	C	-0.009359	-0.587018	1.082860
C113	C	0.125662	-0.654297	1.082887
C114	C	0.125358	-0.541129	1.082927
H115	H	0.059977	-0.434960	0.822668
H116	H	0.088930	0.012231	0.607291
O117	O	0.634126	-0.671376	0.646007
C118	C	0.634172	-0.718386	0.645979
H119	H	0.616948	-0.706288	0.613666
H120	H	0.677747	-0.748040	0.636411
C121	C	0.619780	-0.760877	0.742214
C122	C	0.598621	-0.746019	0.702529
H123	H	0.597853	-0.777925	0.777097
H124	H	0.619751	-0.729207	0.742233
H125	H	0.656093	-0.785587	0.734233
H126	H	0.562312	-0.721305	0.710507
H127	H	0.598643	-0.777685	0.702513
O128	O	0.634039	-0.670936	0.473727
C129	C	0.634091	-0.718060	0.520601
H130	H	0.651303	-0.717585	0.546657
H131	H	0.590547	-0.718743	0.545268
C132	C	0.648578	-0.769834	0.471281
C133	C	0.669723	-0.769254	0.503282
H134	H	0.670555	-0.801414	0.460599
H135	H	0.648541	-0.738086	0.439701
H136	H	0.612291	-0.770401	0.491842
H137	H	0.706006	-0.768680	0.482718
H138	H	0.669766	-0.801004	0.534858
H139	H	0.221368	-0.351757	0.543370
H140	H	0.263847	-0.485039	0.718893
H141	H	-0.042983	-0.432464	1.082928
H142	H	0.633799	-0.462884	0.374920
O143	O	0.633910	-0.456963	0.539416
C144	C	0.633982	-0.476859	0.593069
H145	H	0.616832	-0.511927	0.618903
H146	H	0.677555	-0.492064	0.592232
C147	C	0.619428	-0.387611	0.586180
C148	C	0.598360	-0.430679	0.617911
H149	H	0.597457	-0.359126	0.601503
H150	H	0.619382	-0.374207	0.550032
H151	H	0.655738	-0.400289	0.585485
H152	H	0.562053	-0.418003	0.618600
H153	H	0.598399	-0.444081	0.654059
H154	H	0.158977	-0.695688	1.082873
H155	H	-0.042525	-0.595273	1.082811
O156	O	0.197286	-0.596407	0.399541
C157	C	0.221501	-0.558923	0.384851
H158	H	0.188418	-0.521147	0.395847
H159	H	0.251274	-0.578700	0.407796
C160	C	0.293057	-0.588689	0.309449
C161	C	0.252423	-0.542289	0.322950
H162	H	0.312133	-0.578430	0.271266
H163	H	0.276744	-0.613944	0.319346
H164	H	0.317862	-0.605165	0.328574
H165	H	0.227615	-0.525818	0.303830
H166	H	0.268733	-0.517031	0.313048
O167	O	0.164892	-0.531171	1.082910
C168	C	0.145001	-0.477505	1.082937
H169	H	0.109949	-0.451667	1.065748
H170	H	0.129780	-0.478311	1.126504
C171	C	0.234235	-0.484429	1.068447
C172	C	0.191186	-0.452693	1.047330
H173	H	0.262724	-0.469124	1.046485
H174	H	0.247636	-0.520586	1.068430
H175	H	0.221544	-0.485098	1.104752
H176	H	0.203876	-0.452030	1.011029
H177	H	0.177788	-0.416535	1.047340
O178	O	0.090248	-0.703750	0.613972
C179	C	0.052798	-0.728006	0.628667
H180	H	0.014986	-0.694939	0.617729
H181	H	0.072575	-0.757737	0.605676
C182	C	0.082694	-0.799623	0.703984
C183	C	0.036250	-0.759009	0.690554
H184	H	0.072487	-0.818750	0.742158
H185	H	0.107926	-0.783283	0.694083
H186	H	0.099170	-0.824393	0.684820
H187	H	0.019778	-0.734236	0.709712
H188	H	0.011014	-0.775346	0.700460
H189	H	-0.073962	-0.533167	0.607674
H190	H	0.026351	0.012184	0.406260
O191	O	0.088553	-0.395236	0.714578
C192	C	0.034887	-0.387132	0.752081
H193	H	0.035019	-0.421597	0.792816
H194	H	0.018512	-0.346417	0.758168
C195	C	-0.001955	-0.344394	0.679765
C196	C	-0.001793	-0.386728	0.729795
H197	H	-0.024582	-0.344142	0.666018
H198	H	0.034200	-0.349852	0.654498
H199	H	-0.015600	-0.310469	0.684844
H200	H	0.011857	-0.420652	0.724714
H201	H	-0.037948	-0.381276	0.755061
O202	O	0.197074	0.012661	0.399257
C203	C	0.231036	0.012762	0.418866
H204	H	0.204776	0.029775	0.454040
H205	H	0.258816	-0.030743	0.433831
C206	C	0.298333	0.027766	0.329352
C207	C	0.266080	0.048666	0.372551
H208	H	0.319952	0.049910	0.300782
H209	H	0.275453	0.027695	0.316141
H210	H	0.321478	-0.008488	0.341830
H211	H	0.242931	0.084916	0.360073
H212	H	0.288957	0.048743	0.385758
O213	O	-0.081951	0.012224	0.614138
C214	C	-0.115939	0.012202	0.594503
H215	H	-0.101168	0.029382	0.547996
H216	H	-0.114464	-0.031363	0.608395
C217	C	-0.193156	0.026722	0.674232
C218	C	-0.175017	0.047827	0.617112
H219	H	-0.229598	0.048694	0.688180
H220	H	-0.170257	0.026734	0.687462
H221	H	-0.191921	-0.009583	0.685801
H222	H	-0.176245	0.084127	0.605543
H223	H	-0.197917	0.047821	0.603880
H224	H	0.051198	-0.697438	0.500669
H225	H	0.229358	-0.519614	0.822579
O226	O	0.378309	-0.569876	0.626595
C227	C	0.434880	-0.578817	0.603947
H228	H	0.442664	-0.539479	0.571185
H229	H	0.451124	-0.591989	0.637391
C230	C	0.454657	-0.672244	0.618526
C231	C	0.464217	-0.623930	0.578283
H232	H	0.472754	-0.700074	0.602697
H233	H	0.416544	-0.666222	0.633786
H234	H	0.468193	-0.683214	0.646393
H235	H	0.450675	-0.612957	0.550421
H236	H	0.502329	-0.629951	0.563018
O237	O	0.051036	-0.432865	0.638049
C238	C	0.037251	-0.480898	0.666827
H239	H	0.074922	-0.516805	0.656496
H240	H	0.021588	-0.488940	0.712574
C241	C	-0.053808	-0.429896	0.663110
C242	C	-0.007540	-0.473997	0.650418
H243	H	-0.081439	-0.425639	0.652990
H244	H	-0.044521	-0.397535	0.643723
H245	H	-0.066853	-0.436603	0.701232
H246	H	0.005508	-0.467286	0.612295
H247	H	-0.016826	-0.506356	0.669797
H248	H	0.229173	-0.519573	0.551126
O249	O	0.272603	-0.487229	0.583450
C250	C	0.301290	-0.520288	0.550329
H251	H	0.274044	-0.541088	0.557642
H252	H	0.313560	-0.493899	0.505563
C253	C	0.386321	-0.538406	0.555759
C254	C	0.352858	-0.563955	0.564745
H255	H	0.418132	-0.565340	0.564649
H256	H	0.366995	-0.516131	0.578072
H257	H	0.396541	-0.516416	0.518454
H258	H	0.342634	-0.585939	0.602050
H259	H	0.372184	-0.586235	0.542438
H260	H	0.270043	-0.526578	0.659994
O261	O	0.378089	-0.387508	0.557132
C262	C	0.340600	-0.334206	0.554085
H263	H	0.299852	-0.331982	0.557845
H264	H	0.334542	-0.323538	0.588712
C265	C	0.412924	-0.296132	0.494284
C266	C	0.362878	-0.293398	0.498898
H267	H	0.426666	-0.270959	0.460244
H268	H	0.438181	-0.332043	0.496338
H269	H	0.407869	-0.287243	0.523143
H270	H	0.367935	-0.302294	0.470043
H271	H	0.337622	-0.257488	0.496838
H272	H	0.270000	-0.358795	0.596010
O273	O	0.188901	-0.243625	0.499994
C274	C	0.169324	-0.257577	0.476269
H275	H	0.163745	-0.299084	0.503365
H276	H	0.128466	-0.225412	0.472040
C277	C	0.217524	-0.209221	0.386187
C278	C	0.210675	-0.260202	0.419464
H279	H	0.243029	-0.210838	0.351146
H280	H	0.230711	-0.199819	0.402171
H281	H	0.183472	-0.182422	0.382669
H282	H	0.244725	-0.286998	0.422988
H283	H	0.197494	-0.269608	0.403480
O284	O	0.097024	-0.243692	0.684101
C285	C	0.088982	-0.281182	0.737778
H286	H	0.095372	-0.321928	0.737676
H287	H	0.119423	-0.287256	0.754129
C288	C	0.022593	-0.208845	0.774588
C289	C	0.030437	-0.258888	0.774463
H290	H	-0.013519	-0.195093	0.797218
H291	H	0.028012	-0.183587	0.738425
H292	H	0.047965	-0.213914	0.788212
H293	H	0.005071	-0.253818	0.760833
H294	H	0.025012	-0.284145	0.810625
H295	H	0.094434	-0.400372	0.670409
H296	H	-0.032937	-0.528066	0.228816
O297	O	-0.072798	-0.556647	0.336904
C298	C	-0.080830	-0.502976	0.299397
H299	H	-0.046327	-0.503127	0.258692
H300	H	-0.121517	-0.486550	0.293235
C301	C	-0.123626	-0.466150	0.371729
C302	C	-0.081247	-0.466335	0.321736
H303	H	-0.123886	-0.443547	0.385509
H304	H	-0.118217	-0.502309	0.396999
H305	H	-0.157528	-0.452463	0.366588
H306	H	-0.047346	-0.480028	0.326879
H307	H	-0.086650	-0.430177	0.296467
H308	H	0.136793	-0.351798	0.712725
H309	H	0.016937	-0.731954	0.332612
O310	O	0.056838	-0.703372	0.224522
C311	C	0.064844	-0.757041	0.262033
H312	H	0.058394	-0.756926	0.302798
H313	H	0.034422	-0.773368	0.268041
C314	C	0.131319	-0.793907	0.189757
C315	C	0.123401	-0.793767	0.239824
H316	H	0.167439	-0.816562	0.176057
H317	H	0.125924	-0.757749	0.164485
H318	H	0.105964	-0.807512	0.194771
H319	H	0.148751	-0.780156	0.234809
H320	H	0.128802	-0.829923	0.265095
H321	H	-0.033252	-0.528055	0.415829
O322	O	0.018840	-0.740781	0.468226
C323	C	-0.000804	-0.764507	0.525466
H324	H	-0.006429	-0.737432	0.545513
H325	H	-0.041651	-0.768699	0.538302
C326	C	0.047423	-0.854591	0.518950
C327	C	0.040519	-0.821339	0.543572
H328	H	0.072911	-0.889648	0.530119
H329	H	0.060656	-0.838606	0.480386
H330	H	0.013381	-0.858078	0.529649
H331	H	0.074559	-0.817847	0.532868
H332	H	0.027293	-0.837324	0.582135
O333	O	0.064193	-0.733804	0.387350
C334	C	0.103040	-0.747804	0.340255
H335	H	0.105718	-0.789293	0.345404
H336	H	0.090193	-0.715634	0.303186
C337	C	0.155924	-0.699553	0.325605
C338	C	0.159216	-0.750512	0.331931
H339	H	0.190575	-0.701221	0.320469
H340	H	0.129751	-0.690118	0.357332
H341	H	0.145215	-0.672750	0.294715
H342	H	0.169917	-0.777313	0.362825
H343	H	0.185392	-0.759952	0.300209
O344	O	-0.118195	-0.733613	0.456603
C345	C	-0.146543	-0.771049	0.484606
H346	H	-0.117210	-0.811817	0.478061
H347	H	-0.164393	-0.777091	0.530078
C348	C	-0.229048	-0.698635	0.470649
C349	C	-0.193022	-0.748706	0.462606
H350	H	-0.257720	-0.684852	0.457081
H351	H	-0.209950	-0.673413	0.451784
H352	H	-0.243917	-0.703676	0.508543
H353	H	-0.178148	-0.743662	0.424712
H354	H	-0.212118	-0.773926	0.481464
O355	O	-0.112138	-0.694592	0.513988
C356	C	-0.149691	-0.702646	0.567631
H357	H	-0.190405	-0.668147	0.567454
H358	H	-0.155805	-0.743339	0.583988
C359	C	-0.077453	-0.745450	0.604588
C360	C	-0.127456	-0.703075	0.604371
H361	H	-0.063737	-0.745717	0.627252
H362	H	-0.052152	-0.740025	0.568448
H363	H	-0.082554	-0.779356	0.618218
H364	H	-0.122353	-0.669169	0.590735
H365	H	-0.152756	-0.708494	0.640509
O366	O	-0.224312	-0.564958	0.367069
C367	C	-0.186760	-0.556930	0.313426
H368	H	-0.146039	-0.563364	0.313612
H369	H	-0.180667	-0.587355	0.297042
C370	C	-0.258995	-0.490471	0.276481
C371	C	-0.208981	-0.498368	0.276709
H372	H	-0.272702	-0.454348	0.253831
H373	H	-0.284295	-0.495880	0.312621
H374	H	-0.253910	-0.515828	0.262829
H375	H	-0.214068	-0.473016	0.290367
H376	H	-0.183682	-0.492954	0.240570
O377	O	0.024899	-0.424323	0.399757
C378	C	-0.028752	-0.390452	0.419571
H379	H	-0.054623	-0.416799	0.454635
H380	H	-0.027928	-0.362893	0.434754
C381	C	-0.021747	-0.322734	0.330273
C382	C	-0.053523	-0.355093	0.373336
H383	H	-0.037027	-0.300921	0.301754
H384	H	0.014399	-0.345552	0.316924
H385	H	-0.021063	-0.299773	0.342933
H386	H	-0.054201	-0.378059	0.360678
H387	H	-0.089670	-0.332278	0.386682
H388	H	-0.067739	-0.562558	0.381123
H389	H	0.092838	-0.841923	0.426277
O390	O	-0.224751	-0.656832	0.551264
C391	C	-0.257821	-0.608787	0.565043
H392	H	-0.240547	-0.574483	0.532850
H393	H	-0.301116	-0.596710	0.566853
C394	C	-0.280013	-0.661089	0.660677
C395	C	-0.258793	-0.618958	0.621140
H396	H	-0.280615	-0.667363	0.695281
H397	H	-0.257734	-0.693459	0.651395
H398	H	-0.316090	-0.651020	0.662178
H399	H	-0.222715	-0.629031	0.619634
H400	H	-0.281066	-0.586590	0.630423
H401	H	-0.074948	-0.841721	0.489940
H402	H	-0.116227	-0.604815	0.338615
