data_functionalizedCrystal
_audit_creation_method	'MofGen! by Chris Wilmer'
_symmetry_space_group_name_H-M	'P1'
_symmetry_Int_Tables_number	1
_symmetry_cell_setting	triclinic
loop_
_symmetry_equiv_pos_as_xyz
  x,y,z
_cell_length_a	14.519709
_cell_length_b	19.288865
_cell_length_c	18.366186
_cell_angle_alpha	89.988521
_cell_angle_beta	89.996571
_cell_angle_gamma	83.408197
loop_
_atom_site_label
_atom_site_type_symbol
_atom_site_fract_x
_atom_site_fract_y
_atom_site_fract_z
O1	O	1.223296	0.091051	-0.060464
O2	O	0.954751	0.101773	-0.060487
O3	O	1.096783	-0.004690	-0.060460
O4	O	1.081264	0.197514	-0.060490
O5	O	1.096759	-0.004696	0.060639
O6	O	0.954727	0.101768	0.060613
O7	O	1.223272	0.091046	0.060636
Zn8	Zn	1.088995	0.096406	0.079851
Zn9	Zn	1.089027	0.096413	-0.079702
O10	O	1.081240	0.197509	0.060609
C11	C	0.920382	0.101271	0.000060
C12	C	0.818010	0.099773	0.000052
C13	C	1.096272	-0.030571	0.000092
C14	C	1.094773	-0.107680	0.000098
C15	C	1.178111	-0.152077	0.000109
C16	C	1.176702	-0.224529	0.000097
C17	C	1.091951	-0.252581	0.000089
C18	C	1.008602	-0.208175	0.000074
C19	C	1.010013	-0.135725	0.000079
C20	C	1.025319	-0.361110	0.042502
C21	C	1.023911	-0.433560	0.042502
C22	C	1.087597	-0.476043	0.000073
C23	C	1.152705	-0.446068	-0.042348
C24	C	1.154116	-0.373618	-0.042343
C25	C	1.090412	-0.331141	0.000084
C26	C	1.169414	-0.599000	0.000070
C27	C	1.168002	-0.671454	0.000054
C28	C	0.999899	-0.655098	0.000038
C29	C	1.001314	-0.582647	0.000047
C30	C	1.086073	-0.554602	0.000066
C31	C	0.443150	0.094261	0.000086
C32	C	0.547448	0.095792	0.000076
C33	C	0.630577	0.097017	0.000068
C34	C	0.734882	0.098548	0.000060
C35	C	1.257640	0.091548	0.000087
C36	C	1.360012	0.093045	0.000091
C37	C	1.081751	0.223390	0.000056
C38	C	1.083250	0.300499	0.000045
N39	N	1.088981	0.096401	0.188742
N40	N	1.089049	0.096413	-0.188594
C41	C	1.151893	0.049282	0.226855
C42	C	1.151899	0.049279	0.303082
C43	C	1.089001	0.096406	0.341195
C44	C	1.026077	0.143529	0.303074
C45	C	1.026067	0.143526	0.226847
C46	C	1.076656	0.159650	0.461945
C47	C	1.076672	0.159654	0.538170
C48	C	1.089027	0.096415	0.576303
C49	C	1.101385	0.033170	0.538201
C50	C	1.101375	0.033167	0.461974
C51	C	1.089005	0.096415	0.423850
C52	C	1.151949	0.049289	0.697070
C53	C	1.151949	0.049285	0.773299
C54	C	1.026131	0.143541	0.773289
C55	C	1.026128	0.143539	0.697061
C56	C	1.089041	0.096414	0.658956
H57	H	1.247128	-0.129248	0.000122
H58	H	0.974835	0.181896	0.195816
H59	H	1.203177	0.010912	0.804331
N60	N	0.913335	-0.683755	0.000022
N61	N	0.912085	-0.748444	0.000014
H62	H	0.850947	-0.768687	-0.000001
H63	H	1.066579	0.211150	0.430904
N64	N	1.216178	0.001165	0.342035
N65	N	1.216185	0.001184	0.410094
H66	H	1.261586	-0.032792	0.437604
N67	N	0.960277	-0.317710	0.085851
N68	N	0.961548	-0.253024	0.085853
H69	H	0.915615	-0.222371	0.116467
H70	H	0.974863	0.181900	0.334109
H71	H	0.974915	0.181911	0.804320
H72	H	1.207127	-0.349216	-0.076885
H73	H	1.204564	-0.480657	-0.076898
N74	N	1.255997	-0.570360	0.000091
N75	N	1.330403	-0.610012	0.000096
H76	H	1.391554	-0.589787	0.000113
H77	H	1.111435	-0.018329	0.430955
N78	N	1.261842	-0.269880	0.000122
N79	N	1.318254	-0.267272	0.051182
H80	H	1.378385	-0.299299	0.051202
N81	N	1.253143	-0.716796	0.000055
N82	N	1.328809	-0.691744	0.000069
H83	H	1.388943	-0.723767	0.000069
N84	N	0.916176	-0.537303	0.000039
N85	N	0.840510	-0.562355	0.000029
H86	H	0.780376	-0.530331	0.000021
N87	N	0.961857	0.191676	0.658137
N88	N	0.905699	0.233749	0.692172
H89	H	0.860302	0.267746	0.664683
N90	N	0.957434	-0.464166	0.085864
N91	N	0.900585	-0.426231	0.123753
H92	H	0.853642	-0.447846	0.154388
N93	N	0.922039	-0.236838	0.000060
N94	N	0.920790	-0.301526	0.000057
H95	H	0.859652	-0.321770	0.000043
H96	H	1.203119	0.010908	0.195832
N97	N	0.924873	-0.090381	0.000064
N98	N	0.849206	-0.115432	0.000050
H99	H	0.789073	-0.083407	0.000039
N100	N	1.113992	-0.031426	0.577152
N101	N	1.113983	-0.031418	0.645211
H102	H	1.122882	-0.077038	0.672724
N103	N	1.216101	0.001063	0.658153
N104	N	1.272189	-0.041068	0.692195
H105	H	1.317454	-0.075162	0.664712
H106	H	1.066616	0.211151	0.569187
