data_functionalizedCrystal
_audit_creation_method	'MofGen! by Chris Wilmer'
_symmetry_space_group_name_H-M	'P1'
_symmetry_Int_Tables_number	1
_symmetry_cell_setting	triclinic
loop_
_symmetry_equiv_pos_as_xyz
  x,y,z
_cell_length_a	9.482900
_cell_length_b	14.971486
_cell_length_c	10.908878
_cell_angle_alpha	108.150540
_cell_angle_beta	82.984801
_cell_angle_gamma	80.704073
loop_
_atom_site_label
_atom_site_type_symbol
_atom_site_fract_x
_atom_site_fract_y
_atom_site_fract_z
O1	O	0.120726	-1.178838	0.147252
O2	O	0.120766	-0.915448	0.167281
O3	O	0.120735	-1.082058	-0.029610
O4	O	0.120756	-1.012228	0.344143
O5	O	-0.121051	-1.048192	0.010544
O6	O	-0.121021	-0.881582	0.207435
O7	O	-0.121060	-1.144972	0.187406
Cu8	Cu	-0.143118	-1.010185	0.201087
Cu9	Cu	0.142823	-1.050235	0.153600
O10	O	-0.121030	-0.978362	0.384297
C11	C	-0.000123	-0.865325	0.186461
C12	C	-0.000108	-0.766432	0.183773
N13	N	-0.344233	-0.982022	0.234485
C14	C	-0.000157	-1.071651	-0.057365
C15	C	-0.000155	-1.091087	-0.199888
C16	C	-0.416443	-1.041923	0.163445
C17	C	-0.583856	-1.018497	0.191243
N18	N	0.343938	-1.078407	0.120192
C19	C	-0.000169	-1.195096	0.168225
C20	C	-0.000174	-1.293991	0.170911
C21	C	-0.000103	-0.691915	0.299444
C22	C	-0.000125	-0.598991	0.296917
C23	C	-0.000141	-0.580587	0.178716
C24	C	-0.000150	-0.655111	0.063038
C25	C	-0.000138	-0.748032	0.065568
C26	C	-0.000170	-0.461434	0.057772
C27	C	-0.000179	-0.368507	0.055241
C28	C	-0.000157	-0.312392	0.289121
C29	C	-0.000145	-0.405313	0.291651
C30	C	-0.000151	-0.479832	0.175971
C31	C	-0.000142	-1.020173	-0.249008
C32	C	-0.000140	-1.040259	-0.396312
C33	C	-0.000134	-0.988770	0.412051
C34	C	-0.000127	-0.969335	0.554573
H35	H	-0.354327	-1.110549	0.082039
F36	F	-0.000176	-0.635521	-0.062759
H37	H	-0.000140	-0.944590	-0.182006
H38	H	-0.000089	-0.706890	0.395696
H39	H	-0.000171	-1.166668	-0.266888
H40	H	-0.000141	-0.808705	-0.028623
F41	F	-0.000163	-1.139057	-0.483876
F42	F	-0.000181	-0.540741	-0.065347
F43	F	-0.574885	-1.168232	0.014002
F44	F	-0.000114	-0.519688	0.420028
H45	H	-0.406350	-0.913392	0.315881
F46	F	-0.665037	-0.928786	0.297640
H47	H	-0.000118	-0.420295	0.387898
H48	H	-0.000194	-0.353527	-0.041008
F49	F	-0.000153	-0.233083	0.412237
F50	F	-0.000128	-0.870533	-0.357862
