data_functionalizedCrystal
_audit_creation_method	'MofGen! by Chris Wilmer'
_symmetry_space_group_name_H-M	'P1'
_symmetry_Int_Tables_number	1
_symmetry_cell_setting	triclinic
loop_
_symmetry_equiv_pos_as_xyz
  x,y,z
_cell_length_a	29.839134
_cell_length_b	29.839131
_cell_length_c	29.839125
_cell_angle_alpha	90.017709
_cell_angle_beta	90.021980
_cell_angle_gamma	90.036281
loop_
_atom_site_label
_atom_site_type_symbol
_atom_site_fract_x
_atom_site_fract_y
_atom_site_fract_z
Zn1	Zn	0.686720	-0.178978	0.254125
Zn2	Zn	1.186720	0.321022	0.754125
Zn3	Zn	0.686652	-0.254090	0.178995
Zn4	Zn	1.186652	0.245910	0.678995
Zn5	Zn	0.611602	-0.178968	0.178995
Zn6	Zn	1.111602	0.321032	0.678995
Zn7	Zn	0.611550	-0.254075	0.254083
Zn8	Zn	1.111550	0.245925	0.754083
O9	O	0.649131	-0.216528	0.216549
O10	O	1.149131	0.283472	0.716549
O11	O	0.749578	-0.188952	0.244176
O12	O	1.249578	0.311048	0.744176
O13	O	0.676690	-0.244127	0.116128
O14	O	1.176690	0.255873	0.616128
O15	O	0.621617	-0.116102	0.188978
O16	O	1.121617	0.383898	0.688978
O17	O	0.749528	-0.244137	0.188979
O18	O	1.249528	0.255863	0.688979
O19	O	0.676805	-0.116109	0.244176
O20	O	1.176805	0.383891	0.744176
O21	O	0.621551	-0.188935	0.116127
O22	O	1.121551	0.311065	0.616127
O23	O	0.548728	-0.188921	0.188938
O24	O	1.048728	0.311079	0.688938
O25	O	0.621528	-0.244111	0.316956
O26	O	1.121528	0.255889	0.816956
O27	O	0.548690	-0.244101	0.244105
O28	O	1.048690	0.255899	0.744105
O29	O	0.676755	-0.188937	0.316987
O30	O	1.176755	0.311063	0.816987
O31	O	0.676639	-0.316955	0.188938
O32	O	1.176639	0.183045	0.688938
O33	O	0.621462	-0.316944	0.244105
O34	O	1.121462	0.183056	0.744105
C35	C	0.532408	-0.216509	0.216517
C36	C	1.032408	0.283491	0.716517
C37	C	0.482474	-0.216511	0.216514
C38	C	0.982474	0.283489	0.716514
C39	C	0.172820	-0.245303	0.245240
C40	C	0.672820	0.254697	0.745240
C41	C	-0.014853	-0.245315	0.245260
C42	C	0.485147	0.254685	0.745260
O43	O	-0.039127	-0.269774	0.269665
O44	O	0.460873	0.230226	0.769665
N45	N	-0.038311	-0.216544	0.216583
N46	N	0.461689	0.283456	0.716583
C47	C	-0.014848	-0.187766	0.187902
C48	C	0.485152	0.312234	0.687902
O49	O	-0.039107	-0.163291	0.163514
O50	O	0.460893	0.336709	0.663514
C51	C	0.172824	-0.187751	0.187884
C52	C	0.672824	0.312249	0.687884
C53	C	0.196280	-0.216527	0.216560
C54	C	0.696280	0.283473	0.716560
C55	C	0.196276	-0.274076	0.273913
C56	C	0.696276	0.225924	0.773913
C57	C	0.243191	-0.274075	0.273906
C58	C	0.743191	0.225925	0.773906
C59	C	0.266651	-0.245299	0.245226
C60	C	0.766651	0.254701	0.745226
C61	C	0.243195	-0.216526	0.216553
C62	C	0.743195	0.283474	0.716553
C63	C	0.196286	-0.158971	0.159205
C64	C	0.696286	0.341029	0.659205
C65	C	0.243207	-0.158969	0.159204
C66	C	0.743207	0.341031	0.659204
C67	C	0.266663	-0.187745	0.187880
C68	C	0.766663	0.312255	0.687880
C69	C	0.313570	-0.187749	0.187865
C70	C	0.813570	0.312251	0.687865
N71	N	0.337029	-0.216520	0.216542
N72	N	0.837029	0.283480	0.716542
C73	C	0.313569	-0.245295	0.245222
C74	C	0.813569	0.254705	0.745222
C75	C	-0.113379	-0.187776	0.187912
C76	C	0.386621	0.312224	0.687912
C77	C	-0.160297	-0.187780	0.187916
C78	C	0.339703	0.312220	0.687916
C79	C	-0.160298	-0.245329	0.245275
C80	C	0.339702	0.254671	0.745275
C81	C	-0.113380	-0.245327	0.245269
C82	C	0.386620	0.254673	0.745269
C83	C	-0.089921	-0.216547	0.216589
C84	C	0.410079	0.283453	0.716589
C85	C	0.412095	-0.245290	0.245205
C86	C	0.912095	0.254710	0.745205
C87	C	0.459014	-0.245287	0.245194
C88	C	0.959014	0.254713	0.745194
C89	C	0.459012	-0.187736	0.187837
C90	C	0.959012	0.312264	0.687837
C91	C	0.412096	-0.187740	0.187846
C92	C	0.912096	0.312260	0.687846
C93	C	0.388639	-0.216519	0.216534
C94	C	0.888639	0.283481	0.716534
O95	O	0.337873	-0.163299	0.163477
O96	O	0.837873	0.336701	0.663477
O97	O	0.337836	-0.269759	0.269613
O98	O	0.837836	0.230241	0.769613
C99	C	0.125905	-0.245304	0.245247
C100	C	0.625905	0.254696	0.745247
C101	C	0.102449	-0.216531	0.216574
C102	C	0.602449	0.283469	0.716574
C103	C	0.125909	-0.187755	0.187893
C104	C	0.625909	0.312245	0.687893
C105	C	0.055531	-0.216535	0.216577
C106	C	0.555531	0.283465	0.716577
C107	C	0.032071	-0.245310	0.245258
C108	C	0.532071	0.254690	0.745258
C109	C	0.055529	-0.274082	0.273934
C110	C	0.555529	0.225918	0.773934
C111	C	0.102445	-0.274080	0.273927
C112	C	0.602445	0.225920	0.773927
C113	C	0.102451	-0.158984	0.159217
C114	C	0.602451	0.341016	0.659217
C115	C	0.055535	-0.158989	0.159226
C116	C	0.555535	0.341011	0.659226
C117	C	0.032075	-0.187764	0.187906
C118	C	0.532075	0.312236	0.687906
C119	C	0.649050	-0.333250	0.216527
C120	C	1.149050	0.166750	0.716527
C121	C	0.649056	-0.383185	0.216533
C122	C	1.149056	0.116815	0.716533
C123	C	0.677914	-0.692821	0.187866
C124	C	1.177914	-0.192821	0.687866
C125	C	0.677969	-0.880494	0.187883
C126	C	1.177969	-0.380494	0.687883
O127	O	0.702441	-0.904753	0.163493
O128	O	1.202441	-0.404753	0.663493
N129	N	0.649224	-0.903970	0.216583
N130	N	1.149224	-0.403970	0.716583
C131	C	0.620465	-0.880524	0.245283
C132	C	1.120465	-0.380524	0.745283
O133	O	0.596020	-0.904798	0.269698
O134	O	1.096020	-0.404798	0.769698
C135	C	0.620412	-0.692852	0.245268
C136	C	1.120412	-0.192852	0.745268
C137	C	0.649156	-0.669379	0.216563
C138	C	1.149156	-0.169379	0.716563
C139	C	0.706656	-0.669348	0.159164
C140	C	1.206656	-0.169348	0.659164
C141	C	0.706640	-0.622433	0.159158
C142	C	1.206640	-0.122433	0.659158
C143	C	0.677882	-0.598990	0.187854
C144	C	1.177882	-0.098990	0.687854
C145	C	0.649140	-0.622463	0.216557
C146	C	1.149140	-0.122463	0.716557
C147	C	0.591656	-0.669407	0.273969
C148	C	1.091656	-0.169407	0.773969
C149	C	0.591646	-0.622486	0.273964
C150	C	1.091646	-0.122486	0.773964
C151	C	0.620390	-0.599013	0.245259
C152	C	1.120390	-0.099013	0.745259
C153	C	0.620367	-0.552106	0.245248
C154	C	1.120367	-0.052106	0.745248
N155	N	0.649112	-0.528630	0.216548
N156	N	1.149112	-0.028630	0.716548
C157	C	0.677869	-0.552072	0.187851
C158	C	1.177869	-0.052072	0.687851
C159	C	0.620494	-0.979055	0.245289
C160	C	1.120494	-0.479055	0.745289
C161	C	0.620507	-1.025973	0.245292
C162	C	1.120507	-0.525973	0.745292
C163	C	0.678012	-1.025939	0.187893
C164	C	1.178012	-0.525939	0.687893
C165	C	0.677996	-0.979021	0.187887
C166	C	1.177996	-0.479021	0.687887
C167	C	0.649239	-0.955579	0.216589
C168	C	1.149239	-0.455579	0.716589
C169	C	0.677834	-0.453547	0.187841
C170	C	1.177834	0.046453	0.687841
C171	C	0.677814	-0.406627	0.187836
C172	C	1.177814	0.093373	0.687836
C173	C	0.620311	-0.406664	0.245237
C174	C	1.120311	0.093336	0.745237
C175	C	0.620329	-0.453580	0.245240
C176	C	1.120329	0.046420	0.745240
C177	C	0.649094	-0.477020	0.216540
C178	C	1.149094	0.022980	0.716540
O179	O	0.595912	-0.527818	0.269629
O180	O	1.095912	-0.027818	0.769629
O181	O	0.702318	-0.527791	0.163447
O182	O	1.202318	-0.027791	0.663447
C183	C	0.677930	-0.739737	0.187872
C184	C	1.177930	-0.239737	0.687872
C185	C	0.649188	-0.763210	0.216574
C186	C	1.149188	-0.263210	0.716574
C187	C	0.620430	-0.739767	0.245271
C188	C	1.120430	-0.239767	0.745271
C189	C	0.649200	-0.810128	0.216578
C190	C	1.149200	-0.310128	0.716578
C191	C	0.677958	-0.833570	0.187881
C192	C	1.177958	-0.333570	0.687881
C193	C	0.706703	-0.810094	0.159181
C194	C	1.206703	-0.310094	0.659181
C195	C	0.706687	-0.763179	0.159175
C196	C	1.206687	-0.263179	0.659175
C197	C	0.591685	-0.763243	0.273971
C198	C	1.091685	-0.263243	0.773971
C199	C	0.591703	-0.810158	0.273974
C200	C	1.091703	-0.310158	0.773974
C201	C	0.620461	-0.833601	0.245277
C202	C	1.120461	-0.333601	0.745277
C203	C	0.766309	-0.216547	0.216582
C204	C	1.266309	0.283453	0.716582
C205	C	0.816244	-0.216555	0.216596
C206	C	1.316244	0.283445	0.716596
C207	C	0.649143	-0.216524	0.333728
C208	C	1.149143	0.283476	0.833728
C209	C	0.649148	-0.216522	0.383662
C210	C	1.149148	0.283478	0.883662
C211	C	0.649225	-0.099349	0.216582
C212	C	1.149225	0.400651	0.716582
C213	C	0.649265	-0.049415	0.216595
C214	C	1.149265	0.450585	0.716595
C215	C	0.649145	-0.216499	0.099827
C216	C	1.149145	0.283501	0.599827
C217	C	0.649227	-0.216374	0.049893
C218	C	1.149227	0.283626	0.549893
C219	C	0.677935	-0.187718	0.693325
C220	C	1.177935	0.312282	1.193325
C221	C	0.677957	-0.187680	0.880998
C222	C	1.177957	0.312320	1.380998
O223	O	0.702399	-0.163232	0.905279
O224	O	1.202399	0.336768	1.405279
N225	N	0.649208	-0.216402	0.904448
N226	N	1.149208	0.283598	1.404448
C227	C	0.620449	-0.245133	0.880976
C228	C	1.120449	0.254867	1.380976
O229	O	0.595993	-0.269559	0.905228
O230	O	1.095993	0.230441	1.405228
C231	C	0.620424	-0.245169	0.693304
C232	C	1.120424	0.254831	1.193304
C233	C	0.649179	-0.216448	0.669857
C234	C	1.149179	0.283552	1.169857
C235	C	0.706687	-0.158999	0.669877
C236	C	1.206687	0.341001	1.169877
C237	C	0.706683	-0.159011	0.622962
C238	C	1.206683	0.340989	1.122962
C239	C	0.677927	-0.187741	0.599494
C240	C	1.177927	0.312259	1.099494
C241	C	0.649175	-0.216460	0.622941
C242	C	1.149175	0.283540	1.122941
C243	C	0.591663	-0.273898	0.669833
C244	C	1.091663	0.226102	1.169833
C245	C	0.591659	-0.273903	0.622912
C246	C	1.091659	0.226097	1.122912
C247	C	0.620414	-0.245183	0.599465
C248	C	1.120414	0.254817	1.099465
C249	C	0.620415	-0.245202	0.552558
C250	C	1.120415	0.254798	1.052558
N251	N	0.649164	-0.216480	0.529108
N252	N	1.149164	0.283520	1.029108
C253	C	0.677920	-0.187749	0.552576
C254	C	1.177920	0.312251	1.052576
C255	C	0.620464	-0.245113	0.979507
C256	C	1.120464	0.254887	1.479507
C257	C	0.620471	-0.245105	1.026425
C258	C	1.120471	0.254895	1.526425
C259	C	0.677979	-0.187650	1.026443
C260	C	1.177979	0.312350	1.526443
C261	C	0.677974	-0.187661	0.979524
C262	C	1.177974	0.312339	1.479524
C263	C	0.649214	-0.216391	0.956057
C264	C	1.149214	0.283609	1.456057
C265	C	0.677910	-0.187776	0.454050
C266	C	1.177910	0.312224	0.954050
C267	C	0.677904	-0.187792	0.407130
C268	C	1.177904	0.312208	0.907130
C269	C	0.620395	-0.245244	0.407116
C270	C	1.120395	0.254756	0.907116
C271	C	0.620401	-0.245230	0.454032
C272	C	1.120401	0.254770	0.954032
C273	C	0.649161	-0.216493	0.477497
C274	C	1.149161	0.283507	0.977497
O275	O	0.595982	-0.269633	0.528248
O276	O	1.095982	0.230367	1.028248
O277	O	0.702366	-0.163320	0.528316
O278	O	1.202366	0.336680	1.028316
C279	C	0.677939	-0.187706	0.740240
C280	C	1.177939	0.312294	1.240240
C281	C	0.649187	-0.216425	0.763688
C282	C	1.149187	0.283575	1.263688
C283	C	0.620431	-0.245155	0.740219
C284	C	1.120431	0.254845	1.240219
C285	C	0.649194	-0.216417	0.810605
C286	C	1.149194	0.283583	1.310605
C287	C	0.677950	-0.187686	0.834074
C288	C	1.177950	0.312314	1.334074
C289	C	0.706699	-0.158964	0.810624
C290	C	1.206699	0.341036	1.310624
C291	C	0.706695	-0.158976	0.763708
C292	C	1.206695	0.341024	1.263708
C293	C	0.591682	-0.273877	0.763669
C294	C	1.091682	0.226123	1.263669
C295	C	0.591689	-0.273864	0.810585
C296	C	1.091689	0.226136	1.310585
C297	C	0.620445	-0.245133	0.834053
C298	C	1.120445	0.254867	1.334053
H299	H	0.393001	-0.268723	0.268566
H300	H	0.893001	0.231277	0.768566
O301	O	0.709007	-0.953709	0.156932
O302	O	1.209007	-0.453709	0.656932
H303	H	0.731843	-0.932307	0.177066
H304	H	1.231843	-0.432307	0.677066
H305	H	0.392998	-0.164309	0.164496
H306	H	0.892998	0.335691	0.664496
H307	H	0.730115	-0.135573	0.829740
H308	H	1.230115	0.364427	1.329740
H309	H	0.262285	-0.297506	0.297258
H310	H	0.762285	0.202494	0.797258
H311	H	0.730076	-0.688430	0.135795
H312	H	1.230076	-0.188430	0.635795
O313	O	0.030237	-0.127955	0.128291
O314	O	0.530237	0.372045	0.628291
H315	H	0.008882	-0.105131	0.148441
H316	H	0.508882	0.394869	0.648441
O317	O	0.589296	-0.381376	0.276190
O318	O	1.089296	0.118624	0.776190
H319	H	0.594122	-0.344809	0.271365
H320	H	1.094122	0.155191	0.771365
H321	H	0.568292	-0.829266	0.297349
H322	H	1.068292	-0.329266	0.797349
O323	O	0.709032	-1.051234	0.156947
O324	O	1.209032	-0.551234	0.656947
H325	H	0.701355	-1.042259	0.121675
H326	H	1.201355	-0.542259	0.621675
H327	H	0.596984	-0.268637	0.388000
H328	H	1.096984	0.231363	0.888000
H329	H	0.701388	-0.164274	0.960437
H330	H	1.201388	0.335726	1.460437
H331	H	0.597097	-1.045080	0.268662
H332	H	1.097097	-0.545080	0.768662
O333	O	0.589457	-0.276083	1.051711
O334	O	1.089457	0.223917	1.551711
H335	H	0.597128	-0.311345	1.042700
H336	H	1.097128	0.188655	1.542700
O337	O	0.708864	-0.478817	0.156887
O338	O	1.208864	0.021183	0.656887
H339	H	0.731720	-0.500156	0.177021
H340	H	1.231720	-0.000156	0.677021
H341	H	0.730110	-0.135588	0.744622
H342	H	1.230110	0.364412	1.244622
H343	H	0.177180	-0.297509	0.297271
H344	H	0.677180	0.202491	0.797271
H345	H	0.478121	-0.164309	0.164485
H346	H	0.978121	0.335691	0.664485
H347	H	0.701393	-0.164257	1.045559
H348	H	1.201393	0.335743	1.545559
H349	H	0.597044	-0.268511	0.960404
H350	H	1.097044	0.231489	1.460404
H351	H	0.036420	-0.297513	0.297286
H352	H	0.536420	0.202487	0.797286
O353	O	0.708928	-0.156776	0.479349
O354	O	1.208928	0.343224	0.979349
H355	H	0.688842	-0.133904	0.500714
H356	H	1.188842	0.366096	1.000714
O357	O	0.560670	-0.304840	0.835873
O358	O	1.060670	0.195160	1.335873
H359	H	0.540672	-0.324814	0.811667
H360	H	1.040672	0.175186	1.311667
H361	H	0.596991	-0.268621	0.473123
H362	H	1.096991	0.231379	0.973123
H363	H	0.568265	-0.297274	0.744566
H364	H	1.068265	0.202726	1.244566
O365	O	0.127744	-0.127948	0.128274
O366	O	0.627744	0.372052	0.628274
H367	H	0.149142	-0.105112	0.148411
H368	H	0.649142	0.394888	0.648411
H369	H	0.568233	-0.297294	0.603808
H370	H	1.068233	0.202706	1.103808
H371	H	0.478110	-0.268721	0.268545
H372	H	0.978110	0.231279	0.768545
H373	H	-0.179407	-0.268759	0.268628
H374	H	0.320593	0.231241	0.768628
H375	H	0.597076	-0.959972	0.268661
H376	H	1.097076	-0.459972	0.768661
O377	O	0.127741	-0.305113	0.304860
O378	O	0.627741	0.194887	0.804860
H379	H	0.103540	-0.325116	0.324805
H380	H	0.603540	0.174884	0.824805
H381	H	0.568229	-0.603402	0.297337
H382	H	1.068229	-0.103402	0.797337
H383	H	-0.094285	-0.268759	0.268619
H384	H	0.405715	0.231241	0.768619
O385	O	-0.185594	-0.156746	0.156986
O386	O	0.314406	0.343254	0.656986
H387	H	-0.161394	-0.136734	0.137047
H388	H	0.338606	0.363266	0.637047
O389	O	0.560643	-0.304870	0.695117
O390	O	1.060643	0.195130	1.195117
H391	H	0.540644	-0.324840	0.670908
H392	H	1.040644	0.175160	1.170908
H393	H	0.701220	-0.387517	0.164459
H394	H	1.201220	0.112483	0.664459
H395	H	0.730047	-0.603324	0.135785
H396	H	1.230047	-0.103324	0.635785
O397	O	0.737727	-0.835388	0.128239
O398	O	1.237727	-0.335388	0.628239
H399	H	0.717647	-0.856801	0.105366
H400	H	1.217647	-0.356801	0.605366
H401	H	0.568248	-0.688511	0.297342
H402	H	1.068248	-0.188511	0.797342
H403	H	-0.094283	-0.164339	0.164556
H404	H	0.405717	0.335661	0.664556
H405	H	0.177197	-0.135539	0.135854
H406	H	0.677197	0.364461	0.635854
H407	H	0.262305	-0.135529	0.135852
H408	H	0.762305	0.364471	0.635852
H409	H	0.730093	-0.744071	0.135801
H410	H	1.230093	-0.244071	0.635801
O411	O	0.589327	-0.478902	0.276198
O412	O	1.089327	0.021098	0.776198
H413	H	0.569329	-0.454716	0.296153
H414	H	1.069329	0.045284	0.796153
H415	H	0.568268	-0.744160	0.297340
H416	H	1.068268	-0.244160	0.797340
H417	H	0.701321	-0.164403	0.388042
H418	H	1.201321	0.335597	0.888042
O419	O	0.737694	-0.128031	0.597674
O420	O	1.237694	0.371969	1.097674
H421	H	0.757685	-0.108052	0.621882
H422	H	1.257685	0.391948	1.121882
H423	H	0.730104	-0.135601	0.688980
H424	H	1.230104	0.364399	1.188980
