data_functionalizedCrystal
_audit_creation_method	'MofGen! by Chris Wilmer'
_symmetry_space_group_name_H-M	'P1'
_symmetry_Int_Tables_number	1
_symmetry_cell_setting	triclinic
loop_
_symmetry_equiv_pos_as_xyz
  x,y,z
_cell_length_a	16.704486
_cell_length_b	31.640172
_cell_length_c	31.640172
_cell_angle_alpha	90.008445
_cell_angle_beta	57.663543
_cell_angle_gamma	57.656541
loop_
_atom_site_label
_atom_site_type_symbol
_atom_site_fract_x
_atom_site_fract_y
_atom_site_fract_z
Zr1	Zr	0.947430	0.370868	-0.091728
O2	O	1.128028	0.296455	-0.166142
O3	O	0.766831	0.398479	-0.064115
O4	O	0.947407	0.391557	-0.159206
O5	O	0.947470	0.303378	-0.001504
O6	O	0.947389	0.461115	-0.159196
O7	O	0.947452	0.303377	-0.071051
O8	O	0.624372	0.473498	0.010904
O9	O	1.270487	0.290995	-0.171603
O10	O	0.841100	0.456366	-0.058132
O11	O	0.841127	0.404456	-0.006237
O12	O	1.053732	0.396306	-0.118194
O13	O	1.053759	0.344396	-0.066298
Zr14	Zr	0.947430	0.481805	0.019208
Zr15	Zr	0.947401	0.481804	-0.091712
Zr16	Zr	0.947458	0.370868	0.019192
Zr17	Zr	1.174636	0.362159	-0.100439
Zr18	Zr	0.720224	0.490513	0.027918
O19	O	1.128028	0.454193	-0.008405
O20	O	1.127987	0.454193	-0.166119
O21	O	1.128069	0.296456	-0.008428
O22	O	0.766831	0.556217	0.093622
O23	O	0.766790	0.556217	-0.064093
O24	O	0.766872	0.398480	0.093599
O25	O	0.947389	0.549295	-0.071016
O26	O	0.947452	0.461116	0.086686
O27	O	0.947470	0.391558	0.086676
O28	O	0.947407	0.549295	-0.001469
O29	O	1.270464	0.379175	-0.171591
O30	O	0.624395	0.473498	0.099071
O31	O	0.624372	0.561678	0.099083
O32	O	0.624349	0.561677	0.010916
O33	O	1.270510	0.290995	-0.083437
O34	O	1.270487	0.379175	-0.083424
O35	O	0.841127	0.456367	0.045673
O36	O	0.841100	0.508276	-0.006222
O37	O	1.053732	0.448216	-0.066283
O38	O	1.053759	0.396306	-0.014388
C39	C	0.663230	0.437229	-0.025365
C40	C	0.566775	0.440926	-0.021667
C41	C	0.542510	0.365212	-0.097392
C42	C	0.451887	0.368683	-0.093921
C43	C	0.294905	0.451342	-0.011255
C44	C	0.385528	0.447871	-0.014726
C45	C	0.509330	0.404804	-0.057796
C46	C	0.599954	0.401331	-0.061265
C47	C	0.442971	0.483991	0.021398
C48	C	0.352348	0.487462	0.024870
C49	C	0.947465	0.287572	-0.036280
C50	C	0.947478	0.240476	-0.036287
C51	C	0.836427	-0.020177	-0.004898
C52	C	0.836405	-0.197161	-0.004887
O53	O	0.742011	-0.193384	0.021796
N54	N	0.947396	-0.250642	-0.036239
C55	C	1.058400	-0.259876	-0.067593
O56	O	1.152804	-0.309425	-0.094256
C57	C	1.058420	-0.082892	-0.067601
C58	C	0.947422	-0.029412	-0.036251
C59	C	0.725438	0.033301	0.026450
C60	C	0.725444	0.077544	0.026445
C61	C	0.836440	0.068309	-0.004908
C62	C	0.947428	0.014832	-0.036256
C63	C	1.169422	-0.092126	-0.098952
C64	C	1.169417	-0.047875	-0.098950
C65	C	1.058419	0.005606	-0.067600
C66	C	1.058430	0.049840	-0.067615
N67	N	0.947439	0.103321	-0.036263
C68	C	0.836444	0.112555	-0.004909
C69	C	1.058381	-0.352792	-0.067588
C70	C	1.058377	-0.397038	-0.067587
C71	C	0.836382	-0.334321	-0.004879
C72	C	0.836388	-0.290074	-0.004884
C73	C	0.947391	-0.299312	-0.036236
C74	C	0.836466	0.205466	-0.004923
C75	C	0.836482	0.249711	-0.004933
C76	C	1.058476	0.186989	-0.067639
C77	C	1.058461	0.142749	-0.067631
C78	C	0.947446	0.151991	-0.036269
O79	O	1.152775	0.046104	-0.094278
O80	O	0.742054	0.162108	0.021758
C81	C	0.836420	-0.064420	-0.004892
C82	C	0.947409	-0.117898	-0.036240
C83	C	1.058404	-0.127132	-0.067593
C84	C	0.947404	-0.162144	-0.036239
C85	C	0.836409	-0.152909	-0.004886
C86	C	0.725419	-0.099428	0.026466
C87	C	0.725425	-0.055185	0.026461
C88	C	1.169395	-0.180613	-0.098946
C89	C	1.169379	-0.224853	-0.098938
C90	C	1.058384	-0.215619	-0.067585
C91	C	1.231630	0.415443	-0.047155
C92	C	1.328084	0.411746	-0.050853
C93	C	0.947394	0.426336	-0.175005
C94	C	0.947382	0.426335	-0.222093
C95	C	0.947394	0.565101	-0.036240
C96	C	0.947382	0.612196	-0.036233
C97	C	1.058432	0.394990	-0.545482
C98	C	1.058454	0.394990	-0.722478
O99	O	1.152848	0.368345	-0.772028
N100	N	0.947463	0.426339	-0.713257
C101	C	0.836459	0.457694	-0.659781
O102	O	0.742056	0.484363	-0.655999
C103	C	0.836439	0.457697	-0.482786
C104	C	0.947437	0.426341	-0.492012
C105	C	1.169421	0.363637	-0.554705
C106	C	1.169415	0.363635	-0.510459
C107	C	1.058420	0.394986	-0.456989
C108	C	0.947431	0.426339	-0.447765
C109	C	0.725437	0.489054	-0.429312
C110	C	0.725442	0.489053	-0.385063
C111	C	0.836440	0.457697	-0.394289
C112	C	0.836429	0.457688	-0.350049
N113	N	0.947420	0.426338	-0.359270
C114	C	1.058415	0.394987	-0.412740
C115	C	0.836478	0.457690	-0.752709
C116	C	0.836482	0.457688	-0.796957
C117	C	1.058477	0.394984	-0.859651
C118	C	1.058471	0.394983	-0.815401
C119	C	0.947468	0.426340	-0.761930
C120	C	1.058393	0.394985	-0.319816
C121	C	1.058377	0.394984	-0.275563
C122	C	0.836383	0.457690	-0.212873
C123	C	0.836398	0.457689	-0.257123
C124	C	0.947413	0.426335	-0.310596
O125	O	0.742084	0.484323	-0.300486
O126	O	1.152805	0.368331	-0.416511
C127	C	1.058439	0.394992	-0.589729
C128	C	0.947450	0.426345	-0.580506
C129	C	0.836455	0.457696	-0.527036
C130	C	0.947455	0.426343	-0.624754
C131	C	1.058450	0.394992	-0.678224
C132	C	1.169441	0.363642	-0.687445
C133	C	1.169434	0.363641	-0.643199
C134	C	0.725464	0.489046	-0.517814
C135	C	0.725480	0.489045	-0.562064
C136	C	0.836475	0.457693	-0.615534
C137	C	0.947465	0.426337	0.102484
C138	C	0.947478	0.426337	0.149573
C139	C	0.663194	0.575994	-0.025345
C140	C	0.566727	0.626786	-0.021640
C141	C	0.663265	0.437230	0.113380
C142	C	0.566823	0.440927	0.164166
C143	C	0.663230	0.575994	0.113400
C144	C	0.566775	0.626787	0.164193
C145	C	1.231630	0.276678	-0.185920
C146	C	1.328084	0.225885	-0.236713
C147	C	1.231665	0.276679	-0.047175
C148	C	1.328132	0.225886	-0.050880
C149	C	1.231594	0.415443	-0.185900
C150	C	1.328036	0.411746	-0.236686
C151	C	0.521425	0.623542	-0.047002
C152	C	0.430796	0.671262	-0.043532
C153	C	0.385465	0.722226	-0.014697
C154	C	0.430776	0.725469	0.010665
C155	C	0.521409	0.677749	0.007192
C156	C	0.521532	0.469760	0.215117
C157	C	0.430927	0.473231	0.262840
C158	C	0.385607	0.447873	0.259611
C159	C	0.430907	0.419036	0.208655
C160	C	0.521517	0.415562	0.160933
C161	C	0.521464	0.677741	0.160957
C162	C	0.430847	0.725470	0.208678
C163	C	0.385536	0.722244	0.259634
C164	C	0.430855	0.671284	0.262869
C165	C	0.521477	0.623557	0.215148
C166	C	1.373406	0.174931	-0.233478
C167	C	1.464051	0.127201	-0.281200
C168	C	1.509367	0.130427	-0.332156
C169	C	1.464042	0.181387	-0.335390
C170	C	1.373405	0.229115	-0.287669
C171	C	1.373444	0.229130	-0.025523
C172	C	1.464097	0.181409	-0.029007
C173	C	1.509432	0.130445	-0.057843
C174	C	1.464116	0.127202	-0.083203
C175	C	1.373471	0.174923	-0.079723
C176	C	1.373327	0.437110	-0.233440
C177	C	1.463933	0.433647	-0.281154
C178	C	1.509253	0.404815	-0.332115
C179	C	1.463954	0.379450	-0.335360
C180	C	1.373343	0.382917	-0.287646
H181	H	0.643314	0.330137	-0.132453
C182	C	0.285929	0.451701	0.312109
C183	C	0.236112	0.483422	0.368153
C184	C	0.136431	0.487253	0.420653
C185	C	0.086567	0.459364	0.417110
C186	C	0.136383	0.427641	0.361064
C187	C	0.236064	0.423809	0.308564
H188	H	0.273025	0.504069	0.370778
H189	H	0.099554	0.510737	0.462142
H190	H	0.012777	0.462200	0.455974
H191	H	0.099470	0.406994	0.358439
H192	H	0.272941	0.400326	0.267075
H193	H	0.393994	0.398390	0.206034
H194	H	1.500867	0.355975	-0.376859
H195	H	0.558282	0.680398	0.027848
H196	H	0.251539	0.522527	0.059934
H197	H	0.746081	0.483225	-0.709171
C198	C	0.603327	0.043470	0.060942
C199	C	0.572772	0.021682	0.033069
C200	C	0.450651	0.031858	0.067560
C201	C	0.359085	0.063823	0.129923
C202	C	0.389639	0.085613	0.157800
C203	C	0.511760	0.075437	0.123309
H204	H	0.640556	-0.001982	-0.013099
H205	H	0.428033	0.015728	0.046924
H206	H	0.268684	0.071356	0.155455
H207	H	0.321855	0.109277	0.203968
H208	H	0.534377	0.091567	0.143945
C209	C	1.513884	0.071151	-0.277633
C210	C	1.464012	0.067609	-0.221580
C211	C	1.513840	0.011561	-0.218012
C212	C	1.613540	-0.040945	-0.270497
C213	C	1.663418	-0.037404	-0.326554
C214	C	1.613590	0.018644	-0.330123
H215	H	1.390203	0.106478	-0.182723
H216	H	1.476917	0.008940	-0.176514
H217	H	1.650426	-0.082435	-0.267856
H218	H	1.737227	-0.076274	-0.365411
H219	H	1.650513	0.021264	-0.371620
C220	C	0.571321	0.383848	0.104888
C221	C	0.521456	0.355960	0.101343
C222	C	0.571256	0.324244	0.045299
C223	C	0.670921	0.320417	-0.007200
C224	C	0.720791	0.348307	-0.003657
C225	C	0.670991	0.380022	0.052387
H226	H	0.447673	0.358792	0.140207
H227	H	0.534338	0.303599	0.042676
H228	H	0.707786	0.296940	-0.048687
H229	H	0.794574	0.345475	-0.042522
H230	H	0.707909	0.400668	0.055009
H231	H	0.393854	0.766970	0.034142
H232	H	1.583169	0.091559	-0.371009
C233	C	0.406471	0.527544	0.064958
C234	C	0.329277	0.536299	0.125336
C235	C	0.292780	0.579848	0.168896
C236	C	0.333478	0.614644	0.152077
C237	C	0.410677	0.605890	0.091696
C238	C	0.447173	0.562341	0.048137
H239	H	0.299146	0.510540	0.137788
H240	H	0.235633	0.586328	0.213594
H241	H	0.306461	0.646882	0.184323
H242	H	0.440808	0.631649	0.079244
H243	H	0.504321	0.555861	0.003439
C244	C	0.714295	0.492170	-0.246971
C245	C	0.683785	0.464285	-0.268777
C246	C	0.561676	0.498768	-0.258618
C247	C	0.470078	0.561137	-0.226653
C248	C	0.500586	0.589025	-0.204845
C249	C	0.622695	0.554542	-0.215004
H250	H	0.751593	0.418113	-0.292442
H251	H	0.539093	0.478123	-0.274762
H252	H	0.379686	0.586663	-0.219133
H253	H	0.432778	0.635198	-0.181180
H254	H	0.645278	0.575188	-0.198860
C255	C	0.714290	-0.231248	0.029605
C256	C	0.622710	-0.211468	0.018972
C257	C	0.500606	-0.152642	0.053464
C258	C	0.470083	-0.113597	0.098589
C259	C	0.561665	-0.133377	0.109224
C260	C	0.683769	-0.192202	0.074733
H261	H	0.645303	-0.240372	-0.014434
H262	H	0.432811	-0.138000	0.045591
H263	H	0.379694	-0.070051	0.124122
H264	H	0.539072	-0.104473	0.142631
H265	H	0.751564	-0.206844	0.082606
C266	C	0.603328	0.523562	-0.419148
C267	C	0.572804	0.568696	-0.440930
C268	C	0.450682	0.603213	-0.430760
C269	C	0.359085	0.592595	-0.398808
C270	C	0.389606	0.547459	-0.377024
C271	C	0.511728	0.512942	-0.387195
H272	H	0.640612	0.576558	-0.464584
H273	H	0.428089	0.636626	-0.446885
H274	H	0.268683	0.618146	-0.391279
H275	H	0.321798	0.539597	-0.353370
H276	H	0.534321	0.479529	-0.371069
H277	H	1.336581	0.172274	-0.100370
H278	H	0.311746	0.761111	0.298487
C279	C	1.513886	0.184931	-0.391444
C280	C	1.576187	0.210978	-0.410111
C281	C	1.626026	0.214522	-0.466166
C282	C	1.613564	0.192019	-0.503553
C283	C	1.551260	0.165970	-0.484886
C284	C	1.501422	0.162426	-0.428832
H285	H	1.585415	0.227638	-0.382435
H286	H	1.672147	0.233806	-0.479984
H287	H	1.650458	0.194643	-0.545048
H288	H	1.542033	0.149311	-0.512563
H289	H	1.455300	0.143143	-0.415014
C290	C	0.380986	0.667742	0.318924
C291	C	0.281287	0.720246	0.371411
C292	C	0.231402	0.716706	0.427468
C293	C	0.281216	0.660662	0.431038
C294	C	0.380920	0.608154	0.378549
C295	C	0.430805	0.611694	0.322492
H296	H	0.244407	0.761737	0.368769
H297	H	0.157594	0.755576	0.466323
H298	H	0.244288	0.658041	0.472535
H299	H	0.417801	0.566663	0.381191
H300	H	0.504613	0.572823	0.283637
C301	C	0.381101	0.504958	0.318887
C302	C	0.244032	0.554169	0.362019
C303	C	0.194209	0.585896	0.418065
C304	C	0.281455	0.568412	0.430977
C305	C	0.418533	0.519198	0.387844
C306	C	0.468356	0.487471	0.331799
H307	H	0.179439	0.567114	0.352462
H308	H	0.092734	0.622328	0.449995
H309	H	0.244573	0.591898	0.472465
H310	H	0.483126	0.506253	0.397402
H311	H	0.569831	0.451040	0.299869
C312	C	0.571299	0.681299	0.104909
C313	C	0.521452	0.737353	0.101361
C314	C	0.571285	0.740916	0.045315
C315	C	0.670966	0.688425	-0.007184
C316	C	0.720820	0.632367	-0.003638
C317	C	0.670986	0.628804	0.052409
H318	H	0.447656	0.776214	0.140225
H319	H	0.534380	0.782415	0.042690
H320	H	0.707856	0.691063	-0.048672
H321	H	0.794615	0.593506	-0.042502
H322	H	0.707892	0.587305	0.055034
C323	C	0.380999	0.781521	0.205113
C324	C	0.393471	0.818919	0.227589
C325	C	0.343624	0.874968	0.224023
C326	C	0.281304	0.893619	0.197981
C327	C	0.268829	0.856220	0.175503
C328	C	0.318676	0.800171	0.179069
H329	H	0.439607	0.805113	0.246869
H330	H	0.352860	0.902654	0.240664
H331	H	0.244404	0.935110	0.195341
H332	H	0.222693	0.870026	0.156223
H333	H	0.309440	0.772486	0.162429
C334	C	1.323550	0.285164	-0.291233
C335	C	1.373401	0.288706	-0.347286
C336	C	1.323554	0.344754	-0.350855
C337	C	1.223856	0.397261	-0.298371
C338	C	1.173998	0.393721	-0.242313
C339	C	1.223845	0.337673	-0.238744
H340	H	1.447209	0.249836	-0.386142
H341	H	1.360463	0.347374	-0.392353
H342	H	1.186956	0.438751	-0.301012
H343	H	1.100191	0.432591	-0.203457
H344	H	1.186937	0.335053	-0.197247
H345	H	1.148855	0.369450	-0.822919
H346	H	1.336477	0.362259	-0.290297
C347	C	1.323596	0.285186	0.006195
C348	C	1.373466	0.288742	0.034078
C349	C	1.323631	0.344796	0.065795
C350	C	1.223927	0.397294	0.069629
C351	C	1.174052	0.393740	0.041746
C352	C	1.223886	0.337686	0.010029
H353	H	1.447278	0.249878	0.031240
H354	H	1.360553	0.347426	0.086436
H355	H	1.187037	0.438788	0.093108
H356	H	1.100240	0.432603	0.044583
H357	H	1.186964	0.335055	-0.010612
C358	C	1.513919	0.184985	-0.001103
C359	C	1.576174	0.211053	-0.017623
C360	C	1.625990	0.214631	0.010282
C361	C	1.613550	0.192141	0.054708
C362	C	1.551292	0.166071	0.071230
C363	C	1.501477	0.162493	0.043325
H364	H	1.585385	0.227703	-0.050512
H365	H	1.672077	0.233930	-0.001949
H366	H	1.650427	0.194790	0.075365
H367	H	1.542081	0.149421	0.104119
H368	H	1.455389	0.143194	0.055557
C369	C	1.609136	0.077955	-0.061664
C370	C	1.733756	0.033935	-0.117842
C371	C	1.833456	-0.018552	-0.121658
C372	C	1.808535	-0.027019	-0.069298
C373	C	1.683909	0.017003	-0.013116
C374	C	1.584210	0.069490	-0.009299
H375	H	1.752208	0.040201	-0.156606
H376	H	1.925712	-0.051140	-0.163248
H377	H	1.882339	-0.065873	-0.072123
H378	H	1.665457	0.010737	0.025648
H379	H	1.491953	0.102078	0.032290
C380	C	0.736136	0.353960	-0.108641
C381	C	0.788407	0.346161	-0.168064
C382	C	0.924589	0.298791	-0.215443
C383	C	1.008500	0.259219	-0.203398
C384	C	0.956230	0.267017	-0.143972
C385	C	0.820048	0.314387	-0.096593
H386	H	0.726291	0.375456	-0.176983
H387	H	0.963283	0.293019	-0.259434
H388	H	1.109310	0.224153	-0.238470
H389	H	1.018347	0.237722	-0.135053
H390	H	0.781355	0.320159	-0.052602
C391	C	1.513985	0.071139	-0.114917
C392	C	1.576295	0.052460	-0.176161
C393	C	1.626160	-0.003605	-0.207870
C394	C	1.613716	-0.040992	-0.178336
C395	C	1.551404	-0.022314	-0.117089
C396	C	1.501539	0.033751	-0.085379
H397	H	1.585509	0.080137	-0.198027
H398	H	1.672288	-0.017431	-0.253209
H399	H	1.650630	-0.082494	-0.201809
H400	H	1.542190	-0.049991	-0.095222
H401	H	1.455411	0.047577	-0.040040
H402	H	0.746013	0.483214	-0.169331
C403	C	1.323478	0.468833	-0.177386
C404	C	1.373302	0.496737	-0.173826
C405	C	1.323452	0.528465	-0.117775
C406	C	1.223779	0.532289	-0.065283
C407	C	1.173950	0.504383	-0.068841
C408	C	1.223800	0.472655	-0.124893
H409	H	1.447090	0.493908	-0.212685
H410	H	1.360339	0.549123	-0.115141
H411	H	1.186878	0.555776	-0.023790
H412	H	1.100162	0.507213	-0.029982
H413	H	1.186913	0.451998	-0.127527
C414	C	1.291500	-0.190779	-0.133442
C415	C	1.322025	-0.168996	-0.178571
C416	C	1.444141	-0.179167	-0.213074
C417	C	1.535731	-0.211122	-0.202447
C418	C	1.505208	-0.232908	-0.157315
C419	C	1.383093	-0.222736	-0.122813
H420	H	1.254223	-0.145339	-0.186440
H421	H	1.466735	-0.163040	-0.246483
H422	H	1.626128	-0.218652	-0.227988
H423	H	1.573011	-0.256565	-0.149447
H424	H	1.360498	-0.238863	-0.089403
C425	C	1.608934	0.401001	-0.384599
C426	C	1.658752	0.428901	-0.381021
C427	C	1.758436	0.425086	-0.433502
C428	C	1.808302	0.393372	-0.489562
C429	C	1.758484	0.365470	-0.493141
C430	C	1.658800	0.369284	-0.440660
H431	H	1.621838	0.452380	-0.339521
H432	H	1.795315	0.445742	-0.430852
H433	H	1.882095	0.390548	-0.528411
H434	H	1.795398	0.341991	-0.534642
H435	H	1.621922	0.348629	-0.443311
H436	H	0.478913	0.336444	-0.126165
C437	C	0.380958	0.667687	-0.071427
C438	C	0.393416	0.690160	-0.115865
C439	C	0.343580	0.686583	-0.143759
C440	C	0.281285	0.660532	-0.127215
C441	C	0.268824	0.638057	-0.082775
C442	C	0.318660	0.641635	-0.054881
H443	H	0.439533	0.709446	-0.128113
H444	H	0.352805	0.703220	-0.176656
H445	H	0.244393	0.657884	-0.147864
H446	H	0.222707	0.618771	-0.070527
H447	H	0.309435	0.624997	-0.021984
H448	H	0.558332	0.582049	-0.070489
C449	C	0.158719	0.498712	0.036116
C450	C	0.074824	0.538275	0.024061
C451	C	-0.061364	0.585645	0.071432
C452	C	-0.113658	0.593451	0.130858
C453	C	-0.029762	0.553886	0.142916
C454	C	0.106426	0.506516	0.095545
H455	H	0.113534	0.532498	-0.019933
H456	H	-0.123469	0.614933	0.062505
H457	H	-0.214473	0.628516	0.165925
H458	H	-0.068472	0.559663	0.186910
H459	H	0.168531	0.477228	0.104472
C460	C	1.291526	-0.058038	-0.133440
C461	C	1.383088	-0.089998	-0.195805
C462	C	1.505194	-0.100161	-0.230296
C463	C	1.535737	-0.078364	-0.202422
C464	C	1.444173	-0.046402	-0.140055
C465	C	1.322067	-0.036239	-0.105564
H466	H	1.360480	-0.106135	-0.216441
H467	H	1.572976	-0.123821	-0.276464
H468	H	1.626127	-0.085888	-0.227955
H469	H	1.466781	-0.030265	-0.119418
H470	H	1.254285	-0.012578	-0.059395
C471	C	1.180507	0.360493	-0.378633
C472	C	1.272077	0.371126	-0.398398
C473	C	1.394189	0.336631	-0.457214
C474	C	1.424732	0.291502	-0.496265
C475	C	1.333160	0.280866	-0.476500
C476	C	1.211048	0.315362	-0.417684
H477	H	1.249469	0.404535	-0.369490
H478	H	1.461976	0.344504	-0.471845
H479	H	1.515127	0.265966	-0.539804
H480	H	1.355768	0.247458	-0.505408
H481	H	1.143261	0.307489	-0.403053
C482	C	0.285760	0.774716	-0.010875
C483	C	0.310645	0.813005	-0.033426
C484	C	0.210936	0.865492	-0.029605
C485	C	0.086343	0.879690	-0.003232
C486	C	0.061452	0.841400	0.019321
C487	C	0.161161	0.788913	0.015499
H488	H	0.402881	0.802496	-0.052951
H489	H	0.229362	0.893837	-0.046301
H490	H	0.012532	0.918545	-0.000404
H491	H	-0.030784	0.851910	0.038845
H492	H	0.142734	0.760568	0.032195
H493	H	1.259820	0.338107	-0.650718
H494	H	1.336514	0.172294	-0.191991
H495	H	0.746091	0.293257	0.020597
H496	H	0.635058	0.121087	0.051971
C497	C	1.291532	0.329144	-0.613520
C498	C	1.383097	0.339780	-0.633283
C499	C	1.505218	0.305281	-0.692097
C500	C	1.535774	0.260146	-0.731147
C501	C	1.444206	0.249509	-0.711384
C502	C	1.322085	0.284008	-0.652571
H503	H	1.360480	0.373193	-0.604375
H504	H	1.573002	0.313156	-0.706726
H505	H	1.626175	0.234608	-0.774684
H506	H	1.466823	0.216096	-0.740292
H507	H	1.254301	0.276133	-0.637942
C508	C	1.291537	0.329157	-0.746269
C509	C	1.383096	0.339798	-0.766040
C510	C	1.505184	0.305317	-0.824863
C511	C	1.535714	0.260195	-0.863916
C512	C	1.444153	0.249552	-0.844145
C513	C	1.322065	0.284032	-0.785322
H514	H	1.360497	0.373202	-0.737131
H515	H	1.572963	0.313196	-0.839499
H516	H	1.626091	0.234670	-0.907460
H517	H	1.466751	0.216148	-0.873055
H518	H	1.254286	0.276153	-0.770686
H519	H	0.746067	0.213000	0.020615
H520	H	0.558421	0.490411	0.217757
H521	H	0.746005	-0.326808	0.020647
H522	H	0.635039	-0.011642	0.051991
H523	H	1.500807	0.454303	-0.278501
H524	H	1.148762	-0.440581	-0.093122
H525	H	0.558357	0.582070	0.217790
H526	H	1.259809	-0.135666	-0.124480
C527	C	0.603369	0.523543	-0.551907
C528	C	0.572841	0.568675	-0.573691
C529	C	0.450734	0.603179	-0.563532
C530	C	0.359153	0.592550	-0.531590
C531	C	0.389678	0.547416	-0.509805
C532	C	0.511786	0.512912	-0.519963
H533	H	0.640636	0.576545	-0.597338
H534	H	0.428137	0.636591	-0.579660
H535	H	0.268762	0.618092	-0.524071
H536	H	0.321883	0.539546	-0.486158
H537	H	0.534382	0.479501	-0.503836
H538	H	1.148779	-0.360323	-0.093122
H539	H	1.148844	0.099202	-0.093166
H540	H	1.148846	0.179479	-0.093167
H541	H	1.259774	-0.268399	-0.124472
H542	H	0.635042	-0.091916	0.051992
H543	H	1.148769	0.369448	-0.283082
H544	H	1.148854	0.369455	-0.903195
H545	H	1.259801	0.338104	-0.517977
H546	H	0.746097	0.483215	-0.789439
H547	H	0.635048	0.514589	-0.341525
H548	H	0.635077	0.514577	-0.474279
