data_functionalizedCrystal
_audit_creation_method	'MofGen! by Chris Wilmer'
_symmetry_space_group_name_H-M	'P1'
_symmetry_Int_Tables_number	1
_symmetry_cell_setting	triclinic
loop_
_symmetry_equiv_pos_as_xyz
  x,y,z
_cell_length_a	19.851628
_cell_length_b	14.395555
_cell_length_c	14.395555
_cell_angle_alpha	60.001260
_cell_angle_beta	90.003383
_cell_angle_gamma	60.003579
loop_
_atom_site_label
_atom_site_type_symbol
_atom_site_fract_x
_atom_site_fract_y
_atom_site_fract_z
Zr1	Zr	-0.088372	1.016737	0.894948
O2	O	-0.195934	1.210522	0.746628
O3	O	-0.055397	0.822945	0.940412
O4	O	-0.195925	1.016718	0.940424
O5	O	0.055442	1.016767	0.746612
O6	O	-0.195919	1.016711	1.093298
O7	O	-0.055407	1.016749	0.746617
O8	O	0.055459	0.670086	1.093277
O9	O	-0.195936	1.363392	0.746633
O10	O	-0.041331	0.902652	1.073895
O11	O	0.041390	0.902670	0.959804
O12	O	-0.124063	1.130813	0.959818
O13	O	-0.041342	1.130832	0.845726
Zr14	Zr	0.088428	1.016755	1.138758
Zr15	Zr	-0.088363	1.016726	1.138765
Zr16	Zr	0.088419	1.016766	0.894941
Zr17	Zr	-0.088375	1.260546	0.894956
Zr18	Zr	0.088431	0.772946	1.138750
O19	O	0.055453	1.210547	1.093294
O20	O	-0.195921	1.210507	1.093304
O21	O	0.055440	1.210563	0.746618
O22	O	0.195990	0.822970	1.287078
O23	O	-0.055384	0.822929	1.287088
O24	O	0.195977	0.822985	0.940402
O25	O	-0.055386	1.016725	1.287094
O26	O	0.195981	1.016774	1.093282
O27	O	0.195975	1.016781	0.940408
O28	O	0.055463	1.016743	1.287089
O29	O	-0.195928	1.363383	0.940435
O30	O	0.195984	0.670109	1.093271
O31	O	0.195992	0.670100	1.287073
O32	O	0.055467	0.670077	1.287079
O33	O	-0.055411	1.363415	0.746627
O34	O	-0.055403	1.363406	0.940429
O35	O	0.124119	0.902679	1.073889
O36	O	0.041399	0.902660	1.187980
O37	O	-0.041334	1.130822	1.073902
O38	O	0.041387	1.130840	0.959811
C39	C	0.000031	0.711778	1.016844
C40	C	0.000033	0.608274	1.016841
C41	C	-0.221110	1.016710	1.016862
C42	C	-0.296163	1.016698	1.016865
C43	C	0.045138	0.547692	0.954637
C44	C	-0.032652	0.561938	0.909557
C45	C	0.077799	0.409633	1.061892
C46	C	-0.077803	0.623947	0.971699
C47	C	0.032704	0.471578	1.124094
C48	C	-0.045133	0.485871	1.079041
C49	C	-0.432420	0.892324	1.079062
C50	C	-0.499878	0.954513	0.971790
C51	C	-0.433594	1.016732	1.016854
C52	C	-0.499871	0.954535	1.124105
C53	C	-0.566344	1.016756	1.016853
C54	C	-0.500064	1.078921	0.909519
C55	C	-0.500047	1.078926	1.061911
C56	C	-0.567517	1.141206	0.954575
C57	C	-0.357120	1.016715	1.016857
C58	C	-0.642820	1.016783	1.016839
C59	C	0.221167	1.016782	1.016844
C60	C	0.296219	1.016794	1.016841
C61	C	0.000016	1.016760	0.711876
C62	C	0.000012	1.016764	0.608369
C63	C	0.000025	1.321714	1.016862
C64	C	0.000024	1.425218	1.016865
C65	C	-0.045090	1.141168	0.485580
C66	C	-0.077774	1.078969	0.454744
C67	C	0.032691	1.078958	0.454782
C68	C	-0.032718	0.954565	0.578897
C69	C	0.077790	0.954572	0.578931
C70	C	0.045125	0.892282	0.548169
C71	C	0.000040	1.016732	1.321830
C72	C	0.000044	1.016728	1.425337
C73	C	0.000043	0.711764	1.321821
C74	C	0.000048	0.608256	1.425325
C75	C	0.221170	0.711814	1.016835
C76	C	0.296224	0.608322	1.016828
C77	C	0.221182	0.711800	1.321812
C78	C	0.296239	0.608304	1.425312
C79	C	-0.221126	1.321692	0.711894
C80	C	-0.296183	1.425188	0.608394
C81	C	0.000013	1.321728	0.711885
C82	C	0.000008	1.425236	0.608381
C83	C	-0.221114	1.321678	1.016871
C84	C	-0.296167	1.425170	1.016878
C85	C	0.374661	0.559726	1.076376
C86	C	0.445188	0.462499	1.076366
C87	C	0.437277	0.413863	1.016814
C88	C	0.358831	0.462469	0.957259
C89	C	0.288305	0.559701	0.957263
C90	C	0.288308	0.559692	1.533482
C91	C	0.358825	0.462460	1.630741
C92	C	0.437274	0.413835	1.619827
C93	C	0.445204	0.462457	1.511646
C94	C	0.374687	0.559694	1.414390
C95	C	-0.288252	1.473812	0.500224
C96	C	-0.358769	1.571074	0.402965
C97	C	-0.437218	1.619704	0.413879
C98	C	-0.445148	1.571075	0.522060
C99	C	-0.374631	1.473822	0.619316
C100	C	-0.288229	1.473775	1.076442
C101	C	-0.358743	1.571003	1.076470
C102	C	-0.437195	1.619631	1.016927
C103	C	-0.445131	1.571016	0.957361
C104	C	-0.374618	1.473783	0.957340
C105	C	0.045135	0.547702	1.548116
C106	C	0.077806	0.409598	1.578971
C107	C	-0.032660	0.561984	1.578887
C108	C	0.032765	0.471452	1.454817
C109	C	-0.077744	0.623912	1.454735
C110	C	-0.045092	0.485818	1.485518
H111	H	0.083225	0.574927	0.901961
H112	H	0.060315	1.131568	0.401277
H113	H	-0.494631	1.698894	0.334677
H114	H	0.509055	0.422935	1.124867
H115	H	-0.352265	1.610575	1.124973
H116	H	-0.060296	0.599218	1.632364
H117	H	-0.143537	1.131540	0.401231
H118	H	0.381157	0.599262	1.326317
H119	H	0.143539	0.902046	0.632441
H120	H	-0.499339	1.131457	1.100053
H121	H	0.143569	0.318033	1.099983
H122	H	0.060472	0.434041	1.401477
H123	H	-0.625261	1.246484	0.901894
H124	H	-0.224357	1.434197	1.124929
H125	H	-0.500519	0.901933	1.214810
H126	H	-0.374580	0.787134	1.131578
H127	H	-0.494604	1.698804	1.016952
H128	H	0.352402	0.422855	0.908773
H129	H	0.494710	0.334690	1.016820
H130	H	-0.381099	1.434233	0.707390
H131	H	-0.509016	1.610624	0.908882
H132	H	-0.083243	0.458796	1.459861
H133	H	0.381119	0.599315	1.124871
H134	H	-0.143604	0.715504	0.933502
H135	H	-0.083334	0.458919	1.131643
H136	H	0.224441	0.599255	0.908775
H137	H	0.143563	0.317967	1.632505
H138	H	-0.381093	1.434219	0.908831
H139	H	-0.352296	1.610651	0.314889
H140	H	0.224437	0.599267	1.542390
H141	H	0.083340	0.574778	1.573556
H142	H	-0.499472	1.131466	0.818775
H143	H	-0.060293	0.599123	0.818864
H144	H	-0.500554	0.901936	0.933674
H145	H	-0.224381	1.434224	0.491316
H146	H	0.060364	0.434412	1.214766
H147	H	-0.083289	1.246363	0.460141
H148	H	-0.060417	0.902017	0.632255
H149	H	-0.509029	1.610682	0.530932
H150	H	0.352354	0.422881	1.718818
H151	H	0.494687	0.334659	1.699029
H152	H	0.083271	0.787001	0.573821
H153	H	0.509086	0.422853	1.502777
H154	H	-0.143487	0.715566	1.401204
