data_functionalizedCrystal
_audit_creation_method	'MofGen! by Chris Wilmer'
_symmetry_space_group_name_H-M	'P1'
_symmetry_Int_Tables_number	1
_symmetry_cell_setting	triclinic
loop_
_symmetry_equiv_pos_as_xyz
  x,y,z
_cell_length_a	18.101395
_cell_length_b	16.625548
_cell_length_c	16.625539
_cell_angle_alpha	89.979432
_cell_angle_beta	90.027648
_cell_angle_gamma	89.967828
loop_
_atom_site_label
_atom_site_type_symbol
_atom_site_fract_x
_atom_site_fract_y
_atom_site_fract_z
Zn1	Zn	-0.294807	-1.232632	0.455913
Zn2	Zn	-0.418656	-1.232515	0.321082
Zn3	Zn	-0.294835	-1.097794	0.321094
Zn4	Zn	-0.418614	-1.097744	0.455872
O5	O	-0.356728	-1.165171	0.388490
O6	O	-0.311242	-1.345449	0.438040
O7	O	-0.402261	-1.214616	0.208251
O8	O	-0.191199	-1.115750	0.339000
O9	O	-0.402233	-1.345363	0.338980
O10	O	-0.191178	-1.214815	0.438051
O11	O	-0.311290	-1.115637	0.208260
O12	O	-0.311249	-0.984955	0.338960
O13	O	-0.402161	-1.115665	0.568710
O14	O	-0.402188	-0.984918	0.437981
O15	O	-0.311201	-1.214767	0.568740
O16	O	-0.522284	-1.214567	0.338940
O17	O	-0.522252	-1.115552	0.437969
C18	C	-0.356718	-0.955680	0.388467
C19	C	-0.356731	-0.866059	0.388477
C20	C	-0.549139	-1.165063	0.388466
C21	C	-0.631453	-1.165091	0.388483
C22	C	-0.356673	-1.165224	0.598799
C23	C	-0.356649	-1.165246	0.688420
C24	C	-0.930544	-1.165268	0.388527
C25	C	-0.899230	-1.103114	0.450988
C26	C	-0.813612	-1.102819	0.450793
C27	C	-0.782161	-1.165180	0.388506
C28	C	-0.813313	-1.142173	0.303528
C29	C	-0.898959	-1.141772	0.303901
C30	C	-0.898886	-1.250565	0.410295
C31	C	-0.813235	-1.250063	0.412159
C32	C	-0.698302	-1.165132	0.388489
C33	C	-1.014403	-1.165314	0.388538
C34	C	-0.163566	-1.165302	0.388531
C35	C	-0.081252	-1.165357	0.388549
C36	C	-0.356739	-1.375480	0.388513
C37	C	-0.356744	-1.465101	0.388523
C38	C	-0.356736	-0.537884	0.388511
C39	C	-0.356732	-0.629192	0.388499
C40	C	-0.356734	-0.701969	0.388494
C41	C	-0.356729	-0.793283	0.388483
C42	C	-0.356730	-1.165165	0.178999
C43	C	-0.356545	-1.165299	0.089378
C44	C	-0.356567	-1.165283	1.016596
C45	C	-0.356592	-1.165271	0.925287
C46	C	-0.356609	-1.165265	0.852511
C47	C	-0.356633	-1.165252	0.761197
H48	H	-0.792547	-1.117214	0.513803
H49	H	-0.919135	-1.296871	0.364802
Cl50	Cl	-0.781796	-1.276854	0.508715
Cl51	Cl	-0.930955	-1.125112	0.548589
Cl52	Cl	-0.780170	-1.325346	0.347045
H53	H	-0.793190	-1.039595	0.436373
Cl54	Cl	-0.932575	-1.006097	0.429024
Cl55	Cl	-0.929909	-1.045507	0.275433
Cl56	Cl	-0.930948	-1.208623	0.229594
Cl57	Cl	-0.780305	-1.046924	0.274546
Cl58	Cl	-0.781865	-1.209864	0.229713
H59	H	-0.920433	-1.271540	0.471205
