data_functionalizedCrystal
_audit_creation_method	'MofGen! by Chris Wilmer'
_symmetry_space_group_name_H-M	'P1'
_symmetry_Int_Tables_number	1
_symmetry_cell_setting	triclinic
loop_
_symmetry_equiv_pos_as_xyz
  x,y,z
_cell_length_a	17.699083
_cell_length_b	19.188930
_cell_length_c	16.176319
_cell_angle_alpha	89.988074
_cell_angle_beta	89.998611
_cell_angle_gamma	83.213899
loop_
_atom_site_label
_atom_site_type_symbol
_atom_site_fract_x
_atom_site_fract_y
_atom_site_fract_z
O1	O	1.003963	0.088294	-0.068640
O2	O	1.337296	0.421628	0.264693
O3	O	1.670629	0.754961	0.598027
O4	O	0.783569	0.099782	-0.068668
O5	O	1.116902	0.433115	0.264665
O6	O	1.450236	0.766448	0.597998
O7	O	0.900126	-0.007610	-0.068637
O8	O	1.233459	0.325723	0.264696
O9	O	1.566792	0.659056	0.598029
O10	O	0.887406	0.195687	-0.068671
O11	O	1.220739	0.529020	0.264662
O12	O	1.554072	0.862353	0.597996
O13	O	0.900110	-0.007617	0.068856
O14	O	1.233443	0.325716	0.402189
O15	O	1.566777	0.659049	0.735523
O16	O	0.783553	0.099775	0.068825
O17	O	1.116886	0.433108	0.402158
O18	O	1.450220	0.766442	0.735492
O19	O	1.003947	0.088288	0.068853
O20	O	1.337280	0.421621	0.402187
O21	O	1.670613	0.754954	0.735520
Cu22	Cu	0.893748	0.094031	0.081393
Cu23	Cu	1.227082	0.427364	0.414727
Cu24	Cu	1.560415	0.760697	0.748060
Cu25	Cu	0.893767	0.094039	-0.081208
Cu26	Cu	1.227101	0.427372	0.252125
Cu27	Cu	1.560434	0.760705	0.585458
O28	O	0.887390	0.195680	0.068822
O29	O	1.220723	0.529013	0.402155
O30	O	1.554056	0.862346	0.735489
C31	C	0.755365	0.099367	0.000075
C32	C	1.088698	0.432700	0.333408
C33	C	1.422031	0.766033	0.666742
C34	C	0.671348	0.098132	0.000065
C35	C	1.004681	0.431465	0.333398
C36	C	1.338015	0.764799	0.666731
C37	C	0.622644	0.161169	0.000055
C38	C	0.955977	0.494502	0.333388
C39	C	1.289311	0.827835	0.666721
C40	C	0.543702	0.160004	0.000065
C41	C	0.877036	0.493338	0.333399
C42	C	1.210369	0.826671	0.666732
C43	C	0.513466	0.095802	0.000081
C44	C	0.846799	0.429136	0.333414
C45	C	1.180133	0.762469	0.666747
C46	C	0.562176	0.032761	0.000093
C47	C	0.895510	0.366094	0.333427
C48	C	1.228843	0.699427	0.666760
C49	C	0.641117	0.033926	0.000088
C50	C	0.974450	0.367259	0.333422
C51	C	1.307783	0.700592	0.666755
C52	C	0.243819	0.028060	0.000115
C53	C	0.577153	0.361394	0.333448
C54	C	0.910486	0.694727	0.666781
C55	C	0.164873	0.026900	0.000117
C56	C	0.498206	0.360233	0.333450
C57	C	0.831540	0.693567	0.666784
C58	C	0.146405	0.154139	0.000092
C59	C	0.479739	0.487472	0.333425
C60	C	0.813072	0.820806	0.666758
C61	C	0.225345	0.155304	0.000087
C62	C	0.558679	0.488637	0.333420
C63	C	0.892012	0.821971	0.666753
C64	C	0.274049	0.092263	0.000104
C65	C	0.607382	0.425596	0.333437
C66	C	0.940715	0.758929	0.666770
C67	C	0.359646	0.093526	0.000094
C68	C	0.692980	0.426859	0.333427
C69	C	1.026313	0.760193	0.666760
C70	C	0.427870	0.094538	0.000085
C71	C	0.761203	0.427872	0.333418
C72	C	1.094537	0.761205	0.666752
C73	C	0.899706	-0.033625	0.000112
C74	C	1.233039	0.299708	0.333445
C75	C	1.566373	0.633041	0.666778
C76	C	0.898469	-0.111131	0.000119
C77	C	1.231803	0.222202	0.333452
C78	C	1.565136	0.555535	0.666785
C79	C	0.966861	-0.155978	0.000131
C80	C	1.300194	0.177355	0.333465
C81	C	1.633528	0.510688	0.666798
C82	C	0.965699	-0.228804	0.000118
C83	C	1.299033	0.104530	0.333451
C84	C	1.632366	0.437863	0.666785
C85	C	0.896142	-0.256778	0.000108
C86	C	1.229475	0.076555	0.333442
C87	C	1.562809	0.409889	0.666775
C88	C	0.827741	-0.211921	0.000091
C89	C	1.161075	0.121412	0.333424
C90	C	1.494408	0.454746	0.666758
C91	C	0.828905	-0.139098	0.000096
C92	C	1.162238	0.194236	0.333430
C93	C	1.495572	0.527569	0.666763
N94	N	0.842968	-0.364845	0.046893
N95	N	1.176302	-0.031512	0.380227
N96	N	1.509635	0.301822	0.713560
N97	N	0.841868	-0.434025	0.046890
N98	N	1.175201	-0.100692	0.380223
N99	N	1.508534	0.232642	0.713557
C100	C	0.892632	-0.476191	0.000091
C101	C	1.225965	-0.142857	0.333425
C102	C	1.559299	0.190476	0.666758
N103	N	0.944550	-0.446565	-0.046694
N104	N	1.277883	-0.113231	0.286639
N105	N	1.611217	0.220102	0.619973
N106	N	0.945653	-0.377379	-0.046687
N107	N	1.278986	-0.044045	0.286646
N108	N	1.612320	0.289288	0.619979
C109	C	0.894873	-0.335742	0.000102
C110	C	1.228206	-0.002409	0.333436
C111	C	1.561539	0.330925	0.666769
C112	C	0.959769	-0.600004	0.000088
C113	C	1.293102	-0.266671	0.333422
C114	C	1.626435	0.066663	0.666755
C115	C	0.958604	-0.672830	0.000070
C116	C	1.291937	-0.339497	0.333403
C117	C	1.625271	-0.006163	0.666737
C118	C	0.820644	-0.655946	0.000051
C119	C	1.153977	-0.322612	0.333385
C120	C	1.487311	0.010721	0.666718
C121	C	0.821811	-0.583121	0.000061
C122	C	1.155144	-0.249788	0.333395
C123	C	1.488477	0.083545	0.666728
C124	C	0.891375	-0.555155	0.000084
C125	C	1.224708	-0.221822	0.333417
C126	C	1.558042	0.111512	0.666751
C127	C	1.032151	0.088703	0.000108
C128	C	1.365484	0.422036	0.333441
C129	C	1.698818	0.755369	0.666775
C130	C	1.116167	0.089938	0.000113
C131	C	1.449501	0.423271	0.333446
C132	C	1.782834	0.756604	0.666779
C133	C	0.887810	0.221695	0.000071
C134	C	1.221143	0.555028	0.333405
C135	C	1.554476	0.888361	0.666738
C136	C	0.889046	0.299201	0.000059
C137	C	1.222379	0.632534	0.333392
C138	C	1.555713	0.965867	0.666726
N139	N	0.893741	0.094025	0.195758
N140	N	1.227074	0.427358	0.529092
N141	N	1.560407	0.760691	0.862425
N142	N	0.893781	0.094039	-0.195574
N143	N	1.227114	0.427373	0.137760
N144	N	1.560448	0.760706	0.471093
C145	C	0.945367	0.046491	0.239036
C146	C	1.278701	0.379824	0.572370
C147	C	1.612034	0.713157	0.905703
C148	C	0.945371	0.046490	0.325584
C149	C	1.278705	0.379823	0.658917
C150	C	1.612038	0.713157	0.992250
C151	C	0.893751	0.094027	0.368851
C152	C	1.227085	0.427360	0.702184
C153	C	1.560418	0.760694	1.035518
C154	C	0.842119	0.141563	0.325567
C155	C	1.175452	0.474896	0.658900
C156	C	1.508786	0.808230	0.992234
C157	C	0.842112	0.141560	0.239022
C158	C	1.175445	0.474893	0.572355
C159	C	1.508779	0.808227	0.905688
C160	C	0.842145	0.141576	0.674595
C161	C	1.175478	0.474909	1.007929
C162	C	1.508811	0.808243	1.341262
C163	C	0.842157	0.141577	0.761147
C164	C	1.175491	0.474910	1.094480
C165	C	1.508824	0.808244	1.427814
C166	C	0.945404	0.046506	0.761157
C167	C	1.278737	0.379840	1.094491
C168	C	1.612071	0.713173	1.427824
C169	C	0.945397	0.046503	0.674612
C170	C	1.278730	0.379836	1.007945
C171	C	1.612064	0.713170	1.341278
C172	C	0.893763	0.094036	0.631335
C173	C	1.227096	0.427370	0.964669
C174	C	1.560429	0.760703	1.298002
C175	C	0.893758	0.094036	0.537491
C176	C	1.227091	0.427369	0.870824
C177	C	1.560425	0.760702	1.204158
C178	C	0.893759	0.094031	0.462694
C179	C	1.227092	0.427365	0.796027
C180	C	1.560425	0.760698	1.129360
H181	H	0.647256	0.213450	0.000042
H182	H	0.980589	0.546783	0.333375
H183	H	1.313922	0.880116	0.666708
C184	C	1.002147	-0.005818	0.373185
C185	C	1.335480	0.327516	0.706519
C186	C	1.668814	0.660849	1.039852
N187	N	1.044906	-0.045225	0.409039
N188	N	1.378239	0.288108	0.742372
N189	N	1.711572	0.621442	1.075705
C190	C	0.528914	-0.037863	0.000112
C191	C	0.862247	0.295471	0.333445
C192	C	1.195580	0.628804	0.666778
N193	N	0.503861	-0.091058	0.000122
N194	N	0.837195	0.242276	0.333456
N195	N	1.170528	0.575609	0.666789
C196	C	1.002181	-0.005793	0.627022
C197	C	1.335515	0.327541	0.960356
C198	C	1.668848	0.660874	1.293689
N199	N	1.044950	-0.045186	0.591179
N200	N	1.378283	0.288148	0.924512
N201	N	1.711616	0.621481	1.257846
H202	H	0.800119	0.180289	0.796374
H203	H	1.133452	0.513622	1.129707
H204	H	1.466786	0.846955	1.463041
H205	H	0.800104	0.180281	0.639366
H206	H	1.133437	0.513614	0.972700
H207	H	1.466770	0.846947	1.306033
C208	C	1.040939	-0.278145	0.000137
C209	C	1.374272	0.055189	0.333471
C210	C	1.707605	0.388522	0.666804
N211	N	1.097609	-0.315306	0.000154
N212	N	1.430942	0.018027	0.333488
N213	N	1.764276	0.351360	0.666821
H214	H	0.800085	0.180266	0.360800
H215	H	1.133419	0.513600	0.694134
H216	H	1.466752	0.846933	1.027467
H217	H	0.800071	0.180266	0.203785
H218	H	1.133405	0.513599	0.537119
H219	H	1.466738	0.846933	0.870452
H220	H	1.023506	-0.133213	0.000147
H221	H	1.356839	0.200120	0.333480
H222	H	1.690172	0.533453	0.666814
C223	C	1.036290	-0.569239	0.000101
C224	C	1.369623	-0.235905	0.333434
C225	C	1.702957	0.097428	0.666767
N226	N	1.093927	-0.546068	0.000107
N227	N	1.427260	-0.212735	0.333441
N228	N	1.760594	0.120599	0.666774
C229	C	0.746573	-0.533787	0.000052
C230	C	1.079907	-0.200454	0.333385
C231	C	1.413240	0.132880	0.666719
N232	N	0.689901	-0.496628	0.000042
N233	N	1.023234	-0.163295	0.333375
N234	N	1.356567	0.170039	0.666708
H235	H	0.504050	0.211335	0.000056
H236	H	0.837383	0.544669	0.333389
H237	H	1.170717	0.878002	0.666723
H238	H	0.987446	0.007800	0.796402
H239	H	1.320779	0.341133	1.129736
H240	H	1.654112	0.674466	1.463069
C241	C	0.258600	0.225931	0.000075
C242	C	0.591934	0.559264	0.333408
C243	C	0.925267	0.892598	0.666742
N244	N	0.283646	0.279129	0.000072
N245	N	0.616980	0.612462	0.333405
N246	N	0.950313	0.945796	0.666738
H247	H	0.680771	-0.017406	0.000096
H248	H	1.014105	0.315928	0.333430
H249	H	1.347438	0.649261	0.666763
H250	H	0.106741	0.205470	0.000082
H251	H	0.440074	0.538804	0.333415
H252	H	0.773408	0.872137	0.666749
C253	C	0.751228	-0.242694	0.000087
C254	C	1.084561	0.090639	0.333420
C255	C	1.417895	0.423972	0.666753
N256	N	0.693596	-0.265873	0.000083
N257	N	1.026929	0.067461	0.333416
N258	N	1.360262	0.400794	0.666750
H259	H	0.773210	-0.102582	0.000086
H260	H	1.106544	0.230751	0.333419
H261	H	1.439877	0.564085	0.666753
C262	C	1.002154	-0.005805	0.191450
C263	C	1.335487	0.327528	0.524783
C264	C	1.668821	0.660862	0.858117
N265	N	1.044925	-0.045198	0.155610
N266	N	1.378259	0.288135	0.488944
N267	N	1.711592	0.621469	0.822277
C268	C	0.297383	-0.041288	0.000128
C269	C	0.630716	0.292046	0.333461
C270	C	0.964050	0.625379	0.666795
N271	N	0.337730	-0.093524	0.000137
N272	N	0.671064	0.239810	0.333470
N273	N	1.004397	0.573143	0.666804
C274	C	0.131616	-0.043731	0.000144
C275	C	0.464949	0.289603	0.333477
C276	C	0.798283	0.622936	0.666811
N277	N	0.106566	-0.096927	0.000166
N278	N	0.439899	0.236406	0.333499
N279	N	0.773233	0.569740	0.666833
H280	H	1.014299	-0.709345	0.000076
H281	H	1.347633	-0.376011	0.333409
H282	H	1.680966	-0.042678	0.666742
H283	H	0.764009	-0.678722	0.000039
H284	H	1.097342	-0.345388	0.333373
H285	H	1.430676	-0.012055	0.666706
