data_functionalizedCrystal
_audit_creation_method	'MofGen! by Chris Wilmer'
_symmetry_space_group_name_H-M	'P1'
_symmetry_Int_Tables_number	1
_symmetry_cell_setting	triclinic
loop_
_symmetry_equiv_pos_as_xyz
  x,y,z
_cell_length_a	17.699077
_cell_length_b	17.699083
_cell_length_c	16.176319
_cell_angle_alpha	89.992304
_cell_angle_beta	89.993140
_cell_angle_gamma	83.281795
loop_
_atom_site_label
_atom_site_type_symbol
_atom_site_fract_x
_atom_site_fract_y
_atom_site_fract_z
O1	O	1.004082	0.095692	-0.068737
O2	O	1.337415	0.429025	0.264596
O3	O	1.670748	0.762358	0.597929
O4	O	0.783703	0.108149	-0.068741
O5	O	1.117036	0.441482	0.264592
O6	O	1.450369	0.774815	0.597925
O7	O	0.900118	-0.008269	-0.068732
O8	O	1.233452	0.325064	0.264601
O9	O	1.566785	0.658398	0.597935
O10	O	0.887666	0.212110	-0.068747
O11	O	1.220999	0.545443	0.264587
O12	O	1.554333	0.878776	0.597920
O13	O	0.900102	-0.008277	0.068761
O14	O	1.233436	0.325057	0.402095
O15	O	1.566769	0.658390	0.735428
O16	O	0.783687	0.108141	0.068752
O17	O	1.117020	0.441475	0.402085
O18	O	1.450353	0.774808	0.735418
O19	O	1.004066	0.095684	0.068756
O20	O	1.337399	0.429018	0.402089
O21	O	1.670732	0.762351	0.735423
Cu22	Cu	0.893875	0.101912	0.081308
Cu23	Cu	1.227208	0.435245	0.414641
Cu24	Cu	1.560541	0.768579	0.747975
Cu25	Cu	0.893894	0.101921	-0.081294
Cu26	Cu	1.227227	0.435254	0.252040
Cu27	Cu	1.560560	0.768588	0.585373
O28	O	0.887650	0.212102	0.068746
O29	O	1.220983	0.545435	0.402080
O30	O	1.554317	0.878769	0.735413
C31	C	0.755498	0.107700	0.000005
C32	C	1.088831	0.441033	0.333338
C33	C	1.422164	0.774366	0.666671
C34	C	0.671479	0.106363	0.000003
C35	C	1.004813	0.439696	0.333337
C36	C	1.338146	0.773029	0.666670
C37	C	0.899664	-0.036470	0.000015
C38	C	1.232998	0.296864	0.333348
C39	C	1.566331	0.630197	0.666681
C40	C	0.898326	-0.120488	0.000015
C41	C	1.231659	0.212845	0.333348
C42	C	1.564992	0.546179	0.666682
C43	C	0.632003	0.105729	0.074952
C44	C	0.965336	0.439062	0.408285
C45	C	1.298670	0.772395	0.741618
C46	C	0.553061	0.104461	0.074953
C47	C	0.886394	0.437794	0.408286
C48	C	1.219727	0.771127	0.741619
C49	C	0.513595	0.103832	0.000004
C50	C	0.846928	0.437165	0.333338
C51	C	1.180262	0.770498	0.666671
C52	C	0.553077	0.104464	-0.074950
C53	C	0.886410	0.437797	0.258383
C54	C	1.219743	0.771130	0.591717
C55	C	0.632019	0.105726	-0.074950
C56	C	0.965352	0.439060	0.258383
C57	C	1.298685	0.772393	0.591717
C58	C	0.234714	0.099370	-0.074951
C59	C	0.568047	0.432704	0.258382
C60	C	0.901380	0.766037	0.591715
C61	C	0.155766	0.098110	-0.074945
C62	C	0.489099	0.431443	0.258388
C63	C	0.822433	0.764776	0.591721
C64	C	0.155755	0.098105	0.074952
C65	C	0.489089	0.431438	0.408285
C66	C	0.822422	0.764771	0.741618
C67	C	0.234697	0.099367	0.074951
C68	C	0.568031	0.432701	0.408285
C69	C	0.901364	0.766034	0.741618
C70	C	0.274173	0.099995	-0.000002
C71	C	0.607506	0.433328	0.333331
C72	C	0.940840	0.766662	0.666664
C73	C	0.359772	0.101369	-0.000002
C74	C	0.693105	0.434702	0.333331
C75	C	1.026438	0.768035	0.666664
C76	C	0.427997	0.102464	0.000004
C77	C	0.761330	0.435797	0.333337
C78	C	1.094664	0.769130	0.666670
C79	C	0.966659	-0.169110	0.000018
C80	C	1.299993	0.164223	0.333351
C81	C	1.633326	0.497556	0.666684
C82	C	0.965397	-0.248054	0.000010
C83	C	1.298730	0.085280	0.333344
C84	C	1.632064	0.418613	0.666677
C85	C	0.895800	-0.278373	0.000006
C86	C	1.229134	0.054960	0.333340
C87	C	1.562467	0.388294	0.666673
C88	C	0.827461	-0.229744	0.000001
C89	C	1.160795	0.103589	0.333335
C90	C	1.494128	0.436922	0.666668
C91	C	0.828724	-0.150803	0.000003
C92	C	1.162058	0.182531	0.333336
C93	C	1.495391	0.515864	0.666669
C94	C	0.822366	-0.548107	-0.000005
C95	C	1.155699	-0.214774	0.333328
C96	C	1.489033	0.118559	0.666661
C97	C	0.821108	-0.627055	-0.000004
C98	C	1.154442	-0.293722	0.333329
C99	C	1.487775	0.039612	0.666662
C100	C	0.959039	-0.645358	0.000002
C101	C	1.292372	-0.312025	0.333335
C102	C	1.625705	0.021308	0.666669
C103	C	0.960302	-0.566417	0.000003
C104	C	1.293635	-0.233083	0.333337
C105	C	1.626968	0.100250	0.666670
C106	C	0.891963	-0.517795	-0.000006
C107	C	1.225297	-0.184461	0.333327
C108	C	1.558630	0.148872	0.666661
C109	C	0.893333	-0.432196	0.000000
C110	C	1.226666	-0.098862	0.333334
C111	C	1.559999	0.234471	0.666667
C112	C	0.894430	-0.363971	0.000006
C113	C	1.227763	-0.030637	0.333339
C114	C	1.561097	0.302696	0.666673
C115	C	1.032271	0.096133	0.000008
C116	C	1.365604	0.429467	0.333341
C117	C	1.698937	0.762800	0.666675
C118	C	1.116289	0.097470	0.000004
C119	C	1.449622	0.430804	0.333337
C120	C	1.782956	0.764137	0.666671
C121	C	0.888104	0.240303	-0.000002
C122	C	1.221437	0.573636	0.333331
C123	C	1.554771	0.906969	0.666665
C124	C	0.889443	0.324321	-0.000008
C125	C	1.222776	0.657654	0.333326
C126	C	1.556109	0.990988	0.666659
N127	N	0.893867	0.101906	0.195673
N128	N	1.227200	0.435239	0.529007
N129	N	1.560534	0.768572	0.862340
N130	N	0.893907	0.101921	-0.195659
N131	N	1.227241	0.435255	0.137675
N132	N	1.560574	0.768588	0.471008
C133	C	0.945431	0.050377	0.238942
C134	C	1.278765	0.383710	0.572275
C135	C	1.612098	0.717043	0.905608
C136	C	0.945435	0.050376	0.325489
C137	C	1.278768	0.383709	0.658822
C138	C	1.612102	0.717043	0.992155
C139	C	0.893878	0.101908	0.368766
C140	C	1.227211	0.435241	0.702099
C141	C	1.560544	0.768575	1.035433
C142	C	0.842308	0.153439	0.325491
C143	C	1.175641	0.486773	0.658825
C144	C	1.508974	0.820106	0.992158
C145	C	0.842301	0.153436	0.238946
C146	C	1.175634	0.486769	0.572279
C147	C	1.508968	0.820103	0.905613
C148	C	0.842334	0.153454	0.674520
C149	C	1.175667	0.486787	1.007853
C150	C	1.509000	0.820120	1.341186
C151	C	0.842346	0.153455	0.761071
C152	C	1.175679	0.486788	1.094405
C153	C	1.509013	0.820121	1.427738
C154	C	0.945468	0.050393	0.761063
C155	C	1.278801	0.383727	1.094396
C156	C	1.612135	0.717060	1.427729
C157	C	0.945461	0.050390	0.674517
C158	C	1.278794	0.383723	1.007850
C159	C	1.612128	0.717057	1.341184
C160	C	0.893889	0.101918	0.631250
C161	C	1.227222	0.435252	0.964583
C162	C	1.560556	0.768585	1.297917
C163	C	0.893884	0.101918	0.537406
C164	C	1.227218	0.435251	0.870739
C165	C	1.560551	0.768584	1.204073
C166	C	0.893885	0.101913	0.462608
C167	C	1.227218	0.435246	0.795942
C168	C	1.560552	0.768580	1.129275
H169	H	0.664130	0.106247	0.135984
H170	H	0.997463	0.439580	0.469317
H171	H	1.330796	0.772914	0.802650
H172	H	0.987459	0.008434	0.796300
H173	H	1.320792	0.341767	1.129633
H174	H	1.654125	0.675100	1.462966
F175	F	0.753391	-0.262014	-0.000012
F176	F	1.086724	0.071319	0.333321
F177	F	1.420058	0.404652	0.666655
F178	F	0.787468	0.208304	0.807128
F179	F	1.120801	0.541638	1.140462
F180	F	1.454135	0.874971	1.473795
H181	H	0.766721	-0.508528	-0.000013
H182	H	1.100054	-0.175195	0.333321
H183	H	1.433387	0.158138	0.666654
F184	F	0.511075	0.103771	-0.154716
F185	F	0.844409	0.437104	0.178617
F186	F	1.177742	0.770438	0.511951
H187	H	0.520924	0.103932	0.135983
H188	H	0.854258	0.437265	0.469317
H189	H	1.187591	0.770598	0.802650
H190	H	0.800343	0.195411	0.639299
H191	H	1.133677	0.528744	0.972632
H192	H	1.467010	0.862078	1.305965
F193	F	0.755994	-0.099055	-0.000002
F194	F	1.089328	0.234279	0.333331
F195	F	1.422661	0.567612	0.666664
H196	H	0.800325	0.195395	0.360733
H197	H	1.133658	0.528729	0.694066
H198	H	1.466992	0.862062	1.027399
F199	F	1.000311	-0.004469	0.192891
F200	F	1.333644	0.328865	0.526224
F201	F	1.666977	0.662198	0.859558
F202	F	1.040735	-0.136850	0.000030
F203	F	1.374068	0.196483	0.333363
F204	F	1.707401	0.529817	0.666696
H205	H	1.014683	-0.684956	0.000005
H206	H	1.348016	-0.351623	0.333339
H207	H	1.681350	-0.018289	0.666672
H208	H	0.664159	0.106244	-0.135981
H209	H	0.997492	0.439577	0.197352
H210	H	1.330826	0.772911	0.530686
F211	F	1.034376	-0.534153	0.000007
F212	F	1.367709	-0.200820	0.333340
F213	F	1.701042	0.132513	0.666673
F214	F	1.000338	-0.004454	0.628462
F215	F	1.333671	0.328879	0.961795
F216	F	1.667004	0.662212	1.295128
F217	F	0.787417	0.208278	0.192898
F218	F	1.120750	0.541612	0.526231
F219	F	1.454083	0.874945	0.859564
F220	F	0.747030	-0.659321	-0.000010
F221	F	1.080364	-0.325987	0.333324
F222	F	1.413697	0.007346	0.666657
H223	H	0.266826	0.099883	0.135982
H224	H	0.600159	0.433216	0.469315
H225	H	0.933493	0.766550	0.802649
H226	H	0.266845	0.099879	-0.135983
H227	H	0.600179	0.433212	0.197350
H228	H	0.933512	0.766546	0.530684
F229	F	1.000315	-0.004468	0.371539
F230	F	1.333648	0.328866	0.704872
F231	F	1.666981	0.662199	1.038205
H232	H	0.123605	0.097590	0.135983
H233	H	0.456939	0.430923	0.469316
H234	H	0.790272	0.764257	0.802649
F235	F	0.113765	0.097439	-0.154720
F236	F	0.447098	0.430773	0.178614
F237	F	0.780432	0.764106	0.511947
H238	H	1.021041	-0.287639	0.000014
H239	H	1.354374	0.045694	0.333347
H240	H	1.687708	0.379027	0.666681
