data_functionalizedCrystal
_audit_creation_method	'MofGen! by Chris Wilmer'
_symmetry_space_group_name_H-M	'P1'
_symmetry_Int_Tables_number	1
_symmetry_cell_setting	triclinic
loop_
_symmetry_equiv_pos_as_xyz
  x,y,z
_cell_length_a	12.759395
_cell_length_b	18.101397
_cell_length_c	12.759387
_cell_angle_alpha	89.962982
_cell_angle_beta	89.979491
_cell_angle_gamma	90.022002
loop_
_atom_site_label
_atom_site_type_symbol
_atom_site_fract_x
_atom_site_fract_y
_atom_site_fract_z
Zn1	Zn	1.606227	-0.294760	-0.593960
Zn2	Zn	1.606100	-0.418620	-0.418261
Zn3	Zn	1.430525	-0.294801	-0.418297
Zn4	Zn	1.430499	-0.418568	-0.593900
O5	O	1.518338	-0.356687	-0.506104
O6	O	1.753231	-0.311196	-0.570663
O7	O	1.582767	-0.402234	-0.271245
O8	O	1.453896	-0.191162	-0.441638
O9	O	1.753137	-0.402195	-0.441578
O10	O	1.582983	-0.191133	-0.570697
O11	O	1.453773	-0.311264	-0.271271
O12	O	1.283500	-0.311213	-0.441581
O13	O	1.453853	-0.402105	-0.740929
O14	O	1.283482	-0.402145	-0.570596
O15	O	1.582959	-0.311145	-0.740973
O16	O	1.582742	-0.522246	-0.441520
O17	O	1.453729	-0.522208	-0.570561
C18	C	1.245370	-0.356678	-0.506086
C19	C	1.128593	-0.356692	-0.506103
C20	C	1.128613	-0.451532	-0.640230
C21	C	1.073761	-0.498958	-0.707296
C22	C	0.964040	-0.498967	-0.707309
C23	C	0.909167	-0.451543	-0.640250
C24	C	0.964018	-0.404118	-0.573184
C25	C	1.073742	-0.404115	-0.573176
C26	C	0.963999	-0.309275	-0.439065
C27	C	1.073720	-0.309269	-0.439045
C28	C	0.909126	-0.261852	-0.372007
C29	C	0.963977	-0.214429	-0.304934
C30	C	1.073705	-0.214422	-0.304923
C31	C	1.128572	-0.261843	-0.371979
C32	C	1.518248	-0.549098	-0.506053
C33	C	1.518305	-0.631412	-0.506067
C34	C	1.518439	-0.930503	-0.506163
C35	C	1.599384	-0.899171	-0.424756
C36	C	1.599665	-0.813553	-0.424967
C37	C	1.518373	-0.782120	-0.506114
C38	C	1.548394	-0.813118	-0.616855
C39	C	1.549020	-0.898763	-0.616412
C40	C	1.407258	-0.899016	-0.477787
C41	C	1.407807	-0.813367	-0.475315
C42	C	1.518334	-0.698261	-0.506094
C43	C	1.518481	-1.014362	-0.506191
C44	C	1.792371	-0.356697	-0.506123
C45	C	1.909148	-0.356701	-0.506131
C46	C	1.518417	-0.356615	-0.780138
C47	C	1.518451	-0.356584	-0.896915
C48	C	1.518456	-0.163525	-0.506178
C49	C	1.518507	-0.081211	-0.506210
C50	C	1.652898	-0.261872	-0.896980
C51	C	1.720136	-0.214506	-0.951874
C52	C	1.720162	-0.214479	-1.061595
C53	C	1.652940	-0.261822	-1.116426
C54	C	1.585701	-0.309189	-1.061533
C55	C	1.585685	-0.309212	-0.951808
C56	C	1.451251	-0.403895	-1.061467
C57	C	1.451229	-0.403927	-0.951745
C58	C	1.384028	-0.451238	-1.116298
C59	C	1.316794	-0.498610	-1.061404
C60	C	1.316772	-0.498636	-0.951676
C61	C	1.383990	-0.451294	-0.896852
C62	C	1.518319	-0.356706	-0.233137
C63	C	1.518489	-0.356528	-0.116361
H64	H	0.819826	-0.451549	-0.640276
H65	H	1.118451	-0.537568	-0.761895
F66	F	1.324733	-0.785411	-0.547138
F67	F	1.328427	-0.925501	-0.555283
H68	H	0.919380	-0.537581	-0.761925
H69	H	1.217913	-0.261844	-0.371974
F70	F	0.905572	-0.163958	-0.233581
H71	H	1.682022	-0.793006	-0.443741
F72	F	1.245388	-0.451535	-0.640209
H73	H	1.652894	-0.261897	-0.807639
F74	F	1.473685	-0.786511	-0.698268
F75	F	1.653429	-0.785004	-0.648808
H76	H	1.262062	-0.537149	-1.106056
F77	F	1.475298	-0.925852	-0.698386
H78	H	1.774865	-0.175958	-0.907218
H79	H	1.652957	-0.261789	-1.205767
H80	H	0.819785	-0.261859	-0.372027
H81	H	1.384050	-0.451210	-1.205639
H82	H	1.774906	-0.175904	-1.106289
F83	F	1.371560	-0.927337	-0.374068
H84	H	1.385170	-0.793115	-0.393818
F85	F	1.132074	-0.163940	-0.233545
F86	F	1.245201	-0.549047	-0.893263
F87	F	1.575060	-0.786161	-0.317652
F88	F	1.383977	-0.451320	-0.780076
H89	H	1.630289	-0.918679	-0.640449
H90	H	1.580828	-0.919821	-0.342397
H91	H	1.681291	-0.920636	-0.443314
