data_functionalizedCrystal
_audit_creation_method	'MofGen! by Chris Wilmer'
_symmetry_space_group_name_H-M	'P1'
_symmetry_Int_Tables_number	1
_symmetry_cell_setting	triclinic
loop_
_symmetry_equiv_pos_as_xyz
  x,y,z
_cell_length_a	13.897449
_cell_length_b	12.594516
_cell_length_c	12.594509
_cell_angle_alpha	89.975348
_cell_angle_beta	89.979847
_cell_angle_gamma	90.017332
loop_
_atom_site_label
_atom_site_type_symbol
_atom_site_fract_x
_atom_site_fract_y
_atom_site_fract_z
Zn1	Zn	1.474708	-0.423690	-0.601833
Zn2	Zn	1.474608	-0.601695	-0.423861
Zn3	Zn	1.313399	-0.423735	-0.423867
Zn4	Zn	1.313384	-0.601631	-0.601796
O5	O	1.394025	-0.512688	-0.512839
O6	O	1.609676	-0.447311	-0.578238
O7	O	1.453188	-0.578135	-0.274916
O8	O	1.334845	-0.274783	-0.447493
O9	O	1.609603	-0.578091	-0.447483
O10	O	1.453358	-0.274750	-0.578244
O11	O	1.334748	-0.447388	-0.274920
O12	O	1.178415	-0.447325	-0.447456
O13	O	1.334819	-0.577981	-0.750747
O14	O	1.178404	-0.578025	-0.578180
O15	O	1.453343	-0.447248	-0.750774
O16	O	1.453173	-0.750633	-0.447446
O17	O	1.334722	-0.750585	-0.578174
C18	C	1.143410	-0.512674	-0.512815
C19	C	1.036196	-0.512693	-0.512830
C20	C	0.839901	-0.512697	-0.512858
C21	C	0.949134	-0.512692	-0.512839
C22	C	1.393961	-0.789229	-0.512829
C23	C	1.394023	-0.907534	-0.512860
C24	C	1.329591	-0.976800	-0.583913
C25	C	1.306088	-1.047664	-0.486790
C26	C	1.417613	-1.047470	-0.609999
C27	C	1.370474	-0.976839	-0.415686
C28	C	1.482039	-0.976639	-0.538960
C29	C	1.458570	-1.047471	-0.441771
C30	C	1.645618	-0.512703	-0.512864
C31	C	1.752832	-0.512709	-0.512875
C32	C	1.394091	-0.512602	-0.790460
C33	C	1.394119	-0.512566	-0.908766
C34	C	1.394114	-0.235067	-0.512873
C35	C	1.394153	-0.116762	-0.512887
C36	C	1.329694	-0.583582	-1.048768
C37	C	1.306111	-0.486518	-0.977963
C38	C	1.417658	-0.609620	-0.977999
C39	C	1.370545	-0.415316	-1.048747
C40	C	1.482134	-0.538485	-1.048789
C41	C	1.458584	-0.441353	-0.978016
C42	C	1.394015	-0.512696	-0.236298
C43	C	1.394173	-0.512433	-0.117993
H44	H	1.231715	-1.078884	-0.464737
O45	O	1.346575	-0.317293	-1.085527
C46	C	1.227017	-0.178850	-1.090426
C47	C	1.254054	-0.289854	-1.048681
H48	H	1.152205	-0.156641	-1.060672
H49	H	1.281555	-0.118150	-1.060647
H50	H	1.227254	-0.179615	-1.180940
H51	H	1.253807	-0.289193	-0.958171
H52	H	1.199510	-0.350507	-1.078542
H53	H	1.513089	-0.381172	-0.947148
H54	H	1.350487	-0.945942	-0.333525
O55	O	1.264405	-0.939949	-0.655504
C56	C	1.144440	-0.984476	-0.786220
C57	C	1.218212	-1.026354	-0.705169
H58	H	1.107087	-1.054313	-0.826412
H59	H	1.088658	-0.933550	-0.743680
H60	H	1.183014	-0.934549	-0.848627
H61	H	1.179721	-1.076326	-0.642741
H62	H	1.273989	-1.077222	-0.747783
O63	O	1.523532	-1.084217	-0.369880
C64	C	1.572132	-1.089673	-0.186320
C65	C	1.498489	-1.048005	-0.267622
H66	H	1.551923	-1.060395	-0.103630
H67	H	1.572159	-1.180187	-0.187255
H68	H	1.646883	-1.059224	-0.207907
H69	H	1.423703	-1.078376	-0.246092
H70	H	1.498547	-0.957493	-0.266673
O71	O	1.441475	-1.084611	-0.707904
C72	C	1.552958	-1.187985	-0.811726
C73	C	1.526043	-1.146020	-0.700785
H74	H	1.621344	-1.237624	-0.806011
H75	H	1.491829	-1.239177	-0.843699
H76	H	1.565660	-1.118147	-0.867619
H77	H	1.513357	-1.215793	-0.644813
H78	H	1.587187	-1.094796	-0.668899
H79	H	1.556396	-0.945422	-0.561060
H80	H	1.231701	-0.464533	-0.946853
O81	O	1.264687	-0.655336	-1.085716
C82	C	1.215012	-0.838602	-1.090191
C83	C	1.288686	-0.757460	-1.048249
H84	H	1.234400	-0.921191	-1.059935
H85	H	1.140010	-0.816335	-1.061062
H86	H	1.216121	-0.838356	-1.180700
H87	H	1.287663	-0.757664	-0.957743
H88	H	1.363653	-0.779756	-1.077459
O89	O	1.570848	-0.564929	-1.085892
C90	C	1.695962	-0.697210	-1.091953
C91	C	1.595477	-0.667392	-1.049881
H92	H	1.715914	-0.780043	-1.062836
H93	H	1.695320	-0.696203	-1.182463
H94	H	1.751076	-0.637414	-1.061644
H95	H	1.540307	-0.727159	-1.080111
H96	H	1.596199	-0.668365	-0.959371
O97	O	1.441337	-0.707552	-0.940747
C98	C	1.468774	-0.817051	-0.786771
C99	C	1.441938	-0.706098	-0.828807
H100	H	1.469289	-0.815906	-0.696264
H101	H	1.413737	-0.877585	-0.815761
H102	H	1.543240	-0.839786	-0.817181
H103	H	1.367495	-0.683263	-0.798416
H104	H	1.497036	-0.645628	-0.799826
