data_functionalizedCrystal
_audit_creation_method	'MofGen! by Chris Wilmer'
_symmetry_space_group_name_H-M	'P1'
_symmetry_Int_Tables_number	1
_symmetry_cell_setting	triclinic
loop_
_symmetry_equiv_pos_as_xyz
  x,y,z
_cell_length_a	23.532407
_cell_length_b	16.992695
_cell_length_c	16.053919
_cell_angle_alpha	92.708997
_cell_angle_beta	92.896230
_cell_angle_gamma	86.758450
loop_
_atom_site_label
_atom_site_type_symbol
_atom_site_fract_x
_atom_site_fract_y
_atom_site_fract_z
O1	O	-0.762252	-0.098061	-0.069324
O2	O	-0.262252	0.401939	0.430676
O3	O	-0.597073	-0.111829	-0.069349
O4	O	-0.097073	0.388171	0.430651
O5	O	-0.679000	0.009193	-0.069330
O6	O	-0.179000	0.509193	0.430670
O7	O	-0.680325	-0.219083	-0.069343
O8	O	-0.180325	0.280917	0.430657
O9	O	-0.674443	0.015029	0.069526
O10	O	-0.174443	0.515029	0.569526
O11	O	-0.592516	-0.105993	0.069507
O12	O	-0.092516	0.394007	0.569507
O13	O	-0.757695	-0.092225	0.069532
O14	O	-0.257695	0.407775	0.569532
Zn15	Zn	-0.674382	-0.098182	0.091566
Zn16	Zn	-0.174382	0.401818	0.591566
Zn17	Zn	-0.680386	-0.105872	-0.091383
Zn18	Zn	-0.180386	0.394128	0.408617
O19	O	-0.675768	-0.213247	0.069513
O20	O	-0.175768	0.286753	0.569513
C21	C	-0.573561	-0.108561	0.000076
C22	C	-0.073561	0.391439	0.500076
C23	C	-0.510292	-0.107507	0.000067
C24	C	-0.010292	0.392493	0.500067
C25	C	-0.675018	0.041310	0.000098
C26	C	-0.175018	0.541310	0.500098
C27	C	-0.669935	0.128315	0.000097
C28	C	-0.169935	0.628315	0.500097
C29	C	-0.781207	-0.095493	0.000105
C30	C	-0.281207	0.404507	0.500105
C31	C	-0.844476	-0.096547	0.000109
C32	C	-0.344476	0.403453	0.500109
C33	C	-0.114414	-0.172512	0.000101
C34	C	0.385586	0.327488	0.500101
C35	C	-0.054965	-0.171533	0.000106
C36	C	0.445035	0.328467	0.500106
O37	O	-0.021210	-0.231794	0.000133
O38	O	0.478790	0.268206	0.500133
N39	N	-0.028768	-0.099586	0.000109
N40	N	0.471232	0.400414	0.500109
C41	C	-0.062024	-0.028613	0.000115
C42	C	0.437976	0.471387	0.500115
O43	O	-0.034283	0.032674	0.000119
O44	O	0.465717	0.532674	0.500119
C45	C	-0.121471	-0.029593	0.000116
C46	C	0.378529	0.470407	0.500116
C47	C	-0.147665	-0.101545	0.000105
C48	C	0.352335	0.398455	0.500105
C49	C	-0.140607	-0.244459	0.000091
C50	C	0.359393	0.255541	0.500091
C51	C	-0.200052	-0.245438	0.000084
C52	C	0.299948	0.254562	0.500084
C53	C	-0.233303	-0.174470	0.000088
C54	C	0.266697	0.325530	0.500088
C55	C	-0.207110	-0.102524	0.000098
C56	C	0.292890	0.397476	0.500098
C57	C	-0.154726	0.041379	0.000128
C58	C	0.345274	0.541379	0.500128
C59	C	-0.214177	0.040393	0.000129
C60	C	0.285823	0.540393	0.500129
C61	C	-0.240370	-0.031559	0.000118
C62	C	0.259630	0.468441	0.500118
C63	C	-0.299806	-0.032536	0.000095
C64	C	0.200194	0.467464	0.500095
N65	N	-0.326002	-0.104483	0.000092
N66	N	0.173998	0.395517	0.500092
C67	C	-0.292751	-0.175450	0.000088
C68	C	0.207249	0.324550	0.500088
C69	C	0.062821	-0.026560	0.000115
C70	C	0.562821	0.473440	0.500115
C71	C	0.122267	-0.025580	0.000108
C72	C	0.622267	0.474420	0.500108
C73	C	0.129322	-0.168500	0.000101
C74	C	0.629322	0.331500	0.500101
C75	C	0.069874	-0.169480	0.000102
C76	C	0.569874	0.330520	0.500102
C77	C	0.036624	-0.098508	0.000112
C78	C	0.536624	0.401492	0.500112
C79	C	-0.417590	-0.177501	0.000074
C80	C	0.082410	0.322499	0.500074
C81	C	-0.477041	-0.178474	0.000063
C82	C	0.022959	0.321526	0.500063
C83	C	-0.484091	-0.035554	0.000075
C84	C	0.015909	0.464446	0.500075
C85	C	-0.424645	-0.034581	0.000081
C86	C	0.075355	0.465419	0.500081
C87	C	-0.391396	-0.105561	0.000083
C88	C	0.108604	0.394439	0.500083
O89	O	-0.333597	0.027693	0.000071
O90	O	0.166403	0.527693	0.500071
O91	O	-0.320500	-0.236726	0.000096
O92	O	0.179500	0.263274	0.500096
C93	C	-0.679750	-0.245364	0.000083
C94	C	-0.179750	0.254636	0.500083
C95	C	-0.684834	-0.332369	0.000079
C96	C	-0.184834	0.167631	0.500079
N97	N	-0.670288	-0.092934	0.216424
N98	N	-0.170288	0.407066	0.716424
C99	C	-0.718981	0.178937	0.000105
C100	C	-0.218981	0.678937	0.500105
C101	C	-0.714202	0.260686	0.000096
C102	C	-0.214202	0.760686	0.500096
C103	C	-0.660375	0.291811	0.000085
C104	C	-0.160375	0.791811	0.500085
C105	C	-0.611326	0.241182	0.000075
C106	C	-0.111326	0.741182	0.500075
C107	C	-0.616106	0.159434	0.000077
C108	C	-0.116106	0.659434	0.500077
C109	C	-0.640564	0.535254	0.000071
C110	C	-0.140564	1.035254	0.500071
C111	C	-0.635788	0.617008	0.000071
C112	C	-0.135788	1.117008	0.500071
C113	C	-0.738664	0.636507	0.000091
C114	C	-0.238664	1.136507	0.500091
C115	C	-0.743439	0.554757	0.000098
C116	C	-0.243439	1.054757	0.500098
C117	C	-0.694390	0.504135	0.000083
C118	C	-0.194390	1.004135	0.500083
N119	N	-0.655489	0.375372	0.000079
N120	N	-0.155489	0.875372	0.500079
N121	N	-0.699277	0.420576	0.000084
N122	N	-0.199277	0.920576	0.500084
N123	N	-0.684484	-0.111114	-0.216241
N124	N	-0.184484	0.388886	0.283759
C125	C	-0.649227	-0.065667	0.740046
C126	C	-0.149227	0.434333	1.240046
C127	C	-0.652088	-0.069369	0.652640
C128	C	-0.152088	0.430631	1.152640
C129	C	-0.690204	-0.118522	0.608950
C130	C	-0.190204	0.381478	1.108950
C131	C	-0.725466	-0.163971	0.652669
C132	C	-0.225466	0.336029	1.152669
C133	C	-0.722607	-0.160265	0.740073
C134	C	-0.222607	0.339735	1.240073
C135	C	-0.702691	-0.134676	0.347547
C136	C	-0.202691	0.365324	0.847547
C137	C	-0.705546	-0.138381	0.260137
C138	C	-0.205546	0.361619	0.760137
C139	C	-0.632168	-0.043777	0.260115
C140	C	-0.132168	0.456223	0.760115
C141	C	-0.629310	-0.040078	0.347520
C142	C	-0.129310	0.459922	0.847520
C143	C	-0.664574	-0.085524	0.391232
C144	C	-0.164574	0.414476	0.891232
N145	N	-0.693129	-0.122309	0.519608
N146	N	-0.193129	0.377691	1.019608
N147	N	-0.661652	-0.081732	0.480572
N148	N	-0.161652	0.418268	0.980572
H149	H	-0.498364	-0.237069	0.000054
H150	H	0.001636	0.262931	0.500054
O151	O	-0.519960	0.040987	0.000079
O152	O	-0.019960	0.540987	0.500079
H153	H	-0.508387	0.077817	0.056678
H154	H	-0.008387	0.577817	0.556678
H155	H	-0.618185	-0.025645	0.775612
H156	H	-0.118185	0.474355	1.275612
O157	O	0.165191	-0.245047	0.000111
O158	O	0.665191	0.254953	0.500111
H159	H	0.210929	-0.232271	0.000124
H160	H	0.710929	0.267729	0.500124
H161	H	0.143588	0.033010	0.000104
H162	H	0.643588	0.533010	0.500104
O163	O	-0.777040	0.145376	0.000111
O164	O	-0.277040	0.645376	0.500111
H165	H	-0.779827	0.110987	0.056711
H166	H	-0.279827	0.610987	0.556711
H167	H	-0.756504	-0.203990	0.617090
H168	H	-0.256504	0.296010	1.117090
O169	O	-0.563207	0.104828	0.000078
O170	O	-0.063207	0.604828	0.500078
H171	H	-0.524974	0.140203	0.000079
H172	H	-0.024974	0.640203	0.500079
O173	O	-0.381732	-0.254056	0.000069
O174	O	0.118268	0.245944	0.500069
H175	H	-0.409942	-0.304243	0.000052
H176	H	0.090058	0.195757	0.500052
H177	H	-0.600624	0.494047	0.000059
H178	H	-0.100624	0.994047	0.500059
O179	O	-0.791563	0.691110	0.000104
O180	O	-0.291563	1.191110	0.500104
H181	H	-0.829794	0.655733	0.000118
H182	H	-0.329794	1.155733	0.500118
H183	H	-0.731405	-0.171682	0.383127
H184	H	-0.231405	0.328318	0.883127
O185	O	-0.594169	0.005267	0.212946
O186	O	-0.094169	0.505267	0.712946
H187	H	-0.566583	-0.034187	0.173115
H188	H	-0.066583	0.465813	0.673115
H189	H	-0.623379	-0.032358	0.617053
H190	H	-0.123379	0.467642	1.117053
H191	H	-0.598273	-0.000051	0.383087
H192	H	-0.098273	0.499949	0.883087
O193	O	-0.228300	-0.323042	0.000097
O194	O	0.271700	0.176958	0.500097
H195	H	-0.195183	-0.372218	0.000109
H196	H	0.304817	0.127782	0.500109
O197	O	0.026960	0.049995	0.000120
O198	O	0.526960	0.549995	0.500120
H199	H	-0.002150	0.050591	-0.056471
H200	H	0.497850	0.550591	0.443529
H201	H	-0.736584	-0.178414	0.224567
H202	H	-0.236584	0.321586	0.724567
O203	O	-0.104752	-0.321012	0.000088
O204	O	0.395248	0.178988	0.500088
H205	H	-0.059010	-0.308259	0.000095
H206	H	0.440990	0.191741	0.500095
H207	H	-0.133410	0.099970	0.000138
H208	H	0.366590	0.599970	0.500138
H209	H	0.048552	-0.228070	0.000097
H210	H	0.548552	0.271930	0.500097
H211	H	-0.241247	0.098189	0.000138
H212	H	0.258753	0.598189	0.500138
O213	O	-0.396388	0.043021	0.000090
O214	O	0.103612	0.543021	0.500090
H215	H	-0.429499	0.092204	0.000095
H216	H	0.070501	0.592204	0.500095
O217	O	-0.760632	-0.209285	0.787228
O218	O	-0.260632	0.290715	1.287228
H219	H	-0.787613	-0.244094	0.742165
H220	H	-0.287613	0.255906	1.242165
H221	H	-0.754140	0.301901	0.000105
H222	H	-0.254140	0.801901	0.500105
H223	H	-0.787270	0.529422	0.000107
H224	H	-0.287270	1.029422	0.500107
H225	H	-0.591953	0.642347	0.000076
H226	H	-0.091953	1.142347	0.500076
O227	O	-0.553268	0.274746	0.000072
O228	O	-0.053268	0.774746	0.500072
H229	H	-0.558182	0.340096	0.000084
H230	H	-0.058182	0.840096	0.500084
