data_functionalizedCrystal
_audit_creation_method	'MofGen! by Chris Wilmer'
_symmetry_space_group_name_H-M	'P1'
_symmetry_Int_Tables_number	1
_symmetry_cell_setting	triclinic
loop_
_symmetry_equiv_pos_as_xyz
  x,y,z
_cell_length_a	6.817900
_cell_length_b	19.551749
_cell_length_c	19.551136
_cell_angle_alpha	96.352659
_cell_angle_beta	78.349158
_cell_angle_gamma	78.338087
loop_
_atom_site_label
_atom_site_type_symbol
_atom_site_fract_x
_atom_site_fract_y
_atom_site_fract_z
V1	V	3.997194	-0.218204	-0.097410
O2	O	3.994594	-0.213696	0.003928
O3	O	3.939946	-0.217052	-0.192423
O4	O	3.939989	-0.313215	-0.096242
O5	O	3.994551	-0.116868	-0.092919
V6	V	4.483110	-0.206042	-0.085249
O7	O	4.253205	-0.244883	-0.124084
O8	O	4.677296	-0.179364	-0.058575
O9	O	4.317151	-0.207194	0.009764
O10	O	4.603106	-0.210550	-0.186587
O11	O	4.603150	-0.307379	-0.089740
O12	O	4.317108	-0.111031	-0.086417
C13	C	3.783079	-0.213698	-0.215574
C14	C	3.817500	-0.213390	-0.293251
C15	C	3.800387	-0.149212	-0.319526
C16	C	3.832802	-0.148901	-0.392509
C17	C	3.882291	-0.212770	-0.439215
C18	C	3.899416	-0.276956	-0.412933
C19	C	3.867021	-0.277266	-0.339951
C20	C	3.842511	-0.259080	-0.560381
C21	C	3.874892	-0.258767	-0.633361
C22	C	3.982221	-0.211817	-0.664315
C23	C	4.057132	-0.165168	-0.622279
C24	C	4.024736	-0.165477	-0.549297
C25	C	3.917424	-0.212441	-0.518352
C26	C	4.000257	-0.147298	-0.769726
C27	C	4.032686	-0.146990	-0.842712
C28	C	4.099280	-0.275046	-0.863134
C29	C	4.066870	-0.275353	-0.790150
C30	C	4.017350	-0.211477	-0.743450
C31	C	3.783134	-0.336362	-0.092885
C32	C	3.817588	-0.414037	-0.092559
C33	C	3.867021	-0.460726	-0.156430
C34	C	3.899417	-0.533711	-0.156131
C35	C	3.882336	-0.560002	-0.091956
C36	C	3.832905	-0.513303	-0.028077
C37	C	3.800531	-0.440320	-0.028378
C38	C	3.791524	-0.665517	-0.040180
C39	C	3.823887	-0.738498	-0.039881
C40	C	3.982197	-0.785105	-0.091024
C41	C	4.108121	-0.758722	-0.142478
C42	C	4.075747	-0.685739	-0.142779
C43	C	3.917438	-0.639138	-0.091622
C44	C	4.066764	-0.910933	-0.154575
C45	C	4.099171	-0.983919	-0.154274
C46	C	4.032638	-0.963509	-0.026218
C47	C	4.000252	-0.890525	-0.026522
C48	C	4.017308	-0.864242	-0.090702
C49	C	4.137360	-0.210547	0.032912
C50	C	4.082177	-0.210860	0.110587
C51	C	4.137306	-0.087880	-0.089776
C52	C	4.082091	-0.010205	-0.090099
H53	H	4.080792	-0.327613	-0.768758
N54	N	3.884450	-0.342818	-0.313096
N55	N	3.855499	-0.343084	-0.247932
H56	H	3.867799	-0.389380	-0.228963
N57	N	3.798349	-0.306418	-0.676285
N58	N	3.702552	-0.348341	-0.648643
H59	H	3.648491	-0.381997	-0.678957
N60	N	4.015236	-0.081436	-0.869564
N61	N	4.166195	-0.069681	-0.910753
H62	H	4.153872	-0.023383	-0.929719
H63	H	3.880923	-0.439331	-0.208691
N64	N	4.204345	-0.658776	-0.195327
N65	N	4.127029	-0.623259	-0.236687
H66	H	4.217855	-0.604215	-0.273798
N67	N	3.695294	-0.765456	0.012673
N68	N	3.724213	-0.830619	0.012935
H69	H	3.633392	-0.849658	0.050052
H70	H	4.139577	-0.327050	-0.901161
H71	H	3.662601	-0.627574	0.001469
H72	H	3.755112	-0.297316	-0.535185
H73	H	4.085737	-0.127495	-0.515074
N74	N	3.949974	-0.342205	-0.460627
N75	N	4.108960	-0.387816	-0.462058
H76	H	4.144675	-0.433901	-0.495741
N77	N	3.949923	-0.581404	-0.221383
N78	N	3.965152	-0.557927	-0.278679
H79	H	4.000818	-0.591608	-0.324764
N80	N	4.149618	-1.031611	-0.219521
N81	N	4.034772	-1.071847	-0.230925
H82	H	4.070391	-1.105530	-0.277008
N83	N	3.949724	-0.082061	-0.722010
N84	N	3.920803	-0.082346	-0.656850
H85	H	3.885119	-0.036272	-0.623151
N86	N	4.269739	-0.806333	-0.194749
N87	N	4.298581	-0.871496	-0.194492
H88	H	4.412685	-0.905126	-0.231419
N89	N	4.083596	-0.884080	-0.220125
N90	N	4.127355	-0.925772	-0.277143
H91	H	4.139017	-0.906804	-0.323434
H92	H	4.018742	-0.984915	0.026034
N93	N	3.949754	-0.842839	0.038728
N94	N	3.934519	-0.866319	0.096023
H95	H	3.898862	-0.832641	0.142110
N96	N	3.815481	-0.540167	0.037469
N97	N	3.844389	-0.605331	0.037730
H98	H	3.832092	-0.624305	0.084024
H99	H	3.760277	-0.402305	0.023635
H100	H	3.760079	-0.097199	-0.281506
H101	H	3.818862	-0.096638	-0.413906
H102	H	4.144510	-0.126932	-0.647479
