data_functionalizedCrystal
_audit_creation_method	'MofGen! by Chris Wilmer'
_symmetry_space_group_name_H-M	'P1'
_symmetry_Int_Tables_number	1
_symmetry_cell_setting	triclinic
loop_
_symmetry_equiv_pos_as_xyz
  x,y,z
_cell_length_a	12.827893
_cell_length_b	16.120484
_cell_length_c	12.827885
_cell_angle_alpha	92.863938
_cell_angle_beta	89.980538
_cell_angle_gamma	92.925621
loop_
_atom_site_label
_atom_site_type_symbol
_atom_site_fract_x
_atom_site_fract_y
_atom_site_fract_z
Zn1	Zn	1.576506	-0.331862	-0.611895
Zn2	Zn	2.076506	0.168138	-0.111895
Zn3	Zn	1.567507	-0.471297	-0.445998
Zn4	Zn	2.067507	0.028703	0.054002
Zn5	Zn	1.401744	-0.331903	-0.437171
Zn6	Zn	1.901744	0.168097	0.062829
Zn7	Zn	1.392844	-0.471236	-0.620694
Zn8	Zn	1.892844	0.028764	-0.120694
O9	O	1.484650	-0.401575	-0.528940
O10	O	1.984650	0.098425	-0.028940
O11	O	1.721548	-0.350367	-0.589900
O12	O	2.221548	0.149633	-0.089900
O13	O	1.545476	-0.452849	-0.298594
O14	O	2.045476	0.047151	0.201406
O15	O	1.432418	-0.215232	-0.452972
O16	O	1.932418	0.284768	0.047028
O17	O	1.714936	-0.452810	-0.468016
O18	O	2.214936	0.047190	0.031984
O19	O	1.560815	-0.215202	-0.581341
O20	O	2.060815	0.284798	-0.081341
O21	O	1.423692	-0.350437	-0.292109
O22	O	1.923692	0.149563	0.207891
O23	O	1.254328	-0.350377	-0.461504
O24	O	1.754328	0.149623	0.038496
O25	O	1.417248	-0.452705	-0.765760
O26	O	1.917248	0.047295	-0.265760
O27	O	1.247789	-0.452744	-0.596338
O28	O	1.747789	0.047256	-0.096338
O29	O	1.552184	-0.350307	-0.759296
O30	O	2.052184	0.149693	-0.259296
O31	O	1.536846	-0.587955	-0.476549
O32	O	2.036846	-0.087955	0.023451
O33	O	1.408522	-0.587909	-0.604897
O34	O	1.908522	-0.087909	-0.104897
C35	C	1.213141	-0.401559	-0.528919
C36	C	1.713141	0.098441	-0.028919
C37	C	1.096987	-0.401573	-0.528936
C38	C	1.596987	0.098427	-0.028936
C39	C	1.048468	-0.350971	-0.589353
C40	C	1.548468	0.149029	-0.089353
C41	C	0.928417	-0.350984	-0.589372
C42	C	1.428417	0.149016	-0.089372
C43	C	1.470770	-0.618182	-0.542658
C44	C	1.970770	-0.118182	-0.042658
C45	C	1.464927	-0.710847	-0.548562
C46	C	1.964927	-0.210847	-0.048562
C47	C	1.454267	-0.880508	-0.559362
C48	C	1.954267	-0.380508	-0.059362
C49	C	1.515221	-0.921800	-0.498534
C50	C	2.015221	-0.421800	0.001466
C51	C	1.509289	-1.016205	-0.504544
C52	C	2.009289	-0.516205	-0.004544
C53	C	1.460197	-0.786095	-0.553354
C54	C	1.960197	-0.286095	-0.053354
C55	C	1.757219	-0.401591	-0.528961
C56	C	2.257219	0.098409	-0.028961
C57	C	1.873372	-0.401597	-0.528970
C58	C	2.373372	0.098403	-0.028970
C59	C	1.484727	-0.401495	-0.801505
C60	C	1.984727	0.098505	-0.301505
C61	C	1.484760	-0.401460	-0.917656
C62	C	1.984760	0.098540	-0.417656
C63	C	1.498613	-0.184121	-0.515190
C64	C	1.998613	0.315879	-0.015190
C65	C	1.504563	-0.091456	-0.509331
C66	C	2.004563	0.408544	-0.009331
C67	C	1.424518	-0.350774	-0.966231
C68	C	1.924518	0.149226	-0.466231
C69	C	1.424551	-0.350737	-1.086279
C70	C	1.924551	0.149263	-0.586279
C71	C	1.484637	-0.401594	-0.257431
C72	C	1.984637	0.098406	0.242569
C73	C	1.484822	-0.401393	-0.141266
C74	C	1.984822	0.098607	0.358734
H75	H	1.095807	-0.307636	-0.641059
H76	H	1.595807	0.192364	-0.141059
Cl77	Cl	1.602663	-0.866919	-0.411159
Cl78	Cl	2.102663	-0.366919	0.088841
Cl79	Cl	1.366823	-0.935391	-0.646725
Cl80	Cl	1.866823	-0.435391	-0.146725
H81	H	1.372914	-0.307409	-0.918943
H82	H	1.872914	0.192591	-0.418943
Cl83	Cl	1.564424	-0.468425	-0.990657
Cl84	Cl	2.064424	0.031575	-0.490657
Cl85	Cl	1.344924	-0.283731	-1.150787
Cl86	Cl	1.844924	0.216269	-0.650787
H87	H	0.886679	-0.307664	-0.641100
H88	H	1.386679	0.192336	-0.141100
Cl89	Cl	0.937798	-0.468494	-0.449110
Cl90	Cl	1.437798	0.031506	0.050890
H91	H	1.049649	-0.444903	-0.477223
H92	H	1.549649	0.055097	0.022777
H93	H	1.536404	-0.444787	-1.099487
H94	H	2.036404	0.055213	-0.599487
