data_functionalizedCrystal
_audit_creation_method	'MofGen! by Chris Wilmer'
_symmetry_space_group_name_H-M	'P1'
_symmetry_Int_Tables_number	1
_symmetry_cell_setting	triclinic
loop_
_symmetry_equiv_pos_as_xyz
  x,y,z
_cell_length_a	19.288864
_cell_length_b	14.044220
_cell_length_c	13.101039
_cell_angle_alpha	86.332523
_cell_angle_beta	93.359745
_cell_angle_gamma	88.162561
loop_
_atom_site_label
_atom_site_type_symbol
_atom_site_fract_x
_atom_site_fract_y
_atom_site_fract_z
O1	O	0.932453	0.112946	0.085550
O2	O	0.731215	0.128897	0.085481
O3	O	0.828813	-0.017050	0.085504
O4	O	0.834855	0.258893	0.085526
O5	O	0.821811	-0.006561	-0.084928
O6	O	0.724213	0.139386	-0.084951
O7	O	0.925452	0.123435	-0.084882
Zn8	Zn	0.823721	0.133076	-0.111976
Zn9	Zn	0.832946	0.119256	0.112575
O10	O	0.827853	0.269381	-0.084905
C11	C	0.701804	0.133629	0.000256
C12	C	0.624600	0.132090	0.000229
C13	C	0.822668	-0.047108	0.000287
C14	C	0.814780	-0.152300	0.000283
C15	C	0.585407	0.217723	0.000252
C16	C	0.512868	0.216275	0.000263
C17	C	0.479525	0.129189	0.000272
C18	C	0.518727	0.043545	0.000243
C19	C	0.591265	0.044996	0.000221
C20	C	0.369318	0.057053	0.060010
C21	C	0.296782	0.055605	0.060038
C22	C	0.255794	0.124710	0.000333
C23	C	0.287352	0.195278	-0.059386
C24	C	0.359889	0.196729	-0.059407
C25	C	0.400870	0.127606	0.000294
C26	C	0.137945	0.208779	0.000367
C27	C	0.065404	0.207328	0.000372
C28	C	0.071266	0.034595	0.000362
C29	C	0.143805	0.036049	0.000347
C30	C	0.177140	0.123143	0.000354
C31	C	0.800360	-0.344900	0.000293
C32	C	0.856304	-0.402774	0.000315
C33	C	0.848280	-0.509943	0.000321
C34	C	0.808382	-0.237721	0.000287
C35	C	0.954863	0.118703	0.000345
C36	C	1.032066	0.120241	0.000379
C37	C	0.833999	0.299440	0.000314
C38	C	0.841887	0.404631	0.000325
N39	N	0.817430	0.142506	-0.265226
C40	C	0.808872	0.155346	-0.474271
C41	C	0.847797	0.096981	-0.525137
C42	C	0.843035	0.104125	-0.641457
C43	C	0.813633	0.148203	-0.357941
N44	N	0.839241	0.109818	0.265825
H45	H	0.612544	0.288642	0.000260
O46	O	0.927728	-0.361790	0.000329
H47	H	0.959187	-0.390504	0.069808
O48	O	0.728935	-0.385870	0.000252
H49	H	0.733763	-0.464836	0.000246
O50	O	0.023131	0.299698	0.000389
H51	H	-0.032911	0.284061	0.000388
H52	H	0.271094	-0.001852	0.108669
H53	H	0.884699	0.041649	-0.481326
H54	H	0.480950	0.286010	0.000279
O55	O	0.393930	0.272802	-0.123856
H56	H	0.353247	0.320603	-0.165390
O57	O	0.760001	0.228649	-0.532290
H58	H	0.763892	0.222834	-0.615870
H59	H	0.253981	0.251550	-0.108004
H60	H	0.044121	-0.036316	0.000433
O61	O	0.173908	0.302711	0.000354
H62	H	0.134463	0.362017	0.000353
H63	H	0.402686	0.000777	0.108635
O64	O	0.186085	-0.056312	0.000331
H65	H	0.150716	-0.117115	0.000345
H66	H	0.623176	-0.024739	0.000203
O67	O	0.482771	-0.050387	0.000253
H68	H	0.425746	-0.037011	0.000282
