data_functionalizedCrystal
_audit_creation_method	'MofGen! by Chris Wilmer'
_symmetry_space_group_name_H-M	'P1'
_symmetry_Int_Tables_number	1
_symmetry_cell_setting	triclinic
loop_
_symmetry_equiv_pos_as_xyz
  x,y,z
_cell_length_a	15.995350
_cell_length_b	27.732048
_cell_length_c	14.472310
_cell_angle_alpha	89.993924
_cell_angle_beta	89.990621
_cell_angle_gamma	83.067515
loop_
_atom_site_label
_atom_site_type_symbol
_atom_site_fract_x
_atom_site_fract_y
_atom_site_fract_z
O1	O	1.110190	0.062301	-0.076773
O2	O	1.610190	0.562301	0.423227
O3	O	0.866316	0.069995	-0.076793
O4	O	1.366316	0.569995	0.423207
O5	O	0.995827	-0.004216	-0.076765
O6	O	1.495827	0.495784	0.423235
O7	O	0.980679	0.136512	-0.076801
O8	O	1.480679	0.636512	0.423199
O9	O	0.995794	-0.004212	0.076917
O10	O	1.495794	0.495788	0.576917
O11	O	0.866282	0.069999	0.076889
O12	O	1.366282	0.569999	0.576889
O13	O	1.110157	0.062306	0.076909
O14	O	1.610157	0.562306	0.576909
Cu15	Cu	0.988217	0.066153	0.090931
Cu16	Cu	1.488217	0.566153	0.590931
Cu17	Cu	0.988256	0.066148	-0.090815
Cu18	Cu	1.488256	0.566148	0.409185
O19	O	0.980646	0.136517	0.076881
O20	O	1.480646	0.636517	0.576881
C21	C	0.835108	0.069679	0.000045
C22	C	1.335108	0.569679	0.500045
C23	C	0.742170	0.068726	0.000038
C24	C	1.242170	0.568726	0.500038
C25	C	0.404467	0.065301	0.000059
C26	C	0.904467	0.565301	0.500059
C27	C	0.452585	0.012449	0.000415
C28	C	0.952585	0.512449	0.500415
C29	C	0.549263	0.013403	0.000062
C30	C	1.049263	0.513403	0.500062
C31	C	0.572006	0.067000	0.000049
C32	C	1.072006	0.567000	0.500049
C33	C	0.530600	0.093065	-0.087714
C34	C	1.030600	0.593065	0.412286
C35	C	0.433982	0.091738	-0.087781
C36	C	0.933982	0.591738	0.412219
C37	C	0.433591	0.092835	0.086984
C38	C	0.933591	0.592835	0.586984
C39	C	0.530536	0.092822	0.088138
C40	C	1.030536	0.592822	0.588138
C41	C	0.666691	0.067962	0.000041
C42	C	1.166691	0.567962	0.500041
C43	C	0.309782	0.064340	0.000061
C44	C	0.809782	0.564340	0.500061
C45	C	0.995493	-0.022222	0.000079
C46	C	1.495493	0.477778	0.500079
C47	C	0.994535	-0.075881	0.000086
C48	C	1.494535	0.424119	0.500086
C49	C	1.065040	-0.414392	0.000045
C50	C	1.565040	0.085608	0.500045
C51	C	1.061487	-0.616067	0.000031
C52	C	1.561487	-0.116067	0.500031
O53	O	1.125959	-0.647045	-0.000004
O54	O	1.625959	-0.147045	0.499996
N55	N	0.984692	-0.635522	0.000026
N56	N	1.484692	-0.135522	0.500026
C57	C	0.908780	-0.604555	0.000018
C58	C	1.408780	-0.104555	0.500018
O59	O	0.843380	-0.625730	0.000003
O60	O	1.343380	-0.125730	0.500003
C61	C	0.912334	-0.402881	0.000024
C62	C	1.412334	0.097119	0.500024
C63	C	0.989134	-0.383429	0.000039
C64	C	1.489134	0.116571	0.500039
C65	C	1.141834	-0.394940	0.000058
C66	C	1.641834	0.105060	0.500058
C67	C	1.142721	-0.344524	0.000067
C68	C	1.642721	0.155476	0.500067
C69	C	1.066815	-0.313561	0.000061
C70	C	1.566815	0.186439	0.500061
C71	C	0.990021	-0.333013	0.000047
C72	C	1.490021	0.166987	0.500047
C73	C	0.836422	-0.371914	0.000009
C74	C	1.336422	0.128086	0.500009
C75	C	0.837317	-0.321493	0.000009
C76	C	1.337317	0.178507	0.500009
C77	C	0.914117	-0.302041	0.000023
C78	C	1.414117	0.197959	0.500023
C79	C	0.915002	-0.251634	0.000050
C80	C	1.415002	0.248366	0.500050
N81	N	0.991797	-0.232179	0.000056
N82	N	1.491797	0.267821	0.500056
C83	C	1.067703	-0.263142	0.000061
C84	C	1.567703	0.236858	0.500061
C85	C	0.906920	-0.710437	0.000016
C86	C	1.406920	-0.210437	0.500016
C87	C	0.906031	-0.760855	0.000016
C88	C	1.406031	-0.260855	0.500016
C89	C	1.058739	-0.772364	0.000028
C90	C	1.558739	-0.272364	0.500028
C91	C	1.059627	-0.721945	0.000035
C92	C	1.559627	-0.221945	0.500035
C93	C	0.983715	-0.690982	0.000021
C94	C	1.483715	-0.190982	0.500021
C95	C	1.069561	-0.157265	0.000080
C96	C	1.569561	0.342735	0.500080
C97	C	1.070442	-0.106844	0.000092
C98	C	1.570442	0.393156	0.500092
C99	C	0.917734	-0.095340	0.000075
C100	C	1.417734	0.404660	0.500075
C101	C	0.916853	-0.145756	0.000067
C102	C	1.416853	0.354244	0.500067
C103	C	0.992773	-0.176718	0.000067
C104	C	1.492773	0.323282	0.500067
O105	O	0.850565	-0.220628	0.000075
O106	O	1.350565	0.279372	0.500075
O107	O	1.133094	-0.241958	0.000055
O108	O	1.633094	0.258042	0.500055
C109	C	1.064153	-0.464808	0.000036
C110	C	1.564153	0.035192	0.500036
C111	C	0.987359	-0.484260	0.000022
C112	C	1.487359	0.015740	0.500022
C113	C	0.911452	-0.453297	0.000017
C114	C	1.411452	0.046703	0.500017
C115	C	0.986470	-0.534679	0.000022
C116	C	1.486470	-0.034679	0.500022
C117	C	1.062377	-0.565642	0.000028
C118	C	1.562377	-0.065642	0.500028
C119	C	1.139172	-0.546187	0.000033
C120	C	1.639172	-0.046187	0.500033
C121	C	1.140059	-0.495771	0.000042
C122	C	1.640059	0.004229	0.500042
C123	C	0.834657	-0.472752	0.000011
C124	C	1.334657	0.027248	0.500011
C125	C	0.833776	-0.523168	0.000004
C126	C	1.333776	-0.023168	0.500004
C127	C	0.909683	-0.554132	0.000010
C128	C	1.409683	-0.054132	0.500010
C129	C	1.141364	0.062621	0.000068
C130	C	1.641364	0.562621	0.500068
C131	C	1.234302	0.063575	0.000069
C132	C	1.734302	0.563575	0.500069
C133	C	0.980980	0.154523	0.000035
C134	C	1.480980	0.654523	0.500035
C135	C	0.981938	0.208182	0.000022
C136	C	1.481938	0.708182	0.500022
N137	N	0.988195	0.066156	0.218762
N138	N	1.488195	0.566156	0.718762
N139	N	0.988284	0.066141	-0.218646
N140	N	1.488284	0.566141	0.281354
C141	C	0.988255	0.066146	0.592853
C142	C	1.488255	0.566146	1.092853
C143	C	0.918727	0.105721	0.553672
C144	C	1.418727	0.605721	1.053672
C145	C	0.918884	0.105866	0.446584
C146	C	1.418884	0.605866	0.946584
C147	C	0.988225	0.066151	0.407262
C148	C	1.488225	0.566151	0.907262
C149	C	1.075447	0.077167	0.446103
C150	C	1.575447	0.577167	0.946103
C151	C	1.075055	0.077448	0.553225
C152	C	1.575055	0.577448	1.053225
C153	C	0.971342	0.015437	0.553394
C154	C	1.471342	0.515437	1.053394
C155	C	0.969334	0.015775	0.446267
C156	C	1.469334	0.515775	0.946267
C157	C	0.988213	0.066153	0.302374
C158	C	1.488213	0.566153	0.802374
C159	C	0.988272	0.066145	0.697742
C160	C	1.488272	0.566145	1.197742
H161	H	0.413265	0.075558	0.153506
H162	H	0.913265	0.575558	0.653506
C163	C	1.147022	0.040000	0.588240
C164	C	1.647022	0.540000	1.088240
N165	N	1.201235	0.011801	0.614610
N166	N	1.701235	0.511801	1.114610
H167	H	1.122164	-0.706111	0.000046
H168	H	1.622164	-0.206111	0.500046
H169	H	0.853660	0.099266	0.579457
H170	H	1.353660	0.599266	1.079457
C171	C	0.587280	-0.014467	-0.085067
C172	C	1.087280	0.485533	0.414933
N173	N	0.615913	-0.035459	-0.149191
N174	N	1.115913	0.464541	0.350809
C175	C	1.039846	-0.024350	0.587631
C176	C	1.539846	0.475650	1.087631
N177	N	1.091444	-0.054315	0.613424
N178	N	1.591444	0.445685	1.113424
H179	H	0.559223	0.074958	-0.153020
H180	H	1.059223	0.574958	0.346980
H181	H	0.929617	0.143496	0.420941
H182	H	1.429617	0.643496	0.920941
H183	H	0.929307	0.143140	0.580573
H184	H	1.429307	0.643140	1.080573
H185	H	1.128394	0.049108	0.420631
H186	H	1.628394	0.549108	0.920631
C187	C	0.588012	-0.014281	0.085050
C188	C	1.088012	0.485719	0.585050
N189	N	0.617195	-0.035137	0.149063
N190	N	1.117195	0.464863	0.649063
H191	H	0.558085	0.073794	0.153064
H192	H	1.058085	0.573794	0.653064
C193	C	0.821545	-0.782246	0.000011
C194	C	1.321545	-0.282246	0.500011
N195	N	0.757908	-0.798356	0.000001
N196	N	1.257908	-0.298356	0.500001
C197	C	1.095308	0.127411	0.586957
C198	C	1.595308	0.627411	1.086957
N199	N	1.110556	0.165047	0.612359
N200	N	1.610556	0.665047	1.112359
C201	C	1.227208	-0.323134	0.000073
C202	C	1.727208	0.176866	0.500073
N203	N	1.290848	-0.307026	0.000074
N204	N	1.790848	0.192974	0.500074
C205	C	0.823405	-0.676383	0.000002
C206	C	1.323405	-0.176383	0.500002
N207	N	0.760501	-0.650736	-0.000005
N208	N	1.260501	-0.150736	0.499995
C209	C	0.389736	0.144157	-0.093193
C210	C	0.889736	0.644157	0.406807
N211	N	0.356414	0.183638	-0.097280
N212	N	0.856414	0.683638	0.402720
C213	C	0.834241	-0.061271	0.000062
C214	C	1.334241	0.438729	0.500062
N215	N	0.771354	-0.035609	0.000044
N216	N	1.271354	0.464391	0.500044
H217	H	0.773883	-0.387743	-0.000008
H218	H	1.273883	0.112257	0.499992
H219	H	1.202598	-0.479938	0.000054
H220	H	1.702598	0.020062	0.500054
C221	C	0.550622	0.145621	0.095298
C222	C	1.050622	0.645621	0.595298
N223	N	0.565757	0.185391	0.100689
N224	N	1.065757	0.685391	0.600689
C225	C	0.389998	0.145477	0.087776
C226	C	0.889998	0.645477	0.587776
N227	N	0.357160	0.185125	0.088367
N228	N	0.857160	0.685125	0.588367
C229	C	0.751149	-0.438698	0.000004
C230	C	1.251149	0.061302	0.500004
N231	N	0.688245	-0.413051	0.000001
N232	N	1.188245	0.086949	0.500001
C233	C	0.427905	-0.016090	0.085441
C234	C	0.927905	0.483910	0.585441
N235	N	0.409308	-0.037586	0.149484
N236	N	0.909308	0.462414	0.649484
C237	C	0.887312	0.001138	0.589924
C238	C	1.387312	0.501138	1.089924
N239	N	0.824017	-0.009627	0.617439
N240	N	1.324017	0.490373	1.117439
C241	C	0.753806	-0.287437	-0.000003
C242	C	1.253806	0.212563	0.499997
N243	N	0.690905	-0.261786	-0.000008
N244	N	1.190905	0.238214	0.499992
H245	H	0.854317	-0.161595	0.000081
H246	H	1.354317	0.338405	0.500081
C247	C	0.882656	0.004482	0.411979
C248	C	1.382656	0.504482	0.911979
N249	N	0.817368	-0.004022	0.386149
N250	N	1.317368	0.495978	0.886149
H251	H	0.544216	0.132441	-0.090987
H252	H	1.044216	0.632441	0.409013
H253	H	1.016736	-0.015055	0.419504
H254	H	1.516736	0.484945	0.919504
C255	C	0.831264	0.097008	0.411107
C256	C	1.331264	0.597008	0.911107
N257	N	0.765262	0.090339	0.384390
N258	N	1.265262	0.590339	0.884390
H259	H	1.090826	0.113726	0.419258
H260	H	1.590826	0.613726	0.919258
H261	H	0.415933	0.072726	-0.153376
H262	H	0.915933	0.572726	0.346624
C263	C	0.426489	-0.015967	-0.084118
C264	C	0.926489	0.484033	0.415882
N265	N	0.406830	-0.037369	-0.147788
N266	N	0.906830	0.462631	0.352212
H267	H	1.132984	-0.091010	0.000106
H268	H	1.632984	0.408990	0.500106
H269	H	1.131383	-0.182469	0.000075
H270	H	1.631383	0.317531	0.500075
H271	H	1.203650	-0.420146	0.000060
H272	H	1.703650	0.079854	0.500060
H273	H	1.200977	-0.571406	0.000042
H274	H	1.700977	-0.071406	0.500042
H275	H	0.771232	-0.539001	-0.000000
H276	H	1.271232	-0.039001	0.500000
C277	C	1.142237	-0.806433	0.000027
C278	C	1.642237	-0.306433	0.500027
N279	N	1.205123	-0.832096	0.000018
N280	N	1.705123	-0.332096	0.500018
