data_functionalizedCrystal
_audit_creation_method	'MofGen! by Chris Wilmer'
_symmetry_space_group_name_H-M	'P1'
_symmetry_Int_Tables_number	1
_symmetry_cell_setting	triclinic
loop_
_symmetry_equiv_pos_as_xyz
  x,y,z
_cell_length_a	29.839131
_cell_length_b	16.959455
_cell_length_c	16.959447
_cell_angle_alpha	90.023646
_cell_angle_beta	89.970255
_cell_angle_gamma	89.963305
loop_
_atom_site_label
_atom_site_type_symbol
_atom_site_fract_x
_atom_site_fract_y
_atom_site_fract_z
Zn1	Zn	-0.178904	-1.208265	-0.447108
Zn2	Zn	0.154429	-0.874932	-0.113775
Zn3	Zn	0.487762	-0.541598	0.219558
Zn4	Zn	-0.254038	-1.208138	-0.314931
Zn5	Zn	0.079296	-0.874804	0.018402
Zn6	Zn	0.412629	-0.541471	0.351736
Zn7	Zn	-0.178916	-1.076093	-0.314924
Zn8	Zn	0.154417	-0.742760	0.018409
Zn9	Zn	0.487751	-0.409427	0.351742
Zn10	Zn	-0.254002	-1.076008	-0.447048
Zn11	Zn	0.079332	-0.742675	-0.113715
Zn12	Zn	0.412665	-0.409342	0.219618
O13	O	-0.216465	-1.142126	-0.381003
O14	O	0.116868	-0.808793	-0.047670
O15	O	0.450202	-0.475459	0.285664
O16	O	-0.188881	-1.318859	-0.429603
O17	O	0.144452	-0.985526	-0.096269
O18	O	0.477785	-0.652192	0.237064
O19	O	-0.244093	-1.190604	-0.204319
O20	O	0.089241	-0.857271	0.129014
O21	O	0.422574	-0.523937	0.462347
O22	O	-0.116047	-1.093715	-0.332481
O23	O	0.217286	-0.760382	0.000852
O24	O	0.550619	-0.427049	0.334185
O25	O	-0.244081	-1.318765	-0.332493
O26	O	0.089252	-0.985432	0.000841
O27	O	0.422585	-0.652099	0.334174
O28	O	-0.116039	-1.190821	-0.429596
O29	O	0.217294	-0.857488	-0.096263
O30	O	0.550628	-0.524154	0.237070
O31	O	-0.188901	-1.093592	-0.204314
O32	O	0.144432	-0.760258	0.129019
O33	O	0.477766	-0.426925	0.462352
O34	O	-0.188866	-0.965471	-0.332423
O35	O	0.144467	-0.632138	0.000910
O36	O	0.477801	-0.298805	0.334244
O37	O	-0.244020	-1.093570	-0.557667
O38	O	0.089313	-0.760237	-0.224334
O39	O	0.422647	-0.426903	0.109000
O40	O	-0.244031	-0.965409	-0.429494
O41	O	0.089302	-0.632075	-0.096160
O42	O	0.422636	-0.298742	0.237173
O43	O	-0.188846	-1.190739	-0.557711
O44	O	0.144487	-0.857405	-0.224378
O45	O	0.477820	-0.524072	0.108955
O46	O	-0.316900	-1.190521	-0.332434
O47	O	0.016433	-0.857188	0.000899
O48	O	0.349767	-0.523855	0.334232
O49	O	-0.316874	-1.093447	-0.429500
O50	O	0.016460	-0.760113	-0.096167
O51	O	0.349793	-0.426780	0.237166
C52	C	-0.216446	-0.936760	-0.380952
C53	C	0.116887	-0.603426	-0.047618
C54	C	0.450221	-0.270093	0.285715
C55	C	-0.216449	-0.848903	-0.380948
C56	C	0.116884	-0.515570	-0.047615
C57	C	0.450218	-0.182237	0.285718
C58	C	-0.245166	-0.477368	-0.330374
C59	C	0.088168	-0.144035	0.002959
C60	C	0.421501	0.189298	0.336293
C61	C	-0.187775	-0.477487	-0.431652
C62	C	0.145559	-0.144154	-0.098319
C63	C	0.478892	0.189180	0.235014
C64	C	-0.187769	-0.560033	-0.431638
C65	C	0.145564	-0.226700	-0.098304
C66	C	0.478898	0.106634	0.235029
C67	C	-0.216463	-0.601250	-0.380992
C68	C	0.116871	-0.267917	-0.047658
C69	C	0.450204	0.065416	0.285675
C70	C	-0.245162	-0.559922	-0.330360
C71	C	0.088171	-0.226588	0.002974
C72	C	0.421505	0.106745	0.336307
C73	C	-0.159073	-0.601368	-0.482274
C74	C	0.174260	-0.268034	-0.148941
C75	C	0.507593	0.065299	0.184392
C76	C	-0.159067	-0.683918	-0.482262
C77	C	0.174267	-0.350585	-0.148929
C78	C	0.507600	-0.017252	0.184404
C79	C	-0.187758	-0.725137	-0.431612
C80	C	0.145575	-0.391804	-0.098278
C81	C	0.478908	-0.058471	0.235055
C82	C	-0.216459	-0.683804	-0.380977
C83	C	0.116875	-0.350470	-0.047644
C84	C	0.450208	-0.017137	0.285690
C85	C	-0.245152	-0.725021	-0.330331
C86	C	0.088181	-0.391688	0.003003
C87	C	0.421514	-0.058355	0.336336
C88	C	-0.273850	-0.683689	-0.279692
C89	C	0.059483	-0.350356	0.053642
C90	C	0.392816	-0.017022	0.386975
C91	C	-0.273854	-0.601141	-0.279709
C92	C	0.059480	-0.267807	0.053625
C93	C	0.392813	0.065526	0.386958
C94	C	-0.187755	-0.807686	-0.431595
C95	C	0.145578	-0.474352	-0.098261
C96	C	0.478911	-0.141019	0.235072
C97	C	-0.245148	-0.807575	-0.330316
C98	C	0.088185	-0.474241	0.003017
C99	C	0.421518	-0.140908	0.336350
C100	C	-0.333188	-1.141982	-0.380979
C101	C	0.000146	-0.808649	-0.047645
C102	C	0.333479	-0.475316	0.285688
C103	C	-0.383122	-1.141993	-0.380995
C104	C	-0.049789	-0.808660	-0.047661
C105	C	0.283545	-0.475327	0.285672
C106	C	-0.739711	-1.091612	-0.431542
C107	C	-0.406378	-0.758278	-0.098209
C108	C	-0.073044	-0.424945	0.235125
C109	C	-0.552038	-1.091507	-0.431517
C110	C	-0.218705	-0.758174	-0.098184
C111	C	0.114629	-0.424841	0.235150
O112	O	-0.527775	-1.048499	-0.474479
O113	O	-0.194442	-0.715166	-0.141146
O114	O	0.138892	-0.381832	0.192188
N115	N	-0.528567	-1.142077	-0.381018
N116	N	-0.195234	-0.808743	-0.047685
N117	N	0.138100	-0.475410	0.285648
C118	C	-0.552017	-1.192680	-0.330526
C119	C	-0.218684	-0.859346	0.002807
C120	C	0.114649	-0.526013	0.336141
O121	O	-0.527748	-1.235695	-0.287579
O122	O	-0.194414	-0.902362	0.045754
O123	O	0.138919	-0.569029	0.379088
C124	C	-0.739690	-1.192787	-0.330555
C125	C	-0.406356	-0.859454	0.002778
C126	C	-0.073023	-0.526121	0.336111
C127	C	-0.763158	-1.142209	-0.381052
C128	C	-0.429825	-0.808876	-0.047718
C129	C	-0.096491	-0.475542	0.285615
C130	C	-0.763179	-1.041038	-0.482035
C131	C	-0.429846	-0.707705	-0.148701
C132	C	-0.096513	-0.374371	0.184632
C133	C	-0.810095	-1.041062	-0.482037
C134	C	-0.476761	-0.707728	-0.148704
C135	C	-0.143428	-0.374395	0.184629
C136	C	-0.833542	-1.091659	-0.431547
C137	C	-0.500208	-0.758326	-0.098214
C138	C	-0.166875	-0.424992	0.235120
C139	C	-0.810073	-1.142233	-0.381054
C140	C	-0.476740	-0.808899	-0.047721
C141	C	-0.143407	-0.475566	0.285612
C142	C	-0.763139	-1.243394	-0.280068
C143	C	-0.429806	-0.910060	0.053266
C144	C	-0.096472	-0.576727	0.386599
C145	C	-0.810060	-1.243418	-0.280081
C146	C	-0.476727	-0.910084	0.053253
C147	C	-0.143393	-0.576751	0.386586
C148	C	-0.833528	-1.192839	-0.330577
C149	C	-0.500195	-0.859506	0.002756
C150	C	-0.166862	-0.526172	0.336090
C151	C	-0.880436	-1.192853	-0.330567
C152	C	-0.547103	-0.859520	0.002767
C153	C	-0.213769	-0.526187	0.336100
N154	N	-0.903907	-1.142284	-0.381065
N155	N	-0.570573	-0.808951	-0.047732
N156	N	-0.237240	-0.475617	0.285601
C157	C	-0.880460	-1.091687	-0.431556
C158	C	-0.547126	-0.758353	-0.098222
C159	C	-0.213793	-0.425020	0.235111
C160	C	-0.453487	-1.192618	-0.330513
C161	C	-0.120153	-0.859285	0.002820
C162	C	0.213180	-0.525952	0.336154
C163	C	-0.406569	-1.192590	-0.330505
C164	C	-0.073236	-0.859257	0.002829
C165	C	0.260098	-0.525924	0.336162
C166	C	-0.406593	-1.091419	-0.431497
C167	C	-0.073259	-0.758086	-0.098164
C168	C	0.260074	-0.424752	0.235170
C169	C	-0.453511	-1.091443	-0.431501
C170	C	-0.120178	-0.758110	-0.098168
C171	C	0.213155	-0.424777	0.235166
C172	C	-0.476958	-1.142049	-0.381012
C173	C	-0.143624	-0.808715	-0.047678
C174	C	0.189709	-0.475382	0.285655
C175	C	-0.978985	-1.091740	-0.431557
C176	C	-0.645652	-0.758406	-0.098224
C177	C	-0.312319	-0.425073	0.235110
C178	C	-1.025905	-1.091765	-0.431553
C179	C	-0.692572	-0.758432	-0.098219
C180	C	-0.359238	-0.425099	0.235114
C181	C	-1.025877	-1.192939	-0.330564
C182	C	-0.692544	-0.859606	0.002770
C183	C	-0.359211	-0.526273	0.336103
C184	C	-0.978962	-1.192911	-0.330565
C185	C	-0.645628	-0.859578	0.002769
C186	C	-0.312295	-0.526244	0.336102
C187	C	-0.955517	-1.142308	-0.381068
C188	C	-0.622184	-0.808975	-0.047734
C189	C	-0.288850	-0.475642	0.285599
O190	O	-0.904728	-1.235845	-0.287634
O191	O	-0.571394	-0.902512	0.045700
O192	O	-0.238061	-0.569179	0.379033
O193	O	-0.904737	-1.048690	-0.474509
O194	O	-0.571404	-0.715356	-0.141175
O195	O	-0.238071	-0.382023	0.192158
C196	C	-0.692795	-1.091588	-0.431539
C197	C	-0.359462	-0.758255	-0.098206
C198	C	-0.026129	-0.424921	0.235127
C199	C	-0.669327	-1.142162	-0.381046
C200	C	-0.335994	-0.808828	-0.047713
C201	C	-0.002660	-0.475495	0.285620
C202	C	-0.692774	-1.192759	-0.330556
C203	C	-0.359441	-0.859426	0.002777
C204	C	-0.026107	-0.526092	0.336110
C205	C	-0.622409	-1.142134	-0.381038
C206	C	-0.289076	-0.808801	-0.047705
C207	C	0.044257	-0.475467	0.285629
C208	C	-0.598962	-1.091537	-0.431528
C209	C	-0.265629	-0.758203	-0.098195
C210	C	0.067705	-0.424870	0.235139
C211	C	-0.622433	-1.040967	-0.482027
C212	C	-0.289100	-0.707634	-0.148693
C213	C	0.044234	-0.374301	0.184640
C214	C	-0.669348	-1.040991	-0.482029
C215	C	-0.336015	-0.707658	-0.148696
C216	C	-0.002682	-0.374324	0.184637
C217	C	-0.669303	-1.243328	-0.280058
C218	C	-0.335970	-0.909995	0.053276
C219	C	-0.002637	-0.576662	0.386609
C220	C	-0.622388	-1.243300	-0.280058
C221	C	-0.289054	-0.909967	0.053275
C222	C	0.044279	-0.576633	0.386608
C223	C	-0.598941	-1.192703	-0.330549
C224	C	-0.265607	-0.859370	0.002785
C225	C	0.067726	-0.526036	0.336118
C226	C	-0.099287	-1.142292	-0.381045
C227	C	0.234047	-0.808959	-0.047711
C228	C	0.567380	-0.475625	0.285622
C229	C	-0.049352	-1.142363	-0.381062
C230	C	0.283981	-0.809029	-0.047729
C231	C	0.617315	-0.475696	0.285604
C232	C	-0.216428	-1.142159	-0.587171
C233	C	0.116906	-0.808826	-0.253838
C234	C	0.450239	-0.475492	0.079495
C235	C	-0.216412	-1.142173	-0.675028
C236	C	0.116921	-0.808840	-0.341695
C237	C	0.450255	-0.475506	-0.008361
C238	C	-0.216479	-0.348294	-0.381041
C239	C	0.116854	-0.014961	-0.047708
C240	C	0.450188	0.318372	0.285626
C241	C	-0.216472	-0.436151	-0.381020
C242	C	0.116861	-0.102818	-0.047687
C243	C	0.450194	0.230516	0.285646
C244	C	-0.245091	-1.091676	-1.046483
C245	C	0.088243	-0.758343	-0.713150
C246	C	0.421576	-0.425010	-0.379817
C247	C	-0.187638	-1.192859	-1.046524
C248	C	0.145695	-0.859525	-0.713191
C249	C	0.479028	-0.526192	-0.379858
C250	C	-0.187648	-1.192838	-0.963978
C251	C	0.145686	-0.859504	-0.630645
C252	C	0.479019	-0.526171	-0.297312
C253	C	-0.216380	-1.142236	-0.922681
C254	C	0.116954	-0.808903	-0.589348
C255	C	0.450287	-0.475569	-0.256014
C256	C	-0.245102	-1.091655	-0.963930
C257	C	0.088231	-0.758322	-0.630596
C258	C	0.421564	-0.424989	-0.297263
C259	C	-0.158929	-1.243423	-0.922724
C260	C	0.174404	-0.910090	-0.589390
C261	C	0.507738	-0.576756	-0.256057
C262	C	-0.158938	-1.243405	-0.840173
C263	C	0.174396	-0.910071	-0.506839
C264	C	0.507729	-0.576738	-0.173506
C265	C	-0.187668	-1.192798	-0.798874
C266	C	0.145666	-0.859465	-0.465541
C267	C	0.478999	-0.526132	-0.132207
C268	C	-0.216391	-1.142215	-0.840128
C269	C	0.116942	-0.808882	-0.506794
C270	C	0.450276	-0.475548	-0.173461
C271	C	-0.245123	-1.091613	-0.798830
C272	C	0.088210	-0.758280	-0.465497
C273	C	0.421544	-0.424947	-0.132164
C274	C	-0.273844	-1.041025	-0.840082
C275	C	0.059489	-0.707692	-0.506749
C276	C	0.392822	-0.374359	-0.173416
C277	C	-0.273832	-1.041049	-0.922631
C278	C	0.059501	-0.707716	-0.589298
C279	C	0.392834	-0.374382	-0.255964
C280	C	-0.187680	-1.192775	-0.716325
C281	C	0.145653	-0.859441	-0.382992
C282	C	0.478987	-0.526108	-0.049659
C283	C	-0.245134	-1.091592	-0.716277
C284	C	0.088199	-0.758259	-0.382943
C285	C	0.421532	-0.424926	-0.049610
C286	C	-0.216470	-1.142139	-0.175637
C287	C	0.116864	-0.808805	0.157697
C288	C	0.450197	-0.475472	0.491030
C289	C	-0.216359	-1.142278	-0.087781
C290	C	0.116974	-0.808945	0.245553
C291	C	0.450308	-0.475611	0.578886
H292	H	-0.164391	-0.841335	-0.472826
H293	H	0.168943	-0.508001	-0.139492
H294	H	0.502276	-0.174668	0.193841
F295	F	-1.050879	-1.037930	-0.485300
F296	F	-0.717546	-0.704597	-0.151966
F297	F	-0.384213	-0.371263	0.181367
F298	F	-0.128543	-0.557497	-0.536181
F299	F	0.204790	-0.224164	-0.202848
F300	F	0.538124	0.109169	0.130486
F301	F	-0.304390	-0.727565	-0.225797
F302	F	0.028943	-0.394232	0.107536
F303	F	0.362277	-0.060898	0.440870
F304	F	-0.275705	-0.433380	-0.276480
F305	F	0.057628	-0.100047	0.056853
F306	F	0.390961	0.233286	0.390187
F307	F	-0.304424	-0.987177	-0.796121
F308	F	0.028909	-0.653844	-0.462788
F309	F	0.362242	-0.320511	-0.129455
H310	H	-0.297217	-0.999866	-0.956226
H311	H	0.036116	-0.666532	-0.622892
H312	H	0.369450	-0.333199	-0.289559
H313	H	-0.268474	-1.050487	-1.080074
H314	H	0.064860	-0.717153	-0.746741
H315	H	0.398193	-0.383820	-0.413408
H316	H	-0.135540	-1.284625	-0.956354
H317	H	0.197794	-0.951292	-0.623021
H318	H	0.531127	-0.617958	-0.289687
F319	F	-0.157118	-1.246615	-0.672425
F320	F	0.176216	-0.913281	-0.339092
F321	F	0.509549	-0.579948	-0.005759
H322	H	-0.164248	-1.234061	-1.080154
H323	H	0.169085	-0.900727	-0.746820
H324	H	0.502418	-0.567394	-0.413487
F325	F	-0.128369	-1.297242	-0.796277
F326	F	0.204964	-0.963909	-0.462943
F327	F	0.538297	-0.630575	-0.129610
H328	H	-0.387494	-1.050219	-0.472607
H329	H	-0.054161	-0.716886	-0.139274
H330	H	0.279172	-0.383553	0.194060
H331	H	-0.268513	-0.841128	-0.289071
H332	H	0.064820	-0.507795	0.044263
H333	H	0.398154	-0.174461	0.377596
F334	F	-0.835066	-0.987238	-0.535792
F335	F	-0.501732	-0.653904	-0.202459
F336	F	-0.168399	-0.320571	0.130875
F337	F	-0.157243	-0.433619	-0.485558
F338	F	0.176090	-0.100285	-0.152224
F339	F	0.509424	0.233048	0.181109
F340	F	-0.304394	-0.557147	-0.225821
F341	F	0.028939	-0.223814	0.107512
F342	F	0.362273	0.109520	0.440845
F343	F	-0.128524	-0.727900	-0.536156
F344	F	0.204810	-0.394566	-0.202822
F345	F	0.538143	-0.061233	0.130511
H346	H	-0.959902	-1.050535	-0.472682
H347	H	-0.626569	-0.717202	-0.139349
H348	H	-0.293235	-0.383869	0.193985
H349	H	-0.744093	-0.999836	-0.523153
H350	H	-0.410760	-0.666503	-0.189820
H351	H	-0.077426	-0.333169	0.143513
H352	H	-0.472616	-1.050262	-0.472624
H353	H	-0.139283	-0.716929	-0.139290
H354	H	0.194050	-0.383596	0.194043
F355	F	-0.478434	-1.246482	-0.276771
F356	F	-0.145101	-0.913149	0.056562
F357	F	0.188232	-0.579816	0.389896
F358	F	-0.381597	-1.246414	-0.276751
F359	F	-0.048264	-0.913081	0.056583
F360	F	0.285069	-0.579747	0.389916
H361	H	-0.688452	-0.999806	-0.523150
H362	H	-0.355119	-0.666472	-0.189816
H363	H	-0.021786	-0.333139	0.143517
H364	H	-0.829148	-1.284630	-0.238968
H365	H	-0.495814	-0.951297	0.094365
H366	H	-0.162481	-0.617963	0.427699
F367	F	-0.738172	-1.297234	-0.226328
F368	F	-0.404839	-0.963901	0.107005
F369	F	-0.071506	-0.630567	0.440338
F370	F	-0.953984	-1.246727	-0.276807
F371	F	-0.620651	-0.913394	0.056527
F372	F	-0.287318	-0.580061	0.389860
H373	H	-1.044976	-1.234132	-0.289453
H374	H	-0.711643	-0.900798	0.043880
H375	H	-0.378310	-0.567465	0.377214
H376	H	-0.603335	-0.999766	-0.523135
H377	H	-0.270001	-0.666433	-0.189802
H378	H	0.063332	-0.333099	0.143531
H379	H	-0.688389	-1.284533	-0.238942
H380	H	-0.355056	-0.951199	0.094391
H381	H	-0.021722	-0.617866	0.427724
F382	F	-0.597416	-1.297135	-0.226307
F383	F	-0.264083	-0.963801	0.107026
F384	F	0.069251	-0.630468	0.440359
H385	H	-0.268528	-1.050379	-0.682658
H386	H	0.064806	-0.717045	-0.349325
H387	H	0.398139	-0.383712	-0.015991
