data_functionalizedCrystal
_audit_creation_method	'MofGen! by Chris Wilmer'
_symmetry_space_group_name_H-M	'P1'
_symmetry_Int_Tables_number	1
_symmetry_cell_setting	triclinic
loop_
_symmetry_equiv_pos_as_xyz
  x,y,z
_cell_length_a	14.853566
_cell_length_b	13.330367
_cell_length_c	12.837942
_cell_angle_alpha	89.996286
_cell_angle_beta	90.768323
_cell_angle_gamma	90.004705
loop_
_atom_site_label
_atom_site_type_symbol
_atom_site_fract_x
_atom_site_fract_y
_atom_site_fract_z
O1	O	1.207850	0.083356	-0.135350
O2	O	0.946758	0.083373	-0.151476
O3	O	1.071514	0.083359	0.007498
O4	O	1.083093	0.083370	-0.294324
O5	O	1.071494	-0.083489	0.007502
O6	O	0.946737	-0.083475	-0.151472
O7	O	1.207829	-0.083491	-0.135346
Cu8	Cu	1.077282	-0.098717	-0.143409
Cu9	Cu	1.077306	0.098599	-0.143413
O10	O	1.083073	-0.083477	-0.294320
C11	C	0.913097	-0.000049	-0.150743
C12	C	0.812828	-0.000043	-0.148555
C13	C	0.388869	0.090888	-0.139299
C14	C	0.388868	-0.091016	-0.139295
C15	C	0.483076	-0.091012	-0.141351
C16	C	0.530185	-0.000058	-0.142382
C17	C	0.483086	0.090894	-0.141357
C18	C	0.530182	-0.181962	-0.142386
C19	C	0.624397	-0.181963	-0.144443
C20	C	0.671507	-0.091007	-0.145466
C21	C	0.624402	-0.000052	-0.144440
C22	C	0.671511	0.090903	-0.145471
C23	C	0.624408	0.181859	-0.144438
C24	C	0.530196	0.181849	-0.142381
C25	C	0.765719	-0.090997	-0.147524
C26	C	0.765728	0.090909	-0.147530
N27	N	1.077271	-0.237499	-0.143405
C28	C	1.022058	-0.710115	-0.213779
C29	C	1.132576	-0.710096	-0.073039
C30	C	1.132566	-0.605078	-0.073036
C31	C	1.077302	-0.552573	-0.143406
C32	C	1.022048	-0.605087	-0.213780
C33	C	1.187825	-0.552556	-0.002671
C34	C	1.187818	-0.447531	-0.002665
C35	C	1.132548	-0.395025	-0.073032
C36	C	1.077292	-0.447545	-0.143408
C37	C	1.022028	-0.395041	-0.213778
C38	C	0.966766	-0.447560	-0.284150
C39	C	0.966779	-0.552581	-0.284147
C40	C	1.132535	-0.290003	-0.073035
C41	C	1.022017	-0.290013	-0.213779
C42	C	1.241490	-0.000067	-0.136079
C43	C	1.341760	-0.000067	-0.138268
C44	C	1.067593	-0.000064	0.046126
C45	C	1.055927	-0.000062	0.161220
N46	N	1.077323	0.237380	-0.143409
C47	C	1.086995	-0.000052	-0.332948
C48	C	1.098661	-0.000048	-0.448042
C49	C	1.196173	-0.000050	0.401977
C50	C	1.185216	-0.000047	0.510119
C51	C	1.023056	-0.000048	0.485647
C52	C	1.034013	-0.000050	0.377505
C53	C	1.120575	-0.000053	0.335675
C54	C	1.131531	-0.000062	0.227531
C55	C	0.969372	-0.000055	0.203061
C56	C	0.958415	-0.000053	0.311203
H57	H	0.662776	0.255914	-0.145285
H58	H	0.491819	-0.256012	-0.141553
H59	H	1.232814	-0.404777	0.054635
N60	N	0.479394	0.279944	-0.141264
H61	H	0.412564	0.266137	-0.139807
H62	H	0.494071	0.319668	-0.205841
H63	H	0.907814	-0.000065	0.149065
N64	N	0.338063	0.188981	-0.138188
H65	H	0.352666	0.228748	-0.202764
H66	H	0.356276	0.228661	-0.074288
H67	H	1.202013	-0.000068	0.193475
H68	H	0.977011	-0.247270	-0.271080
N69	N	0.675198	-0.280059	-0.145560
H70	H	0.631057	-0.337677	-0.144597
H71	H	0.716077	-0.284024	-0.082193
H72	H	0.804078	0.164976	-0.148366
H73	H	1.266655	-0.000062	0.367918
N74	N	0.907155	-0.390930	-0.360045
H75	H	0.923853	-0.409198	-0.433652
H76	H	0.915564	-0.316449	-0.349276
H77	H	0.952582	-0.000035	0.519725
N78	N	0.865057	-0.000047	0.356323
H79	H	0.869585	-0.000044	0.434891
H80	H	0.831565	-0.061902	0.332084
H81	H	0.804066	-0.165052	-0.148375
H82	H	0.350506	-0.165067	-0.138463
H83	H	0.977062	-0.752879	-0.271072
N84	N	0.907179	-0.609224	-0.360041
H85	H	0.915576	-0.683721	-0.349364
H86	H	0.923907	-0.590858	-0.433613
N87	N	1.266750	-0.000049	0.581638
H88	H	1.304109	0.061800	0.568164
H89	H	1.304029	-0.061941	0.568140
N90	N	1.192188	-0.766719	0.002849
H91	H	1.183813	-0.841219	-0.007832
H92	H	1.175456	-0.748375	0.076421
H93	H	1.232825	-0.595308	0.054618
N94	N	1.192138	-0.233357	0.002848
H95	H	1.227152	-0.282554	0.047423
H96	H	1.153683	-0.189794	0.048760
