data_functionalizedCrystal
_audit_creation_method	'MofGen! by Chris Wilmer'
_symmetry_space_group_name_H-M	'P1'
_symmetry_Int_Tables_number	1
_symmetry_cell_setting	triclinic
loop_
_symmetry_equiv_pos_as_xyz
  x,y,z
_cell_length_a	10.654550
_cell_length_b	15.995292
_cell_length_c	9.130313
_cell_angle_alpha	89.998674
_cell_angle_beta	89.999724
_cell_angle_gamma	83.976773
loop_
_atom_site_label
_atom_site_type_symbol
_atom_site_fract_x
_atom_site_fract_y
_atom_site_fract_z
O1	O	1.666266	0.117606	-0.121679
O2	O	1.300638	0.128810	-0.121704
O3	O	1.493485	0.001375	-0.121693
O4	O	1.473419	0.245041	-0.121690
O5	O	1.493472	0.001371	0.121906
O6	O	1.300625	0.128806	0.121894
O7	O	1.666253	0.117602	0.121920
Cu8	Cu	1.483438	0.123204	0.144150
Cu9	Cu	1.483453	0.123208	-0.143934
O10	O	1.473406	0.245037	0.121909
C11	C	1.253844	0.127986	0.000091
C12	C	1.114434	0.125524	0.000081
C13	C	1.492662	-0.029827	0.000103
C14	C	1.490213	-0.122794	0.000091
C15	C	1.033945	0.200556	0.000086
C16	C	0.902955	0.198238	0.000112
C17	C	0.932957	0.045850	0.000121
C18	C	1.063944	0.048169	0.000106
C19	C	1.481212	-0.460585	0.000104
C20	C	1.620404	-0.436464	0.000658
C21	C	1.623050	-0.339773	0.000104
C22	C	1.485679	-0.293003	0.000099
C23	C	1.416097	-0.322506	-0.139009
C24	C	1.414421	-0.419306	-0.139120
C25	C	1.411564	-0.419184	0.137897
C26	C	1.416722	-0.322662	0.139731
C27	C	1.488195	-0.198292	0.000091
C28	C	1.478692	-0.555295	0.000102
C29	C	1.713047	0.118426	0.000121
C30	C	1.852457	0.120888	0.000122
C31	C	1.474229	0.276239	0.000110
C32	C	1.476678	0.369206	0.000111
N33	N	1.483436	0.123200	0.346772
N34	N	1.483465	0.123205	-0.346557
C35	C	1.568857	0.066796	0.423429
C36	C	1.568869	0.066796	0.576766
C37	C	1.398035	0.179612	0.576776
C38	C	1.398018	0.179607	0.423442
H39	H	1.075049	0.263543	0.000077
H40	H	1.328452	0.225539	0.361023
H41	H	0.837425	0.259337	0.000119
H42	H	1.328491	0.225539	0.639215
Br43	Br	0.864425	-0.059127	0.000149
Br44	Br	1.684779	-0.009758	0.319384
H45	H	1.674050	-0.464152	0.100418
Br46	Br	1.173189	-0.053667	0.000118
Br47	Br	1.684796	-0.009759	0.680798
Br48	Br	1.709347	-0.484309	-0.164666
Br49	Br	1.713841	-0.307531	0.166330
Br50	Br	1.714429	-0.308557	-0.166380
Br51	Br	1.494765	-0.463538	-0.312423
Br52	Br	1.244328	-0.444551	-0.149658
Br53	Br	1.247612	-0.270369	-0.147650
H54	H	1.455393	-0.447020	0.243340
Br55	Br	1.496648	-0.288606	-0.311553
H56	H	1.467388	-0.303804	0.242641
H57	H	1.316454	-0.290275	0.148128
Br58	Br	1.240799	-0.443493	0.139456
