data_functionalizedCrystal
_audit_creation_method	'MofGen! by Chris Wilmer'
_symmetry_space_group_name_H-M	'P1'
_symmetry_Int_Tables_number	1
_symmetry_cell_setting	triclinic
loop_
_symmetry_equiv_pos_as_xyz
  x,y,z
_cell_length_a	11.169417
_cell_length_b	19.120786
_cell_length_c	11.169409
_cell_angle_alpha	87.520717
_cell_angle_beta	89.980487
_cell_angle_gamma	92.466524
loop_
_atom_site_label
_atom_site_type_symbol
_atom_site_fract_x
_atom_site_fract_y
_atom_site_fract_z
Zn1	Zn	1.814457	-0.279552	-0.658094
Zn2	Zn	2.314457	0.220448	-0.158094
Zn3	Zn	1.805729	-0.397034	-0.448821
Zn4	Zn	2.305729	0.102966	0.051179
Zn5	Zn	1.613739	-0.279596	-0.457426
Zn6	Zn	2.113739	0.220404	0.042574
Zn7	Zn	1.605137	-0.396977	-0.649471
Zn8	Zn	2.105137	0.103023	-0.149471
O9	O	1.709765	-0.338290	-0.553453
O10	O	2.209765	0.161710	-0.053453
O11	O	1.981248	-0.295142	-0.630341
O12	O	2.481248	0.204858	-0.130341
O13	O	1.780208	-0.381497	-0.282010
O14	O	2.280208	0.118503	0.217990
O15	O	1.647618	-0.181299	-0.491255
O16	O	2.147618	0.318701	0.008745
O17	O	1.974836	-0.381455	-0.476589
O18	O	2.474836	0.118545	0.023411
O19	O	1.795084	-0.181267	-0.638684
O20	O	2.295084	0.318733	-0.138684
O21	O	1.639155	-0.295216	-0.288332
O22	O	2.139155	0.204784	0.211668
O23	O	1.444649	-0.295161	-0.482894
O24	O	1.944649	0.204839	0.017106
O25	O	1.632956	-0.381359	-0.818568
O26	O	2.132956	0.118641	-0.318568
O27	O	1.438329	-0.381401	-0.623989
O28	O	1.938329	0.118599	-0.123989
O29	O	1.786742	-0.295087	-0.824903
O30	O	2.286742	0.204913	-0.324903
O31	O	1.771867	-0.495317	-0.468228
O32	O	2.271867	0.004683	0.031772
O33	O	1.624493	-0.495276	-0.615645
O34	O	2.124493	0.004724	-0.115645
C35	C	1.397941	-0.338280	-0.553440
C36	C	1.897941	0.161720	-0.053440
C37	C	1.264540	-0.338293	-0.553462
C38	C	1.764540	0.161707	-0.053462
C39	C	1.696332	-0.520782	-0.540093
C40	C	2.196332	-0.020782	-0.040093
C41	C	1.690695	-0.598854	-0.534418
C42	C	2.190695	-0.098854	-0.034418
C43	C	1.764767	-0.635455	-0.608573
C44	C	2.264767	-0.135455	-0.108573
C45	C	1.759465	-0.708811	-0.603242
C46	C	2.259465	-0.208811	-0.103242
C47	C	1.680097	-0.745565	-0.523750
C48	C	2.180097	-0.245565	-0.023750
C49	C	1.606016	-0.708958	-0.449592
C50	C	2.106016	-0.208958	0.050408
C51	C	1.611313	-0.635604	-0.454930
C52	C	2.111313	-0.135604	0.045070
C53	C	1.660261	-0.967052	-0.503797
C54	C	2.160261	-0.467052	-0.003797
C55	C	1.654973	-1.040412	-0.498463
C56	C	2.154973	-0.540412	0.001537
C57	C	1.808421	-1.040259	-0.652115
C58	C	2.308421	-0.540259	-0.152115
C59	C	1.813715	-0.966903	-0.657440
C60	C	2.313715	-0.466903	-0.157440
C61	C	1.739631	-0.930304	-0.583287
C62	C	2.239631	-0.430304	-0.083287
C63	C	1.674678	-0.820546	-0.518297
C64	C	2.174678	-0.320546	-0.018297
C65	C	1.745044	-0.855323	-0.588747
C66	C	2.245044	-0.355323	-0.088747
C67	C	2.022807	-0.338300	-0.553467
C68	C	2.522807	0.161700	-0.053467
C69	C	2.156207	-0.338304	-0.553473
C70	C	2.656207	0.161696	-0.053473
C71	C	1.709863	-0.338212	-0.866501
C72	C	2.209863	0.161788	-0.366501
C73	C	1.709905	-0.338179	-0.999904
C74	C	2.209905	0.161821	-0.499904
C75	C	1.723284	-0.155084	-0.566891
C76	C	2.223284	0.344916	-0.066891
C77	C	1.729045	-0.077013	-0.572618
C78	C	2.229045	0.422987	-0.072618
C79	C	1.709741	-0.338317	-0.241626
C80	C	2.209741	0.161683	0.258374
C81	C	1.709946	-0.338152	-0.108239
C82	C	2.209946	0.161848	0.391761
H83	H	1.819792	-0.738608	-0.663618
H84	H	2.319792	-0.238608	-0.163618
N85	N	1.531423	-0.596130	-0.374937
N86	N	2.031423	-0.096130	0.125063
H87	H	1.582423	-0.565695	-0.321576
H88	H	2.082423	-0.065695	0.178424
H89	H	1.477986	-0.565743	-0.425957
H90	H	1.977986	-0.065743	0.074043
N91	N	1.569366	-1.080054	-0.412717
N92	N	2.069366	-0.580054	0.087283
H93	H	1.615981	-1.110482	-0.354924
H94	H	2.115981	-0.610482	0.145076
H95	H	1.523260	-1.045691	-0.366636
H96	H	2.023260	-0.545691	0.133364
H97	H	1.878343	-0.936980	-0.722169
H98	H	2.378343	-0.436980	-0.222169
H99	H	1.599941	-0.937259	-0.443416
H100	H	2.099941	-0.437259	0.056584
N101	N	1.830636	-0.815680	-0.674486
N102	N	2.330636	-0.315680	-0.174486
H103	H	1.888469	-0.785237	-0.627968
H104	H	2.388469	-0.285237	-0.127968
H105	H	1.876683	-0.850036	-0.720640
H106	H	2.376683	-0.350036	-0.220640
H107	H	1.541388	-0.738889	-0.384873
H108	H	2.041388	-0.238889	0.115127
N109	N	1.589092	-0.860191	-0.432546
N110	N	2.089092	-0.360191	0.067454
H111	H	1.542970	-0.825876	-0.386368
H112	H	2.042970	-0.325876	0.113632
H113	H	1.531327	-0.890633	-0.479137
H114	H	2.031327	-0.390633	0.020863
N115	N	1.850378	-0.595815	-0.694305
N116	N	2.350378	-0.095815	-0.194305
H117	H	1.896496	-0.630136	-0.740474
H118	H	2.396496	-0.130136	-0.240474
H119	H	1.803694	-0.565379	-0.752019
H120	H	2.303694	-0.065379	-0.252019
H121	H	1.868735	-1.070067	-0.712488
H122	H	2.368735	-0.570067	-0.212488
