data_functionalizedCrystal
_audit_creation_method	'MofGen! by Chris Wilmer'
_symmetry_space_group_name_H-M	'P1'
_symmetry_Int_Tables_number	1
_symmetry_cell_setting	triclinic
loop_
_symmetry_equiv_pos_as_xyz
  x,y,z
_cell_length_a	21.295417
_cell_length_b	12.759401
_cell_length_c	21.295411
_cell_angle_alpha	90.022412
_cell_angle_beta	89.978356
_cell_angle_gamma	89.971344
loop_
_atom_site_label
_atom_site_type_symbol
_atom_site_fract_x
_atom_site_fract_y
_atom_site_fract_z
Zn1	Zn	-0.250712	-1.606169	-0.355875
Zn2	Zn	-0.355964	-1.606007	-0.250601
Zn3	Zn	-0.250709	-1.430463	-0.250624
Zn4	Zn	-0.355944	-1.430412	-0.355836
O5	O	-0.303332	-1.518263	-0.303234
O6	O	-0.264683	-1.753169	-0.341917
O7	O	-0.342009	-1.582674	-0.162514
O8	O	-0.162620	-1.453860	-0.264612
O9	O	-0.342012	-1.753049	-0.264572
O10	O	-0.162622	-1.582951	-0.341940
O11	O	-0.264678	-1.453702	-0.162532
O12	O	-0.264659	-1.283435	-0.264574
O13	O	-0.341978	-1.453773	-0.443931
O14	O	-0.341975	-1.283397	-0.341873
O15	O	-0.264664	-1.582902	-0.443960
O16	O	-0.444051	-1.582624	-0.264534
O17	O	-0.444036	-1.453615	-0.341850
C18	C	-0.303315	-1.245295	-0.303223
C19	C	-0.303323	-1.128519	-0.303233
C20	C	-0.466884	-1.518125	-0.303199
C21	C	-0.536852	-1.518162	-0.303205
C22	C	-0.343644	-1.073664	-0.343415
C23	C	-0.343650	-0.963940	-0.343421
C24	C	-0.263011	-0.963934	-0.263056
C25	C	-0.263002	-1.073656	-0.263054
C26	C	-0.390202	-1.073667	-0.389811
C27	C	-0.390208	-0.963943	-0.389816
C28	C	-0.569705	-1.585397	-0.262988
C29	C	-0.635448	-1.585446	-0.263002
C30	C	-0.668334	-1.518242	-0.303227
C31	C	-0.635473	-1.451002	-0.343452
C32	C	-0.569732	-1.450963	-0.343441
N33	N	-0.771599	-1.426335	-0.308022
N34	N	-0.834051	-1.426376	-0.308029
C35	C	-0.866409	-1.518359	-0.303263
N36	N	-0.833957	-1.610303	-0.298478
N37	N	-0.771500	-1.610261	-0.298469
C38	C	-0.739620	-1.518278	-0.303244
C39	C	-0.970548	-1.585653	-0.263059
C40	C	-1.036292	-1.585704	-0.263078
C41	C	-1.036316	-1.451251	-0.343524
C42	C	-0.970573	-1.451210	-0.343509
C43	C	-0.937693	-1.518409	-0.303273
C44	C	-0.139142	-1.518429	-0.303283
C45	C	-0.069174	-1.518501	-0.303304
C46	C	-0.303319	-1.518350	-0.467424
C47	C	-0.303313	-1.518387	-0.537393
C48	C	-0.303345	-0.792296	-0.303243
C49	C	-0.303337	-0.909072	-0.303240
C50	C	-0.263054	-1.585621	-0.570275
C51	C	-0.263027	-1.585620	-0.636018
C52	C	-0.303270	-1.518395	-0.668875
C53	C	-0.343532	-1.451148	-0.635985
C54	C	-0.343553	-1.451144	-0.570243
N55	N	-0.358338	-1.510289	-0.772091
N56	N	-0.358315	-1.510299	-0.834542
C57	C	-0.303206	-1.518402	-0.866950
N58	N	-0.248119	-1.526514	-0.834547
N59	N	-0.248142	-1.526510	-0.772090
C60	C	-0.303251	-1.518392	-0.740161
C61	C	-0.262914	-1.585638	-0.971118
C62	C	-0.262886	-1.585629	-1.036862
C63	C	-0.343396	-1.451163	-1.036828
C64	C	-0.343419	-1.451166	-0.971085
C65	C	-0.303179	-1.518409	-0.938234
C66	C	-0.303300	-1.518236	-0.139683
C67	C	-0.303128	-1.518403	-0.069715
H68	H	-0.230165	-1.118314	-0.230338
H69	H	-0.943776	-1.640375	-0.230298
Cl70	Cl	-0.465445	-0.917896	-0.369496
H71	H	-0.542936	-1.640117	-0.230227
H72	H	-0.662202	-1.640200	-0.230253
Cl73	Cl	-0.929270	-1.366676	-0.394068
H74	H	-0.542982	-1.396211	-0.376192
Cl75	Cl	-0.461679	-1.126156	-0.362773
H76	H	-0.662254	-1.396286	-0.376205
Cl77	Cl	-1.077594	-1.670244	-0.212519
H78	H	-0.376336	-1.396389	-0.543471
Cl79	Cl	-0.370154	-1.119713	-0.465118
Cl80	Cl	-1.077653	-1.366772	-0.394098
H81	H	-0.230183	-0.919252	-0.230345
Cl82	Cl	-0.394120	-1.366633	-0.677290
H83	H	-0.372819	-0.929957	-0.436165
Cl84	Cl	-0.212399	-1.670128	-0.677365
Cl85	Cl	-0.212463	-1.670149	-0.528980
H86	H	-0.230145	-1.640386	-0.944370
H87	H	-0.230099	-1.640378	-1.063634
H88	H	-0.376156	-1.396416	-1.063580
H89	H	-0.376206	-1.396423	-0.944312
