data_functionalizedCrystal
_audit_creation_method	'MofGen! by Chris Wilmer'
_symmetry_space_group_name_H-M	'P1'
_symmetry_Int_Tables_number	1
_symmetry_cell_setting	triclinic
loop_
_symmetry_equiv_pos_as_xyz
  x,y,z
_cell_length_a	21.295418
_cell_length_b	21.295418
_cell_length_c	12.759393
_cell_angle_alpha	90.037482
_cell_angle_beta	90.040879
_cell_angle_gamma	90.043213
loop_
_atom_site_label
_atom_site_type_symbol
_atom_site_fract_x
_atom_site_fract_y
_atom_site_fract_z
Zn1	Zn	0.962352	-0.250306	0.594566
Zn2	Zn	1.462352	0.249694	1.094566
Zn3	Zn	0.962265	-0.355590	0.418868
Zn4	Zn	1.462265	0.144410	0.918868
Zn5	Zn	0.857080	-0.250368	0.418837
Zn6	Zn	1.357080	0.249632	0.918837
Zn7	Zn	0.857050	-0.355571	0.594441
Zn8	Zn	1.357050	0.144429	1.094441
O9	O	0.909687	-0.302959	0.506678
O10	O	1.409687	0.197041	1.006678
O11	O	1.050430	-0.264255	0.571325
O12	O	1.550430	0.235745	1.071325
O13	O	0.948288	-0.341666	0.271843
O14	O	1.448288	0.158334	0.771843
O15	O	0.871093	-0.162270	0.442187
O16	O	1.371093	0.337730	0.942187
O17	O	1.050366	-0.341607	0.442240
O18	O	1.550366	0.158393	0.942240
O19	O	0.948436	-0.162225	0.571294
O20	O	1.448436	0.337775	1.071294
O21	O	0.871009	-0.264360	0.271820
O22	O	1.371009	0.235640	0.771820
O23	O	0.768987	-0.264341	0.442065
O24	O	1.268987	0.235659	0.942065
O25	O	0.871042	-0.341573	0.741478
O26	O	1.371042	0.158427	1.241478
O27	O	0.768965	-0.341633	0.571081
O28	O	1.268965	0.158367	1.071081
O29	O	0.948407	-0.264236	0.741570
O30	O	1.448407	0.235764	1.241570
O31	O	0.948259	-0.443677	0.442119
O32	O	1.448259	0.056323	0.942119
O33	O	0.870958	-0.443663	0.571111
O34	O	1.370958	0.056337	1.071111
C35	C	0.909613	-0.466510	0.506628
C36	C	1.409613	0.033490	1.006628
C37	C	0.909639	-0.536479	0.506641
C38	C	1.409639	-0.036479	1.006641
C39	C	0.746135	-0.302992	0.506557
C40	C	1.246135	0.197008	1.006557
C41	C	0.676167	-0.303021	0.506530
C42	C	1.176167	0.196979	1.006530
C43	C	0.950088	-1.035923	0.439681
C44	C	1.450088	-0.535923	0.939681
C45	C	0.950065	-0.970180	0.439656
C46	C	1.450065	-0.470180	0.939656
C47	C	0.909775	-0.937318	0.506751
C48	C	1.409775	-0.437318	1.006751
C49	C	0.869496	-0.970203	0.573858
C50	C	1.369496	-0.470203	1.073858
C51	C	0.869516	-1.035944	0.573873
C52	C	1.369516	-0.535944	1.073873
N53	N	0.904884	-0.834059	0.598682
N54	N	1.404884	-0.334059	1.098682
N55	N	0.904868	-0.771608	0.598664
N56	N	1.404868	-0.271608	1.098664
C57	C	0.909710	-0.739243	0.506707
C58	C	1.409710	-0.239243	1.006707
N59	N	0.914581	-0.771689	0.414766
N60	N	1.414581	-0.271689	0.914766
N61	N	0.914600	-0.834146	0.414785
N62	N	1.414600	-0.334146	0.914785
C63	C	0.909748	-0.866033	0.506742
C64	C	1.409748	-0.366033	1.006742
C65	C	0.949958	-0.635080	0.439573
C66	C	1.449958	-0.135080	0.939573
C67	C	0.949929	-0.569337	0.439546
C68	C	1.449929	-0.069337	0.939546
C69	C	0.869364	-0.569361	0.573757
C70	C	1.369364	-0.069361	1.073757
C71	C	0.869389	-0.635103	0.573775
C72	C	1.369389	-0.135103	1.073775
C73	C	0.909689	-0.667959	0.506684
C74	C	1.409689	-0.167959	1.006684
C75	C	0.643305	-0.343320	0.573608
C76	C	1.143305	0.156680	1.073608
C77	C	0.577563	-0.343305	0.573655
C78	C	1.077563	0.156695	1.073655
C79	C	0.544684	-0.302997	0.506606
C80	C	1.044684	0.197003	1.006606
C81	C	0.577554	-0.262690	0.439523
C82	C	1.077554	0.237310	0.939523
C83	C	0.643295	-0.262702	0.439485
C84	C	1.143295	0.237298	0.939485
N85	N	0.441411	-0.298087	0.414714
N86	N	0.941411	0.201913	0.914714
N87	N	0.378959	-0.298079	0.414753
N88	N	0.878959	0.201921	0.914753
C89	C	0.346610	-0.302957	0.506717
C90	C	0.846610	0.197043	1.006717
N91	N	0.379071	-0.307855	0.598643
N92	N	0.879071	0.192145	1.098643
N93	N	0.441528	-0.307866	0.598602
N94	N	0.941528	0.192134	1.098602
C95	C	0.473399	-0.302979	0.506640
C96	C	0.973399	0.197021	1.006640
C97	C	0.242463	-0.343241	0.573852
C98	C	0.742463	0.156759	1.073852
C99	C	0.176719	-0.343221	0.573901
C100	C	0.676719	0.156779	1.073901
C101	C	0.176711	-0.262609	0.439759
C102	C	0.676711	0.237391	0.939759
C103	C	0.242454	-0.262626	0.439720
C104	C	0.742454	0.237374	0.939720
C105	C	0.275326	-0.302945	0.506764
C106	C	0.775326	0.197055	1.006764
C107	C	1.073877	-0.302926	0.506800
C108	C	1.573877	0.197074	1.006800
C109	C	1.143845	-0.302912	0.506852
C110	C	1.643845	0.197088	1.006852
C111	C	0.909731	-0.302895	0.780711
C112	C	1.409731	0.197105	1.280711
C113	C	0.909750	-0.302868	0.897488
C114	C	1.409750	0.197132	1.397488
C115	C	0.909778	-0.138768	0.506751
C116	C	1.409778	0.361232	1.006751
C117	C	0.909817	-0.068800	0.506782
C118	C	1.409817	0.431200	1.006782
C119	C	0.909679	-0.302977	0.233710
C120	C	1.409679	0.197023	0.733710
C121	C	0.909782	-0.302826	0.116934
C122	C	1.409782	0.197174	0.616934
C123	C	0.950039	-0.262595	0.952400
C124	C	1.450039	0.237405	1.452400
C125	C	0.950054	-0.262572	1.062124
C126	C	1.450054	0.237428	1.562124
C127	C	0.869488	-0.343101	1.062015
C128	C	1.369488	0.156899	1.562015
C129	C	0.869471	-0.343121	0.952293
C130	C	1.369471	0.156879	1.452293
C131	C	0.990318	-0.222342	0.897595
C132	C	1.490318	0.277658	1.397595
C133	C	1.030611	-0.182066	0.952507
C134	C	1.530611	0.317934	1.452507
C135	C	1.030626	-0.182044	1.062231
C136	C	1.530626	0.317956	1.562231
C137	C	0.990348	-0.222297	1.117043
C138	C	1.490348	0.277703	1.617043
H139	H	0.982902	-1.062670	0.385047
H140	H	1.482902	-0.562670	0.885047
H141	H	0.982772	-0.661833	0.384942
H142	H	1.482772	-0.161833	0.884942
Br143	Br	0.814737	-0.679726	0.664856
Br144	Br	1.314737	-0.179726	1.164856
H145	H	0.990356	-0.222268	1.206388
H146	H	1.490356	0.277732	1.706388
H147	H	0.982722	-0.542567	0.384898
H148	H	1.482722	-0.042567	0.884898
H149	H	0.836696	-0.375874	1.106652
H150	H	1.336696	0.124126	1.606652
Br151	Br	0.814858	-1.080567	0.664948
Br152	Br	1.314858	-0.580567	1.164948
H153	H	0.836557	-0.542604	0.628384
H154	H	1.336557	-0.042604	1.128384
Br155	Br	0.687914	-0.398037	0.664599
Br156	Br	1.187914	0.101963	1.164599
Br157	Br	0.287078	-0.397956	0.664843
Br158	Br	0.787078	0.102044	1.164843
H159	H	0.670051	-0.229884	0.384862
H160	H	1.170051	0.270116	0.884862
Br161	Br	0.532955	-0.397999	0.664698
Br162	Br	1.032955	0.102001	1.164698
Br163	Br	0.814789	-0.397775	0.877763
Br164	Br	1.314789	0.102225	1.377763
H165	H	0.149964	-0.376037	0.628530
H166	H	0.649964	0.123963	1.128530
Br167	Br	1.004718	-0.925551	0.348575
Br168	Br	1.504718	-0.425551	0.848575
H169	H	0.550780	-0.229869	0.384933
H170	H	1.050780	0.270131	0.884933
H171	H	0.990311	-0.222358	0.808252
H172	H	1.490311	0.277642	1.308252
H173	H	0.149943	-0.229787	0.385171
H174	H	0.649943	0.270213	0.885171
Br175	Br	0.287055	-0.207931	0.348680
Br176	Br	0.787055	0.292069	0.848680
Br177	Br	1.085259	-0.127427	0.878122
Br178	Br	1.585259	0.372573	1.378122
H179	H	0.836690	-0.943443	0.628486
H180	H	1.336690	-0.443443	1.128486
Br181	Br	1.085309	-0.127385	1.136752
Br182	Br	1.585309	0.372615	1.636752
