data_functionalizedCrystal
_audit_creation_method	'MofGen! by Chris Wilmer'
_symmetry_space_group_name_H-M	'P1'
_symmetry_Int_Tables_number	1
_symmetry_cell_setting	triclinic
loop_
_symmetry_equiv_pos_as_xyz
  x,y,z
_cell_length_a	16.109301
_cell_length_b	17.038272
_cell_length_c	15.186229
_cell_angle_alpha	89.995962
_cell_angle_beta	89.999362
_cell_angle_gamma	87.286518
loop_
_atom_site_label
_atom_site_type_symbol
_atom_site_fract_x
_atom_site_fract_y
_atom_site_fract_z
O1	O	1.110268	0.100495	-0.073174
O2	O	0.869094	0.113001	-0.073188
O3	O	0.988247	-0.007067	-0.073174
O4	O	0.991114	0.220563	-0.073187
O5	O	0.988239	-0.007069	0.073284
O6	O	0.869085	0.113000	0.073270
O7	O	1.110259	0.100493	0.073284
Zn8	Zn	0.989671	0.106746	0.096530
Zn9	Zn	0.989682	0.106748	-0.096434
O10	O	0.991105	0.220562	0.073270
C11	C	0.838079	0.112494	0.000039
C12	C	0.745676	0.110975	0.000034
C13	C	0.528212	0.178690	0.000040
C14	C	0.441390	0.177257	0.000046
C15	C	0.451147	0.034799	0.000051
C16	C	0.537968	0.036233	0.000051
C17	C	0.576498	0.108181	0.000042
C18	C	0.402855	0.105314	0.000047
C19	C	0.308719	0.103759	0.000053
C20	C	0.670640	0.109736	0.000037
C21	C	0.985636	-0.036196	0.000055
C22	C	0.977857	-0.122989	0.000054
C23	C	1.049277	-0.173104	0.000059
C24	C	1.041963	-0.254654	0.000050
C25	C	0.963228	-0.286089	0.000043
C26	C	0.891802	-0.235967	0.000035
C27	C	0.899116	-0.154418	0.000038
C28	C	0.937385	-0.531846	0.000029
C29	C	0.930076	-0.613402	0.000029
C30	C	1.080238	-0.632083	0.000043
C31	C	1.087546	-0.550532	0.000051
C32	C	1.016120	-0.500418	0.000038
C33	C	0.955749	-0.369446	0.000037
C34	C	1.023599	-0.417062	0.000038
C35	C	1.141274	0.101001	0.000055
C36	C	1.233677	0.102519	0.000054
C37	C	0.993717	0.249691	0.000039
C38	C	1.001496	0.336484	0.000034
N39	N	0.989669	0.106744	0.228223
N40	N	0.989690	0.106744	-0.228126
C41	C	1.042451	0.053596	0.453952
C42	C	1.042453	0.053594	0.546141
C43	C	0.936902	0.159895	0.546138
C44	C	0.936896	0.159893	0.453950
C45	C	0.989675	0.106744	0.407859
C46	C	0.989684	0.106745	0.592237
C47	C	0.989686	0.106743	0.692193
C48	C	0.989672	0.106744	0.307897
H49	H	1.113392	-0.147517	0.000071
O50	O	0.885657	0.211452	0.409034
C51	C	0.838915	0.258590	0.267007
C52	C	0.896968	0.200150	0.317765
H53	H	0.848052	0.249484	0.193208
H54	H	0.771586	0.248389	0.285071
H55	H	0.854171	0.321207	0.285176
H56	H	0.881787	0.137511	0.299624
H57	H	0.964280	0.210420	0.299698
H58	H	0.419765	-0.023778	0.000064
O59	O	0.565508	0.248645	0.000077
C60	C	0.546662	0.389791	0.000026
C61	C	0.504322	0.310621	0.000002
H62	H	0.497213	0.439919	-0.000053
H63	H	0.587039	0.394074	0.061333
H64	H	0.587091	0.393986	-0.061251
H65	H	0.463851	0.306372	0.061238
H66	H	0.463995	0.306372	-0.061345
O67	O	0.584755	-0.032336	0.000013
C68	C	0.585278	-0.173786	0.000072
C69	C	0.532193	-0.096195	0.000090
H70	H	0.542804	-0.225436	0.000153
H71	H	0.626152	-0.176726	-0.061233
H72	H	0.626186	-0.176631	0.061351
H73	H	0.491236	-0.093298	-0.061147
H74	H	0.491373	-0.093287	0.061436
O75	O	0.885560	0.211552	0.590776
C76	C	0.780899	0.317016	0.581042
C77	C	0.838989	0.258543	0.530383
H78	H	0.743244	0.355034	0.532236
H79	H	0.736929	0.283289	0.624185
H80	H	0.819568	0.356052	0.624219
H81	H	0.800386	0.219493	0.487158
H82	H	0.882962	0.292319	0.487295
H83	H	1.138389	-0.672894	0.000051
H84	H	1.100122	-0.295455	0.000056
H85	H	0.840958	-0.113615	0.000033
H86	H	0.402079	0.234672	0.000047
H87	H	1.151661	-0.524945	0.000057
O88	O	0.853524	-0.643808	-0.000027
C89	C	0.705354	-0.616677	-0.000008
C90	C	0.791991	-0.582137	0.000036
H91	H	0.655582	-0.566834	0.000061
H92	H	0.698137	-0.654358	-0.061316
H93	H	0.698210	-0.654420	0.061268
H94	H	0.799195	-0.544359	-0.061199
H95	H	0.799169	-0.544501	0.061384
H96	H	0.879224	-0.491053	0.000019
H97	H	1.085425	0.010318	0.416427
O98	O	1.093643	0.001997	0.591052
C99	C	1.140468	-0.045085	0.733071
C100	C	1.082438	0.013382	0.682321
H101	H	1.131441	-0.035889	0.806872
H102	H	1.125207	-0.107728	0.715016
H103	H	1.207767	-0.034884	0.714887
H104	H	1.015120	0.003254	0.700478
H105	H	1.097771	0.076005	0.700381
H106	H	0.827693	-0.261567	0.000023
H107	H	1.087705	-0.391465	0.000025
O108	O	0.879250	-0.399947	-0.000122
C109	C	0.748657	-0.408900	-0.075976
C110	C	0.835271	-0.374316	-0.075913
H111	H	0.713069	-0.388177	-0.137237
H112	H	0.755657	-0.475797	-0.076037
H113	H	0.713099	-0.388285	-0.014656
H114	H	0.870877	-0.394871	-0.137223
H115	H	0.828211	-0.307423	-0.075806
