data_functionalizedCrystal
_audit_creation_method	'MofGen! by Chris Wilmer'
_symmetry_space_group_name_H-M	'P1'
_symmetry_Int_Tables_number	1
_symmetry_cell_setting	triclinic
loop_
_symmetry_equiv_pos_as_xyz
  x,y,z
_cell_length_a	13.897449
_cell_length_b	16.120297
_cell_length_c	13.897448
_cell_angle_alpha	87.126532
_cell_angle_beta	89.981481
_cell_angle_gamma	92.876717
loop_
_atom_site_label
_atom_site_type_symbol
_atom_site_fract_x
_atom_site_fract_y
_atom_site_fract_z
Zn1	Zn	1.447027	-0.471424	0.411676
Zn2	Zn	1.780361	-0.138091	0.745009
Zn3	Zn	2.113694	0.195242	1.078342
Zn4	Zn	1.455105	-0.332016	0.564802
Zn5	Zn	1.788439	0.001317	0.898136
Zn6	Zn	2.121772	0.334650	1.231469
Zn7	Zn	1.293900	-0.332025	0.403526
Zn8	Zn	1.627233	0.001309	0.736859
Zn9	Zn	1.960567	0.334642	1.070192
Zn10	Zn	1.285701	-0.471378	0.572930
Zn11	Zn	1.619034	-0.138045	0.906263
Zn12	Zn	1.952368	0.195288	1.239597
O13	O	1.370433	-0.401711	0.488233
O14	O	1.703767	-0.068378	0.821567
O15	O	2.037100	0.264956	1.154900
O16	O	1.583080	-0.452948	0.431998
O17	O	1.916413	-0.119614	0.765331
O18	O	2.249746	0.213719	1.098664
O19	O	1.440533	-0.215355	0.536596
O20	O	1.773867	0.117979	0.869930
O21	O	2.107200	0.451312	1.203263
O22	O	1.314263	-0.350539	0.269627
O23	O	1.647597	-0.017206	0.602960
O24	O	1.980930	0.316128	0.936293
O25	O	1.589014	-0.350525	0.544499
O26	O	1.922348	-0.017192	0.877832
O27	O	2.255681	0.316142	1.211166
O28	O	1.426765	-0.452956	0.275614
O29	O	1.760099	-0.119622	0.608948
O30	O	2.093432	0.213711	0.942281
O31	O	1.322096	-0.215361	0.418107
O32	O	1.655430	0.117973	0.751440
O33	O	1.988763	0.451306	1.084774
O34	O	1.157832	-0.350494	0.425988
O35	O	1.491165	-0.017161	0.759322
O36	O	1.824498	0.316172	1.092655
O37	O	1.300289	-0.588047	0.558352
O38	O	1.633622	-0.254714	0.891685
O39	O	1.966956	0.078619	1.225018
O40	O	1.151808	-0.452877	0.550449
O41	O	1.485141	-0.119543	0.883782
O42	O	1.818474	0.213790	1.217116
O43	O	1.418815	-0.588081	0.439879
O44	O	1.752148	-0.254748	0.773212
O45	O	2.085482	0.078586	1.106546
O46	O	1.432583	-0.350480	0.700861
O47	O	1.765916	-0.017147	1.034194
O48	O	2.099249	0.316186	1.367527
O49	O	1.308122	-0.452869	0.706832
O50	O	1.641455	-0.119535	1.040166
O51	O	1.974789	0.213798	1.373499
C52	C	1.119821	-0.401682	0.488217
C53	C	1.453154	-0.068349	0.821550
C54	C	1.786487	0.264985	1.154884
C55	C	1.012606	-0.401689	0.488234
C56	C	1.345940	-0.068356	0.821568
C57	C	1.679273	0.264977	1.154901
C58	C	0.925536	-0.401703	0.488238
C59	C	1.258869	-0.068370	0.821572
C60	C	1.592202	0.264964	1.154905
C61	C	0.816302	-0.401728	0.488247
C62	C	1.149635	-0.068395	0.821580
C63	C	1.482969	0.264938	1.154913
C64	C	1.357736	-0.619159	0.500931
C65	C	1.691070	-0.285826	0.834264
C66	C	2.024403	0.047507	1.167598
C67	C	1.352326	-0.711823	0.506342
C68	C	1.685659	-0.378490	0.839675
C69	C	2.018992	-0.045156	1.173009
C70	C	1.342412	-0.881480	0.516200
C71	C	1.675745	-0.548147	0.849533
C72	C	2.009078	-0.214814	1.182866
C73	C	1.398645	-0.922793	0.459978
C74	C	1.731979	-0.589460	0.793312
C75	C	2.065312	-0.256127	1.126645
C76	C	1.393129	-1.017197	0.465463
C77	C	1.726462	-0.683863	0.798797
C78	C	2.059796	-0.350530	1.132130
C79	C	1.347927	-0.787069	0.510716
C80	C	1.681260	-0.453735	0.844049
C81	C	2.014593	-0.120402	1.177383
C82	C	1.622025	-0.401741	0.488251
C83	C	1.955358	-0.068407	0.821584
C84	C	2.288691	0.264926	1.154917
C85	C	1.729238	-0.401753	0.488258
C86	C	2.062571	-0.068420	0.821592
C87	C	2.395904	0.264913	1.154925
C88	C	1.370364	-0.401687	0.738846
C89	C	1.703698	-0.068353	1.072180
C90	C	2.037031	0.264980	1.405513
C91	C	1.370422	-0.401704	0.846061
C92	C	1.703755	-0.068371	1.179395
C93	C	2.037088	0.264962	1.512728
C94	C	1.383137	-0.185108	0.475516
C95	C	1.716470	0.148225	0.808849
C96	C	2.049803	0.481558	1.142182
C97	C	1.388734	-0.092445	0.469833
C98	C	1.722067	0.240888	0.803166
C99	C	2.055401	0.574221	1.136500
C100	C	1.370528	-0.401753	0.236643
C101	C	1.703861	-0.068420	0.569976
C102	C	2.037195	0.264913	0.903310
C103	C	1.370568	-0.401771	0.129430
C104	C	1.703901	-0.068438	0.462763
C105	C	2.037235	0.264895	0.796097
C106	C	1.370520	-0.401757	1.042359
C107	C	1.703853	-0.068423	1.375693
C108	C	2.037186	0.264910	1.709026
C109	C	1.370462	-0.401730	0.933125
C110	C	1.703796	-0.068397	1.266459
C111	C	2.037129	0.264937	1.599792
H112	H	1.450930	-0.887264	0.407726
H113	H	1.784264	-0.553930	0.741059
H114	H	2.117597	-0.220597	1.074392
H115	H	1.290131	-0.917008	0.568448
H116	H	1.623464	-0.583675	0.901781
H117	H	1.956797	-0.250341	1.235115
