data_functionalizedCrystal
_audit_creation_method	'MofGen! by Chris Wilmer'
_symmetry_space_group_name_H-M	'P1'
_symmetry_Int_Tables_number	1
_symmetry_cell_setting	triclinic
loop_
_symmetry_equiv_pos_as_xyz
  x,y,z
_cell_length_a	16.992694
_cell_length_b	16.992695
_cell_length_c	15.455446
_cell_angle_alpha	87.143805
_cell_angle_beta	92.852501
_cell_angle_gamma	90.668223
loop_
_atom_site_label
_atom_site_type_symbol
_atom_site_fract_x
_atom_site_fract_y
_atom_site_fract_z
O1	O	-1.047630	-0.170137	0.072022
O2	O	-0.547630	0.329863	0.572022
O3	O	-0.819228	-0.168307	0.072048
O4	O	-0.319228	0.331693	0.572048
O5	O	-0.932514	-0.055022	0.072028
O6	O	-0.432514	0.444978	0.572028
O7	O	-0.934344	-0.283423	0.072042
O8	O	-0.434344	0.216577	0.572042
O9	O	-0.938955	-0.048566	-0.072232
O10	O	-0.438955	0.451434	0.427768
O11	O	-0.825669	-0.161852	-0.072213
O12	O	-0.325669	0.338148	0.427787
O13	O	-1.054071	-0.163682	-0.072238
O14	O	-0.554071	0.336318	0.427762
Cu15	Cu	-0.940458	-0.162177	-0.085397
Cu16	Cu	-0.440458	0.337823	0.414603
Cu17	Cu	-0.932841	-0.169812	0.085207
Cu18	Cu	-0.432841	0.330188	0.585207
O19	O	-0.940785	-0.276967	-0.072219
O20	O	-0.440785	0.223033	0.427781
C21	C	-0.793089	-0.162724	-0.000079
C22	C	-0.293089	0.337276	0.499921
C23	C	-0.705604	-0.155696	-0.000070
C24	C	-0.205604	0.344304	0.499930
C25	C	-0.933378	-0.022434	-0.000102
C26	C	-0.433378	0.477566	0.499898
C27	C	-0.926350	0.065050	-0.000101
C28	C	-0.426350	0.565050	0.499899
N29	N	-0.945821	-0.156807	-0.205391
N30	N	-0.445821	0.343193	0.294609
C31	C	-1.080210	-0.169265	-0.000109
C32	C	-0.580210	0.330735	0.499891
C33	C	-1.167695	-0.176294	-0.000113
C34	C	-0.667695	0.323706	0.499887
C35	C	-0.659613	-0.223514	-0.000066
C36	C	-0.159613	0.276486	0.499934
C37	C	-0.577412	-0.216904	-0.000079
C38	C	-0.077412	0.283096	0.499921
C39	C	-0.541204	-0.142476	-0.000088
C40	C	-0.041204	0.357524	0.499912
C41	C	-0.587202	-0.074653	-0.000094
C42	C	-0.087202	0.425347	0.499906
C43	C	-0.669401	-0.081263	-0.000088
C44	C	-0.169401	0.418737	0.499912
C45	C	-0.295891	-0.115081	-0.000113
C46	C	0.204109	0.384919	0.499887
C47	C	-0.213686	-0.108476	-0.000116
C48	C	0.286314	0.391524	0.499884
C49	C	-0.203902	-0.250728	-0.000103
C50	C	0.296098	0.249272	0.499897
C51	C	-0.286103	-0.257331	-0.000091
C52	C	0.213897	0.242669	0.499909
C53	C	-0.332093	-0.189508	-0.000102
C54	C	0.167907	0.310492	0.499898
N55	N	-0.457183	-0.135719	-0.000098
N56	N	0.042817	0.364281	0.499902
N57	N	-0.416114	-0.196266	-0.000098
N58	N	0.083886	0.303734	0.499902
C59	C	-0.939920	-0.309555	-0.000087
C60	C	-0.439920	0.190445	0.499913
C61	C	-0.946949	-0.397040	-0.000082
C62	C	-0.446949	0.102960	0.499918
C63	C	-0.994168	0.111042	-0.000109
C64	C	-0.494168	0.611042	0.499891
C65	C	-0.987559	0.193242	-0.000100
C66	C	-0.487559	0.693242	0.499900
C67	C	-0.913130	0.229450	-0.000089
C68	C	-0.413130	0.729450	0.499911
C69	C	-0.845307	0.183452	-0.000078
C70	C	-0.345307	0.683452	0.499922
C71	C	-0.851917	0.101253	-0.000081
C72	C	-0.351917	0.601253	0.499919
C73	C	-0.885735	0.474764	-0.000074
C74	C	-0.385735	0.974764	0.499926
C75	C	-0.879131	0.556969	-0.000074
C76	C	-0.379131	1.056969	0.499926
C77	C	-1.021383	0.566753	-0.000094
C78	C	-0.521383	1.066753	0.499906
C79	C	-1.027987	0.484552	-0.000102
C80	C	-0.527987	0.984552	0.499898
C81	C	-0.960163	0.438561	-0.000087
C82	C	-0.460163	0.938561	0.499913
N83	N	-0.906373	0.313472	-0.000082
N84	N	-0.406373	0.813472	0.499918
N85	N	-0.966921	0.354541	-0.000087
N86	N	-0.466921	0.854541	0.499913
C87	C	-0.975622	-0.127069	-0.749391
C88	C	-0.475622	0.372931	-0.249391
C89	C	-0.971548	-0.131139	-0.658584
C90	C	-0.471548	0.368861	-0.158584
C91	C	-0.919332	-0.183312	-0.613187
C92	C	-0.419332	0.316688	-0.113187
C93	C	-0.871192	-0.231424	-0.658602
C94	C	-0.371192	0.268576	-0.158602
C95	C	-0.875270	-0.227358	-0.749407
C96	C	-0.375270	0.272642	-0.249407
C97	C	-0.901759	-0.200853	-0.341611
C98	C	-0.401759	0.299147	0.158389
C99	C	-0.897683	-0.204914	-0.250800
C100	C	-0.397683	0.295086	0.249200
C101	C	-0.998041	-0.104629	-0.250788
C102	C	-0.498041	0.395371	0.249212
C103	C	-1.002111	-0.100564	-0.341595
C104	C	-0.502111	0.399436	0.158405
C105	C	-0.953974	-0.148680	-0.387001
C106	C	-0.453974	0.351320	0.112999
N107	N	-0.915165	-0.187471	-0.520368
N108	N	-0.415165	0.312529	-0.020368
N109	N	-0.958145	-0.144524	-0.479819
N110	N	-0.458145	0.355476	0.020181
N111	N	-0.927483	-0.175176	0.205201
N112	N	-0.427483	0.324824	0.705201
H113	H	-0.539970	-0.272129	-0.000075
H114	H	-0.039970	0.227871	0.499925
H115	H	-1.037233	-0.065457	-0.213809
H116	H	-0.537233	0.434543	0.286191
H117	H	-0.784706	0.212939	-0.000063
H118	H	-0.284706	0.712939	0.499937
H119	H	-1.042784	0.230685	-0.000109
H120	H	-0.542784	0.730685	0.499891
H121	H	-1.010747	-0.091967	-0.621613
H122	H	-0.510747	0.408033	-0.121613
C123	C	-0.346469	-0.040474	-0.000112
C124	C	0.153531	0.459526	0.499888
C125	C	-0.342551	0.022467	-0.075022
C126	C	0.157449	0.522467	0.424978
C127	C	-0.393132	0.097079	-0.075018
C128	C	0.106868	0.597079	0.424982
C129	C	-0.447630	0.108748	-0.000104
C130	C	0.052370	0.608748	0.499896
C131	C	-0.451551	0.045805	0.074811
C132	C	0.048449	0.545805	0.574811
C133	C	-0.400970	-0.028807	0.074807
C134	C	0.099030	0.471193	0.574807
H135	H	-0.302206	0.013831	-0.130482
H136	H	0.197794	0.513831	0.369518
H137	H	-0.390229	0.143673	-0.130476
H138	H	0.109771	0.643673	0.369524
H139	H	-0.485073	0.163980	-0.000102
H140	H	0.014927	0.663980	0.499898
H141	H	-0.491896	0.054441	0.130272
H142	H	0.008104	0.554441	0.630272
H143	H	-0.403873	-0.075401	0.130265
H144	H	0.096127	0.424599	0.630265
C145	C	-1.109858	0.444725	-0.000098
C146	C	-0.609858	0.944725	0.499902
C147	C	-1.184459	0.495314	-0.000095
C148	C	-0.684459	0.995314	0.499905
C149	C	-1.266332	0.455486	-0.000088
C150	C	-0.766332	0.955486	0.499912
C151	C	-1.273603	0.365070	-0.000085
C152	C	-0.773603	0.865070	0.499915
C153	C	-1.199000	0.314477	-0.000088
C154	C	-0.699000	0.814477	0.499912
C155	C	-1.117128	0.354304	-0.000095
C156	C	-0.617128	0.854304	0.499905
H157	H	-1.179079	0.562250	-0.000097
H158	H	-0.679079	1.062250	0.499903
H159	H	-1.321558	0.492940	-0.000086
H160	H	-0.821558	0.992940	0.499914
H161	H	-1.334210	0.335588	-0.000080
H162	H	-0.834210	0.835588	0.499920
H163	H	-1.204381	0.247541	-0.000086
H164	H	-0.704381	0.747541	0.499914
H165	H	-1.061901	0.316850	-0.000097
H166	H	-0.561901	0.816850	0.499903
C167	C	-0.811129	0.424186	-0.000072
C168	C	-0.311129	0.924186	0.499928
C169	C	-0.748191	0.428101	0.074837
C170	C	-0.248191	0.928101	0.574837
C171	C	-0.673580	0.377521	0.074834
C172	C	-0.173580	0.877521	0.574834
C173	C	-0.661905	0.323026	-0.000079
C174	C	-0.161905	0.823026	0.499921
C175	C	-0.724845	0.319108	-0.074994
C176	C	-0.224845	0.819108	0.425006
C177	C	-0.799456	0.369688	-0.074991
C178	C	-0.299456	0.869688	0.425009
H179	H	-0.756832	0.468443	0.130297
H180	H	-0.256832	0.968443	0.630297
H181	H	-0.626988	0.380421	0.130292
H182	H	-0.126988	0.880421	0.630292
H183	H	-0.606673	0.285583	-0.000081
H184	H	-0.106673	0.785583	0.499919
H185	H	-0.716204	0.278766	-0.130454
H186	H	-0.216204	0.778766	0.369546
H187	H	-0.846048	0.366788	-0.130448
H188	H	-0.346048	0.866788	0.369552
H189	H	-0.855160	-0.247402	-0.213842
H190	H	-0.355160	0.252598	0.286158
H191	H	-0.862563	-0.240029	-0.378574
H192	H	-0.362563	0.259971	0.121426
H193	H	-0.796692	0.063808	-0.000073
H194	H	-0.296692	0.563808	0.499927
H195	H	-1.018138	-0.084581	-0.786347
H196	H	-0.518138	0.415419	-0.286347
C197	C	-0.813752	-0.288816	-0.608671
C198	C	-0.313752	0.211184	-0.108671
C199	C	-0.809258	-0.293291	-0.508789
C200	C	-0.309258	0.206709	-0.008789
C201	C	-0.751815	-0.350682	-0.458860
C202	C	-0.251815	0.149318	0.041140
C203	C	-0.698866	-0.403600	-0.508814
C204	C	-0.198866	0.096400	-0.008814
C205	C	-0.703358	-0.399127	-0.608702
C206	C	-0.203358	0.100873	-0.108702
C207	C	-0.760802	-0.341735	-0.658630
C208	C	-0.260802	0.158265	-0.158630
H209	H	-0.848456	-0.254116	-0.471805
H210	H	-0.348456	0.245884	0.028195
H211	H	-0.748489	-0.353993	-0.384917
H212	H	-0.248489	0.146007	0.115083
H213	H	-0.656343	-0.446084	-0.471854
H214	H	-0.156343	0.053916	0.028146
H215	H	-0.664161	-0.438301	-0.645685
H216	H	-0.164161	0.061699	-0.145685
H217	H	-0.764127	-0.338425	-0.732574
H218	H	-0.264127	0.161575	-0.232574
C219	C	-1.059551	-0.043178	-0.391534
C220	C	-0.559551	0.456822	0.108466
C221	C	-1.112524	0.009727	-0.341594
C222	C	-0.612524	0.509727	0.158406
C223	C	-1.169962	0.067115	-0.391536
C224	C	-0.669962	0.567115	0.108464
C225	C	-1.174426	0.071599	-0.491418
C226	C	-0.674426	0.571599	0.008582
C227	C	-1.121451	0.018692	-0.541364
C228	C	-0.621451	0.518692	-0.041364
C229	C	-1.064014	-0.038696	-0.491421
C230	C	-0.564014	0.461304	0.008579
H231	H	-1.109221	0.006410	-0.267651
H232	H	-0.609221	0.506410	0.232349
H233	H	-1.209177	0.106280	-0.354563
H234	H	-0.709177	0.606280	0.145437
H235	H	-1.216945	0.114081	-0.528389
H236	H	-0.716945	0.614081	-0.028389
H237	H	-1.124754	0.022010	-0.615307
H238	H	-0.624754	0.522010	-0.115307
H239	H	-1.024798	-0.077861	-0.528395
H240	H	-0.524798	0.422139	-0.028395
H241	H	-0.689087	-0.284121	-0.000058
H242	H	-0.189087	0.215879	0.499942
H243	H	-0.315577	-0.317939	-0.000074
H244	H	0.184423	0.182061	0.499926
H245	H	-0.557715	-0.014051	-0.000114
H246	H	-0.057715	0.485949	0.499886
H247	H	-0.166449	-0.305945	-0.000096
H248	H	0.333551	0.194055	0.499904
H249	H	-0.836072	-0.266533	-0.786378
H250	H	-0.336072	0.233467	-0.286378
H251	H	-0.184209	-0.047865	-0.000123
H252	H	0.315791	0.452135	0.499877
H253	H	-0.706846	-0.026038	-0.000090
H254	H	-0.206846	0.473962	0.499910
H255	H	-1.054776	0.081568	-0.000124
H256	H	-0.554776	0.581568	0.499876
H257	H	-1.076601	0.604207	-0.000106
H258	H	-0.576601	1.104207	0.499894
H259	H	-0.818520	0.586447	-0.000079
H260	H	-0.318520	1.086447	0.499921
