data_functionalizedCrystal
_audit_creation_method	'MofGen! by Chris Wilmer'
_symmetry_space_group_name_H-M	'P1'
_symmetry_Int_Tables_number	1
_symmetry_cell_setting	triclinic
loop_
_symmetry_equiv_pos_as_xyz
  x,y,z
_cell_length_a	23.532407
_cell_length_b	23.532355
_cell_length_c	16.776229
_cell_angle_alpha	89.995397
_cell_angle_beta	90.000166
_cell_angle_gamma	97.161913
loop_
_atom_site_label
_atom_site_type_symbol
_atom_site_fract_x
_atom_site_fract_y
_atom_site_fract_z
O1	O	-0.068997	0.755276	0.066167
O2	O	-0.079031	0.589408	0.066191
O3	O	0.008919	0.677344	0.066188
O4	O	-0.156946	0.667340	0.066170
O5	O	0.008927	0.677342	-0.066388
O6	O	-0.079023	0.589407	-0.066386
O7	O	-0.068989	0.755274	-0.066409
Zn8	Zn	-0.074005	0.672340	-0.087447
Zn9	Zn	-0.074015	0.672342	0.087228
O10	O	-0.156939	0.667339	-0.066407
C11	C	-0.078776	0.568191	-0.000094
C12	C	-0.078022	0.504972	-0.000085
C13	C	-0.073280	0.112957	-0.072385
C14	C	-0.072562	0.053558	-0.072388
O15	O	-0.072168	0.022839	-0.133848
N16	N	-0.072211	0.023850	-0.000121
C17	C	-0.072571	0.053546	0.072154
O18	O	-0.072205	0.022823	0.133623
C19	C	-0.073284	0.112945	0.072156
C20	C	-0.073641	0.142649	-0.000115
C21	C	-0.073636	0.142661	-0.144651
C22	C	-0.074355	0.202057	-0.144648
C23	C	-0.074717	0.231748	-0.072378
C24	C	-0.074360	0.202044	-0.000112
C25	C	-0.073640	0.142640	0.144431
C26	C	-0.074353	0.202043	0.144427
C27	C	-0.074710	0.231747	0.072155
C28	C	-0.075440	0.291130	0.072161
N29	N	-0.075792	0.320838	-0.000107
C30	C	-0.075430	0.291147	-0.072376
C31	C	-0.071072	-0.071195	0.072144
C32	C	-0.070363	-0.130594	0.072143
C33	C	-0.070353	-0.130578	-0.072400
C34	C	-0.071066	-0.071179	-0.072397
C35	C	-0.071423	-0.041488	-0.000123
C36	C	-0.076939	0.415881	-0.072364
C37	C	-0.077660	0.475281	-0.072354
C38	C	-0.077667	0.475260	0.072188
C39	C	-0.076949	0.415865	0.072179
C40	C	-0.076583	0.386177	-0.000104
O41	O	-0.075832	0.321888	0.133589
O42	O	-0.075788	0.321878	-0.133834
C43	C	-0.178158	0.667594	-0.000121
C44	C	-0.241375	0.668360	-0.000129
C45	C	-0.640487	0.621125	-0.000081
C46	C	-0.699887	0.621837	-0.000076
O47	O	-0.736640	0.578050	-0.000040
N48	N	-0.722504	0.674114	-0.000084
C49	C	-0.685717	0.725684	-0.000090
O50	O	-0.710408	0.770216	-0.000096
C51	C	-0.626318	0.724972	-0.000090
C52	C	-0.603705	0.672691	-0.000090
C53	C	-0.617874	0.568849	-0.000080
C54	C	-0.558478	0.568137	-0.000087
C55	C	-0.521695	0.619703	-0.000095
C56	C	-0.544309	0.671980	-0.000097
C57	C	-0.589532	0.776541	-0.000090
C58	C	-0.530129	0.775824	-0.000089
C59	C	-0.507516	0.723543	-0.000089
C60	C	-0.448130	0.722834	-0.000112
N61	N	-0.425514	0.670556	-0.000103
C62	C	-0.462296	0.618991	-0.000095
C63	C	-0.810459	0.727175	-0.000089
C64	C	-0.869857	0.727888	-0.000095
C65	C	-0.884023	0.624041	-0.000079
C66	C	-0.824624	0.623329	-0.000079
C67	C	-0.787842	0.674898	-0.000081
C68	C	-0.337560	0.617501	-0.000110
C69	C	-0.278158	0.616794	-0.000121
C70	C	-0.263996	0.720642	-0.000132
C71	C	-0.323393	0.721349	-0.000126
C72	C	-0.360174	0.669774	-0.000112
O73	O	-0.411343	0.766598	-0.000144
O74	O	-0.437597	0.574467	-0.000079
C75	C	0.030139	0.677088	-0.000096
C76	C	0.093356	0.676322	-0.000083
C77	C	-0.069244	0.776492	-0.000123
C78	C	-0.069998	0.839710	-0.000127
N79	N	-0.074018	0.672344	0.206440
N80	N	-0.073997	0.672343	-0.206658
C81	C	-0.035149	0.711353	0.248156
C82	C	-0.035148	0.711355	0.331608
C83	C	-0.074013	0.672345	0.373342
C84	C	-0.112885	0.633334	0.331621
C85	C	-0.112889	0.633335	0.248170
C86	C	-0.112871	0.633329	0.668168
C87	C	-0.112863	0.633330	0.751624
C88	C	-0.035131	0.711350	0.751606
C89	C	-0.035134	0.711351	0.668155
C90	C	-0.074008	0.672342	0.626440
C91	C	-0.074010	0.672341	0.535952
C92	C	-0.074008	0.672343	0.463829
H93	H	-0.074644	0.226214	0.203283
H94	H	-0.003499	0.743118	0.214181
H95	H	-0.144523	0.601566	0.634210
C96	C	0.007126	0.753606	0.796979
C97	C	0.041885	0.723521	0.844881
C98	C	0.080824	0.762419	0.886686
H99	H	0.030326	0.776840	0.760246
H100	H	-0.013241	0.777161	0.829592
H101	H	0.062251	0.699976	0.812271
H102	H	0.018700	0.700289	0.881629
H103	H	0.060457	0.785974	0.919299
H104	H	0.104021	0.785651	0.849947
H105	H	0.104409	0.742013	0.919198
H106	H	-0.144514	0.601562	0.785603
H107	H	-0.071368	-0.047026	0.131002
C108	C	-0.073217	0.110508	0.222983
C109	C	-0.073665	0.149238	0.286263
C110	C	-0.073265	0.119662	0.358642
H111	H	-0.106142	0.082799	0.226114
H112	H	-0.039706	0.091889	0.226030
H113	H	-0.107173	0.167848	0.283218
H114	H	-0.040743	0.176949	0.283159
H115	H	-0.039754	0.101043	0.361689
H116	H	-0.106190	0.091954	0.361765
H117	H	-0.073564	0.145937	0.401586
H118	H	-0.077953	0.499463	-0.131209
C119	C	-0.770620	0.783231	-0.000144
C120	C	-0.803147	0.829160	-0.000174
C121	C	-0.766471	0.880805	-0.000234
H122	H	-0.747139	0.785199	0.046074
H123	H	-0.747164	0.785143	-0.046397
H124	H	-0.826593	0.827248	0.046074
H125	H	-0.826627	0.827211	-0.046388
H126	H	-0.743015	0.882718	-0.046487
H127	H	-0.742992	0.882768	0.045985
H128	H	-0.788535	0.911975	-0.000261
H129	H	-0.259750	0.574219	-0.000124
H130	H	-0.070081	-0.154775	0.130994
H131	H	-0.144540	0.601570	0.214205
C132	C	-0.800044	0.566583	-0.000235
C133	C	-0.766368	0.563128	-0.068449
C134	C	-0.743725	0.510857	-0.068622
H135	H	-0.777130	0.564089	0.045946
H136	H	-0.830447	0.535961	-0.000274
H137	H	-0.735969	0.593742	-0.068402
H138	H	-0.789269	0.565612	-0.114640
H139	H	-0.774128	0.480234	-0.068662
H140	H	-0.720814	0.508367	-0.022439
H141	H	-0.720878	0.508503	-0.114908
C142	C	-0.155017	0.591004	0.377074
C143	C	-0.146685	0.599340	0.459086
C144	C	-0.185480	0.560349	0.500980
H145	H	-0.193042	0.596860	0.363499
H146	H	-0.148953	0.553040	0.363444
H147	H	-0.152753	0.637295	0.472710
H148	H	-0.108668	0.593479	0.472684
H149	H	-0.179416	0.522384	0.487350
H150	H	-0.223503	0.566208	0.487399
H151	H	-0.179829	0.565996	0.556629
C152	C	-0.490167	0.831798	0.000071
C153	C	-0.455659	0.834431	0.068285
C154	C	-0.418846	0.885988	0.068463
H155	H	-0.466649	0.833737	-0.046110
H156	H	-0.512126	0.863050	0.000114
H157	H	-0.433703	0.803188	0.068235
H158	H	-0.479162	0.832501	0.114477
H159	H	-0.440805	0.917239	0.068506
H160	H	-0.395332	0.887922	0.022280
H161	H	-0.395432	0.887783	0.114749
C162	C	-0.347837	0.778168	-0.000085
C163	C	-0.302908	0.823174	-0.000075
C164	C	-0.325399	0.875525	-0.000014
H165	H	-0.370713	0.780691	-0.046297
H166	H	-0.370690	0.780632	0.046174
H167	H	-0.280065	0.820712	-0.046329
H168	H	-0.280029	0.820671	0.046134
H169	H	-0.348252	0.877989	0.046245
H170	H	-0.348274	0.878042	-0.046227
H171	H	-0.294918	0.906068	0.000000
C172	C	-0.071418	-0.039029	-0.150948
C173	C	-0.070935	-0.077751	-0.214233
C174	C	-0.071249	-0.048158	-0.286608
H175	H	-0.104901	-0.020385	-0.154073
H176	H	-0.038465	-0.011337	-0.153993
H177	H	-0.103885	-0.105433	-0.211188
H178	H	-0.037454	-0.096396	-0.211134
H179	H	-0.038296	-0.020466	-0.289654
H180	H	-0.104733	-0.029515	-0.289725
H181	H	-0.070916	-0.074425	-0.329555
C182	C	-0.224026	0.776607	0.000026
C183	C	-0.189521	0.779228	0.068244
C184	C	-0.152697	0.830777	0.068428
H185	H	-0.200506	0.778542	-0.046152
H186	H	-0.245976	0.807864	0.000070
H187	H	-0.167573	0.747979	0.068193
H188	H	-0.213026	0.777302	0.114433
H189	H	-0.174647	0.862035	0.068472
H190	H	-0.129181	0.832708	0.022247
H191	H	-0.129285	0.832565	0.114716
H192	H	-0.070057	-0.154763	-0.131245
H193	H	-0.647817	0.526855	-0.000071
H194	H	-0.913983	0.582053	-0.000073
H195	H	-0.003499	0.743120	0.365573
H196	H	-0.076667	0.391677	0.131028
H197	H	-0.073340	0.118493	-0.203505
H198	H	-0.003485	0.743115	0.634177
H199	H	-0.076647	0.391715	-0.131223
H200	H	-0.074642	0.226237	-0.203499
H201	H	-0.607932	0.819114	-0.000090
C202	C	-0.078178	0.507459	0.150672
C203	C	-0.127017	0.486332	0.194266
C204	C	-0.127508	0.515988	0.266563
H205	H	-0.044885	0.502280	0.180465
H206	H	-0.078687	0.547089	0.140347
H207	H	-0.126503	0.446712	0.204593
H208	H	-0.160318	0.491512	0.164497
H209	H	-0.128016	0.555618	0.256239
H210	H	-0.094212	0.510807	0.296349
H211	H	-0.160646	0.501662	0.296148
C212	C	-0.377515	0.561524	0.000063
C213	C	-0.412018	0.558883	0.068284
C214	C	-0.448826	0.507323	0.068471
H215	H	-0.401037	0.559586	-0.046113
H216	H	-0.355553	0.530275	0.000105
H217	H	-0.433978	0.590123	0.068235
H218	H	-0.388512	0.560811	0.114471
H219	H	-0.426865	0.476074	0.068512
H220	H	-0.472344	0.505389	0.022291
H221	H	-0.472237	0.505522	0.114760
H222	H	-0.540072	0.525565	-0.000080
C223	C	-0.894514	0.784593	-0.000143
C224	C	-0.954407	0.774188	-0.000156
C225	C	-0.977138	0.826412	-0.000205
H226	H	-0.881926	0.805852	0.046073
H227	H	-0.881901	0.805814	-0.046398
H228	H	-0.967015	0.752975	0.046094
H229	H	-0.967011	0.752937	-0.046368
H230	H	-0.964525	0.847633	-0.046460
H231	H	-0.964546	0.847667	0.046011
H232	H	-1.017777	0.819359	-0.000221
