data_functionalizedCrystal
_audit_creation_method	'MofGen! by Chris Wilmer'
_symmetry_space_group_name_H-M	'P1'
_symmetry_Int_Tables_number	1
_symmetry_cell_setting	triclinic
loop_
_symmetry_equiv_pos_as_xyz
  x,y,z
_cell_length_a	11.792254
_cell_length_b	10.489716
_cell_length_c	10.268362
_cell_angle_alpha	89.998762
_cell_angle_beta	89.995475
_cell_angle_gamma	84.363867
loop_
_atom_site_label
_atom_site_type_symbol
_atom_site_fract_x
_atom_site_fract_y
_atom_site_fract_z
O1	O	1.507358	0.174912	-0.108287
O2	O	1.177066	0.192913	-0.108288
O3	O	1.349743	-0.001713	-0.108292
O4	O	1.334682	0.369537	-0.108283
O5	O	1.349727	-0.001721	0.108309
O6	O	1.177051	0.192905	0.108312
O7	O	1.507343	0.174903	0.108314
Cu8	Cu	1.342196	0.183903	0.128091
Cu9	Cu	1.342214	0.183913	-0.128065
O10	O	1.334667	0.369529	0.108318
C11	C	1.134765	0.191775	0.000012
C12	C	1.008743	0.188381	0.000011
C13	C	0.906399	0.185623	0.000005
C14	C	0.778004	0.182175	0.000004
C15	C	1.348603	-0.049245	0.000004
C16	C	1.345218	-0.190865	-0.000008
C17	C	1.451108	-0.288894	0.000005
C18	C	1.395161	-0.366063	-0.106788
C19	C	1.395122	-0.366035	0.106764
C20	C	1.289315	-0.266168	-0.106888
C21	C	1.289291	-0.266135	0.106759
C22	C	1.233266	-0.343255	-0.000059
C23	C	1.549644	0.176041	0.000011
C24	C	1.675666	0.179436	0.000004
C25	C	1.335806	0.417062	0.000019
C26	C	1.339192	0.558681	0.000022
N27	N	1.342191	0.183896	0.308256
N28	N	1.342227	0.183911	-0.308231
C29	C	1.342208	0.183911	0.573927
C30	C	1.342195	0.183906	0.426089
H31	H	1.543215	-0.264527	-0.000103
H32	H	1.244623	-0.222470	0.197049
H33	H	1.439868	-0.409705	-0.197074
H34	H	1.244645	-0.222711	-0.197273
C35	C	1.108747	-0.375856	-0.000131
C36	C	1.028871	-0.330767	-0.113193
C37	C	0.904354	-0.363372	-0.113272
C38	C	0.859714	-0.441065	-0.000288
C39	C	0.939592	-0.486159	0.112782
C40	C	1.064108	-0.453554	0.112861
H41	H	1.061915	-0.273249	-0.196838
H42	H	0.845224	-0.329990	-0.196974
H43	H	0.767540	-0.465201	-0.000347
H44	H	0.906548	-0.543676	0.196427
H45	H	1.123238	-0.486936	0.196564
C46	C	1.455519	-0.424960	0.228740
C47	C	1.582374	-0.409232	0.252168
C48	C	1.642781	-0.468153	0.374137
C49	C	1.576331	-0.542802	0.472677
C50	C	1.449469	-0.558534	0.449252
C51	C	1.389062	-0.499613	0.327283
H52	H	1.631571	-0.353968	0.179220
H53	H	1.736693	-0.456507	0.391477
H54	H	1.621048	-0.586419	0.562966
H55	H	1.400272	-0.613798	0.522200
H56	H	1.295150	-0.511259	0.309943
