data_functionalizedCrystal
_audit_creation_method	'MofGen! by Chris Wilmer'
_symmetry_space_group_name_H-M	'P1'
_symmetry_Int_Tables_number	1
_symmetry_cell_setting	triclinic
loop_
_symmetry_equiv_pos_as_xyz
  x,y,z
_cell_length_a	12.827893
_cell_length_b	25.639239
_cell_length_c	12.827885
_cell_angle_alpha	89.963827
_cell_angle_beta	89.980728
_cell_angle_gamma	90.038847
loop_
_atom_site_label
_atom_site_type_symbol
_atom_site_fract_x
_atom_site_fract_y
_atom_site_fract_z
Zn1	Zn	1.597500	-0.208122	-0.590804
Zn2	Zn	2.097500	0.291878	-0.090804
Zn3	Zn	1.597324	-0.295568	-0.416045
Zn4	Zn	2.097324	0.204432	0.083955
Zn5	Zn	1.422742	-0.208148	-0.416077
Zn6	Zn	1.922742	0.291852	0.083923
Zn7	Zn	1.422656	-0.295529	-0.590745
Zn8	Zn	1.922656	0.204471	-0.090745
O9	O	1.510055	-0.251842	-0.503418
O10	O	2.010055	0.248158	-0.003418
O11	O	1.743713	-0.219727	-0.567633
O12	O	2.243713	0.280273	-0.067633
O13	O	1.574127	-0.283998	-0.269813
O14	O	2.074127	0.216002	0.230187
O15	O	1.446034	-0.134980	-0.439293
O16	O	1.946034	0.365020	0.060707
O17	O	1.743583	-0.283973	-0.439238
O18	O	2.243583	0.216027	0.060762
O19	O	1.574428	-0.134960	-0.567664
O20	O	2.074428	0.365040	-0.067664
O21	O	1.445862	-0.219772	-0.269837
O22	O	1.945862	0.280228	0.230163
O23	O	1.276494	-0.219734	-0.439236
O24	O	1.776494	0.280266	0.060764
O25	O	1.445888	-0.283907	-0.736989
O26	O	1.945888	0.216093	-0.236989
O27	O	1.276431	-0.283932	-0.567564
O28	O	1.776431	0.216068	-0.067564
O29	O	1.574345	-0.219690	-0.737032
O30	O	2.074345	0.280310	-0.237032
O31	O	1.574044	-0.368728	-0.439181
O32	O	2.074044	0.131272	0.060819
O33	O	1.445716	-0.368699	-0.567533
O34	O	1.945716	0.131301	-0.067533
C35	C	1.238546	-0.251832	-0.503398
C36	C	1.738546	0.248168	-0.003398
C37	C	1.122392	-0.251841	-0.503414
C38	C	1.622392	0.248159	-0.003414
C39	C	1.509880	-0.387684	-0.503370
C40	C	2.009880	0.112316	-0.003370
C41	C	1.509900	-0.445798	-0.503384
C42	C	2.009900	0.054202	-0.003384
C43	C	0.950499	-0.283591	-0.439814
C44	C	1.450499	0.216409	0.060186
C45	C	1.070550	-0.283583	-0.439796
C46	C	1.570550	0.216417	0.060204
C47	C	1.577050	-0.806164	-0.436699
C48	C	2.077050	-0.306164	0.063301
C49	C	1.577090	-0.860768	-0.436713
C50	C	2.077090	-0.360768	0.063287
O51	O	1.634001	-0.889007	-0.379962
O52	O	2.134001	-0.389007	0.120038
N53	N	1.510239	-0.888081	-0.503487
N54	N	2.010239	-0.388081	-0.003487
C55	C	1.443350	-0.860786	-0.570259
C56	C	1.943350	-0.360786	-0.070259
O57	O	1.386493	-0.889032	-0.627057
O58	O	1.886493	-0.389032	-0.127057
C59	C	1.443316	-0.806183	-0.570249
C60	C	1.943316	-0.306183	-0.070249
C61	C	1.510164	-0.778873	-0.503463
C62	C	2.010164	-0.278873	-0.003463
C63	C	1.643893	-0.778854	-0.369920
C64	C	2.143893	-0.278854	0.130080
C65	C	1.643851	-0.724253	-0.369904
C66	C	2.143851	-0.224253	0.130096
C67	C	1.576966	-0.696963	-0.436669
C68	C	2.076966	-0.196963	0.063331
C69	C	1.510122	-0.724273	-0.503448
C70	C	2.010122	-0.224273	-0.003448
C71	C	1.376433	-0.778890	-0.637026
C72	C	1.876433	-0.278890	-0.137026
C73	C	1.376405	-0.724283	-0.637011
C74	C	1.876405	-0.224283	-0.137011
C75	C	1.443253	-0.696973	-0.570225
C76	C	1.943253	-0.196973	-0.070225
C77	C	1.443194	-0.642382	-0.570198
C78	C	1.943194	-0.142382	-0.070198
N79	N	1.510045	-0.615069	-0.503424
N80	N	2.010045	-0.115069	-0.003424
C81	C	1.576931	-0.642359	-0.436659
C82	C	2.076931	-0.142359	0.063341
C83	C	1.443429	-0.975457	-0.570275
C84	C	1.943429	-0.475457	-0.070275
C85	C	1.443458	-1.030059	-0.570280
C86	C	1.943458	-0.530059	-0.070280
C87	C	1.577199	-1.030037	-0.436735
C88	C	2.077199	-0.530037	0.063265
C89	C	1.577165	-0.975434	-0.436726
C90	C	2.077165	-0.475434	0.063274
C91	C	1.510281	-0.948144	-0.503501
C92	C	2.010281	-0.448144	-0.003501
C93	C	1.576837	-0.527694	-0.436632
C94	C	2.076837	-0.027694	0.063368
C95	C	1.576786	-0.473089	-0.436620
C96	C	2.076786	0.026911	0.063380
C97	C	1.443049	-0.473116	-0.570168
C98	C	1.943049	0.026884	-0.070168
C99	C	1.443095	-0.527716	-0.570177
C100	C	1.943095	-0.027716	-0.070177
C101	C	1.509998	-0.555004	-0.503405
C102	C	2.009998	-0.055004	-0.003405
O103	O	1.386315	-0.614108	-0.626923
O104	O	1.886315	-0.114108	-0.126923
O105	O	1.633789	-0.614107	-0.379880
O106	O	2.133789	-0.114107	0.120120
C107	C	1.782626	-0.251852	-0.503438
C108	C	2.282626	0.248148	-0.003438
C109	C	1.898779	-0.251856	-0.503447
C110	C	2.398779	0.248144	-0.003447
C111	C	1.510127	-0.251791	-0.775988
C112	C	2.010127	0.248209	-0.275988
C113	C	1.510157	-0.251769	-0.892141
C114	C	2.010157	0.248231	-0.392141
C115	C	1.510260	-0.115469	-0.503489
C116	C	2.010260	0.384531	-0.003489
C117	C	1.510348	-0.057355	-0.503519
C118	C	2.010348	0.442645	-0.003519
C119	C	1.446741	-0.219960	-1.063982
C120	C	1.946741	0.280040	-0.563982
C121	C	1.446708	-0.219982	-0.943932
C122	C	1.946708	0.280018	-0.443932
C123	C	1.510045	-0.251854	-0.231908
C124	C	2.010045	0.248146	0.268092
C125	C	1.510217	-0.251729	-0.115755
C126	C	2.010217	0.248271	0.384245
H127	H	0.905903	-0.310763	-0.385345
H128	H	1.405903	0.189237	0.114655
H129	H	0.943375	-0.224679	-0.557907
H130	H	1.443375	0.275321	-0.057907
H131	H	1.321993	-0.801116	-0.691405
H132	H	1.821993	-0.301116	-0.191405
H133	H	1.564503	-0.278969	-0.936658
H134	H	2.064503	0.221031	-0.436658
Cl135	Cl	1.139215	-0.325535	-0.355687
Cl136	Cl	1.639215	0.174465	0.144313
Cl137	Cl	1.053733	-0.209893	-0.587537
Cl138	Cl	1.553733	0.290107	-0.087537
Cl139	Cl	1.660830	-0.438760	-0.352655
Cl140	Cl	2.160830	0.061240	0.147345
H141	H	1.392425	-0.192744	-1.108534
H142	H	1.892425	0.307256	-0.608534
H143	H	1.388588	-0.450887	-0.624524
H144	H	1.888588	0.049113	-0.124524
H145	H	1.631318	-0.549906	-0.382263
H146	H	2.131318	-0.049906	0.117737
Cl147	Cl	1.727990	-0.813152	-0.285976
Cl148	Cl	2.227990	-0.313152	0.214024
H149	H	1.321941	-0.702066	-0.691391
H150	H	1.821941	-0.202066	-0.191391
H151	H	1.698288	-0.702021	-0.315525
H152	H	2.198288	-0.202021	0.184475
Cl153	Cl	1.359036	-0.562050	-0.654115
Cl154	Cl	1.859036	-0.062050	-0.154115
Cl155	Cl	1.362794	-0.177991	-0.875197
Cl156	Cl	1.862794	0.322009	-0.375197
Cl157	Cl	1.661207	-0.941107	-0.352765
Cl158	Cl	2.161207	-0.441107	0.147235
Cl159	Cl	1.661283	-1.064355	-0.352800
Cl160	Cl	2.161283	-0.564355	0.147200
Cl161	Cl	1.359404	-1.064385	-0.654230
Cl162	Cl	1.859404	-0.564385	-0.154230
Cl163	Cl	1.594093	-0.293745	-1.046979
Cl164	Cl	2.094093	0.206255	-0.546979
H165	H	1.388955	-0.953240	-0.624648
H166	H	1.888955	-0.453240	-0.124648
