data_functionalizedCrystal
_audit_creation_method	'MofGen! by Chris Wilmer'
_symmetry_space_group_name_H-M	'P1'
_symmetry_Int_Tables_number	1
_symmetry_cell_setting	triclinic
loop_
_symmetry_equiv_pos_as_xyz
  x,y,z
_cell_length_a	11.026607
_cell_length_b	14.519709
_cell_length_c	10.065875
_cell_angle_alpha	98.804604
_cell_angle_beta	79.302338
_cell_angle_gamma	96.133081
loop_
_atom_site_label
_atom_site_type_symbol
_atom_site_fract_x
_atom_site_fract_y
_atom_site_fract_z
O1	O	1.628737	0.375708	-0.113512
O2	O	1.275335	0.331718	-0.113511
O3	O	1.461404	0.221020	-0.113499
O4	O	1.442668	0.486407	-0.113524
O5	O	1.425923	0.242237	0.113487
O6	O	1.239855	0.352935	0.113475
O7	O	1.593256	0.396926	0.113475
Zn8	Zn	1.410922	0.378299	0.149514
Zn9	Zn	1.457669	0.350345	-0.149550
O10	O	1.407187	0.507624	0.113463
C11	C	1.212366	0.334211	-0.000018
C12	C	1.077600	0.310019	-0.000017
C13	C	1.003940	0.376818	-0.000024
C14	C	0.864652	0.351815	-0.000024
C15	C	1.442790	0.197125	-0.000006
C16	C	1.440173	0.094312	-0.000005
C17	C	1.430544	-0.282174	-0.000040
C18	C	1.433218	-0.177425	-0.000030
C19	C	1.435358	-0.093934	-0.000021
C20	C	1.438033	0.010822	-0.000014
C21	C	1.656225	0.394432	-0.000022
C22	C	1.790993	0.418624	-0.000031
C23	C	1.425802	0.531519	-0.000034
C24	C	1.428420	0.634330	-0.000043
N25	N	1.379027	0.397378	0.353617
N26	N	1.489574	0.331260	-0.353654
C27	C	1.446564	0.356976	0.421401
C28	C	1.422027	0.371668	0.578566
H29	H	0.831041	0.494329	-0.000029
H30	H	1.303036	0.442841	0.411939
H31	H	1.043996	0.452517	-0.000024
H32	H	1.565562	0.285786	0.588030
H33	H	0.824606	0.276108	-0.000052
O34	O	1.537380	0.302819	0.352016
C35	C	1.652248	0.340845	0.386817
H36	H	1.636149	0.386050	0.490587
H37	H	1.702560	0.385472	0.306413
C38	C	1.751280	0.205512	0.265814
C39	C	1.731507	0.261028	0.393272
H40	H	1.800174	0.156278	0.269791
H41	H	1.673892	0.179894	0.242363
H42	H	1.793201	0.242712	0.198825
H43	H	1.689573	0.223831	0.460256
H44	H	1.808889	0.286638	0.416735
O45	O	1.029805	0.219699	-0.000253
C46	C	0.975741	0.190755	-0.117793
H47	H	1.018723	0.236232	-0.199963
H48	H	0.871804	0.198045	-0.091214
C49	C	0.946234	0.031999	-0.070169
C50	C	0.999033	0.087851	-0.171096
H51	H	0.960596	-0.031478	-0.103047
H52	H	0.982654	0.051499	0.009022
H53	H	0.859624	0.038085	-0.048029
H54	H	1.085644	0.081773	-0.193222
H55	H	0.962629	0.068347	-0.250293
H56	H	1.346030	0.417134	0.636882
