data_functionalizedCrystal
_audit_creation_method	'MofGen! by Chris Wilmer'
_symmetry_space_group_name_H-M	'P1'
_symmetry_Int_Tables_number	1
_symmetry_cell_setting	triclinic
loop_
_symmetry_equiv_pos_as_xyz
  x,y,z
_cell_length_a	15.944493
_cell_length_b	15.021413
_cell_length_c	10.654550
_cell_angle_alpha	90.002476
_cell_angle_beta	96.020027
_cell_angle_gamma	89.992625
loop_
_atom_site_label
_atom_site_type_symbol
_atom_site_fract_x
_atom_site_fract_y
_atom_site_fract_z
O1	O	1.115477	0.074018	-0.161610
O2	O	0.871037	0.074022	-0.181655
O3	O	0.998877	0.074017	0.011181
O4	O	0.987637	0.074023	-0.354446
O5	O	0.998892	-0.074048	0.011169
O6	O	0.871052	-0.074042	-0.181667
O7	O	1.115492	-0.074046	-0.161622
Zn8	Zn	0.993274	-0.097553	-0.171646
Zn9	Zn	0.993254	0.097528	-0.171631
O10	O	0.987652	-0.074041	-0.354458
C11	C	0.839745	-0.000010	-0.180842
C12	C	0.746482	-0.000008	-0.178386
C13	C	0.511379	-0.000005	-0.291893
C14	C	0.460474	-0.073014	-0.230689
C15	C	0.575734	-0.000010	-0.173834
C16	C	0.460463	0.072966	-0.230649
C17	C	0.410799	-0.000008	-0.169447
C18	C	0.526058	-0.073078	-0.112662
C19	C	0.526051	0.072967	-0.112639
C20	C	0.475178	-0.000059	-0.051348
C21	C	0.670749	-0.000012	-0.176365
C22	C	0.315788	-0.000012	-0.166907
N23	N	0.993294	-0.230690	-0.171656
C24	C	1.052419	-0.470352	-0.082469
C25	C	0.976376	-0.529680	-0.058096
C26	C	0.993274	-0.412297	-0.171641
C27	C	1.069298	-0.529711	-0.195939
C28	C	0.993262	-0.587721	-0.171623
C29	C	0.917193	-0.470319	-0.147212
C30	C	1.010165	-0.470344	-0.285104
C31	C	0.934068	-0.529645	-0.260780
C32	C	0.993282	-0.311240	-0.171648
C33	C	0.993245	-0.688776	-0.171616
C34	C	1.146784	-0.000013	-0.162435
C35	C	1.240047	-0.000008	-0.164892
C36	C	0.998059	-0.000014	0.057962
C37	C	0.995590	-0.000011	0.197373
N38	N	0.993241	0.230666	-0.171611
C39	C	0.988469	-0.000008	-0.401239
C40	C	0.990939	-0.000005	-0.540650
C41	C	1.070860	-0.000015	0.277856
C42	C	1.068535	-0.000009	0.408846
C43	C	0.915663	0.000001	0.378857
C44	C	0.917989	0.000002	0.247869
C45	C	1.148461	-0.000028	0.227359
C46	C	1.223738	-0.000033	0.307843
C47	C	1.221413	-0.000027	0.438833
C48	C	1.143811	-0.000016	0.489339
H49	H	0.554702	0.134690	-0.062814
H50	H	1.282706	-0.000022	0.504361
H51	H	0.962078	-0.555745	0.037864
H52	H	0.856697	0.000004	0.182337
H53	H	1.286918	-0.000020	0.266713
H54	H	1.024486	-0.444261	-0.381035
N55	N	0.832002	-0.435918	-0.119831
H56	H	0.832539	-0.368684	-0.119969
H57	H	0.819154	-0.458092	-0.034428
H58	H	0.883991	-0.555515	-0.336187
N59	N	0.422518	0.154723	-0.296703
H60	H	0.392668	0.191303	-0.235405
H61	H	0.380818	0.136029	-0.369875
H62	H	1.141924	-0.000001	0.596001
N63	N	0.831966	-0.000004	0.433319
H64	H	0.798947	0.054884	0.403975
H65	H	0.841982	-0.000042	0.528503
H66	H	0.527591	-0.000072	-0.393588
H67	H	1.102382	-0.444317	-0.007017
H68	H	1.150363	-0.000036	0.120702
N69	N	0.422537	-0.154774	-0.296723
H70	H	0.435431	-0.154721	-0.387532
H71	H	0.359436	-0.154423	-0.293736
N72	N	0.563859	-0.154922	-0.046668
H73	H	0.627037	-0.154432	-0.048794
H74	H	0.539340	-0.209950	-0.090946
H75	H	1.133595	-0.555799	-0.216499
N76	N	0.453906	-0.000108	0.083456
H77	H	0.478002	-0.055273	0.127878
H78	H	0.390628	0.000446	0.084307
