data_functionalizedCrystal
_audit_creation_method	'MofGen! by Chris Wilmer'
_symmetry_space_group_name_H-M	'P1'
_symmetry_Int_Tables_number	1
_symmetry_cell_setting	triclinic
loop_
_symmetry_equiv_pos_as_xyz
  x,y,z
_cell_length_a	8.559649
_cell_length_b	16.992694
_cell_length_c	15.455313
_cell_angle_alpha	92.857794
_cell_angle_beta	92.289439
_cell_angle_gamma	99.776556
loop_
_atom_site_label
_atom_site_type_symbol
_atom_site_fract_x
_atom_site_fract_y
_atom_site_fract_z
O1	O	0.329735	-1.023967	-0.072017
O2	O	0.326044	-0.795905	-0.072043
O3	O	0.097853	-0.930028	-0.072027
O4	O	0.557925	-0.889844	-0.072033
O5	O	0.110845	-0.922362	0.072234
O6	O	0.339035	-0.788239	0.072218
O7	O	0.342726	-1.016301	0.072244
Cu8	Cu	0.342067	-0.901570	0.085403
Cu9	Cu	0.326703	-0.910636	-0.085202
O10	O	0.570917	-0.882177	0.072228
C11	C	0.327794	-0.763145	0.000084
C12	C	0.313635	-0.676954	0.000075
N13	N	0.352873	-0.895199	0.205398
C14	C	0.045208	-0.929241	0.000102
C15	C	-0.131015	-0.938306	0.000099
C16	C	0.623562	-0.882965	0.000097
C17	C	0.799784	-0.873900	0.000095
C18	C	0.340976	-1.049061	0.000115
C19	C	0.355134	-1.135252	0.000119
C20	C	0.450242	-0.618488	0.000073
C21	C	0.436931	-0.537502	0.000086
C22	C	0.287010	-0.514985	0.000093
C23	C	0.150392	-0.573459	0.000096
C24	C	0.163706	-0.654442	0.000090
C25	C	0.231831	-0.274709	0.000117
C26	C	0.218527	-0.193718	0.000120
C27	C	0.505067	-0.157767	0.000111
C28	C	0.518367	-0.238755	0.000099
C29	C	0.381750	-0.297221	0.000108
N30	N	0.273400	-0.432205	0.000102
N31	N	0.395362	-0.379998	0.000104
N32	N	0.315885	-0.917014	-0.205197
C33	C	0.255970	-0.952194	0.250799
C34	C	0.264158	-0.947382	0.341606
C35	C	0.369258	-0.885578	0.387011
C36	C	0.466164	-0.828576	0.341604
C37	C	0.457968	-0.833386	0.250798
C38	C	0.404595	-0.864822	0.658590
C39	C	0.412788	-0.860018	0.749402
C40	C	0.210778	-0.978824	0.749398
C41	C	0.202598	-0.983631	0.658591
C42	C	0.299499	-0.926627	0.613191
N43	N	0.377633	-0.880659	0.479831
N44	N	0.291114	-0.931543	0.520373
H45	H	-0.206593	-1.000384	0.000112
C46	C	-0.098138	-0.790041	0.000077
H47	H	0.010884	-0.794745	0.000066
H48	H	-0.116611	-0.759145	0.050380
H49	H	-0.125690	-0.764502	-0.050241
H50	H	0.483499	-0.818408	0.621633
C51	C	0.053607	-0.168952	0.000130
H52	H	-0.025851	-0.215370	0.000141
H53	H	0.037926	-0.140776	-0.050177
H54	H	0.047001	-0.135438	0.050444
H55	H	0.536874	-0.786973	0.213833
H56	H	0.548172	-0.489900	0.000084
C57	C	0.615157	-0.643249	0.000065
H58	H	0.694608	-0.596826	0.000074
H59	H	0.621779	-0.676759	-0.050244
H60	H	0.630837	-0.671426	0.050377
H61	H	0.640447	-0.257081	0.000084
C62	C	0.655332	-0.093455	0.000113
H63	H	0.625938	-0.041998	0.000125
H64	H	0.711855	-0.102005	-0.050194
H65	H	0.720902	-0.096677	0.050426
H66	H	0.551733	-0.778250	0.378578
C67	C	0.140357	-1.020179	0.200862
H68	H	0.083807	-1.053429	0.240910
H69	H	0.198367	-1.051008	0.165428
H70	H	0.067539	-0.998038	0.165450
H71	H	0.052465	-0.702046	0.000091
C72	C	0.157580	-1.010084	0.391544
H73	H	0.093831	-1.047588	0.351497
H74	H	0.091153	-0.984206	0.426978
H75	H	0.222015	-1.037156	0.426955
H76	H	0.498379	-0.809687	0.786366
C77	C	0.087065	-1.051645	0.608648
H78	H	0.096097	-1.046359	0.548065
H79	H	-0.018538	-1.048826	0.623514
H80	H	0.112412	-1.101724	0.623543
C81	C	0.104182	-1.041516	0.799339
H82	H	0.124102	-1.029798	0.859922
H83	H	0.126743	-1.093193	0.784449
H84	H	-0.004081	-1.040221	0.784464
C85	C	0.081561	-0.339014	0.000113
H86	H	0.110952	-0.390472	0.000117
H87	H	0.015987	-0.335792	-0.050193
H88	H	0.025045	-0.330461	0.050427
C89	C	-0.014517	-0.548692	0.000103
H90	H	-0.002885	-0.492088	0.000097
H91	H	-0.066674	-0.566683	0.050409
H92	H	-0.075728	-0.572019	-0.050211
