data_functionalizedCrystal
_audit_creation_method	'MofGen! by Chris Wilmer'
_symmetry_space_group_name_H-M	'P1'
_symmetry_Int_Tables_number	1
_symmetry_cell_setting	triclinic
loop_
_symmetry_equiv_pos_as_xyz
  x,y,z
_cell_length_a	21.395364
_cell_length_b	12.759400
_cell_length_c	12.759386
_cell_angle_alpha	89.936073
_cell_angle_beta	89.956902
_cell_angle_gamma	90.028117
loop_
_atom_site_label
_atom_site_type_symbol
_atom_site_fract_x
_atom_site_fract_y
_atom_site_fract_z
Zn1	Zn	0.958050	-0.417438	-0.594080
Zn2	Zn	0.957951	-0.593259	-0.418403
Zn3	Zn	0.853231	-0.417641	-0.418409
Zn4	Zn	0.853267	-0.593121	-0.594035
O5	O	0.905625	-0.505365	-0.506232
O6	O	1.045715	-0.440734	-0.570792
O7	O	0.944003	-0.570106	-0.271383
O8	O	0.867163	-0.270593	-0.441734
O9	O	1.045642	-0.569909	-0.441723
O10	O	0.944173	-0.270444	-0.570798
O11	O	0.867066	-0.441080	-0.271387
O12	O	0.765558	-0.440946	-0.441690
O13	O	0.867223	-0.569674	-0.741062
O14	O	0.765584	-0.569871	-0.570722
O15	O	0.944207	-0.440600	-0.741095
O16	O	0.944038	-0.740262	-0.441680
O17	O	0.867126	-0.740161	-0.570716
C18	C	0.742837	-0.505416	-0.506202
C19	C	0.673196	-0.505463	-0.506215
C20	C	0.640543	-0.438311	-0.573525
C21	C	0.575108	-0.438284	-0.573529
C22	C	0.542328	-0.505426	-0.506234
C23	C	0.574988	-0.572582	-0.438911
C24	C	0.640422	-0.572601	-0.438901
C25	C	0.438619	-0.600048	-0.497796
C26	C	0.373186	-0.600031	-0.497813
C27	C	0.340507	-0.505368	-0.506257
C28	C	0.373269	-0.410719	-0.514706
C29	C	0.438703	-0.410737	-0.514697
C30	C	0.471375	-0.505413	-0.506236
C31	C	0.236902	-0.438181	-0.573575
C32	C	0.171465	-0.438151	-0.573572
C33	C	0.171347	-0.572459	-0.438959
C34	C	0.236782	-0.572479	-0.438957
C35	C	0.269556	-0.505342	-0.506271
C36	C	0.905592	-0.778332	-0.506215
C37	C	0.905635	-0.895109	-0.506243
C38	C	0.945714	-0.949813	-0.573502
C39	C	0.945743	-1.059537	-0.573528
C40	C	0.865613	-1.059843	-0.439027
C41	C	0.865581	-0.950121	-0.439007
C42	C	0.991979	-0.949638	-0.651152
C43	C	0.992008	-1.059362	-0.651178
C44	C	1.069048	-0.505314	-0.506262
C45	C	1.138689	-0.505293	-0.506275
C46	C	0.905730	-0.505099	-0.780266
C47	C	0.905775	-0.504985	-0.897043
C48	C	0.905675	-0.231332	-0.506272
C49	C	0.905696	-0.114555	-0.506288
C50	C	0.905556	-0.505554	-0.233264
C51	C	0.905633	-0.505372	-0.116488
C52	C	0.865949	-0.572767	0.048417
C53	C	0.865879	-0.572963	-0.061307
C54	C	0.945463	-0.437587	-0.061940
C55	C	0.945535	-0.437397	0.047782
C56	C	0.819999	-0.650921	0.048781
C57	C	0.819930	-0.651118	-0.060942
H58	H	0.346663	-0.333635	-0.521583
H59	H	0.837608	-0.728257	-0.094807
H60	H	0.978969	-0.919778	-0.732498
H61	H	0.548294	-0.627249	-0.384118
H62	H	0.667008	-0.627286	-0.384088
H63	H	0.771296	-0.629977	-0.090631
Cl64	Cl	0.815260	-1.129008	-0.354508
Cl65	Cl	0.681741	-0.353907	-0.658145
Cl66	Cl	0.995613	-0.352197	0.116344
Cl67	Cl	0.479887	-0.291756	-0.525312
H68	H	0.263587	-0.383506	-0.628379
Cl69	Cl	0.995446	-0.352625	-0.131311
H70	H	0.832940	-0.905581	-0.384249
Cl71	Cl	0.748685	-0.606716	0.101430
Cl72	Cl	0.840613	-0.776213	0.095054
Cl73	Cl	0.130415	-0.353719	-0.658194
H74	H	0.974618	-1.093320	-0.728448
Cl75	Cl	0.130143	-0.656860	-0.354351
H76	H	1.038066	-0.915568	-0.622068
Cl77	Cl	0.332006	-0.719019	-0.487209
H78	H	0.548517	-0.383595	-0.628339
Cl79	Cl	0.277834	-0.656899	-0.354329
H80	H	0.465221	-0.677140	-0.490919
Cl81	Cl	1.066941	-1.105268	-0.617647
