data_functionalizedCrystal
_audit_creation_method	'MofGen! by Chris Wilmer'
_symmetry_space_group_name_H-M	'P1'
_symmetry_Int_Tables_number	1
_symmetry_cell_setting	triclinic
loop_
_symmetry_equiv_pos_as_xyz
  x,y,z
_cell_length_a	15.995292
_cell_length_b	10.967829
_cell_length_c	9.482900
_cell_angle_alpha	87.494390
_cell_angle_beta	80.711440
_cell_angle_gamma	84.103068
loop_
_atom_site_label
_atom_site_type_symbol
_atom_site_fract_x
_atom_site_fract_y
_atom_site_fract_z
O1	O	1.128513	0.135465	-0.154869
O2	O	0.885359	0.154627	-0.159664
O3	O	1.007874	-0.029536	-0.113524
O4	O	1.005999	0.319627	-0.201010
O5	O	0.982993	0.008022	0.118859
O6	O	0.860479	0.192185	0.072719
O7	O	1.103633	0.173022	0.077513
Cu8	Cu	0.979784	0.186033	0.096334
Cu9	Cu	1.009208	0.141617	-0.178485
O10	O	0.981118	0.357185	0.031373
C11	C	0.841698	0.172627	-0.043277
C12	C	0.748668	0.170289	-0.042689
C13	C	0.993417	-0.055437	0.013860
C14	C	0.987399	-0.188571	0.047208
C15	C	0.997606	-0.267376	-0.058306
C16	C	0.991386	-0.404977	-0.023841
C17	C	0.410649	0.161691	-0.040551
C18	C	0.438377	0.294530	-0.074375
C19	C	0.535079	0.297142	-0.074478
C20	C	0.578344	0.165957	-0.041612
C21	C	0.532855	0.120948	0.107736
C22	C	0.436001	0.119365	0.108242
C23	C	0.464350	0.073940	-0.155340
C24	C	0.561191	0.078584	-0.158323
C25	C	0.673118	0.168362	-0.042206
C26	C	0.315874	0.159283	-0.039947
C27	C	1.147295	0.155023	-0.038877
C28	C	1.240325	0.157359	-0.039474
C29	C	0.995575	0.383086	-0.096013
C30	C	1.001594	0.516218	-0.129371
N31	N	0.959095	0.217272	0.289628
N32	N	1.029904	0.110368	-0.371776
C33	C	1.003100	0.150825	0.378475
C34	C	0.985892	0.176825	0.539378
H35	H	1.010944	-0.232973	-0.174157
H36	H	0.978038	-0.439372	0.092016
H37	H	0.561029	0.025211	0.136855
C38	C	0.890984	0.320129	0.347788
N39	N	0.839681	0.397603	0.391592
H40	H	1.014927	-0.449386	-0.245230
C41	C	0.969372	-0.235039	0.203721
N42	N	0.955794	-0.270037	0.321610
C43	C	0.548482	0.388666	0.036544
N44	N	0.558576	0.457602	0.120175
C45	C	1.071193	0.047943	0.320321
N46	N	1.122477	-0.029555	0.276523
C47	C	0.576859	0.346605	-0.220634
N48	N	0.608327	0.383837	-0.330735
H49	H	0.422250	0.330385	-0.182376
H50	H	0.400898	0.360775	0.007488
H51	H	0.417608	0.022879	0.138687
H52	H	0.935472	0.252964	0.582427
C53	C	0.387462	0.203221	0.226653
N54	N	0.350906	0.266392	0.315835
C55	C	0.442579	0.108244	-0.305318
N56	N	0.426181	0.134098	-0.418278
C57	C	1.098019	0.007506	0.570074
N58	N	1.149325	-0.069964	0.526273
H59	H	0.543854	0.183058	0.194929
C60	C	0.602629	0.122508	-0.307324
N61	N	0.633847	0.155592	-0.419550
C62	C	0.602639	-0.052530	-0.136733
N63	N	0.633853	-0.151289	-0.120457
C64	C	0.441239	-0.058433	-0.123442
N65	N	0.423824	-0.158131	-0.099408
