data_functionalizedCrystal
_audit_creation_method	'MofGen! by Chris Wilmer'
_symmetry_space_group_name_H-M	'P1'
_symmetry_Int_Tables_number	1
_symmetry_cell_setting	triclinic
loop_
_symmetry_equiv_pos_as_xyz
  x,y,z
_cell_length_a	27.732048
_cell_length_b	27.732048
_cell_length_c	26.210047
_cell_angle_alpha	90.000479
_cell_angle_beta	90.003465
_cell_angle_gamma	82.642655
loop_
_atom_site_label
_atom_site_type_symbol
_atom_site_fract_x
_atom_site_fract_y
_atom_site_fract_z
O1	O	0.640931	0.057510	0.042369
O2	O	1.140931	0.557510	0.542369
O3	O	0.500138	0.066256	0.042385
O4	O	1.000138	0.566256	0.542385
O5	O	0.574907	-0.008514	0.042367
O6	O	1.074907	0.491486	0.542367
O7	O	0.566162	0.132279	0.042387
O8	O	1.066162	0.632279	0.542387
O9	O	0.574893	-0.008502	-0.042491
O10	O	1.074893	0.491498	0.457509
O11	O	0.500123	0.066267	-0.042473
O12	O	1.000123	0.566267	0.457527
O13	O	0.640917	0.057522	-0.042489
O14	O	1.140917	0.557522	0.457511
Cu15	Cu	0.570519	0.061896	-0.050229
Cu16	Cu	1.070519	0.561896	0.449771
Cu17	Cu	0.570536	0.061882	0.050125
Cu18	Cu	1.070536	0.561882	0.550125
O19	O	0.566147	0.132291	-0.042471
O20	O	1.066147	0.632291	0.457529
C21	C	0.482124	0.066078	-0.000042
C22	C	0.982124	0.566078	0.499958
C23	C	0.428469	0.065525	-0.000036
C24	C	0.928469	0.565525	0.499964
C25	C	0.089654	0.106229	-0.000053
C26	C	0.589654	0.606229	0.499947
C27	C	-0.112006	0.104178	-0.000057
C28	C	0.387994	0.604178	0.499943
O29	O	-0.143262	0.141398	-0.000074
O30	O	0.356738	0.641398	0.499926
N31	N	-0.131130	0.059843	-0.000063
N32	N	0.368870	0.559843	0.499937
C33	C	-0.099835	0.016017	-0.000071
C34	C	0.400165	0.516017	0.499929
O35	O	-0.120728	-0.021740	-0.000081
O36	O	0.379272	0.478260	0.499919
C37	C	0.101824	0.018068	-0.000069
C38	C	0.601824	0.518068	0.499931
C39	C	0.120944	0.062407	-0.000059
C40	C	0.620944	0.562407	0.499941
C41	C	0.108775	0.150563	-0.000043
C42	C	0.608775	0.650563	0.499957
C43	C	0.159187	0.151076	-0.000039
C44	C	0.659187	0.651076	0.499961
C45	C	0.190477	0.107253	-0.000045
C46	C	0.690477	0.607253	0.499955
C47	C	0.171356	0.062919	-0.000055
C48	C	0.671356	0.562919	0.499945
C49	C	0.133117	-0.025757	-0.000081
C50	C	0.633117	0.474243	0.499919
C51	C	0.183535	-0.025240	-0.000082
C52	C	0.683535	0.474760	0.499918
C53	C	0.202655	0.019098	-0.000071
C54	C	0.702655	0.519098	0.499929
C55	C	0.253059	0.019609	-0.000057
C56	C	0.753059	0.519609	0.499943
N57	N	0.272183	0.063944	-0.000051
N58	N	0.772183	0.563944	0.499949
C59	C	0.240892	0.107766	-0.000045
C60	C	0.740892	0.607766	0.499955
C61	C	-0.205709	0.014943	-0.000070
C62	C	0.294291	0.514943	0.499930
C63	C	-0.256124	0.014430	-0.000070
C64	C	0.243876	0.514430	0.499930
C65	C	-0.268291	0.102591	-0.000057
C66	C	0.231709	0.602591	0.499943
C67	C	-0.217876	0.103104	-0.000054
C68	C	0.282124	0.603104	0.499946
C69	C	-0.186585	0.059278	-0.000065
C70	C	0.313415	0.559278	0.499935
C71	C	0.346761	0.108839	-0.000036
C72	C	0.846761	0.608839	0.499964
C73	C	0.397178	0.109347	-0.000030
C74	C	0.897178	0.609347	0.499970
C75	C	0.409341	0.021186	-0.000045
C76	C	0.909341	0.521186	0.499955
C77	C	0.358929	0.020678	-0.000049
C78	C	0.858929	0.520678	0.499951
C79	C	0.327639	0.064508	-0.000046
C80	C	0.827639	0.564508	0.499954
O81	O	0.284343	-0.017592	-0.000046
O82	O	0.784343	0.482408	0.499954
O83	O	0.261794	0.145518	-0.000047
O84	O	0.761794	0.645518	0.499953
C85	C	0.039242	0.105716	-0.000057
C86	C	0.539242	0.605716	0.499943
C87	C	0.020120	0.061382	-0.000067
C88	C	0.520120	0.561382	0.499933
C89	C	0.051411	0.017560	-0.000073
C90	C	0.551411	0.517560	0.499927
C91	C	-0.030294	0.060869	-0.000066
C92	C	0.469706	0.560869	0.499934
C93	C	-0.061585	0.104691	-0.000060
C94	C	0.438415	0.604691	0.499940
C95	C	-0.042461	0.149026	-0.000054
C96	C	0.457539	0.649026	0.499946
C97	C	0.007951	0.149539	-0.000050
C98	C	0.507951	0.649539	0.499950
C99	C	0.032287	-0.026775	-0.000078
C100	C	0.532287	0.473225	0.499922
C101	C	-0.018125	-0.027284	-0.000082
C102	C	0.481875	0.472716	0.499918
C103	C	-0.049416	0.016538	-0.000076
C104	C	0.450584	0.516538	0.499924
C105	C	0.574716	-0.026515	-0.000064
C106	C	1.074716	0.473485	0.499936
C107	C	0.574164	-0.080170	-0.000068
C108	C	1.074164	0.419830	0.499932
C109	C	0.614867	-0.418985	-0.000046
C110	C	1.114867	0.081015	0.499954
C111	C	0.612816	-0.620645	-0.000039
C112	C	1.112816	-0.120645	0.499961
O113	O	0.650037	-0.651900	-0.000021
O114	O	1.150037	-0.151900	0.499979
N115	N	0.568481	-0.639768	-0.000034
N116	N	1.068481	-0.139768	0.499966
C117	C	0.524656	-0.608474	-0.000028
C118	C	1.024656	-0.108474	0.499972
O119	O	0.486899	-0.629367	-0.000019
O120	O	0.986899	-0.129367	0.499981
C121	C	0.526707	-0.406815	-0.000032
C122	C	1.026707	0.093185	0.499968
C123	C	0.571045	-0.387694	-0.000042
C124	C	1.071045	0.112306	0.499958
C125	C	0.659202	-0.399864	-0.000056
C126	C	1.159202	0.100136	0.499944
C127	C	0.659714	-0.349452	-0.000060
C128	C	1.159714	0.150548	0.499940
C129	C	0.615892	-0.318161	-0.000056
C130	C	1.115892	0.181839	0.499944
C131	C	0.571557	-0.337282	-0.000046
C132	C	1.071557	0.162718	0.499954
C133	C	0.482882	-0.375521	-0.000022
C134	C	0.982882	0.124479	0.499978
C135	C	0.483399	-0.325104	-0.000022
C136	C	0.983399	0.174896	0.499978
C137	C	0.527737	-0.305983	-0.000032
C138	C	1.027737	0.194017	0.499968
C139	C	0.528247	-0.255580	-0.000046
C140	C	1.028247	0.244420	0.499954
N141	N	0.572583	-0.236456	-0.000051
N142	N	1.072583	0.263544	0.499949
C143	C	0.616405	-0.267747	-0.000056
C144	C	1.116405	0.232253	0.499944
C145	C	0.523582	-0.714348	-0.000027
C146	C	1.023582	-0.214348	0.499973
C147	C	0.523069	-0.764762	-0.000027
C148	C	1.023069	-0.264762	0.499973
C149	C	0.611230	-0.776930	-0.000037
C150	C	1.111230	-0.276930	0.499963
C151	C	0.611742	-0.726514	-0.000041
C152	C	1.111742	-0.226514	0.499959
C153	C	0.567917	-0.695224	-0.000032
C154	C	1.067917	-0.195224	0.499968
C155	C	0.617477	-0.161878	-0.000066
C156	C	1.117477	0.338122	0.499934
C157	C	0.617986	-0.111461	-0.000073
C158	C	1.117986	0.388539	0.499927
C159	C	0.529825	-0.099298	-0.000060
C160	C	1.029825	0.400702	0.499940
C161	C	0.529316	-0.149710	-0.000056
C162	C	1.029316	0.350290	0.499944
C163	C	0.573147	-0.180999	-0.000057
C164	C	1.073147	0.319001	0.499943
O165	O	0.491047	-0.224296	-0.000059
O166	O	0.991047	0.275704	0.499941
O167	O	0.654156	-0.246844	-0.000054
O168	O	1.154156	0.253156	0.499946
C169	C	0.614355	-0.469397	-0.000042
C170	C	1.114355	0.030603	0.499958
C171	C	0.570021	-0.488518	-0.000033
C172	C	1.070021	0.011482	0.499967
C173	C	0.526198	-0.457228	-0.000028
C174	C	1.026198	0.042772	0.499972
C175	C	0.569508	-0.538933	-0.000033
C176	C	1.069508	-0.038933	0.499967
C177	C	0.613330	-0.570223	-0.000037
C178	C	1.113330	-0.070223	0.499963
C179	C	0.657665	-0.551100	-0.000042
C180	C	1.157665	-0.051100	0.499958
C181	C	0.658177	-0.500688	-0.000046
C182	C	1.158177	-0.000688	0.499954
C183	C	0.481863	-0.476351	-0.000023
C184	C	0.981863	0.023649	0.499977
C185	C	0.481355	-0.526764	-0.000019
C186	C	0.981355	-0.026764	0.499981
C187	C	0.525177	-0.558054	-0.000024
C188	C	1.025177	-0.058054	0.499976
C189	C	0.658931	0.057699	-0.000061
C190	C	1.158931	0.557699	0.499939
C191	C	0.712586	0.058252	-0.000064
C192	C	1.212586	0.558252	0.499936
C193	C	0.566338	0.150292	-0.000040
C194	C	1.066338	0.650292	0.499960
C195	C	0.566891	0.203947	-0.000032
C196	C	1.066891	0.703947	0.499968
N197	N	0.570510	0.061905	-0.120813
N198	N	1.070510	0.561905	0.379187
C199	C	0.603640	0.028781	-0.473336
C200	C	1.103640	0.528781	0.026664
C201	C	0.603651	0.028774	-0.686994
C202	C	1.103651	0.528774	-0.186994
O203	O	0.631801	0.000614	-0.714623
O204	O	1.131801	0.500614	-0.214623
N205	N	0.570538	0.061871	-0.713707
N206	N	1.070538	0.561871	-0.213707
C207	C	0.537419	0.094970	-0.687003
C208	C	1.037419	0.594970	-0.187003
O209	O	0.509251	0.123117	-0.714626
O210	O	1.009251	0.623117	-0.214626
C211	C	0.537406	0.094974	-0.473345
C212	C	1.037406	0.594974	0.026655
C213	C	0.570524	0.061878	-0.446635
C214	C	1.070524	0.561878	0.053365
C215	C	0.636755	-0.004312	-0.446625
C216	C	1.136755	0.495688	0.053375
C217	C	0.636754	-0.004308	-0.393214
C218	C	1.136754	0.495692	0.106786
C219	C	0.603638	0.028789	-0.366513
C220	C	1.103638	0.528789	0.133487
C221	C	0.570523	0.061882	-0.393223
C222	C	1.070523	0.561882	0.106777
C223	C	0.504284	0.128070	-0.446641
C224	C	1.004284	0.628070	0.053359
C225	C	0.504283	0.128067	-0.393223
C226	C	1.004283	0.628067	0.106777
C227	C	0.537401	0.094971	-0.366513
C228	C	1.037401	0.594971	0.133487
C229	C	0.537405	0.094983	-0.313111
C230	C	1.037405	0.594983	0.186889
N231	N	0.570518	0.061886	-0.286397
N232	N	1.070518	0.561886	0.213603
C233	C	0.603634	0.028789	-0.313098
C234	C	1.103634	0.528789	0.186902
C235	C	0.537428	0.094966	-0.799176
C236	C	1.037428	0.594966	-0.299176
C237	C	0.537432	0.094965	-0.852590
C238	C	1.037432	0.594965	-0.352590
C239	C	0.603664	0.028769	-0.852578
C240	C	1.103664	0.528769	-0.352578
C241	C	0.603662	0.028773	-0.799163
C242	C	1.103662	0.528773	-0.299163
C243	C	0.570541	0.061869	-0.772463
C244	C	1.070541	0.561869	-0.272463
C245	C	0.603629	0.028800	-0.200931
C246	C	1.103629	0.528800	0.299069
C247	C	0.603626	0.028808	-0.147514
C248	C	1.103626	0.528808	0.352486
C249	C	0.537393	0.095002	-0.147531
C250	C	1.037393	0.595002	0.352469
C251	C	0.537397	0.094996	-0.200943
C252	C	1.037397	0.594996	0.299057
C253	C	0.570517	0.061891	-0.227641
C254	C	1.070517	0.561891	0.272359
O255	O	0.509267	0.123125	-0.285449
O256	O	1.009267	0.623125	0.214551
O257	O	0.631790	0.000639	-0.285466
O258	O	1.131790	0.500639	0.214534
C259	C	0.603641	0.028777	-0.526747
C260	C	1.103641	0.528777	-0.026747
C261	C	0.570527	0.061871	-0.553457
C262	C	1.070527	0.561871	-0.053457
C263	C	0.537410	0.094968	-0.526756
C264	C	1.037410	0.594968	-0.026756
C265	C	0.570530	0.061870	-0.606872
C266	C	1.070530	0.561870	-0.106872
C267	C	0.603646	0.028773	-0.633573
C268	C	1.103646	0.528773	-0.133573
C269	C	0.636759	-0.004323	-0.606859
C270	C	1.136759	0.495677	-0.106859
C271	C	0.636758	-0.004320	-0.553448
C272	C	1.136758	0.495680	-0.053448
C273	C	0.504298	0.128064	-0.553470
C274	C	1.004298	0.628064	-0.053470
C275	C	0.504302	0.128058	-0.606881
C276	C	1.004302	0.628058	-0.106881
C277	C	0.537418	0.094961	-0.633582
C278	C	1.037418	0.594961	-0.133582
N279	N	0.570548	0.061868	0.120709
N280	N	1.070548	0.561868	0.620709
H281	H	0.174750	0.187180	-0.000030
H282	H	0.674750	0.687180	0.499970
N283	N	0.663278	-0.091930	-0.000071
N284	N	1.163278	0.408070	0.499929
N285	N	0.673407	-0.065156	0.035697
N286	N	1.173407	0.434844	0.535697
H287	H	0.705394	-0.051364	0.035700
H288	H	1.205394	0.448636	0.535700
N289	N	0.503573	0.128814	-0.120251
N290	N	1.003573	0.628814	0.379749
N291	N	0.518682	0.158714	-0.090443
N292	N	1.018682	0.658714	0.409557
H293	H	0.494795	0.182592	-0.071174
H294	H	0.994795	0.682592	0.428826
H295	H	0.630629	0.001823	-0.777418
H296	H	1.130629	0.501823	-0.277418
H297	H	0.630629	0.001821	-0.874327
H298	H	1.130629	0.501821	-0.374327
H299	H	0.117558	-0.061861	-0.000090
H300	H	0.617558	0.438139	0.499910
N301	N	0.503576	0.128804	-0.228235
N302	N	1.003576	0.628804	0.271765
N303	N	0.518682	0.158703	-0.258045
N304	N	1.018682	0.658703	0.241955
H305	H	0.494793	0.182578	-0.277317
H306	H	0.994793	0.682578	0.222683
H307	H	0.693347	-0.576585	-0.000048
H308	H	1.193347	-0.076585	0.499952
N309	N	0.064239	-0.071546	-0.000087
N310	N	0.564239	0.428454	0.499913
N311	N	0.047152	-0.111124	-0.000093
N312	N	0.547152	0.388876	0.499907
H313	H	0.069716	-0.142747	-0.000096
H314	H	0.569716	0.357253	0.499904
N315	N	0.441310	-0.023574	-0.000066
N316	N	0.941310	0.476426	0.499934
N317	N	0.439755	-0.053134	-0.035847
N318	N	0.939755	0.446866	0.464153
H319	H	0.462335	-0.084747	-0.035867
H320	H	0.962335	0.415253	0.464133
H321	H	0.663725	-0.031269	-0.531704
H322	H	1.163725	0.468731	-0.031704
N323	N	-0.037661	-0.072574	-0.000100
N324	N	0.462339	0.427426	0.499900
N325	N	-0.082673	-0.073032	-0.000110
N326	N	0.417327	0.426968	0.499890
H327	H	-0.096470	-0.105016	-0.000128
H328	H	0.403530	0.394984	0.499872
H329	H	0.494146	-0.073812	-0.000058
H330	H	0.994146	0.426188	0.499942
H331	H	0.209009	-0.060929	-0.000091
H332	H	0.709009	0.439071	0.499909
N333	N	0.416708	0.154640	-0.000033
N334	N	0.916708	0.654640	0.499967
N335	N	0.443478	0.164767	-0.035802
N336	N	0.943478	0.664767	0.464198
H337	H	0.457270	0.196754	-0.035806
H338	H	0.957270	0.696754	0.464194
N339	N	0.637456	-0.005008	-0.120239
N340	N	1.137456	0.494992	0.379761
N341	N	0.667016	-0.034561	-0.144090
N342	N	1.167016	0.465439	0.355910
H343	H	0.690905	-0.058446	-0.124829
H344	H	1.190905	0.441554	0.375171
N345	N	0.484026	-0.169242	-0.000040
N346	N	0.984026	0.330758	0.499960
N347	N	0.473908	-0.196008	0.035737
N348	N	0.973908	0.303992	0.535737
H349	H	0.441920	-0.209798	0.035753
H350	H	0.941920	0.290202	0.535753
H351	H	0.446777	-0.391080	-0.000011
H352	H	0.946777	0.108920	0.499989
H353	H	-0.293777	0.138273	-0.000053
H354	H	0.206223	0.638273	0.499947
N355	N	-0.198355	0.148398	-0.000043
N356	N	0.301645	0.648398	0.499957
N357	N	-0.226304	0.187519	-0.000035
N358	N	0.273696	0.687519	0.499965
H359	H	-0.212520	0.219510	-0.000028
H360	H	0.287480	0.719510	0.499972
H361	H	0.510469	0.121920	-0.874334
H362	H	1.010469	0.621920	-0.374334
H363	H	0.663725	-0.031271	-0.628608
H364	H	1.163725	0.468729	-0.128608
H365	H	0.647846	-0.710950	-0.000048
H366	H	1.147846	-0.210950	0.499952
H367	H	0.477334	0.155013	-0.628625
H368	H	0.977334	0.655013	-0.128625
N369	N	0.436056	-0.546283	-0.000015
N370	N	0.936056	-0.046283	0.499985
N371	N	0.396935	-0.518334	-0.000011
N372	N	0.896935	-0.018334	0.499989
H373	H	0.364944	-0.532118	-0.000005
H374	H	0.864944	-0.032118	0.499995
H375	H	0.477330	0.155015	-0.531734
H376	H	0.977330	0.655015	-0.031734
H377	H	0.695819	-0.333889	-0.000066
H378	H	1.195819	0.166111	0.499934
N379	N	0.314812	0.153614	-0.000036
N380	N	0.814812	0.653614	0.499964
N381	N	0.331899	0.193192	-0.000028
N382	N	0.831899	0.693192	0.499972
H383	H	0.309336	0.224815	-0.000026
H384	H	0.809336	0.724815	0.499974
N385	N	0.438626	-0.293149	-0.000007
N386	N	0.938626	0.206851	0.499993
N387	N	0.399046	-0.310233	0.000005
N388	N	0.899046	0.189767	0.500005
H389	H	0.367425	-0.287666	0.000016
H390	H	0.867425	0.212334	0.500016
H391	H	0.343360	-0.015426	-0.000050
H392	H	0.843360	0.484574	0.499950
N393	N	0.477774	-0.784282	-0.000029
N394	N	0.977774	-0.284282	0.499971
N395	N	0.438653	-0.756333	-0.000026
N396	N	0.938653	-0.256333	0.499974
H397	H	0.406661	-0.770117	-0.000025
H398	H	0.906661	-0.270117	0.499975
N399	N	0.662252	-0.193827	-0.000065
N400	N	1.162252	0.306173	0.499935
N401	N	0.701830	-0.176739	-0.000074
N402	N	1.201830	0.323261	0.499926
H403	H	0.733453	-0.199303	-0.000076
H404	H	1.233453	0.300697	0.499924
H405	H	0.694282	-0.485125	-0.000054
H406	H	1.194282	0.014875	0.499946
N407	N	0.437093	-0.444400	-0.000017
N408	N	0.937093	0.055600	0.499983
N409	N	0.397514	-0.461486	-0.000012
N410	N	0.897514	0.038514	0.499988
H411	H	0.365892	-0.438922	-0.000010
H412	H	0.865892	0.061078	0.499990
H413	H	0.694889	-0.425336	-0.000058
H414	H	1.194889	0.074664	0.499942
N415	N	0.637461	-0.005020	-0.228189
N416	N	1.137461	0.494980	0.271811
N417	N	0.667023	-0.034563	-0.204326
N418	N	1.167023	0.465437	0.295674
H419	H	0.690919	-0.058448	-0.223577
H420	H	1.190919	0.441552	0.276423
N421	N	0.076824	0.195335	-0.000040
N422	N	0.576824	0.695335	0.499960
N423	N	0.093913	0.234912	-0.000032
N424	N	0.593913	0.734912	0.499968
H425	H	0.071350	0.266536	-0.000027
H426	H	0.571350	0.766536	0.499973
N427	N	0.027470	0.194834	-0.000038
N428	N	0.527470	0.694834	0.499962
N429	N	-0.000481	0.233954	-0.000032
N430	N	0.499519	0.733954	0.499968
H431	H	0.013301	0.265946	-0.000023
H432	H	0.513301	0.765946	0.499977
N433	N	-0.173744	-0.029823	-0.000082
N434	N	0.326256	0.470177	0.499918
N435	N	-0.144258	-0.039373	-0.035853
N436	N	0.355742	0.460627	0.464147
H437	H	-0.121684	-0.070989	-0.035860
H438	H	0.378316	0.429011	0.464140
N439	N	-0.275643	-0.030865	-0.000080
N440	N	0.224357	0.469135	0.499920
N441	N	-0.265934	-0.060315	-0.035856
N442	N	0.234066	0.439685	0.464144
H443	H	-0.279717	-0.092307	-0.035867
H444	H	0.220283	0.407693	0.464133
N445	N	-0.074436	0.193786	-0.000045
N446	N	0.425564	0.693786	0.499955
N447	N	-0.119446	0.193315	-0.000049
N448	N	0.380554	0.693315	0.499951
H449	H	-0.142031	0.224924	-0.000045
H450	H	0.357969	0.724924	0.499955
N451	N	0.478812	-0.682389	-0.000033
N452	N	0.978812	-0.182389	0.499967
N453	N	0.469255	-0.652902	-0.035805
N454	N	0.969255	-0.152902	0.464195
H455	H	0.437636	-0.630332	-0.035812
H456	H	0.937636	-0.130332	0.464188
N457	N	0.670621	-0.038084	-0.365942
N458	N	1.170621	0.461916	0.134058
N459	N	0.700207	-0.067607	-0.389797
N460	N	1.200207	0.432393	0.110203
H461	H	0.724140	-0.091451	-0.370540
H462	H	1.224140	0.408549	0.129460
H463	H	0.646911	-0.802415	-0.000041
H464	H	1.146911	-0.302415	0.499959
H465	H	0.663722	-0.031266	-0.468360
H466	H	1.163722	0.468734	0.031640
N467	N	0.503589	0.128778	-0.771914
N468	N	1.003589	0.628778	-0.271914
N469	N	0.474029	0.158323	-0.795778
N470	N	0.974029	0.658323	-0.295778
H471	H	0.450130	0.182204	-0.776527
H472	H	0.950130	0.682204	-0.276527
H473	H	0.477317	0.155019	-0.468381
H474	H	0.977317	0.655019	0.031619
H475	H	0.477311	0.155018	-0.371487
H476	H	0.977311	0.655018	0.128513
