data_functionalizedCrystal
_audit_creation_method	'MofGen! by Chris Wilmer'
_symmetry_space_group_name_H-M	'P1'
_symmetry_Int_Tables_number	1
_symmetry_cell_setting	triclinic
loop_
_symmetry_equiv_pos_as_xyz
  x,y,z
_cell_length_a	19.077105
_cell_length_b	19.077068
_cell_length_c	19.076929
_cell_angle_alpha	85.532199
_cell_angle_beta	90.078300
_cell_angle_gamma	89.884684
loop_
_atom_site_label
_atom_site_type_symbol
_atom_site_fract_x
_atom_site_fract_y
_atom_site_fract_z
Zn1	Zn	1.044032	0.340427	-0.453497
Zn2	Zn	1.294032	0.590427	-0.203497
Zn3	Zn	1.544032	0.840427	0.046503
Zn4	Zn	1.794032	1.090427	0.296503
Zn5	Zn	1.043949	0.453583	-0.340339
Zn6	Zn	1.293949	0.703583	-0.090339
Zn7	Zn	1.543949	0.953583	0.159661
Zn8	Zn	1.793949	1.203583	0.409661
Zn9	Zn	0.931648	0.331006	-0.330929
Zn10	Zn	1.181648	0.581006	-0.080929
Zn11	Zn	1.431648	0.831006	0.169071
Zn12	Zn	1.681648	1.081006	0.419071
Zn13	Zn	0.921785	0.453152	-0.453075
Zn14	Zn	1.171785	0.703152	-0.203075
Zn15	Zn	1.421785	0.953152	0.046925
Zn16	Zn	1.671785	1.203152	0.296925
O17	O	0.985354	0.394542	-0.394460
O18	O	1.235354	0.644542	-0.144460
O19	O	1.485354	0.894542	0.105540
O20	O	1.735354	1.144542	0.355540
O21	O	1.142180	0.359560	-0.442602
O22	O	1.392180	0.609560	-0.192602
O23	O	1.642180	0.859560	0.057398
O24	O	1.892180	1.109560	0.307398
O25	O	1.033146	0.433560	-0.240615
O26	O	1.283146	0.683560	0.009385
O27	O	1.533146	0.933560	0.259385
O28	O	1.783146	1.183560	0.509385
O29	O	0.950719	0.233781	-0.343427
O30	O	1.200719	0.483781	-0.093427
O31	O	1.450719	0.733781	0.156573
O32	O	1.700719	0.983781	0.406573
O33	O	1.142120	0.442695	-0.359465
O34	O	1.392120	0.692695	-0.109465
O35	O	1.642120	0.942695	0.140535
O36	O	1.892120	1.192695	0.390535
O37	O	1.033287	0.240703	-0.433477
O38	O	1.283287	0.490703	-0.183477
O39	O	1.533287	0.740703	0.066523
O40	O	1.783287	0.990703	0.316523
O41	O	0.950638	0.343504	-0.233702
O42	O	1.200638	0.593504	0.016298
O43	O	1.450638	0.843504	0.266298
O44	O	1.700638	1.093504	0.516298
O45	O	0.832180	0.343086	-0.343017
O46	O	1.082180	0.593086	-0.093017
O47	O	1.332180	0.843086	0.156983
O48	O	1.582180	1.093086	0.406983
O49	O	0.933908	0.441962	-0.551606
O50	O	1.183908	0.691962	-0.301606
O51	O	1.433908	0.941962	-0.051606
O52	O	1.683908	1.191962	0.198394
O53	O	0.824934	0.432827	-0.432757
O54	O	1.074934	0.682827	-0.182757
O55	O	1.324934	0.932827	0.067243
O56	O	1.574934	1.182827	0.317243
O57	O	1.023722	0.359143	-0.551917
O58	O	1.273722	0.609143	-0.301917
O59	O	1.523722	0.859143	-0.051917
O60	O	1.773722	1.109143	0.198083
O61	O	1.023581	0.552000	-0.359055
O62	O	1.273581	0.802000	-0.109055
O63	O	1.523581	1.052000	0.140945
O64	O	1.773581	1.302000	0.390945
O65	O	0.933828	0.551684	-0.441881
O66	O	1.183828	0.801684	-0.191881
O67	O	1.433828	1.051684	0.058119
O68	O	1.683828	1.301684	0.308119
C69	C	0.803105	0.386888	-0.386820
C70	C	1.053105	0.636888	-0.136820
C71	C	1.303105	0.886888	0.113180
C72	C	1.553105	1.136888	0.363180
C73	C	0.725137	0.383631	-0.383570
C74	C	0.975137	0.633631	-0.133570
C75	C	1.225137	0.883631	0.116430
C76	C	1.475137	1.133631	0.366430
C77	C	0.977644	0.577377	-0.401459
C78	C	1.227644	0.827377	-0.151459
C79	C	1.477644	1.077377	0.098541
C80	C	1.727644	1.327377	0.348541
C81	C	0.974409	0.655598	-0.404480
C82	C	1.224409	0.905598	-0.154480
C83	C	1.474409	1.155598	0.095520
C84	C	1.724409	1.405598	0.345520
C85	C	0.977724	0.401555	-0.578009
C86	C	1.227724	0.651555	-0.328009
C87	C	1.477724	0.901555	-0.078009
C88	C	1.727724	1.151555	0.171991
C89	C	0.974473	0.404544	-0.656227
C90	C	1.224473	0.654544	-0.406227
C91	C	1.474473	0.904544	-0.156227
C92	C	1.724473	1.154544	0.093773
C93	C	0.684753	0.428889	-0.428697
C94	C	0.934753	0.678889	-0.178697
C95	C	1.184753	0.928889	0.071303
C96	C	1.434753	1.178889	0.321303
C97	C	0.611494	0.425820	-0.425645
C98	C	0.861494	0.675820	-0.175645
C99	C	1.111494	0.925820	0.074355
C100	C	1.361494	1.175820	0.324355
C101	C	0.578621	0.377496	-0.377463
C102	C	0.828621	0.627496	-0.127463
C103	C	1.078621	0.877496	0.122537
C104	C	1.328621	1.127496	0.372537
C105	C	0.619010	0.332233	-0.332333
C106	C	0.869010	0.582233	-0.082333
C107	C	1.119010	0.832233	0.167667
C108	C	1.369010	1.082233	0.417667
C109	C	0.692268	0.335299	-0.335389
C110	C	0.942268	0.585299	-0.085389
C111	C	1.192268	0.835299	0.164611
C112	C	1.442268	1.085299	0.414611
C113	C	0.359927	0.363304	-0.363325
C114	C	0.609927	0.613304	-0.113325
C115	C	0.859927	0.863304	0.136675
C116	C	1.109927	1.113304	0.386675
C117	C	0.286664	0.360243	-0.360271
C118	C	0.536664	0.610243	-0.110271
C119	C	0.786664	0.860243	0.139729
C120	C	1.036664	1.110243	0.389729
C121	C	0.279153	0.453830	-0.453584
C122	C	0.529153	0.703830	-0.203584
C123	C	0.779153	0.953830	0.046416
C124	C	1.029153	1.203830	0.296416
C125	C	0.352413	0.456895	-0.456633
C126	C	0.602413	0.706895	-0.206633
C127	C	0.852413	0.956895	0.043367
C128	C	1.102413	1.206895	0.293367
C129	C	0.392795	0.411629	-0.411506
C130	C	0.642795	0.661629	-0.161506
C131	C	0.892795	0.911629	0.088494
C132	C	1.142795	1.161629	0.338494
N133	N	0.503738	0.374359	-0.374341
N134	N	0.753738	0.624359	-0.124341
N135	N	1.003738	0.874359	0.125659
N136	N	1.253738	1.124359	0.375659
N137	N	0.467676	0.414763	-0.414632
N138	N	0.717676	0.664763	-0.164632
N139	N	0.967676	0.914763	0.085368
N140	N	1.217676	1.164763	0.335368
C141	C	1.168313	0.402226	-0.402130
C142	C	1.418313	0.652226	-0.152130
C143	C	1.668313	0.902226	0.097870
C144	C	1.918313	1.152226	0.347870
C145	C	1.246280	0.405501	-0.405398
C146	C	1.496280	0.655501	-0.155398
C147	C	1.746280	0.905501	0.094602
C148	C	1.996280	1.155501	0.344602
C149	C	0.993112	0.210995	-0.387450
C150	C	1.243112	0.460995	-0.137450
C151	C	1.493112	0.710995	0.112550
C152	C	1.743112	0.960995	0.362550
C153	C	0.996418	0.132778	-0.384462
C154	C	1.246418	0.382778	-0.134462
C155	C	1.496418	0.632778	0.115538
C156	C	1.746418	0.882778	0.365538
C157	C	1.019652	0.692490	-0.362814
C158	C	1.269652	0.942490	-0.112814
C159	C	1.519652	1.192490	0.137186
C160	C	1.769652	1.442490	0.387186
C161	C	1.016613	0.765988	-0.365660
C162	C	1.266613	1.015988	-0.115660
C163	C	1.516613	1.265988	0.134340
C164	C	1.766613	1.515988	0.384340
C165	C	0.968327	0.802591	-0.410167
C166	C	1.218327	1.052591	-0.160167
C167	C	1.468327	1.302591	0.089833
C168	C	1.718327	1.552591	0.339833
C169	C	0.923082	0.765693	-0.451837
C170	C	1.173082	1.015693	-0.201837
C171	C	1.423082	1.265693	0.048163
C172	C	1.673082	1.515693	0.298163
C173	C	0.926124	0.692198	-0.448995
C174	C	1.176124	0.942198	-0.198995
C175	C	1.426124	1.192198	0.051005
C176	C	1.676124	1.442198	0.301005
C177	C	0.954215	1.022385	-0.423291
C178	C	1.204215	1.272385	-0.173291
C179	C	1.454215	1.522385	0.076709
C180	C	1.704215	1.772385	0.326709
C181	C	0.951175	1.095885	-0.426128
C182	C	1.201175	1.345885	-0.176128
C183	C	1.451175	1.595885	0.073872
C184	C	1.701175	1.845885	0.323872
C185	C	1.044708	1.096175	-0.339951
C186	C	1.294708	1.346175	-0.089951
C187	C	1.544708	1.596175	0.160049
C188	C	1.794708	1.846175	0.410049
C189	C	1.047743	1.022677	-0.337110
C190	C	1.297743	1.272677	-0.087110
C191	C	1.547743	1.522677	0.162890
C192	C	1.797743	1.772677	0.412890
C193	C	1.002500	0.985786	-0.378782
C194	C	1.252500	1.235786	-0.128782
C195	C	1.502500	1.485786	0.121218
C196	C	1.752500	1.735786	0.371218
N197	N	0.965218	0.877717	-0.413075
N198	N	1.215218	1.127717	-0.163075
N199	N	1.465218	1.377717	0.086925
N200	N	1.715218	1.627717	0.336925
N201	N	1.005613	0.910662	-0.375878
N202	N	1.255613	1.160662	-0.125878
N203	N	1.505613	1.410662	0.124122
N204	N	1.755613	1.660662	0.374122
C205	C	0.951156	0.426035	-1.096494
C206	C	1.201156	0.676035	-0.846494
C207	C	1.451156	0.926035	-0.596494
C208	C	1.701156	1.176035	-0.346494
C209	C	0.954209	0.423217	-1.023000
C210	C	1.204209	0.673217	-0.773000
C211	C	1.454209	0.923217	-0.523000
C212	C	1.704209	1.173217	-0.273000
C213	C	1.002500	0.378692	-0.986418
C214	C	1.252500	0.628692	-0.736418
C215	C	1.502500	0.878692	-0.486418
C216	C	1.752500	1.128692	-0.236418
C217	C	1.047737	0.336978	-1.023334
C218	C	1.297737	0.586978	-0.773334
C219	C	1.547737	0.836978	-0.523334
C220	C	1.797737	1.086978	-0.273334
C221	C	1.044681	0.339794	-1.096827
C222	C	1.294681	0.589794	-0.846827
C223	C	1.544681	0.839794	-0.596827
C224	C	1.794681	1.089794	-0.346827
C225	C	1.016653	0.365645	-0.766636
C226	C	1.266653	0.615645	-0.516636
C227	C	1.516653	0.865645	-0.266636
C228	C	1.766653	1.115645	-0.016636
C229	C	1.019708	0.362835	-0.693138
C230	C	1.269708	0.612835	-0.443138
C231	C	1.519708	0.862835	-0.193138
C232	C	1.769708	1.112835	0.056862
C233	C	0.926178	0.449072	-0.692809
C234	C	1.176178	0.699072	-0.442809
C235	C	1.426178	0.949072	-0.192809
C236	C	1.676178	1.199072	0.057191
C237	C	0.923129	0.451887	-0.766303
C238	C	1.173129	0.701887	-0.516303
C239	C	1.423129	0.951887	-0.266303
C240	C	1.673129	1.201887	-0.016303
C241	C	0.968363	0.410170	-0.803213
C242	C	1.218363	0.660170	-0.553213
C243	C	1.468363	0.910170	-0.303213
C244	C	1.718363	1.160170	-0.053213
N245	N	1.005623	0.375812	-0.911295
N246	N	1.255623	0.625812	-0.661295
N247	N	1.505623	0.875812	-0.411295
N248	N	1.755623	1.125812	-0.161295
N249	N	0.965236	0.413048	-0.878334
N250	N	1.215236	0.663048	-0.628334
N251	N	1.465236	0.913048	-0.378334
N252	N	1.715236	1.163048	-0.128334
C253	C	0.992996	0.387507	-0.211625
C254	C	1.242996	0.637507	0.038375
C255	C	1.492996	0.887507	0.288375
C256	C	1.742996	1.137507	0.538375
C257	C	0.996391	0.384326	-0.133405
C258	C	1.246391	0.634326	0.116595
C259	C	1.496391	0.884326	0.366595
C260	C	1.746391	1.134326	0.616595
H261	H	0.711513	0.468243	-0.467930
H262	H	0.961513	0.718243	-0.217930
H263	H	1.211513	0.968243	0.032070
H264	H	1.461513	1.218243	0.282070
H265	H	1.053455	0.796022	-0.331731
H266	H	1.303455	1.046022	-0.081731
H267	H	1.553455	1.296022	0.168269
H268	H	1.803455	1.546022	0.418269
F269	F	1.092819	0.295394	-1.136110
F270	F	1.342819	0.545394	-0.886110
F271	F	1.592819	0.795394	-0.636110
F272	F	1.842819	1.045394	-0.386110
F273	F	0.251679	0.308811	-0.308982
F274	F	0.501679	0.558811	-0.058982
F275	F	0.751679	0.808811	0.191018
F276	F	1.001679	1.058811	0.441018
F277	F	1.092858	1.135442	-0.295606
F278	F	1.342858	1.385442	-0.045606
F279	F	1.592858	1.635442	0.204394
F280	F	1.842858	1.885442	0.454394
F281	F	0.402896	0.315127	-0.315298
F282	F	0.652896	0.565127	-0.065298
F283	F	0.902896	0.815127	0.184702
F284	F	1.152896	1.065127	0.434702
F285	F	0.735247	0.287128	-0.287359
F286	F	0.985247	0.537128	-0.037359
F287	F	1.235247	0.787128	0.212641
F288	F	1.485247	1.037128	0.462641
F289	F	0.584022	0.280798	-0.281058
F290	F	0.834022	0.530798	-0.031058
F291	F	1.084022	0.780798	0.218942
F292	F	1.334022	1.030798	0.468942
H293	H	0.889283	0.662161	-0.482925
H294	H	1.139283	0.912161	-0.232925
H295	H	1.389283	1.162161	0.017075
H296	H	1.639283	1.412161	0.267075
F297	F	1.071041	0.653541	-0.315438
F298	F	1.321041	0.903541	-0.065438
F299	F	1.571041	1.153541	0.184562
F300	F	1.821041	1.403541	0.434562
H301	H	1.087061	0.992876	-0.300868
H302	H	1.337061	1.242876	-0.050868
H303	H	1.587061	1.492876	0.199132
H304	H	1.837061	1.742876	0.449132
H305	H	0.911862	1.125686	-0.462384
H306	H	1.161862	1.375686	-0.212384
H307	H	1.411862	1.625686	0.037616
H308	H	1.661862	1.875686	0.287616
H309	H	0.917376	0.992354	-0.457221
H310	H	1.167376	1.242354	-0.207221
H311	H	1.417376	1.492354	0.042779
H312	H	1.667376	1.742354	0.292779
F313	F	0.871695	0.804652	-0.499210
F314	F	1.121695	1.054652	-0.249210
F315	F	1.371695	1.304652	0.000790
F316	F	1.621695	1.554652	0.250790
H317	H	0.578617	0.462675	-0.462392
H318	H	0.828617	0.712675	-0.212392
H319	H	1.078617	0.962675	0.037608
H320	H	1.328617	1.212675	0.287608
F321	F	0.236170	0.502002	-0.501607
F322	F	0.486170	0.752002	-0.251607
F323	F	0.736170	1.002002	-0.001607
F324	F	0.986170	1.252002	0.248393
H325	H	0.911835	0.462295	-1.126274
H326	H	1.161835	0.712295	-0.876274
H327	H	1.411835	0.962295	-0.626274
H328	H	1.661835	1.212295	-0.376274
H329	H	0.917381	0.457189	-0.992951
H330	H	1.167381	0.707189	-0.742951
H331	H	1.417381	0.957189	-0.492951
H332	H	1.667381	1.207189	-0.242951
H333	H	0.379173	0.496247	-0.495867
H334	H	0.629173	0.746247	-0.245867
H335	H	0.879173	0.996247	0.004133
H336	H	1.129173	1.246247	0.254133
F337	F	0.871737	0.499282	-0.805231
F338	F	1.121737	0.749282	-0.555231
F339	F	1.371737	0.999282	-0.305231
F340	F	1.621737	1.249282	-0.055231
F341	F	0.878038	0.493464	-0.653522
F342	F	1.128038	0.743464	-0.403522
F343	F	1.378038	0.993464	-0.153522
F344	F	1.628038	1.243464	0.096478
H345	H	1.059032	0.326573	-0.663355
H346	H	1.309032	0.576573	-0.413355
H347	H	1.559032	0.826573	-0.163355
H348	H	1.809032	1.076573	0.086645
H349	H	1.053489	0.331681	-0.796679
H350	H	1.303489	0.581681	-0.546679
H351	H	1.553489	0.831681	-0.296679
H352	H	1.803489	1.081681	-0.046679
H353	H	1.087054	0.300722	-0.993544
H354	H	1.337054	0.550722	-0.743544
H355	H	1.587054	0.800722	-0.493544
H356	H	1.837054	1.050722	-0.243544
