data_functionalizedCrystal
_audit_creation_method	'MofGen! by Chris Wilmer'
_symmetry_space_group_name_H-M	'P1'
_symmetry_Int_Tables_number	1
_symmetry_cell_setting	triclinic
loop_
_symmetry_equiv_pos_as_xyz
  x,y,z
_cell_length_a	12.759395
_cell_length_b	13.897448
_cell_length_c	12.759387
_cell_angle_alpha	89.969875
_cell_angle_beta	90.021028
_cell_angle_gamma	89.979670
loop_
_atom_site_label
_atom_site_type_symbol
_atom_site_fract_x
_atom_site_fract_y
_atom_site_fract_z
Zn1	Zn	1.606233	0.383944	0.594025
Zn2	Zn	1.606109	0.545272	0.418347
Zn3	Zn	1.430531	0.383995	0.418360
Zn4	Zn	1.430509	0.545201	0.593985
O5	O	1.518346	0.464603	0.506179
O6	O	1.753238	0.405353	0.570732
O7	O	1.582776	0.523929	0.271328
O8	O	1.453900	0.249007	0.441684
O9	O	1.753146	0.523880	0.441662
O10	O	1.582987	0.248969	0.570744
O11	O	1.453779	0.405439	0.271337
O12	O	1.283507	0.405371	0.441645
O13	O	1.453862	0.523760	0.741011
O14	O	1.283491	0.523808	0.570676
O15	O	1.582966	0.405285	0.741040
O16	O	1.582754	0.680244	0.441624
O17	O	1.453741	0.680192	0.570664
C18	C	1.245378	0.464588	0.506158
C19	C	1.128601	0.464605	0.506175
C20	C	0.909262	0.341403	0.640827
C21	C	0.964175	0.279782	0.708123
C22	C	1.073897	0.279766	0.708104
C23	C	1.128707	0.341379	0.640785
C24	C	1.073794	0.403000	0.573489
C25	C	0.964069	0.403008	0.573512
C26	C	1.073688	0.526226	0.438878
C27	C	0.963966	0.526239	0.438890
C28	C	1.128498	0.587839	0.371559
C29	C	1.073584	0.649457	0.304256
C30	C	0.963856	0.649470	0.304276
C31	C	0.909052	0.587860	0.371594
C32	C	1.518260	0.715218	0.506161
C33	C	1.518319	0.822431	0.506188
C34	C	1.518423	1.018726	0.506264
C35	C	1.518362	0.909494	0.506225
C36	C	1.792379	0.464619	0.506200
C37	C	1.909156	0.464626	0.506209
C38	C	1.518425	0.464509	0.780213
C39	C	1.518459	0.464468	0.896989
C40	C	1.518451	1.213010	0.506233
C41	C	1.518473	1.105796	0.506287
C42	C	1.518327	0.464628	0.233211
C43	C	1.518497	0.464396	0.116435
C44	C	1.652904	0.341109	0.897040
C45	C	1.720141	0.279414	0.951926
C46	C	1.720167	0.279379	1.061647
C47	C	1.652945	0.341043	1.116486
C48	C	1.585708	0.402737	1.061600
C49	C	1.585692	0.402768	0.951875
C50	C	1.451260	0.526091	1.061549
C51	C	1.451238	0.526132	0.951828
C52	C	1.384038	0.587754	1.116387
C53	C	1.316805	0.649455	1.061501
C54	C	1.316783	0.649488	0.951773
C55	C	1.384000	0.587826	0.896942
H56	H	0.819920	0.341390	0.640825
O57	O	0.910770	0.219962	0.773413
C58	C	0.802151	0.233201	0.759021
H59	H	0.787112	0.264707	0.677885
H60	H	0.760474	0.160962	0.766288
H61	H	0.771035	0.284639	0.821249
H62	H	1.118219	0.699622	0.249455
H63	H	0.919152	0.699654	0.249480
O64	O	1.384067	0.587899	1.222970
C65	C	1.411026	0.680335	1.259607
H66	H	1.393028	0.735908	1.196360
H67	H	1.363644	0.697452	1.333002
H68	H	1.498204	0.682390	1.279086
O69	O	1.251442	0.709518	0.898622
C70	C	1.192107	0.763915	0.970557
H71	H	1.235150	0.767224	1.048780
H72	H	1.180862	0.839927	0.938847
H73	H	1.112332	0.728583	0.982211
O74	O	1.785327	0.219382	0.898700
C75	C	1.762448	0.123233	0.925544
H76	H	1.678525	0.118336	0.955694
H77	H	1.771513	0.075604	0.853396
H78	H	1.818804	0.098009	0.989247
H79	H	1.774910	0.229136	1.106335
H80	H	1.652963	0.341001	1.205827
O81	O	1.127083	0.219821	0.773511
C82	C	1.055186	0.165465	0.832957
H83	H	0.976947	0.162079	0.789950
H84	H	1.086919	0.089477	0.844306
H85	H	1.043554	0.200882	0.912683
H86	H	0.819711	0.587853	0.371604
O87	O	1.652691	0.341137	0.790457
C88	C	1.552015	0.316331	0.753786
H89	H	1.491499	0.332784	0.817000
H90	H	1.533301	0.359855	0.680365
H91	H	1.549834	0.236301	0.734339
O92	O	1.384181	0.587859	0.790359
C93	C	1.484848	0.612681	0.753722
H94	H	1.545379	0.596199	0.816976
H95	H	1.503543	0.569192	0.680336
H96	H	1.487024	0.692721	0.734229
H97	H	1.262073	0.699651	1.106159
H98	H	1.218048	0.341369	0.640786
H99	H	1.217839	0.587827	0.371555
