data_functionalizedCrystal
_audit_creation_method	'MofGen! by Chris Wilmer'
_symmetry_space_group_name_H-M	'P1'
_symmetry_Int_Tables_number	1
_symmetry_cell_setting	triclinic
loop_
_symmetry_equiv_pos_as_xyz
  x,y,z
_cell_length_a	19.121102
_cell_length_b	21.295417
_cell_length_c	19.121175
_cell_angle_alpha	92.410242
_cell_angle_beta	85.212968
_cell_angle_gamma	87.584620
loop_
_atom_site_label
_atom_site_type_symbol
_atom_site_fract_x
_atom_site_fract_y
_atom_site_fract_z
Zn1	Zn	1.092589	-0.309425	-0.443646
Zn2	Zn	1.087478	-0.410000	-0.325971
Zn3	Zn	0.969914	-0.300055	-0.320984
Zn4	Zn	0.974878	-0.409958	-0.438583
O5	O	1.031215	-0.357359	-0.382296
O6	O	1.190374	-0.326704	-0.432242
O7	O	1.067667	-0.391512	-0.226847
O8	O	0.986249	-0.213212	-0.337287
O9	O	1.186619	-0.400597	-0.345786
O10	O	1.076377	-0.220096	-0.427406
O11	O	0.981293	-0.310736	-0.223183
O12	O	0.872110	-0.310696	-0.332378
O13	O	0.994709	-0.400526	-0.537717
O14	O	0.875757	-0.391441	-0.418778
O15	O	1.081190	-0.326664	-0.541437
O16	O	1.072481	-0.498080	-0.340877
O17	O	0.989754	-0.498050	-0.423613
C18	C	0.848403	-0.350048	-0.374488
C19	C	0.770196	-0.346936	-0.371164
C20	C	0.735368	-0.387571	-0.414515
C21	C	0.661884	-0.384639	-0.411396
C22	C	0.623229	-0.341073	-0.364921
C23	C	0.658062	-0.300434	-0.321568
C24	C	0.731545	-0.303363	-0.324691
C25	C	0.401264	-0.330118	-0.353246
C26	C	0.327776	-0.327193	-0.350124
C27	C	0.331603	-0.411398	-0.439954
C28	C	0.405087	-0.414326	-0.443070
C29	C	0.439914	-0.373684	-0.399720
C30	C	0.548117	-0.338076	-0.361730
C31	C	0.515025	-0.376679	-0.402915
C32	C	1.031121	-0.520906	-0.382253
C33	C	1.031146	-0.590875	-0.382261
C34	C	1.074264	-0.623740	-0.339228
C35	C	1.074298	-0.689485	-0.339246
C36	C	1.031201	-0.722361	-0.382288
C37	C	0.988080	-0.689488	-0.425329
C38	C	0.988053	-0.623745	-0.425316
N39	N	0.969877	-0.823383	-0.385023
N40	N	0.969904	-0.885836	-0.385031
C41	C	1.031281	-0.920440	-0.382331
N42	N	1.092630	-0.890232	-0.379609
N43	N	1.092601	-0.827774	-0.379596
C44	C	1.031226	-0.793648	-0.382307
C45	C	1.074439	-1.024593	-0.339315
C46	C	1.074474	-1.090339	-0.339337
C47	C	0.988250	-1.090341	-0.425416
C48	C	0.988222	-1.024596	-0.425398
C49	C	1.031315	-0.991726	-0.382344
C50	C	1.214741	-0.364700	-0.390135
C51	C	1.292949	-0.367828	-0.393476
C52	C	1.039073	-0.364636	-0.565821
C53	C	1.042422	-0.367736	-0.644029
C54	C	1.031329	-0.193176	-0.382355
C55	C	1.031378	-0.123211	-0.382381
C56	C	0.999027	-0.327138	-0.678863
C57	C	1.002171	-0.330057	-0.752347
C58	C	1.048713	-0.373571	-0.790996
C59	C	1.092110	-0.414173	-0.756157
C60	C	1.088962	-0.411257	-0.682674
C61	C	1.060464	-0.384482	-1.012963
C62	C	1.063610	-0.387393	-1.086451
C63	C	0.973669	-0.303277	-1.082636
C64	C	0.970529	-0.300363	-1.009152
C65	C	1.013923	-0.340967	-0.974319
C66	C	1.051930	-0.376554	-0.866109
C67	C	1.010703	-0.337987	-0.899207
C68	C	1.023428	-0.350068	-0.199486
C69	C	1.020215	-0.346795	-0.121285
H70	H	0.759901	-0.270270	-0.289394
C71	C	0.940671	-0.725653	-0.472672
N72	N	0.904961	-0.752892	-0.508334
H73	H	0.436555	-0.449803	-0.480913
H74	H	1.109355	-0.596980	-0.304173
C75	C	0.623577	-0.429353	-0.459073
N76	N	0.594724	-0.463037	-0.494981
C77	C	0.505589	-0.290157	-0.310606
N78	N	0.473555	-0.254064	-0.272100
C79	C	1.102913	-0.424599	-0.908620
N80	N	1.141235	-0.460853	-0.940639
C81	C	0.615539	-0.252510	-0.270447
N82	N	0.583512	-0.216414	-0.231939
H83	H	0.961131	-0.291701	-0.647400
H84	H	0.953163	-1.117108	-0.460465
C85	C	1.121729	-0.725643	-0.291901
N86	N	1.157452	-0.752876	-0.256238
C87	C	0.954440	-0.285389	-0.790662
N88	N	0.918488	-0.251742	-0.819520
C89	C	0.940627	-0.587593	-0.472666
N90	N	0.904908	-0.560363	-0.508334
C91	C	1.143148	-0.462175	-0.798666
N92	N	1.181535	-0.498379	-0.830681
H93	H	0.766836	-0.423049	-0.452358
H94	H	1.095791	-0.417551	-0.984610
H95	H	0.303240	-0.444485	-0.475248
H96	H	1.109531	-0.997829	-0.304260
C97	C	1.121909	-1.126490	-0.291995
N98	N	1.157637	-1.153720	-0.256334
H99	H	0.953108	-0.997836	-0.460436
H100	H	0.546501	-0.412147	-0.440758
C101	C	0.919327	-0.252495	-0.966643
N102	N	0.880761	-0.216440	-0.934626
H103	H	0.938340	-0.270220	-1.111005
H104	H	1.101514	-0.422828	-1.117917
H105	H	0.972805	-0.302560	-0.867736
H106	H	0.296306	-0.291710	-0.312283
C107	C	1.136704	-0.455916	-0.644357
N108	N	1.172663	-0.489554	-0.615498
H109	H	0.429611	-0.297029	-0.317942
