data_functionalizedCrystal
_audit_creation_method	'MofGen! by Chris Wilmer'
_symmetry_space_group_name_H-M	'P1'
_symmetry_Int_Tables_number	1
_symmetry_cell_setting	triclinic
loop_
_symmetry_equiv_pos_as_xyz
  x,y,z
_cell_length_a	17.699083
_cell_length_b	22.610064
_cell_length_c	17.699092
_cell_angle_alpha	89.994252
_cell_angle_beta	83.284691
_cell_angle_gamma	90.002185
loop_
_atom_site_label
_atom_site_type_symbol
_atom_site_fract_x
_atom_site_fract_y
_atom_site_fract_z
O1	O	1.004084	0.049099	0.095701
O2	O	0.783706	0.049119	0.108153
O3	O	0.900118	0.049107	-0.008262
O4	O	0.887672	0.049111	0.212116
O5	O	0.900097	-0.049262	-0.008245
O6	O	0.783685	-0.049251	0.108170
O7	O	1.004063	-0.049270	0.095718
Zn8	Zn	0.893871	-0.064878	0.101946
Zn9	Zn	0.893898	0.064727	0.101924
O10	O	0.887651	-0.049258	0.212133
C11	C	0.755499	-0.000064	0.107715
C12	C	0.671480	-0.000056	0.106377
C13	C	0.622862	-0.000055	0.174710
C14	C	0.543918	-0.000063	0.173448
C15	C	0.513595	-0.000067	0.103851
C16	C	0.562220	-0.000070	0.035513
C17	C	0.641162	-0.000067	0.036776
C18	C	0.243857	-0.000085	0.030418
C19	C	0.164909	-0.000087	0.029160
C20	C	0.146613	-0.000081	0.167089
C21	C	0.225555	-0.000078	0.168352
C22	C	0.274173	-0.000084	0.100014
C23	C	0.359772	-0.000076	0.101384
C24	C	0.427998	-0.000070	0.102481
N25	N	0.893858	-0.153331	0.101961
C26	C	0.945448	-0.561977	0.050383
C27	C	0.945452	-0.623897	0.050378
O28	O	0.989283	-0.655920	0.006536
N29	N	0.893898	-0.654868	0.101908
C30	C	0.842331	-0.623916	0.153443
O31	O	0.798480	-0.655944	0.197272
C32	C	0.842324	-0.561997	0.153444
C33	C	0.893887	-0.531029	0.101915
C34	C	0.997005	-0.531010	-0.001142
C35	C	0.997002	-0.469094	-0.001135
C36	C	0.945441	-0.438146	0.050397
C37	C	0.893884	-0.469114	0.101922
C38	C	0.790755	-0.531046	0.204974
C39	C	0.790752	-0.469123	0.204970
C40	C	0.842315	-0.438155	0.153442
C41	C	0.842320	-0.376250	0.153460
N42	N	0.893874	-0.345279	0.101930
C43	C	0.945435	-0.376227	0.050398
C44	C	0.842349	-0.753949	0.153435
C45	C	0.842359	-0.815867	0.153438
C46	C	0.945478	-0.815844	0.050372
C47	C	0.945471	-0.753925	0.050373
C48	C	0.893903	-0.722979	0.101905
C49	C	0.945425	-0.246200	0.050416
C50	C	0.945419	-0.184279	0.050430
C51	C	0.842297	-0.184307	0.153492
C52	C	0.842305	-0.246223	0.153482
C53	C	0.893872	-0.277168	0.101938
O54	O	0.798509	-0.344188	0.197278
O55	O	0.989271	-0.344191	0.006569
C56	C	1.032271	-0.000086	0.096155
C57	C	1.116289	-0.000090	0.097494
N58	N	0.893917	0.153180	0.101903
C59	C	0.899661	-0.000077	-0.036450
C60	C	0.898319	-0.000074	-0.120468
C61	C	0.897702	0.053548	-0.159945
C62	C	0.896437	0.053549	-0.238888
C63	C	0.895795	-0.000073	-0.278353
C64	C	0.896410	-0.053699	-0.238871
C65	C	0.897669	-0.053699	-0.159929
C66	C	0.891330	-0.053699	-0.557236
C67	C	0.890072	-0.053695	-0.636184
C68	C	0.890098	0.053549	-0.636195
C69	C	0.891357	0.053548	-0.557253
C70	C	0.891968	-0.000077	-0.517777
C71	C	0.893338	-0.000077	-0.432178
C72	C	0.894430	-0.000073	-0.363952
C73	C	0.888109	-0.000073	0.240321
C74	C	0.889450	-0.000072	0.324339
H75	H	0.140224	-0.000091	-0.027517
C76	C	0.895700	-0.112683	-0.282277
H77	H	0.896240	-0.144618	-0.247456
H78	H	0.939327	-0.114918	-0.318924
H79	H	0.851083	-0.114906	-0.307218
H80	H	0.537525	-0.000082	-0.021154
H81	H	0.800357	-0.728755	0.195404
H82	H	0.283433	-0.000090	-0.025227
C83	C	0.895762	0.112531	-0.282313
H84	H	0.894911	0.104854	-0.334979
H85	H	0.940094	0.134558	-0.275232
H86	H	0.851851	0.134568	-0.263524
C87	C	0.898348	-0.112681	-0.116501
H88	H	0.899182	-0.105002	-0.063833
H89	H	0.942254	-0.134721	-0.135284
H90	H	0.854010	-0.134706	-0.123584
H91	H	0.647544	-0.000051	0.231383
H92	H	0.680748	-0.000067	-0.018868
H93	H	0.748756	-0.443929	0.246932
H94	H	0.891884	0.097213	-0.525124
C95	C	1.002148	-0.150215	-0.006243
H96	H	0.994773	-0.108905	0.001146
H97	H	0.994036	-0.160353	-0.056752
H98	H	1.052640	-0.160368	0.001930
C99	C	0.490440	-0.000060	0.248614
H100	H	0.519806	-0.000049	0.290243
H101	H	0.459266	-0.034365	0.250999
H102	H	0.459265	0.034246	0.250980
H103	H	0.800325	-0.271437	0.195449
C104	C	0.734033	-0.565099	0.261651
H105	H	0.741414	-0.606410	0.254281
H106	H	0.683542	-0.554949	0.253487
H107	H	0.742157	-0.554954	0.312158
C108	C	0.889357	-0.112681	-0.679594
H109	H	0.889892	-0.144619	-0.644776
H110	H	0.932983	-0.114918	-0.716241
H111	H	0.844740	-0.114898	-0.704535
H112	H	0.250239	-0.000071	0.225025
C113	C	1.002149	-0.280231	-0.006278
H114	H	1.032855	-0.252912	-0.036955
H115	H	0.974992	-0.304384	-0.037758
H116	H	1.033610	-0.304385	0.020911
C117	C	1.053713	-0.435037	-0.057826
H118	H	1.084411	-0.462344	-0.088518
H119	H	1.085171	-0.410881	-0.030648
H120	H	1.026538	-0.410886	-0.089302
H121	H	0.107018	-0.000079	0.222733
C122	C	0.892015	-0.112684	-0.513824
H123	H	0.891462	-0.144618	-0.548638
H124	H	0.848388	-0.114916	-0.477174
H125	H	0.936632	-0.114915	-0.488884
H126	H	1.038992	-0.556202	-0.043108
H127	H	0.987457	-0.728715	0.008414
H128	H	0.987461	-0.841053	0.008411
C129	C	0.785641	-0.849925	0.210120
H130	H	0.754931	-0.822620	0.240804
H131	H	0.812799	-0.874085	0.241595
H132	H	0.754184	-0.874073	0.182923
C133	C	0.785583	-0.150259	0.210174
H134	H	0.754876	-0.177567	0.240867
H135	H	0.754133	-0.126103	0.182982
H136	H	0.812752	-0.126107	0.241650
H137	H	0.898230	0.097213	-0.127818
H138	H	0.889596	0.097213	-0.668346
