data_functionalizedCrystal
_audit_creation_method	'MofGen! by Chris Wilmer'
_symmetry_space_group_name_H-M	'P1'
_symmetry_Int_Tables_number	1
_symmetry_cell_setting	triclinic
loop_
_symmetry_equiv_pos_as_xyz
  x,y,z
_cell_length_a	10.723024
_cell_length_b	9.198806
_cell_length_c	10.723023
_cell_angle_alpha	89.997827
_cell_angle_beta	84.467709
_cell_angle_gamma	89.996352
loop_
_atom_site_label
_atom_site_type_symbol
_atom_site_fract_x
_atom_site_fract_y
_atom_site_fract_z
O1	O	1.657187	-0.120880	0.175025
O2	O	1.294035	-0.120884	0.191778
O3	O	1.483988	-0.120876	0.001825
O4	O	1.467234	-0.120888	0.364977
O5	O	1.483973	0.120909	0.001824
O6	O	1.294020	0.120901	0.191777
O7	O	1.657172	0.120905	0.175024
Cu8	Cu	1.475595	0.142980	0.183401
Cu9	Cu	1.475612	-0.142959	0.183401
O10	O	1.467219	0.120897	0.364977
C11	C	1.247528	0.000008	0.190558
C12	C	1.108973	0.000006	0.186911
C13	C	0.917217	0.000007	0.073603
C14	C	1.060420	0.000009	0.077371
C15	C	1.703679	0.000010	0.176243
C16	C	1.842234	0.000003	0.179891
N17	N	1.475591	0.344094	0.183399
C18	C	1.482762	0.000015	-0.044675
C19	C	1.479114	0.000010	-0.183229
N20	N	1.475626	-0.344073	0.183393
C21	C	1.555347	0.416295	0.103292
C22	C	1.555366	0.583707	0.103288
C23	C	1.477496	-0.125243	-0.244995
C24	C	1.473727	-0.125251	-0.388198
C25	C	1.468445	0.000003	0.411477
C26	C	1.472093	-0.000002	0.550031
H27	H	1.044548	-0.000004	0.277906
H28	H	0.875395	0.000032	-0.020182
O29	O	1.479342	-0.253273	-0.181782
C30	C	1.586421	-0.333473	-0.226698
H31	H	1.619895	-0.296124	-0.325663
H32	H	1.663896	-0.315092	-0.162697
C33	C	1.512402	-0.542232	-0.106981
C34	C	1.553509	-0.496368	-0.228535
H35	H	1.492104	-0.642714	-0.108110
H36	H	1.440262	-0.488199	-0.076716
H37	H	1.576972	-0.526902	-0.053660
H38	H	1.488934	-0.511682	-0.281850
H39	H	1.625637	-0.550408	-0.258810
O40	O	1.137456	0.000075	-0.031069
C41	C	1.263287	0.000035	-0.003167
H42	H	1.268993	0.045807	0.094913
H43	H	1.300894	-0.115962	-0.007528
C44	C	1.335218	0.038637	-0.219748
C45	C	1.342228	0.094867	-0.099288
H46	H	1.383916	0.097128	-0.279042
H47	H	1.250445	0.038659	-0.238548
H48	H	1.366556	-0.058026	-0.223365
H49	H	1.310876	0.191521	-0.095669
H50	H	1.426999	0.094864	-0.080490
O51	O	1.394090	0.418357	0.265047
C52	C	1.316388	0.506390	0.197669
H53	H	1.365019	0.529032	0.100341
H54	H	1.223986	0.447840	0.188659
C55	C	1.230910	0.623252	0.387252
C56	C	1.290644	0.651071	0.267716
H57	H	1.215025	0.712495	0.430462
H58	H	1.283255	0.563939	0.432647
H59	H	1.153915	0.574456	0.379727
H60	H	1.367645	0.699849	0.275243
H61	H	1.238311	0.710395	0.222324
O62	O	1.636990	0.342384	0.021525
C63	C	1.760799	0.379456	0.042611
H64	H	1.761249	0.489994	0.090629
H65	H	1.800034	0.293814	0.105021
C66	C	1.841883	0.250559	-0.142500
C67	C	1.842437	0.386330	-0.083534
H68	H	1.892243	0.254793	-0.220311
H69	H	1.758471	0.225577	-0.156704
H70	H	1.874575	0.179205	-0.090479
H71	H	1.809730	0.457677	-0.135547
H72	H	1.925846	0.411324	-0.069341
H73	H	1.472341	-0.232486	-0.441315
H74	H	1.407344	0.593847	0.251984
H75	H	0.884055	0.000008	0.273677
H76	H	1.623653	0.645796	0.034709
H77	H	1.473491	0.107238	-0.396861
H78	H	1.477701	0.107239	-0.236366
