data_functionalizedCrystal
_audit_creation_method	'MofGen! by Chris Wilmer'
_symmetry_space_group_name_H-M	'P1'
_symmetry_Int_Tables_number	1
_symmetry_cell_setting	triclinic
loop_
_symmetry_equiv_pos_as_xyz
  x,y,z
_cell_length_a	23.532407
_cell_length_b	11.026607
_cell_length_c	9.482900
_cell_angle_alpha	78.613859
_cell_angle_beta	80.745072
_cell_angle_gamma	84.282619
loop_
_atom_site_label
_atom_site_type_symbol
_atom_site_fract_x
_atom_site_fract_y
_atom_site_fract_z
O1	O	0.763792	-0.166158	0.120801
O2	O	0.600166	-0.187450	0.120823
O3	O	0.668418	-0.000314	0.120808
O4	O	0.695540	-0.353294	0.120815
O5	O	0.682306	0.037781	-0.120987
O6	O	0.614054	-0.149355	-0.120973
O7	O	0.777679	-0.128063	-0.120995
Cu8	Cu	0.697134	-0.135231	-0.143062
Cu9	Cu	0.680711	-0.180282	0.142890
O10	O	0.709427	-0.315199	-0.120980
C11	C	0.585837	-0.167861	-0.000072
C12	C	0.522448	-0.166232	-0.000063
C13	C	0.243928	-0.048762	-0.000105
C14	C	0.303488	-0.050276	-0.000105
O15	O	0.330435	0.042914	-0.000157
N16	N	0.337814	-0.161529	-0.000093
C17	C	0.312579	-0.271273	-0.000096
O18	O	0.347246	-0.366041	-0.000087
C19	C	0.253022	-0.269756	-0.000107
C20	C	0.218697	-0.158498	-0.000104
C21	C	0.209604	0.062487	-0.000104
C22	C	0.150049	0.064000	-0.000102
C23	C	0.124817	-0.045736	-0.000101
C24	C	0.159142	-0.156985	-0.000102
C25	C	0.227788	-0.379496	-0.000120
C26	C	0.168226	-0.377970	-0.000132
C27	C	0.133902	-0.266712	-0.000130
C28	C	0.074355	-0.265208	-0.000098
N29	N	0.040028	-0.153955	-0.000110
C30	C	0.065259	-0.044219	-0.000112
C31	C	0.437655	-0.274450	-0.000076
C32	C	0.497211	-0.275970	-0.000055
C33	C	0.488115	-0.054972	-0.000066
C34	C	0.428557	-0.053455	-0.000077
C35	C	0.403328	-0.163197	-0.000088
C36	C	-0.059811	-0.041050	-0.000105
C37	C	-0.119372	-0.039547	-0.000097
C38	C	-0.110270	-0.260543	-0.000093
C39	C	-0.050715	-0.262047	-0.000094
C40	C	-0.025487	-0.152290	-0.000105
O41	O	0.047368	-0.358348	-0.000052
O42	O	0.030588	0.050536	-0.000140
C43	C	0.670358	0.063884	-0.000087
C44	C	0.655442	0.198417	-0.000080
C45	C	0.792009	-0.147653	-0.000097
C46	C	0.855397	-0.149283	-0.000096
N47	N	0.669159	-0.211960	0.344012
C48	C	0.707487	-0.379397	-0.000082
C49	C	0.722403	-0.513932	-0.000079
C50	C	0.696627	0.272719	-0.000083
C51	C	0.681212	0.411767	-0.000076
N52	N	0.708690	-0.103543	-0.344184
C53	C	0.693731	-0.144583	0.416206
C54	C	0.684114	-0.170931	0.583626
H55	H	0.230141	0.151853	-0.000110
H56	H	-0.039278	0.048325	-0.000114
Br57	Br	0.755628	0.025113	0.552270
Br58	Br	0.740668	-0.015931	0.312659
H59	H	-0.147317	0.051055	-0.000091
H60	H	0.608769	0.237743	-0.000064
H61	H	0.400614	0.037141	-0.000076
H62	H	0.641005	-0.289156	0.406148
H63	H	0.769072	0.446730	0.000023
H64	H	0.655959	-0.248131	0.645756
Br65	Br	0.603414	0.477293	-0.000044
Br66	Br	0.133991	-0.526912	-0.000158
Br67	Br	0.103473	0.214997	-0.000079
H68	H	0.417117	-0.363822	-0.000074
H69	H	0.508669	0.034380	-0.000067
Br70	Br	0.774420	0.207182	-0.000079
H71	H	0.255725	-0.470095	-0.000116
Br72	Br	0.543785	-0.426974	-0.000021
Br73	Br	-0.004132	-0.413044	-0.000074
H74	H	-0.130825	-0.349888	-0.000085
