data_functionalizedCrystal
_audit_creation_method	'MofGen! by Chris Wilmer'
_symmetry_space_group_name_H-M	'P1'
_symmetry_Int_Tables_number	1
_symmetry_cell_setting	triclinic
loop_
_symmetry_equiv_pos_as_xyz
  x,y,z
_cell_length_a	14.853567
_cell_length_b	14.853567
_cell_length_c	7.681481
_cell_angle_alpha	84.253558
_cell_angle_beta	95.734544
_cell_angle_gamma	83.634930
loop_
_atom_site_label
_atom_site_type_symbol
_atom_site_fract_x
_atom_site_fract_y
_atom_site_fract_z
O1	O	1.187859	0.126221	-0.146293
O2	O	0.925398	0.140244	-0.146321
O3	O	1.063639	0.002003	-0.146311
O4	O	1.049618	0.264462	-0.146302
O5	O	1.080654	-0.015051	0.146547
O6	O	0.942413	0.123190	0.146538
O7	O	1.204874	0.109167	0.146566
Zn8	Zn	1.076345	0.113471	0.193050
Zn9	Zn	1.053927	0.135940	-0.192805
O10	O	1.066633	0.247408	0.146557
C11	C	0.900317	0.131082	0.000105
C12	C	0.800232	0.129179	0.000093
C13	C	1.071511	-0.040112	0.000113
C14	C	1.069606	-0.140195	0.000097
C15	C	0.979442	-0.552730	0.000121
C16	C	1.143676	-0.574012	0.000139
C17	C	1.145465	-0.479978	0.000129
C18	C	1.064242	-0.422315	0.000117
C19	C	0.981229	-0.458687	0.000116
C20	C	1.228478	-0.443600	0.000147
C21	C	1.230271	-0.349560	0.000139
C22	C	1.149046	-0.291895	0.000115
C23	C	1.066029	-0.328272	0.000112
C24	C	0.984806	-0.270610	0.000101
C25	C	0.901788	-0.306984	0.000086
C26	C	0.900004	-0.401022	0.000092
C27	C	1.150829	-0.197858	0.000109
C28	C	0.986594	-0.176567	0.000096
C29	C	0.387701	0.039011	0.000129
C30	C	0.366420	0.203244	0.000133
C31	C	0.460453	0.205034	0.000128
C32	C	0.518115	0.123812	0.000120
C33	C	0.481743	0.040799	0.000118
C34	C	0.496831	0.288046	0.000112
C35	C	0.590870	0.289840	0.000104
C36	C	0.648534	0.208616	0.000109
C37	C	0.612157	0.125600	0.000109
C38	C	0.669818	0.044378	0.000102
C39	C	0.633444	-0.038640	0.000115
C40	C	0.539407	-0.040425	0.000124
C41	C	0.742571	0.210401	0.000100
C42	C	0.763860	0.046166	0.000091
C43	C	1.229955	0.118329	0.000137
C44	C	1.330039	0.120233	0.000137
C45	C	1.058761	0.289524	0.000128
C46	C	1.060665	0.389607	0.000132
N47	N	1.091652	0.098136	0.456385
N48	N	1.038628	0.151268	-0.456140
H49	H	0.835657	-0.260024	0.000089
H50	H	1.145788	0.043907	0.531595
O51	O	0.974031	0.216036	0.454431
C52	C	0.927008	0.263126	0.575146
H53	H	0.971560	0.256569	0.706603
H54	H	0.910358	0.338191	0.521746
H55	H	0.861081	0.232698	0.594701
O56	O	0.689405	-0.117542	-0.000210
C57	C	0.664065	-0.159118	-0.151856
H58	H	0.625810	-0.105394	-0.257859
H59	H	0.727775	-0.192215	-0.202788
H60	H	0.618122	-0.213363	-0.117549
H61	H	0.832416	-0.430647	0.000081
O62	O	0.898885	-0.588213	0.000186
C63	C	0.914714	-0.683575	0.000139
H64	H	0.988262	-0.708798	0.055591
H65	H	0.866528	-0.717465	0.085155
H66	H	0.902150	-0.701574	-0.140363
O67	O	1.222484	-0.630146	0.000080
C68	C	1.203108	-0.720949	0.000140
H69	H	1.129070	-0.721419	-0.055310
H70	H	1.249932	-0.758542	-0.084871
H71	H	1.214656	-0.756313	0.140645
O72	O	1.307328	-0.499633	-0.000145
C73	C	1.302386	-0.545852	-0.151796
H74	H	1.250174	-0.505295	-0.257820
H75	H	1.372038	-0.553378	-0.202689
H76	H	1.280951	-0.616254	-0.117511
H77	H	1.297868	-0.319953	0.000150
H78	H	0.920450	-0.129623	0.000079
H79	H	1.218422	-0.168246	0.000133
H80	H	0.358080	-0.028580	0.000146
O81	O	0.440945	0.367029	0.000029
C82	C	0.493214	0.440681	0.000051
H83	H	0.560143	0.421112	-0.055399
H84	H	0.453651	0.502541	-0.084979
H85	H	0.508113	0.457947	0.140545
O86	O	0.819814	-0.032741	-0.000230
C87	C	0.794469	-0.074315	-0.151876
H88	H	0.756223	-0.020587	-0.257882
H89	H	0.858175	-0.107423	-0.202802
H90	H	0.748516	-0.128551	-0.117570
O91	O	0.504008	-0.121019	-0.000190
C92	C	0.441415	-0.118118	-0.151843
H93	H	0.457558	-0.064809	-0.257850
H94	H	0.446794	-0.187800	-0.202761
H95	H	0.369281	-0.099402	-0.117550
O96	O	0.626218	0.370478	-0.000228
C97	C	0.671173	0.385246	-0.151889
H98	H	0.642715	0.344270	-0.257886
H99	H	0.659855	0.460856	-0.202817
H100	H	0.747297	0.362555	-0.117603
O101	O	0.310519	0.282186	0.000368
C102	C	0.335825	0.323735	0.152065
H103	H	0.410067	0.298739	0.202634
H104	H	0.327324	0.400904	0.117954
H105	H	0.290547	0.305161	0.258272
H106	H	0.772183	0.277993	0.000093
