data_functionalizedCrystal
_audit_creation_method	'MofGen! by Chris Wilmer'
_symmetry_space_group_name_H-M	'P1'
_symmetry_Int_Tables_number	1
_symmetry_cell_setting	triclinic
loop_
_symmetry_equiv_pos_as_xyz
  x,y,z
_cell_length_a	17.077402
_cell_length_b	12.759401
_cell_length_c	12.759393
_cell_angle_alpha	89.977503
_cell_angle_beta	90.034688
_cell_angle_gamma	89.976295
loop_
_atom_site_label
_atom_site_type_symbol
_atom_site_fract_x
_atom_site_fract_y
_atom_site_fract_z
Zn1	Zn	-0.312453	-1.606207	0.594033
Zn2	Zn	0.187547	-1.106207	1.094033
Zn3	Zn	-0.443739	-1.606073	0.418340
Zn4	Zn	0.056261	-1.106073	0.918340
Zn5	Zn	-0.312493	-1.430505	0.418364
Zn6	Zn	0.187507	-0.930505	0.918364
Zn7	Zn	-0.443683	-1.430472	0.593973
Zn8	Zn	0.056317	-0.930472	1.093973
O9	O	-0.378092	-1.518314	0.506178
O10	O	0.121908	-1.018314	1.006178
O11	O	-0.329875	-1.753210	0.570743
O12	O	0.170125	-1.253210	1.070743
O13	O	-0.426369	-1.582741	0.271322
O14	O	0.073631	-1.082741	0.771322
O15	O	-0.202641	-1.453882	0.441701
O16	O	0.297359	-0.953882	0.941701
O17	O	-0.426330	-1.753111	0.441662
O18	O	0.073670	-1.253111	0.941662
O19	O	-0.202611	-1.582969	0.570765
O20	O	0.297389	-1.082969	1.070765
O21	O	-0.329944	-1.453753	0.271339
O22	O	0.170056	-0.953753	0.771339
O23	O	-0.329889	-1.283480	0.441643
O24	O	0.170111	-0.783480	0.941643
O25	O	-0.426234	-1.453826	0.741002
O26	O	0.073766	-0.953826	1.241002
O27	O	-0.426273	-1.283456	0.570662
O28	O	0.073727	-0.783456	1.070662
O29	O	-0.329820	-1.582937	0.741046
O30	O	0.170180	-1.082937	1.241046
O31	O	-0.553578	-1.582709	0.441604
O32	O	-0.053578	-1.082709	0.941604
O33	O	-0.553537	-1.453696	0.570640
O34	O	-0.053537	-0.953696	1.070640
C35	C	-0.378080	-1.245347	0.506149
C36	C	0.121920	-0.745347	1.006149
C37	C	-0.378094	-1.128570	0.506162
C38	C	0.121906	-0.628570	1.006162
C39	C	-0.582040	-1.518213	0.506136
C40	C	-0.082040	-1.018213	1.006136
C41	C	-0.669290	-1.518266	0.506153
C42	C	-0.169290	-1.018266	1.006153
C43	C	-0.428357	-1.073723	0.573235
C44	C	0.071643	-0.573723	1.073235
C45	C	-0.428359	-0.963999	0.573253
C46	C	0.071641	-0.463999	1.073253
C47	C	-0.327832	-0.963979	0.439116
C48	C	0.172168	-0.463979	0.939116
C49	C	-0.327827	-1.073701	0.439104
C50	C	0.172173	-0.573701	0.939104
C51	C	-0.710275	-1.585511	0.439036
C52	C	-0.210275	-1.085511	0.939036
C53	C	-0.792256	-1.585563	0.439062
C54	C	-0.292256	-1.085563	0.939062
C55	C	-0.833249	-1.518362	0.506202
C56	C	-0.333249	-1.018362	1.006202
C57	C	-0.792258	-1.451114	0.573326
C58	C	-0.292258	-0.951114	1.073326
C59	C	-0.710279	-1.451068	0.573304
C60	C	-0.210279	-0.951068	1.073304
C61	C	-0.963128	-1.451211	0.573366
C62	C	-0.463128	-0.951211	1.073366
C63	C	-1.045112	-1.451255	0.573387
C64	C	-0.545112	-0.951255	1.073387
C65	C	-1.045105	-1.585705	0.439125
C66	C	-0.545105	-1.085705	0.939125
C67	C	-0.963126	-1.585660	0.439102
C68	C	-0.463126	-1.085660	0.939102
C69	C	-0.922140	-1.518410	0.506226
C70	C	-0.422140	-1.018410	1.006226
C71	C	-0.173348	-1.518445	0.506243
C72	C	0.326652	-1.018445	1.006243
C73	C	-0.086098	-1.518500	0.506270
C74	C	0.413902	-1.018500	1.006270
C75	C	-0.378017	-1.518393	0.780211
C76	C	0.121983	-1.018393	1.280211
C77	C	-0.377984	-1.518426	0.896988
C78	C	0.122016	-1.018426	1.396988
C79	C	-0.378102	-0.792347	0.506200
C80	C	0.121898	-0.292347	1.006200
C81	C	-0.378101	-0.909124	0.506192
C82	C	0.121899	-0.409124	1.006192
C83	C	-0.378110	-1.518296	0.233210
C84	C	0.121890	-1.018296	0.733210
C85	C	-0.377921	-1.518466	0.116434
C86	C	0.122079	-1.018466	0.616434
C87	C	-0.327774	-1.585660	0.951874
C88	C	0.172226	-1.085660	1.451874
C89	C	-0.327740	-1.585677	1.061599
C90	C	0.172260	-1.085677	1.561599
C91	C	-0.428134	-1.451226	1.061540
C92	C	0.071866	-0.951226	1.561540
C93	C	-0.428164	-1.451203	0.951817
C94	C	0.071836	-0.951203	1.451817
H95	H	-0.469285	-1.118394	0.627841
H96	H	0.030715	-0.618394	1.127841
H97	H	-0.468990	-1.396498	1.106195
H98	H	0.031010	-0.896498	1.606195
N99	N	-0.482574	-0.904841	0.645591
N100	N	0.017426	-0.404841	1.145591
H101	H	-0.514416	-0.956253	0.688065
H102	H	-0.014416	-0.456253	1.188065
H103	H	-0.518861	-0.859279	0.602735
H104	H	-0.018861	-0.359279	1.102735
H105	H	-0.469051	-1.396447	0.907127
H106	H	0.030949	-0.896447	1.407127
N107	N	-0.273639	-0.904798	0.366764
N108	N	0.226361	-0.404798	0.866764
H109	H	-0.281276	-0.826967	0.376937
H110	H	0.218724	-0.326967	0.876937
H111	H	-0.285808	-0.923951	0.291708
H112	H	0.214192	-0.423951	0.791708
H113	H	-0.286892	-1.118359	0.384485
H114	H	0.213108	-0.618359	0.884485
N115	N	-0.273658	-1.658165	0.892734
N116	N	0.226342	-1.158165	1.392734
H117	H	-0.237291	-1.615492	0.847205
H118	H	0.262709	-1.115492	1.347205
H119	H	-0.305640	-1.706803	0.847278
H120	H	0.194360	-1.206803	1.347278
H121	H	-0.286852	-1.640424	1.106283
H122	H	0.213148	-1.140424	1.606283
H123	H	-0.825623	-1.640320	0.384408
H124	H	-0.325623	-1.140320	0.884408
N125	N	-0.666064	-1.657989	0.366617
N126	N	-0.166064	-1.157989	0.866617
H127	H	-0.704471	-1.700598	0.324105
H128	H	-0.204471	-1.200598	0.824105
H129	H	-0.631995	-1.706567	0.409420
H130	H	-0.131995	-1.206567	0.909420
H131	H	-0.929749	-1.640374	0.384427
H132	H	-0.429749	-1.140374	0.884427
H133	H	-1.078479	-1.640466	0.384474
H134	H	-0.578479	-1.140466	0.884474
H135	H	-1.078487	-1.396554	0.628078
H136	H	-0.578487	-0.896554	1.128078
H137	H	-0.676909	-1.396311	0.627959
H138	H	-0.176909	-0.896311	1.127959
N139	N	-0.918919	-1.378683	0.645767
N140	N	-0.418919	-0.878683	1.145767
H141	H	-0.957326	-1.336116	0.688301
H142	H	-0.457326	-0.836116	1.188301
H143	H	-0.884961	-1.330068	0.602945
H144	H	-0.384961	-0.830068	1.102945
H145	H	-0.825641	-1.396402	0.627997
H146	H	-0.325641	-0.896402	1.127997
