data_functionalizedCrystal
_audit_creation_method	'MofGen! by Chris Wilmer'
_symmetry_space_group_name_H-M	'P1'
_symmetry_Int_Tables_number	1
_symmetry_cell_setting	triclinic
loop_
_symmetry_equiv_pos_as_xyz
  x,y,z
_cell_length_a	18.215407
_cell_length_b	17.637651
_cell_length_c	18.215399
_cell_angle_alpha	101.243683
_cell_angle_beta	90.016899
_cell_angle_gamma	101.216814
loop_
_atom_site_label
_atom_site_type_symbol
_atom_site_fract_x
_atom_site_fract_y
_atom_site_fract_z
Zn1	Zn	1.065871	-0.314821	0.356746
Zn2	Zn	1.040917	-0.447038	0.208770
Zn3	Zn	0.942800	-0.314840	0.233696
Zn4	Zn	0.917917	-0.446988	0.331811
O5	O	0.991876	-0.380922	0.282756
O6	O	1.165543	-0.332373	0.337121
O7	O	1.027872	-0.429531	0.109087
O8	O	0.979984	-0.204199	0.270886
O9	O	1.147209	-0.429513	0.228403
O10	O	1.070403	-0.204185	0.361291
O11	O	0.955786	-0.332405	0.127400
O12	O	0.836518	-0.332356	0.246708
O13	O	0.937573	-0.429426	0.438109
O14	O	0.818236	-0.429445	0.318792
O15	O	1.046275	-0.332324	0.456428
O16	O	1.003743	-0.557670	0.204225
O17	O	0.913375	-0.557632	0.294622
C18	C	0.800675	-0.380897	0.282749
C19	C	0.718874	-0.380906	0.282760
C20	C	0.444298	-0.431559	0.320210
C21	C	0.521158	-0.431552	0.320208
C22	C	0.540193	-0.330302	0.245311
C23	C	0.463333	-0.330314	0.245310
C24	C	0.415388	-0.380941	0.282763
C25	C	0.569108	-0.380923	0.282763
C26	C	0.652443	-0.380915	0.282760
C27	C	0.332047	-0.380950	0.282765
C28	C	0.953171	-0.586338	0.244029
C29	C	0.936680	-0.674216	0.227486
C30	C	1.117635	-0.962906	0.408663
C31	C	1.102115	-1.045481	0.393106
C32	C	1.008024	-1.045603	0.298877
C33	C	1.023538	-0.963026	0.314424
C34	C	1.078343	-0.921684	0.369318
C35	C	0.984247	-0.921804	0.275079
C36	C	0.999757	-0.839235	0.290628
C37	C	1.054558	-0.797887	0.345521
C38	C	1.093853	-0.839115	0.384867
C39	C	0.929438	-0.963148	0.220188
C40	C	0.890146	-0.921926	0.180844
C41	C	0.905660	-0.839355	0.196388
C42	C	0.960461	-0.798008	0.251282
C43	C	0.866365	-0.798128	0.157043
C44	C	0.881875	-0.715558	0.172591
C45	C	0.975971	-0.715438	0.266831
C46	C	1.183825	-0.380946	0.282763
C47	C	1.265621	-0.380957	0.282766
C48	C	0.991931	-0.380867	0.474719
C49	C	0.991955	-0.380844	0.556523
C50	C	1.030753	-0.174703	0.321650
C51	C	1.047320	-0.086824	0.338225
C52	C	0.991875	-0.380919	0.091550
C53	C	0.992036	-0.380719	0.009789
C54	C	1.048582	-0.330235	0.754266
C55	C	1.048595	-0.330212	0.831129
C56	C	0.935403	-0.431330	0.812040
C57	C	0.935388	-0.431349	0.735179
C58	C	0.991981	-0.380802	0.706294
C59	C	0.992010	-0.380761	0.860018
C60	C	0.992023	-0.380736	0.943356
C61	C	0.991967	-0.380826	0.622951
H62	H	1.020605	-0.681776	0.311526
Cl63	Cl	0.384026	-0.495207	0.367291
Cl64	Cl	1.151522	-1.097300	0.442570
H65	H	0.544692	-0.472771	0.350700
H66	H	0.963400	-1.079275	0.254183
H67	H	0.579239	-0.289082	0.214819
Cl68	Cl	1.162762	-0.787136	0.453870
H69	H	0.889328	-0.472485	0.835568
Cl70	Cl	0.426986	-0.266677	0.198227
H71	H	1.067186	-0.730654	0.358180
H72	H	0.889291	-0.472526	0.696119
H73	H	0.916804	-1.030381	0.207538
Cl74	Cl	1.186543	-0.910927	0.477666
H75	H	0.845522	-0.955598	0.136150
H76	H	0.821737	-0.831801	0.112353
H77	H	0.849879	-0.681995	0.140553
H78	H	1.094684	-0.289034	0.870185
Cl79	Cl	1.119725	-0.266688	0.717956
