data_functionalizedCrystal
_audit_creation_method	'MofGen! by Chris Wilmer'
_symmetry_space_group_name_H-M	'P1'
_symmetry_Int_Tables_number	1
_symmetry_cell_setting	triclinic
loop_
_symmetry_equiv_pos_as_xyz
  x,y,z
_cell_length_a	11.169417
_cell_length_b	16.625545
_cell_length_c	11.169409
_cell_angle_alpha	90.036260
_cell_angle_beta	89.980487
_cell_angle_gamma	89.974714
loop_
_atom_site_label
_atom_site_type_symbol
_atom_site_fract_x
_atom_site_fract_y
_atom_site_fract_z
Zn1	Zn	1.834848	0.320909	-0.678500
Zn2	Zn	1.834689	0.455771	-0.477803
Zn3	Zn	1.634134	0.320959	-0.477835
Zn4	Zn	1.634094	0.455707	-0.678449
O5	O	1.734441	0.388337	-0.578147
O6	O	2.002777	0.338805	-0.651885
O7	O	1.808036	0.437936	-0.309858
O8	O	1.660842	0.208120	-0.504489
O9	O	2.002660	0.437888	-0.504434
O10	O	1.808306	0.208084	-0.651916
O11	O	1.660689	0.338891	-0.309881
O12	O	1.466179	0.338828	-0.504440
O13	O	1.660773	0.437778	-0.846406
O14	O	1.466149	0.437826	-0.651830
O15	O	1.808267	0.338743	-0.846443
O16	O	1.807997	0.568595	-0.504384
O17	O	1.660620	0.568548	-0.651798
C18	C	1.422617	0.388326	-0.578133
C19	C	1.289217	0.388341	-0.578156
C20	C	1.734319	0.597828	-0.578109
C21	C	1.734377	0.687449	-0.578132
C22	C	1.734573	1.015624	-0.578276
C23	C	1.734514	0.924316	-0.578239
C24	C	1.734474	0.851539	-0.578203
C25	C	1.734417	0.760225	-0.578168
C26	C	2.047484	0.388348	-0.578161
C27	C	2.180884	0.388353	-0.578168
C28	C	1.734533	0.388247	-0.891190
C29	C	1.734573	0.388209	-1.024590
C30	C	1.734586	1.178028	-0.578226
C31	C	1.734622	1.088407	-0.578296
C32	C	1.734419	0.388368	-0.266322
C33	C	1.734612	0.388179	-0.132923
