data_functionalizedCrystal
_audit_creation_method	'MofGen! by Chris Wilmer'
_symmetry_space_group_name_H-M	'P1'
_symmetry_Int_Tables_number	1
_symmetry_cell_setting	triclinic
loop_
_symmetry_equiv_pos_as_xyz
  x,y,z
_cell_length_a	17.077404
_cell_length_b	21.295417
_cell_length_c	17.077396
_cell_angle_alpha	89.967856
_cell_angle_beta	89.980499
_cell_angle_gamma	90.029927
loop_
_atom_site_label
_atom_site_type_symbol
_atom_site_fract_x
_atom_site_fract_y
_atom_site_fract_z
Zn1	Zn	1.200017	-0.250605	-0.443823
Zn2	Zn	1.700017	0.249395	0.056177
Zn3	Zn	1.199909	-0.355878	-0.312548
Zn4	Zn	1.699909	0.144122	0.187452
Zn5	Zn	1.068749	-0.250628	-0.312571
Zn6	Zn	1.568749	0.249372	0.187429
Zn7	Zn	1.068702	-0.355841	-0.443772
Zn8	Zn	1.568702	0.144159	0.056228
O9	O	1.134344	-0.303238	-0.378178
O10	O	1.634344	0.196762	0.121822
O11	O	1.309850	-0.264577	-0.426421
O12	O	1.809850	0.235423	0.073579
O13	O	1.182485	-0.341942	-0.202704
O14	O	1.682485	0.158058	0.297296
O15	O	1.086228	-0.162535	-0.330012
O16	O	1.586228	0.337465	0.169988
O17	O	1.309770	-0.341920	-0.329974
O18	O	1.809770	0.158080	0.170026
O19	O	1.182670	-0.162519	-0.426442
O20	O	1.682670	0.337481	0.073558
O21	O	1.086122	-0.264614	-0.202721
O22	O	1.586122	0.235386	0.297279
O23	O	0.958896	-0.264578	-0.329963
O24	O	1.458896	0.235422	0.170037
O25	O	1.086146	-0.341856	-0.553626
O26	O	1.586146	0.158144	-0.053626
O27	O	0.958861	-0.341878	-0.426356
O28	O	1.458861	0.158122	0.073644
O29	O	1.182624	-0.264540	-0.553663
O30	O	1.682624	0.235460	-0.053663
O31	O	1.182439	-0.443963	-0.329925
O32	O	1.682439	0.056037	0.170075
O33	O	1.086041	-0.443935	-0.426334
O34	O	1.586041	0.056065	0.073666
C35	C	0.930396	-0.303227	-0.378157
C36	C	1.430396	0.196773	0.121843
C37	C	0.843147	-0.303237	-0.378166
C38	C	1.343147	0.196763	0.121834
C39	C	0.802159	-0.343548	-0.428277
C40	C	1.302159	0.156452	0.071723
C41	C	0.720178	-0.343549	-0.428290
C42	C	1.220178	0.156451	0.071710
C43	C	0.679187	-0.303242	-0.378187
C44	C	1.179187	0.196758	0.121813
C45	C	0.720181	-0.262927	-0.328073
C46	C	1.220181	0.237073	0.171927
C47	C	0.802160	-0.262923	-0.328065
C48	C	1.302160	0.237077	0.171935
C49	C	0.549311	-0.262940	-0.328092
C50	C	1.049311	0.237060	0.171908
C51	C	0.467326	-0.262944	-0.328099
C52	C	0.967326	0.237056	0.171901
C53	C	0.467329	-0.343566	-0.428317
C54	C	0.967329	0.156434	0.071683
C55	C	0.549308	-0.343562	-0.428309
C56	C	1.049308	0.156438	0.071691
C57	C	0.590296	-0.303247	-0.378194
C58	C	1.090296	0.196753	0.121806
C59	C	1.134244	-0.466790	-0.378139
C60	C	1.634244	0.033210	0.121861
C61	C	1.134273	-0.536758	-0.378148
C62	C	1.634273	-0.036758	0.121852
C63	C	1.184462	-0.569559	-0.428395
C64	C	1.684462	-0.069559	0.071605
C65	C	1.184490	-0.635301	-0.428414
C66	C	1.684490	-0.135301	0.071586
C67	C	1.134337	-0.668240	-0.378173
C68	C	1.634337	-0.168240	0.121827
C69	C	1.084138	-0.635431	-0.327922
C70	C	1.584138	-0.135431	0.172078
C71	C	1.084107	-0.569690	-0.327910
C72	C	1.584107	-0.069690	0.172090
N73	N	1.128408	-0.771504	-0.309474
N74	N	1.628408	-0.271504	0.190526
N75	N	1.128443	-0.833955	-0.309488
N76	N	1.628443	-0.333955	0.190512
C77	C	1.134429	-0.866315	-0.378208
C78	C	1.634429	-0.366315	0.121792
N79	N	1.140394	-0.833864	-0.446915
N80	N	1.640394	-0.333864	0.053085
N81	N	1.140363	-0.771407	-0.446900
N82	N	1.640363	-0.271407	0.053100
C83	C	1.134366	-0.739526	-0.378181
C84	C	1.634366	-0.239526	0.121819
C85	C	1.184650	-0.970402	-0.428480
C86	C	1.684650	-0.470402	0.071520
C87	C	1.184672	-1.036145	-0.428501
C88	C	1.684672	-0.536145	0.071499
C89	C	1.084325	-1.036274	-0.328002
C90	C	1.584325	-0.536274	0.171998
C91	C	1.084299	-0.970532	-0.327988
C92	C	1.584299	-0.470532	0.172012
C93	C	1.134465	-0.937599	-0.378226
C94	C	1.634465	-0.437599	0.121774
C95	C	1.339089	-0.303250	-0.378201
C96	C	1.839089	0.196750	0.121799
C97	C	1.426338	-0.303255	-0.378210
C98	C	1.926338	0.196745	0.121790
C99	C	1.134392	-0.303192	-0.582923
C100	C	1.634392	0.196808	-0.082923
C101	C	1.134412	-0.303172	-0.670173
C102	C	1.634412	0.196828	-0.170173
C103	C	1.134466	-0.139048	-0.378235
C104	C	1.634466	0.360952	0.121765
C105	C	1.134518	-0.069080	-0.378260
C106	C	1.634518	0.430920	0.121740
C107	C	1.184650	-0.262910	-0.711183
C108	C	1.684650	0.237090	-0.211183
C109	C	1.184659	-0.262889	-0.793164
C110	C	1.684659	0.237111	-0.293164
C111	C	1.134434	-0.303134	-0.834132
C112	C	1.634434	0.196866	-0.334132
C113	C	1.084191	-0.343397	-0.793116
C114	C	1.584191	0.156603	-0.293116
C115	C	1.084178	-0.343415	-0.711137
C116	C	1.584178	0.156585	-0.211137
C117	C	1.084223	-0.343360	-0.963986
C118	C	1.584223	0.156640	-0.463986
C119	C	1.084237	-0.343343	-1.045970
C120	C	1.584237	0.156657	-0.545970
C121	C	1.184703	-0.262834	-1.046013
C122	C	1.684703	0.237166	-0.546013
C123	C	1.184691	-0.262851	-0.964034
C124	C	1.684691	0.237149	-0.464034
C125	C	1.134448	-0.303116	-0.923023
C126	C	1.634448	0.196884	-0.423023
C127	C	1.134342	-0.303239	-0.174231
C128	C	1.634342	0.196761	0.325769
C129	C	1.134474	-0.303081	-0.086981
C130	C	1.634474	0.196919	0.413019
H131	H	0.686799	-0.230106	-0.287282
H132	H	1.186799	0.269894	0.212718
O133	O	1.233548	-0.223843	-0.924193
O134	O	1.733548	0.276157	-0.424193
C135	C	1.339457	-0.215381	-0.831590
C136	C	1.839457	0.284619	-0.331590
C137	C	1.284199	-0.259635	-0.876680
C138	C	1.784199	0.240365	-0.376680
H139	H	1.380412	-0.244300	-0.793152
H140	H	1.880412	0.255700	-0.293152
H141	H	1.375425	-0.186600	-0.874936
H142	H	1.875425	0.313400	-0.374936
H143	H	1.303396	-0.182469	-0.793258
H144	H	1.803396	0.317531	-0.293258
H145	H	1.320199	-0.292585	-0.915013
H146	H	1.820199	0.207415	-0.415013
H147	H	1.248228	-0.288371	-0.833291
H148	H	1.748228	0.211629	-0.333291
O149	O	0.589095	-0.223850	-0.279295
O150	O	1.089095	0.276150	0.220705
C151	C	0.614105	-0.193146	-0.145835
C152	C	1.114105	0.306854	0.354165
C153	C	0.569013	-0.237456	-0.201010
C154	C	1.069013	0.262544	0.298990
H155	H	0.597873	-0.204122	-0.082531
H156	H	1.097873	0.295878	0.417469
H157	H	0.679747	-0.200071	-0.154368
H158	H	1.179747	0.299929	0.345632
H159	H	0.598036	-0.142403	-0.159769
H160	H	1.098036	0.357597	0.340231
H161	H	0.585016	-0.288216	-0.187109
H162	H	1.085016	0.211784	0.312891
H163	H	0.503382	-0.230476	-0.192467
H164	H	1.003382	0.269524	0.307533
H165	H	1.043298	-0.376137	-0.930597
H166	H	1.543298	0.123863	-0.430597
O167	O	1.233425	-0.223732	-1.085968
O168	O	1.733425	0.276268	-0.585968
C169	C	1.277988	-0.188034	-1.212281
C170	C	1.777988	0.311966	-0.712281
C171	C	1.222762	-0.232336	-1.167126
C172	C	1.722762	0.267664	-0.667126
H173	H	1.269398	-0.194984	-1.277904
H174	H	1.769398	0.305016	-0.777904
H175	H	1.264232	-0.137266	-1.196228
H176	H	1.764232	0.362734	-0.696228
H177	H	1.341267	-0.199084	-1.196130
H178	H	1.841267	0.300916	-0.696130
H179	H	1.159464	-0.221342	-1.183253
H180	H	1.659464	0.278658	-0.683253
H181	H	1.236586	-0.283090	-1.183182
H182	H	1.736586	0.216910	-0.683182
O183	O	1.233287	-0.667238	-0.477119
O184	O	1.733287	-0.167238	0.022881
C185	C	1.339335	-0.741344	-0.487784
C186	C	1.839335	-0.241344	0.012216
C187	C	1.284109	-0.705232	-0.432538
C188	C	1.784109	-0.205232	0.067462
H189	H	1.380450	-0.772061	-0.451762
H190	H	1.880450	-0.272061	0.048238
H191	H	1.303335	-0.772168	-0.528794
H192	H	1.803335	-0.272168	-0.028794
H193	H	1.375142	-0.706496	-0.523703
H194	H	1.875142	-0.206496	-0.023703
H195	H	1.248291	-0.740035	-0.396568
H196	H	1.748291	-0.240035	0.103432
H197	H	1.320154	-0.674399	-0.391580
H198	H	1.820154	-0.174399	0.108420
H199	H	1.043302	-0.662255	-0.287017
H200	H	1.543302	-0.162255	0.212983
O201	O	1.035514	-0.382557	-0.832945
O202	O	1.535514	0.117443	-0.332945
C203	C	1.024903	-0.467501	-0.925504
C204	C	1.524903	0.032499	-0.425504
C205	C	1.080118	-0.423199	-0.880434
C206	C	1.580118	0.076801	-0.380434
H207	H	1.060942	-0.500362	-0.963922
H208	H	1.560942	-0.000362	-0.463922
H209	H	0.989006	-0.496326	-0.882145
H210	H	1.489006	0.003674	-0.382145
H211	H	0.983872	-0.438575	-0.963855
H212	H	1.483872	0.061425	-0.463855
H213	H	1.121197	-0.452076	-0.842083
H214	H	1.621197	0.047924	-0.342083
H215	H	1.115960	-0.394372	-0.923836
H216	H	1.615960	0.105628	-0.423836
O217	O	0.427397	-0.382666	-0.476978
O218	O	0.927397	0.117334	0.023022
C219	C	0.301105	-0.418429	-0.521379
C220	C	0.801105	0.081571	-0.021379
C221	C	0.346234	-0.374105	-0.466250
C222	C	0.846234	0.125895	0.033750
H223	H	0.235477	-0.411532	-0.512713
H224	H	0.735477	0.088468	-0.012713
H225	H	0.317203	-0.407440	-0.584715
H226	H	0.817203	0.092560	-0.084715
H227	H	0.317233	-0.469165	-0.507481
H228	H	0.817233	0.030835	-0.007481
H229	H	0.330130	-0.323354	-0.480077
H230	H	0.830130	0.176646	0.019923
H231	H	0.330132	-0.385148	-0.402930
H232	H	0.830132	0.114852	0.097070
O233	O	0.680454	-0.382684	-0.477071
O234	O	1.180454	0.117316	0.022929
C235	C	0.655387	-0.413377	-0.610525
C236	C	1.155387	0.086623	-0.110525
C237	C	0.700435	-0.369023	-0.555368
C238	C	1.200435	0.130977	-0.055368
H239	H	0.671513	-0.402339	-0.673840
H240	H	1.171513	0.097661	-0.173840
H241	H	0.671492	-0.464127	-0.596673
H242	H	1.171492	0.035873	-0.096673
H243	H	0.589757	-0.406472	-0.601891
H244	H	1.089757	0.093528	-0.101891
H245	H	0.766076	-0.375872	-0.563971
H246	H	1.266076	0.124128	-0.063971
H247	H	0.684265	-0.318289	-0.569233
H248	H	1.184265	0.181711	-0.069233
O249	O	1.035363	-0.382593	-0.671417
O250	O	1.535363	0.117407	-0.171417
C251	C	0.935701	-0.462433	-0.680021
C252	C	1.435701	0.037567	-0.180021
C253	C	0.990957	-0.418104	-0.725099
C254	C	1.490957	0.081896	-0.225099
H255	H	0.899772	-0.491147	-0.723404
H256	H	1.399772	0.008853	-0.223404
H257	H	0.971682	-0.495398	-0.641662
H258	H	1.471682	0.004602	-0.141662
H259	H	0.894702	-0.433536	-0.641618
H260	H	1.394702	0.066464	-0.141618
H261	H	1.031967	-0.446951	-0.763546
H262	H	1.531967	0.053049	-0.263546
H263	H	0.954927	-0.385138	-0.763409
H264	H	1.454927	0.114862	-0.263409
O265	O	1.035270	-0.537796	-0.279206
O266	O	1.535270	-0.037796	0.220794
C267	C	0.929298	-0.463622	-0.268532
C268	C	1.429298	0.036378	0.231468
C269	C	0.984541	-0.499715	-0.323779
C270	C	1.484541	0.000285	0.176221
H271	H	0.888280	-0.432814	-0.304546
H272	H	1.388280	0.067186	0.195454
H273	H	0.893395	-0.498425	-0.232640
H274	H	1.393395	0.001575	0.267360
H275	H	0.965364	-0.432871	-0.227497
H276	H	1.465364	0.067129	0.272503
H277	H	0.948535	-0.530467	-0.364861
H278	H	1.448535	-0.030467	0.135139
H279	H	1.020447	-0.464877	-0.359616
H280	H	1.520447	0.035123	0.140384
H281	H	0.835531	-0.230095	-0.287263
H282	H	1.335531	0.269905	0.212737
H283	H	1.225542	-1.062851	-0.469422
H284	H	1.725542	-0.562851	0.030578
O285	O	1.035491	-1.068233	-0.279280
O286	O	1.535491	-0.568233	0.220720
C287	C	0.901997	-1.088429	-0.241029
C288	C	1.401997	-0.588429	0.258971
C289	C	0.957217	-1.052206	-0.296265
C290	C	1.457217	-0.552206	0.203735
H291	H	0.838702	-1.075475	-0.254730
H292	H	1.338702	-0.575475	0.245270
H293	H	0.910566	-1.141059	-0.249670
H294	H	1.410566	-0.641059	0.250330
H295	H	0.915852	-1.075537	-0.177748
H296	H	1.415852	-0.575537	0.322252
H297	H	0.943396	-1.065045	-0.359567
H298	H	1.443396	-0.565045	0.140433
H299	H	0.948637	-0.999584	-0.287556
H300	H	1.448637	-0.499584	0.212444
H301	H	0.835528	-0.376372	-0.469075
H302	H	1.335528	0.123628	0.030925
H303	H	0.582681	-0.376386	-0.469103
H304	H	1.082681	0.123614	0.030897
O305	O	1.233328	-0.223783	-0.671306
O306	O	1.733328	0.276217	-0.171306
C307	C	1.243929	-0.138783	-0.578826
C308	C	1.743929	0.361217	-0.078826
C309	C	1.188715	-0.183069	-0.623920
C310	C	1.688715	0.316931	-0.123920
H311	H	1.207881	-0.105847	-0.540517
H312	H	1.707881	0.394153	-0.040517
H313	H	1.284938	-0.167655	-0.540388
H314	H	1.784938	0.332345	-0.040388
H315	H	1.279851	-0.110032	-0.622240
H316	H	1.779851	0.389968	-0.122240
H317	H	1.152743	-0.211830	-0.580563
H318	H	1.652743	0.288170	-0.080563
H319	H	1.147758	-0.154161	-0.662370
H320	H	1.647758	0.345839	-0.162370
O321	O	1.233393	-0.938504	-0.477364
O322	O	1.733393	-0.438504	0.022636
C323	C	1.332944	-0.945313	-0.577026
C324	C	1.832944	-0.445313	-0.077026
C325	C	1.277774	-0.981513	-0.521715
C326	C	1.777774	-0.481513	-0.021715
H327	H	1.368852	-0.980070	-0.612887
H328	H	1.868852	-0.480070	-0.112887
H329	H	1.296898	-0.914555	-0.618080
H330	H	1.796898	-0.414555	-0.118080
H331	H	1.373967	-0.914508	-0.541012
H332	H	1.873967	-0.414508	-0.041012
H333	H	1.236741	-1.012352	-0.557666
H334	H	1.736741	-0.512352	-0.057666
H335	H	1.313869	-1.012231	-0.480660
H336	H	1.813869	-0.512231	0.019340
H337	H	1.043434	-0.943823	-0.287069
H338	H	1.543434	-0.443823	0.212931
H339	H	1.225309	-0.542747	-0.469304
H340	H	1.725309	-0.042747	0.030696
H341	H	1.043338	-0.376113	-1.079324
H342	H	1.543338	0.123887	-0.579324
O343	O	1.233424	-0.223690	-0.832910
O344	O	1.733424	0.276310	-0.332910
C345	C	1.271588	-0.116606	-0.858053
C346	C	1.771588	0.383394	-0.358053
C347	C	1.216322	-0.160932	-0.812983
C348	C	1.716322	0.339068	-0.312983
H349	H	1.257770	-0.065856	-0.841971
H350	H	1.757770	0.434144	-0.341971
H351	H	1.334884	-0.127619	-0.841924
H352	H	1.834884	0.372381	-0.341924
H353	H	1.262988	-0.123529	-0.923680
H354	H	1.762988	0.376471	-0.423680
H355	H	1.224853	-0.154033	-0.747345
H356	H	1.724853	0.345967	-0.247345
H357	H	1.153046	-0.149908	-0.829177
H358	H	1.653046	0.350092	-0.329177
H359	H	0.433953	-0.230115	-0.287310
H360	H	0.933953	0.269885	0.212690
