data_functionalizedCrystal
_audit_creation_method	'MofGen! by Chris Wilmer'
_symmetry_space_group_name_H-M	'P1'
_symmetry_Int_Tables_number	1
_symmetry_cell_setting	triclinic
loop_
_symmetry_equiv_pos_as_xyz
  x,y,z
_cell_length_a	6.817900
_cell_length_b	19.453067
_cell_length_c	19.453030
_cell_angle_alpha	96.315599
_cell_angle_beta	101.707737
_cell_angle_gamma	101.708464
loop_
_atom_site_label
_atom_site_type_symbol
_atom_site_fract_x
_atom_site_fract_y
_atom_site_fract_z
V1	V	-3.997975	-0.097913	-0.219325
O2	O	-3.995081	0.003953	-0.214817
O3	O	-3.940989	-0.193422	-0.218146
O4	O	-3.940988	-0.096737	-0.314834
O5	O	-3.995082	-0.093401	-0.117459
V6	V	-4.483828	-0.085690	-0.207102
O7	O	-4.254122	-0.124726	-0.246137
O8	O	-4.677878	-0.058877	-0.180290
O9	O	-4.317607	0.009819	-0.208281
O10	O	-4.604118	-0.187556	-0.211611
O11	O	-4.604117	-0.090202	-0.308968
O12	O	-4.317608	-0.086866	-0.111593
C13	C	-3.784179	-0.216694	-0.214769
C14	C	-3.818816	-0.294776	-0.214441
C15	C	-4.034518	-0.841951	-0.147825
C16	C	-4.001954	-0.768584	-0.148126
C17	C	-4.017275	-0.742101	-0.212595
C18	C	-4.065113	-0.788992	-0.276767
C19	C	-4.097655	-0.862357	-0.276464
N20	N	-4.103219	-0.636813	-0.263556
N21	N	-4.072308	-0.567119	-0.263839
C22	C	-3.919226	-0.521056	-0.213511
N23	N	-3.798243	-0.547320	-0.162879
N24	N	-3.829165	-0.617021	-0.162593
C25	C	-3.981991	-0.662550	-0.212930
C26	C	-3.836071	-0.394622	-0.149669
C27	C	-3.803496	-0.321253	-0.149972
C28	C	-3.866677	-0.341663	-0.278615
C29	C	-3.899230	-0.415030	-0.278310
C30	C	-3.883934	-0.441504	-0.213835
C31	C	-3.784177	-0.093363	-0.338103
C32	C	-3.818810	-0.093033	-0.416184
C33	C	-3.868531	-0.157236	-0.463104
C34	C	-3.901096	-0.156934	-0.536471
C35	C	-3.883897	-0.092424	-0.562915
C36	C	-3.834179	-0.028213	-0.515985
C37	C	-3.801636	-0.028517	-0.442620
N38	N	-3.796768	-0.041846	-0.668240
N39	N	-3.827681	-0.041562	-0.737934
C40	C	-3.981951	-0.091503	-0.783959
N41	N	-4.104122	-0.141751	-0.757657
N42	N	-4.073198	-0.142038	-0.687957
C43	C	-3.919183	-0.092087	-0.642465
C44	C	-4.066988	-0.155383	-0.910432
C45	C	-4.099565	-0.155079	-0.983800
C46	C	-4.032626	-0.026355	-0.963312
C47	C	-4.000071	-0.026662	-0.889946
C48	C	-4.017245	-0.091178	-0.863510
C49	C	-4.137758	0.033088	-0.211657
C50	C	-4.082359	0.111168	-0.211989
C51	C	-4.137761	-0.090242	-0.088320
C52	C	-4.082366	-0.090568	-0.010239
H53	H	-4.077581	-0.767425	-0.329258
H54	H	-4.140067	-0.207363	-1.022003
C55	C	-3.955789	-0.227565	-0.588092
N56	N	-3.996979	-0.280764	-0.626970
C57	C	-4.013710	0.044606	-0.992396
N58	N	-3.999468	0.098056	-1.014305
C59	C	-3.815250	0.042748	-0.545074
N60	N	-3.800993	0.096198	-0.566984
C61	C	-3.945338	0.043968	-0.838331
N62	N	-3.904111	0.097170	-0.799455
H63	H	-3.879142	-0.320102	-0.331107
H64	H	-4.022055	-0.863501	-0.095324
H65	H	-3.938198	-0.453201	-0.330559
C66	C	-3.887458	-0.228206	-0.434030
N67	N	-3.901724	-0.281662	-0.412131
H68	H	-3.962985	-0.730406	-0.095874
H69	H	-4.136610	-0.900528	-0.328715
H70	H	-3.823602	-0.416178	-0.097169
C71	C	-3.746917	0.042114	-0.391006
N72	N	-3.705693	0.095316	-0.352129
C73	C	-3.750852	-0.269683	-0.079382
N74	N	-3.711198	-0.230840	-0.026212
H75	H	-4.080976	-0.207916	-0.888907
