data_functionalizedCrystal
_audit_creation_method	'MofGen! by Chris Wilmer'
_symmetry_space_group_name_H-M	'P1'
_symmetry_Int_Tables_number	1
_symmetry_cell_setting	triclinic
loop_
_symmetry_equiv_pos_as_xyz
  x,y,z
_cell_length_a	14.519731
_cell_length_b	19.188924
_cell_length_c	13.596369
_cell_angle_alpha	90.008056
_cell_angle_beta	90.005416
_cell_angle_gamma	83.415409
loop_
_atom_site_label
_atom_site_type_symbol
_atom_site_fract_x
_atom_site_fract_y
_atom_site_fract_z
O1	O	1.223284	0.091596	0.081798
O2	O	1.723284	0.591596	0.581798
O3	O	0.954743	0.102358	0.081800
O4	O	1.454743	0.602358	0.581800
O5	O	1.096766	-0.004651	0.081788
O6	O	1.596766	0.495349	0.581788
O7	O	1.081261	0.198605	0.081811
O8	O	1.581261	0.698605	0.581811
O9	O	1.096752	-0.004657	-0.081795
O10	O	1.596752	0.495343	0.418205
O11	O	0.954729	0.102352	-0.081783
O12	O	1.454729	0.602352	0.418217
O13	O	1.223270	0.091590	-0.081785
O14	O	1.723270	0.591590	0.418215
Zn15	Zn	1.088997	0.096970	-0.107756
Zn16	Zn	1.588997	0.596970	0.392244
Zn17	Zn	1.089016	0.096978	0.107771
Zn18	Zn	1.589016	0.596978	0.607771
O19	O	1.081247	0.198599	-0.081772
O20	O	1.581247	0.698599	0.418228
C21	C	0.920380	0.101851	0.000009
C22	C	1.420380	0.601851	0.500009
C23	C	0.818009	0.100340	0.000009
C24	C	1.318009	0.600340	0.500009
C25	C	0.734872	0.099112	0.000013
C26	C	1.234872	0.599112	0.500013
C27	C	0.630573	0.097578	0.000013
C28	C	1.130573	0.597578	0.500013
C29	C	0.547442	0.096360	0.000013
C30	C	1.047442	0.596360	0.500013
C31	C	0.443136	0.094826	0.000015
C32	C	0.943136	0.594826	0.500015
C33	C	1.096258	-0.030667	-0.000005
C34	C	1.596258	0.469333	0.499995
C35	C	1.094754	-0.108177	-0.000007
C36	C	1.594754	0.391823	0.499993
C37	C	1.094060	-0.144575	0.089162
C38	C	1.594060	0.355425	0.589162
C39	C	1.092633	-0.217403	0.089169
C40	C	1.592633	0.282597	0.589169
C41	C	1.091920	-0.253832	0.000002
C42	C	1.591920	0.246168	0.500002
C43	C	1.092609	-0.217424	-0.089179
C44	C	1.592609	0.282576	0.410821
C45	C	1.094026	-0.144597	-0.089184
C46	C	1.594026	0.355403	0.410816
N47	N	1.142169	-0.373316	-0.066363
N48	N	1.642169	0.126684	0.433637
N49	N	1.140825	-0.442499	-0.066352
N50	N	1.640825	0.057501	0.433648
C51	C	1.087648	-0.473256	0.000012
C52	C	1.587648	0.026744	0.500012
N53	N	1.035878	-0.432219	0.066380
N54	N	1.535878	0.067781	0.566380
N55	N	1.037227	-0.363030	0.066372
N56	N	1.537227	0.136970	0.566372
C57	C	1.090383	-0.332801	-0.000002
C58	C	1.590383	0.167199	0.499998
C59	C	1.085406	-0.588623	0.089195
C60	C	1.585406	-0.088623	0.589195
C61	C	1.083974	-0.661452	0.089199
C62	C	1.583974	-0.161452	0.589199
C63	C	1.083959	-0.661472	-0.089151
C64	C	1.583959	-0.161472	0.410849
C65	C	1.085382	-0.588644	-0.089152
C66	C	1.585382	-0.088644	0.410848
C67	C	1.086110	-0.552224	0.000024
C68	C	1.586110	-0.052224	0.500024
C69	C	1.257634	0.092097	0.000009
C70	C	1.757634	0.592097	0.500009
C71	C	1.360004	0.093608	0.000015
C72	C	1.860004	0.593608	0.500015
C73	C	1.081755	0.224615	0.000022
C74	C	1.581755	0.724615	0.500022
C75	C	1.083259	0.302125	0.000032
C76	C	1.583259	0.802125	0.500032
N77	N	1.088991	0.096965	-0.254848
N78	N	1.588991	0.596965	0.245152
C79	C	1.089015	0.096978	-0.656139
C80	C	1.589015	0.596978	-0.156139
C81	C	1.089005	0.096977	-0.544487
C82	C	1.589005	0.596977	-0.044487
C83	C	1.089003	0.096972	-0.455497
C84	C	1.589003	0.596972	0.044503
C85	C	1.088993	0.096970	-0.343838
C86	C	1.588993	0.596970	0.156162
N87	N	1.089029	0.096978	0.254863
N88	N	1.589029	0.596978	0.754863
H89	H	1.094650	-0.114927	0.161776
H90	H	1.594650	0.385073	0.661776
H91	H	1.085993	-0.558968	0.161808
H92	H	1.585993	-0.058968	0.661808
H93	H	1.094588	-0.114961	-0.161798
H94	H	1.594588	0.385039	0.338202
H95	H	1.092062	-0.247044	0.161784
H96	H	1.592062	0.252956	0.661784
Br97	Br	1.083021	-0.710850	0.210226
Br98	Br	1.583021	-0.210850	0.710226
Br99	Br	1.082981	-0.710902	-0.210166
Br100	Br	1.582981	-0.210902	0.289834
Br101	Br	1.086320	-0.539242	-0.210175
Br102	Br	1.586320	-0.039242	0.289825
H103	H	1.092026	-0.247089	-0.161779
H104	H	1.592026	0.252911	0.338221
