data_functionalizedCrystal
_audit_creation_method	'MofGen! by Chris Wilmer'
_symmetry_space_group_name_H-M	'P1'
_symmetry_Int_Tables_number	1
_symmetry_cell_setting	triclinic
loop_
_symmetry_equiv_pos_as_xyz
  x,y,z
_cell_length_a	9.065218
_cell_length_b	9.065218
_cell_length_c	7.540329
_cell_angle_alpha	89.998243
_cell_angle_beta	89.996962
_cell_angle_gamma	85.015885
loop_
_atom_site_label
_atom_site_type_symbol
_atom_site_fract_x
_atom_site_fract_y
_atom_site_fract_z
O1	O	1.960398	0.216355	-0.147479
O2	O	2.293732	0.549688	0.185854
O3	O	2.627065	0.883021	0.519188
O4	O	1.531114	0.234101	-0.147481
O5	O	1.864447	0.567434	0.185852
O6	O	2.197780	0.900768	0.519186
O7	O	1.754629	0.010585	-0.147476
O8	O	2.087963	0.343919	0.185857
O9	O	2.421296	0.677252	0.519190
O10	O	1.736883	0.439870	-0.147484
O11	O	2.070216	0.773204	0.185850
O12	O	2.403549	1.106537	0.519183
O13	O	1.754616	0.010583	0.147489
O14	O	2.087949	0.343916	0.480822
O15	O	2.421282	0.677249	0.814155
O16	O	1.531100	0.234098	0.147484
O17	O	1.864433	0.567432	0.480817
O18	O	2.197767	0.900765	0.814151
O19	O	1.960385	0.216352	0.147486
O20	O	2.293718	0.549685	0.480819
O21	O	2.627052	0.883018	0.814153
Cu22	Cu	1.745741	0.225225	0.174418
Cu23	Cu	2.079075	0.558558	0.507751
Cu24	Cu	2.412408	0.891891	0.841084
Cu25	Cu	1.745757	0.225228	-0.174413
Cu26	Cu	2.079091	0.558562	0.158921
Cu27	Cu	2.412424	0.891895	0.492254
O28	O	1.736869	0.439867	0.147481
O29	O	2.070203	0.773201	0.480815
O30	O	2.403536	1.106534	0.814148
C31	C	1.476120	0.232394	0.000001
C32	C	1.809454	0.565727	0.333335
C33	C	2.142787	0.899061	0.666668
C34	C	1.312277	0.227294	0.000000
C35	C	1.645611	0.560628	0.333334
C36	C	1.978944	0.893961	0.666667
C37	C	1.752917	-0.044403	0.000003
C38	C	2.086250	0.288931	0.333337
C39	C	2.419584	0.622264	0.666670
C40	C	1.747817	-0.208245	-0.000005
C41	C	2.081151	0.125088	0.333328
C42	C	2.414484	0.458421	0.666661
C43	C	2.015378	0.218059	-0.000000
C44	C	2.348712	0.551392	0.333333
C45	C	2.682045	0.884725	0.666667
C46	C	2.179221	0.223158	-0.000011
C47	C	2.512555	0.556492	0.333322
C48	C	2.845888	0.889825	0.666656
C49	C	1.738582	0.494855	-0.000002
C50	C	2.071915	0.828189	0.333331
C51	C	2.405248	1.161522	0.666665
C52	C	1.743681	0.658698	-0.000005
C53	C	2.077015	0.992032	0.333328
C54	C	2.410348	1.325365	0.666661
N55	N	1.745741	0.225222	0.419766
N56	N	2.079074	0.558555	0.753100
N57	N	2.412408	0.891888	1.086433
N58	N	1.745769	0.225220	-0.419761
N59	N	2.079103	0.558553	-0.086428
N60	N	2.412436	0.891887	0.246906
