data_functionalizedCrystal
_audit_creation_method	'MofGen! by Chris Wilmer'
_symmetry_space_group_name_H-M	'P1'
_symmetry_Int_Tables_number	1
_symmetry_cell_setting	triclinic
loop_
_symmetry_equiv_pos_as_xyz
  x,y,z
_cell_length_a	14.971475
_cell_length_b	17.038272
_cell_length_c	13.448316
_cell_angle_alpha	89.993314
_cell_angle_beta	90.005879
_cell_angle_gamma	92.639383
loop_
_atom_site_label
_atom_site_type_symbol
_atom_site_fract_x
_atom_site_fract_y
_atom_site_fract_z
O1	O	-1.194580	0.101857	-0.082673
O2	O	-0.861246	0.435190	0.250661
O3	O	-0.527913	0.768523	0.583994
O4	O	-0.935092	0.114068	-0.082679
O5	O	-0.601759	0.447401	0.250654
O6	O	-0.268426	0.780735	0.583988
O7	O	-1.063294	-0.005855	-0.082668
O8	O	-0.729960	0.327479	0.250665
O9	O	-0.396627	0.660812	0.583999
O10	O	-1.066378	0.221780	-0.082684
O11	O	-0.733045	0.555113	0.250650
O12	O	-0.399711	0.888446	0.583983
O13	O	-1.063276	-0.005862	0.082716
O14	O	-0.729943	0.327471	0.416049
O15	O	-0.396609	0.660805	0.749382
O16	O	-0.935075	0.114061	0.082705
O17	O	-0.601741	0.447394	0.416038
O18	O	-0.268408	0.780727	0.749371
O19	O	-1.194562	0.101849	0.082711
O20	O	-0.861228	0.435183	0.416045
O21	O	-0.527895	0.768516	0.749378
Cu22	Cu	-1.064817	0.107954	0.097809
Cu23	Cu	-0.731483	0.441288	0.431142
Cu24	Cu	-0.398150	0.774621	0.764476
Cu25	Cu	-1.064838	0.107963	-0.097777
Cu26	Cu	-0.731504	0.441296	0.235557
Cu27	Cu	-0.398171	0.774630	0.568890
O28	O	-1.066360	0.221772	0.082700
O29	O	-0.733027	0.555105	0.416033
O30	O	-0.399694	0.888439	0.749367
C31	C	-0.901718	0.113520	0.000012
C32	C	-0.568384	0.446853	0.333345
C33	C	-0.235051	0.780186	0.666679
C34	C	-0.802298	0.111888	0.000010
C35	C	-0.468965	0.445221	0.333343
C36	C	-0.135631	0.778554	0.666676
C37	C	-0.755586	0.111115	0.090161
C38	C	-0.422253	0.444449	0.423495
C39	C	-0.088919	0.777782	0.756828
C40	C	-0.662171	0.109569	0.090162
C41	C	-0.328838	0.442903	0.423495
C42	C	0.004495	0.776236	0.756829
C43	C	-0.615470	0.108802	0.000010
C44	C	-0.282137	0.442135	0.333343
C45	C	0.051196	0.775468	0.666677
C46	C	-0.662189	0.109572	-0.090149
C47	C	-0.328856	0.442905	0.243185
C48	C	0.004478	0.776239	0.576518
C49	C	-0.755602	0.111112	-0.090148
C50	C	-0.422269	0.444446	0.243185
C51	C	-0.088936	0.777779	0.576518
C52	C	-0.467486	0.106364	-0.090143
C53	C	-0.134153	0.439697	0.243190
C54	C	0.199180	0.773030	0.576523
C55	C	-0.374066	0.104825	-0.090144
C56	C	-0.040733	0.438158	0.243189
C57	C	0.292600	0.771491	0.576523
C58	C	-0.374055	0.104821	0.090167
C59	C	-0.040722	0.438154	0.423500
C60	C	0.292611	0.771487	0.756833
C61	C	-0.467469	0.106361	0.090167
C62	C	-0.134135	0.439694	0.423501
C63	C	0.199198	0.773027	0.756834
C64	C	-0.514181	0.107133	0.000008
C65	C	-0.180848	0.440466	0.333342
C66	C	0.152486	0.773799	0.666675
C67	C	-1.060480	-0.034990	0.000024
C68	C	-0.727146	0.298344	0.333357
C69	C	-0.393813	0.631677	0.666690
C70	C	-1.052110	-0.121792	0.000023
C71	C	-0.718776	0.211541	0.333357
C72	C	-0.385443	0.544874	0.666690
C73	C	-1.128954	-0.171820	0.000026
C74	C	-0.795620	0.161514	0.333360
C75	C	-0.462287	0.494847	0.666693
C76	C	-1.121084	-0.253379	0.000017
C77	C	-0.787751	0.079954	0.333350
C78	C	-0.454418	0.413288	0.666683
C79	C	-1.036370	-0.284909	0.000011
C80	C	-0.703036	0.048424	0.333344
C81	C	-0.369703	0.381757	0.666678
C82	C	-0.959520	-0.234876	0.000005
C83	C	-0.626187	0.098458	0.333338
C84	C	-0.292853	0.431791	0.666672
C85	C	-0.967390	-0.153318	0.000008
C86	C	-0.634057	0.180015	0.333341
C87	C	-0.300724	0.513349	0.666674
C88	C	-1.008565	-0.530699	-0.000003
C89	C	-0.675232	-0.197365	0.333330
C90	C	-0.341898	0.135968	0.666663
C91	C	-1.000700	-0.612263	-0.000003
C92	C	-0.667367	-0.278930	0.333331
C93	C	-0.334034	0.054404	0.666664
C94	C	-1.162265	-0.630761	0.000007
C95	C	-0.828932	-0.297427	0.333340
C96	C	-0.495599	0.035906	0.666673
C97	C	-1.170128	-0.549200	0.000015
C98	C	-0.836795	-0.215867	0.333349
C99	C	-0.503462	0.117466	0.666682
C100	C	-1.093279	-0.499174	0.000004
C101	C	-0.759945	-0.165841	0.333337
C102	C	-0.426612	0.167493	0.666671
C103	C	-1.028324	-0.368276	0.000004
C104	C	-0.694990	-0.034943	0.333338
C105	C	-0.361657	0.298391	0.666671
C106	C	-1.101325	-0.415809	0.000004
C107	C	-0.767992	-0.082476	0.333337
C108	C	-0.434659	0.250858	0.666670
C109	C	-0.227936	0.102403	0.000016
C110	C	0.105397	0.435737	0.333350
C111	C	0.438731	0.769070	0.666683
C112	C	-0.327354	0.104052	0.000007
C113	C	0.005979	0.437385	0.333341
C114	C	0.339312	0.770719	0.666674
C115	C	-1.069175	0.250907	0.000006
C116	C	-0.735841	0.584241	0.333340
C117	C	-0.402508	0.917574	0.666673
C118	C	-1.077544	0.337710	0.000000
C119	C	-0.744211	0.671043	0.333334
C120	C	-0.410878	1.004376	0.666667
N121	N	-1.064808	0.107948	0.235373
N122	N	-0.731475	0.441281	0.568706
N123	N	-0.398142	0.774614	0.902040
N124	N	-1.064853	0.107964	-0.235341
N125	N	-0.731519	0.441297	0.097992
N126	N	-0.398186	0.774630	0.431326
C127	C	-1.121596	0.054868	0.287418
C128	C	-0.788263	0.388201	0.620752
C129	C	-0.454930	0.721534	0.954085
C130	C	-1.121602	0.054867	0.391522
C131	C	-0.788268	0.388200	0.724855
C132	C	-0.454935	0.721534	1.058188
C133	C	-1.064823	0.107951	0.443578
C134	C	-0.731490	0.441284	0.776911
C135	C	-0.398157	0.774617	1.110244
C136	C	-1.008029	0.161033	0.391525
C137	C	-0.674695	0.494367	0.724858
C138	C	-0.341362	0.827700	1.058192
C139	C	-1.008019	0.161030	0.287424
C140	C	-0.674686	0.494363	0.620757
C141	C	-0.341353	0.827696	0.954090
C142	C	-1.008054	0.161039	0.608505
C143	C	-0.674721	0.494372	0.941839
C144	C	-0.341387	0.827705	1.275172
C145	C	-1.008064	0.161043	0.712614
C146	C	-0.674731	0.494377	1.045947
C147	C	-0.341398	0.827710	1.379280
C148	C	-1.121637	0.054876	0.712603
C149	C	-0.788303	0.388209	1.045936
C150	C	-0.454970	0.721543	1.379270
C151	C	-1.121627	0.054872	0.608502
C152	C	-0.788294	0.388206	0.941835
C153	C	-0.454960	0.721539	1.275168
C154	C	-1.064834	0.107956	0.556456
C155	C	-0.731500	0.441289	0.889790
C156	C	-0.398167	0.774623	1.223123
H157	H	-0.336018	0.104192	0.163577
H158	H	-0.002685	0.437526	0.496911
H159	H	0.330649	0.770859	0.830244
H160	H	-0.931712	-0.637931	0.000009
H161	H	-0.598379	-0.304598	0.333342
H162	H	-0.265046	0.028735	0.666675
H163	H	-1.167836	0.011644	0.245041
H164	H	-0.834503	0.344978	0.578375
H165	H	-0.501169	0.678311	0.911708
H166	H	-0.505516	0.106992	-0.163560
H167	H	-0.172183	0.440326	0.169773
H168	H	0.161150	0.773659	0.503106
H169	H	-1.167879	0.011654	0.754984
H170	H	-0.834546	0.344987	1.088318
H171	H	-0.501213	0.678320	1.421651
H172	H	-1.224832	-0.671501	0.000014
H173	H	-0.891498	-0.338167	0.333347
H174	H	-0.558165	-0.004834	0.666681
Br175	Br	-1.285102	-0.506415	-0.000009
Br176	Br	-0.951769	-0.173082	0.333324
Br177	Br	-0.618435	0.160252	0.666658
Br178	Br	-0.904268	-0.462816	-0.000025
Br179	Br	-0.570934	-0.129482	0.333309
Br180	Br	-0.237601	0.203851	0.666642
Br181	Br	-0.930940	0.233065	0.216791
Br182	Br	-0.597607	0.566398	0.550124
Br183	Br	-0.264273	0.899731	0.883457
Br184	Br	-0.931004	0.233089	0.783254
Br185	Br	-0.597671	0.566422	1.116587
Br186	Br	-0.264337	0.899755	1.449921
Br187	Br	-1.216291	-0.373016	0.000002
Br188	Br	-0.882958	-0.039683	0.333336
Br189	Br	-0.549625	0.293650	0.666669
H190	H	-0.961804	0.204262	0.566133
H191	H	-0.628470	0.537596	0.899467
H192	H	-0.295137	0.870929	1.232800
H193	H	-0.890544	-0.260554	-0.000006
H194	H	-0.557210	0.072779	0.333328
H195	H	-0.223877	0.406113	0.666661
H196	H	-0.624144	0.108927	0.163572
H197	H	-0.290810	0.442260	0.496906
H198	H	0.042523	0.775594	0.830239
H199	H	-0.793603	0.111747	0.163574
H200	H	-0.460270	0.445080	0.496907
H201	H	-0.126936	0.778413	0.830240
Br202	Br	-0.530848	0.107415	0.212518
Br203	Br	-0.197515	0.440748	0.545851
Br204	Br	0.135819	0.774081	0.879184
Br205	Br	-0.310686	0.103783	-0.212494
Br206	Br	0.022647	0.437117	0.120839
Br207	Br	0.355981	0.770450	0.454172
H208	H	-1.167842	0.011645	0.433896
H209	H	-0.834509	0.344978	0.767230
H210	H	-0.501176	0.678312	1.100563
H211	H	-1.183659	-0.294109	0.000021
H212	H	-0.850326	0.039225	0.333355
H213	H	-0.516992	0.372558	0.666688
H214	H	-0.904816	-0.112586	0.000005
H215	H	-0.571482	0.220748	0.333338
H216	H	-0.238149	0.554081	0.666672
H217	H	-1.167865	0.011652	0.566118
H218	H	-0.834532	0.344985	0.899451
H219	H	-0.501198	0.678318	1.232785
H220	H	-0.624158	0.108942	-0.163552
H221	H	-0.290825	0.442275	0.169781
H222	H	0.042509	0.775608	0.503115
H223	H	-0.793634	0.111743	-0.163559
H224	H	-0.460301	0.445076	0.169774
H225	H	-0.126967	0.778410	0.503108
Br226	Br	-0.930963	0.233072	0.462169
Br227	Br	-0.597630	0.566405	0.795502
Br228	Br	-0.264296	0.899738	1.128835
H229	H	-1.197937	-0.146154	0.000037
H230	H	-0.864604	0.187179	0.333370
H231	H	-0.531271	0.520512	0.666703
H232	H	-0.959349	-0.393957	0.000002
H233	H	-0.626015	-0.060624	0.333335
H234	H	-0.292682	0.272709	0.666669
