data_functionalizedCrystal
_audit_creation_method	'MofGen! by Chris Wilmer'
_symmetry_space_group_name_H-M	'P1'
_symmetry_Int_Tables_number	1
_symmetry_cell_setting	triclinic
loop_
_symmetry_equiv_pos_as_xyz
  x,y,z
_cell_length_a	16.959455
_cell_length_b	16.959454
_cell_length_c	16.959447
_cell_angle_alpha	89.973182
_cell_angle_beta	89.983056
_cell_angle_gamma	90.017022
loop_
_atom_site_label
_atom_site_type_symbol
_atom_site_fract_x
_atom_site_fract_y
_atom_site_fract_z
Zn1	Zn	1.208404	-0.314730	-0.446928
Zn2	Zn	1.208321	-0.446922	-0.314758
Zn3	Zn	1.076227	-0.314755	-0.314766
Zn4	Zn	1.076197	-0.446863	-0.446897
O5	O	1.142287	-0.380817	-0.380837
O6	O	1.319004	-0.332280	-0.429406
O7	O	1.190775	-0.429425	-0.204148
O8	O	1.093807	-0.204140	-0.332314
O9	O	1.318943	-0.429401	-0.332301
O10	O	1.190918	-0.204122	-0.429413
O11	O	1.093726	-0.332322	-0.204154
O12	O	0.965612	-0.332265	-0.332283
O13	O	1.093758	-0.429300	-0.557512
O14	O	0.965590	-0.429324	-0.429359
O15	O	1.190889	-0.332222	-0.557535
O16	O	1.190747	-0.557525	-0.332270
O17	O	1.093677	-0.557482	-0.429352
C18	C	0.936921	-0.380791	-0.380819
C19	C	0.849064	-0.380799	-0.380830
C20	C	0.477576	-0.330237	-0.330395
C21	C	0.477602	-0.431463	-0.431324
C22	C	0.560148	-0.431451	-0.431320
C23	C	0.601411	-0.380833	-0.380851
C24	C	0.560129	-0.330226	-0.330387
C25	C	0.601436	-0.482063	-0.481777
C26	C	0.683987	-0.482055	-0.481773
C27	C	0.725252	-0.431432	-0.431308
C28	C	0.683965	-0.380822	-0.380843
C29	C	0.725228	-0.330203	-0.330374
C30	C	0.683943	-0.279589	-0.279913
C31	C	0.601394	-0.279603	-0.279922
C32	C	0.807801	-0.431418	-0.431299
C33	C	0.807782	-0.330192	-0.330366
C34	C	1.142221	-0.586184	-0.380824
C35	C	1.142265	-0.674040	-0.380844
C36	C	1.091816	-1.045523	-0.431382
C37	C	1.192979	-1.045509	-0.330373
C38	C	1.192951	-0.962963	-0.330365
C39	C	1.142354	-0.921693	-0.380867
C40	C	1.091785	-0.962970	-0.431375
C41	C	1.243514	-0.921680	-0.279852
C42	C	1.243487	-0.839129	-0.279842
C43	C	1.192894	-0.797858	-0.330348
C44	C	1.142323	-0.839140	-0.380859
C45	C	1.091727	-0.797870	-0.431360
C46	C	1.041160	-0.839150	-0.481876
C47	C	1.041192	-0.921699	-0.481881
C48	C	1.192862	-0.715310	-0.330343
C49	C	1.091696	-0.715317	-0.431353
C50	C	1.348455	-0.380844	-0.380856
C51	C	1.436312	-0.380856	-0.380864
C52	C	1.142330	-0.380752	-0.587006
C53	C	1.142348	-0.380724	-0.674862
C54	C	1.142375	-0.174649	-0.380868
C55	C	1.142413	-0.086793	-0.380881
C56	C	1.091888	-0.330083	-1.046347
C57	C	1.192946	-0.431198	-1.046329
C58	C	1.192932	-0.431216	-0.963783
C59	C	1.142395	-0.380668	-0.922515
C60	C	1.091871	-0.330102	-0.963794
C61	C	1.243449	-0.481787	-0.922498
C62	C	1.243437	-0.481808	-0.839947
C63	C	1.192903	-0.431256	-0.798678
C64	C	1.142378	-0.380687	-0.839962
C65	C	1.091841	-0.330139	-0.798694
C66	C	1.041319	-0.279565	-0.839976
C67	C	1.041337	-0.279549	-0.922525
C68	C	1.192885	-0.431272	-0.716130
C69	C	1.091824	-0.330157	-0.716141
C70	C	1.142291	-0.380826	-0.175471
C71	C	1.142426	-0.380631	-0.087615
H72	H	0.567834	-0.523280	-0.522860
H73	H	0.717595	-0.523267	-0.522863
H74	H	0.443957	-0.289026	-0.289313
H75	H	0.841373	-0.288967	-0.289273
N76	N	0.728459	-0.224996	-0.225486
H77	H	0.714115	-0.168535	-0.237862
H78	H	0.714055	-0.237265	-0.169009
H79	H	1.284701	-0.955288	-0.238731
N80	N	1.298031	-0.794609	-0.225369
H81	H	1.330090	-0.833280	-0.193381
H82	H	1.334577	-0.760323	-0.257583
H83	H	1.234167	-1.079115	-0.289252
N84	N	0.986585	-0.794629	-0.536335
H85	H	1.018673	-0.760332	-0.572985
H86	H	0.954564	-0.833347	-0.568286
N87	N	1.297959	-0.536297	-0.967008
H88	H	1.329960	-0.568337	-0.928332
H89	H	1.265776	-0.572861	-1.001251
N90	N	0.433093	-0.486058	-0.485748
H91	H	0.398861	-0.453984	-0.522432
H92	H	0.471819	-0.518106	-0.517664
N93	N	0.852331	-0.486007	-0.485712
H94	H	0.813665	-0.518078	-0.517680
H95	H	0.886600	-0.453876	-0.522346
N96	N	0.556866	-0.225041	-0.225475
H97	H	0.498311	-0.232741	-0.233129
H98	H	0.571286	-0.237297	-0.169010
H99	H	1.234029	-0.681703	-0.289211
N100	N	1.037126	-0.670806	-0.485826
H101	H	1.005100	-0.709485	-0.517825
H102	H	1.000551	-0.636602	-0.453615
N103	N	1.247440	-0.485726	-1.090834
H104	H	1.239781	-0.478045	-1.149392
H105	H	1.303897	-0.473439	-1.076420
H106	H	1.000022	-0.955316	-0.523007
H107	H	1.050648	-1.079137	-0.472513
H108	H	1.050673	-0.288991	-0.682546
N109	N	1.297925	-0.536351	-0.795425
H110	H	1.329941	-0.568370	-0.834094
H111	H	1.334513	-0.504187	-0.761189
N112	N	0.986807	-0.225052	-0.795463
H113	H	0.994463	-0.232745	-0.736906
H114	H	0.999136	-0.168596	-0.809899
H115	H	1.000204	-0.238376	-0.956144
N116	N	1.247364	-0.485818	-0.671606
H117	H	1.279376	-0.517838	-0.710278
H118	H	1.283955	-0.453660	-0.637369
H119	H	1.050757	-0.288905	-1.079963
