data_functionalizedCrystal
_audit_creation_method	'MofGen! by Chris Wilmer'
_symmetry_space_group_name_H-M	'P1'
_symmetry_Int_Tables_number	1
_symmetry_cell_setting	triclinic
loop_
_symmetry_equiv_pos_as_xyz
  x,y,z
_cell_length_a	14.853567
_cell_length_b	14.853567
_cell_length_c	13.930277
_cell_angle_alpha	90.000757
_cell_angle_beta	89.995755
_cell_angle_gamma	96.365070
loop_
_atom_site_label
_atom_site_type_symbol
_atom_site_fract_x
_atom_site_fract_y
_atom_site_fract_z
O1	O	1.196368	-0.117704	-0.079756
O2	O	1.696368	0.382296	0.420244
O3	O	0.933909	-0.131725	-0.079772
O4	O	1.433909	0.368275	0.420228
O5	O	1.072149	0.006516	-0.079767
O6	O	1.572149	0.506516	0.420233
O7	O	1.058128	-0.255944	-0.079762
O8	O	1.558128	0.244056	0.420238
O9	O	1.072130	0.006519	0.079895
O10	O	1.572130	0.506519	0.579895
O11	O	0.933890	-0.131722	0.079890
O12	O	1.433890	0.368278	0.579890
O13	O	1.196349	-0.117701	0.079905
O14	O	1.696349	0.382299	0.579905
Zn15	Zn	1.065116	-0.124711	0.105247
Zn16	Zn	1.565116	0.375289	0.605247
Zn17	Zn	1.065142	-0.124715	-0.105114
Zn18	Zn	1.565142	0.375285	0.394886
O19	O	1.058109	-0.255941	0.079900
O20	O	1.558109	0.244059	0.579900
C21	C	0.900311	-0.131088	0.000057
C22	C	1.400311	0.368912	0.500057
C23	C	0.800227	-0.129184	0.000051
C24	C	1.300227	0.370816	0.500051
C25	C	0.387693	-0.039019	0.000070
C26	C	0.887693	0.460981	0.500070
C27	C	0.366412	-0.203251	0.000073
C28	C	0.866412	0.296749	0.500073
C29	C	0.460446	-0.205042	0.000070
C30	C	0.960446	0.294958	0.500070
C31	C	0.518108	-0.123819	0.000066
C32	C	1.018108	0.376181	0.500066
C33	C	0.481736	-0.040806	0.000065
C34	C	0.981736	0.459194	0.500065
C35	C	0.496825	-0.288053	0.000061
C36	C	0.996825	0.211947	0.500061
C37	C	0.590864	-0.289846	0.000057
C38	C	1.090864	0.210154	0.500057
C39	C	0.648528	-0.208623	0.000060
C40	C	1.148528	0.291377	0.500060
C41	C	0.612150	-0.125607	0.000060
C42	C	1.112150	0.374393	0.500060
C43	C	0.669812	-0.044384	0.000056
C44	C	1.169812	0.455616	0.500056
C45	C	0.633437	0.038633	0.000063
C46	C	1.133437	0.538633	0.500063
C47	C	0.539399	0.040417	0.000067
C48	C	1.039399	0.540417	0.500067
C49	C	0.742565	-0.210407	0.000055
C50	C	1.242565	0.289593	0.500055
C51	C	0.763855	-0.046172	0.000050
C52	C	1.263855	0.453828	0.500050
C53	C	1.071504	0.040106	0.000061
C54	C	1.571504	0.540106	0.500061
C55	C	1.069601	0.140189	0.000053
C56	C	1.569601	0.640189	0.500053
C57	C	1.229947	-0.118337	0.000075
C58	C	1.729947	0.381663	0.500075
C59	C	1.330031	-0.120241	0.000075
C60	C	1.830031	0.379759	0.500075
C61	C	1.058754	-0.289531	0.000070
C62	C	1.558754	0.210469	0.500070
C63	C	1.060657	-0.389615	0.000072
C64	C	1.560657	0.110385	0.500072
N65	N	1.065106	-0.124708	0.248814
N66	N	1.565106	0.375292	0.748814
C67	C	0.979435	0.552723	0.000066
C68	C	1.479435	1.052723	0.500066
C69	C	1.143668	0.574004	0.000076
C70	C	1.643668	1.074004	0.500076
C71	C	1.145458	0.479971	0.000070
C72	C	1.645458	0.979971	0.500070
C73	C	1.064235	0.422309	0.000064
C74	C	1.564235	0.922309	0.500064
C75	C	0.981223	0.458680	0.000063
C76	C	1.481223	0.958680	0.500063
C77	C	1.228469	0.443591	0.000080
C78	C	1.728469	0.943591	0.500080
C79	C	1.230262	0.349552	0.000076
C80	C	1.730262	0.849552	0.500076
C81	C	1.149039	0.291889	0.000063
C82	C	1.649039	0.791889	0.500063
C83	C	1.066023	0.328266	0.000061
C84	C	1.566023	0.828266	0.500061
C85	C	0.984800	0.270604	0.000055
C86	C	1.484800	0.770604	0.500055
C87	C	0.901783	0.306979	0.000047
C88	C	1.401783	0.806979	0.500047
C89	C	0.899999	0.401017	0.000050
C90	C	1.399999	0.901017	0.500050
C91	C	1.150823	0.197851	0.000059
C92	C	1.650823	0.697851	0.500059
C93	C	0.986588	0.176561	0.000052
C94	C	1.486588	0.676561	0.500052
N95	N	1.065160	-0.124711	-0.248680
N96	N	1.565160	0.375289	0.251320
C97	C	1.003926	-0.185904	0.701081
C98	C	1.503926	0.314096	1.201081
C99	C	1.126382	-0.063519	0.701055
C100	C	1.626382	0.436481	1.201055
C101	C	1.126371	-0.063516	0.600559
C102	C	1.626371	0.436484	1.100559
C103	C	1.065138	-0.124709	0.550319
C104	C	1.565138	0.375291	1.050319
C105	C	1.003916	-0.185904	0.600576
C106	C	1.503916	0.314096	1.100576
C107	C	1.187598	-0.002328	0.550295
C108	C	1.687598	0.497672	1.050295
C109	C	1.187591	-0.002323	0.449793
C110	C	1.687591	0.497677	0.949793
C111	C	1.126353	-0.063512	0.399552
C112	C	1.626353	0.436488	0.899552
C113	C	1.065127	-0.124710	0.449814
C114	C	1.565127	0.375290	0.949814
C115	C	1.003894	-0.185902	0.399575
C116	C	1.503894	0.314098	0.899575
C117	C	0.942664	-0.247096	0.449835
C118	C	1.442664	0.252904	0.949835
C119	C	0.942677	-0.247094	0.550334
C120	C	1.442677	0.252906	1.050334
C121	C	1.126339	-0.063515	0.299053
C122	C	1.626339	0.436485	0.799053
C123	C	1.003883	-0.185903	0.299070
C124	C	1.503883	0.314097	0.799070
H125	H	0.920445	0.129618	0.000043
H126	H	1.420445	0.629618	0.500043
H127	H	0.892811	-0.296924	0.408919
H128	H	1.392811	0.203076	0.908919
H129	H	0.832411	0.430643	0.000044
H130	H	1.332411	0.930643	0.500044
H131	H	1.237457	0.047489	0.591203
H132	H	1.737457	0.547489	1.091203
N133	N	0.814180	0.244784	0.000065
N134	N	1.314180	0.744784	0.500065
H135	H	0.827916	0.179694	0.000074
H136	H	1.327916	0.679694	0.500074
H137	H	0.778005	0.256559	-0.059123
H138	H	1.278005	0.756559	0.440877
H139	H	0.911844	0.582344	0.000055
H140	H	1.411844	1.082344	0.500055
N141	N	1.253627	0.063675	0.395587
N142	N	1.753627	0.563675	0.895587
H143	H	1.292418	0.102439	0.442665
H144	H	1.792418	0.602439	0.942665
H145	H	1.219059	0.103597	0.353901
H146	H	1.719059	0.603597	0.853901
N147	N	1.231268	0.636190	0.000098
N148	N	1.731268	1.136190	0.500098
H149	H	1.217539	0.701282	0.000104
H150	H	1.717539	1.201282	0.500104
H151	H	1.267450	0.624409	-0.059089
H152	H	1.767450	1.124409	0.440911
H153	H	1.294596	0.490546	0.000094
H154	H	1.794596	0.990546	0.500094
H155	H	1.297860	0.319944	0.000082
H156	H	1.797860	0.819944	0.500082
H157	H	1.176196	-0.013696	0.258136
H158	H	1.676196	0.486304	0.758136
N159	N	0.937894	-0.251907	0.755284
N160	N	1.437894	0.248093	1.255284
H161	H	0.899105	-0.290671	0.708205
H162	H	1.399105	0.209329	1.208205
H163	H	0.898001	-0.217319	0.796988
H164	H	1.398001	0.282681	1.296988
N165	N	0.826046	0.041434	0.000056
N166	N	1.326046	0.541434	0.500056
H167	H	0.788730	0.094291	0.000064
H168	H	1.288730	0.594291	0.500064
H169	H	0.865526	0.044275	-0.059135
H170	H	1.365526	0.544275	0.440865
N171	N	0.781801	-0.299934	0.000037
N172	N	1.281801	0.200066	0.500037
H173	H	0.731003	-0.351116	0.000034
H174	H	1.231003	0.148884	0.500034
H175	H	0.820352	-0.304258	0.059223
H176	H	1.320352	0.195742	0.559223
H177	H	0.954016	-0.235731	0.258171
H178	H	1.454016	0.264269	0.758171
N179	N	0.695628	0.126239	0.000057
N180	N	1.195628	0.626239	0.500057
H181	H	0.735116	0.129155	-0.059135
H182	H	1.235116	0.629155	0.440865
H183	H	0.735062	0.129100	0.059278
H184	H	1.235062	0.629100	0.559278
N185	N	0.876647	-0.313089	0.604551
N186	N	1.376647	0.186911	1.104551
H187	H	0.911155	-0.353067	0.646237
H188	H	1.411155	0.146933	1.146237
H189	H	0.837864	-0.351795	0.557422
H190	H	1.337864	0.148205	1.057422
N191	N	0.500156	0.129945	0.000077
N192	N	1.000156	0.629945	0.500077
H193	H	0.461616	0.134343	-0.059108
H194	H	0.961616	0.634343	0.440892
H195	H	0.550996	0.181081	0.000115
H196	H	1.050996	0.681081	0.500115
N197	N	1.240350	0.158615	0.000078
N198	N	1.740350	0.658615	0.500078
H199	H	1.291533	0.209413	0.000089
H200	H	1.791533	0.709413	0.500089
H201	H	1.244682	0.120065	-0.059112
H202	H	1.744682	0.620065	0.440888
H203	H	0.319459	-0.269379	0.000068
H204	H	0.819459	0.230621	0.500068
N205	N	0.348458	0.050513	0.000087
N206	N	0.848458	0.550513	0.500087
H207	H	0.309913	0.054919	-0.059094
H208	H	0.809913	0.554919	0.440906
H209	H	0.399304	0.101644	0.000121
H210	H	0.899304	0.601644	0.500121
N211	N	0.434637	-0.375652	0.000055
N212	N	0.934637	0.124348	0.500055
H213	H	0.369546	-0.361921	0.000064
H214	H	0.869546	0.138079	0.500064
H215	H	0.446426	-0.411827	0.059240
H216	H	0.946426	0.088173	0.559240
N217	N	0.630095	-0.379380	0.000043
N218	N	1.130095	0.120620	0.500043
H219	H	0.579296	-0.430561	0.000043
H220	H	1.079296	0.069439	0.500043
H221	H	0.668646	-0.383703	0.059229
H222	H	1.168646	0.116297	0.559229
H223	H	1.176240	-0.013702	0.741963
H224	H	1.676240	0.486298	1.241963
