data_functionalizedCrystal
_audit_creation_method	'MofGen! by Chris Wilmer'
_symmetry_space_group_name_H-M	'P1'
_symmetry_Int_Tables_number	1
_symmetry_cell_setting	triclinic
loop_
_symmetry_equiv_pos_as_xyz
  x,y,z
_cell_length_a	6.394989
_cell_length_b	16.992695
_cell_length_c	16.053802
_cell_angle_alpha	87.258926
_cell_angle_beta	92.655437
_cell_angle_gamma	88.582967
loop_
_atom_site_label
_atom_site_type_symbol
_atom_site_fract_x
_atom_site_fract_y
_atom_site_fract_z
O1	O	-2.801246	-0.125449	-0.069422
O2	O	-2.194200	-0.131931	-0.069425
O3	O	-2.495289	-0.014523	-0.069417
O4	O	-2.500158	-0.242856	-0.069430
O5	O	-2.478712	-0.020958	0.069441
O6	O	-2.177623	-0.138366	0.069433
O7	O	-2.784669	-0.131884	0.069437
Zn8	Zn	-2.478514	-0.136147	0.091482
Zn9	Zn	-2.500355	-0.127668	-0.091470
O10	O	-2.483580	-0.249291	0.069428
C11	C	-2.480739	0.011533	0.000012
C12	C	-2.462058	0.098762	0.000012
C13	C	-2.498130	-0.275348	-0.000003
C14	C	-2.516812	-0.362577	-0.000008
N15	N	-2.463623	-0.141933	0.216341
C16	C	-2.107876	-0.133867	0.000008
C17	C	-1.870987	-0.129950	0.000012
N18	N	-2.515262	-0.121876	-0.216330
C19	C	-2.642306	0.147221	0.000014
C20	C	-2.624741	0.229182	0.000006
C21	C	-2.426927	0.262682	0.000002
C22	C	-2.246666	0.214216	-0.000003
C23	C	-2.264233	0.132257	-0.000001
C24	C	-2.354118	0.506999	-0.000010
C25	C	-2.336564	0.588964	-0.000010
C26	C	-2.714642	0.603925	-0.000003
C27	C	-2.732191	0.521963	0.000004
C28	C	-2.551931	0.473505	-0.000005
N29	N	-2.408968	0.346458	-0.000004
N30	N	-2.569892	0.389731	-0.000005
C31	C	-2.591790	-0.091994	0.260039
C32	C	-2.581394	-0.096049	0.347445
C33	C	-2.442841	-0.150047	0.391153
C34	C	-2.314660	-0.199987	0.347449
C35	C	-2.325047	-0.195928	0.260044
C36	C	-2.397468	-0.167757	0.652561
C37	C	-2.387095	-0.171814	0.739972
C38	C	-2.653827	-0.067875	0.739962
C39	C	-2.664210	-0.063823	0.652556
C40	C	-2.536022	-0.113761	0.608860
N41	N	-2.432216	-0.154195	0.480496
N42	N	-2.546637	-0.109608	0.519518
H43	H	-2.803387	0.119953	0.000022
H44	H	-2.861400	0.643388	0.000003
Cl45	Cl	-2.814961	-0.005097	0.794898
Cl46	Cl	-2.236329	-0.230537	0.597635
Cl47	Cl	-2.980886	0.479857	-0.000018
H48	H	-2.085601	0.241498	-0.000011
H49	H	-2.207336	0.467554	-0.000017
H50	H	-2.771519	0.268635	0.000009
Cl51	Cl	-2.087863	0.631076	-0.000010
H52	H	-2.777031	-0.019854	0.616971
H53	H	-2.201836	-0.243951	0.383041
Cl54	Cl	-2.163907	-0.258708	0.205111
Cl55	Cl	-2.037626	0.071337	-0.000006
H56	H	-2.704623	-0.048027	0.224458
Cl57	Cl	-2.742518	-0.033268	0.402381
Cl58	Cl	-2.212900	-0.239705	0.794913
