data_functionalizedCrystal
_audit_creation_method	'MofGen! by Chris Wilmer'
_symmetry_space_group_name_H-M	'P1'
_symmetry_Int_Tables_number	1
_symmetry_cell_setting	triclinic
loop_
_symmetry_equiv_pos_as_xyz
  x,y,z
_cell_length_a	16.974829
_cell_length_b	10.489716
_cell_length_c	15.455301
_cell_angle_alpha	92.971577
_cell_angle_beta	96.654373
_cell_angle_gamma	83.962747
loop_
_atom_site_label
_atom_site_type_symbol
_atom_site_fract_x
_atom_site_fract_y
_atom_site_fract_z
O1	O	1.056385	0.172708	0.146276
O2	O	0.825595	0.192286	0.130077
O3	O	0.946252	-0.003164	0.138549
O4	O	0.935728	0.368158	0.137804
O5	O	0.939987	-0.013155	-0.006153
O6	O	0.819330	0.182295	-0.014626
O7	O	1.050120	0.162717	0.001574
Cu8	Cu	0.934153	0.171593	-0.019738
Cu9	Cu	0.941562	0.183409	0.151389
O10	O	0.929464	0.358167	-0.006898
C11	C	0.792910	0.186358	0.055651
C12	C	0.704853	0.183566	0.049471
C13	C	0.208815	0.167304	0.006214
C14	C	0.291554	0.169928	0.012023
C15	C	0.336340	0.176677	0.093806
C16	C	0.298381	0.180815	0.169785
C17	C	0.215643	0.178200	0.163975
C18	C	0.584157	0.185089	0.119640
C19	C	0.666901	0.187700	0.125444
C20	C	0.660068	0.176815	-0.032319
C21	C	0.577329	0.174193	-0.038121
C22	C	0.539377	0.178338	0.037858
N23	N	0.420913	0.179355	0.099746
N24	N	0.454805	0.175669	0.031917
C25	C	0.942329	-0.055682	0.066145
C26	C	0.939964	-0.197285	0.065987
C27	C	1.013954	-0.295820	0.071172
C28	C	0.977944	-0.367800	0.139771
C29	C	0.971751	-0.377615	-0.002895
C30	C	0.903988	-0.267396	0.134647
C31	C	0.897802	-0.277209	-0.008083
C32	C	0.861739	-0.349138	0.060530
C33	C	1.082805	0.168645	0.076001
C34	C	1.170862	0.171438	0.082187
C35	C	0.933387	0.410685	0.065508
C36	C	0.935752	0.552289	0.065671
N37	N	0.928948	0.163282	-0.140100
C38	C	0.975516	0.237699	-0.182223
C39	C	0.971590	0.231406	-0.273306
C40	C	0.921091	0.150701	-0.322265
C41	C	0.874522	0.076275	-0.280136
C42	C	0.878453	0.082562	-0.189054
C43	C	0.904135	0.123573	-0.595038
C44	C	0.900206	0.117293	-0.686127
C45	C	0.997275	0.272423	-0.679290
C46	C	1.001198	0.278710	-0.588207
C47	C	0.954632	0.204279	-0.546085
N48	N	0.917075	0.144269	-0.415368
N49	N	0.958653	0.210705	-0.452984
N50	N	0.946774	0.191711	0.271750
H51	H	0.553267	0.188459	0.181507
Br52	Br	0.727682	0.196856	0.236443
H53	H	0.540872	0.168670	-0.104718
Br54	Br	0.841452	-0.210976	-0.112270
Br55	Br	0.840905	0.022611	-0.537886
Br56	Br	0.754393	-0.388610	0.053053
Br57	Br	0.711578	0.171198	-0.135427
Br58	Br	1.044050	0.347238	-0.115787
Br59	Br	1.121226	-0.255927	0.078816
Br60	Br	1.019481	-0.457620	-0.099767
H61	H	0.833409	0.010557	-0.320006
Br62	Br	0.343058	0.164330	-0.091089
H63	H	0.334851	0.186317	0.236374
H64	H	0.859080	0.051574	-0.725987
H65	H	0.172356	0.161814	-0.060383
Br66	Br	0.815263	-0.018455	-0.131885
Br67	Br	0.164133	0.183823	0.267086
H68	H	1.011790	-0.407494	0.202281
Br69	Br	0.856315	-0.187676	0.231639
H70	H	1.009512	0.292002	-0.307599
Br71	Br	1.060469	0.373431	-0.736460
H72	H	1.042321	0.344424	-0.548350
