data_functionalizedCrystal
_audit_creation_method	'MofGen! by Chris Wilmer'
_symmetry_space_group_name_H-M	'P1'
_symmetry_Int_Tables_number	1
_symmetry_cell_setting	triclinic
loop_
_symmetry_equiv_pos_as_xyz
  x,y,z
_cell_length_a	9.065218
_cell_length_b	10.654545
_cell_length_c	9.130313
_cell_angle_alpha	89.996934
_cell_angle_beta	89.997322
_cell_angle_gamma	84.749482
loop_
_atom_site_label
_atom_site_type_symbol
_atom_site_fract_x
_atom_site_fract_y
_atom_site_fract_z
O1	O	0.207203	1.668663	-0.121778
O2	O	0.226954	1.303262	-0.121784
O3	O	0.002395	1.493516	-0.121778
O4	O	0.431762	1.478410	-0.121784
O5	O	0.002388	1.493502	0.121821
O6	O	0.226947	1.303249	0.121815
O7	O	0.207196	1.668650	0.121820
Cu8	Cu	0.217071	1.485948	0.144060
Cu9	Cu	0.217079	1.485964	-0.144024
O10	O	0.431756	1.478397	0.121815
C11	C	0.225502	1.256452	0.000015
C12	C	0.221167	1.116991	0.000013
C13	C	0.219123	1.051471	0.132799
C14	C	0.215026	0.920436	0.132799
C15	C	0.215023	0.920451	-0.132786
C16	C	0.219110	1.051485	-0.132784
C17	C	-0.052587	1.492057	0.000019
C18	C	-0.216406	1.487717	0.000012
C19	C	0.486738	1.479855	0.000014
C20	C	0.650557	1.484196	0.000012
C21	C	0.208649	1.715461	0.000019
C22	C	0.212983	1.854921	0.000011
N23	N	0.217065	1.485947	0.346683
N24	N	0.217074	1.485976	-0.346646
C25	C	0.117672	1.570220	0.423337
C26	C	0.117673	1.570232	0.576674
C27	C	0.316471	1.401694	0.576689
C28	C	0.316463	1.401676	0.423355
H29	H	0.213349	0.867099	-0.240904
C30	C	0.221030	1.122728	-0.276917
C31	C	0.096641	1.210627	-0.284681
C32	C	0.098345	1.276268	-0.417435
H33	H	0.308415	1.165353	-0.282579
H34	H	0.219152	1.064996	-0.356049
H35	H	0.098533	1.268350	-0.205571
H36	H	0.009237	1.168035	-0.279045
H37	H	0.096467	1.218536	-0.496567
H38	H	0.185735	1.318886	-0.423085
H39	H	0.013943	1.335907	-0.422726
C40	C	0.009583	1.661755	0.340357
C41	C	-0.077488	1.735535	0.440315
C42	C	-0.177095	1.819859	0.363933
H43	H	0.063052	1.714750	0.280518
H44	H	-0.052415	1.615904	0.280590
H45	H	-0.015498	1.781383	0.500057
H46	H	-0.130990	1.682575	0.500157
H47	H	-0.239093	1.774008	0.304166
H48	H	-0.123613	1.872844	0.304096
H49	H	-0.236193	1.869921	0.431742
H50	H	0.036736	1.638853	0.639082
C51	C	0.424452	1.310067	0.659671
C52	C	0.511464	1.236234	0.559715
C53	C	0.610941	1.151801	0.636101
H54	H	0.486513	1.355796	0.719477
H55	H	0.370837	1.257127	0.719471
H56	H	0.565075	1.289167	0.499940
H57	H	0.449444	1.190477	0.499907
H58	H	0.557326	1.098861	0.695901
H59	H	0.672991	1.197541	0.695904
H60	H	0.669981	1.101688	0.568293
H61	H	0.220798	1.104803	0.240931
H62	H	0.213362	0.867095	0.240927
H63	H	0.397401	1.333045	0.360938
