data_functionalizedCrystal
_audit_creation_method	'MofGen! by Chris Wilmer'
_symmetry_space_group_name_H-M	'P1'
_symmetry_Int_Tables_number	1
_symmetry_cell_setting	triclinic
loop_
_symmetry_equiv_pos_as_xyz
  x,y,z
_cell_length_a	12.645331
_cell_length_b	17.077402
_cell_length_c	12.645324
_cell_angle_alpha	90.037373
_cell_angle_beta	89.978020
_cell_angle_gamma	89.978138
loop_
_atom_site_label
_atom_site_type_symbol
_atom_site_fract_x
_atom_site_fract_y
_atom_site_fract_z
Zn1	Zn	1.620686	0.312471	-0.599404
Zn2	Zn	2.120686	0.812471	-0.099404
Zn3	Zn	1.620553	0.443763	-0.422127
Zn4	Zn	2.120553	0.943763	0.077873
Zn5	Zn	1.443402	0.312513	-0.422149
Zn6	Zn	1.943402	0.812513	0.077851
Zn7	Zn	1.443366	0.443696	-0.599342
Zn8	Zn	1.943366	0.943696	-0.099342
O9	O	1.532002	0.378111	-0.510755
O10	O	2.032002	0.878111	-0.010755
O11	O	1.769015	0.329897	-0.575905
O12	O	2.269015	0.829897	-0.075905
O13	O	1.597014	0.426398	-0.273782
O14	O	2.097014	0.926398	0.226218
O15	O	1.466990	0.202660	-0.445697
O16	O	1.966990	0.702660	0.054303
O17	O	1.768918	0.426357	-0.445660
O18	O	2.268918	0.926357	0.054340
O19	O	1.597239	0.202629	-0.575926
O20	O	2.097239	0.702629	-0.075926
O21	O	1.466862	0.329969	-0.273798
O22	O	1.966862	0.829969	0.226202
O23	O	1.295050	0.329904	-0.445637
O24	O	1.795050	0.829904	0.054363
O25	O	1.466928	0.426243	-0.747698
O26	O	1.966928	0.926243	-0.247698
O27	O	1.295024	0.426284	-0.575820
O28	O	1.795024	0.926284	-0.075820
O29	O	1.597204	0.329832	-0.747743
O30	O	2.097204	0.829832	-0.247743
O31	O	1.596979	0.553601	-0.445599
O32	O	2.096979	1.053601	0.054401
O33	O	1.466800	0.553552	-0.575799
O34	O	1.966800	1.053552	-0.075799
C35	C	1.531900	0.582059	-0.510713
C36	C	2.031900	1.082059	-0.010713
C37	C	1.531953	0.669308	-0.510730
C38	C	2.031953	1.169308	-0.010730
C39	C	1.256572	0.378092	-0.510725
C40	C	1.756572	0.878092	-0.010725
C41	C	1.138742	0.378103	-0.510737
C42	C	1.638742	0.878103	-0.010737
C43	C	1.532077	0.378026	-0.787261
C44	C	2.032077	0.878026	-0.287261
C45	C	1.532109	0.377990	-0.905091
C46	C	2.032109	0.877990	-0.405091
C47	C	0.971160	0.317191	-0.429290
C48	C	1.471160	0.817191	0.070710
C49	C	1.093719	0.317349	-0.428931
C50	C	1.593719	0.817349	0.071069
C51	C	1.094212	0.460797	-0.480211
C52	C	1.594212	0.960797	0.019789
C53	C	0.971614	0.460464	-0.479655
C54	C	1.471614	0.960464	0.020345
C55	C	0.971594	0.357107	-0.623024
C56	C	1.471594	0.857107	-0.123024
C57	C	1.094200	0.355260	-0.622400
C58	C	1.594200	0.855260	-0.122400
C59	C	1.808507	0.378130	-0.510787
C60	C	2.308507	0.878130	-0.010787
C61	C	1.926337	0.378138	-0.510800
C62	C	2.426337	0.878138	-0.010800
C63	C	1.532134	0.173366	-0.510821
C64	C	2.032134	0.673366	-0.010821
C65	C	1.532190	0.086117	-0.510849
C66	C	2.032190	0.586117	-0.010849
C67	C	1.599806	0.710298	-0.443008
C68	C	2.099806	1.210298	0.056992
C69	C	1.599858	0.792278	-0.443035
C70	C	2.099858	1.292278	0.056965
C71	C	1.532050	0.833268	-0.510780
C72	C	2.032050	1.333268	-0.010780
C73	C	1.464194	0.792272	-0.578509
C74	C	1.964194	1.292272	-0.078509
C75	C	1.464148	0.710293	-0.578487
C76	C	1.964148	1.210293	-0.078487
C77	C	1.464292	0.963142	-0.578550
C78	C	1.964292	1.463142	-0.078550
C79	C	1.464336	1.045127	-0.578571
C80	C	1.964336	1.545127	-0.078571
C81	C	1.600002	1.045127	-0.443098
C82	C	2.100002	1.545127	0.056902
C83	C	1.599956	0.963148	-0.443076
C84	C	2.099956	1.463148	0.056924
C85	C	1.532098	0.922159	-0.510804
C86	C	2.032098	1.422159	-0.010804
C87	C	1.614083	0.317324	-0.950002
C88	C	2.114083	0.817324	-0.450002
C89	C	1.614435	0.317483	-1.072562
C90	C	2.114435	0.817483	-0.572562
C91	C	1.562054	0.460752	-1.072961
C92	C	2.062054	0.960752	-0.572961
C93	C	1.562618	0.460422	-0.950363
C94	C	2.062618	0.960422	-0.450363
C95	C	1.420046	0.356572	-0.950264
C96	C	1.920046	0.856572	-0.450264
C97	C	1.420678	0.354726	-1.072872
C98	C	1.920678	0.854726	-0.572872
C99	C	1.531988	0.378139	-0.235326
C100	C	2.031988	0.878139	0.264674
C101	C	1.532162	0.377954	-0.117496
C102	C	2.032162	0.877954	0.382504
H103	H	1.123827	0.256028	-0.448066
H104	H	1.623827	0.756028	0.051934
H105	H	1.409141	1.078498	-0.633754
H106	H	1.909141	1.578498	-0.133754
H107	H	1.408897	0.676920	-0.633634
H108	H	1.908897	1.176920	-0.133634
H109	H	1.408988	0.825652	-0.633673
H110	H	1.908988	1.325652	-0.133673
H111	H	0.941963	0.507412	-0.536434
H112	H	1.441963	1.007412	-0.036434
H113	H	1.124852	0.396412	-0.686380
H114	H	1.624852	0.896412	-0.186380
H115	H	1.697488	0.331671	-1.101901
H116	H	2.197488	0.831671	-0.601901
H117	H	1.356381	0.395658	-1.103455
H118	H	1.856381	0.895658	-0.603455
H119	H	1.409038	0.929771	-0.633705
H120	H	1.909038	1.429771	-0.133705
H121	H	1.123375	0.507421	-0.537715
H122	H	1.623375	1.007421	-0.037715
H123	H	1.655165	0.929775	-0.387908
H124	H	2.155165	1.429775	0.112092
H125	H	1.644524	0.478537	-0.921776
H126	H	2.144524	0.978537	-0.421776
H127	H	1.655018	0.676930	-0.387838
H128	H	2.155018	1.176930	0.112162
H129	H	1.655110	0.825649	-0.387888
H130	H	2.155110	1.325649	0.112112
H131	H	0.941703	0.255686	-0.448220
H132	H	1.441703	0.755686	0.051780
H133	H	0.940311	0.330938	-0.346617
H134	H	1.440311	0.830938	0.153383
H135	H	1.398127	0.293793	-1.101984
H136	H	1.898127	0.793793	-0.601984
H137	H	1.655258	1.078505	-0.387955
H138	H	2.155258	1.578505	0.112045
H139	H	1.696649	0.331351	-0.919205
H140	H	2.196649	0.831351	-0.419205
H141	H	1.505463	0.507161	-0.920649
H142	H	2.005463	1.007161	-0.420649
H143	H	0.942967	0.478298	-0.397614
H144	H	1.442967	0.978298	0.102386
H145	H	0.942609	0.401498	-0.683756
H146	H	1.442609	0.901498	-0.183756
H147	H	1.358975	0.400754	-0.921215
H148	H	1.858975	0.900754	-0.421215
H149	H	1.122997	0.331250	-0.345769
H150	H	1.622997	0.831250	0.154231
H151	H	1.123311	0.294407	-0.645418
H152	H	1.623311	0.794407	-0.145418
H153	H	1.595758	0.256099	-1.102676
H154	H	2.095758	0.756099	-0.602676
H155	H	1.595627	0.255755	-0.920554
H156	H	2.095627	0.755755	-0.420554
H157	H	0.940704	0.297859	-0.650783
H158	H	1.440704	0.797859	-0.150783
H159	H	1.124866	0.478937	-0.399050
H160	H	1.624866	0.978937	0.100950
H161	H	1.504192	0.507177	-1.102061
H162	H	2.004192	1.007177	-0.602061
H163	H	1.643060	0.479181	-1.103699
H164	H	2.143060	0.979181	-0.603699
H165	H	1.392733	0.297237	-0.919355
H166	H	1.892733	0.797237	-0.419355
