data_functionalizedCrystal
_audit_creation_method	'MofGen! by Chris Wilmer'
_symmetry_space_group_name_H-M	'P1'
_symmetry_Int_Tables_number	1
_symmetry_cell_setting	triclinic
loop_
_symmetry_equiv_pos_as_xyz
  x,y,z
_cell_length_a	10.540539
_cell_length_b	10.540539
_cell_length_c	9.616153
_cell_angle_alpha	89.999906
_cell_angle_beta	89.995174
_cell_angle_gamma	84.525492
loop_
_atom_site_label
_atom_site_type_symbol
_atom_site_fract_x
_atom_site_fract_y
_atom_site_fract_z
O1	O	1.685892	0.178895	-0.115573
O2	O	1.316479	0.195751	-0.115589
O3	O	1.509614	0.002617	-0.115579
O4	O	1.492758	0.372030	-0.115583
O5	O	1.509587	0.002621	0.115712
O6	O	1.316452	0.195755	0.115702
O7	O	1.685865	0.178899	0.115718
Zn8	Zn	1.501155	0.187328	0.152433
Zn9	Zn	1.501190	0.187323	-0.152304
O10	O	1.492731	0.372034	0.115708
C11	C	1.269163	0.194489	0.000054
C12	C	1.128215	0.190707	0.000048
C13	C	0.944788	0.045790	0.000589
C14	C	1.091406	0.049624	0.000054
C15	C	1.066557	0.258600	-0.132027
C16	C	0.920013	0.253785	-0.132123
C17	C	0.919494	0.256660	0.130899
C18	C	1.066476	0.257959	0.132630
C19	C	1.508336	-0.044684	0.000064
C20	C	1.504554	-0.185632	0.000056
C21	C	1.359637	-0.369059	-0.000469
C22	C	1.363471	-0.222441	0.000052
C23	C	1.572435	-0.247288	0.132138
C24	C	1.567620	-0.393832	0.132249
C25	C	1.570519	-0.394355	-0.130772
C26	C	1.571819	-0.247373	-0.132518
C27	C	1.733182	0.180161	0.000072
C28	C	1.874130	0.183943	0.000069
C29	C	1.494008	0.419335	0.000062
C30	C	1.497790	0.560283	0.000060
N31	N	1.501140	0.187331	0.360407
N32	N	1.501215	0.187310	-0.360278
C33	C	1.397510	0.290298	0.580772
C34	C	1.397739	0.290684	0.419604
C35	C	1.633864	0.217464	0.418862
C36	C	1.633299	0.218193	0.580080
C37	C	1.473368	0.053892	0.580319
C38	C	1.470321	0.054757	0.419092
H39	H	0.891814	0.203603	-0.230849
C40	C	1.565620	-0.053752	0.364691
N41	N	1.637417	-0.135478	0.323727
H42	H	1.517430	-0.422030	0.230979
C43	C	1.124097	0.194875	-0.264817
N44	N	1.167432	0.146869	-0.364832
C45	C	1.096761	0.398568	-0.138677
N46	N	1.119515	0.503992	-0.143684
H47	H	0.872044	0.355250	-0.138119
C48	C	0.903976	-0.029203	-0.126640
N49	N	0.873231	-0.085685	-0.222469
H50	H	1.524869	-0.425910	-0.230881
C51	C	1.148965	-0.022557	0.127951
N52	N	1.192314	-0.076934	0.224284
C53	C	1.708184	-0.458162	-0.131973
N54	N	1.811867	-0.506230	-0.132868
H55	H	1.657654	0.315531	0.617668
C56	C	0.876874	0.194971	0.266146
N57	N	0.844776	0.148492	0.368008
C58	C	1.504785	-0.192104	-0.264527
N59	N	1.454283	-0.150480	-0.363953
H60	H	1.133162	-0.004177	-0.094786
C61	C	1.121750	0.190916	0.264631
N62	N	1.163380	0.140408	0.364053
C63	C	1.284651	-0.409825	0.126797
N64	N	1.228181	-0.440520	0.222666
H65	H	1.303917	-0.397661	-0.095187
C66	C	1.575509	-0.049667	0.631827
N67	N	1.652444	-0.127658	0.670633
C68	C	1.099223	0.396912	0.143420
N69	N	1.123897	0.501574	0.151543
H70	H	0.916192	-0.009944	0.095307
C71	C	1.704690	-0.458638	0.140372
N72	N	1.807930	-0.507445	0.146499
H73	H	1.712941	0.146204	0.619073
C74	C	1.421927	0.424406	0.367478
N75	N	1.440154	0.525130	0.328219
H76	H	0.872267	0.358563	0.131790
H77	H	1.310058	-0.179839	-0.094630
H78	H	1.309662	-0.180683	0.094886
C79	C	1.712396	-0.217064	0.138802
N80	N	1.817812	-0.194288	0.143824
C81	C	1.508697	-0.189747	0.264922
N82	N	1.460681	-0.146409	0.364932
H83	H	1.674680	-0.223152	-0.140490
C84	C	1.421375	0.423266	0.635481
N85	N	1.439354	0.523417	0.676689
C86	C	1.740667	0.118898	0.367054
N87	N	1.821110	0.044657	0.328029
H88	H	1.299122	0.272553	0.380085
C89	C	1.667493	0.347486	0.364317
N90	N	1.692813	0.445426	0.323240
H91	H	1.378631	0.025213	0.621052
C92	C	1.338411	0.023902	0.367489
N93	N	1.239054	0.000666	0.328616
H94	H	1.298585	0.272445	0.619578
