data_functionalizedCrystal
_audit_creation_method	'MofGen! by Chris Wilmer'
_symmetry_space_group_name_H-M	'P1'
_symmetry_Int_Tables_number	1
_symmetry_cell_setting	triclinic
loop_
_symmetry_equiv_pos_as_xyz
  x,y,z
_cell_length_a	17.077404
_cell_length_b	12.759400
_cell_length_c	17.077396
_cell_angle_alpha	90.024468
_cell_angle_beta	90.018362
_cell_angle_gamma	90.011136
loop_
_atom_site_label
_atom_site_type_symbol
_atom_site_fract_x
_atom_site_fract_y
_atom_site_fract_z
Zn1	Zn	1.200108	-0.418323	0.443841
Zn2	Zn	1.200037	-0.594024	0.312584
Zn3	Zn	1.068839	-0.418353	0.312591
Zn4	Zn	1.068830	-0.593954	0.443810
O5	O	1.134453	-0.506164	0.378207
O6	O	1.309945	-0.441647	0.426439
O7	O	1.182608	-0.570762	0.202738
O8	O	1.086286	-0.271328	0.330018
O9	O	1.309893	-0.570733	0.330005
O10	O	1.182728	-0.271306	0.426446
O11	O	1.086218	-0.441698	0.202743
O12	O	0.958991	-0.441631	0.329988
O13	O	1.086269	-0.570615	0.553661
O14	O	0.958984	-0.570644	0.426394
O15	O	1.182719	-0.441580	0.553684
O16	O	1.182598	-0.741036	0.329975
O17	O	1.086201	-0.740985	0.426387
C18	C	0.930506	-0.506134	0.378189
C19	C	0.843256	-0.506146	0.378200
C20	C	0.802293	-0.439051	0.428490
C21	C	0.720313	-0.439057	0.428493
C22	C	0.679296	-0.506166	0.378211
C23	C	0.720264	-0.573265	0.327915
C24	C	0.802243	-0.573252	0.327908
C25	C	0.549394	-0.573289	0.327935
C26	C	0.467410	-0.573303	0.327943
C27	C	0.467464	-0.439094	0.428520
C28	C	0.549443	-0.439081	0.428513
C29	C	0.590405	-0.506182	0.378218
C30	C	1.134412	-0.779131	0.378194
C31	C	1.134466	-0.895908	0.378215
C32	C	1.184659	-0.950678	0.428466
C33	C	1.184695	-1.060402	0.428486
C34	C	1.084345	-1.060575	0.327995
C35	C	1.084305	-0.950853	0.327981
C36	C	1.242598	-0.950580	0.486482
C37	C	1.242634	-1.060304	0.486501
C38	C	1.339198	-0.506194	0.378225
C39	C	1.426447	-0.506207	0.378232
C40	C	1.134501	-0.506086	0.582951
C41	C	1.134521	-0.506053	0.670201
C42	C	1.134516	-0.232130	0.378236
C43	C	1.134543	-0.115354	0.378249
C44	C	1.134451	-0.506165	0.174259
C45	C	1.134583	-0.505902	0.087009
C46	C	1.184744	-0.438859	0.711204
C47	C	1.184754	-0.438824	0.793184
C48	C	1.134543	-0.505989	0.834160
C49	C	1.084315	-0.573187	0.793151
C50	C	1.084302	-0.573216	0.711172
C51	C	1.084347	-0.573124	0.964022
C52	C	1.084360	-0.573096	1.046006
C53	C	1.184798	-0.438732	1.046034
C54	C	1.184785	-0.438761	0.964055
C55	C	1.134557	-0.505960	0.923051
H56	H	0.686862	-0.627901	0.286970
H57	H	1.303451	-1.090041	0.470279
C58	C	1.320610	-0.904545	0.457126
C59	C	1.331732	-0.784909	0.452906
C60	C	1.409743	-0.738873	0.423547
C61	C	1.476631	-0.812473	0.398406
C62	C	1.465511	-0.932115	0.402625
C63	C	1.387500	-0.978152	0.431985
H64	H	1.282216	-0.730420	0.471518
H65	H	1.417974	-0.650306	0.420424
H66	H	1.534379	-0.778394	0.376673
H67	H	1.515027	-0.986605	0.384014
H68	H	1.379269	-1.066719	0.435107
C69	C	0.675246	-0.365274	0.483824
C70	C	0.618871	-0.282738	0.449937
C71	C	0.573800	-0.208960	0.505273
C72	C	0.585104	-0.217719	0.594497
C73	C	0.641482	-0.300259	0.628388
C74	C	0.686553	-0.374037	0.573052
H75	H	0.610500	-0.276251	0.383885
H76	H	0.532065	-0.147858	0.480184
H77	H	0.551740	-0.163104	0.635460
H78	H	0.649853	-0.306746	0.694441
H79	H	0.728288	-0.435139	0.598141
H80	H	1.043397	-0.627922	0.677789
C81	C	0.422415	-0.365284	0.483852
C82	C	0.366083	-0.410935	0.545426
C83	C	0.321033	-0.337136	0.600763
C84	C	0.332315	-0.217687	0.594527
C85	C	0.388650	-0.172030	0.532951
C86	C	0.433700	-0.245829	0.477613
H87	H	0.357729	-0.499364	0.550044
H88	H	0.279330	-0.370935	0.646346
H89	H	0.298966	-0.163056	0.635491
H90	H	0.397004	-0.083601	0.528332
H91	H	0.475403	-0.212030	0.432030
H92	H	1.225634	-0.384168	0.677847
H93	H	0.582744	-0.627926	0.286978
C94	C	0.847305	-0.647060	0.272589
C95	C	0.802193	-0.720880	0.217279
C96	C	0.847254	-0.794686	0.161955
C97	C	0.937427	-0.794670	0.161942
C98	C	0.982545	-0.720846	0.217254
C99	C	0.937484	-0.647041	0.272578
H100	H	0.735436	-0.720894	0.217288
H101	H	0.813854	-0.849335	0.121010
H102	H	0.970784	-0.849305	0.120987
H103	H	1.049301	-0.720832	0.217245
H104	H	0.970884	-0.592392	0.313523
H105	H	1.225652	-0.384110	0.826566
C106	C	1.029174	-1.121019	0.272736
C107	C	1.063248	-1.196472	0.211149
C108	C	1.008076	-1.256913	0.155887
C109	C	0.918830	-1.241902	0.162213
C110	C	0.884752	-1.166445	0.223803
C111	C	0.939923	-1.106004	0.279065
H112	H	1.129317	-1.207587	0.206463
H113	H	1.033303	-1.312771	0.110294
H114	H	0.877989	-1.286644	0.121306
H115	H	0.818683	-1.155330	0.228489
H116	H	0.914696	-1.050146	0.324658
H117	H	0.835683	-0.384406	0.469438
H118	H	1.225675	-0.384075	0.930694
C119	C	1.029109	-0.647053	0.918910
C120	C	0.967483	-0.601557	0.862537
C121	C	0.912257	-0.675492	0.817422
C122	C	0.918656	-0.794924	0.828679
C123	C	0.980284	-0.840426	0.885054
C124	C	1.035511	-0.766490	0.930170
H125	H	0.962744	-0.513141	0.854202
H126	H	0.866635	-0.641808	0.775690
H127	H	0.877774	-0.849655	0.795283
H128	H	0.985023	-0.928842	0.893390
H129	H	1.081132	-0.800175	0.971902
H130	H	1.043428	-0.906260	0.287069
H131	H	1.225694	-0.384014	1.079422
C132	C	0.422285	-0.647109	0.272626
C133	C	0.433511	-0.638360	0.183399
C134	C	0.388384	-0.712163	0.128080
C135	C	0.332032	-0.794715	0.161989
C136	C	0.320804	-0.803468	0.251220
C137	C	0.365931	-0.729665	0.306539
H138	H	0.475228	-0.577247	0.158294
H139	H	0.396696	-0.705683	0.062025
H140	H	0.298627	-0.849349	0.121039
H141	H	0.279087	-0.864581	0.276326
H142	H	0.357619	-0.736144	0.372594
H143	H	0.582836	-0.384442	0.469462
H144	H	1.226272	-0.920769	0.547259
H145	H	1.043473	-0.627786	1.079367
C146	C	1.213181	-1.106239	0.564498
C147	C	1.140457	-1.177597	0.565663
C148	C	1.110995	-1.223530	0.643656
C149	C	1.154257	-1.198104	0.720483
C150	C	1.226985	-1.126742	0.719321
C151	C	1.256448	-1.080810	0.641329
H152	H	1.108428	-1.196422	0.508788
H153	H	1.057156	-1.276356	0.644515
H154	H	1.132447	-1.232106	0.778218
H155	H	1.259014	-1.107918	0.776196
H156	H	1.310286	-1.027983	0.640469
H157	H	1.043430	-0.627870	0.826520
