data_functionalizedCrystal
_audit_creation_method	'MofGen! by Chris Wilmer'
_symmetry_space_group_name_H-M	'P1'
_symmetry_Int_Tables_number	1
_symmetry_cell_setting	triclinic
loop_
_symmetry_equiv_pos_as_xyz
  x,y,z
_cell_length_a	18.101389
_cell_length_b	16.120530
_cell_length_c	16.120484
_cell_angle_alpha	90.167327
_cell_angle_beta	92.879328
_cell_angle_gamma	87.084523
loop_
_atom_site_label
_atom_site_type_symbol
_atom_site_fract_x
_atom_site_fract_y
_atom_site_fract_z
Zn1	Zn	-0.492978	1.254461	-0.395706
Zn2	Zn	-0.375072	1.247307	-0.534742
Zn3	Zn	-0.362577	1.115404	-0.388647
Zn4	Zn	-0.492300	1.108313	-0.527659
O5	O	-0.430732	1.181371	-0.461689
O6	O	-0.482850	1.369877	-0.420068
O7	O	-0.269781	1.229783	-0.515372
O8	O	-0.374929	1.139811	-0.273219
O9	O	-0.396225	1.364621	-0.522217
O10	O	-0.470734	1.241976	-0.278406
O11	O	-0.260601	1.132875	-0.408037
O12	O	-0.374272	0.998098	-0.401169
O13	O	-0.596024	1.127726	-0.510145
O14	O	-0.469579	0.992888	-0.503300
O15	O	-0.596522	1.235100	-0.413200
O16	O	-0.395568	1.222908	-0.650167
O17	O	-0.481695	1.120789	-0.644963
C18	C	-0.420497	0.965321	-0.450700
C19	C	-0.416137	0.872892	-0.446020
C20	C	-0.623895	1.181420	-0.461670
C21	C	-0.706210	1.181441	-0.461662
C22	C	-0.408182	0.703665	-0.437454
C23	C	-0.453338	0.659914	-0.485984
C24	C	-0.448912	0.565750	-0.481218
C25	C	-0.412607	0.797838	-0.442219
C26	C	-1.005297	1.181498	-0.461509
C27	C	-0.973639	1.113730	-0.522288
C28	C	-0.888042	1.113889	-0.522594
C29	C	-0.856916	1.181469	-0.461585
C30	C	-0.893173	1.267877	-0.489821
C31	C	-0.978819	1.267496	-0.490224
C32	C	-0.968908	1.163626	-0.372388
C33	C	-0.883187	1.161651	-0.372798
C34	C	-0.773058	1.181458	-0.461627
C35	C	-1.089155	1.181514	-0.461469
C36	C	-0.238320	1.181373	-0.461650
C37	C	-0.156003	1.181525	-0.461431
C38	C	-0.439931	1.170325	-0.677738
C39	C	-0.443895	1.165676	-0.770168
C40	C	-0.441007	1.398265	-0.472720
C41	C	-0.445386	1.490692	-0.477421
C42	C	-0.451148	1.157193	-0.939401
C43	C	-0.410335	1.205699	-0.983143
C44	C	-0.414370	1.200978	-1.077310
C45	C	-0.447113	1.161912	-0.845226
C46	C	-0.421514	1.192483	-0.244797
C47	C	-0.417585	1.197218	-0.152370
H48	H	-0.495323	0.693177	-0.531109
H49	H	-0.986605	1.101947	-0.347528
O50	O	-0.858405	1.037340	-0.500884
C51	C	-0.780532	1.037443	-0.501181
H52	H	-0.762217	1.103705	-0.492879
H53	H	-0.755133	0.997118	-0.448095
H54	H	-0.761277	1.011589	-0.562807
O55	O	-0.358116	0.663859	-0.383696
C56	C	-0.364799	0.577342	-0.390842
H57	H	-0.391158	0.562321	-0.454472
H58	H	-0.307567	0.544516	-0.383476
H59	H	-0.401073	0.555228	-0.340360
H60	H	-0.489116	1.112123	-0.972671
H61	H	-0.990520	1.049312	-0.504246
H62	H	-0.998623	1.125041	-0.587850
H63	H	-0.859046	1.098084	-0.351585
O64	O	-0.867849	1.127482	-0.601337
C65	C	-0.893583	1.063947	-0.653905
H66	H	-0.942429	1.034712	-0.625399
H67	H	-0.911994	1.091262	-0.717201
H68	H	-0.847134	1.014493	-0.661625
H69	H	-1.002444	1.283166	-0.555504
H70	H	-0.999998	1.319461	-0.448117
H71	H	-0.861711	1.207763	-0.324751
O72	O	-0.365015	1.259539	-0.943589
C73	C	-0.327842	1.303694	-1.002805
H74	H	-0.360915	1.303517	-1.064874
H75	H	-0.322025	1.370455	-0.980899
H76	H	-0.270526	1.272818	-1.010526
H77	H	-0.873226	1.319532	-0.447139
H78	H	-0.875358	1.283909	-0.554435
O79	O	-0.993410	1.222615	-0.318397
C80	C	-1.043164	1.279808	-0.360903
H81	H	-1.067795	1.249246	-0.419110
H82	H	-1.089492	1.299990	-0.318726
H83	H	-1.012440	1.336432	-0.379244
