data_functionalizedCrystal
_audit_creation_method	'MofGen! by Chris Wilmer'
_symmetry_space_group_name_H-M	'P1'
_symmetry_Int_Tables_number	1
_symmetry_cell_setting	triclinic
loop_
_symmetry_equiv_pos_as_xyz
  x,y,z
_cell_length_a	14.395555
_cell_length_b	23.196402
_cell_length_c	23.196401
_cell_angle_alpha	119.991554
_cell_angle_beta	89.982729
_cell_angle_gamma	60.000603
loop_
_atom_site_label
_atom_site_type_symbol
_atom_site_fract_x
_atom_site_fract_y
_atom_site_fract_z
Zr1	Zr	0.894907	0.630983	0.075615
O2	O	0.746540	0.751257	0.167671
O3	O	0.940386	0.510714	0.047397
O4	O	0.940336	0.630984	0.167666
O5	O	0.746633	0.630984	-0.047470
O6	O	1.093210	0.630980	0.167661
O7	O	0.746590	0.630987	0.047401
O8	O	1.093299	0.415839	-0.047478
O9	O	0.746544	0.846125	0.167669
O10	O	1.073875	0.560178	0.035357
O11	O	0.959819	0.560179	-0.035441
O12	O	0.959760	0.701782	0.106160
O13	O	0.845705	0.701783	0.035362
Zr14	Zr	1.138793	0.630973	-0.075702
Zr15	Zr	1.138724	0.630977	0.075607
Zr16	Zr	0.894976	0.630980	-0.075694
Zr17	Zr	0.894914	0.782288	0.075613
Zr18	Zr	1.138786	0.479668	-0.075700
O19	O	1.093314	0.751242	-0.047484
O20	O	1.093216	0.751247	0.167659
O21	O	0.746638	0.751251	-0.047472
O22	O	1.287160	0.510699	-0.167757
O23	O	1.287062	0.510705	0.047385
O24	O	0.940484	0.510709	-0.167746
O25	O	1.287067	0.630972	0.047384
O26	O	1.093364	0.630972	-0.167753
O27	O	0.940490	0.630976	-0.167748
O28	O	1.287110	0.630969	-0.047488
O29	O	0.940346	0.846120	0.167663
O30	O	1.093354	0.415836	-0.167750
O31	O	1.287156	0.415831	-0.167756
O32	O	1.287101	0.415834	-0.047485
O33	O	0.746599	0.846122	0.047398
O34	O	0.940401	0.846117	0.047392
O35	O	1.073940	0.560174	-0.106247
O36	O	1.187995	0.560173	-0.035449
O37	O	1.073881	0.701777	0.035355
O38	O	0.959825	0.701778	-0.035444
C39	C	1.016842	0.441719	-0.000040
C40	C	1.016839	0.377486	-0.000039
C41	C	0.932627	-0.033092	0.052225
C42	C	0.932618	0.027265	0.052225
C43	C	1.016860	0.005180	-0.000043
C44	C	1.101101	-0.077273	-0.052325
C45	C	1.101101	-0.137628	-0.052327
C46	C	1.119663	0.060755	-0.016334
C47	C	1.119663	0.121111	-0.016328
C48	C	1.016858	0.191332	-0.000040
C49	C	0.914046	0.201199	0.016255
C50	C	0.914047	0.140844	0.016253
C51	C	1.016868	0.070619	-0.000047
C52	C	0.932607	0.339221	0.052234
C53	C	0.932597	0.399577	0.052229
C54	C	1.101089	0.295036	-0.052317
C55	C	1.101090	0.234682	-0.052315
C56	C	1.016850	0.256780	-0.000035
C57	C	0.711873	0.630987	-0.000033
C58	C	0.608366	0.630989	-0.000030
C59	C	0.485557	0.708198	0.038569
C60	C	0.454707	0.669602	0.066544
C61	C	0.454793	0.669582	-0.027999
C62	C	0.578880	0.592393	0.027984
C63	C	0.578962	0.592384	-0.066596
C64	C	0.548185	0.553732	-0.038638
C65	C	1.321827	0.630970	-0.000053
C66	C	1.425334	0.630967	-0.000057
C67	C	1.016764	0.630983	0.189222
C68	C	1.016734	0.630984	0.253457
C69	C	1.016858	0.820237	-0.000046
C70	C	1.016861	0.884470	-0.000047
C71	C	0.957171	0.704898	0.320589
C72	C	0.957196	0.704900	0.380944
C73	C	1.016768	0.630984	0.374164
C74	C	1.076344	0.557060	0.307020
C75	C	1.076327	0.557061	0.246666
C76	C	1.008301	0.574356	0.441482
C77	C	1.008310	0.574358	0.501836
C78	C	1.016827	0.630979	0.560312
C79	C	1.025312	0.687611	0.558434
C80	C	1.025295	0.687612	0.498081
C81	C	1.016793	0.630975	0.439603
C82	C	0.957287	0.704900	0.692891
C83	C	0.957320	0.704899	0.753246
C84	C	1.076461	0.557057	0.679320
C85	C	1.076436	0.557060	0.618967
C86	C	1.016843	0.630984	0.625757
C87	C	1.016919	0.630976	0.810693
C88	C	1.016894	0.630982	0.746461
C89	C	1.321819	0.441711	-0.000051
C90	C	1.425323	0.377475	-0.000053
C91	C	1.016928	0.441714	-0.189306
C92	C	1.016955	0.377480	-0.253540
C93	C	1.321906	0.441706	-0.189316
C94	C	1.425439	0.377469	-0.253553
C95	C	0.711794	0.820250	0.189229
C96	C	0.608261	0.884488	0.253466
C97	C	0.711881	0.820245	-0.000036
C98	C	0.608377	0.884481	-0.000034
C99	C	1.016772	0.820242	0.189219
C100	C	1.016745	0.884476	0.253453
C101	C	1.414359	0.347312	0.036912
C102	C	1.511603	0.286964	0.036924
C103	C	1.619809	0.256776	-0.000034
C104	C	1.630770	0.286945	-0.037000
C105	C	1.533527	0.347296	-0.037007
C106	C	1.076537	0.347312	-0.320671
C107	C	1.076558	0.286966	-0.381031
C108	C	1.017002	0.256784	-0.374259
C109	C	0.957412	0.286958	-0.307121
C110	C	0.957386	0.347307	-0.246762
C111	C	1.533605	0.347301	-0.246764
C112	C	1.630895	0.286952	-0.307116
C113	C	1.620015	0.256767	-0.374257
C114	C	1.511838	0.286940	-0.381044
C115	C	1.414550	0.347292	-0.320693
C116	C	0.500095	0.914662	0.246677
C117	C	0.402805	0.975030	0.307029
C118	C	0.413685	1.005218	0.374170
C119	C	0.521862	0.975041	0.380958
C120	C	0.619150	0.914679	0.320606
C121	C	0.619341	0.914651	-0.036993
C122	C	0.522097	0.975015	-0.036988
C123	C	0.413891	1.005205	-0.000028
C124	C	0.402930	0.975033	0.036935
C125	C	0.500173	0.914674	0.036934
C126	C	1.076312	0.914639	0.246658
C127	C	1.076310	0.974986	0.307007
C128	C	1.016732	1.005173	0.374150
C129	C	0.957163	0.975004	0.380943
C130	C	0.957173	0.914654	0.320595
H131	H	0.830333	0.258376	0.029519
H132	H	1.124850	0.496877	0.301503
H133	H	1.326480	0.371847	-0.326231
F134	F	1.499913	0.254864	0.076267
F135	F	0.648590	0.549790	0.058987
F136	F	0.310132	1.069462	0.438396
F137	F	1.723294	0.192544	-0.000020
F138	F	1.746014	0.254848	-0.299877
F139	F	1.299208	0.379431	0.076252
F140	F	0.894034	0.254827	-0.299924
H141	H	0.908821	0.765090	0.807910
H142	H	1.718884	0.262358	-0.067089
F143	F	1.017041	0.192553	-0.438505
H144	H	0.707438	0.890075	-0.067094
H145	H	1.169687	0.167555	-0.094878
F146	F	0.533423	1.007177	0.452420
F147	F	0.488490	0.882543	0.175227
H148	H	0.908871	0.371862	-0.192103
H149	H	1.542470	0.371847	-0.067113
F150	F	0.384721	0.712254	0.140109
F151	F	0.533787	1.007113	-0.076333
H152	H	0.460101	0.773485	0.071261
H153	H	1.125035	0.371880	-0.326198
F154	F	1.139875	0.478389	0.672099
H155	H	1.125086	0.262405	-0.435692
H156	H	1.542485	0.371869	-0.192100
F157	F	1.139720	0.478388	0.175215
F158	F	1.500277	0.254806	-0.452506
H159	H	1.699242	0.207624	-0.423393
F160	F	0.581652	0.468349	-0.081275
F161	F	1.139708	1.007086	0.299762
F162	F	0.310406	1.069445	-0.000034
H163	H	1.169696	-0.204756	-0.094895
F164	F	0.842951	0.362736	0.107873
H165	H	0.314732	0.999590	0.301488
H166	H	0.707221	0.890111	0.326143
H167	H	1.124933	0.496871	0.564304
H168	H	0.491230	0.890111	0.067028
F169	F	0.287760	1.007170	0.076266
F170	F	0.648945	0.549768	-0.140147
H171	H	1.124827	0.890070	0.191992
H172	H	0.908657	0.999592	0.435619
F173	F	1.016730	1.069405	0.438372
H174	H	0.864029	-0.015093	0.094793
F175	F	0.842963	0.115014	0.107863
H176	H	0.830335	0.148881	0.029519
F177	F	0.842932	0.487320	0.107863
H178	H	0.908662	0.890103	0.326138
H179	H	1.169675	0.277052	-0.094878
H180	H	1.032241	0.733720	0.606048
H181	H	1.203386	0.003578	-0.029601
F182	F	1.229082	0.110608	-0.033664
H183	H	1.169689	-0.095252	-0.094882
H184	H	0.908651	0.765093	0.326124
F185	F	0.384873	0.712250	-0.058904
F186	F	0.893799	0.783572	0.452401
H187	H	0.908764	0.765093	0.698421
F188	F	0.999269	0.514091	0.503832
F189	F	0.999310	0.514054	0.379233
F190	F	1.034326	0.747881	0.496082
