data_functionalizedCrystal
_audit_creation_method	'MofGen! by Chris Wilmer'
_symmetry_space_group_name_H-M	'P1'
_symmetry_Int_Tables_number	1
_symmetry_cell_setting	triclinic
loop_
_symmetry_equiv_pos_as_xyz
  x,y,z
_cell_length_a	19.188930
_cell_length_b	15.944551
_cell_length_c	15.021413
_cell_angle_alpha	90.003065
_cell_angle_beta	89.978833
_cell_angle_gamma	83.321759
loop_
_atom_site_label
_atom_site_type_symbol
_atom_site_fract_x
_atom_site_fract_y
_atom_site_fract_z
O1	O	0.926420	0.104855	-0.074320
O2	O	1.259753	0.438188	0.259013
O3	O	1.593087	0.771521	0.592346
O4	O	0.723145	0.118971	-0.074259
O5	O	1.056478	0.452305	0.259074
O6	O	1.389812	0.785638	0.592407
O7	O	0.830333	-0.010383	-0.074283
O8	O	1.163667	0.322951	0.259050
O9	O	1.497000	0.656284	0.592383
O10	O	0.819231	0.234209	-0.074296
O11	O	1.152565	0.567542	0.259037
O12	O	1.485898	0.900875	0.592371
O13	O	0.830316	-0.010364	0.073781
O14	O	1.163650	0.322969	0.407114
O15	O	1.496983	0.656303	0.740447
O16	O	0.723128	0.118990	0.073805
O17	O	1.056461	0.452323	0.407138
O18	O	1.389795	0.785657	0.740471
O19	O	0.926403	0.104873	0.073744
O20	O	1.259736	0.438206	0.407077
O21	O	1.593069	0.771540	0.740411
Zn22	Zn	0.824763	0.111934	0.097283
Zn23	Zn	1.158096	0.445268	0.430616
Zn24	Zn	1.491429	0.778601	0.763949
Zn25	Zn	0.824785	0.111910	-0.097798
Zn26	Zn	1.158118	0.445243	0.235535
Zn27	Zn	1.491452	0.778577	0.568868
O28	O	0.819214	0.234227	0.073768
O29	O	1.152548	0.567560	0.407101
O30	O	1.485881	0.900894	0.740435
C31	C	0.829864	-0.041666	-0.000251
C32	C	1.163197	0.291668	0.333082
C33	C	1.496531	0.625001	0.666416
C34	C	0.828482	-0.134906	-0.000250
C35	C	1.161816	0.198427	0.333083
C36	C	1.495149	0.531760	0.666417
C37	C	0.697124	0.118524	-0.000219
C38	C	1.030458	0.451857	0.333114
C39	C	1.363791	0.785190	0.666447
C40	C	0.619616	0.117151	-0.000196
C41	C	0.952950	0.450485	0.333137
C42	C	1.286283	0.783818	0.666471
C43	C	0.758739	-0.349502	-0.000242
C44	C	1.092073	-0.016169	0.333092
C45	C	1.425406	0.317164	0.666425
C46	C	0.791117	-0.410631	0.072753
C47	C	1.124450	-0.077298	0.406087
C48	C	1.457784	0.256035	0.739420
C49	C	0.825983	-0.305623	-0.000256
C50	C	1.159316	0.027710	0.333077
C51	C	1.492649	0.361044	0.666410
C52	C	0.791150	-0.410633	-0.073226
C53	C	1.124483	-0.077300	0.260107
C54	C	1.457816	0.256033	0.593440
C55	C	0.823563	-0.470527	-0.000266
C56	C	1.156896	-0.137193	0.333067
C57	C	1.490230	0.196140	0.666401
C58	C	0.858379	-0.365524	0.072799
C59	C	1.191712	-0.032191	0.406132
C60	C	1.525046	0.301143	0.739466
C61	C	0.858402	-0.365519	-0.073246
C62	C	1.191736	-0.032186	0.260087
C63	C	1.525069	0.301147	0.593420
C64	C	0.890829	-0.426631	-0.000234
C65	C	1.224162	-0.093298	0.333100
C66	C	1.557496	0.240035	0.666433
C67	C	0.827374	-0.210626	-0.000250
C68	C	1.160708	0.122708	0.333084
C69	C	1.494041	0.456041	0.666417
C70	C	0.822176	-0.565522	-0.000266
C71	C	1.155510	-0.232189	0.333067
C72	C	1.488843	0.101144	0.666401
C73	C	0.574889	0.193052	-0.000214
C74	C	0.908222	0.526385	0.333119
C75	C	1.241555	0.859719	0.666453
C76	C	0.502061	0.191763	-0.000224
C77	C	0.835395	0.525096	0.333110
C78	C	1.168728	0.858429	0.666443
C79	C	0.473965	0.114568	-0.000233
C80	C	0.807299	0.447902	0.333100
C81	C	1.140632	0.781235	0.666433
C82	C	0.518703	0.038658	-0.000210
C83	C	0.852036	0.371991	0.333123
C84	C	1.185369	0.705324	0.666456
C85	C	0.591528	0.039949	-0.000192
C86	C	0.924862	0.373283	0.333142
C87	C	1.258195	0.706616	0.666475
N88	N	0.365838	0.055557	-0.050659
N89	N	0.699172	0.388890	0.282675
N90	N	1.032505	0.722223	0.616008
N91	N	0.296657	0.054335	-0.050678
N92	N	0.629990	0.387668	0.282655
N93	N	0.963323	0.721002	0.615988
C94	C	0.254547	0.110673	-0.000288
C95	C	0.587880	0.444006	0.333046
C96	C	0.921213	0.777339	0.666379
N97	N	0.284230	0.168291	0.050112
N98	N	0.617564	0.501624	0.383446
N99	N	0.950897	0.834958	0.716779
N100	N	0.353418	0.169515	0.050128
N101	N	0.686752	0.502848	0.383461
N102	N	1.020085	0.836182	0.716795
C103	C	0.394999	0.113160	-0.000253
C104	C	0.728332	0.446493	0.333080
C105	C	1.061666	0.779826	0.666414
C106	C	0.130851	0.185181	-0.000315
C107	C	0.464184	0.518514	0.333019
C108	C	0.797517	0.851847	0.666352
C109	C	0.058023	0.183888	-0.000319
C110	C	0.391356	0.517222	0.333014
C111	C	0.724689	0.850555	0.666348
C112	C	0.074666	0.030781	-0.000315
C113	C	0.407999	0.364115	0.333019
C114	C	0.741332	0.697448	0.666352
C115	C	0.147492	0.032076	-0.000302
C116	C	0.480826	0.365409	0.333032
C117	C	0.814159	0.698743	0.666365
C118	C	0.175580	0.109278	-0.000306
C119	C	0.508913	0.442611	0.333028
C120	C	0.842247	0.775945	0.666361
C121	C	0.952423	0.105321	-0.000298
C122	C	1.285757	0.438654	0.333035
C123	C	1.619090	0.771988	0.666369
C124	C	1.029932	0.106693	-0.000327
C125	C	1.363265	0.440027	0.333006
C126	C	1.696598	0.773360	0.666340
C127	C	0.819684	0.265510	-0.000266
C128	C	1.153017	0.598843	0.333067
C129	C	1.486350	0.932177	0.666400
C130	C	0.821066	0.358751	-0.000273
C131	C	1.154399	0.692084	0.333060
C132	C	1.487732	1.025418	0.666394
N133	N	0.824752	0.111951	0.230420
N134	N	1.158086	0.445284	0.563754
N135	N	1.491419	0.778617	0.897087
N136	N	0.824801	0.111887	-0.230936
N137	N	1.158134	0.445221	0.102398
N138	N	1.491468	0.778554	0.435731
C139	C	0.775181	0.171736	0.470115
C140	C	1.108514	0.505069	0.803448
C141	C	1.441848	0.838402	1.136781
C142	C	0.838271	0.187807	0.529429
C143	C	1.171604	0.521140	0.862763
C144	C	1.504938	0.854473	1.196096
C145	C	0.824770	0.111929	0.412027
C146	C	1.158104	0.445263	0.745361
C147	C	1.491437	0.778596	1.078694
C148	C	0.761697	0.095877	0.529455
C149	C	1.095031	0.429211	0.862788
C150	C	1.428364	0.762544	1.196121
C151	C	0.824782	0.111911	0.587451
C152	C	1.158115	0.445244	0.920785
C153	C	1.491449	0.778578	1.254118
C154	C	0.887892	0.128038	0.470035
C155	C	1.221225	0.461371	0.803369
C156	C	1.554559	0.794705	1.136702
C157	C	0.811277	0.036076	0.470056
C158	C	1.144610	0.369409	0.803389
C159	C	1.477944	0.702742	1.136722
C160	C	0.874413	0.052114	0.529343
C161	C	1.207746	0.385448	0.862676
C162	C	1.541079	0.718781	1.196010
C163	C	0.824763	0.111942	0.310970
C164	C	1.158096	0.445276	0.644303
C165	C	1.491429	0.778609	0.977637
C166	C	0.824797	0.111898	0.688507
C167	C	1.158130	0.445231	1.021840
C168	C	1.491463	0.778564	1.355173
H169	H	0.702924	-0.315986	-0.000152
H170	H	1.036257	0.017348	0.333181
H171	H	1.369591	0.350681	0.666515
Cl172	Cl	0.710501	0.249881	0.429956
Cl173	Cl	1.043835	0.583214	0.763289
Cl174	Cl	1.377168	0.916547	1.096623
Cl175	Cl	0.445822	0.287188	-0.000244
Cl176	Cl	0.779155	0.620521	0.333089
Cl177	Cl	1.112488	0.953855	0.666423
H178	H	0.941248	0.141684	0.444045
H179	H	1.274582	0.475017	0.777378
H180	H	1.607915	0.808351	1.110712
Cl181	Cl	0.679339	0.074925	0.569753
Cl182	Cl	1.012672	0.408259	0.903086
Cl183	Cl	1.346006	0.741592	1.236420
H184	H	0.183911	-0.029731	-0.000292
H185	H	0.517244	0.303602	0.333042
H186	H	0.850577	0.636936	0.666375
H187	H	0.495822	-0.024194	-0.000230
H188	H	0.829156	0.309139	0.333103
H189	H	1.162489	0.642472	0.666436
H190	H	0.946693	-0.459999	-0.000209
H191	H	1.280026	-0.126666	0.333124
H192	H	1.613360	0.206668	0.666458
H193	H	0.762669	-0.430626	0.134481
H194	H	1.096002	-0.097292	0.467815
H195	H	1.429335	0.236041	0.801148
Cl196	Cl	0.855909	0.286832	0.569696
Cl197	Cl	1.189242	0.620165	0.903029
Cl198	Cl	1.522575	0.953498	1.236363
Cl199	Cl	0.647761	-0.055477	-0.000170
Cl200	Cl	0.981094	0.277856	0.333163
Cl201	Cl	1.314427	0.611190	0.666497
Cl202	Cl	0.939234	-0.025987	0.569251
Cl203	Cl	1.272568	0.307346	0.902584
Cl204	Cl	1.605901	0.640679	1.235917
Cl205	Cl	0.001792	0.279316	-0.000337
Cl206	Cl	0.335125	0.612649	0.332996
Cl207	Cl	0.668458	0.945982	0.666330
H208	H	0.153721	0.248043	-0.000305
H209	H	0.487054	0.581377	0.333028
H210	H	0.820388	0.914710	0.666361
H211	H	0.886789	-0.345632	0.134578
H212	H	1.220122	-0.012299	0.467911
H213	H	1.553456	0.321034	0.801244
Cl214	Cl	0.039352	-0.066264	-0.000316
Cl215	Cl	0.372685	0.267069	0.333017
Cl216	Cl	0.706018	0.600402	0.666350
H217	H	0.799834	-0.028043	0.443955
H218	H	1.133168	0.305290	0.777289
H219	H	1.466501	0.638623	1.110622
Cl220	Cl	0.902287	-0.334612	-0.168555
Cl221	Cl	1.235621	-0.001278	0.164778
Cl222	Cl	1.568954	0.332055	0.498111
H223	H	0.762707	-0.430611	-0.134942
H224	H	1.096040	-0.097278	0.198392
H225	H	1.429374	0.236055	0.531725
H226	H	0.597753	0.255916	-0.000219
H227	H	0.931086	0.589249	0.333114
H228	H	1.264419	0.922582	0.666448
