data_functionalizedCrystal
_audit_creation_method	'MofGen! by Chris Wilmer'
_symmetry_space_group_name_H-M	'P1'
_symmetry_Int_Tables_number	1
_symmetry_cell_setting	triclinic
loop_
_symmetry_equiv_pos_as_xyz
  x,y,z
_cell_length_a	14.519731
_cell_length_b	14.519731
_cell_length_c	17.766277
_cell_angle_alpha	89.992662
_cell_angle_beta	89.990550
_cell_angle_gamma	83.688853
loop_
_atom_site_label
_atom_site_type_symbol
_atom_site_fract_x
_atom_site_fract_y
_atom_site_fract_z
O1	O	1.223871	0.120985	-0.062598
O2	O	0.955398	0.135201	-0.062599
O3	O	1.096742	-0.006144	-0.062591
O4	O	1.082526	0.262330	-0.062605
O5	O	1.096717	-0.006151	0.062597
O6	O	0.955373	0.135194	0.062590
O7	O	1.223846	0.120978	0.062591
Cu8	Cu	1.089607	0.128085	0.074021
Cu9	Cu	1.089637	0.128094	-0.074029
O10	O	1.082502	0.262322	0.062583
C11	C	0.921026	0.134531	-0.000005
C12	C	0.818645	0.132535	-0.000005
C13	C	1.096064	-0.040507	0.000003
C14	C	1.094068	-0.142887	0.000004
C15	C	0.735501	0.130913	-0.000008
C16	C	0.631192	0.128887	-0.000008
C17	C	0.548053	0.127278	-0.000008
C18	C	0.443738	0.125252	-0.000010
C19	C	1.092446	-0.226031	0.000002
C20	C	1.090419	-0.330340	-0.000004
C21	C	1.088811	-0.413479	-0.000009
C22	C	1.086785	-0.517795	-0.000013
C23	C	1.258218	0.121648	-0.000005
C24	C	1.360598	0.123644	-0.000009
C25	C	1.083180	0.296685	-0.000013
C26	C	1.085176	0.399066	-0.000018
N27	N	1.089593	0.128078	0.178151
N28	N	1.089658	0.128093	-0.178159
C29	C	1.152201	0.065522	0.217542
C30	C	1.152206	0.065518	0.296343
C31	C	1.089613	0.128086	0.335752
C32	C	1.026993	0.190647	0.296352
C33	C	1.026983	0.190643	0.217552
C34	C	1.077674	0.212055	0.460586
C35	C	1.077690	0.212060	0.539384
C36	C	1.089637	0.128097	0.578798
C37	C	1.101588	0.044125	0.539404
C38	C	1.101578	0.044122	0.460603
C39	C	1.089616	0.128096	0.421198
C40	C	1.152254	0.065531	0.703634
C41	C	1.152253	0.065525	0.782438
C42	C	1.027045	0.190663	0.782445
C43	C	1.027041	0.190660	0.703643
C44	C	1.089651	0.128095	0.664243
H45	H	1.203191	0.014575	0.328421
O46	O	0.966200	0.251315	0.820799
C47	C	0.909215	0.201794	0.866383
H48	H	0.945825	0.129714	0.878191
H49	H	0.841048	0.195368	0.836027
C50	C	0.844630	0.342276	0.926728
C51	C	0.889599	0.253750	0.941237
H52	H	0.832526	0.374326	0.972901
H53	H	0.883019	0.375641	0.896016
H54	H	0.787830	0.336909	0.901430
H55	H	0.946403	0.259118	0.966526
H56	H	0.851219	0.220387	0.971955
H57	H	0.976027	0.241590	0.328442
H58	H	1.203179	0.014576	0.185464
H59	H	1.111306	-0.024251	0.428531
H60	H	1.067966	0.280435	0.571453
O61	O	0.966322	0.251565	0.665411
C62	C	0.981456	0.342892	0.684667
H63	H	1.055292	0.343512	0.706313
H64	H	0.930395	0.369863	0.730416
C65	C	0.876537	0.404624	0.588078
C66	C	0.967226	0.405385	0.614657
H67	H	0.867755	0.443174	0.544894
H68	H	0.866338	0.343095	0.575106
H69	H	0.833996	0.427097	0.626208
H70	H	1.009765	0.382902	0.576530
H71	H	0.977432	0.466912	0.627621
H72	H	0.976000	0.241585	0.185480
O73	O	1.213208	0.004906	0.665347
C74	C	1.270160	0.054475	0.619771
H75	H	1.271755	0.127221	0.643510
H76	H	1.241359	0.059210	0.560036
C77	C	1.367163	-0.085389	0.589455
C78	C	1.369128	0.003956	0.618615
H79	H	1.428211	-0.116553	0.588738
H80	H	1.328792	-0.118786	0.620157
H81	H	1.343158	-0.081431	0.539678
H82	H	1.393122	-0.000004	0.668393
H83	H	1.407506	0.037351	0.587920
O84	O	1.113029	-0.037429	0.577708
C85	C	1.034753	-0.045050	0.623318
H86	H	0.972749	0.000784	0.599582
H87	H	1.049410	-0.021912	0.683036
C88	C	1.089362	-0.202838	0.653689
C89	C	1.013205	-0.146550	0.624531
H90	H	1.076071	-0.265449	0.654440
H91	H	1.142100	-0.197704	0.622963
H92	H	1.101568	-0.183545	0.703451
H93	H	1.001007	-0.165836	0.574767
H94	H	0.960464	-0.151691	0.655249
O95	O	1.213164	0.004721	0.820587
C96	C	1.268405	-0.050510	0.768909
H97	H	1.269499	-0.012697	0.712733
H98	H	1.238358	-0.119095	0.760544
C99	C	1.366515	-0.115716	0.868643
C100	C	1.367865	-0.069270	0.799648
H101	H	1.427866	-0.127292	0.887604
H102	H	1.329297	-0.078509	0.903460
H103	H	1.341471	-0.172865	0.861662
H104	H	1.392898	-0.012118	0.806631
H105	H	1.405090	-0.106469	0.764832
O106	O	1.066109	0.293708	0.422420
C107	C	1.055556	0.367820	0.474085
H108	H	1.087935	0.344150	0.530255
H109	H	0.978701	0.391247	0.482473
C110	C	1.064342	0.478174	0.374323
C111	C	1.104117	0.449105	0.443311
H112	H	1.094292	0.528316	0.355340
H113	H	1.071447	0.428244	0.339514
H114	H	1.000297	0.497690	0.381322
H115	H	1.168157	0.429578	0.436309
H116	H	1.097023	0.499033	0.478117
