data_functionalizedCrystal
_audit_creation_method	'MofGen! by Chris Wilmer'
_symmetry_space_group_name_H-M	'P1'
_symmetry_Int_Tables_number	1
_symmetry_cell_setting	triclinic
loop_
_symmetry_equiv_pos_as_xyz
  x,y,z
_cell_length_a	14.519709
_cell_length_b	9.730217
_cell_length_c	10.654541
_cell_angle_alpha	89.996959
_cell_angle_beta	95.917963
_cell_angle_gamma	89.995795
loop_
_atom_site_label
_atom_site_type_symbol
_atom_site_fract_x
_atom_site_fract_y
_atom_site_fract_z
O1	O	1.224716	0.114110	-0.164621
O2	O	0.956340	0.114152	-0.184008
O3	O	1.096699	0.114122	0.008484
O4	O	1.084356	0.114141	-0.357113
O5	O	1.096695	-0.114458	0.008486
O6	O	0.956335	-0.114428	-0.184006
O7	O	1.224712	-0.114470	-0.164619
Zn8	Zn	1.090523	-0.150741	-0.174312
Zn9	Zn	1.090528	0.150423	-0.174315
O10	O	1.084352	-0.114440	-0.357112
C11	C	0.921973	-0.000133	-0.183103
C12	C	0.819578	-0.000117	-0.180396
N13	N	1.090526	-0.356277	-0.174310
C14	C	1.214865	-0.356295	-0.003908
C15	C	1.277042	-0.428244	0.081290
C16	C	1.277051	-0.572123	0.081291
C17	C	1.214876	-0.644058	-0.003913
C18	C	1.152700	-0.572109	-0.089110
C19	C	1.152699	-0.428226	-0.089104
C20	C	1.028357	-0.572092	-0.259505
C21	C	1.028350	-0.428212	-0.259514
C22	C	0.966181	-0.644026	-0.344708
C23	C	0.904008	-0.572077	-0.429914
C24	C	0.904002	-0.428189	-0.429912
C25	C	0.966174	-0.356263	-0.344711
C26	C	0.444630	-0.000180	-0.170429
C27	C	0.548952	-0.000162	-0.173197
C28	C	0.632101	-0.000147	-0.175412
C29	C	0.736429	-0.000132	-0.178181
C30	C	1.259078	-0.000182	-0.165524
C31	C	1.361474	-0.000189	-0.168231
C32	C	1.095791	-0.000167	0.055275
C33	C	1.093081	-0.000164	0.194692
N34	N	1.090533	0.355960	-0.174307
C35	C	1.085260	-0.000147	-0.403902
C36	C	1.087970	-0.000141	-0.543319
C37	C	1.260920	-0.000208	0.224277
C38	C	1.343562	-0.000233	0.304566
C39	C	1.341010	-0.000228	0.435559
C40	C	1.255806	-0.000195	0.486265
C41	C	1.173164	-0.000170	0.405976
C42	C	1.175725	-0.000179	0.274981
C43	C	1.005328	-0.000117	0.376392
C44	C	1.007878	-0.000131	0.245398
C45	C	0.920124	-0.000084	0.427098
C46	C	0.837480	-0.000069	0.346809
C47	C	0.840036	-0.000075	0.215808
C48	C	0.925236	-0.000107	0.165109
H49	H	1.214872	-0.239140	-0.003910
H50	H	1.327677	-0.630704	0.150671
H51	H	1.214880	-0.761212	-0.003896
H52	H	0.768114	-0.000033	0.388105
H53	H	1.263006	-0.000231	0.117616
F54	F	0.966187	-0.797156	-0.344702
H55	H	1.408304	-0.000237	0.500931
H56	H	1.253736	-0.000174	0.592928
F57	F	1.343208	-0.351680	0.171970
H58	H	0.853385	-0.630655	-0.499275
H59	H	0.918052	-0.000071	0.533761
F60	F	1.434237	-0.000261	0.250592
F61	F	0.752075	-0.000040	0.130367
F62	F	0.927963	-0.000123	0.025696
H63	H	0.853367	-0.369616	-0.499286
F64	F	0.966177	-0.203133	-0.344707
