data_functionalizedCrystal
_audit_creation_method	'MofGen! by Chris Wilmer'
_symmetry_space_group_name_H-M	'P1'
_symmetry_Int_Tables_number	1
_symmetry_cell_setting	triclinic
loop_
_symmetry_equiv_pos_as_xyz
  x,y,z
_cell_length_a	17.077404
_cell_length_b	13.897448
_cell_length_c	13.897441
_cell_angle_alpha	90.028012
_cell_angle_beta	89.978207
_cell_angle_gamma	89.980206
loop_
_atom_site_label
_atom_site_type_symbol
_atom_site_fract_x
_atom_site_fract_y
_atom_site_fract_z
Zn1	Zn	1.200090	0.383978	-0.545426
Zn2	Zn	1.200000	0.545300	-0.384134
Zn3	Zn	1.068817	0.384021	-0.384141
Zn4	Zn	1.068798	0.545234	-0.545384
O5	O	1.134426	0.464633	-0.464771
O6	O	1.309925	0.405388	-0.524045
O7	O	1.182568	0.523952	-0.249154
O8	O	1.086277	0.249034	-0.405556
O9	O	1.309859	0.523910	-0.405545
O10	O	1.182723	0.249002	-0.524051
O11	O	1.086189	0.405461	-0.249159
O12	O	0.958968	0.405397	-0.405516
O13	O	1.086244	0.523797	-0.680371
O14	O	0.958954	0.523839	-0.523980
O15	O	1.182704	0.405323	-0.680402
O16	O	1.182550	0.680273	-0.405504
O17	O	1.086156	0.680224	-0.523974
C18	C	0.930478	0.464616	-0.464745
C19	C	0.843229	0.464632	-0.464756
C20	C	0.802252	0.526397	-0.526342
C21	C	0.720271	0.526400	-0.526357
C22	C	0.679269	0.464640	-0.464782
C23	C	0.720252	0.402867	-0.403193
C24	C	0.802231	0.402861	-0.403183
C25	C	0.549382	0.402886	-0.403216
C26	C	0.467397	0.402894	-0.403225
C27	C	0.467422	0.526425	-0.526390
C28	C	0.549401	0.526419	-0.526380
C29	C	0.590378	0.464647	-0.464791
C30	C	1.134362	0.715248	-0.464755
C31	C	1.134407	0.822462	-0.464780
C32	C	1.134484	1.018757	-0.464849
C33	C	1.134439	0.909524	-0.464814
C34	C	1.339171	0.464652	-0.464799
C35	C	1.426420	0.464659	-0.464810
C36	C	1.134482	0.464548	-0.716364
C37	C	1.134506	0.464512	-0.823578
C38	C	1.134505	1.213040	-0.464820
C39	C	1.134522	1.105826	-0.464870
C40	C	1.134527	0.464447	-1.019874
C41	C	1.134513	0.464485	-0.910641
C42	C	1.134416	0.464649	-0.214157
C43	C	1.134544	0.464413	-0.106944
H44	H	0.582783	0.576714	-0.576515
H45	H	0.686862	0.352577	-0.353061
H46	H	0.835630	0.576693	-0.576481
Cl47	Cl	0.600895	0.325229	-0.325788
Cl48	Cl	0.668761	0.604052	-0.603783
H49	H	0.434055	0.576719	-0.576542
H50	H	0.434016	0.352592	-0.353096
H51	H	0.835593	0.352560	-0.353039
