data_functionalizedCrystal
_audit_creation_method	'MofGen! by Chris Wilmer'
_symmetry_space_group_name_H-M	'P1'
_symmetry_Int_Tables_number	1
_symmetry_cell_setting	triclinic
loop_
_symmetry_equiv_pos_as_xyz
  x,y,z
_cell_length_a	18.215407
_cell_length_b	16.625545
_cell_length_c	18.215399
_cell_angle_alpha	89.972987
_cell_angle_beta	90.019833
_cell_angle_gamma	89.975515
loop_
_atom_site_label
_atom_site_type_symbol
_atom_site_fract_x
_atom_site_fract_y
_atom_site_fract_z
Zn1	Zn	1.125076	0.321000	0.416121
Zn2	Zn	1.625076	0.821000	0.916121
Zn3	Zn	1.124987	0.455841	0.293056
Zn4	Zn	1.624987	0.955841	0.793056
Zn5	Zn	1.002009	0.321027	0.293068
Zn6	Zn	1.502009	0.821027	0.793068
Zn7	Zn	1.001977	0.455796	0.416081
Zn8	Zn	1.501977	0.955796	0.916081
O9	O	1.063512	0.388416	0.354582
O10	O	1.563512	0.888416	0.854582
O11	O	1.228049	0.338895	0.399808
O12	O	1.728049	0.838895	0.899808
O13	O	1.108649	0.437987	0.190074
O14	O	1.608649	0.937987	0.690074
O15	O	1.018385	0.208191	0.309413
O16	O	1.518385	0.708191	0.809413
O17	O	1.227983	0.437961	0.309393
O18	O	1.727983	0.937961	0.809393
O19	O	1.108802	0.208171	0.399819
O20	O	1.608802	0.708171	0.899819
O21	O	1.018298	0.338940	0.190082
O22	O	1.518298	0.838940	0.690082
O23	O	0.899020	0.338896	0.309374
O24	O	1.399020	0.838896	0.809374
O25	O	1.018330	0.437885	0.519071
O26	O	1.518330	0.937885	1.019071
O27	O	0.898997	0.437910	0.399752
O28	O	1.398997	0.937910	0.899752
O29	O	1.108771	0.338851	0.519100
O30	O	1.608771	0.838851	1.019100
O31	O	1.108618	0.568667	0.309355
O32	O	1.608618	1.068667	0.809355
O33	O	1.018243	0.568634	0.399740
O34	O	1.518243	1.068634	0.899740
C35	C	0.872306	0.388402	0.354560
C36	C	1.372306	0.888402	0.854560
C37	C	0.790507	0.388415	0.354569
C38	C	1.290507	0.888415	0.854569
C39	C	0.602320	0.440053	0.401569
C40	C	1.102320	0.940053	0.901569
C41	C	0.525461	0.440056	0.401578
C42	C	1.025461	0.940056	0.901578
C43	C	0.525456	0.336793	0.307610
C44	C	1.025456	0.836793	0.807610
C45	C	0.602314	0.336787	0.307605
C46	C	1.102314	0.836787	0.807605
C47	C	0.640743	0.388422	0.354584
C48	C	1.140743	0.888422	0.854584
C49	C	0.487027	0.388430	0.354598
C50	C	0.987027	0.888430	0.854598
C51	C	0.403694	0.388433	0.354607
C52	C	0.903694	0.888433	0.854607
C53	C	0.724082	0.388418	0.354575
C54	C	1.224082	0.888418	0.854575
C55	C	1.063437	0.597907	0.354558
C56	C	1.563437	1.097907	0.854558
C57	C	1.063472	0.687528	0.354573
C58	C	1.563472	1.187528	0.854573
C59	C	1.063593	1.015703	0.354660
C60	C	1.563593	1.515703	0.854660
C61	C	1.063557	0.924395	0.354638
C62	C	1.563557	1.424395	0.854638
C63	C	1.063532	0.851618	0.354616
C64	C	1.563532	1.351618	0.854616
C65	C	1.063497	0.760304	0.354594
C66	C	1.563497	1.260304	0.854594
C67	C	1.255465	0.388430	0.354603
C68	C	1.755465	0.888430	0.854603
C69	C	1.337264	0.388436	0.354612
C70	C	1.837264	0.888436	0.854612
C71	C	1.063557	0.388360	0.546535
C72	C	1.563557	0.888360	1.046535
C73	C	1.063576	0.388336	0.628334
C74	C	1.563576	0.888336	1.128334
C75	C	1.063601	1.178107	0.354630
C76	C	1.563601	1.678107	0.854630
C77	C	1.063623	1.088486	0.354673
C78	C	1.563623	1.588486	0.854673
C79	C	1.063510	0.388413	0.163375
C80	C	1.563510	0.888413	0.663375
C81	C	1.063633	0.388209	0.081577
C82	C	1.563633	0.888209	0.581577
C83	C	1.110685	0.336721	0.816544
C84	C	1.610685	0.836721	1.316544
C85	C	1.110694	0.336698	0.893403
C86	C	1.610694	0.836698	1.393403
C87	C	1.016519	0.439827	0.893361
C88	C	1.516519	0.939827	1.393361
C89	C	1.016507	0.439846	0.816504
C90	C	1.516507	0.939846	1.316504
C91	C	1.063594	0.388294	0.778097
C92	C	1.563594	0.888294	1.278097
C93	C	1.063615	0.388252	0.931813
C94	C	1.563615	0.888252	1.431813
C95	C	1.063624	0.388227	1.015147
C96	C	1.563624	0.888227	1.515147
C97	C	1.063584	0.388318	0.694758
C98	C	1.563584	0.888318	1.194758
H99	H	0.633599	0.294737	0.269344
H100	H	1.133599	0.794737	0.769344
H101	H	0.633607	0.482096	0.439824
H102	H	1.133607	0.982096	0.939824
H103	H	1.149039	0.294701	0.924702
H104	H	1.649039	0.794701	1.424702
H105	H	0.494157	0.294755	0.269361
H106	H	0.994157	0.794755	0.769361
Cl107	Cl	1.169878	0.271911	0.768264
Cl108	Cl	1.669878	0.771911	1.268264
Cl109	Cl	0.957330	0.504635	0.941649
Cl110	Cl	1.457330	1.004635	1.441649
H111	H	0.978154	0.481842	0.785200
H112	H	1.478154	0.981842	1.285200
H113	H	0.494180	0.482098	0.439840
H114	H	0.994180	0.982098	0.939840
