data_functionalizedCrystal
_audit_creation_method	'MofGen! by Chris Wilmer'
_symmetry_space_group_name_H-M	'P1'
_symmetry_Int_Tables_number	1
_symmetry_cell_setting	triclinic
loop_
_symmetry_equiv_pos_as_xyz
  x,y,z
_cell_length_a	16.109302
_cell_length_b	27.731996
_cell_length_c	14.586319
_cell_angle_alpha	89.990257
_cell_angle_beta	89.994552
_cell_angle_gamma	83.041584
loop_
_atom_site_label
_atom_site_type_symbol
_atom_site_fract_x
_atom_site_fract_y
_atom_site_fract_z
O1	O	1.102341	0.062133	-0.076294
O2	O	0.860181	0.069865	-0.076288
O3	O	0.988805	-0.004368	-0.076271
O4	O	0.973718	0.136366	-0.076311
O5	O	0.988796	-0.004369	0.076210
O6	O	0.860172	0.069864	0.076193
O7	O	1.102332	0.062132	0.076187
Cu8	Cu	0.981251	0.065998	0.090113
Cu9	Cu	0.981262	0.065999	-0.090214
O10	O	0.973709	0.136365	0.076170
C11	C	0.829206	0.069551	-0.000047
C12	C	0.736922	0.068612	-0.000044
C13	C	0.524604	0.066440	0.083065
C14	C	0.437895	0.065552	0.083062
C15	C	0.437916	0.065556	-0.083181
C16	C	0.524624	0.066440	-0.083177
C17	C	0.567965	0.066885	-0.000051
C18	C	0.394548	0.065113	-0.000058
C19	C	0.300535	0.064150	-0.000062
C20	C	0.661985	0.067846	-0.000047
C21	C	0.988490	-0.022377	-0.000028
C22	C	0.987557	-0.076037	-0.000018
C23	C	0.981688	-0.408777	-0.083180
C24	C	0.978144	-0.610451	-0.083196
O25	O	0.977654	-0.636523	-0.153885
N26	N	0.977698	-0.635670	-0.000080
C27	C	0.978134	-0.610468	0.083047
O28	O	0.977666	-0.636546	0.153742
C29	C	0.981673	-0.408795	0.083062
C30	C	0.982127	-0.383579	-0.000060
C31	C	0.982141	-0.383561	-0.166295
C32	C	0.983032	-0.333146	-0.166291
C33	C	0.983470	-0.307948	-0.083171
C34	C	0.983017	-0.333164	-0.000055
C35	C	0.982103	-0.383594	0.166187
C36	C	0.982985	-0.333172	0.166184
C37	C	0.983439	-0.307956	0.083062
C38	C	0.984346	-0.257551	0.083070
N39	N	0.984791	-0.232331	-0.000047
C40	C	0.984353	-0.257530	-0.083167
C41	C	0.976278	-0.716349	0.083033
C42	C	0.975395	-0.766767	0.083029
C43	C	0.975403	-0.766746	-0.083214
C44	C	0.976292	-0.716328	-0.083209
C45	C	0.976723	-0.691130	-0.000084
C46	C	0.986224	-0.151655	-0.083151
C47	C	0.987119	-0.101236	-0.083138
C48	C	0.987106	-0.101261	0.083104
C49	C	0.986216	-0.151676	0.083093
C50	C	0.985773	-0.176871	-0.000042
O51	O	0.984827	-0.231447	0.153721
O52	O	0.984803	-0.231442	-0.153852
C53	C	0.980798	-0.459192	-0.083185
C54	C	0.980345	-0.484409	-0.000070
C55	C	0.980783	-0.459210	0.083050
C56	C	0.979462	-0.534827	-0.000073
C57	C	0.979024	-0.560025	-0.083193
C58	C	0.979469	-0.534806	-0.166310
C59	C	0.980360	-0.484391	-0.166305
C60	C	0.980338	-0.484430	0.166167
C61	C	0.979448	-0.534845	0.166155
C62	C	0.979010	-0.560043	0.083035
C63	C	1.133308	0.062446	-0.000056
C64	C	1.225591	0.063385	-0.000065
C65	C	0.974023	0.154374	-0.000075
C66	C	0.974957	0.208034	-0.000091
N67	N	0.981250	0.065997	0.216944
N68	N	0.981270	0.065997	-0.217045
C69	C	1.038223	0.033137	0.451958
C70	C	1.038226	0.033136	0.547940
C71	C	0.924291	0.098858	0.547934
C72	C	0.924285	0.098856	0.451955
C73	C	0.981256	0.065997	0.403969
C74	C	0.981264	0.065997	0.595930
C75	C	0.981266	0.065996	0.699997
C76	C	0.981253	0.065997	0.299895
H77	H	0.987490	-0.080707	-0.150829
H78	H	0.983324	-0.312657	0.233876
C79	C	0.873716	0.128046	0.695062
C80	C	0.861678	0.134980	0.600683
H81	H	0.835065	0.150350	0.727624
H82	H	0.865109	0.095788	0.710804
H83	H	0.929136	0.133304	0.710768
H84	H	0.806260	0.129718	0.584977
H85	H	0.870278	0.167245	0.584936
H86	H	1.084611	0.006381	0.412891
C87	C	1.151509	0.022667	0.655865
C88	C	1.100846	-0.002982	0.600692
H89	H	1.190165	0.000367	0.688435
H90	H	1.181144	0.042789	0.618411
H91	H	1.117574	0.042234	0.698178
H92	H	1.134781	-0.022547	0.558375
H93	H	1.071209	-0.023112	0.638149
C94	C	0.350286	0.023022	0.179515
C95	C	0.390237	0.065062	0.174429
H96	H	0.320870	0.022717	0.235927
H97	H	0.312061	0.022636	0.130021
H98	H	0.390836	-0.004799	0.176061
H99	H	0.349686	0.092882	0.177876
H100	H	0.428465	0.065452	0.223937
H101	H	0.559890	0.066802	0.150752
C102	C	0.811667	0.163825	0.461582
C103	C	0.861664	0.134979	0.399198
H104	H	0.773012	0.186125	0.429010
H105	H	0.782030	0.143701	0.499029
H106	H	0.846053	0.181219	0.499006
H107	H	0.827278	0.117582	0.361778
H108	H	0.891303	0.155106	0.361735
H109	H	0.402616	0.065195	-0.150859
H110	H	0.559929	0.066801	-0.150864
C111	C	0.982156	-0.378526	0.330505
C112	C	0.981594	-0.411302	0.257559
H113	H	0.981835	-0.395632	0.386917
H114	H	1.031003	-0.362561	0.327051
H115	H	0.934000	-0.355162	0.327025
H116	H	1.029753	-0.434664	0.261036
H117	H	0.932742	-0.427275	0.261016
C118	C	0.986303	-0.146555	-0.247475
C119	C	0.985723	-0.179344	-0.174533
H120	H	0.985997	-0.163650	-0.303889
H121	H	0.938157	-0.123191	-0.243999
H122	H	1.035160	-0.130591	-0.244013
H123	H	0.936863	-0.195304	-0.177991
H124	H	1.033874	-0.202715	-0.178011
C125	C	0.986297	-0.146629	0.247417
C126	C	0.985722	-0.179397	0.174460
H127	H	0.985980	-0.163741	0.303823
H128	H	1.035146	-0.130667	0.243962
H129	H	0.938144	-0.123263	0.243951
H130	H	1.033879	-0.202762	0.177922
H131	H	0.936867	-0.195368	0.177917
C132	C	1.046622	-0.787713	-0.224927
C133	C	0.974915	-0.794450	-0.174582
H134	H	1.046316	-0.804821	-0.281328
H135	H	1.047207	-0.754082	-0.236828
H136	H	1.094975	-0.799677	-0.190773
H137	H	0.926561	-0.782484	-0.208734
H138	H	0.974322	-0.828089	-0.162684
H139	H	0.980728	-0.463864	-0.233992
C140	C	0.982937	-0.338204	-0.330610
C141	C	0.983516	-0.305432	-0.257662
H142	H	0.983227	-0.321095	-0.387020
H143	H	1.031091	-0.361562	-0.327154
H144	H	0.934089	-0.354175	-0.327133
H145	H	1.032367	-0.289463	-0.261135
H146	H	0.935356	-0.282065	-0.261119
C147	C	0.909660	-0.434795	-0.262772
C148	C	0.981663	-0.411253	-0.257673
H149	H	0.909369	-0.451886	-0.319192
H150	H	0.909271	-0.457034	-0.213288
H151	H	0.861507	-0.411428	-0.259311
H152	H	1.029816	-0.434621	-0.261128
H153	H	0.982059	-0.389012	-0.307170
C154	C	0.905763	-0.654185	-0.179650
C155	C	0.976762	-0.688615	-0.174584
H156	H	0.906050	-0.637078	-0.236063
H157	H	0.856934	-0.670165	-0.176174
H158	H	0.906164	-0.631956	-0.130154
H159	H	0.976358	-0.710846	-0.224076
H160	H	1.025603	-0.672634	-0.178068
C161	C	1.050680	-0.555772	-0.308030
C162	C	0.978973	-0.562506	-0.257682
H163	H	1.050367	-0.572876	-0.364433
H164	H	1.051272	-0.522141	-0.319924
H165	H	1.099033	-0.567741	-0.273880
H166	H	0.930620	-0.550534	-0.291828
H167	H	0.978373	-0.596145	-0.245789
H168	H	0.975038	-0.787295	0.150716
H169	H	0.976633	-0.695838	0.150728
C170	C	0.988451	-0.023978	0.156908
C171	C	0.987582	-0.073555	0.174467
H172	H	0.988735	-0.006873	0.213313
H173	H	1.037100	-0.019412	0.122767
H174	H	0.940098	-0.012023	0.122746
H175	H	1.035939	-0.085510	0.208624
H176	H	0.938928	-0.078124	0.208622
H177	H	0.979086	-0.555372	0.233848
H178	H	0.980696	-0.463919	0.233854
