data_functionalizedCrystal
_audit_creation_method	'MofGen! by Chris Wilmer'
_symmetry_space_group_name_H-M	'P1'
_symmetry_Int_Tables_number	1
_symmetry_cell_setting	triclinic
loop_
_symmetry_equiv_pos_as_xyz
  x,y,z
_cell_length_a	10.540514
_cell_length_b	14.853567
_cell_length_c	13.330367
_cell_angle_alpha	90.008763
_cell_angle_beta	90.007506
_cell_angle_gamma	95.924955
loop_
_atom_site_label
_atom_site_type_symbol
_atom_site_fract_x
_atom_site_fract_y
_atom_site_fract_z
O1	O	1.684516	-0.126930	0.083427
O2	O	1.314967	-0.138925	0.083425
O3	O	1.509612	-0.001752	0.083429
O4	O	1.489870	-0.264103	0.083423
O5	O	1.509583	-0.001774	-0.083418
O6	O	1.314937	-0.138947	-0.083422
O7	O	1.684486	-0.126952	-0.083420
Cu8	Cu	1.499709	-0.132951	-0.098656
Cu9	Cu	1.499744	-0.132925	0.098660
O10	O	1.489840	-0.264125	-0.083424
C11	C	1.267658	-0.138041	0.000002
C12	C	1.126738	-0.135364	0.000001
C13	C	1.054953	-0.233469	0.000001
C14	C	0.908370	-0.230717	0.000385
C15	C	0.935004	-0.081998	0.095101
C16	C	1.081506	-0.085445	0.095175
C17	C	1.081890	-0.084018	-0.094568
C18	C	0.934922	-0.083072	-0.095812
C19	C	1.508703	0.031831	0.000008
C20	C	1.506022	0.131929	0.000017
C21	C	1.731795	-0.127836	0.000006
C22	C	1.872715	-0.130513	0.000012
N23	N	1.499693	-0.132969	-0.237437
C24	C	1.490750	-0.297708	-0.000001
C25	C	1.493430	-0.397806	-0.000003
C26	C	1.379067	0.545159	-0.000003
C27	C	1.610311	0.565172	-0.000001
C28	C	1.612831	0.471125	0.000004
C29	C	1.498468	0.414090	0.000005
C30	C	1.381584	0.451103	0.000000
C31	C	1.729713	0.434104	-0.000001
C32	C	1.732238	0.340051	0.000004
C33	C	1.617873	0.283015	0.000012
C34	C	1.500985	0.320033	0.000008
C35	C	1.386622	0.262999	0.000009
C36	C	1.269732	0.300015	0.000012
C37	C	1.267219	0.394066	0.000008
C38	C	1.620386	0.188964	0.000016
C39	C	1.389139	0.168942	0.000012
C40	C	1.576841	-0.188111	-0.710050
C41	C	1.422685	-0.077703	-0.710038
C42	C	1.422667	-0.077717	-0.605019
C43	C	1.499738	-0.132928	-0.552512
C44	C	1.576828	-0.188125	-0.605022
C45	C	1.345588	-0.022514	-0.552501
C46	C	1.345568	-0.022525	-0.447476
C47	C	1.422633	-0.077742	-0.394966
C48	C	1.499725	-0.132942	-0.447484
C49	C	1.576796	-0.188153	-0.394976
C50	C	1.653882	-0.243358	-0.447491
C51	C	1.653893	-0.243341	-0.552513
C52	C	1.422622	-0.077758	-0.289945
C53	C	1.576783	-0.188166	-0.289948
N54	N	1.499770	-0.132900	0.237442
H55	H	0.866233	-0.268694	0.068948
H56	H	1.130305	-0.013380	0.099237
H57	H	1.639598	-0.233061	-0.752813
H58	H	1.129943	-0.011656	-0.095484
C59	C	1.250494	0.585878	-0.000008
N60	N	1.153652	0.616548	-0.000017
H61	H	1.296008	0.122510	0.000017
C62	C	1.661570	-0.248903	-0.232198
N63	N	1.725434	-0.294649	-0.188701
C64	C	1.260813	0.038211	-0.610265
N65	N	1.196952	0.083949	-0.653778
C66	C	0.905948	0.017429	0.099524
N67	N	0.884058	0.092317	0.102855
H68	H	1.172054	0.424214	0.000010
H69	H	0.892044	-0.115235	0.166134
C70	C	1.260762	0.038194	-0.389719
N71	N	1.196881	0.083925	-0.346215
H72	H	1.822821	0.480548	-0.000011
H73	H	1.359863	-0.032808	-0.247191
H74	H	1.716639	-0.288307	-0.404726
C75	C	1.860818	0.299342	0.000008
N76	N	1.957665	0.268679	0.000015
C77	C	0.850141	-0.282299	-0.091658
N78	N	0.806285	-0.321169	-0.160976
H79	H	1.716655	-0.288285	-0.595280
H80	H	1.359946	-0.032747	-0.752796
H81	H	1.176617	0.253565	0.000006
C82	C	1.123926	-0.128153	-0.191967
N83	N	1.155586	-0.161405	-0.265324
C84	C	1.748956	0.148250	0.000012
N85	N	1.845803	0.117585	0.000013
H86	H	1.083043	-0.273275	-0.068178
C87	C	0.878986	-0.130962	-0.190852
N88	N	0.836844	-0.167033	-0.262434
H89	H	1.084761	-0.272674	0.068088
C90	C	1.119131	-0.133282	0.191571
N91	N	1.147464	-0.169312	0.264179
H92	H	1.703420	0.611615	-0.000010
H93	H	0.911540	-0.010033	-0.101835
