data_functionalizedCrystal
_audit_creation_method	'MofGen! by Chris Wilmer'
_symmetry_space_group_name_H-M	'P1'
_symmetry_Int_Tables_number	1
_symmetry_cell_setting	triclinic
loop_
_symmetry_equiv_pos_as_xyz
  x,y,z
_cell_length_a	10.654550
_cell_length_b	19.288857
_cell_length_c	9.130313
_cell_angle_alpha	89.993335
_cell_angle_beta	89.999724
_cell_angle_gamma	83.809020
loop_
_atom_site_label
_atom_site_type_symbol
_atom_site_fract_x
_atom_site_fract_y
_atom_site_fract_z
O1	O	1.665746	0.097555	-0.121698
O2	O	1.300068	0.106849	-0.121726
O3	O	1.493479	0.001141	-0.121693
O4	O	1.472336	0.203264	-0.121730
O5	O	1.493466	0.001138	0.121906
O6	O	1.300055	0.106846	0.121873
O7	O	1.665733	0.097552	0.121901
Cu8	Cu	1.482893	0.102199	0.144130
Cu9	Cu	1.482909	0.102202	-0.143954
O10	O	1.472323	0.203261	0.121869
C11	C	1.253279	0.106165	0.000071
C12	C	1.113879	0.104124	0.000061
C13	C	1.492794	-0.024742	0.000107
C14	C	1.490756	-0.101859	0.000111
C15	C	1.033058	0.166363	0.000054
C16	C	0.902079	0.164441	0.000079
C17	C	0.932754	0.038033	0.000113
C18	C	1.063731	0.039957	0.000098
C19	C	1.489813	-0.138074	-0.132675
C20	C	1.487880	-0.210533	-0.132686
C21	C	1.486917	-0.246775	0.000097
C22	C	1.487854	-0.210551	0.132900
C23	C	1.489773	-0.138093	0.132908
C24	C	1.557425	-0.366546	0.101822
C25	C	1.555513	-0.439004	0.101809
C26	C	1.480991	-0.470260	0.000080
C27	C	1.408397	-0.429051	-0.101661
C28	C	1.410317	-0.356593	-0.101654
C29	C	1.484835	-0.325344	0.000104
C30	C	1.477951	-0.585043	-0.132727
C31	C	1.476011	-0.657502	-0.132733
C32	C	1.475997	-0.657520	0.132857
C33	C	1.477924	-0.585061	0.132859
C34	C	1.478907	-0.548827	0.000063
C35	C	1.712523	0.098236	0.000102
C36	C	1.851923	0.100278	0.000102
C37	C	1.473008	0.229143	0.000065
C38	C	1.475045	0.306260	0.000051
N39	N	1.482891	0.102196	0.346752
N40	N	1.482920	0.102200	-0.346577
C41	C	1.568562	0.055408	0.423418
C42	C	1.568574	0.055408	0.576755
C43	C	1.397241	0.148990	0.576746
C44	C	1.397224	0.148986	0.423412
H45	H	0.836278	0.215122	0.000077
H46	H	1.638333	0.017308	0.639173
O47	O	1.304866	0.199463	0.659439
H48	H	1.245287	0.231995	0.580363
O49	O	1.490808	-0.099033	0.276140
H50	H	1.406109	-0.060243	0.282500
O51	O	1.150909	-0.027179	0.000107
H52	H	1.211311	-0.029324	0.099398
H53	H	1.638316	0.017307	0.361005
O54	O	1.304822	0.199455	0.340705
H55	H	1.245269	0.231999	0.419769
O56	O	1.474980	-0.696572	-0.275953
H57	H	1.388519	-0.723792	-0.282306
O58	O	1.087154	0.235568	0.000044
H59	H	1.008944	0.278523	0.000062
H60	H	1.490609	-0.108577	-0.240808
O61	O	0.878667	-0.031174	0.000143
H62	H	0.774012	-0.022057	0.000139
O63	O	1.637820	-0.332841	0.211543
H64	H	1.576664	-0.295646	0.280241
H65	H	1.487104	-0.240024	-0.240819
O66	O	1.486837	-0.249642	0.276114
H67	H	1.400401	-0.276885	0.282455
O68	O	1.332006	-0.312142	-0.211356
H69	H	1.279850	-0.346043	-0.282091
O70	O	1.327996	-0.462747	-0.211383
H71	H	1.389143	-0.499953	-0.280065
O72	O	1.478986	-0.545952	-0.275947
H73	H	1.477981	-0.583310	-0.368287
H74	H	1.475203	-0.687027	0.240971
H75	H	1.478703	-0.555575	0.240988
H76	H	1.614628	-0.472551	0.184647
