data_functionalizedCrystal
_audit_creation_method	'MofGen! by Chris Wilmer'
_symmetry_space_group_name_H-M	'P1'
_symmetry_Int_Tables_number	1
_symmetry_cell_setting	triclinic
loop_
_symmetry_equiv_pos_as_xyz
  x,y,z
_cell_length_a	16.109301
_cell_length_b	19.288864
_cell_length_c	17.766277
_cell_angle_alpha	90.023209
_cell_angle_beta	89.992214
_cell_angle_gamma	96.701137
loop_
_atom_site_label
_atom_site_type_symbol
_atom_site_fract_x
_atom_site_fract_y
_atom_site_fract_z
O1	O	0.103716	-0.921601	-0.062838
O2	O	0.603716	-0.421601	0.437162
O3	O	0.117707	-0.719373	-0.062787
O4	O	0.617707	-0.219373	0.437213
O5	O	-0.010338	-0.826042	-0.062806
O6	O	0.489662	-0.326042	0.437194
O7	O	0.231761	-0.814932	-0.062819
O8	O	0.731761	-0.314932	0.437181
O9	O	-0.010345	-0.826024	0.062382
O10	O	0.489655	-0.326024	0.562382
O11	O	0.117701	-0.719355	0.062402
O12	O	0.617701	-0.219355	0.562402
O13	O	0.103710	-0.921582	0.062351
O14	O	0.603710	-0.421582	0.562351
Cu15	Cu	0.110704	-0.820467	0.073807
Cu16	Cu	0.610704	-0.320467	0.573807
Cu17	Cu	0.110712	-0.820489	-0.074243
Cu18	Cu	0.610712	-0.320489	0.425757
O19	O	0.231755	-0.814913	0.062370
O20	O	0.731755	-0.314913	0.562370
C21	C	0.117254	-0.693487	-0.000186
C22	C	0.617254	-0.193487	0.499814
C23	C	0.115902	-0.616380	-0.000166
C24	C	0.615902	-0.116380	0.499834
C25	C	-0.041315	-0.825583	-0.000211
C26	C	0.458685	-0.325583	0.499789
C27	C	-0.133606	-0.824234	-0.000210
C28	C	0.366394	-0.324234	0.499790
N29	N	0.110699	-0.820456	0.177937
N30	N	0.610699	-0.320456	0.677937
C31	C	-0.356084	-0.884391	-0.000237
C32	C	0.143916	-0.384391	0.499763
C33	C	-0.442800	-0.883118	-0.000243
C34	C	0.057200	-0.383118	0.499757
C35	C	-0.422493	-0.756559	-0.000208
C36	C	0.077507	-0.256559	0.499792
C37	C	-0.335778	-0.757833	-0.000208
C38	C	0.164222	-0.257833	0.499792
C39	C	-0.302577	-0.821751	-0.000218
C40	C	0.197423	-0.321751	0.499782
C41	C	-0.476007	-0.819204	-0.000225
C42	C	0.023993	-0.319204	0.499775
C43	C	-0.570028	-0.817823	-0.000231
C44	C	-0.070028	-0.317823	0.499769
C45	C	-0.208549	-0.823133	-0.000213
C46	C	0.291451	-0.323133	0.499787
C47	C	0.262732	-0.815372	-0.000227
C48	C	0.762732	-0.315372	0.499773
C49	C	0.355022	-0.816722	-0.000233
C50	C	0.855022	-0.316722	0.499767
C51	C	0.104163	-0.947469	-0.000252
C52	C	0.604163	-0.447469	0.499748
C53	C	0.105514	-1.024576	-0.000277
C54	C	0.605514	-0.524576	0.499723
C55	C	0.191034	-0.571863	-0.000182
C56	C	0.691034	-0.071863	0.499818
C57	C	0.189764	-0.499413	-0.000190
C58	C	0.689764	0.000587	0.499810
C59	C	0.113359	-0.471483	-0.000198
C60	C	0.613359	0.028517	0.499802
C61	C	0.038218	-0.516009	-0.000178
C62	C	0.538218	-0.016009	0.499822
C63	C	0.039489	-0.588458	-0.000162
C64	C	0.539489	-0.088458	0.499838
C65	C	0.053298	-0.363084	-0.044079
C66	C	0.553298	0.136916	0.455921
C67	C	0.052029	-0.290636	-0.044100
C68	C	0.552029	0.209364	0.455900
C69	C	0.109433	-0.248028	-0.000243
C70	C	0.609433	0.251972	0.499757
C71	C	0.168120	-0.277874	0.043624
C72	C	0.668120	0.222126	0.543624
C73	C	0.169391	-0.350323	0.043640
C74	C	0.669391	0.149677	0.543640
C75	C	0.111971	-0.392925	-0.000214
C76	C	0.611971	0.107075	0.499786
C77	C	0.183193	-0.124952	-0.000267
C78	C	0.683193	0.375048	0.499733
C79	C	0.181920	-0.052501	-0.000270
C80	C	0.681920	0.447499	0.499730
C81	C	0.030372	-0.069099	-0.000266
C82	C	0.530372	0.430901	0.499734
C83	C	0.031647	-0.141548	-0.000254
C84	C	0.531647	0.358452	0.499746
C85	C	0.108060	-0.169470	-0.000259
C86	C	0.608060	0.330530	0.499741
N87	N	0.110711	-0.820505	-0.178373
N88	N	0.610711	-0.320505	0.321627
C89	C	0.054028	-0.867704	0.217315
C90	C	0.554028	-0.367704	0.717315
C91	C	0.054024	-0.867708	0.296117
C92	C	0.554024	-0.367708	0.796117
C93	C	0.110705	-0.820471	0.335538
C94	C	0.610705	-0.320471	0.835538
C95	C	0.167380	-0.773214	0.296150
C96	C	0.667380	-0.273214	0.796150
C97	C	0.167377	-0.773206	0.217350
C98	C	0.667377	-0.273206	0.717350
C99	C	0.186459	-0.811353	0.460373
C100	C	0.686459	-0.311353	0.960373
C101	C	0.186463	-0.811365	0.539172
C102	C	0.686463	-0.311365	1.039172
C103	C	0.110715	-0.820489	0.578584
C104	C	0.610715	-0.320489	1.078584
C105	C	0.034960	-0.829616	0.539188
C106	C	0.534960	-0.329616	1.039188
C107	C	0.034956	-0.829609	0.460387
C108	C	0.534956	-0.329609	0.960387
C109	C	0.110715	-0.820473	0.420983
C110	C	0.610715	-0.320473	0.920983
C111	C	0.054035	-0.867745	0.703408
C112	C	0.554035	-0.367745	1.203408
C113	C	0.054030	-0.867744	0.782212
C114	C	0.554030	-0.367744	1.282212
C115	C	0.167394	-0.773252	0.782243
C116	C	0.667394	-0.273252	1.282243
C117	C	0.167392	-0.773250	0.703441
C118	C	0.667392	-0.273250	1.203441
C119	C	0.110713	-0.820500	0.664028
C120	C	0.610713	-0.320500	1.164028
H121	H	-0.486363	-0.934126	-0.000260
H122	H	0.013637	-0.434126	0.499740
H123	H	0.213542	-0.734788	0.814338
H124	H	0.713542	-0.234788	1.314338
O125	O	0.268165	-0.801535	0.581663
O126	O	0.768165	-0.301535	1.081663
H127	H	0.320837	-0.795180	0.541021
H128	H	0.820837	-0.295180	1.041021
O129	O	-0.320268	-0.953328	-0.000264
O130	O	0.179732	-0.453328	0.499736
H131	H	-0.372048	-0.996671	-0.000288
H132	H	0.127952	-0.496671	0.499712
O133	O	-0.458302	-0.687620	-0.000180
O134	O	0.041698	-0.187620	0.499820
H135	H	-0.527590	-0.697256	-0.000173
H136	H	-0.027590	-0.197256	0.499827
H137	H	-0.292210	-0.706821	-0.000194
H138	H	0.207790	-0.206821	0.499806
H139	H	-0.029534	-0.177795	-0.000246
H140	H	0.470466	0.322205	0.499754
O141	O	0.273446	-0.601981	-0.000165
O142	O	0.773446	-0.101981	0.499835
H143	H	0.325477	-0.558849	-0.000166
H144	H	0.825477	-0.058849	0.499834
H145	H	0.007882	-0.906216	0.671317
H146	H	0.507882	-0.406216	1.171317
H147	H	0.250947	-0.463160	-0.000201
H148	H	0.750947	0.036840	0.499799
O149	O	-0.007100	-0.918674	0.338603
O150	O	0.492900	-0.418674	0.838603
H151	H	0.027810	-0.952414	0.374481
H152	H	0.527810	-0.452414	0.874481
O153	O	0.232652	-0.382521	0.090981
O154	O	0.732652	0.117479	0.590981
H155	H	0.272346	-0.340728	0.121490
H156	H	0.772346	0.159272	0.621490
O157	O	0.268163	-0.801516	0.417866
O158	O	0.768163	-0.301516	0.917866
H159	H	0.320839	-0.795184	0.458497
H160	H	0.820839	-0.295184	0.958497
O161	O	0.230037	-0.231931	0.090937
O162	O	0.730037	0.268069	0.590937
H163	H	0.219289	-0.176539	0.083567
H164	H	0.719289	0.323461	0.583567
H165	H	0.245413	-0.147687	-0.000259
H166	H	0.745413	0.352313	0.499741
H167	H	0.243104	-0.016255	-0.000279
H168	H	0.743104	0.483745	0.499721
O169	O	-0.052041	-0.038987	-0.000274
O170	O	0.447959	0.461013	0.499726
H171	H	-0.040305	0.018871	-0.000291
H172	H	0.459695	0.518871	0.499709
H173	H	0.004247	-0.266341	-0.079822
H174	H	0.504247	0.233659	0.420178
H175	H	-0.023992	-0.493264	-0.000194
H176	H	0.476008	0.006736	0.499806
O177	O	-0.008615	-0.409039	-0.091388
O178	O	0.491385	0.090961	0.408612
H179	H	-0.049625	-0.376115	-0.121904
H180	H	0.450375	0.123885	0.378096
O181	O	-0.041552	-0.636475	-0.000149
O182	O	0.458448	-0.136475	0.499851
H183	H	-0.044600	-0.669848	0.050885
H184	H	0.455400	-0.169848	0.550885
O185	O	-0.007111	-0.918655	0.174804
O186	O	0.492889	-0.418655	0.674804
H187	H	-0.046526	-0.951506	0.215431
H188	H	0.453474	-0.451506	0.715431
H189	H	-0.026726	-0.837038	0.428314
H190	H	0.473274	-0.337038	0.928314
O191	O	-0.046750	-0.839453	0.581682
O192	O	0.453250	-0.339453	1.081682
H193	H	-0.034025	-0.837915	0.643095
H194	H	0.465975	-0.337915	1.143095
O195	O	-0.007087	-0.918714	0.824690
O196	O	0.492913	-0.418714	1.324690
H197	H	-0.046488	-0.951573	0.784042
H198	H	0.453512	-0.451573	1.284042
O199	O	0.228525	-0.722297	0.660960
O200	O	0.728525	-0.222297	1.160960
H201	H	0.267945	-0.689453	0.701608
H202	H	0.767945	-0.189453	1.201608
O203	O	0.228522	-0.722266	0.338660
O204	O	0.728522	-0.222266	0.838660
H205	H	0.219011	-0.730214	0.400072
H206	H	0.719011	-0.230214	0.900072
O207	O	0.228509	-0.722249	0.174869
O208	O	0.728509	-0.222249	0.674869
H209	H	0.267927	-0.689403	0.215516
H210	H	0.767927	-0.189403	0.715516
