data_functionalizedCrystal
_audit_creation_method	'MofGen! by Chris Wilmer'
_symmetry_space_group_name_H-M	'P1'
_symmetry_Int_Tables_number	1
_symmetry_cell_setting	triclinic
loop_
_symmetry_equiv_pos_as_xyz
  x,y,z
_cell_length_a	14.519709
_cell_length_b	9.065218
_cell_length_c	8.140239
_cell_angle_alpha	90.004899
_cell_angle_beta	89.995533
_cell_angle_gamma	95.651952
loop_
_atom_site_label
_atom_site_type_symbol
_atom_site_fract_x
_atom_site_fract_y
_atom_site_fract_z
O1	O	0.135226	-1.957864	-0.136702
O2	O	0.635226	-1.457864	0.363298
O3	O	0.146318	-1.528371	-0.136687
O4	O	0.646318	-1.028371	0.363313
O5	O	0.006617	-1.754505	-0.136680
O6	O	0.506617	-1.254505	0.363320
O7	O	0.274927	-1.731730	-0.136709
O8	O	0.774927	-1.231730	0.363291
O9	O	0.006615	-1.754492	0.136547
O10	O	0.506615	-1.254492	0.636547
O11	O	0.146316	-1.528358	0.136540
O12	O	0.646316	-1.028358	0.636540
O13	O	0.135224	-1.957851	0.136525
O14	O	0.635224	-1.457851	0.636525
Zn15	Zn	0.140770	-1.743103	0.179913
Zn16	Zn	0.640770	-1.243103	0.679913
Zn17	Zn	0.140772	-1.743119	-0.180075
Zn18	Zn	0.640772	-1.243119	0.319925
O19	O	0.274925	-1.731717	0.136518
O20	O	0.774925	-1.231717	0.636518
C21	C	0.145251	-1.473398	-0.000071
C22	C	0.645251	-0.973398	0.499929
C23	C	0.142063	-1.309615	-0.000065
C24	C	0.642063	-0.809615	0.499935
C25	C	-0.027752	-1.753437	-0.000066
C26	C	0.472248	-1.253437	0.499934
C27	C	-0.130156	-1.750256	-0.000065
C28	C	0.369844	-1.250256	0.499935
C29	C	-0.505138	-1.738547	-0.000107
C30	C	-0.005138	-1.238547	0.499893
C31	C	-0.400806	-1.741799	-0.000095
C32	C	0.099194	-1.241799	0.499905
C33	C	-0.317650	-1.744401	-0.000085
C34	C	0.182350	-1.244401	0.499915
C35	C	-0.213312	-1.747654	-0.000075
C36	C	0.286688	-1.247654	0.499925
C37	C	0.309294	-1.732785	-0.000099
C38	C	0.809294	-1.232785	0.499901
C39	C	0.411698	-1.735966	-0.000111
C40	C	0.911698	-1.235966	0.499889
N41	N	0.140768	-1.743102	0.425596
N42	N	0.640768	-1.243102	0.925596
C43	C	0.136291	-1.012824	-0.000084
C44	C	0.636291	-0.512824	0.499916
C45	C	0.139478	-1.176607	-0.000070
C46	C	0.639478	-0.676607	0.499930
N47	N	0.140767	-1.743131	-0.425758
N48	N	0.640767	-1.243131	0.074242
