data_functionalizedCrystal
_audit_creation_method	'MofGen! by Chris Wilmer'
_symmetry_space_group_name_H-M	'P1'
_symmetry_Int_Tables_number	1
_symmetry_cell_setting	triclinic
loop_
_symmetry_equiv_pos_as_xyz
  x,y,z
_cell_length_a	10.540539
_cell_length_b	10.723024
_cell_length_c	9.198806
_cell_angle_alpha	90.003648
_cell_angle_beta	89.998955
_cell_angle_gamma	95.503320
loop_
_atom_site_label
_atom_site_type_symbol
_atom_site_fract_x
_atom_site_fract_y
_atom_site_fract_z
O1	O	0.178046	-1.657276	-0.120876
O2	O	0.195088	-1.294132	-0.120880
O3	O	0.001856	-1.483989	-0.120876
O4	O	0.371278	-1.467419	-0.120880
O5	O	0.001856	-1.483974	0.120909
O6	O	0.195088	-1.294117	0.120905
O7	O	0.178045	-1.657261	0.120909
Cu8	Cu	0.186567	-1.475688	0.142984
Cu9	Cu	0.186567	-1.475706	-0.142955
O10	O	0.371277	-1.467404	0.120905
C11	C	0.193848	-1.247624	0.000012
C12	C	0.190137	-1.109068	0.000010
C13	C	-0.045446	-1.482739	0.000014
C14	C	-0.186392	-1.479021	0.000006
N15	N	0.186565	-1.475684	0.344098
C16	C	-0.369746	-1.336563	-0.000538
C17	C	-0.223130	-1.340332	0.000006
C18	C	-0.248085	-1.545756	0.138078
C19	C	-0.394627	-1.541023	0.138194
C20	C	-0.395146	-1.543861	-0.136760
C21	C	-0.248164	-1.545138	-0.138586
C22	C	0.418580	-1.468654	0.000012
C23	C	0.559526	-1.472372	0.000011
C24	C	0.179286	-1.703769	0.000014
C25	C	0.182997	-1.842325	0.000007
C26	C	0.298260	-1.034139	0.000008
C27	C	0.294427	-0.890934	0.000006
N28	N	0.186558	-1.475719	-0.344069
C29	C	0.105075	-1.555399	0.416297
C30	C	0.105071	-1.555419	0.583709
H31	H	-0.180499	-1.287821	-0.098969
H32	H	-0.398318	-1.281784	-0.099552
C33	C	0.061243	-1.052520	0.000011
C34	C	0.027192	-0.966766	0.125562
C35	C	-0.101706	-0.910222	0.125563
C36	C	-0.196555	-0.939432	0.000012
C37	C	-0.162507	-1.025191	-0.125549
C38	C	-0.033608	-1.081735	-0.125550
H39	H	0.097407	-0.945138	0.218511
H40	H	-0.126911	-0.846737	0.218512
H41	H	-0.291973	-0.897575	0.000012
H42	H	-0.232721	-1.046819	-0.218498
H43	H	-0.008404	-1.145220	-0.218499
H44	H	-0.223995	-1.646253	-0.146922
H45	H	0.256334	-1.407472	0.593853
H46	H	0.035308	-1.623671	0.645797
H47	H	0.256325	-1.407446	0.406225
H48	H	-0.399926	-1.281995	0.097920
H49	H	-0.181347	-1.287441	0.099145
H50	H	-0.422801	-1.491690	0.241405
H51	H	0.090430	-0.906704	-0.000001
H52	H	-0.207281	-1.496309	-0.240728
C53	C	-0.459515	-1.675759	0.146683
C54	C	-0.548132	-1.715246	0.275100
C55	C	-0.613016	-1.849978	0.283598
C56	C	-0.589283	-1.945224	0.163679
C57	C	-0.500661	-1.905739	0.035252
C58	C	-0.435777	-1.771007	0.026754
H59	H	-0.565705	-1.644738	0.363880
H60	H	-0.678620	-1.879207	0.378669
H61	H	-0.637314	-2.044960	0.169970
H62	H	-0.483088	-1.976247	-0.053528
H63	H	-0.370173	-1.741778	-0.068317
C64	C	-0.190520	-1.483112	0.276891
C65	C	-0.046364	-1.479948	0.305917
C66	C	0.011198	-1.417295	0.444725
C67	C	-0.075396	-1.357807	0.554506
C68	C	-0.219561	-1.360970	0.525483
C69	C	-0.277123	-1.423622	0.386675
H70	H	0.017745	-1.523986	0.224647
H71	H	0.117918	-1.414954	0.466209
H72	H	-0.032786	-1.311428	0.657260
H73	H	-0.283671	-1.316931	0.606753
H74	H	-0.383843	-1.425963	0.365191
H75	H	-0.225783	-1.647605	0.143213
H76	H	-0.426675	-1.498980	-0.241410
H77	H	-0.442423	-1.644035	-0.137688
H78	H	0.393665	-1.076009	0.000015
H79	H	0.386988	-0.826548	-0.000001
H80	H	0.035306	-1.623629	0.354172
