data_functionalizedCrystal
_audit_creation_method	'MofGen! by Chris Wilmer'
_symmetry_space_group_name_H-M	'P1'
_symmetry_Int_Tables_number	1
_symmetry_cell_setting	triclinic
loop_
_symmetry_equiv_pos_as_xyz
  x,y,z
_cell_length_a	14.044190
_cell_length_b	8.559649
_cell_length_c	7.681481
_cell_angle_alpha	85.086760
_cell_angle_beta	83.728840
_cell_angle_gamma	98.514779
loop_
_atom_site_label
_atom_site_type_symbol
_atom_site_fract_x
_atom_site_fract_y
_atom_site_fract_z
O1	O	-0.021858	-2.101907	-0.146396
O2	O	0.026593	-1.643609	-0.146414
O3	O	-0.135118	-1.865876	-0.146371
O4	O	0.139853	-1.879640	-0.146440
O5	O	-0.155063	-1.893228	0.146492
O6	O	0.006649	-1.670961	0.146449
O7	O	-0.041802	-2.129259	0.146467
Zn8	Zn	-0.020743	-1.904452	0.192956
Zn9	Zn	0.005534	-1.868415	-0.192904
O10	O	0.119909	-1.906991	0.146423
C11	C	0.020293	-1.598278	0.000015
C12	C	0.031222	-1.422456	0.000010
C13	C	-0.179967	-1.873529	0.000065
C14	C	-0.283886	-1.855562	0.000080
C15	C	-0.035501	-2.174589	0.000033
C16	C	-0.046430	-2.350410	0.000027
C17	C	-0.541053	-1.950141	0.000015
C18	C	-0.474150	-1.822733	0.000022
C19	C	-0.368277	-1.841003	0.000054
C20	C	-0.646936	-1.931873	-0.000018
C21	C	0.164758	-1.899339	-0.000017
C22	C	0.268678	-1.917304	-0.000043
N23	N	-0.038678	-1.929058	0.456295
N24	N	0.023461	-1.843821	-0.456243
H25	H	-0.496385	-1.699934	0.000007
H26	H	0.086886	-1.756810	0.468543
Cl27	Cl	-0.136601	-2.063425	0.572424
Cl28	Cl	-0.161986	-1.462846	0.000046
H29	H	-0.518819	-2.072931	0.000038
H30	H	0.106071	-1.349619	-0.000018
