data_functionalizedCrystal
_audit_creation_method	'MofGen! by Chris Wilmer'
_symmetry_space_group_name_H-M	'P1'
_symmetry_Int_Tables_number	1
_symmetry_cell_setting	triclinic
loop_
_symmetry_equiv_pos_as_xyz
  x,y,z
_cell_length_a	16.109301
_cell_length_b	15.995292
_cell_length_c	15.186229
_cell_angle_alpha	89.999448
_cell_angle_beta	89.999362
_cell_angle_gamma	83.465048
loop_
_atom_site_label
_atom_site_type_symbol
_atom_site_fract_x
_atom_site_fract_y
_atom_site_fract_z
O1	O	1.103137	0.107627	-0.073167
O2	O	0.861076	0.121021	-0.073180
O3	O	0.988749	-0.007569	-0.073174
O4	O	0.975465	0.236217	-0.073172
O5	O	0.988740	-0.007571	0.073283
O6	O	0.861068	0.121019	0.073277
O7	O	1.103129	0.107625	0.073291
Zn8	Zn	0.982097	0.114322	0.096537
Zn9	Zn	0.982108	0.114324	-0.096426
O10	O	0.975456	0.236215	0.073285
C11	C	0.830097	0.120478	0.000047
C12	C	0.737802	0.118851	0.000042
C13	C	0.515534	0.191371	0.000053
C14	C	0.428813	0.189836	0.000058
C15	C	0.448678	0.037269	0.000053
C16	C	0.535397	0.038805	0.000054
C17	C	0.568822	0.115858	0.000049
C18	C	0.395383	0.112788	0.000054
C19	C	0.301357	0.111123	0.000060
C20	C	0.662854	0.117524	0.000045
C21	C	0.988204	-0.038765	0.000052
C22	C	0.986583	-0.131718	0.000046
C23	C	0.980624	-0.469454	0.000053
C24	C	1.072775	-0.446167	0.000385
C25	C	1.074526	-0.349492	0.000052
C26	C	0.983581	-0.301899	0.000050
C27	C	0.937515	-0.330987	-0.083584
C28	C	0.936405	-0.427777	-0.083651
C29	C	0.934514	-0.427636	0.082898
C30	C	0.937929	-0.331144	0.084000
C31	C	0.985247	-0.207204	0.000045
C32	C	0.978955	-0.564150	0.000052
C33	C	1.134108	0.108169	0.000062
C34	C	1.226403	0.109795	0.000061
C35	C	0.976001	0.267411	0.000057
C36	C	0.977622	0.360364	0.000058
N37	N	0.982095	0.114320	0.228230
N38	N	0.982116	0.114320	-0.228119
C39	C	1.038648	0.057399	0.453955
C40	C	1.038651	0.057397	0.546145
C41	C	0.925558	0.171243	0.546149
C42	C	0.925552	0.171240	0.453961
C43	C	0.982102	0.114319	0.407867
C44	C	0.982110	0.114320	0.592244
C45	C	0.982112	0.114318	0.692200
C46	C	0.982098	0.114320	0.307904
H47	H	0.542745	0.254113	0.000055
H48	H	1.084693	0.011050	0.416427
H49	H	1.084695	0.011047	0.583668
H50	H	0.879517	0.217588	0.583688
O51	O	0.377168	0.263267	0.000019
C52	C	0.425270	0.331601	0.000039
H53	H	0.489997	0.310331	-0.027691
H54	H	0.393268	0.384510	-0.042480
H55	H	0.431441	0.355219	0.070302
O56	O	1.114842	-0.480683	-0.070859
C57	C	1.074425	-0.449588	-0.148504
H58	H	1.035917	-0.386801	-0.134087
H59	H	1.123148	-0.440314	-0.200980
H60	H	1.031530	-0.496503	-0.173232
O61	O	0.416068	-0.037504	0.000012
C62	C	0.328101	-0.022669	0.000032
H63	H	0.307722	0.042681	-0.027693
H64	H	0.301488	-0.071968	-0.042492
H65	H	0.303960	-0.026725	0.070294
H66	H	0.870591	-0.299101	-0.086695
H67	H	0.578787	-0.022691	0.000054
O68	O	1.117706	-0.327426	-0.071629
C69	C	1.065145	-0.271753	-0.124702
H70	H	1.012182	-0.239341	-0.082873
H71	H	1.102769	-0.222408	-0.154180
H72	H	1.037983	-0.308489	-0.179969
H73	H	0.971472	-0.312589	0.145872
H74	H	0.968316	-0.454601	-0.146167
O75	O	0.870588	0.226618	0.409321
C76	C	0.820668	0.276849	0.469771
H77	H	0.854755	0.277811	0.535484
H78	H	0.807967	0.343713	0.443128
H79	H	0.758916	0.249642	0.479582
O80	O	0.858745	-0.291743	0.089879
C81	C	0.842827	-0.236574	0.017896
H82	H	0.886812	-0.257935	-0.038592
H83	H	0.775360	-0.237060	-0.004567
H84	H	0.853438	-0.170120	0.038638
H85	H	1.108290	-0.474175	0.060363
H86	H	1.110604	-0.330478	0.060003
H87	H	0.866684	-0.441608	0.083460
H88	H	0.868840	-0.442309	-0.087442
H89	H	0.963531	-0.455733	0.146292
O90	O	0.975568	-0.306962	-0.157863
C91	C	0.918122	-0.253455	-0.207983
H92	H	0.866354	-0.223243	-0.163209
H93	H	0.951709	-0.202252	-0.239920
H94	H	0.889851	-0.291601	-0.261346
