data_functionalizedCrystal
_audit_creation_method	'MofGen! by Chris Wilmer'
_symmetry_space_group_name_H-M	'P1'
_symmetry_Int_Tables_number	1
_symmetry_cell_setting	triclinic
loop_
_symmetry_equiv_pos_as_xyz
  x,y,z
_cell_length_a	18.050590
_cell_length_b	18.050590
_cell_length_c	18.050582
_cell_angle_alpha	90.024044
_cell_angle_beta	90.000128
_cell_angle_gamma	90.007719
loop_
_atom_site_label
_atom_site_type_symbol
_atom_site_fract_x
_atom_site_fract_y
_atom_site_fract_z
Zn1	Zn	1.135349	-0.295916	0.419598
Zn2	Zn	1.385349	-0.045916	0.669598
Zn3	Zn	1.635349	0.204084	0.919598
Zn4	Zn	1.885349	0.454084	1.169598
Zn5	Zn	1.135279	-0.420101	0.295406
Zn6	Zn	1.385279	-0.170101	0.545406
Zn7	Zn	1.635279	0.079899	0.795406
Zn8	Zn	1.885279	0.329899	1.045406
Zn9	Zn	1.011166	-0.295906	0.295456
Zn10	Zn	1.261166	-0.045906	0.545456
Zn11	Zn	1.511166	0.204094	0.795456
Zn12	Zn	1.761166	0.454094	1.045456
Zn13	Zn	1.011137	-0.420045	0.419589
Zn14	Zn	1.261137	-0.170045	0.669589
Zn15	Zn	1.511137	0.079955	0.919589
Zn16	Zn	1.761137	0.329955	1.169589
O17	O	1.073233	-0.357992	0.357512
O18	O	1.323233	-0.107992	0.607512
O19	O	1.573233	0.142008	0.857512
O20	O	1.823233	0.392008	1.107512
O21	O	1.239264	-0.312417	0.403106
O22	O	1.489264	-0.062417	0.653106
O23	O	1.739264	0.187583	0.903106
O24	O	1.989264	0.437583	1.153106
O25	O	1.118798	-0.403645	0.191488
O26	O	1.368798	-0.153645	0.441488
O27	O	1.618798	0.096355	0.691488
O28	O	1.868798	0.346355	0.941488
O29	O	1.027681	-0.191983	0.311948
O30	O	1.277681	0.058017	0.561948
O31	O	1.527681	0.308017	0.811948
O32	O	1.777681	0.558017	1.061948
O33	O	1.239213	-0.403655	0.311863
O34	O	1.489213	-0.153655	0.561863
O35	O	1.739213	0.096345	0.811863
O36	O	1.989213	0.346345	1.061863
O37	O	1.118917	-0.191990	0.403155
O38	O	1.368917	0.058010	0.653155
O39	O	1.618917	0.308010	0.903155
O40	O	1.868917	0.558010	1.153155
O41	O	1.027613	-0.312400	0.191525
O42	O	1.277613	-0.062400	0.441525
O43	O	1.527613	0.187600	0.691525
O44	O	1.777613	0.437600	0.941525
O45	O	0.907238	-0.312346	0.311939
O46	O	1.157238	-0.062346	0.561939
O47	O	1.407238	0.187654	0.811939
O48	O	1.657238	0.437654	1.061939
O49	O	1.027631	-0.403560	0.523514
O50	O	1.277631	-0.153560	0.773514
O51	O	1.527631	0.096440	1.023514
O52	O	1.777631	0.346440	1.273514
O53	O	0.907216	-0.403550	0.403139
O54	O	1.157216	-0.153550	0.653139
O55	O	1.407216	0.096450	0.903139
O56	O	1.657216	0.346450	1.153139
O57	O	1.118889	-0.312363	0.523521
O58	O	1.368889	-0.062363	0.773521
O59	O	1.618889	0.187637	1.023521
O60	O	1.868889	0.437637	1.273521
O61	O	1.118769	-0.524018	0.311854
O62	O	1.368769	-0.274018	0.561854
O63	O	1.618769	-0.024018	0.811854
O64	O	1.868769	0.225982	1.061854
O65	O	1.027563	-0.523977	0.403091
O66	O	1.277563	-0.273977	0.653091
O67	O	1.527563	-0.023977	0.903091
O68	O	1.777563	0.226023	1.153091
C69	C	0.880281	-0.357941	0.357544
C70	C	1.130281	-0.107941	0.607544
C71	C	1.380281	0.142059	0.857544
C72	C	1.630281	0.392059	1.107544
C73	C	0.797735	-0.357938	0.357575
C74	C	1.047735	-0.107938	0.607575
C75	C	1.297735	0.142062	0.857575
C76	C	1.547735	0.392062	1.107575
C77	C	0.598294	-0.407677	0.407052
C78	C	0.848294	-0.157677	0.657052
C79	C	1.098294	0.092323	0.907052
C80	C	1.348294	0.342323	1.157052
C81	C	0.548890	-0.339962	0.425328
C82	C	0.798890	-0.089962	0.675328
C83	C	1.048890	0.160038	0.925328
C84	C	1.298890	0.410038	1.175328
C85	C	0.646604	-0.357979	0.357539
C86	C	0.896604	-0.107979	0.607539
C87	C	1.146604	0.142021	0.857539
C88	C	1.396604	0.392021	1.107539
C89	C	0.548927	-0.425733	0.339262
C90	C	0.798927	-0.175733	0.589262
C91	C	1.048927	0.074267	0.839262
C92	C	1.298927	0.324267	1.089262
C93	C	0.500619	-0.358025	0.357505
C94	C	0.750619	-0.108025	0.607505
C95	C	1.000619	0.141975	0.857505
C96	C	1.250619	0.391975	1.107505
C97	C	0.598287	-0.290228	0.375850
C98	C	0.848287	-0.040228	0.625850
C99	C	1.098287	0.209772	0.875850
C100	C	1.348287	0.459772	1.125850
C101	C	0.598329	-0.376045	0.289753
C102	C	0.848329	-0.126045	0.539753
C103	C	1.098329	0.123955	0.789753
C104	C	1.348329	0.373955	1.039753
C105	C	0.548947	-0.308283	0.308004
C106	C	0.798947	-0.058283	0.558004
C107	C	1.048947	0.191717	0.808004
C108	C	1.298947	0.441717	1.058004
C109	C	0.730703	-0.357954	0.357560
C110	C	0.980703	-0.107954	0.607560
C111	C	1.230703	0.142046	0.857560
C112	C	1.480703	0.392046	1.107560
C113	C	0.416523	-0.358043	0.357484
C114	C	0.666523	-0.108043	0.607484
C115	C	0.916523	0.141957	0.857484
C116	C	1.166523	0.391957	1.107484
C117	C	1.073176	-0.550944	0.357482
C118	C	1.323176	-0.300944	0.607482
C119	C	1.573176	-0.050944	0.857482
C120	C	1.823176	0.199056	1.107482
C121	C	1.073219	-0.633490	0.357495
C122	C	1.323219	-0.383490	0.607495
C123	C	1.573219	-0.133490	0.857495
C124	C	1.823219	0.116510	1.107495
C125	C	1.122920	-0.832936	0.307949
C126	C	1.372920	-0.582936	0.557949
C127	C	1.622920	-0.332936	0.807949
C128	C	1.872920	-0.082936	1.057949
C129	C	1.141057	-0.882277	0.375725
C130	C	1.391057	-0.632277	0.625725
C131	C	1.641057	-0.382277	0.875725
C132	C	1.891057	-0.132277	1.125725
C133	C	1.073261	-0.784620	0.357524
C134	C	1.323261	-0.534620	0.607524
C135	C	1.573261	-0.284620	0.857524
C136	C	1.823261	-0.034620	1.107524
C137	C	1.055200	-0.882361	0.289779
C138	C	1.305200	-0.632361	0.539779
C139	C	1.555200	-0.382361	0.789779
C140	C	1.805200	-0.132361	1.039779
C141	C	1.073303	-0.930605	0.357547
C142	C	1.323303	-0.680605	0.607547
C143	C	1.573303	-0.430605	0.857547
C144	C	1.823303	-0.180605	1.107547
C145	C	1.091433	-0.832874	0.425335
C146	C	1.341433	-0.582874	0.675335
C147	C	1.591433	-0.332874	0.925335
C148	C	1.841433	-0.082874	1.175335
C149	C	1.005545	-0.832954	0.339344
C150	C	1.255545	-0.582954	0.589344
C151	C	1.505545	-0.332954	0.839344
C152	C	1.755545	-0.082954	1.089344
C153	C	1.023655	-0.882273	0.407166
C154	C	1.273655	-0.632273	0.657166
C155	C	1.523655	-0.382273	0.907166
C156	C	1.773655	-0.132273	1.157166
C157	C	1.073239	-0.700522	0.357510
C158	C	1.323239	-0.450522	0.607510
C159	C	1.573239	-0.200522	0.857510
C160	C	1.823239	0.049478	1.107510
C161	C	1.073326	-1.014702	0.357568
C162	C	1.323326	-0.764702	0.607568
C163	C	1.573326	-0.514702	0.857568
C164	C	1.823326	-0.264702	1.107568
C165	C	1.266938	-0.358044	0.357480
C166	C	1.516938	-0.108044	0.607480
C167	C	1.766938	0.141956	0.857480
C168	C	2.016938	0.391956	1.107480
C169	C	1.349484	-0.358066	0.357467
C170	C	1.599484	-0.108066	0.607467
C171	C	1.849484	0.141934	0.857467
C172	C	2.099484	0.391934	1.107467
C173	C	1.073265	-0.357957	0.551218
C174	C	1.323265	-0.107957	0.801218
C175	C	1.573265	0.142043	1.051218
C176	C	1.823265	0.392043	1.301218
C177	C	1.073278	-0.357942	0.633763
C178	C	1.323278	-0.107942	0.883763
C179	C	1.573278	0.142058	1.133763
C180	C	1.823278	0.392058	1.383763
C181	C	1.073310	-0.164287	0.357558
C182	C	1.323310	0.085713	0.607558
C183	C	1.573310	0.335713	0.857558
C184	C	1.823310	0.585713	1.107558
C185	C	1.073343	-0.081741	0.357578
C186	C	1.323343	0.168259	0.607578
C187	C	1.573343	0.418259	0.857578
C188	C	1.823343	0.668259	1.107578
C189	C	1.073243	-0.357974	0.164560
C190	C	1.323243	-0.107974	0.414560
C191	C	1.573243	0.142026	0.664560
C192	C	1.823243	0.392026	0.914560
C193	C	1.073374	-0.357780	0.082014
C194	C	1.323374	-0.107780	0.332014
C195	C	1.573374	0.142220	0.582014
C196	C	1.823374	0.392220	0.832014
C197	C	1.023699	-0.407454	0.882586
C198	C	1.273699	-0.157454	1.132586
C199	C	1.523699	0.092546	1.382586
C200	C	1.773699	0.342546	1.632586
C201	C	1.005547	-0.339713	0.833204
C202	C	1.255547	-0.089713	1.083204
C203	C	1.505547	0.160287	1.333204
C204	C	1.755547	0.410287	1.583204
C205	C	1.073341	-0.357833	0.930884
C206	C	1.323341	-0.107833	1.180884
C207	C	1.573341	0.142167	1.430884
C208	C	1.823341	0.392167	1.680884
C209	C	1.091427	-0.425623	0.833184
C210	C	1.341427	-0.175623	1.083184
C211	C	1.591427	0.074377	1.333184
C212	C	1.841427	0.324377	1.583184
C213	C	1.073309	-0.357890	0.784899
C214	C	1.323309	-0.107890	1.034899
C215	C	1.573309	0.142110	1.284899
C216	C	1.823309	0.392110	1.534899
C217	C	1.055155	-0.290056	0.882589
C218	C	1.305155	-0.040056	1.132589
C219	C	1.555155	0.209944	1.382589
C220	C	1.805155	0.459944	1.632589
C221	C	1.141066	-0.376012	0.882574
C222	C	1.391066	-0.126012	1.132574
C223	C	1.641066	0.123988	1.382574
C224	C	1.891066	0.373988	1.632574
C225	C	1.122940	-0.308224	0.833215
C226	C	1.372940	-0.058224	1.083215
C227	C	1.622940	0.191776	1.333215
C228	C	1.872940	0.441776	1.583215
C229	C	1.073358	-0.357801	1.014982
C230	C	1.323358	-0.107801	1.264982
C231	C	1.573358	0.142199	1.514982
C232	C	1.823358	0.392199	1.764982
C233	C	1.073292	-0.357914	0.700802
C234	C	1.323292	-0.107914	0.950802
C235	C	1.573292	0.142086	1.200802
C236	C	1.823292	0.392086	1.450802
H237	H	0.527241	-0.483012	0.323820
H238	H	0.777241	-0.233012	0.573820
H239	H	1.027241	0.016988	0.823820
H240	H	1.277241	0.266988	1.073820
F241	F	0.626617	-0.462516	0.461839
F242	F	0.876617	-0.212516	0.711839
F243	F	1.126617	0.037484	0.961839
F244	F	1.376617	0.287484	1.211839
H245	H	0.527416	-0.266227	0.266118
H246	H	0.777416	-0.016227	0.516118
H247	H	1.027416	0.233773	0.766118
H248	H	1.277416	0.483773	1.016118
H249	H	1.164929	-0.811272	0.266069
H250	H	1.414929	-0.561272	0.516069
H251	H	1.664929	-0.311272	0.766069
H252	H	1.914929	-0.061272	1.016069
H253	H	0.620061	-0.391331	0.232459
H254	H	0.870061	-0.141331	0.482459
H255	H	1.120061	0.108669	0.732459
H256	H	1.370061	0.358669	0.982459
F257	F	0.626506	-0.215337	0.396123
F258	F	0.876506	0.034663	0.646123
F259	F	1.126506	0.284663	0.896123
F260	F	1.376506	0.534663	1.146123
F261	F	0.930688	-0.804615	0.319203
F262	F	1.180688	-0.554615	0.569203
F263	F	1.430688	-0.304615	0.819203
F264	F	1.680688	-0.054615	1.069203
F265	F	0.520505	-0.320007	0.500236
F266	F	0.770505	-0.070007	0.750236
F267	F	1.020505	0.179993	1.000236
F268	F	1.270505	0.429993	1.250236
F269	F	1.035056	-0.215131	0.910833
F270	F	1.285056	0.034869	1.160833
F271	F	1.535056	0.284869	1.410833
F272	F	1.785056	0.534869	1.660833
H273	H	1.164907	-0.266237	0.811674
H274	H	1.414907	-0.016237	1.061674
H275	H	1.664907	0.233763	1.311674
H276	H	1.914907	0.483763	1.561674
F277	F	1.215934	-0.910584	0.395853
F278	F	1.465934	-0.660584	0.645853
F279	F	1.715934	-0.410584	0.895853
F280	F	1.965934	-0.160584	1.145853
F281	F	1.035210	-0.910774	0.214885
F282	F	1.285210	-0.660774	0.464885
F283	F	1.535210	-0.410774	0.714885
F284	F	1.785210	-0.160774	0.964885
F285	F	0.968788	-0.910412	0.462037
F286	F	1.218788	-0.660412	0.712037
F287	F	1.468788	-0.410412	0.962037
F288	F	1.718788	-0.160412	1.212037
H289	H	1.106669	-0.811230	0.482685
H290	H	1.356669	-0.561230	0.732685
H291	H	1.606669	-0.311230	0.982685
H292	H	1.856669	-0.061230	1.232685
F293	F	0.968805	-0.462202	0.910923
F294	F	1.218805	-0.212202	1.160923
F295	F	1.468805	0.037798	1.410923
F296	F	1.718805	0.287798	1.660923
F297	F	0.930669	-0.319639	0.804858
F298	F	1.180669	-0.069639	1.054858
F299	F	1.430669	0.180361	1.304858
F300	F	1.680669	0.430361	1.554858
F301	F	1.111435	-0.500524	0.804811
F302	F	1.361435	-0.250524	1.054811
F303	F	1.611435	-0.000524	1.304811
F304	F	1.861435	0.249476	1.554811
F305	F	1.215923	-0.396110	0.910945
F306	F	1.465923	-0.146110	1.160945
F307	F	1.715923	0.103890	1.410945
F308	F	1.965923	0.353890	1.660945
