data_functionalizedCrystal
_audit_creation_method	'MofGen! by Chris Wilmer'
_symmetry_space_group_name_H-M	'P1'
_symmetry_Int_Tables_number	1
_symmetry_cell_setting	triclinic
loop_
_symmetry_equiv_pos_as_xyz
  x,y,z
_cell_length_a	14.971482
_cell_length_b	15.944493
_cell_length_c	13.448316
_cell_angle_alpha	90.003190
_cell_angle_beta	89.995640
_cell_angle_gamma	83.543826
loop_
_atom_site_label
_atom_site_type_symbol
_atom_site_fract_x
_atom_site_fract_y
_atom_site_fract_z
O1	O	1.186805	0.109447	-0.082666
O2	O	0.926388	0.122559	-0.082669
O3	O	1.063735	-0.006268	-0.082675
O4	O	1.049458	0.238274	-0.082659
O5	O	1.063721	-0.006267	0.082708
O6	O	0.926374	0.122560	0.082715
O7	O	1.186792	0.109448	0.082718
Cu8	Cu	1.056582	0.116004	0.097817
Cu9	Cu	1.056598	0.116003	-0.097768
O10	O	1.049444	0.238276	0.082725
C11	C	0.893057	0.121974	0.000022
C12	C	0.793762	0.120218	0.000020
C13	C	0.747111	0.119392	0.090172
C14	C	0.653815	0.117729	0.090173
C15	C	0.607170	0.116898	0.000021
C16	C	0.653828	0.117722	-0.090137
C17	C	0.747123	0.119379	-0.090137
C18	C	0.459370	0.114271	-0.090131
C19	C	0.366068	0.112615	-0.090132
C20	C	0.366062	0.112621	0.090179
C21	C	0.459357	0.114278	0.090179
C22	C	0.506008	0.115103	0.000020
C23	C	1.063145	-0.037563	0.000012
C24	C	1.061395	-0.130813	-0.000000
C25	C	1.142241	-0.366497	0.000019
C26	C	1.098650	-0.417107	-0.081523
C27	C	1.058154	-0.301538	0.000012
C28	C	1.098618	-0.417082	0.081532
C29	C	1.055029	-0.466450	0.000028
C30	C	1.014586	-0.350919	-0.081599
C31	C	1.014565	-0.350890	0.081530
C32	C	0.970913	-0.401467	-0.000033
C33	C	1.059956	-0.206536	0.000002
C34	C	1.053219	-0.561449	0.000031
C35	C	1.220122	0.110033	0.000025
C36	C	1.319417	0.111789	0.000020
C37	C	1.050035	0.269570	0.000035
C38	C	1.051784	0.362821	0.000041
N39	N	1.056577	0.116005	0.235382
N40	N	1.056609	0.115996	-0.235332
C41	C	1.002374	0.064965	0.712625
C42	C	1.002371	0.064962	0.608522
C43	C	1.056599	0.115996	0.556463
C44	C	1.110841	0.167028	0.608513
C45	C	1.110849	0.167026	0.712614
C46	C	1.110821	0.167031	0.391533
C47	C	1.110813	0.167035	0.287424
C48	C	1.002343	0.064968	0.287440
C49	C	1.002350	0.064966	0.391542
C50	C	1.056591	0.116000	0.443584
H51	H	0.615843	0.117040	-0.163541
N52	N	0.797445	0.120264	-0.187372
H53	H	0.753741	0.119486	-0.244483
H54	H	0.828895	0.172981	-0.191300
H55	H	0.958209	0.023406	0.566153
H56	H	0.958188	0.023414	0.433925
N57	N	0.874907	-0.422072	-0.000083
H58	H	0.874249	-0.485342	0.000506
H59	H	0.842954	-0.396863	0.060915
H60	H	1.214671	-0.350801	-0.000062
H61	H	0.328093	0.111939	-0.163541
N62	N	1.169323	0.222080	0.447658
H63	H	1.130372	0.263131	0.490860
H64	H	1.213108	0.185521	0.490782
N65	N	1.145654	-0.455357	0.172852
H66	H	1.197768	-0.497475	0.152052
H67	H	1.168666	-0.409302	0.213933
N68	N	1.145689	-0.455410	-0.172840
H69	H	1.210368	-0.442984	-0.172782
H70	H	1.143558	-0.518495	-0.172433
H71	H	0.958209	0.023412	0.755004
H72	H	0.979079	-0.321962	0.150471
H73	H	0.979101	-0.322133	-0.150610
H74	H	0.958176	0.023416	0.245062
H75	H	1.155000	0.208576	0.566118
N76	N	1.169348	0.222072	0.768738
H77	H	1.130404	0.263125	0.811943
H78	H	1.213133	0.185509	0.811859
N79	N	0.509676	0.115170	0.187408
H80	H	0.541121	0.167888	0.191425
H81	H	0.465921	0.114360	0.244470
N82	N	1.169296	0.222081	0.231271
H83	H	1.203662	0.254407	0.280034
H84	H	1.213021	0.185525	0.188063
H85	H	0.615837	0.117042	0.163584
N86	N	0.797416	0.120297	0.187408
H87	H	0.753702	0.119520	0.244518
H88	H	0.843390	0.068953	0.191335
H89	H	0.328074	0.111949	0.163590
H90	H	0.497351	0.114943	-0.163548
