data_functionalizedCrystal
_audit_creation_method	'MofGen! by Chris Wilmer'
_symmetry_space_group_name_H-M	'P1'
_symmetry_Int_Tables_number	1
_symmetry_cell_setting	triclinic
loop_
_symmetry_equiv_pos_as_xyz
  x,y,z
_cell_length_a	17.038272
_cell_length_b	19.288865
_cell_length_c	18.366186
_cell_angle_alpha	90.011479
_cell_angle_beta	90.003276
_cell_angle_gamma	87.123902
loop_
_atom_site_label
_atom_site_type_symbol
_atom_site_fract_x
_atom_site_fract_y
_atom_site_fract_z
O1	O	-1.036885	-0.150802	-0.060473
O2	O	-0.536885	0.349198	0.439527
O3	O	-0.809262	-0.148407	-0.060494
O4	O	-0.309262	0.351593	0.439506
O5	O	-0.929651	-0.048881	-0.060469
O6	O	-0.429651	0.451119	0.439531
O7	O	-0.916497	-0.250328	-0.060499
O8	O	-0.416497	0.249672	0.439501
O9	O	-0.929631	-0.048875	0.060631
O10	O	-0.429631	0.451125	0.560631
O11	O	-0.809242	-0.148401	0.060605
O12	O	-0.309242	0.351599	0.560605
O13	O	-1.036865	-0.150795	0.060626
O14	O	-0.536865	0.349205	0.560626
Zn15	Zn	-0.923050	-0.149597	0.079843
Zn16	Zn	-0.423050	0.350403	0.579843
Zn17	Zn	-0.923077	-0.149605	-0.079711
Zn18	Zn	-0.423077	0.350395	0.420289
O19	O	-0.916476	-0.250321	0.060600
O20	O	-0.416476	0.249679	0.560600
C21	C	-0.780131	-0.146226	0.000053
C22	C	-0.280131	0.353774	0.500053
C23	C	-0.693359	-0.139728	0.000045
C24	C	-0.193359	0.360272	0.500045
C25	C	-0.929218	-0.022975	0.000083
C26	C	-0.429218	0.477025	0.500083
C27	C	-0.927947	0.054207	0.000089
C28	C	-0.427947	0.554207	0.500089
C29	C	-1.065996	-0.152976	0.000077
C30	C	-0.565996	0.347024	0.500077
C31	C	-1.152768	-0.159474	0.000080
C32	C	-0.652768	0.340526	0.500080
C33	C	-0.643052	-0.199384	0.000037
C34	C	-0.143052	0.300616	0.500037
C35	C	-0.561521	-0.193275	0.000048
C36	C	-0.061521	0.306725	0.500048
C37	C	-0.530299	-0.127509	0.000062
C38	C	-0.030299	0.372491	0.500062
C39	C	-0.580612	-0.067849	0.000073
C40	C	-0.080612	0.432151	0.500073
C41	C	-0.662141	-0.073959	0.000067
C42	C	-0.162141	0.426041	0.500067
C43	C	-0.284611	-0.105924	0.000085
C44	C	0.215389	0.394076	0.500085
C45	C	-0.203075	-0.099818	0.000088
C46	C	0.296925	0.400182	0.500088
C47	C	-0.183990	-0.225245	0.000065
C48	C	0.316010	0.274755	0.500065
C49	C	-0.265522	-0.231349	0.000055
C50	C	0.234478	0.268651	0.500055
C51	C	-0.315828	-0.171689	0.000069
C52	C	0.184172	0.328311	0.500069
C53	C	-0.446961	-0.121263	0.000071
C54	C	0.053039	0.378737	0.500071
C55	C	-0.399163	-0.177936	0.000066
C56	C	0.100837	0.322064	0.500066
C57	C	-0.916910	-0.276227	0.000047
C58	C	-0.416910	0.223773	0.500047
C59	C	-0.918180	-0.353409	0.000036
C60	C	-0.418180	0.146591	0.500036
N61	N	-0.923037	-0.149591	0.188734
N62	N	-0.423037	0.350409	0.688734
C63	C	-0.998586	0.094533	0.000099
C64	C	-0.498586	0.594533	0.500099
C65	C	-0.997392	0.167054	0.000088
C66	C	-0.497392	0.667054	0.500088
C67	C	-0.925556	0.199246	0.000081
C68	C	-0.425556	0.699246	0.500081
C69	C	-0.854908	0.158911	0.000066
C70	C	-0.354908	0.658911	0.500066
C71	C	-0.856103	0.086391	0.000071
C72	C	-0.356103	0.586391	0.500071
C73	C	-0.869077	0.311029	0.042494
C74	C	-0.369077	0.811029	0.542494
C75	C	-0.867884	0.383548	0.042494
C76	C	-0.367884	0.883548	0.542494
C77	C	-0.921865	0.422920	0.000064
C78	C	-0.421865	0.922920	0.500064
C79	C	-0.977051	0.389765	-0.042357
C80	C	-0.477051	0.889765	0.457643
C81	C	-0.978247	0.317246	-0.042352
C82	C	-0.478247	0.817246	0.457648
C83	C	-0.924251	0.277881	0.000075
C84	C	-0.424251	0.777881	0.500075
C85	C	-0.991214	0.541881	0.000060
C86	C	-0.491214	1.041881	0.500060
C87	C	-0.990017	0.614403	0.000044
C88	C	-0.490017	1.114403	0.500044
C89	C	-0.847531	0.606259	0.000030
C90	C	-0.347531	1.106259	0.500030
C91	C	-0.848730	0.533738	0.000039
C92	C	-0.348730	1.033738	0.500039
C93	C	-0.920573	0.501554	0.000058
C94	C	-0.420573	1.001554	0.500058
N95	N	-0.923096	-0.149606	-0.188602
N96	N	-0.423096	0.350394	0.311398
C97	C	-0.976363	-0.105545	0.226846
C98	C	-0.476363	0.394455	0.726846
C99	C	-0.976368	-0.105542	0.303073
C100	C	-0.476368	0.394458	0.803073
C101	C	-0.923055	-0.149598	0.341187
C102	C	-0.423055	0.350402	0.841187
C103	C	-0.869719	-0.193647	0.303066
C104	C	-0.369719	0.306353	0.803066
C105	C	-0.869711	-0.193643	0.226839
C106	C	-0.369711	0.306357	0.726839
C107	C	-0.912591	-0.212238	0.461937
C108	C	-0.412591	0.287762	0.961937
C109	C	-0.912605	-0.212243	0.538162
C110	C	-0.412605	0.287757	1.038162
C111	C	-0.923077	-0.149608	0.576294
C112	C	-0.423077	0.350392	1.076294
C113	C	-0.933552	-0.086967	0.538192
C114	C	-0.433552	0.413033	1.038192
C115	C	-0.933543	-0.086963	0.461966
C116	C	-0.433543	0.413037	0.961966
C117	C	-0.923058	-0.149606	0.423841
C118	C	-0.423058	0.350394	0.923841
C119	C	-0.976411	-0.105555	0.697061
C120	C	-0.476411	0.394445	1.197061
C121	C	-0.976410	-0.105551	0.773290
C122	C	-0.476410	0.394449	1.273290
C123	C	-0.869765	-0.193662	0.773281
C124	C	-0.369765	0.306338	1.273281
C125	C	-0.869762	-0.193660	0.697053
C126	C	-0.369762	0.306340	1.197053
C127	C	-0.923089	-0.149607	0.658948
C128	C	-0.423089	0.350393	1.158948
H129	H	-0.668467	-0.252938	0.000025
H130	H	-0.168467	0.247062	0.500025
F131	F	-0.715681	-0.010464	0.000078
F132	F	-0.215681	0.489536	0.500078
F133	F	-0.813009	-0.240543	0.656488
F134	F	-0.313009	0.259457	1.156488
H135	H	-1.047542	0.647236	0.000049
H136	H	-0.547542	1.147236	0.500049
H137	H	-1.023181	0.290255	-0.076894
H138	H	-0.523181	0.790255	0.423106
H139	H	-0.143023	-0.273817	0.000055
H140	H	0.356977	0.226183	0.500055
H141	H	-0.942070	-0.035958	0.430946
H142	H	-0.442070	0.464042	0.930946
H143	H	-0.942079	-0.035963	0.569237
H144	H	-0.442079	0.464037	1.069237
H145	H	-0.798579	0.053558	0.000063
H146	H	-0.298579	0.553558	0.500063
F147	F	-1.033114	-0.058659	0.186293
F148	F	-0.533114	0.441341	0.686293
F149	F	-0.338140	-0.042427	0.000100
F150	F	0.161860	0.457573	0.500100
H151	H	-1.019831	-0.069683	0.666034
H152	H	-0.519831	0.430317	1.166034
H153	H	-1.054916	0.199893	0.000093
H154	H	-0.554916	0.699893	0.500093
H155	H	-1.021008	0.421821	-0.076908
H156	H	-0.521008	0.921821	0.423092
H157	H	-1.019793	-0.069673	0.334110
H158	H	-0.519793	0.430327	0.834110
H159	H	-1.049713	0.515676	0.000072
H160	H	-0.549713	1.015676	0.500072
H161	H	-0.177657	-0.046261	0.000099
H162	H	0.322343	0.453739	0.500099
F163	F	-0.771077	0.640515	0.000019
F164	F	-0.271077	1.140515	0.500019
F165	F	-0.507984	-0.256770	0.000036
F166	F	-0.007984	0.243230	0.500036
H167	H	-1.019832	-0.069680	0.804321
H168	H	-0.519832	0.430320	1.304321
H169	H	-0.826354	-0.229530	0.804312
H170	H	-0.326354	0.270470	1.304312
H171	H	-0.904081	-0.263249	0.569179
H172	H	-0.404081	0.236751	1.069179
H173	H	-0.796418	0.185126	0.000059
H174	H	-0.296418	0.685126	0.500059
F175	F	-0.901501	-0.278913	0.421361
F176	F	-0.401501	0.221087	0.921361
F177	F	-0.547380	0.002145	0.000092
F178	F	-0.047380	0.502145	0.500092
H179	H	-0.424588	-0.231482	0.000058
H180	H	0.075412	0.268518	0.500058
F181	F	-0.413725	-0.051271	0.000083
F182	F	0.086275	0.448729	0.500083
H183	H	-1.057086	0.068333	0.000112
H184	H	-0.557086	0.568333	0.500112
F185	F	-0.773545	0.490819	0.000031
F186	F	-0.273545	0.990819	0.500031
H187	H	-0.826310	-0.229516	0.334101
H188	H	-0.326310	0.270484	0.834101
F189	F	-0.812952	-0.240525	0.186276
F190	F	-0.312952	0.259475	0.686276
H191	H	-0.822944	0.410536	0.077031
H192	H	-0.322944	0.910536	0.577031
F193	F	-0.811620	0.269134	0.087658
F194	F	-0.311620	0.769134	0.587658
F195	F	-0.298744	-0.301346	0.000036
F196	F	0.201256	0.198654	0.500036
