data_functionalizedCrystal
_audit_creation_method	'MofGen! by Chris Wilmer'
_symmetry_space_group_name_H-M	'P1'
_symmetry_Int_Tables_number	1
_symmetry_cell_setting	triclinic
loop_
_symmetry_equiv_pos_as_xyz
  x,y,z
_cell_length_a	34.490303
_cell_length_b	34.489386
_cell_length_c	34.485816
_cell_angle_alpha	60.004462
_cell_angle_beta	60.008900
_cell_angle_gamma	59.994399
loop_
_atom_site_label
_atom_site_type_symbol
_atom_site_fract_x
_atom_site_fract_y
_atom_site_fract_z
O1	O	0.053846	-0.566517	0.473678
O2	O	0.020329	-0.441078	0.381663
O3	O	0.099768	-0.520436	0.381578
O4	O	-0.025592	-0.487159	0.473762
O5	O	0.126127	-0.494082	0.407849
O6	O	0.046689	-0.414724	0.407933
O7	O	0.080206	-0.540163	0.499949
Zn8	Zn	0.067632	-0.473259	0.458112
Zn9	Zn	0.032903	-0.507982	0.423499
O10	O	0.000767	-0.460805	0.500033
N11	N	0.091336	-0.449565	0.481736
N12	N	0.009203	-0.531680	0.399875
C13	C	0.142510	-0.268211	0.532817
C14	C	0.142641	-0.398441	0.662987
C15	C	0.142524	-0.398421	0.532817
C16	C	0.272762	-0.398394	0.532723
C17	C	0.156853	-0.311177	0.547124
C18	C	0.156928	-0.384109	0.620020
C19	C	0.229794	-0.384081	0.547073
C20	C	0.156863	-0.384097	0.547124
C21	C	0.124253	-0.213522	0.514606
C22	C	0.124277	-0.416652	0.514606
C23	C	0.175110	-0.365866	0.565335
C24	C	0.352285	-0.384669	0.490824
C25	C	0.401998	-0.401229	0.474223
C26	C	0.402027	-0.481671	0.504898
C27	C	0.352316	-0.465109	0.521500
C28	C	0.136220	-0.188652	0.465734
C29	C	0.119621	-0.138936	0.449181
C30	C	0.079092	-0.138961	0.530374
C31	C	0.095691	-0.188678	0.546927
C32	C	0.075398	-0.404656	0.526651
C33	C	0.058814	-0.421229	0.510091
C34	C	0.139984	-0.461794	0.469452
C35	C	0.156570	-0.445221	0.486007
C36	C	0.075593	-0.404694	0.742565
C37	C	0.059066	-0.421281	0.792280
C38	C	0.140274	-0.461856	0.792215
C39	C	0.156800	-0.445269	0.742499
C40	C	0.124458	-0.416687	0.717675
C41	C	0.327446	-0.416608	0.514460
C42	C	-0.023585	-0.564792	0.161919
C43	C	-0.023910	-0.769260	0.366530
C44	C	-0.023880	-0.564780	0.366623
C45	C	-0.228325	-0.564561	0.366222
C46	C	-0.129610	-0.597564	0.333467
C47	C	-0.056729	-0.597644	0.333613
C48	C	-0.074925	-0.615849	0.315324
C49	C	-0.088689	-0.695351	0.357144
C50	C	-0.072155	-0.745068	0.373736
C51	C	0.008283	-0.745150	0.343188
C52	C	-0.008252	-0.695435	0.326596
C53	C	-0.154529	-0.609541	0.382326
C54	C	-0.204241	-0.592916	0.398818
C55	C	-0.204114	-0.552341	0.317588
C56	C	-0.154401	-0.568966	0.301096
C57	C	-0.068707	-0.548770	0.321590
C58	C	-0.052166	-0.532225	0.338221
C59	C	-0.011669	-0.613425	0.378886
C60	C	-0.028210	-0.629972	0.362261
C61	C	-0.068581	-0.548777	0.235758
C62	C	-0.051939	-0.532234	0.186043
C63	C	-0.011379	-0.613438	0.186090
C64	C	-0.028020	-0.629981	0.235806
C65	C	-0.056622	-0.597649	0.260639
C66	C	-0.056739	-0.670537	0.333576
C67	C	-0.005614	-0.545951	0.107238
C68	C	-0.006360	-0.823943	0.385033
C69	C	-0.005995	-0.545937	0.384582
C70	C	-0.283006	-0.545971	0.383725
N71	N	0.426163	-0.449489	0.481488
O72	O	0.588601	-0.457377	0.364497
O73	O	0.588789	-0.549696	0.489801
O74	O	0.588709	-0.549485	0.410335
O75	O	0.588681	-0.457588	0.443963
O76	O	0.509731	-0.523223	0.436741
O77	O	0.509811	-0.523434	0.516207
O78	O	0.509624	-0.431115	0.390903
Zn79	Zn	0.497178	-0.473105	0.457747
Zn80	Zn	0.601234	-0.507706	0.422956
O81	O	0.509704	-0.431326	0.470368
N82	N	0.672250	-0.531322	0.399211
N83	N	0.091303	-0.114798	0.481730
O84	O	-0.025603	0.047729	0.473733
O85	O	0.099703	0.047764	0.381394
O86	O	0.020199	0.047731	0.381655
O87	O	0.053901	0.047761	0.473472
O88	O	0.046564	-0.031252	0.407974
O89	O	0.126068	-0.031219	0.407713
O90	O	0.000762	-0.031254	0.500052
Zn91	Zn	0.067601	-0.043777	0.458061
Zn92	Zn	0.032864	0.060287	0.423385
O93	O	0.080266	-0.031222	0.499791
N94	N	0.009156	0.131307	0.399717
N95	N	0.091635	-0.449614	0.816396
O96	O	0.083664	-0.566502	0.978913
O97	O	-0.008637	-0.441152	0.978954
O98	O	-0.008421	-0.520640	0.978930
O99	O	0.083448	-0.487013	0.978936
O100	O	0.017877	-0.494296	0.899950
O101	O	0.017661	-0.414807	0.899974
O102	O	0.109961	-0.540157	0.899933
Zn103	Zn	0.067986	-0.473299	0.887414
Zn104	Zn	0.033338	-0.508010	0.991473
O105	O	0.109746	-0.460669	0.899956
N106	N	0.009689	-0.531700	1.062491
C107	C	0.030367	-0.412095	0.382120
C108	C	0.128741	-0.510370	0.382016
C109	C	0.070168	-0.569147	0.499490
C110	C	-0.028207	-0.470871	0.499595
C111	C	0.549323	-0.549278	0.518791
C112	C	0.549225	-0.549017	0.420381
C113	C	0.549087	-0.431532	0.361914
C114	C	0.549188	-0.431794	0.460322
C115	C	0.128638	0.008374	0.381806
C116	C	0.030215	0.008236	0.382161
C117	C	-0.028206	0.008233	0.499608
C118	C	0.070250	0.008272	0.499285
C119	C	-0.008199	-0.412187	0.939469
C120	C	-0.007927	-0.510619	0.939425
C121	C	0.109523	-0.569121	0.939417
C122	C	0.109257	-0.470684	0.939444
H123	H	0.049253	-0.381417	0.722357
H124	H	0.023205	-0.376060	0.353221
N125	N	0.549245	-0.587262	0.410853
H126	H	0.549203	-0.574940	0.377435
H127	H	0.519993	-0.596486	0.434186
N128	N	-0.046586	-0.364503	0.939486
H129	H	-0.075904	-0.364434	0.939487
H130	H	-0.034995	-0.338825	0.910211
H131	H	0.022995	0.008233	0.353314
N132	N	-0.075870	0.008217	0.538010
H133	H	-0.097114	0.008206	0.525854
H134	H	-0.090950	0.037499	0.547181
N135	N	0.147908	-0.616808	0.939406
H136	H	0.177227	-0.616877	0.939405
H137	H	0.155818	-0.622956	0.910122
N138	N	0.060579	-0.772009	0.335668
H139	H	0.078312	-0.748745	0.318219
H140	H	0.072971	-0.792643	0.316316
H141	H	0.549027	-0.402547	0.325928
N142	N	0.019083	-0.648292	0.409791
H143	H	0.024156	-0.681764	0.414884
H144	H	0.002887	-0.643162	0.441452
H145	H	-0.061921	-0.492427	0.328433
H146	H	0.549371	-0.578259	0.554780
H147	H	0.549182	-0.402927	0.467517
H148	H	-0.064213	-0.463781	0.528541
H149	H	-0.036776	-0.517804	0.939391
N150	N	0.176430	-0.519760	0.343667
H151	H	0.197635	-0.553173	0.355887
H152	H	0.191537	-0.496402	0.334463
N153	N	0.147490	-0.461159	0.939444
H154	H	0.135169	-0.427730	0.939454
H155	H	0.176192	-0.464942	0.910159
H156	H	0.077468	0.008281	0.528131
N157	N	0.006359	-0.408340	0.819121
H158	H	-0.011618	-0.387715	0.795849
H159	H	-0.002268	-0.390432	0.839750
N160	N	0.175156	-0.492673	0.818990
H161	H	0.208621	-0.497752	0.795679
H162	H	0.170073	-0.524347	0.839615
N163	N	0.209508	-0.458206	0.715654
H164	H	0.227486	-0.478827	0.738925
H165	H	0.218130	-0.428300	0.695027
H166	H	0.077330	-0.605181	0.528391
N167	N	0.176206	0.008676	0.343309
H168	H	0.197428	0.008752	0.355443
H169	H	0.171575	0.038020	0.314717
H170	H	0.049100	-0.381393	0.549936
H171	H	0.019013	-0.411451	0.519888
H172	H	0.196371	-0.454985	0.476195
N173	N	0.174817	-0.492615	0.438612
H174	H	0.208296	-0.497504	0.433302
H175	H	0.169525	-0.476575	0.407044
N176	N	0.325526	-0.499560	0.546997
H177	H	0.348827	-0.532797	0.548934
H178	H	0.304878	-0.490693	0.529003
H179	H	0.422223	-0.375220	0.454977
N180	N	0.428853	-0.533981	0.512489
H181	H	0.420187	-0.544938	0.496535
H182	H	0.420219	-0.552393	0.547642
N183	N	0.325460	-0.332356	0.483231
H184	H	0.348742	-0.314637	0.465738
H185	H	0.304854	-0.327479	0.515001
H186	H	0.159477	-0.208876	0.439413
H187	H	0.055841	-0.118733	0.556693
N188	N	0.132524	-0.112104	0.396469
H189	H	0.120362	-0.120757	0.381618
H190	H	0.168183	-0.120751	0.381622
N191	N	0.082786	-0.215502	0.599638
H192	H	0.047128	-0.206862	0.614523
H193	H	0.094979	-0.206837	0.614448
N194	N	-0.064840	-0.479519	0.159211
H195	H	-0.085485	-0.461550	0.182488
H196	H	-0.082714	-0.470861	0.138536
H197	H	-0.091873	-0.522445	0.255974
H198	H	-0.018278	-0.669778	0.256062
N199	N	0.019461	-0.648311	0.159310
H200	H	0.024508	-0.681781	0.182617
H201	H	0.051145	-0.643245	0.138732
N202	N	0.026210	-0.668668	0.301173
H203	H	0.059434	-0.691987	0.299273
H204	H	0.017321	-0.648037	0.319194
H205	H	-0.018458	-0.669769	0.372051
N206	N	-0.099464	-0.513903	0.290690
H207	H	-0.104543	-0.480431	0.285600
H208	H	-0.131140	-0.518973	0.306780
H209	H	-0.128170	-0.675084	0.362831
N210	N	-0.106613	-0.771835	0.399148
H211	H	-0.139838	-0.748518	0.401051
H212	H	-0.105286	-0.792460	0.432268
H213	H	-0.134345	-0.632833	0.408685
H214	H	-0.224531	-0.602667	0.438605
H215	H	-0.134111	-0.559208	0.261309
N216	N	-0.230857	-0.521504	0.282677
H217	H	-0.207527	-0.516445	0.249220
H218	H	-0.251473	-0.489822	0.287756
