data_functionalizedCrystal
_audit_creation_method	'MofGen! by Chris Wilmer'
_symmetry_space_group_name_H-M	'P1'
_symmetry_Int_Tables_number	1
_symmetry_cell_setting	triclinic
loop_
_symmetry_equiv_pos_as_xyz
  x,y,z
_cell_length_a	14.560438
_cell_length_b	31.640172
_cell_length_c	14.560438
_cell_angle_alpha	90.003589
_cell_angle_beta	60.005799
_cell_angle_gamma	59.997712
loop_
_atom_site_label
_atom_site_type_symbol
_atom_site_fract_x
_atom_site_fract_y
_atom_site_fract_z
Zr1	Zr	1.005082	0.407200	-0.120261
O2	O	1.196688	0.339714	-0.266901
O3	O	0.813491	0.427886	-0.075327
O4	O	1.005079	0.427890	-0.266903
O5	O	1.005097	0.339711	0.075816
O6	O	1.005060	0.497447	-0.266883
O7	O	1.005100	0.339711	-0.075325
O8	O	0.662344	0.497440	0.075812
O9	O	1.347813	0.339717	-0.266879
O10	O	0.892275	0.488621	-0.056125
O11	O	0.892288	0.436711	0.056655
O12	O	1.117858	0.436715	-0.168902
O13	O	1.117870	0.384806	-0.056122
Zr14	Zr	1.005047	0.518136	0.120823
Zr15	Zr	1.005052	0.518136	-0.120229
Zr16	Zr	1.005078	0.407201	0.120791
Zr17	Zr	1.246110	0.407205	-0.120225
Zr18	Zr	0.764020	0.518132	0.120788
O19	O	1.196639	0.497450	0.075890
O20	O	1.196645	0.497450	-0.266855
O21	O	1.196682	0.339714	0.075844
O22	O	0.813442	0.585622	0.267464
O23	O	0.813448	0.585622	-0.075282
O24	O	0.813485	0.427886	0.267418
O25	O	1.005032	0.585626	-0.075253
O26	O	1.005051	0.497447	0.267466
O27	O	1.005070	0.427890	0.267446
O28	O	1.005030	0.585626	0.075887
O29	O	1.347789	0.427896	-0.266853
O30	O	0.662340	0.497441	0.267416
O31	O	0.662316	0.585619	0.267441
O32	O	0.662320	0.585619	0.075837
O33	O	1.347810	0.339717	-0.075274
O34	O	1.347786	0.427896	-0.075249
O35	O	0.892272	0.488621	0.169464
O36	O	0.892259	0.540531	0.056685
O37	O	1.117842	0.488625	-0.056092
O38	O	1.117854	0.436715	0.056688
C39	C	0.703576	0.462663	0.000237
C40	C	0.601253	0.462661	0.000222
C41	C	0.636392	0.424344	-0.083011
C42	C	0.540203	0.424353	-0.082954
C43	C	0.373738	0.500996	0.083578
C44	C	0.469926	0.500989	0.083516
C45	C	0.767719	0.386016	-0.166304
C46	C	0.802864	0.347696	-0.249543
C47	C	0.706675	0.347704	-0.249487
C48	C	0.575341	0.386032	-0.166192
C49	C	1.005103	0.323905	0.000241
C50	C	1.005116	0.276810	0.000228
C51	C	0.887301	0.011898	0.059172
C52	C	0.887278	-0.165087	0.059195
O53	O	0.787134	-0.164930	0.109301
N54	N	1.005029	-0.214311	0.000325
C55	C	1.122794	-0.219288	-0.058549
O56	O	1.222948	-0.265217	-0.108611
C57	C	1.122815	-0.042303	-0.058564
C58	C	1.005057	0.006920	0.000301
C59	C	0.769552	0.061119	0.118033
C60	C	0.769559	0.105363	0.118022
C61	C	0.887314	0.100385	0.059150
C62	C	1.005063	0.051163	0.000289
C63	C	1.240579	-0.047281	-0.117430
C64	C	1.240574	-0.003029	-0.117426
C65	C	1.122815	0.046194	-0.058562
C66	C	1.122826	0.090429	-0.058593
N67	N	1.005075	0.139653	0.000276
C68	C	0.887319	0.144631	0.059148
C69	C	1.122775	-0.312205	-0.058538
C70	C	1.122770	-0.356451	-0.058537
C71	C	0.887253	-0.302247	0.059209
C72	C	0.887260	-0.258001	0.059199
C73	C	1.005024	-0.262981	0.000331
C74	C	0.887343	0.237543	0.059119
C75	C	0.887360	0.281788	0.059099
C76	C	1.122875	0.227580	-0.058641
C77	C	1.122859	0.183339	-0.058626
C78	C	1.005082	0.188324	0.000263
O79	O	1.222918	0.090312	-0.108663
O80	O	0.787180	0.190564	0.109223
C81	C	0.887294	-0.032345	0.059183
C82	C	1.005043	-0.081567	0.000323
C83	C	1.122799	-0.086544	-0.058549
C84	C	1.005038	-0.125813	0.000325
C85	C	0.887282	-0.120835	0.059197
C86	C	0.769531	-0.071611	0.118066
C87	C	0.769538	-0.027368	0.118055
C88	C	1.240550	-0.135768	-0.117418
C89	C	1.240533	-0.180009	-0.117404
C90	C	1.122777	-0.175032	-0.058532
C91	C	1.306554	0.462674	0.000326
C92	C	1.408876	0.462676	0.000341
C93	C	1.005070	0.462668	-0.301238
C94	C	1.005072	0.462668	-0.403571
C95	C	1.005027	0.601432	0.000322
C96	C	1.005014	0.648527	0.000335
C97	C	1.122821	0.435572	-0.510516
C98	C	1.122815	0.435573	-0.606664
C99	C	0.887299	0.489768	-0.488910
C100	C	0.887307	0.489769	-0.392764
C101	C	1.240586	0.408471	-0.521323
C102	C	1.358345	0.381372	-0.628272
C103	C	1.358339	0.381373	-0.724421
C104	C	1.240574	0.408474	-0.713620
C105	C	1.005060	0.462668	0.301801
C106	C	1.005058	0.462668	0.404134
C107	C	0.703538	0.601426	0.000277
C108	C	0.601202	0.648519	0.000276
C109	C	0.703571	0.462663	0.301757
C110	C	0.601246	0.462661	0.404075
C111	C	0.703533	0.601426	0.301797
C112	C	0.601196	0.648519	0.404128
C113	C	1.306597	0.323910	-0.301234
C114	C	1.408934	0.276817	-0.403566
C115	C	1.306592	0.323910	0.000285
C116	C	1.408927	0.276817	0.000287
C117	C	1.306559	0.462674	-0.301194
C118	C	1.408883	0.462675	-0.403512
C119	C	0.553153	0.643538	-0.058620
C120	C	0.457011	0.687783	-0.058644
C121	C	0.408914	0.737008	0.000236
C122	C	0.456973	0.741988	0.059134
C123	C	0.553120	0.697744	0.059150
C124	C	0.553131	0.697736	0.393315
C125	C	0.456987	0.741989	0.489457
C126	C	0.408904	0.737025	0.596412
C127	C	0.456979	0.687803	0.607223
C128	C	0.553127	0.643551	0.511082
C129	C	1.457011	0.227601	-0.392752
C130	C	1.553184	0.183347	-0.488894
C131	C	1.601272	0.188312	-0.595849
C132	C	1.553191	0.237533	-0.606661
C133	C	1.457026	0.281785	-0.510520
C134	C	1.456986	0.281798	0.059173
C135	C	1.553155	0.237553	0.059170
C136	C	1.601255	0.188328	0.000287
C137	C	1.553192	0.183348	-0.058606
C138	C	1.457032	0.227593	-0.058610
C139	C	0.553161	0.489757	0.511029
C140	C	0.457022	0.489751	0.607164
C141	C	0.457058	0.435552	0.489375
C142	C	0.553202	0.435555	0.393243
C143	C	0.601206	0.516863	0.521861
C144	C	0.553119	0.543962	0.628820
C145	C	0.456980	0.543956	0.724955
C146	C	0.408927	0.516851	0.714130
H147	H	0.497024	0.386044	-0.166169
H148	H	0.673655	0.065181	0.165979
H149	H	0.791462	0.321868	0.107037
Br150	Br	0.731675	0.516875	0.391396
H151	H	1.592272	0.241618	0.107133
H152	H	0.592313	0.603461	-0.106581
H153	H	0.330614	0.773062	0.674687
Br154	Br	1.240568	0.408483	-0.844111
H155	H	0.417815	0.683769	0.694319
H156	H	1.592315	0.143274	-0.480069
Br157	Br	0.278428	0.797049	0.000201
H158	H	0.673650	-0.067565	0.165995
H159	H	1.679575	0.152275	-0.674124
H160	H	0.417924	0.413485	0.480572
Br161	Br	0.618341	0.576759	0.525779
H162	H	0.417894	0.683718	-0.106606
Br163	Br	0.391761	0.808783	0.474757
Br164	Br	1.731760	0.128287	0.000303
Br165	Br	0.422243	0.552995	0.196468
H166	H	0.330653	0.516844	0.792414
Br167	Br	1.391766	0.220849	-0.247611
H168	H	0.846050	0.386004	-0.166357
H169	H	1.417905	0.223530	-0.106559
H170	H	1.592370	0.143263	-0.106547
H171	H	0.417798	0.782073	0.107071
Br172	Br	0.981094	0.295687	-0.362592
Br173	Br	0.618311	0.704513	0.139096
Br174	Br	1.282675	0.116535	-0.138540
H175	H	0.791420	0.511831	-0.480127
H176	H	0.592266	0.701787	0.306235
H177	H	1.592357	0.241569	-0.693755
H178	H	1.336443	-0.139829	-0.165362
Br179	Br	0.754371	0.295704	-0.362460
H180	H	1.417883	0.321858	-0.519338
Br181	Br	1.518151	0.344603	-0.869563
Br182	Br	0.618347	0.580737	0.643511
Br183	Br	0.727501	0.244315	0.139039
Br184	Br	0.727501	0.526558	-0.247618
H185	H	0.417839	0.566017	0.812042
H186	H	0.592352	0.413492	0.306154
H187	H	1.417830	0.321876	0.107130
Br188	Br	1.240601	0.408464	-0.390839
H189	H	0.266802	0.532200	0.151395
H190	H	0.791370	-0.217924	0.107142
Br191	Br	0.727442	-0.295500	0.139104
Br192	Br	1.282591	-0.423250	-0.138447
Br193	Br	0.609734	0.172161	0.197921
Br194	Br	1.282614	-0.318975	-0.138441
Br195	Br	1.400406	-0.009793	-0.197318
Br196	Br	1.400405	-0.114075	-0.197313
Br197	Br	1.282679	0.220835	-0.138516
Br198	Br	0.609714	0.039431	0.197946
H199	H	1.454225	0.359311	-0.637057
Br200	Br	1.400364	-0.246811	-0.197304
