data_functionalizedCrystal
_audit_creation_method	'MofGen! by Chris Wilmer'
_symmetry_space_group_name_H-M	'P1'
_symmetry_Int_Tables_number	1
_symmetry_cell_setting	triclinic
loop_
_symmetry_equiv_pos_as_xyz
  x,y,z
_cell_length_a	29.839134
_cell_length_b	29.839133
_cell_length_c	12.759393
_cell_angle_alpha	90.027594
_cell_angle_beta	90.031415
_cell_angle_gamma	90.024465
loop_
_atom_site_label
_atom_site_type_symbol
_atom_site_fract_x
_atom_site_fract_y
_atom_site_fract_z
Zn1	Zn	0.686798	-0.178888	0.594372
Zn2	Zn	0.686734	-0.254027	0.418705
Zn3	Zn	0.611669	-0.178905	0.418672
Zn4	Zn	0.611644	-0.253985	0.594306
O5	O	0.649211	-0.216451	0.506514
O6	O	0.749657	-0.188866	0.571111
O7	O	0.676759	-0.244086	0.271679
O8	O	0.621672	-0.116036	0.441993
O9	O	0.749609	-0.244070	0.442048
O10	O	0.676870	-0.116023	0.571079
O11	O	0.621609	-0.188894	0.271655
O12	O	0.548798	-0.188854	0.441929
O13	O	0.621631	-0.243999	0.741336
O14	O	0.548781	-0.244015	0.570967
O15	O	0.676846	-0.188826	0.741385
O16	O	0.676736	-0.316888	0.441985
O17	O	0.621568	-0.316858	0.570999
C18	C	0.532489	-0.216432	0.506438
C19	C	0.482554	-0.216435	0.506431
C20	C	0.172911	-0.245216	0.573622
C21	C	-0.014762	-0.245229	0.573668
O22	O	-0.039027	-0.269679	0.630752
N23	N	-0.038231	-0.216468	0.506593
C24	C	-0.014778	-0.187699	0.439506
O25	O	-0.039046	-0.163233	0.382463
C26	C	0.172894	-0.187685	0.439466
C27	C	0.196360	-0.216451	0.506538
C28	C	0.196377	-0.273980	0.640689
C29	C	0.243293	-0.273978	0.640673
C30	C	0.266742	-0.245213	0.573589
C31	C	0.243276	-0.216449	0.506521
C32	C	0.196345	-0.158914	0.372385
C33	C	0.243266	-0.158913	0.372382
C34	C	0.266733	-0.187679	0.439455
C35	C	0.313640	-0.187682	0.439421
N36	N	0.337109	-0.216443	0.506496
C37	C	0.313660	-0.245209	0.573580
C38	C	-0.113309	-0.187710	0.439531
C39	C	-0.160227	-0.187714	0.439539
C40	C	-0.160207	-0.245243	0.573703
C41	C	-0.113288	-0.245241	0.573688
C42	C	-0.089840	-0.216471	0.506606
C43	C	0.412186	-0.245203	0.573540
C44	C	0.459105	-0.245200	0.573515
C45	C	0.459082	-0.187670	0.439355
C46	C	0.412166	-0.187674	0.439376
C47	C	0.388719	-0.216442	0.506477
O48	O	0.337934	-0.163242	0.382376
O49	O	0.337936	-0.269664	0.630631
C50	C	0.125996	-0.245218	0.573638
C51	C	0.102529	-0.216454	0.506570
C52	C	0.125978	-0.187689	0.439487
C53	C	0.055611	-0.216459	0.506579
C54	C	0.032162	-0.245224	0.573663
C55	C	0.055631	-0.273985	0.640738
C56	C	0.102547	-0.273983	0.640722
C57	C	0.102510	-0.158928	0.372411
C58	C	0.055594	-0.158933	0.372432
C59	C	0.032145	-0.187698	0.439516
C60	C	0.649154	-0.333174	0.506511
C61	C	0.649171	-0.383108	0.506545
C62	C	0.677969	-0.739654	0.573806
C63	C	0.677927	-0.551981	0.573805
O64	O	0.702354	-0.527681	0.630977
N65	N	0.649206	-0.528553	0.506542
C66	C	0.620497	-0.552047	0.439270
O67	O	0.596071	-0.527814	0.382052
C68	C	0.620542	-0.739719	0.439267
C69	C	0.649261	-0.763144	0.506542
C70	C	0.706686	-0.763079	0.641074
C71	C	0.706694	-0.809995	0.641078
C72	C	0.677986	-0.833485	0.573814
C73	C	0.649270	-0.810060	0.506545
C74	C	0.591835	-0.763212	0.371991
C75	C	0.591850	-0.810133	0.371994
C76	C	0.620569	-0.833558	0.439268
C77	C	0.620570	-0.880465	0.439284
N78	N	0.649290	-0.903893	0.506547
C79	C	0.677998	-0.880403	0.573812
C80	C	0.620475	-0.453516	0.439278
C81	C	0.620463	-0.406598	0.439280
C82	C	0.677893	-0.406536	0.573814
C83	C	0.677902	-0.453455	0.573816
C84	C	0.649195	-0.476944	0.506541
C85	C	0.678014	-0.978929	0.573815
C86	C	0.678019	-1.025848	0.573816
C87	C	0.620590	-1.025907	0.439279
C88	C	0.620584	-0.978991	0.439281
C89	C	0.649299	-0.955503	0.506553
O90	O	0.596159	-0.904794	0.382134
O91	O	0.702428	-0.904644	0.631005
C92	C	0.677960	-0.692739	0.573803
C93	C	0.649244	-0.669313	0.506534
C94	C	0.620536	-0.692804	0.439270
C95	C	0.649232	-0.622396	0.506536
C96	C	0.677940	-0.598905	0.573801
C97	C	0.706660	-0.622333	0.641063
C98	C	0.706669	-0.669248	0.641067
C99	C	0.591815	-0.669376	0.372007
C100	C	0.591809	-0.622460	0.372010
C101	C	0.620517	-0.598970	0.439274
C102	C	0.766390	-0.216471	0.506591
C103	C	0.816324	-0.216479	0.506623
C104	C	0.649243	-0.216406	0.780547
C105	C	0.649256	-0.216387	0.897324
C106	C	0.649281	-0.099273	0.506540
C107	C	0.649310	-0.049339	0.506551
C108	C	0.649206	-0.216464	0.233547
C109	C	0.649279	-0.216357	0.116770
C110	C	0.678011	-0.187655	0.952213
C111	C	0.678021	-0.187639	1.061937
C112	C	0.620522	-0.245090	1.061874
C113	C	0.620509	-0.245103	0.952152
C114	C	0.706758	-0.158939	0.897386
C115	C	0.735515	-0.130205	0.952275
C116	C	0.735526	-0.130189	1.061999
C117	C	0.706779	-0.158906	1.116834
H118	H	0.177290	-0.297404	0.695323
H119	H	-0.094222	-0.164281	0.384899
H120	H	-0.179329	-0.164294	0.384912
H121	H	0.758938	-0.106789	1.106686
H122	H	0.730054	-0.688317	0.695850
H123	H	0.706785	-0.158885	1.206179
H124	H	0.262395	-0.297402	0.695292
H125	H	0.730034	-0.603200	0.695837
H126	H	0.568419	-0.603391	0.317229
H127	H	0.597117	-0.268470	1.106529
H128	H	0.568438	-0.688497	0.317229
H129	H	0.706753	-0.158950	0.808043
H130	H	0.478209	-0.268627	0.628134
H131	H	0.393101	-0.268628	0.628182
H132	H	0.036492	-0.135508	0.317805
H133	H	0.758917	-0.106822	0.907621
H134	H	0.597088	-0.268492	0.907460
H135	H	-0.094185	-0.268664	0.628306
H136	H	0.568450	-0.744145	0.317209
H137	H	-0.179307	-0.268665	0.628326
H138	H	0.568473	-0.829255	0.317208
H139	H	0.597194	-0.959918	0.384511
H140	H	0.177247	-0.135491	0.317765
H141	H	0.393059	-0.164251	0.384759
H142	H	0.701286	-0.472524	0.628602
H143	H	0.121597	-0.135503	0.317782
H144	H	0.478182	-0.164251	0.384734
H145	H	0.262355	-0.135481	0.317761
H146	H	0.730066	-0.743958	0.695849
H147	H	0.036531	-0.297408	0.695357
H148	H	0.121649	-0.297408	0.695339
H149	H	0.701397	-0.959810	0.628592
H150	H	0.730084	-0.829063	0.695852
H151	H	0.701404	-1.044919	0.628605
H152	H	0.701268	-0.387402	0.628585
H153	H	0.597096	-0.472637	0.384492
H154	H	0.597072	-0.387529	0.384511
H155	H	0.597216	-1.045041	0.384516
