data_functionalizedCrystal
_audit_creation_method	'MofGen! by Chris Wilmer'
_symmetry_space_group_name_H-M	'P1'
_symmetry_Int_Tables_number	1
_symmetry_cell_setting	triclinic
loop_
_symmetry_equiv_pos_as_xyz
  x,y,z
_cell_length_a	10.654550
_cell_length_b	12.811442
_cell_length_c	9.730223
_cell_angle_alpha	84.568358
_cell_angle_beta	89.996251
_cell_angle_gamma	84.264598
loop_
_atom_site_label
_atom_site_type_symbol
_atom_site_fract_x
_atom_site_fract_y
_atom_site_fract_z
O1	O	1.667073	0.147420	-0.132772
O2	O	1.301522	0.161466	-0.134500
O3	O	1.493489	0.001719	-0.114598
O4	O	1.475106	0.307167	-0.152674
O5	O	1.493487	0.001723	0.113982
O6	O	1.301520	0.161470	0.094079
O7	O	1.667071	0.147424	0.095808
Zn8	Zn	1.484295	0.154448	0.131235
Zn9	Zn	1.484298	0.154443	-0.169928
O10	O	1.475104	0.307171	0.075905
C11	C	1.254728	0.160437	-0.020079
C12	C	1.115301	0.157351	-0.019686
C13	C	1.492456	-0.037390	0.004565
C14	C	1.489365	-0.153930	0.019084
C15	C	1.035330	0.251408	-0.031431
C16	C	0.904324	0.248502	-0.031092
C17	C	0.933273	0.057476	-0.007269
C18	C	1.064277	0.060382	-0.007597
C19	C	1.018615	0.361695	-0.045191
C20	C	0.887609	0.358790	-0.044853
C21	C	1.485014	-0.318188	0.164145
C22	C	1.487913	-0.208688	0.150506
C23	C	1.487915	-0.208678	-0.098706
C24	C	1.485016	-0.318178	-0.085067
C25	C	1.483568	-0.372929	0.046363
C26	C	1.480678	-0.482432	0.060002
C27	C	1.480671	-0.482418	-0.189209
C28	C	1.483570	-0.372919	-0.202848
C29	C	1.713865	0.148454	-0.018617
C30	C	1.853292	0.151539	-0.019019
C31	C	1.476137	0.346281	-0.043260
C32	C	1.479228	0.462820	-0.057789
N33	N	1.484302	0.154451	0.336771
N34	N	1.484301	0.154431	-0.375463
C35	C	1.569327	0.083739	0.417507
C36	C	1.569324	0.083726	0.561392
C37	C	1.399267	0.225146	0.543791
C38	C	1.399265	0.225153	0.399910
C39	C	1.667512	0.002094	0.427670
C40	C	1.667508	0.002082	0.571554
H41	H	0.891713	-0.021474	0.002552
O42	O	1.307574	0.301423	0.611885
H43	H	1.209603	0.287295	0.586047
H44	H	1.047723	0.404830	0.045097
H45	H	1.646485	-0.078583	0.398674
O46	O	1.627611	-0.098902	0.643253
H47	H	1.629242	-0.094742	0.756653
H48	H	1.489079	-0.164121	0.246416
H49	H	1.758563	0.027659	0.379851
O50	O	1.795214	0.025910	0.620324
H51	H	1.857734	0.037597	0.530090
O52	O	1.150531	-0.041066	0.005087
H53	H	1.210870	-0.044300	0.098681
O54	O	0.826864	0.402937	0.080354
H55	H	0.846448	0.486276	0.082190
O56	O	0.832040	0.413825	-0.178434
H57	H	0.728181	0.411497	-0.178073
H58	H	1.054090	0.396811	-0.148256
H59	H	1.483843	-0.362768	0.271160
O60	O	1.479107	-0.541492	0.201749
H61	H	1.480585	-0.485024	0.281357
O62	O	1.489459	-0.149608	-0.240450
H63	H	1.574390	-0.179343	-0.296517
O64	O	1.485133	-0.313865	-0.344601
H65	H	1.487397	-0.228526	-0.334301
H66	H	1.479496	-0.527001	-0.285116
H67	H	1.330021	0.282723	0.334176
