data_functionalizedCrystal
_audit_creation_method	'MofGen! by Chris Wilmer'
_symmetry_space_group_name_H-M	'P1'
_symmetry_Int_Tables_number	1
_symmetry_cell_setting	triclinic
loop_
_symmetry_equiv_pos_as_xyz
  x,y,z
_cell_length_a	27.731994
_cell_length_b	27.731996
_cell_length_c	26.809956
_cell_angle_alpha	89.998344
_cell_angle_beta	89.997334
_cell_angle_gamma	82.620961
loop_
_atom_site_label
_atom_site_type_symbol
_atom_site_fract_x
_atom_site_fract_y
_atom_site_fract_z
O1	O	0.640937	0.057387	-0.041415
O2	O	0.974271	0.390720	0.291919
O3	O	1.307604	0.724054	0.625252
O4	O	0.500139	0.066160	-0.041432
O5	O	0.833472	0.399493	0.291901
O6	O	1.166805	0.732827	0.625234
O7	O	0.574924	-0.008626	-0.041412
O8	O	0.908257	0.324707	0.291921
O9	O	1.241591	0.658041	0.625254
O10	O	0.566152	0.132173	-0.041435
O11	O	0.899485	0.465506	0.291898
O12	O	1.232819	0.798840	0.625232
O13	O	0.574910	-0.008615	0.041547
O14	O	0.908243	0.324719	0.374880
O15	O	1.241577	0.658052	0.708214
O16	O	0.500124	0.066171	0.041527
O17	O	0.833458	0.399505	0.374860
O18	O	1.166791	0.732838	0.708194
O19	O	0.640923	0.057398	0.041544
O20	O	0.974257	0.390732	0.374878
O21	O	1.307590	0.724065	0.708211
Zn22	Zn	0.570522	0.061787	0.054707
Zn23	Zn	0.903855	0.395120	0.388041
Zn24	Zn	1.237188	0.728453	0.721374
Zn25	Zn	0.570540	0.061772	-0.054595
Zn26	Zn	0.903874	0.395105	0.278738
Zn27	Zn	1.237207	0.728438	0.612072
O28	O	0.566138	0.132184	0.041524
O29	O	0.899471	0.465518	0.374858
O30	O	1.232805	0.798851	0.708191
C31	C	0.482124	0.065986	0.000045
C32	C	0.815458	0.399319	0.333379
C33	C	1.148791	0.732652	0.666712
C34	C	0.428468	0.065443	0.000039
C35	C	0.761801	0.398777	0.333372
C36	C	1.095135	0.732110	0.666706
C37	C	0.095742	0.062034	0.045280
C38	C	0.429076	0.395367	0.378613
C39	C	0.762409	0.728700	0.711947
C40	C	-0.105915	0.059972	0.045286
C41	C	0.227418	0.393305	0.378619
C42	C	0.560751	0.726639	0.711953
O43	O	-0.131994	0.059690	0.083745
O44	O	0.201339	0.393023	0.417078
O45	O	0.534672	0.726357	0.750411
N46	N	-0.131122	0.059710	0.000065
N47	N	0.202211	0.393043	0.333398
N48	N	0.535544	0.726376	0.666732
C49	C	-0.105912	0.059960	-0.045161
C50	C	0.227422	0.393293	0.288172
C51	C	0.560755	0.726626	0.621506
O52	O	-0.131978	0.059684	-0.083624
O53	O	0.201355	0.393018	0.249709
O54	O	0.534689	0.726351	0.583043
C55	C	0.095746	0.062018	-0.045166
C56	C	0.429079	0.395351	0.288167
C57	C	0.762412	0.728685	0.621500
C58	C	0.120950	0.062285	0.000058
C59	C	0.454283	0.395618	0.333391
C60	C	0.787616	0.728952	0.666724
C61	C	0.120946	0.062300	0.090500
C62	C	0.454280	0.395634	0.423833
C63	C	0.787613	0.728967	0.757167
C64	C	0.171357	0.062818	0.090498
C65	C	0.504691	0.396152	0.423832
C66	C	0.838024	0.729485	0.757165
C67	C	0.196565	0.063070	0.045276
C68	C	0.529898	0.396403	0.378609
C69	C	0.863231	0.729736	0.711943
C70	C	0.171361	0.062803	0.000056
C71	C	0.504694	0.396136	0.333389
C72	C	0.838027	0.729470	0.666722
C73	C	0.120956	0.062264	-0.090392
C74	C	0.454290	0.395598	0.242942
C75	C	0.787623	0.728931	0.576275
C76	C	0.171374	0.062778	-0.090389
C77	C	0.504707	0.396111	0.242944
C78	C	0.838041	0.729444	0.576278
C79	C	0.196578	0.063045	-0.045165
C80	C	0.529911	0.396378	0.288168
C81	C	0.863244	0.729712	0.621502
C82	C	0.246979	0.063573	-0.045168
C83	C	0.580312	0.396906	0.288165
C84	C	0.913646	0.730239	0.621498
N85	N	0.272186	0.063835	0.000053
N86	N	0.605519	0.397168	0.333386
N87	N	0.938853	0.730502	0.666719
C88	C	0.246979	0.063583	0.045275
C89	C	0.580312	0.396917	0.378608
C90	C	0.913645	0.730250	0.711941
C91	C	-0.211785	0.058880	-0.045155
C92	C	0.121549	0.392213	0.288179
C93	C	0.454882	0.725547	0.621512
C94	C	-0.262199	0.058366	-0.045154
C95	C	0.071134	0.391700	0.288180
C96	C	0.404468	0.725033	0.621513
C97	C	-0.262199	0.058378	0.045293
C98	C	0.071134	0.391711	0.378627
C99	C	0.404468	0.725044	0.711960
C100	C	-0.211784	0.058895	0.045292
C101	C	0.121549	0.392228	0.378625
C102	C	0.454882	0.725562	0.711958
C103	C	-0.186578	0.059142	0.000066
C104	C	0.146756	0.392476	0.333400
C105	C	0.480089	0.725809	0.666733
C106	C	0.352846	0.064672	0.045267
C107	C	0.686179	0.398005	0.378601
C108	C	1.019512	0.731338	0.711934
C109	C	0.403261	0.065192	0.045261
C110	C	0.736594	0.398525	0.378595
C111	C	1.069927	0.731859	0.711928
C112	C	0.403257	0.065178	-0.045185
C113	C	0.736590	0.398511	0.288148
C114	C	1.069924	0.731845	0.621481
C115	C	0.352846	0.064660	-0.045180
C116	C	0.686179	0.397994	0.288154
C117	C	1.019512	0.731327	0.621487
C118	C	0.327642	0.064406	0.000051
C119	C	0.660975	0.397739	0.333384
C120	C	0.994308	0.731072	0.666717
O121	O	0.273090	0.063850	-0.083607
O122	O	0.606423	0.397183	0.249726
O123	O	0.939756	0.730516	0.583060
O124	O	0.273056	0.063848	0.083732
O125	O	0.606389	0.397181	0.417065
O126	O	0.939722	0.730515	0.750399
C127	C	0.045331	0.061516	0.045282
C128	C	0.378665	0.394849	0.378615
C129	C	0.711998	0.728182	0.711949
C130	C	0.020127	0.061249	0.000062
C131	C	0.353461	0.394582	0.333395
C132	C	0.686794	0.727916	0.666728
C133	C	0.045335	0.061500	-0.045161
C134	C	0.378668	0.394834	0.288173
C135	C	0.712001	0.728167	0.621506
C136	C	-0.030287	0.060735	0.000063
C137	C	0.303047	0.394069	0.333396
C138	C	0.636380	0.727402	0.666729
C139	C	-0.055494	0.060484	0.045285
C140	C	0.277839	0.393817	0.378618
C141	C	0.611173	0.727151	0.711952
C142	C	-0.030287	0.060746	0.090506
C143	C	0.303047	0.394080	0.423839
C144	C	0.636380	0.727413	0.757173
C145	C	0.020124	0.061264	0.090504
C146	C	0.353458	0.394598	0.423837
C147	C	0.686791	0.727931	0.757171
C148	C	0.020128	0.061238	-0.090382
C149	C	0.353461	0.394572	0.242952
C150	C	0.686794	0.727905	0.576285
C151	C	-0.030284	0.060721	-0.090376
C152	C	0.303050	0.394054	0.242957
C153	C	0.636383	0.727387	0.576291
C154	C	-0.055491	0.060469	-0.045154
C155	C	0.277843	0.393803	0.288180
C156	C	0.611176	0.727136	0.621513
C157	C	0.574737	-0.026628	0.000069
C158	C	0.908070	0.306706	0.333402
C159	C	1.241403	0.640039	0.666736
C160	C	0.574194	-0.080284	0.000074
C161	C	0.907527	0.253050	0.333407
C162	C	1.240861	0.586383	0.666741
C163	C	0.570787	-0.413006	-0.045172
C164	C	0.904120	-0.079672	0.288162
C165	C	1.237454	0.253661	0.621495
C166	C	0.568726	-0.614663	-0.045181
C167	C	0.902059	-0.281330	0.288152
C168	C	1.235393	0.052003	0.621486
O169	O	0.568445	-0.640739	-0.083640
O170	O	0.901778	-0.307406	0.249693
O171	O	1.235112	0.025927	0.583027
N172	N	0.568462	-0.639874	0.000040
N173	N	0.901795	-0.306541	0.333373
N174	N	1.235129	0.026792	0.666706
C175	C	0.568711	-0.614667	0.045266
C176	C	0.902044	-0.281334	0.378599
C177	C	1.235377	0.052000	0.711933
O178	O	0.568434	-0.640737	0.083729
O179	O	0.901767	-0.307404	0.417062
O180	O	1.235101	0.025930	0.750395
C181	C	0.570768	-0.413010	0.045274
C182	C	0.904102	-0.079676	0.378608
C183	C	1.237435	0.253657	0.711941
C184	C	0.571037	-0.387802	0.000051
C185	C	0.904370	-0.054469	0.333384
C186	C	1.237703	0.278864	0.666717
C187	C	0.571055	-0.387798	-0.090392
C188	C	0.904388	-0.054465	0.242942
C189	C	1.237722	0.278869	0.576275
C190	C	0.571573	-0.337387	-0.090389
C191	C	0.904906	-0.004053	0.242944
C192	C	1.238240	0.329280	0.576278
C193	C	0.571823	-0.312183	-0.045166
C194	C	0.905156	0.021150	0.288167
C195	C	1.238489	0.354483	0.621500
C196	C	0.571555	-0.337391	0.000054
C197	C	0.904888	-0.004058	0.333387
C198	C	1.238221	0.329276	0.666720
C199	C	0.571013	-0.387803	0.090500
C200	C	0.904346	-0.054470	0.423833
C201	C	1.237680	0.278864	0.757167
C202	C	0.571526	-0.337385	0.090498
C203	C	0.904860	-0.004052	0.423831
C204	C	1.238193	0.329281	0.757165
C205	C	0.571795	-0.312178	0.045274
C206	C	0.905128	0.021156	0.378608
C207	C	1.238462	0.354489	0.711941
C208	C	0.572322	-0.261777	0.045279
C209	C	0.905656	0.071557	0.378612
C210	C	1.238989	0.404890	0.711946
N211	N	0.572586	-0.236566	0.000058
N212	N	0.905919	0.096768	0.333392
N213	N	1.239253	0.430101	0.666725
C214	C	0.572336	-0.261769	-0.045164
C215	C	0.905670	0.071564	0.288169
C216	C	1.239003	0.404897	0.621502
C217	C	0.567631	-0.720540	0.045258
C218	C	0.900965	-0.387207	0.378592
C219	C	1.234298	-0.053874	0.711925
C220	C	0.567118	-0.770955	0.045256
C221	C	0.900451	-0.437621	0.378590
C222	C	1.233784	-0.104288	0.711923
C223	C	0.567132	-0.770947	-0.045191
C224	C	0.900465	-0.437614	0.288143
C225	C	1.233799	-0.104281	0.621476
C226	C	0.567649	-0.720533	-0.045188
C227	C	0.900982	-0.387199	0.288145
C228	C	1.234316	-0.053866	0.621479
C229	C	0.567895	-0.695329	0.000038
C230	C	0.901228	-0.361996	0.333371
C231	C	1.234562	-0.028663	0.666704
C232	C	0.573424	-0.155902	-0.045155
C233	C	0.906758	0.177431	0.288178
C234	C	1.240091	0.510764	0.621511
C235	C	0.573944	-0.105487	-0.045149
C236	C	0.907278	0.227846	0.288185
C237	C	1.240611	0.561180	0.621518
C238	C	0.573927	-0.105499	0.045298
C239	C	0.907261	0.227835	0.378631
C240	C	1.240594	0.561168	0.711965
C241	C	0.573410	-0.155910	0.045292
C242	C	0.906743	0.177424	0.378625
C243	C	1.240077	0.510757	0.711958
C244	C	0.573157	-0.181110	0.000061
C245	C	0.906490	0.152223	0.333394
C246	C	1.239823	0.485556	0.666728
O247	O	0.572598	-0.235669	0.083718
O248	O	0.905931	0.097664	0.417051
O249	O	1.239265	0.430998	0.750384
O250	O	0.572602	-0.235689	-0.083621
O251	O	0.905935	0.097644	0.249712
O252	O	1.239269	0.430977	0.583045
C253	C	0.570269	-0.463417	-0.045175
C254	C	0.903602	-0.130083	0.288159
C255	C	1.236936	0.203250	0.621492
C256	C	0.570001	-0.488624	0.000045
C257	C	0.903334	-0.155291	0.333379
C258	C	1.236668	0.178042	0.666712
C259	C	0.570251	-0.463421	0.045268
C260	C	0.903584	-0.130088	0.378601
C261	C	1.236918	0.203246	0.711935
C262	C	0.569487	-0.539039	0.000043
C263	C	0.902821	-0.205705	0.333377
C264	C	1.236154	0.127628	0.666710
C265	C	0.569238	-0.564242	-0.045179
C266	C	0.902571	-0.230909	0.288154
C267	C	1.235904	0.102425	0.621487
C268	C	0.569501	-0.539031	-0.090400
C269	C	0.902835	-0.205698	0.242933
C270	C	1.236168	0.127636	0.576267
C271	C	0.570019	-0.488620	-0.090397
C272	C	0.903352	-0.155287	0.242936
C273	C	1.236686	0.178047	0.576270
C274	C	0.569987	-0.488632	0.090489
C275	C	0.903321	-0.155298	0.423822
C276	C	1.236654	0.178035	0.757155
C277	C	0.569470	-0.539043	0.090482
C278	C	0.902803	-0.205710	0.423816
C279	C	1.236136	0.127624	0.757149
C280	C	0.569220	-0.564246	0.045260
C281	C	0.902553	-0.230913	0.378593
C282	C	1.235887	0.102420	0.711926
C283	C	0.658938	0.057573	0.000066
C284	C	0.992271	0.390906	0.333399
C285	C	1.325604	0.724239	0.666732
C286	C	0.712594	0.058115	0.000069
C287	C	1.045927	0.391448	0.333402
C288	C	1.379261	0.724782	0.666735
C289	C	0.566325	0.150186	0.000042
C290	C	0.899658	0.483519	0.333375
C291	C	1.232992	0.816853	0.666709
C292	C	0.566868	0.203842	0.000034
C293	C	0.900201	0.537175	0.333367
C294	C	1.233535	0.870509	0.666700
N295	N	0.570513	0.061797	0.129303
N296	N	0.903846	0.395130	0.462637
N297	N	1.237179	0.728463	0.795970
N298	N	0.570553	0.061758	-0.129191
N299	N	0.903887	0.395091	0.204142
N300	N	1.237220	0.728425	0.537476
C301	C	0.603651	0.028665	0.473938
C302	C	0.936984	0.361998	0.807271
C303	C	1.270318	0.695331	1.140605
C304	C	0.603663	0.028657	0.682816
C305	C	0.936996	0.361990	1.016149
C306	C	1.270329	0.695324	1.349483
O307	O	0.631818	0.000490	0.709827
O308	O	0.965152	0.333823	1.043161
O309	O	1.298485	0.667157	1.376494
N310	N	0.570543	0.061761	0.708930
N311	N	0.903876	0.395094	1.042264
N312	N	1.237210	0.728428	1.375597
C313	C	0.537416	0.094867	0.682822
C314	C	0.870749	0.428200	1.016155
C315	C	1.204083	0.761534	1.349489
O316	O	0.509243	0.123020	0.709827
O317	O	0.842576	0.456354	1.043160
O318	O	1.175909	0.789687	1.376494
C319	C	0.537403	0.094872	0.473945
C320	C	0.870736	0.428205	0.807279
C321	C	1.204069	0.761538	1.140612
C322	C	0.570528	0.061769	0.447834
C323	C	0.903861	0.395102	0.781167
C324	C	1.237194	0.728436	1.114500
C325	C	0.636773	-0.004436	0.447826
C326	C	0.970106	0.328897	0.781160
C327	C	1.303440	0.662231	1.114493
C328	C	0.636771	-0.004432	0.395610
C329	C	0.970105	0.328901	0.728943
C330	C	1.303438	0.662235	1.062277
C331	C	0.603648	0.028672	0.369506
C332	C	0.936981	0.362006	0.702839
C333	C	1.270315	0.695339	1.036172
C334	C	0.570526	0.061773	0.395617
C335	C	0.903860	0.395106	0.728951
C336	C	1.237193	0.728440	1.062284
C337	C	0.504274	0.127975	0.447838
C338	C	0.837607	0.461308	0.781172
C339	C	1.170941	0.794642	1.114505
C340	C	0.504273	0.127972	0.395616
C341	C	0.837606	0.461306	0.728949
C342	C	1.170939	0.794639	1.062282
C343	C	0.537398	0.094870	0.369504
C344	C	0.870731	0.428203	0.702837
C345	C	1.204064	0.761536	1.036171
C346	C	0.537401	0.094881	0.317297
C347	C	0.870735	0.428215	0.650630
C348	C	1.204068	0.761548	0.983963
N349	N	0.570521	0.061777	0.291182
N350	N	0.903854	0.395111	0.624515
N351	N	1.237188	0.728444	0.957849
C352	C	0.603644	0.028673	0.317287
C353	C	0.936978	0.362006	0.650620
C354	C	1.270311	0.695340	0.983953
C355	C	0.537426	0.094863	0.792485
C356	C	0.870759	0.428196	1.125819
C357	C	1.204093	0.761529	1.459152
C358	C	0.537430	0.094862	0.844704
C359	C	0.870763	0.428196	1.178038
C360	C	1.204097	0.761529	1.511371
C361	C	0.603676	0.028652	0.844694
C362	C	0.937009	0.361985	1.178028
C363	C	1.270343	0.695318	1.511361
C364	C	0.603674	0.028655	0.792475
C365	C	0.937007	0.361988	1.125808
C366	C	1.270341	0.695322	1.459141
C367	C	0.570546	0.061759	0.766371
C368	C	0.903879	0.395092	1.099704
C369	C	1.237212	0.728426	1.433038
C370	C	0.603639	0.028684	0.207629
C371	C	0.936972	0.362017	0.540962
C372	C	1.270306	0.695351	0.874295
C373	C	0.603636	0.028692	0.155408
C374	C	0.936969	0.362026	0.488741
C375	C	1.270303	0.695359	0.822074
C376	C	0.537388	0.094901	0.155422
C377	C	0.870722	0.428234	0.488755
C378	C	1.204055	0.761568	0.822089
C379	C	0.537393	0.094895	0.207639
C380	C	0.870726	0.428228	0.540972
C381	C	1.204060	0.761561	0.874305
C382	C	0.570520	0.061782	0.233740
C383	C	0.903853	0.395115	0.567074
C384	C	1.237187	0.728449	0.900407
O385	O	0.509257	0.123030	0.290253
O386	O	0.842590	0.456363	0.623586
O387	O	1.175923	0.789696	0.956920
O388	O	0.631806	0.000517	0.290273
O389	O	0.965140	0.333850	0.623606
O390	O	1.298473	0.667183	0.956940
C391	C	0.603652	0.028661	0.526154
C392	C	0.936986	0.361994	0.859488
C393	C	1.270319	0.695327	1.192821
C394	C	0.570531	0.061761	0.552266
C395	C	0.903864	0.395094	0.885600
C396	C	1.237197	0.728428	1.218933
C397	C	0.537407	0.094865	0.526162
C398	C	0.870741	0.428199	0.859495
C399	C	1.204074	0.761532	1.192828
C400	C	0.570534	0.061761	0.604485
C401	C	0.903868	0.395094	0.937819
C402	C	1.237201	0.728427	1.271152
C403	C	0.603658	0.028656	0.630590
C404	C	0.936991	0.361989	0.963923
C405	C	1.270324	0.695323	1.297256
C406	C	0.636777	-0.004448	0.604475
C407	C	0.970111	0.328886	0.937809
C408	C	1.303444	0.662219	1.271142
C409	C	0.636776	-0.004444	0.552259
C410	C	0.970109	0.328890	0.885592
C411	C	1.303443	0.662223	1.218926
C412	C	0.504288	0.127969	0.552276
C413	C	0.837621	0.461303	0.885610
C414	C	1.170954	0.794636	1.218943
C415	C	0.504292	0.127963	0.604493
C416	C	0.837626	0.461296	0.937826
C417	C	1.170959	0.794630	1.271159
C418	C	0.537416	0.094859	0.630597
C419	C	0.870749	0.428192	0.963930
C420	C	1.204082	0.761525	1.297264
H421	H	0.040646	0.061441	-0.127208
H422	H	0.373980	0.394775	0.206125
H423	H	0.707313	0.728108	0.539459
Cl424	Cl	0.678413	-0.046051	0.362790
Cl425	Cl	1.011746	0.287282	0.696123
Cl426	Cl	1.345079	0.620615	1.029456
H427	H	0.663746	-0.031396	0.469076
H428	H	0.997079	0.301938	0.802409
H429	H	1.330413	0.635271	1.135743
H430	H	0.570850	-0.408313	-0.127219
H431	H	0.904183	-0.074980	0.206114
H432	H	1.237516	0.258354	0.539447
H433	H	0.574133	-0.084969	0.082117
H434	H	0.907466	0.248364	0.415450
H435	H	1.240800	0.581698	0.748784
Cl436	Cl	0.566815	-0.802640	-0.102042
Cl437	Cl	0.900148	-0.469307	0.231292
Cl438	Cl	1.233482	-0.135974	0.564625
H439	H	0.630612	0.001736	0.134149
H440	H	0.963945	0.335069	0.467482
H441	H	1.297279	0.668403	0.800816
H442	H	0.510462	0.121822	0.865961
H443	H	0.843795	0.455156	1.199294
H444	H	1.177128	0.788489	1.532628
Cl445	Cl	0.567985	-0.688848	-0.102043
Cl446	Cl	0.901318	-0.355515	0.231291
Cl447	Cl	1.234652	-0.022181	0.564624
Cl448	Cl	0.321159	0.064332	-0.102033
Cl449	Cl	0.654492	0.397666	0.231300
Cl450	Cl	0.987826	0.730999	0.564633
H451	H	0.630647	0.001700	0.771217
H452	H	0.963980	0.335033	1.104551
H453	H	1.297314	0.668366	1.437884
Cl454	Cl	0.645286	-0.012943	0.240434
Cl455	Cl	0.978619	0.320390	0.573767
Cl456	Cl	1.311953	0.653724	0.907101
Cl457	Cl	0.678420	-0.046061	0.519440
Cl458	Cl	1.011753	0.287272	0.852773
Cl459	Cl	1.345087	0.620605	1.186106
Cl460	Cl	0.462622	0.169591	0.362804
Cl461	Cl	0.795955	0.502924	0.696137
Cl462	Cl	1.129288	0.836258	1.029470
Cl463	Cl	0.051802	0.061599	0.147360
Cl464	Cl	0.385135	0.394933	0.480694
Cl465	Cl	0.718468	0.728266	0.814027
H466	H	0.567834	-0.700025	0.082089
H467	H	0.901167	-0.366692	0.415422
H468	H	1.234500	-0.033358	0.748755
Cl469	Cl	0.566790	-0.802639	0.102111
Cl470	Cl	0.900123	-0.469306	0.435445
Cl471	Cl	1.233456	-0.135972	0.768778
Cl472	Cl	0.569189	-0.570725	-0.147251
Cl473	Cl	0.902523	-0.237392	0.186083
Cl474	Cl	1.235856	0.095941	0.519416
H475	H	0.630647	0.001697	0.865957
H476	H	0.963980	0.335031	1.199291
H477	H	1.297314	0.668364	1.532624
H478	H	0.569255	-0.559563	0.127311
H479	H	0.902588	-0.226230	0.460645
H480	H	1.235922	0.107103	0.793978
H481	H	-0.282717	0.058157	-0.081979
H482	H	0.050617	0.391490	0.251354
H483	H	0.383950	0.724823	0.584687
Cl484	Cl	0.573081	-0.187601	0.102145
Cl485	Cl	0.906415	0.145732	0.435478
Cl486	Cl	1.239748	0.479065	0.768811
H487	H	-0.282731	0.058174	0.082115
H488	H	0.050602	0.391508	0.415448
H489	H	0.383935	0.724841	0.748782
H490	H	0.191895	0.062979	-0.127218
H491	H	0.525228	0.396313	0.206116
H492	H	0.858561	0.729646	0.539449
H493	H	0.423779	0.065411	0.082090
H494	H	0.757113	0.398744	0.415423
H495	H	1.090446	0.732078	0.748756
Cl496	Cl	0.573107	-0.187575	-0.102017
Cl497	Cl	0.906440	0.145758	0.231316
Cl498	Cl	1.239774	0.479091	0.564649
Cl499	Cl	0.495777	0.136485	0.759675
Cl500	Cl	0.829110	0.469818	1.093009
Cl501	Cl	1.162443	0.803151	1.426342
H502	H	0.570795	-0.408319	0.127326
H503	H	0.904129	-0.074985	0.460659
H504	H	1.237462	0.258348	0.793993
Cl505	Cl	0.571836	-0.305705	0.147357
Cl506	Cl	0.905169	0.027629	0.480690
Cl507	Cl	1.238502	0.360962	0.814024
Cl508	Cl	0.571906	-0.305704	-0.147245
Cl509	Cl	0.905239	0.027629	0.186089
Cl510	Cl	1.238572	0.360962	0.519422
Cl511	Cl	0.570356	-0.456938	-0.147253
Cl512	Cl	0.903689	-0.123605	0.186080
Cl513	Cl	1.237022	0.209729	0.519414
H514	H	0.570191	-0.468116	0.127315
H515	H	0.903525	-0.134783	0.460648
H516	H	1.236858	0.198550	0.793982
Cl517	Cl	0.462628	0.169591	0.480654
Cl518	Cl	0.795961	0.502924	0.813987
Cl519	Cl	1.129295	0.836257	1.147321
H520	H	-0.191266	0.059081	-0.081985
H521	H	0.142068	0.392415	0.251349
H522	H	0.475401	0.725748	0.584682
Cl523	Cl	0.089266	0.061987	0.147359
Cl524	Cl	0.422599	0.395320	0.480692
Cl525	Cl	0.755933	0.728654	0.814026
H526	H	0.510424	0.121854	0.228899
H527	H	0.843758	0.455188	0.562232
H528	H	1.177091	0.788521	0.895566
H529	H	0.100444	0.062046	-0.127218
H530	H	0.433777	0.395380	0.206116
H531	H	0.767111	0.728713	0.539449
H532	H	0.510421	0.121855	0.134160
H533	H	0.843754	0.455189	0.467493
H534	H	1.177088	0.788522	0.800826
H535	H	0.663749	-0.031401	0.625738
H536	H	0.997083	0.301932	0.959071
H537	H	1.330416	0.635266	1.292405
Cl538	Cl	0.462647	0.169584	0.637313
Cl539	Cl	0.795980	0.502917	0.970646
Cl540	Cl	1.129314	0.836251	1.303980
Cl541	Cl	-0.061986	0.060432	0.147356
Cl542	Cl	0.271348	0.393765	0.480690
Cl543	Cl	0.604681	0.727099	0.814023
Cl544	Cl	0.321168	0.064352	0.102129
Cl545	Cl	0.654501	0.397685	0.435462
Cl546	Cl	0.987835	0.731018	0.768796
Cl547	Cl	0.203035	0.063151	0.147354
Cl548	Cl	0.536369	0.396484	0.480688
Cl549	Cl	0.869702	0.729817	0.814021
H550	H	0.477314	0.154926	0.531026
H551	H	0.810647	0.488260	0.864359
H552	H	1.143981	0.821593	1.197693
H553	H	0.423789	0.065385	-0.082004
H554	H	0.757123	0.398718	0.251329
H555	H	1.090456	0.732051	0.584663
H556	H	-0.050801	0.060507	-0.127206
H557	H	0.282533	0.393840	0.206128
H558	H	0.615866	0.727174	0.539461
Cl559	Cl	0.574283	-0.073801	-0.102005
Cl560	Cl	0.907616	0.259532	0.231328
Cl561	Cl	1.240950	0.592866	0.564661
H562	H	-0.191267	0.059113	0.082117
H563	H	0.142067	0.392446	0.415450
H564	H	0.475400	0.725780	0.748784
