data_functionalizedCrystal
_audit_creation_method	'MofGen! by Chris Wilmer'
_symmetry_space_group_name_H-M	'P1'
_symmetry_Int_Tables_number	1
_symmetry_cell_setting	triclinic
loop_
_symmetry_equiv_pos_as_xyz
  x,y,z
_cell_length_a	10.686285
_cell_length_b	10.685969
_cell_length_c	10.686551
_cell_angle_alpha	90.351934
_cell_angle_beta	80.915481
_cell_angle_gamma	98.371884
loop_
_atom_site_label
_atom_site_type_symbol
_atom_site_fract_x
_atom_site_fract_y
_atom_site_fract_z
Zn1	Zn	-0.617473	-2.015779	-0.511373
Zn2	Zn	-0.846045	-2.015677	-0.282879
Zn3	Zn	-0.615066	-1.789736	-0.317933
Zn4	Zn	-0.813405	-1.819812	-0.511371
O5	O	-0.722997	-1.910251	-0.405889
O6	O	-0.662461	-2.192336	-0.466394
O7	O	-0.828057	-1.973076	-0.110949
O8	O	-0.436721	-1.807177	-0.358264
O9	O	-0.830392	-2.192261	-0.298520
O10	O	-0.438490	-1.973250	-0.500384
O11	O	-0.658358	-1.807078	-0.136703
O12	O	-0.626708	-1.617156	-0.358262
O13	O	-0.774762	-1.858437	-0.687951
O14	O	-0.772428	-1.639252	-0.500380
O15	O	-0.630812	-2.002413	-0.687953
O16	O	-1.020379	-2.002239	-0.298518
O17	O	-0.996399	-1.858338	-0.466390
C18	C	-0.695766	-1.582421	-0.433125
C19	C	-0.684145	-1.442179	-0.444805
C20	C	-1.054715	-1.933577	-0.378675
C21	C	-1.196632	-1.943675	-0.367065
C22	C	-0.389985	-1.886870	-0.433234
C23	C	-0.248075	-1.876907	-0.444887
C24	C	-0.699415	-1.933791	-0.735017
C25	C	-0.689365	-1.943822	-0.875272
C26	C	-0.750325	-1.239359	-0.378534
C27	C	-0.761941	-1.379601	-0.366842
C28	C	-0.746402	-1.886869	-0.078042
C29	C	-0.756112	-1.877057	0.062203
H30	H	-0.608651	-1.388465	-0.520494
C31	C	-1.184806	-1.664691	-0.527268
C32	C	-1.160973	-1.789317	-0.546835
H33	H	-1.131021	-1.610618	-0.590205
H34	H	-1.271938	-1.660218	-0.532577
H35	H	-1.167602	-1.638713	-0.445756
H36	H	-1.178187	-1.815298	-0.628344
H37	H	-1.073821	-1.793795	-0.541538
C38	C	-0.903383	-1.729796	-0.950756
C39	C	-0.843650	-1.789538	-0.865220
H40	H	-0.957435	-1.675775	-0.905940
H41	H	-0.840110	-1.681251	-1.010730
H42	H	-0.953134	-1.791851	-0.993593
H43	H	-0.793891	-1.727484	-0.822389
H44	H	-0.906932	-1.838085	-0.805223
C45	C	-0.608475	-2.024682	-1.077411
C46	C	-0.601830	-2.031351	-0.947856
H47	H	-0.554426	-2.078710	-1.122219
H48	H	-0.694256	-2.050702	-1.090365
H49	H	-0.581226	-1.940108	-1.107514
H50	H	-0.629087	-2.115923	-0.917751
H51	H	-0.516030	-2.005337	-0.934895
C52	C	-0.856046	-1.581665	-0.272466
C53	C	-0.863869	-1.452110	-0.264658
H54	H	-0.918967	-1.626425	-0.209377
H55	H	-0.870563	-1.610601	-0.353889
H56	H	-0.773306	-1.595832	-0.259406
H57	H	-0.946607	-1.437942	-0.277728
H58	H	-0.849362	-1.423165	-0.183215
C59	C	-1.208116	-2.091004	-0.195454
C60	C	-1.283739	-2.031269	-0.265110
H61	H	-1.261895	-2.145072	-0.132509
H62	H	-1.156117	-2.139498	-0.250680
H63	H	-1.155065	-2.028948	-0.155915
H64	H	-1.336785	-2.093324	-0.304657
H65	H	-1.335761	-1.982772	-0.209876
