data_functionalizedCrystal
_audit_creation_method	'MofGen! by Chris Wilmer'
_symmetry_space_group_name_H-M	'P1'
_symmetry_Int_Tables_number	1
_symmetry_cell_setting	triclinic
loop_
_symmetry_equiv_pos_as_xyz
  x,y,z
_cell_length_a	16.120256
_cell_length_b	14.908571
_cell_length_c	14.908520
_cell_angle_alpha	89.794039
_cell_angle_beta	95.993972
_cell_angle_gamma	90.247767
loop_
_atom_site_label
_atom_site_type_symbol
_atom_site_fract_x
_atom_site_fract_y
_atom_site_fract_z
Zn1	Zn	-0.566582	-1.321187	-0.466650
Zn2	Zn	-0.434761	-1.320030	-0.610211
Zn3	Zn	-0.418769	-1.179373	-0.450363
Zn4	Zn	-0.565619	-1.162171	-0.608225
O5	O	-0.496433	-1.245690	-0.533862
O6	O	-0.556192	-1.446448	-0.493342
O7	O	-0.316015	-1.308086	-0.583022
O8	O	-0.432087	-1.205869	-0.326377
O9	O	-0.459344	-1.445598	-0.598815
O10	O	-0.540685	-1.310059	-0.338343
O11	O	-0.304266	-1.204747	-0.465582
O12	O	-0.431153	-1.051677	-0.463656
O13	O	-0.682372	-1.176549	-0.595429
O14	O	-0.539043	-1.039038	-0.579636
O15	O	-0.683080	-1.293378	-0.491415
O16	O	-0.458410	-1.291406	-0.736094
O17	O	-0.554550	-1.175427	-0.734635
C18	C	-0.483259	-1.012839	-0.519664
C19	C	-0.477644	-0.913222	-0.513612
C20	C	-0.713811	-1.233174	-0.545018
C21	C	-0.806444	-1.227840	-0.549771
C22	C	-0.508130	-1.231448	-0.768075
C23	C	-0.513167	-1.225435	-0.868279
C24	C	-1.017666	-1.273504	-0.509049
C25	C	-0.976038	-1.218075	-0.558411
C26	C	-0.881667	-1.223510	-0.553603
C27	C	-1.112045	-1.268070	-0.513856
C28	C	-0.279901	-1.258213	-0.522688
C29	C	-0.187265	-1.263736	-0.517691
C30	C	-0.509659	-1.479451	-0.548117
C31	C	-0.515295	-1.579065	-0.554191
C32	C	-0.579304	-0.712916	-0.623183
C33	C	-0.574031	-0.619316	-0.617500
C34	C	-0.461830	-0.632421	-0.496560
C35	C	-0.467103	-0.726021	-0.502243
C36	C	-0.525841	-0.766264	-0.565557
C37	C	-0.531109	-0.859866	-0.571244
C38	C	-0.418912	-0.872969	-0.450300
C39	C	-0.413639	-0.779370	-0.444617
C40	C	-0.422613	-1.335018	-1.058042
C41	C	-0.427343	-1.329372	-1.152193
C42	C	-0.527361	-1.208501	-1.150732
C43	C	-0.522631	-1.214147	-1.056582
C44	C	-0.470254	-1.277407	-1.010240
C45	C	-0.465520	-1.283048	-0.916088
C46	C	-0.565542	-1.162183	-0.914629
C47	C	-0.570272	-1.156537	-1.008779
C48	C	-0.484710	-1.260012	-0.298737
C49	C	-0.479714	-1.266115	-0.198541
H50	H	-0.982432	-1.325037	-0.463181
H51	H	-0.375377	-0.916416	-0.403379
H52	H	-0.604332	-1.115269	-0.875697
H53	H	-0.379959	-1.386521	-1.020310
C54	C	-0.632169	-0.561348	-0.679918
C55	C	-0.680102	-0.507655	-0.628445
C56	C	-0.733678	-0.454251	-0.685915
H57	H	-0.600227	-0.524205	-0.715307
H58	H	-0.667952	-0.598693	-0.718423
H59	H	-0.644324	-0.470313	-0.589957
H60	H	-0.712061	-0.544774	-0.593058
H61	H	-0.769461	-0.491596	-0.724420
H62	H	-0.701730	-0.417114	-0.721301
H63	H	-0.766213	-0.417820	-0.651000
C64	C	-0.594966	-0.903393	-0.640009
C65	C	-0.640674	-0.836634	-0.689239
C66	C	-0.699518	-0.876694	-0.752584
H67	H	-0.567145	-0.939351	-0.679901
H68	H	-0.631710	-0.939887	-0.609685
H69	H	-0.603936	-0.800155	-0.719562
H70	H	-0.668513	-0.800672	-0.649371
H71	H	-0.736261	-0.913188	-0.722260
H72	H	-0.671690	-0.912651	-0.792470
H73	H	-0.730543	-0.831405	-0.785988
H74	H	-1.011273	-1.166533	-0.604278
H75	H	-0.627127	-0.745682	-0.674741
H76	H	-0.414013	-0.599638	-0.445007
C77	C	-0.375781	-1.392053	-1.204139
C78	C	-0.428998	-1.443510	-1.264004
C79	C	-0.381537	-1.501288	-1.311855
H80	H	-0.339329	-1.357826	-1.237053
H81	H	-0.343946	-1.430583	-1.163069
H82	H	-0.460818	-1.404984	-1.305067
H83	H	-0.465450	-1.477755	-1.231113
H84	H	-0.349703	-1.539818	-1.270786
H85	H	-0.345087	-1.467054	-1.344764
H86	H	-0.417638	-1.536214	-1.352473
C87	C	-0.349899	-0.735503	-0.375966
C88	C	-0.356712	-0.642113	-0.383333
C89	C	-0.298000	-0.601676	-0.320114
H90	H	-0.359964	-0.753712	-0.316934
H91	H	-0.295380	-0.753203	-0.387129
H92	H	-0.411218	-0.624420	-0.372163
H93	H	-0.346639	-0.623878	-0.442351
H94	H	-0.243480	-0.619376	-0.331277
H95	H	-0.308069	-0.619892	-0.261086
H96	H	-0.302609	-0.538307	-0.325109
C97	C	-0.408638	-1.351817	-0.865938
C98	C	-0.367947	-1.401078	-0.927960
C99	C	-0.315549	-1.464446	-0.881799
H100	H	-0.368447	-1.321966	-0.825303
H101	H	-0.440896	-1.391253	-0.833197
H102	H	-0.335691	-1.361648	-0.960685
H103	H	-0.408117	-1.430949	-0.968596
H104	H	-0.347807	-1.503881	-0.849059
H105	H	-0.275363	-1.434587	-0.841166
H106	H	-0.287939	-1.497882	-0.923874
H107	H	-0.570009	-1.157004	-1.188480
C108	C	-0.627052	-1.087885	-1.059257
C109	C	-0.620984	-1.095255	-1.151940
C110	C	-0.673268	-1.032017	-1.198465
H111	H	-0.683058	-1.098580	-1.047570
H112	H	-0.610616	-1.029286	-1.039641
H113	H	-0.637425	-1.153841	-1.171550
H114	H	-0.564990	-1.084551	-1.163654
H115	H	-0.656832	-0.973418	-1.178848
H116	H	-0.729270	-1.042718	-1.186770
H117	H	-0.669152	-1.037003	-1.261354
