data_functionalizedCrystal
_audit_creation_method	'MofGen! by Chris Wilmer'
_symmetry_space_group_name_H-M	'P1'
_symmetry_Int_Tables_number	1
_symmetry_cell_setting	triclinic
loop_
_symmetry_equiv_pos_as_xyz
  x,y,z
_cell_length_a	11.169417
_cell_length_b	11.169416
_cell_length_c	12.759393
_cell_angle_alpha	90.028644
_cell_angle_beta	90.018028
_cell_angle_gamma	90.011589
loop_
_atom_site_label
_atom_site_type_symbol
_atom_site_fract_x
_atom_site_fract_y
_atom_site_fract_z
Zn1	Zn	1.834945	-0.477696	0.593990
Zn2	Zn	1.834839	-0.678429	0.418319
Zn3	Zn	1.634236	-0.477763	0.418330
Zn4	Zn	1.634238	-0.678340	0.593962
O5	O	1.734564	-0.578057	0.506150
O6	O	2.002880	-0.504333	0.570693
O7	O	1.808184	-0.651875	0.271299
O8	O	1.660903	-0.309804	0.441649
O9	O	2.002803	-0.651811	0.441629
O10	O	1.808363	-0.309755	0.570705
O11	O	1.660801	-0.504447	0.271308
O12	O	1.466286	-0.504361	0.441621
O13	O	1.660907	-0.651660	0.740986
O14	O	1.466288	-0.651724	0.570657
O15	O	1.808366	-0.504247	0.741007
O16	O	1.808186	-0.846367	0.441601
O17	O	1.660805	-0.846302	0.570645
C18	C	1.422740	-0.578041	0.506138
C19	C	1.289340	-0.578063	0.506158
C20	C	1.734517	-0.889882	0.506142
C21	C	1.734606	-1.023282	0.506174
C22	C	2.047607	-0.578074	0.506163
C23	C	2.181007	-0.578082	0.506168
C24	C	1.734649	-0.577936	0.780183
C25	C	1.734684	-0.577885	0.896960
C26	C	1.734645	-0.265015	0.506181
C27	C	1.734679	-0.131615	0.506194
C28	C	1.734550	-0.578091	0.233183
C29	C	1.734746	-0.577805	0.116407
C30	C	1.811476	-0.501120	0.951835
C31	C	1.811505	-0.501076	1.061559
C32	C	1.657946	-0.654573	1.061524
C33	C	1.657912	-0.654609	0.951802
C34	C	1.900136	-0.412503	0.951855
C35	C	1.900165	-0.412460	1.061580
H36	H	1.595376	-0.717115	0.907128
N37	N	1.867177	-0.289400	0.912413
H38	H	1.934789	-0.256552	0.868440
H39	H	1.852464	-0.234519	0.974006
N40	N	2.023281	-0.445461	1.101034
H41	H	2.023350	-0.445443	1.180191
H42	H	2.083555	-0.385207	1.074611
H43	H	1.988410	-0.445822	0.917820
N44	N	1.575142	-0.737306	1.120690
H45	H	1.623904	-0.792912	1.166214
H46	H	1.526496	-0.785864	1.069217
N47	N	1.856114	-0.295476	1.106674
H48	H	1.909624	-0.228138	1.082264
H49	H	1.857732	-0.299819	1.185723
