data_functionalizedCrystal
_audit_creation_method	'MofGen! by Chris Wilmer'
_symmetry_space_group_name_H-M	'P1'
_symmetry_Int_Tables_number	1
_symmetry_cell_setting	triclinic
loop_
_symmetry_equiv_pos_as_xyz
  x,y,z
_cell_length_a	16.625548
_cell_length_b	11.169416
_cell_length_c	11.169409
_cell_angle_alpha	89.969126
_cell_angle_beta	89.976847
_cell_angle_gamma	90.011408
loop_
_atom_site_label
_atom_site_type_symbol
_atom_site_fract_x
_atom_site_fract_y
_atom_site_fract_z
Zn1	Zn	1.232769	-0.477676	-0.678662
Zn2	Zn	1.232695	-0.678416	-0.477984
Zn3	Zn	1.097925	-0.477750	-0.477984
Zn4	Zn	1.097930	-0.678319	-0.678617
O5	O	1.165330	-0.578040	-0.578312
O6	O	1.345592	-0.504314	-0.652060
O7	O	1.214784	-0.651869	-0.310034
O8	O	1.115841	-0.309790	-0.504624
O9	O	1.345537	-0.651797	-0.504622
O10	O	1.214911	-0.309736	-0.652060
O11	O	1.115769	-0.504440	-0.310034
O12	O	0.985093	-0.504346	-0.504580
O13	O	1.115850	-0.651632	-0.846573
O14	O	0.985097	-0.651703	-0.651984
O15	O	1.214915	-0.504220	-0.846605
O16	O	1.214789	-0.846353	-0.504579
O17	O	1.115778	-0.846282	-0.651983
C18	C	1.165298	-0.889865	-0.578302
C19	C	1.165358	-1.023265	-0.578339
C20	C	0.955839	-0.578023	-0.578278
C21	C	0.866218	-0.578045	-0.578292
C22	C	0.538042	-0.578052	-0.578343
C23	C	0.629350	-0.578047	-0.578325
C24	C	0.702127	-0.578049	-0.578317
C25	C	0.793441	-0.578042	-0.578301
C26	C	1.375638	-0.578058	-0.578346
C27	C	1.465260	-0.578066	-0.578361
C28	C	1.165391	-0.577907	-0.891354
C29	C	1.165418	-0.577850	-1.024754
C30	C	1.165384	-0.264998	-0.578347
C31	C	1.165407	-0.131598	-0.578362
C32	C	1.165314	-0.578086	-0.266487
C33	C	1.165444	-0.577805	-0.133087
