data_functionalizedCrystal
_audit_creation_method	'MofGen! by Chris Wilmer'
_symmetry_space_group_name_H-M	'P1'
_symmetry_Int_Tables_number	1
_symmetry_cell_setting	triclinic
loop_
_symmetry_equiv_pos_as_xyz
  x,y,z
_cell_length_a	10.723024
_cell_length_b	10.723024
_cell_length_c	16.176319
_cell_angle_alpha	89.994397
_cell_angle_beta	89.992908
_cell_angle_gamma	84.467869
loop_
_atom_site_label
_atom_site_type_symbol
_atom_site_fract_x
_atom_site_fract_y
_atom_site_fract_z
O1	O	1.657193	0.175030	-0.068739
O2	O	1.294041	0.191784	-0.068742
O3	O	1.483994	0.001831	-0.068737
O4	O	1.467241	0.364983	-0.068743
O5	O	1.483967	0.001818	0.068756
O6	O	1.294015	0.191771	0.068752
O7	O	1.657167	0.175018	0.068754
Cu8	Cu	1.475588	0.183394	0.081307
Cu9	Cu	1.475620	0.183408	-0.081294
O10	O	1.467214	0.364971	0.068750
C11	C	1.247528	0.190558	0.000005
C12	C	1.108974	0.186911	0.000004
C13	C	1.033991	0.293198	0.000001
C14	C	0.890788	0.289431	0.000000
C15	C	1.482762	-0.044675	0.000009
C16	C	1.479114	-0.183229	0.000006
C17	C	1.585401	-0.258212	0.000005
C18	C	1.581634	-0.401415	0.000002
C19	C	1.703680	0.176243	0.000006
C20	C	1.842234	0.179891	0.000002
C21	C	1.468447	0.411477	0.000002
C22	C	1.472094	0.550031	-0.000000
N23	N	1.475575	0.183382	0.195672
N24	N	1.475642	0.183409	-0.195660
C25	C	1.559712	0.099306	0.238939
C26	C	1.559719	0.099305	0.325486
C27	C	1.475593	0.183387	0.368765
C28	C	1.391447	0.267467	0.325493
C29	C	1.391436	0.267461	0.238947
C30	C	1.391490	0.267491	0.674521
C31	C	1.391510	0.267493	0.761073
C32	C	1.559773	0.099335	0.761059
C33	C	1.559762	0.099329	0.674514
C34	C	1.475612	0.183404	0.631249
C35	C	1.475604	0.183403	0.537405
C36	C	1.475606	0.183395	0.462608
H37	H	1.067152	0.093125	-0.000016
H38	H	1.672624	-0.465848	0.000006
O39	O	1.083666	0.405198	0.000035
C40	C	0.986143	0.503293	0.000010
H41	H	0.897355	0.467678	0.026040
H42	H	1.014134	0.583655	0.039925
H43	H	0.968081	0.537867	-0.065954
O44	O	0.813752	0.397871	0.000033
C45	C	0.687921	0.369968	0.000009
H46	H	0.682207	0.271887	0.026041
H47	H	0.629473	0.441121	0.039923
H48	H	0.650335	0.374336	-0.065955
O49	O	0.919212	0.071412	-0.000107
C50	C	0.995333	0.066687	-0.071327
H51	H	1.002643	0.165818	-0.095069
H52	H	1.092806	0.021153	-0.055312
H53	H	0.952107	0.009270	-0.121188
H54	H	1.628222	0.030842	0.203706
O55	O	1.363565	-0.373067	-0.000147
C56	C	1.358879	-0.296900	-0.071343
H57	H	1.422246	-0.344085	-0.121114
H58	H	1.258494	-0.282997	-0.095248
H59	H	1.392105	-0.202027	-0.055240
O60	O	1.697186	-0.208125	0.000044
C61	C	1.676062	-0.076294	0.000024
H62	H	1.578906	-0.046693	0.026053
H63	H	1.749817	-0.035599	0.039943
H64	H	1.682383	-0.039987	-0.065938
H65	H	1.628228	0.030843	0.360713
H66	H	1.628269	0.030866	0.639279
O67	O	1.641451	0.017477	0.802999
C68	C	1.620091	-0.106243	0.781876
H69	H	1.571988	-0.106527	0.719044
H70	H	1.713365	-0.166844	0.778908
H71	H	1.557652	-0.145402	0.830594
H72	H	1.323001	0.335965	0.796309
H73	H	1.322975	0.335950	0.639302
H74	H	1.322944	0.335924	0.360736
O75	O	1.367145	-0.232963	0.000112
C76	C	1.298854	-0.192819	0.071332
H77	H	1.333503	-0.102199	0.095077
H78	H	1.195081	-0.175778	0.055315
H79	H	1.312752	-0.268019	0.121192
O80	O	1.309662	0.349256	0.197044
C81	C	1.235392	0.423452	0.253799
H82	H	1.286574	0.425337	0.315484
H83	H	1.217197	0.522936	0.228785
H84	H	1.142352	0.382082	0.263022
