data_functionalizedCrystal
_audit_creation_method	'MofGen! by Chris Wilmer'
_symmetry_space_group_name_H-M	'P1'
_symmetry_Int_Tables_number	1
_symmetry_cell_setting	triclinic
loop_
_symmetry_equiv_pos_as_xyz
  x,y,z
_cell_length_a	17.640112
_cell_length_b	16.994747
_cell_length_c	17.640968
_cell_angle_alpha	101.211591
_cell_angle_beta	87.860920
_cell_angle_gamma	101.231708
loop_
_atom_site_label
_atom_site_type_symbol
_atom_site_fract_x
_atom_site_fract_y
_atom_site_fract_z
Zn1	Zn	1.247784	-0.022661	0.195088
Zn2	Zn	1.222059	-0.185380	0.068161
Zn3	Zn	1.095130	-0.073965	0.093751
Zn4	Zn	1.120797	-0.174998	0.220739
O5	O	1.171443	-0.114251	0.144435
O6	O	1.350637	-0.027120	0.156806
O7	O	1.183714	-0.196416	-0.034709
O8	O	1.115405	0.043222	0.107168
O9	O	1.331736	-0.146669	0.063553
O10	O	1.227559	0.080914	0.181620
O11	O	1.090460	-0.114560	-0.015908
O12	O	0.992271	-0.104493	0.132041
O13	O	1.159150	-0.128975	0.323601
O14	O	1.011128	-0.178722	0.225339
O15	O	1.252447	-0.017053	0.304755
O16	O	1.208602	-0.294384	0.088426
O17	O	1.134205	-0.286756	0.200525
C18	C	0.974146	-0.146049	0.184251
C19	C	0.889745	-0.159666	0.201303
C20	C	1.171406	-0.319190	0.144478
C21	C	1.171411	-0.408511	0.144474
Zn22	Zn	1.095148	-0.705053	0.093725
Zn23	Zn	1.247811	-0.653729	0.195047
Zn24	Zn	1.120820	-0.542389	0.220721
Zn25	Zn	1.222068	-0.552639	0.068133
O26	O	1.171462	-0.613452	0.144407
O27	O	1.115429	-0.808627	0.107132
O28	O	1.252484	-0.613190	0.304715
O29	O	1.011152	-0.581157	0.225330
O30	O	1.227590	-0.770919	0.181573
O31	O	0.992291	-0.700665	0.132027
O32	O	1.159184	-0.531390	0.323578
O33	O	1.134221	-0.433367	0.200514
O34	O	1.183714	-0.598626	-0.034734
O35	O	1.208607	-0.440897	0.088408
O36	O	1.090466	-0.710604	-0.015932
O37	O	1.350659	-0.623129	0.156757
O38	O	1.331745	-0.548858	0.063513
C39	C	0.563042	-0.010783	0.014902
C40	C	0.483737	-0.023592	0.030935
C41	C	0.503393	-0.101066	0.127918
C42	C	0.582702	-0.088260	0.111896
C43	C	0.612520	-0.043118	0.055386
C44	C	0.632180	-0.120595	0.152380
C45	C	0.711482	-0.107793	0.136356
C46	C	0.741305	-0.062656	0.079848
C47	C	0.691821	-0.030316	0.039362
C48	C	0.602360	-0.165741	0.208886
C49	C	0.651838	-0.198077	0.249370
C50	C	0.731142	-0.185270	0.233350
C51	C	0.760966	-0.140133	0.176842
C52	C	0.780626	-0.217610	0.273836
C53	C	0.859927	-0.204808	0.257812
C54	C	0.840267	-0.127331	0.160818
C55	C	1.369510	-0.082330	0.104463
C56	C	1.453914	-0.068727	0.087430
C57	C	1.211531	-0.066133	0.342501
C58	C	1.228614	-0.045628	0.426905
C59	C	1.171483	0.091488	0.144386
C60	C	1.171503	0.180809	0.144365
C61	C	1.131554	-0.162118	-0.052870
C62	C	1.114618	-0.182377	-0.137304
C63	C	1.041954	-0.269549	0.753555
C64	C	1.058023	-0.250269	0.832862
C65	C	1.155164	-0.133735	0.813229
C66	C	1.139102	-0.153003	0.733919
C67	C	1.082496	-0.220912	0.704088
C68	C	1.179644	-0.104366	0.684452
C69	C	1.163585	-0.123635	0.605149
C70	C	1.106984	-0.191542	0.575311
C71	C	1.066437	-0.240181	0.624784
C72	C	1.236253	-0.036461	0.714284
C73	C	1.276795	0.012176	0.664817
C74	C	1.260732	-0.007089	0.585513
C75	C	1.204131	-0.074996	0.555676
C76	C	1.301279	0.041550	0.536040
C77	C	1.285220	0.022280	0.456736
C78	C	1.188072	-0.094265	0.476372
C79	C	1.368755	-0.581538	0.104574
C80	C	1.453163	-0.567903	0.087556
C81	C	1.131355	-0.661483	-0.053656
C82	C	1.114263	-0.681951	-0.138059
C83	C	0.973398	-0.645493	0.184397
C84	C	0.888996	-0.659147	0.201438
C85	C	1.211359	-0.565662	0.341710
C86	C	1.228238	-0.545379	0.426155
C87	C	1.502619	-0.600228	0.128076
C88	C	1.581929	-0.587432	0.112085
C89	C	1.611782	-0.542305	0.055578
C90	C	1.562319	-0.509979	0.015054
C91	C	1.483010	-0.522781	0.031041
C92	C	1.057681	-0.749866	-0.167908
C93	C	1.041607	-0.769101	-0.247210
C94	C	1.082120	-0.720422	-0.296662
C95	C	1.138705	-0.652499	-0.266807
C96	C	1.154774	-0.633263	-0.187506
C97	C	0.859175	-0.603332	0.258020
C98	C	0.779870	-0.616145	0.274033
C99	C	0.730387	-0.684777	0.233466
C100	C	0.760212	-0.740595	0.176878
C101	C	0.839515	-0.727778	0.160862
C102	C	1.187930	-0.492851	0.475529
C103	C	1.203775	-0.473795	0.554877
C104	C	1.259933	-0.507263	0.584848
C105	C	1.300242	-0.559798	0.535468
C106	C	1.284392	-0.578858	0.456123
H107	H	0.805878	-0.052236	0.066801
C108	C	1.636325	-0.622984	0.156674
H109	H	1.607184	-0.651679	0.192625
H110	H	1.661383	-0.659392	0.121363
H111	H	1.673959	-0.579807	0.183558
H112	H	1.142204	-0.465589	0.451137
H113	H	0.479104	-0.137823	0.173926
C114	C	1.217029	-0.558567	-0.154679
H115	H	1.220804	-0.554074	-0.100367
H116	H	1.265411	-0.565028	-0.177996
H117	H	1.203273	-0.510512	-0.165415
C118	C	0.705776	-0.816090	0.132267
H119	H	0.654279	-0.815727	0.149921
H120	H	0.708427	-0.814832	0.078622
H121	H	0.721032	-0.864294	0.140751
C122	C	0.515129	-0.179835	0.226507
H123	H	0.504455	-0.211362	0.265950
H124	H	0.499852	-0.128650	0.243333
H125	H	0.487264	-0.208209	0.181105
H126	H	1.201255	-0.078446	0.837528
C127	C	0.872311	-0.789188	0.098630
H128	H	0.831479	-0.831900	0.076775
H129	H	0.896545	-0.762050	0.059299
H130	H	0.909131	-0.811516	0.121431
H131	H	0.899455	-0.547442	0.291059
C132	C	0.747079	-0.554747	0.336287
H133	H	0.787913	-0.512048	0.358160
H134	H	0.710255	-0.532411	0.313508
H135	H	0.722851	-0.581906	0.375612
C136	C	1.428616	-0.487202	-0.013520
H137	H	1.377104	-0.501285	0.004088
H138	H	1.443888	-0.429408	-0.004962
H139	H	1.431292	-0.508975	-0.067180
H140	H	1.272832	-0.491736	0.649458
H141	H	1.170949	-0.431015	0.595071
C142	C	0.724631	0.019344	-0.022792
H143	H	0.778947	0.022339	-0.026531
H144	H	0.701295	-0.006610	-0.071203
H145	H	0.713903	0.072948	-0.008975
C146	C	1.362018	-0.596600	0.568444
H147	H	1.365685	-0.577712	0.622769
H148	H	1.347941	-0.654523	0.557635
H149	H	1.410550	-0.580248	0.545280
H150	H	1.676362	-0.531886	0.042569
C151	C	0.747819	-0.267264	0.335989
H152	H	0.693504	-0.270255	0.339735
H153	H	0.758555	-0.320862	0.322183
H154	H	0.771154	-0.241296	0.384402
C155	C	0.979717	-0.344272	0.720730
H156	H	0.957879	-0.370491	0.761545
H157	H	0.940362	-0.326980	0.696449
H158	H	1.002531	-0.381458	0.683949
C159	C	0.979377	-0.843825	-0.280039
H160	H	0.957566	-0.870067	-0.239228
H161	H	0.940004	-0.826525	-0.304283
H162	H	1.002179	-0.880996	-0.316850
C163	C	1.328740	-0.636633	0.401815
H164	H	1.311261	-0.643200	0.350265
H165	H	1.382464	-0.614042	0.404664
H166	H	1.319842	-0.688311	0.417008
C167	C	0.873077	-0.077671	0.098663
H168	H	0.927393	-0.074675	0.094925
H169	H	0.849741	-0.103625	0.050253
H170	H	0.862349	-0.024066	0.112481
H171	H	1.347372	0.096836	0.560339
C172	C	1.064443	-0.741589	-0.383892
H173	H	1.096669	-0.702871	-0.409073
H174	H	1.073950	-0.794721	-0.404492
H175	H	1.011799	-0.740223	-0.391925
C176	C	0.595849	0.038885	-0.047248
H177	H	0.555025	0.056312	-0.069066
H178	H	0.632679	0.085264	-0.024398
H179	H	0.620073	0.005709	-0.086630
C180	C	0.429313	0.011985	-0.013598
H181	H	0.458433	0.040707	-0.049542
H182	H	0.391664	-0.031176	-0.040471
H183	H	0.404276	0.048388	0.021750
C184	C	0.914356	-0.240372	0.302346
H185	H	0.885242	-0.269082	0.338301
H186	H	0.939399	-0.276768	0.267004
H187	H	0.952003	-0.197200	0.329220
C188	C	0.619034	-0.247725	0.311529
H189	H	0.564719	-0.250714	0.315279
H190	H	0.629768	-0.301323	0.297728
H191	H	0.642373	-0.221752	0.359939
H192	H	1.586638	-0.473236	-0.030955
H193	H	1.141960	-0.149547	0.452086
C194	C	1.089314	-0.212744	0.488080
H195	H	1.049801	-0.260156	0.477399
H196	H	1.072561	-0.168320	0.472775
H197	H	1.134684	-0.222852	0.460249
C198	C	1.004200	-0.314904	0.591960
H199	H	0.982362	-0.341123	0.632775
H200	H	0.964846	-0.297612	0.567679
H201	H	1.027014	-0.352090	0.555178
H202	H	1.249328	-0.020776	0.778858
C203	C	1.013420	-0.303773	0.887274
H204	H	0.977407	-0.346972	0.858147
H205	H	1.048726	-0.325942	0.912355
H206	H	0.986600	-0.271412	0.924882
C207	C	1.013111	-0.803416	-0.113521
H208	H	1.030782	-0.782245	-0.062014
H209	H	0.959456	-0.803272	-0.116213
H210	H	1.021606	-0.857773	-0.128782
C211	C	1.339057	0.086871	0.697632
H212	H	1.360905	0.113075	0.656811
H213	H	1.316282	0.124073	0.734427
H214	H	1.378406	0.069542	0.721891
C215	C	1.329807	0.075786	0.402322
H216	H	1.365811	0.118995	0.431447
H217	H	1.356622	0.043432	0.364709
H218	H	1.294490	0.097954	0.377248
H219	H	1.478325	-0.636973	0.174091
H220	H	1.171686	-0.612870	-0.307083
H221	H	0.665814	-0.695202	0.246511
