data_functionalizedCrystal
_audit_creation_method	'MofGen! by Chris Wilmer'
_symmetry_space_group_name_H-M	'P1'
_symmetry_Int_Tables_number	1
_symmetry_cell_setting	triclinic
loop_
_symmetry_equiv_pos_as_xyz
  x,y,z
_cell_length_a	16.109301
_cell_length_b	14.519709
_cell_length_c	15.186229
_cell_angle_alpha	89.995307
_cell_angle_beta	89.999362
_cell_angle_gamma	83.570813
loop_
_atom_site_label
_atom_site_type_symbol
_atom_site_fract_x
_atom_site_fract_y
_atom_site_fract_z
O1	O	1.103336	0.118540	-0.073175
O2	O	1.603336	0.618540	0.426825
O3	O	0.861299	0.133292	-0.073189
O4	O	1.361299	0.633292	0.426811
O5	O	0.988735	-0.008336	-0.073174
O6	O	1.488735	0.491664	0.426826
O7	O	0.975900	0.260168	-0.073190
O8	O	1.475900	0.760168	0.426810
O9	O	0.988726	-0.008338	0.073284
O10	O	1.488726	0.491662	0.573284
O11	O	0.861291	0.133290	0.073268
O12	O	1.361291	0.633290	0.573268
O13	O	1.103327	0.118538	0.073282
O14	O	1.603327	0.618538	0.573282
Zn15	Zn	0.982308	0.125914	0.096529
Zn16	Zn	1.482308	0.625914	0.596529
Zn17	Zn	0.982319	0.125916	-0.096435
Zn18	Zn	1.482319	0.625916	0.403565
O19	O	0.975892	0.260166	0.073267
O20	O	1.475892	0.760166	0.573267
C21	C	0.830319	0.132693	0.000038
C22	C	1.330319	0.632693	0.500038
C23	C	0.738021	0.130902	0.000033
C24	C	1.238021	0.630902	0.500033
C25	C	0.515887	0.210775	0.000038
C26	C	1.015887	0.710775	0.500038
C27	C	0.429163	0.209085	0.000044
C28	C	0.929163	0.709085	0.500044
C29	C	0.448747	0.041048	0.000050
C30	C	0.948747	0.541048	0.500050
C31	C	0.535468	0.042739	0.000051
C32	C	1.035468	0.542739	0.500051
C33	C	0.569036	0.127606	0.000040
C34	C	1.069036	0.627606	0.500040
C35	C	0.395591	0.124224	0.000045
C36	C	0.895591	0.624224	0.500045
C37	C	0.301562	0.122390	0.000052
C38	C	0.801562	0.622390	0.500052
C39	C	0.663071	0.129440	0.000036
C40	C	1.163071	0.629440	0.500036
C41	C	0.988132	-0.042696	0.000055
C42	C	1.488132	0.457304	0.500055
C43	C	0.986340	-0.145073	0.000056
C44	C	1.486340	0.354927	0.500056
C45	C	0.979741	-0.519955	0.000032
C46	C	1.479741	-0.019955	0.500032
C47	C	0.981574	-0.415651	0.000039
C48	C	1.481574	0.084349	0.500039
C49	C	0.983041	-0.332517	0.000045
C50	C	1.483041	0.167483	0.500045
C51	C	0.984873	-0.228207	0.000050
C52	C	1.484873	0.271793	0.500050
C53	C	1.134307	0.119136	0.000054
C54	C	1.634307	0.619136	0.500054
C55	C	1.226606	0.120928	0.000053
C56	C	1.726606	0.620928	0.500053
C57	C	0.976494	0.294526	0.000036
C58	C	1.476494	0.794526	0.500036
C59	C	0.978287	0.396903	0.000030
C60	C	1.478287	0.896903	0.500030
N61	N	0.982306	0.125911	0.228221
N62	N	1.482306	0.625911	0.728221
N63	N	0.982327	0.125911	-0.228128
N64	N	1.482327	0.625911	0.271872
C65	C	1.038754	0.063219	0.453951
C66	C	1.538754	0.563219	0.953951
C67	C	1.038756	0.063217	0.546141
C68	C	1.538756	0.563217	1.046141
C69	C	0.925873	0.188606	0.546136
C70	C	1.425873	0.688606	1.046136
C71	C	0.925867	0.188603	0.453948
C72	C	1.425867	0.688603	0.953948
C73	C	0.982312	0.125911	0.407858
C74	C	1.482312	0.625911	0.907858
C75	C	0.982321	0.125912	0.592236
C76	C	1.482321	0.625912	1.092236
C77	C	0.982323	0.125910	0.692192
C78	C	1.482323	0.625910	1.192192
C79	C	0.982309	0.125911	0.307895
C80	C	1.482309	0.625911	0.807895
H81	H	0.578745	-0.024991	0.000055
H82	H	1.078745	0.475009	0.500055
O83	O	0.871131	0.249473	0.591046
O84	O	1.371131	0.749473	1.091046
C85	C	0.883226	0.236021	0.682298
C86	C	1.383226	0.736021	1.182298
H87	H	0.949272	0.201572	0.694887
H88	H	1.449272	0.701572	1.194887
H89	H	0.874084	0.305862	0.717326
H90	H	1.374084	0.805862	1.217326
H91	H	0.836102	0.189754	0.708471
H92	H	1.336102	0.689754	1.208471
H93	H	0.879902	0.239654	0.416417
H94	H	1.379902	0.739654	0.916417
H95	H	1.084715	0.012167	0.583667
H96	H	1.584715	0.512167	1.083667
O97	O	0.377416	0.289791	0.000074
O98	O	0.877416	0.789791	0.500074
C99	C	0.293674	0.270105	0.000055
C100	C	0.793674	0.770105	0.500055
H101	H	0.290242	0.197670	0.027791
H102	H	0.790242	0.697670	0.527791
H103	H	0.254462	0.323123	0.042569
H104	H	0.754462	0.823123	0.542569
H105	H	0.268600	0.273605	-0.070209
H106	H	0.768600	0.773605	0.429791
O107	O	0.548357	0.293291	0.000074
O108	O	1.048357	0.793291	0.500074
C109	C	0.482845	0.366335	0.000053
C110	C	0.982845	0.866335	0.500053
H111	H	0.423898	0.340495	0.027780
H112	H	0.923898	0.840495	0.527780
H113	H	0.501052	0.425582	0.042573
H114	H	1.001052	0.925582	0.542573
H115	H	0.470611	0.391995	-0.070210
H116	H	0.970611	0.891995	0.429790
O117	O	0.415999	-0.041307	0.000015
O118	O	0.915999	0.458693	0.500015
C119	C	0.328059	-0.024968	0.000033
C120	C	0.828059	0.475032	0.500033
H121	H	0.307800	0.047008	-0.027696
H122	H	0.807800	0.547008	0.472304
H123	H	0.301355	-0.079266	-0.042487
H124	H	0.801355	0.420734	0.457513
H125	H	0.303911	-0.029435	0.070296
H126	H	0.803911	0.470565	0.570296
O127	O	1.093608	0.002228	0.409315
O128	O	1.593608	0.502228	0.909315
C129	C	1.143437	-0.053090	0.469771
C130	C	1.643437	0.446910	0.969771
H131	H	1.109353	-0.054138	0.535489
H132	H	1.609353	0.445862	1.035489
H133	H	1.156009	-0.126739	0.443144
H134	H	1.656009	0.373261	0.943144
H135	H	1.205242	-0.023128	0.479568
H136	H	1.705242	0.476872	0.979568
