data_functionalizedCrystal
_audit_creation_method	'MofGen! by Chris Wilmer'
_symmetry_space_group_name_H-M	'P1'
_symmetry_Int_Tables_number	1
_symmetry_cell_setting	triclinic
loop_
_symmetry_equiv_pos_as_xyz
  x,y,z
_cell_length_a	14.971486
_cell_length_b	14.048226
_cell_length_c	14.971486
_cell_angle_alpha	89.996181
_cell_angle_beta	96.385871
_cell_angle_gamma	89.999893
loop_
_atom_site_label
_atom_site_type_symbol
_atom_site_fract_x
_atom_site_fract_y
_atom_site_fract_z
O1	O	1.186945	0.079052	-0.116561
O2	O	0.926545	0.079078	-0.130520
O3	O	1.063725	0.079057	0.006660
O4	O	1.049766	0.079072	-0.253741
O5	O	1.063712	-0.079264	0.006661
O6	O	0.926532	-0.079244	-0.130519
O7	O	1.186932	-0.079270	-0.116560
Zn8	Zn	1.056730	-0.104394	-0.123539
Zn9	Zn	1.056747	0.104202	-0.123541
O10	O	1.049753	-0.079249	-0.253739
C11	C	0.893214	-0.000080	-0.129895
C12	C	0.793917	-0.000070	-0.128024
C13	C	0.736692	-0.000067	-0.208614
C14	C	0.643392	-0.000081	-0.206850
C15	C	0.607320	-0.000092	-0.124497
C16	C	0.664552	-0.000098	-0.043902
C17	C	0.757850	-0.000090	-0.045666
C18	C	0.470090	-0.000111	-0.040231
C19	C	0.376786	-0.000117	-0.038466
C20	C	0.355632	-0.000102	-0.201415
C21	C	0.448930	-0.000094	-0.203179
C22	C	0.506156	-0.000099	-0.122584
N23	N	1.056725	-0.246754	-0.123538
C24	C	1.111027	-0.296571	-0.177879
C25	C	1.111039	-0.396228	-0.177875
C26	C	1.056742	-0.446068	-0.123534
C27	C	1.002438	-0.396245	-0.069187
C28	C	1.002432	-0.296589	-0.069186
C29	C	1.002453	-0.603959	-0.069193
C30	C	1.002457	-0.703621	-0.069194
C31	C	1.111060	-0.703598	-0.177881
C32	C	1.111054	-0.603943	-0.177881
C33	C	1.056748	-0.554126	-0.123535
C34	C	1.220263	-0.000110	-0.117185
C35	C	1.319561	-0.000114	-0.119056
C36	C	1.063094	-0.000103	0.039985
C37	C	1.061223	-0.000102	0.139282
N38	N	1.056760	0.246562	-0.123535
C39	C	1.050384	-0.000087	-0.287065
C40	C	1.052254	-0.000082	-0.386362
C41	C	1.141812	-0.000111	0.196507
C42	C	1.140049	-0.000101	0.289807
C43	C	1.057696	-0.000089	0.325879
C44	C	0.977101	-0.000078	0.268646
C45	C	0.978865	-0.000081	0.175349
C46	C	0.973430	-0.000074	0.463109
C47	C	0.971665	-0.000073	0.556413
C48	C	1.134614	-0.000094	0.577567
C49	C	1.136378	-0.000097	0.484269
C50	C	1.055782	-0.000088	0.427043
H51	H	0.596802	-0.000077	-0.272474
C52	C	1.170768	-0.451022	-0.237654
H53	H	1.203095	-0.407067	-0.270025
H54	H	1.211900	-0.489897	-0.201071
H55	H	1.134152	-0.489897	-0.278760
H56	H	0.516682	-0.000116	0.025399
C57	C	1.170795	-0.758392	-0.237662
H58	H	1.163031	-0.824881	-0.229874
H59	H	1.154231	-0.742055	-0.298833
H60	H	1.231978	-0.742056	-0.221145
H61	H	0.309033	-0.000103	-0.267039
C62	C	1.223270	-0.000103	0.640507
H63	H	1.272569	-0.000123	0.605662
H64	H	1.225981	0.055108	0.677339
H65	H	1.225959	-0.055320	0.677346
C66	C	0.942711	-0.758444	-0.009442
H67	H	0.910369	-0.714504	0.022926
H68	H	0.901593	-0.797305	-0.046050
H69	H	0.979312	-0.797335	0.031667
H70	H	0.958232	-0.563401	-0.024937
H71	H	0.910047	-0.000062	0.298024
C72	C	1.226964	-0.000108	0.444591
H73	H	1.274712	-0.000104	0.492033
H74	H	1.231034	-0.055318	0.408636
H75	H	1.231038	0.055109	0.408633
H76	H	0.913240	-0.000074	0.128756
C77	C	0.337107	-0.000134	0.052120
H78	H	0.384550	-0.000149	0.099867
H79	H	0.301149	0.055073	0.056197
H80	H	0.301154	-0.055354	0.056186
C81	C	0.942697	-0.451061	-0.009425
H82	H	0.910358	-0.407116	0.022940
H83	H	0.901577	-0.489928	-0.046023
H84	H	0.979303	-0.489945	0.031687
H85	H	0.766054	-0.000057	-0.275675
C86	C	0.488608	-0.000085	-0.293765
H87	H	0.441166	-0.000093	-0.341513
H88	H	0.524563	0.055127	-0.297840
H89	H	0.524565	-0.055301	-0.297834
H90	H	0.635175	-0.000120	0.023152
C91	C	0.881079	-0.000038	0.596092
H92	H	0.833332	-0.000015	0.548649
H93	H	0.876986	-0.055242	0.632055
H94	H	0.877028	0.055185	0.632040
H95	H	0.804443	-0.000093	0.019958
C96	C	0.942695	-0.241791	-0.009415
H97	H	0.910352	-0.285744	0.022943
H98	H	0.979303	-0.202915	0.031690
H99	H	0.901563	-0.202916	-0.046007
C100	C	1.170759	-0.241756	-0.237650
H101	H	1.203108	-0.285702	-0.270005
H102	H	1.134153	-0.202876	-0.278757
H103	H	1.211885	-0.202885	-0.201053
C104	C	1.232402	-0.000124	0.156836
H105	H	1.280145	-0.000119	0.204283
H106	H	1.236476	-0.055334	0.120884
H107	H	1.236481	0.055093	0.120878
C108	C	0.884776	-0.000065	0.400162
H109	H	0.835476	-0.000067	0.435006
H110	H	0.882079	0.055143	0.363320
H111	H	0.882075	-0.055284	0.363334
H112	H	1.205673	-0.000110	0.336396
H113	H	1.155262	-0.563366	-0.222134
