data_functionalizedCrystal
_audit_creation_method	'MofGen! by Chris Wilmer'
_symmetry_space_group_name_H-M	'P1'
_symmetry_Int_Tables_number	1
_symmetry_cell_setting	triclinic
loop_
_symmetry_equiv_pos_as_xyz
  x,y,z
_cell_length_a	15.944545
_cell_length_b	15.021413
_cell_length_c	14.044190
_cell_angle_alpha	90.004310
_cell_angle_beta	88.343975
_cell_angle_gamma	89.990408
loop_
_atom_site_label
_atom_site_type_symbol
_atom_site_fract_x
_atom_site_fract_y
_atom_site_fract_z
O1	O	1.123668	0.073984	0.122216
O2	O	0.880247	0.074000	0.137294
O3	O	0.998301	0.073975	-0.008230
O4	O	1.005615	0.074009	0.267740
O5	O	0.998317	-0.074089	-0.008221
O6	O	0.880263	-0.074064	0.137303
O7	O	1.123684	-0.074080	0.122225
Zn8	Zn	1.001976	-0.097581	0.129765
Zn9	Zn	1.001955	0.097500	0.129753
O10	O	1.005630	-0.074055	0.267749
C11	C	0.848914	-0.000030	0.136674
C12	C	0.755528	-0.000025	0.134800
C13	C	0.477719	-0.000047	0.038999
C14	C	0.531768	-0.073046	0.085191
C15	C	0.419383	-0.000041	0.128119
C16	C	0.531735	0.072933	0.085206
C17	C	0.584542	-0.000032	0.131397
C18	C	0.472202	-0.073101	0.174287
C19	C	0.472165	0.072944	0.174289
C20	C	0.526185	-0.000074	0.220546
C21	C	0.324240	-0.000048	0.126228
C22	C	0.679684	-0.000032	0.133294
N23	N	1.001996	-0.230718	0.129773
C24	C	1.056595	-0.470389	0.062467
C25	C	0.979316	-0.529716	0.044055
C26	C	1.001976	-0.412325	0.129761
C27	C	1.079232	-0.529740	0.148117
C28	C	1.001963	-0.587749	0.129747
C29	C	0.924655	-0.470345	0.111307
C30	C	1.024624	-0.470364	0.215406
C31	C	0.947293	-0.529664	0.197030
C32	C	1.001984	-0.311268	0.129766
C33	C	1.001945	-0.688804	0.129742
C34	C	1.155017	-0.000048	0.122845
C35	C	1.248404	-0.000047	0.124718
C36	C	0.995109	-0.000060	-0.043540
C37	C	0.985566	-0.000067	-0.148767
N38	N	1.001941	0.230638	0.129738
C39	C	1.035804	-0.000035	-0.399051
C40	C	0.968131	-0.000037	-0.341425
C41	C	0.977834	-0.000054	-0.234220
C42	C	1.026102	-0.000019	-0.506266
C43	C	1.008822	-0.000018	0.303059
C44	C	1.018366	-0.000005	0.408285
H45	H	0.547430	-0.000107	0.297356
H46	H	0.902908	-0.000028	-0.372603
H47	H	0.557826	0.134645	0.047550
H48	H	0.859294	-0.444366	0.095693
N49	N	0.449366	-0.000143	-0.062662
H50	H	0.471096	-0.055346	-0.096213
H51	H	0.386040	0.000456	-0.063127
H52	H	1.102729	-0.444362	0.005527
H53	H	1.101022	-0.000049	-0.367875
N54	N	0.886038	-0.563929	0.272411
H55	H	0.827724	-0.542205	0.258415
H56	H	0.886792	-0.631159	0.272331
N57	N	0.566349	-0.154822	0.035357
H58	H	0.548821	-0.154782	-0.033178
H59	H	0.629603	-0.154483	0.037593
H60	H	0.960149	-0.555787	-0.028378
H61	H	1.043813	-0.444274	0.287816
H62	H	0.446216	-0.134883	0.211900
H63	H	0.446028	0.134671	0.211889
N64	N	1.165777	-0.564306	0.168696
H65	H	1.206988	-0.542744	0.117824
H66	H	1.183242	-0.541783	0.232917
