data_functionalizedCrystal
_audit_creation_method	'MofGen! by Chris Wilmer'
_symmetry_space_group_name_H-M	'P1'
_symmetry_Int_Tables_number	1
_symmetry_cell_setting	triclinic
loop_
_symmetry_equiv_pos_as_xyz
  x,y,z
_cell_length_a	10.489716
_cell_length_b	10.489746
_cell_length_c	9.565339
_cell_angle_alpha	89.999926
_cell_angle_beta	89.996780
_cell_angle_gamma	84.535218
loop_
_atom_site_label
_atom_site_type_symbol
_atom_site_fract_x
_atom_site_fract_y
_atom_site_fract_z
O1	O	1.694074	0.179809	-0.116250
O2	O	1.322875	0.196735	-0.116255
O3	O	1.516918	0.002674	-0.116242
O4	O	1.500032	0.373870	-0.116263
O5	O	1.516902	0.002686	0.116278
O6	O	1.322860	0.196747	0.116265
O7	O	1.694059	0.179821	0.116270
Zn8	Zn	1.508457	0.188286	0.153185
Zn9	Zn	1.508477	0.188270	-0.153170
O10	O	1.500016	0.373882	0.116257
C11	C	1.275335	0.195469	0.000004
C12	C	1.133704	0.191664	0.000002
C13	C	1.036032	0.310669	-0.000008
C14	C	0.958678	0.247790	0.114647
C15	C	0.958699	0.247750	-0.114600
C16	C	1.058215	0.128836	0.114751
C17	C	1.058242	0.128813	-0.114598
C18	C	0.980936	0.065848	0.000084
C19	C	1.515633	-0.044852	0.000018
C20	C	1.511813	-0.186480	0.000017
C21	C	1.386089	-0.339327	-0.000002
C22	C	1.448953	-0.261946	-0.114643
C23	C	1.448968	-0.261976	0.114603
C24	C	1.567936	-0.361448	-0.114750
C25	C	1.567933	-0.361483	0.114600
C26	C	1.630885	-0.284151	-0.000069
C27	C	1.741599	0.181087	0.000008
C28	C	1.883230	0.184892	0.000000
C29	C	1.501301	0.421408	-0.000006
C30	C	1.505121	0.563037	-0.000014
N31	N	1.508452	0.188296	0.362264
N32	N	1.508492	0.188250	-0.362250
C33	C	1.418687	0.278013	0.453461
C34	C	1.534185	0.303813	0.546640
C35	C	1.393004	0.162506	0.546641
C36	C	1.624010	0.214154	0.453392
C37	C	1.482752	0.072797	0.453384
C38	C	1.598333	0.098549	0.546521
H39	H	0.956504	-0.037744	0.000156
H40	H	1.674346	0.022655	0.587124
N41	N	1.115568	0.062365	0.243294
H42	H	1.045242	0.029625	0.301478
H43	H	1.178335	-0.011865	0.214120
N44	N	1.382415	-0.204358	-0.243035
H45	H	1.290011	-0.224013	-0.242957
H46	H	1.386306	-0.108528	-0.242468
N47	N	1.318213	0.378591	0.399340
H48	H	1.337814	0.465789	0.433270
H49	H	1.318392	0.377245	0.293765
H50	H	1.555950	0.401468	0.587602
H51	H	1.101743	0.078610	-0.211527
N52	N	1.382381	-0.204411	0.242987
H53	H	1.289980	-0.224075	0.242876
H54	H	1.426474	-0.242057	0.329506
H55	H	0.915223	0.298006	-0.211517
H56	H	1.734466	-0.259686	-0.000130
N57	N	1.634419	-0.419120	0.242987
H58	H	1.709190	-0.481209	0.213779
H59	H	1.666377	-0.348765	0.301741
N60	N	1.634465	-0.418776	-0.243280
H61	H	1.631449	-0.514724	-0.242520
H62	H	1.589838	-0.381561	-0.329694
H63	H	1.282586	-0.364037	-0.000118
H64	H	1.721681	0.236065	0.412604
N65	N	1.453885	-0.056513	0.399057
H66	H	1.520785	-0.124510	0.434384
H67	H	1.366567	-0.075786	0.432925
H68	H	1.295354	0.140713	0.587605
H69	H	0.915190	0.298032	0.211571
H70	H	1.060704	0.414184	0.000093
