data_functionalizedCrystal
_audit_creation_method	'MofGen! by Chris Wilmer'
_symmetry_space_group_name_H-M	'P1'
_symmetry_Int_Tables_number	1
_symmetry_cell_setting	triclinic
loop_
_symmetry_equiv_pos_as_xyz
  x,y,z
_cell_length_a	19.077105
_cell_length_b	19.077068
_cell_length_c	21.395355
_cell_angle_alpha	92.279051
_cell_angle_beta	87.678776
_cell_angle_gamma	90.115316
loop_
_atom_site_label
_atom_site_type_symbol
_atom_site_fract_x
_atom_site_fract_y
_atom_site_fract_z
Zn1	Zn	1.063028	-0.323070	-0.403776
Zn2	Zn	1.313028	-0.073070	-0.153776
Zn3	Zn	1.563028	0.176930	0.096224
Zn4	Zn	1.813028	0.426930	0.346224
Zn5	Zn	1.058205	-0.440557	-0.303024
Zn6	Zn	1.308205	-0.190557	-0.053024
Zn7	Zn	1.558205	0.059443	0.196976
Zn8	Zn	1.808205	0.309443	0.446976
Zn9	Zn	0.945510	-0.318340	-0.294646
Zn10	Zn	1.195510	-0.068340	-0.044646
Zn11	Zn	1.445510	0.181660	0.205354
Zn12	Zn	1.695510	0.431660	0.455354
Zn13	Zn	0.940763	-0.435812	-0.403400
Zn14	Zn	1.190763	-0.185812	-0.153400
Zn15	Zn	1.440763	0.064188	0.096600
Zn16	Zn	1.690763	0.314188	0.346600
O17	O	1.001876	-0.379445	-0.351212
O18	O	1.251876	-0.129445	-0.101212
O19	O	1.501876	0.120555	0.148788
O20	O	1.751876	0.370555	0.398788
O21	O	1.160720	-0.342620	-0.394075
O22	O	1.410720	-0.092620	-0.144075
O23	O	1.660720	0.157380	0.105925
O24	O	1.910720	0.407380	0.355925
O25	O	1.043224	-0.424351	-0.214234
O26	O	1.293224	-0.174351	0.035766
O27	O	1.543224	0.075649	0.285766
O28	O	1.793224	0.325649	0.535766
O29	O	0.965104	-0.220637	-0.305774
O30	O	1.215104	0.029363	-0.055774
O31	O	1.465104	0.279363	0.194226
O32	O	1.715104	0.529363	0.444226
O33	O	1.157177	-0.428937	-0.320053
O34	O	1.407177	-0.178937	-0.070053
O35	O	1.657177	0.071063	0.179947
O36	O	1.907177	0.321063	0.429947
O37	O	1.051444	-0.224112	-0.385951
O38	O	1.301444	0.025888	-0.135951
O39	O	1.551444	0.275888	0.114049
O40	O	1.801444	0.525888	0.364049
O41	O	0.960427	-0.334559	-0.208079
O42	O	1.210427	-0.084559	0.041921
O43	O	1.460427	0.165441	0.291921
O44	O	1.710427	0.415441	0.541921
O45	O	0.846548	-0.329958	-0.305409
O46	O	1.096548	-0.079958	-0.055409
O47	O	1.346548	0.170042	0.194591
O48	O	1.596548	0.420042	0.444591
O49	O	0.957013	-0.420850	-0.491129
O50	O	1.207013	-0.170850	-0.241129
O51	O	1.457013	0.079150	0.008871
O52	O	1.707013	0.329150	0.258871
O53	O	0.843061	-0.416264	-0.385310
O54	O	1.093061	-0.166264	-0.135310
O55	O	1.343061	0.083736	0.114690
O56	O	1.593061	0.333736	0.364690
O57	O	1.046841	-0.338019	-0.491405
O58	O	1.296841	-0.088019	-0.241405
O59	O	1.546841	0.161981	0.008595
O60	O	1.796841	0.411981	0.258595
O61	O	1.038621	-0.538258	-0.319688
O62	O	1.288621	-0.288258	-0.069688
O63	O	1.538621	-0.038258	0.180312
O64	O	1.788621	0.211742	0.430312
O65	O	0.952337	-0.534772	-0.393434
O66	O	1.202337	-0.284772	-0.143434
O67	O	1.452337	-0.034772	0.106566
O68	O	1.702337	0.215228	0.356566
C69	C	0.819308	-0.372083	-0.344410
C70	C	1.069308	-0.122083	-0.094410
C71	C	1.319308	0.127917	0.155590
C72	C	1.569308	0.377917	0.405590
C73	C	0.741204	-0.368951	-0.341515
C74	C	0.991204	-0.118951	-0.091515
C75	C	1.241204	0.131049	0.158485
C76	C	1.491204	0.381049	0.408485
C77	C	0.702710	-0.412482	-0.381695
C78	C	0.952710	-0.162482	-0.131695
C79	C	1.202710	0.087518	0.118305
C80	C	1.452710	0.337518	0.368305
C81	C	0.629323	-0.409529	-0.378978
C82	C	0.879323	-0.159529	-0.128978
C83	C	1.129323	0.090471	0.121022
C84	C	1.379323	0.340471	0.371022
C85	C	0.594432	-0.363049	-0.336078
C86	C	0.844432	-0.113049	-0.086078
C87	C	1.094432	0.136951	0.163922
C88	C	1.344432	0.386951	0.413922
C89	C	0.632931	-0.319513	-0.295897
C90	C	0.882931	-0.069513	-0.045897
C91	C	1.132931	0.180487	0.204103
C92	C	1.382931	0.430487	0.454103
C93	C	0.706316	-0.322463	-0.298617
C94	C	0.956316	-0.072463	-0.048617
C95	C	1.206316	0.177537	0.201383
C96	C	1.456316	0.427537	0.451383
C97	C	0.375145	-0.349399	-0.323490
C98	C	0.625145	-0.099399	-0.073490
C99	C	0.875145	0.150601	0.176510
C100	C	1.125145	0.400601	0.426510
C101	C	0.301755	-0.346454	-0.320771
C102	C	0.551755	-0.096454	-0.070771
C103	C	0.801755	0.153546	0.179229
C104	C	1.051755	0.403546	0.429229
C105	C	0.298153	-0.436470	-0.403854
C106	C	0.548153	-0.186470	-0.153854
C107	C	0.798153	0.063530	0.096146
C108	C	1.048153	0.313530	0.346146
C109	C	0.371540	-0.439418	-0.406568
C110	C	0.621540	-0.189418	-0.156568
C111	C	0.871540	0.060582	0.093432
C112	C	1.121540	0.310582	0.343432
C113	C	0.410032	-0.395880	-0.366389
C114	C	0.660032	-0.145880	-0.116389
C115	C	0.910032	0.104120	0.133611
C116	C	1.160032	0.354120	0.383611
N117	N	0.519418	-0.360032	-0.333298
N118	N	0.769418	-0.110032	-0.083298
N119	N	1.019418	0.139968	0.166702
N120	N	1.269418	0.389968	0.416702
N121	N	0.485044	-0.398894	-0.369172
N122	N	0.735044	-0.148894	-0.119172
N123	N	0.985044	0.101106	0.130828
N124	N	1.235044	0.351106	0.380828
C125	C	0.994460	-0.562012	-0.357444
C126	C	1.244460	-0.312012	-0.107444
C127	C	1.494460	-0.062012	0.142556
C128	C	1.744460	0.187988	0.392556
C129	C	0.991351	-0.640117	-0.360133
C130	C	1.241351	-0.390117	-0.110133
C131	C	1.491351	-0.140117	0.139867
C132	C	1.741351	0.109883	0.389867
C133	C	1.034849	-0.678604	-0.323036
C134	C	1.284849	-0.428604	-0.073036
C135	C	1.534849	-0.178604	0.176964
C136	C	1.784849	0.071396	0.426964
C137	C	1.031930	-0.751993	-0.325569
C138	C	1.281930	-0.501993	-0.075569
C139	C	1.531930	-0.251993	0.174431
C140	C	1.781930	-0.001993	0.424431
C141	C	0.985508	-0.786893	-0.365197
C142	C	1.235508	-0.536893	-0.115197
C143	C	1.485508	-0.286893	0.134803
C144	C	1.735508	-0.036893	0.384803
C145	C	0.942008	-0.748400	-0.402298
C146	C	1.192008	-0.498400	-0.152298
C147	C	1.442008	-0.248400	0.097702
C148	C	1.692008	0.001600	0.347702
C149	C	0.944931	-0.675013	-0.399768
C150	C	1.194931	-0.425013	-0.149768
C151	C	1.444931	-0.175013	0.100232
C152	C	1.694931	0.074987	0.350232
C153	C	0.971946	-1.006184	-0.376881
C154	C	1.221946	-0.756184	-0.126881
C155	C	1.471946	-0.506184	0.123119
C156	C	1.721946	-0.256184	0.373119
C157	C	0.969024	-1.079576	-0.379408
C158	C	1.219024	-0.829576	-0.129408
C159	C	1.469024	-0.579576	0.120592
C160	C	1.719024	-0.329576	0.370592
C161	C	1.058947	-1.083164	-0.302679
C162	C	1.308947	-0.833164	-0.052679
C163	C	1.558947	-0.583164	0.197321
C164	C	1.808947	-0.333164	0.447321
C165	C	1.061864	-1.009775	-0.300149
C166	C	1.311864	-0.759775	-0.050149
C167	C	1.561864	-0.509775	0.199851
C168	C	1.811864	-0.259775	0.449851
C169	C	1.018366	-0.971289	-0.337253
C170	C	1.268366	-0.721289	-0.087253
C171	C	1.518366	-0.471289	0.162747
C172	C	1.768366	-0.221289	0.412747
N173	N	0.982521	-0.861907	-0.367786
N174	N	1.232521	-0.611907	-0.117786
N175	N	1.482521	-0.361907	0.132214
N176	N	1.732521	-0.111907	0.382214
N177	N	1.021357	-0.896276	-0.334667
N178	N	1.271357	-0.646276	-0.084667
N179	N	1.521357	-0.396276	0.165333
N180	N	1.771357	-0.146276	0.415333
C181	C	1.185157	-0.386836	-0.358041
C182	C	1.435157	-0.136836	-0.108041
C183	C	1.685157	0.113164	0.141959
C184	C	1.935157	0.363164	0.391959
C185	C	1.263261	-0.389985	-0.360951
C186	C	1.513261	-0.139985	-0.110951
C187	C	1.763261	0.110015	0.139049
C188	C	2.013261	0.360015	0.389049
C189	C	1.001935	-0.379433	-0.514637
C190	C	1.251935	-0.129433	-0.264637
C191	C	1.501935	0.120567	-0.014637
C192	C	1.751935	0.370567	0.235363
C193	C	1.001960	-0.379428	-0.584279
C194	C	1.251960	-0.129428	-0.334279
C195	C	1.501960	0.120572	-0.084279
C196	C	1.751960	0.370572	0.165721
C197	C	1.009341	-0.196166	-0.344970
C198	C	1.259341	0.053834	-0.094970
C199	C	1.509341	0.303834	0.155030
C200	C	1.759341	0.553834	0.405030
C201	C	1.012522	-0.118063	-0.342310
C202	C	1.262522	0.131937	-0.092310
C203	C	1.512522	0.381937	0.157690
C204	C	1.762522	0.631937	0.407690
C205	C	1.048732	-0.336296	-0.617137
C206	C	1.298732	-0.086296	-0.367137
C207	C	1.548732	0.163704	-0.117137
C208	C	1.798732	0.413704	0.132863
C209	C	1.048732	-0.336266	-0.682571
C210	C	1.298732	-0.086266	-0.432571
C211	C	1.548732	0.163734	-0.182571
C212	C	1.798732	0.413734	0.067429
C213	C	1.001968	-0.379380	-0.715146
C214	C	1.251968	-0.129380	-0.465146
C215	C	1.501968	0.120620	-0.215146
C216	C	1.751968	0.370620	0.034854
C217	C	0.955187	-0.422515	-0.682280
C218	C	1.205187	-0.172515	-0.432280
C219	C	1.455187	0.077485	-0.182280
C220	C	1.705187	0.327485	0.067720
C221	C	0.955184	-0.422539	-0.616846
C222	C	1.205184	-0.172539	-0.366846
C223	C	1.455184	0.077461	-0.116846
C224	C	1.705184	0.327461	0.133154
C225	C	0.993849	-0.442427	-0.820774
C226	C	1.243849	-0.192427	-0.570774
C227	C	1.493849	0.057573	-0.320774
C228	C	1.743849	0.307573	-0.070774
C229	C	0.993858	-0.442404	-0.886206
C230	C	1.243858	-0.192404	-0.636206
C231	C	1.493858	0.057596	-0.386206
C232	C	1.743858	0.307596	-0.136206
C233	C	1.001975	-0.379306	-0.916964
C234	C	1.251975	-0.129306	-0.666964
C235	C	1.501975	0.120694	-0.416964
C236	C	1.751975	0.370694	-0.166964
C237	C	1.010099	-0.316229	-0.882282
C238	C	1.260099	-0.066229	-0.632282
C239	C	1.510099	0.183771	-0.382282
C240	C	1.760099	0.433771	-0.132282
C241	C	1.010095	-0.316253	-0.816849
C242	C	1.260095	-0.066253	-0.566849
C243	C	1.510095	0.183747	-0.316849
C244	C	1.760095	0.433747	-0.066849
C245	C	1.001966	-0.379359	-0.786097
C246	C	1.251966	-0.129359	-0.536097
C247	C	1.501966	0.120641	-0.286097
C248	C	1.751966	0.370641	-0.036097
C249	C	1.048749	-0.336138	-1.020774
C250	C	1.298749	-0.086138	-0.770774
C251	C	1.548749	0.163862	-0.520774
C252	C	1.798749	0.413862	-0.270774
C253	C	1.048745	-0.336106	-1.086209
C254	C	1.298745	-0.086106	-0.836209
C255	C	1.548745	0.163894	-0.586209
C256	C	1.798745	0.413894	-0.336209
C257	C	0.955204	-0.422362	-1.085917
C258	C	1.205204	-0.172362	-0.835917
C259	C	1.455204	0.077638	-0.585917
C260	C	1.705204	0.327638	-0.335917
C261	C	0.955205	-0.422387	-1.020482
C262	C	1.205205	-0.172387	-0.770482
C263	C	1.455205	0.077613	-0.520482
C264	C	1.705205	0.327613	-0.270482
C265	C	1.001981	-0.379276	-0.987915
C266	C	1.251981	-0.129276	-0.737915
C267	C	1.501981	0.120724	-0.487915
C268	C	1.751981	0.370724	-0.237915
C269	C	1.001860	-0.379408	-0.188422
C270	C	1.251860	-0.129408	0.061578
C271	C	1.501860	0.120592	0.311578
C272	C	1.751860	0.370592	0.561578
C273	C	1.001979	-0.379220	-0.118779
C274	C	1.251979	-0.129220	0.131221
C275	C	1.501979	0.120780	0.381221
C276	C	1.751979	0.370780	0.631221
H277	H	0.399943	-0.477269	-0.441500
H278	H	0.649943	-0.227269	-0.191500
H279	H	0.899943	0.022731	0.058500
H280	H	1.149943	0.272731	0.308500
H281	H	0.936527	-0.974854	-0.407092
H282	H	1.186527	-0.724854	-0.157092
H283	H	1.436527	-0.474854	0.092908
H284	H	1.686527	-0.224854	0.342908
F285	F	1.018737	-0.249123	-0.779939
F286	F	1.268737	0.000877	-0.529939
F287	F	1.518737	0.250877	-0.279939
F288	F	1.768737	0.500877	-0.029939
H289	H	1.016710	-0.264848	-0.907323
H290	H	1.266710	-0.014848	-0.657323
H291	H	1.516710	0.235152	-0.407323
H292	H	1.766710	0.485152	-0.157323
F293	F	1.078229	-0.792951	-0.286087
F294	F	1.328229	-0.542951	-0.036087
F295	F	1.578229	-0.292951	0.213913
F296	F	1.828229	-0.042951	0.463913
F297	F	0.739838	-0.461956	-0.427353
F298	F	0.989838	-0.211956	-0.177353
F299	F	1.239838	0.038044	0.072647
F300	F	1.489838	0.288044	0.322647
F301	F	0.898637	-0.634053	-0.439254
F302	F	1.148637	-0.384053	-0.189254
F303	F	1.398637	-0.134053	0.060746
F304	F	1.648637	0.115947	0.310746
H305	H	0.273348	-0.308596	-0.285840
H306	H	0.523348	-0.058596	-0.035840
H307	H	0.773348	0.191404	0.214160
H308	H	1.023348	0.441404	0.464160
H309	H	0.987051	-0.493788	-0.795729
H310	H	1.237051	-0.243788	-0.545729
H311	H	1.487051	0.006212	-0.295729
H312	H	1.737051	0.256212	-0.045729
F313	F	0.919606	-1.116717	-0.421580
F314	F	1.169606	-0.866717	-0.171580
F315	F	1.419606	-0.616717	0.078420
F316	F	1.669606	-0.366717	0.328420
H317	H	0.266804	-0.471915	-0.436566
H318	H	0.516804	-0.221915	-0.186566
H319	H	0.766804	0.028085	0.063434
H320	H	1.016804	0.278085	0.313434
H321	H	1.072648	-0.650194	-0.290764
H322	H	1.322648	-0.400194	-0.040764
H323	H	1.572648	-0.150194	0.209236
H324	H	1.822648	0.099806	0.459236
F325	F	0.905416	-0.468398	-0.716948
F326	F	1.155416	-0.218398	-0.466948
F327	F	1.405416	0.031602	-0.216948
F328	F	1.655416	0.281602	0.033052
F329	F	1.105240	-1.124128	-0.263196
F330	F	1.355240	-0.874128	-0.013196
F331	F	1.605240	-0.624128	0.236804
F332	F	1.855240	-0.374128	0.486804
F333	F	1.111280	-0.972638	-0.257979
F334	F	1.361280	-0.722638	-0.007979
F335	F	1.611280	-0.472638	0.242021
F336	F	1.861280	-0.222638	0.492021
F337	F	0.985218	-0.509536	-0.923112
F338	F	1.235218	-0.259536	-0.673112
F339	F	1.485218	-0.009536	-0.423112
F340	F	1.735218	0.240464	-0.173112
H341	H	0.904213	-0.776821	-0.434567
H342	H	1.154213	-0.526821	-0.184567
H343	H	1.404213	-0.276821	0.065433
H344	H	1.654213	-0.026821	0.315433
H345	H	0.406477	-0.313952	-0.290769
H346	H	0.656477	-0.063952	-0.040769
H347	H	0.906477	0.186048	0.209231
H348	H	1.156477	0.436048	0.459231
H349	H	0.917094	-0.457661	-0.590093
H350	H	1.167094	-0.207661	-0.340093
H351	H	1.417094	0.042339	-0.090093
H352	H	1.667094	0.292339	0.159907
H353	H	0.604516	-0.281665	-0.260969
H354	H	0.854516	-0.031665	-0.010969
H355	H	1.104516	0.218335	0.239031
H356	H	1.354516	0.468335	0.489031
H357	H	0.917120	-0.457459	-1.112438
H358	H	1.167120	-0.207459	-0.862438
H359	H	1.417120	0.042541	-0.612438
H360	H	1.667120	0.292541	-0.362438
F361	F	0.747284	-0.276130	-0.255854
F362	F	0.997284	-0.026130	-0.005854
F363	F	1.247284	0.223870	0.244146
F364	F	1.497284	0.473870	0.494146
H365	H	1.086820	-0.301191	-0.590624
H366	H	1.336820	-0.051191	-0.340624
H367	H	1.586820	0.198809	-0.090624
H368	H	1.836820	0.448809	0.159376
F369	F	1.098503	-0.290345	-0.717547
F370	F	1.348503	-0.040345	-0.467547
F371	F	1.598503	0.209655	-0.217547
F372	F	1.848503	0.459655	0.032453
F373	F	1.098529	-0.290253	-0.986111
F374	F	1.348529	-0.040253	-0.736111
F375	F	1.598529	0.209747	-0.486111
F376	F	1.848529	0.459747	-0.236111
H377	H	1.086831	-0.300979	-1.112961
H378	H	1.336831	-0.050979	-0.862961
H379	H	1.586831	0.199021	-0.612961
H380	H	1.836831	0.449021	-0.362961
H381	H	0.597985	-0.444977	-0.411696
H382	H	0.847985	-0.194977	-0.161696
H383	H	1.097985	0.055023	0.088304
H384	H	1.347985	0.305023	0.338304
F385	F	0.905426	-0.468297	-0.985511
F386	F	1.155426	-0.218297	-0.735511
F387	F	1.405426	0.031703	-0.485511
F388	F	1.655426	0.281703	-0.235511
