data_functionalizedCrystal
_audit_creation_method	'MofGen! by Chris Wilmer'
_symmetry_space_group_name_H-M	'P1'
_symmetry_Int_Tables_number	1
_symmetry_cell_setting	triclinic
loop_
_symmetry_equiv_pos_as_xyz
  x,y,z
_cell_length_a	12.759401
_cell_length_b	16.120444
_cell_length_c	12.759393
_cell_angle_alpha	92.863572
_cell_angle_beta	89.981425
_cell_angle_gamma	92.926867
loop_
_atom_site_label
_atom_site_type_symbol
_atom_site_fract_x
_atom_site_fract_y
_atom_site_fract_z
Zn1	Zn	1.584964	-0.331848	-0.615154
Zn2	Zn	1.575912	-0.471287	-0.448369
Zn3	Zn	1.409263	-0.331893	-0.439496
Zn4	Zn	1.400313	-0.471223	-0.624006
O5	O	1.492613	-0.401563	-0.531756
O6	O	1.730784	-0.350353	-0.593039
O7	O	1.553764	-0.452841	-0.300174
O8	O	1.440105	-0.215221	-0.455379
O9	O	1.724134	-0.452798	-0.470503
O10	O	1.569191	-0.215188	-0.584434
O11	O	1.431327	-0.350429	-0.293655
O12	O	1.261056	-0.350367	-0.463963
O13	O	1.424849	-0.452689	-0.769850
O14	O	1.254480	-0.452732	-0.599522
O15	O	1.560512	-0.350291	-0.763347
O16	O	1.545085	-0.587944	-0.479086
O17	O	1.416072	-0.587897	-0.608126
C18	C	1.219647	-0.401548	-0.531741
C19	C	1.102869	-0.401562	-0.531760
C20	C	1.051464	-0.348315	-0.595674
C21	C	0.941740	-0.348324	-0.595682
C22	C	0.934834	-0.454833	-0.467858
C23	C	1.044557	-0.454820	-0.467846
C24	C	0.798124	-0.250055	-0.627182
C25	C	0.746715	-0.196815	-0.691113
C26	C	0.783187	-0.184107	-0.792841
C27	C	0.871066	-0.224650	-0.830659
C28	C	0.922469	-0.277896	-0.766734
C29	C	0.885999	-0.290588	-0.664990
C30	C	1.188174	-0.553090	-0.436357
C31	C	1.239579	-0.606340	-0.372437
C32	C	1.203109	-0.619057	-0.270708
C33	C	1.115226	-0.578528	-0.232894
C34	C	1.063821	-0.525278	-0.296815
C35	C	1.100299	-0.512560	-0.398543
C36	C	1.478654	-0.618171	-0.545552
C37	C	1.472778	-0.710836	-0.551490
C38	C	1.523352	-0.921781	-0.501183
C39	C	1.462069	-0.880493	-0.562340
C40	C	1.468029	-0.786087	-0.556301
C41	C	1.517393	-1.016195	-0.507221
C42	C	1.766645	-0.401578	-0.531773
C43	C	1.883422	-0.401584	-0.531780
C44	C	1.492692	-0.401478	-0.805785
C45	C	1.492726	-0.401442	-0.922559
C46	C	1.506656	-0.184109	-0.517930
C47	C	1.512640	-0.091443	-0.512037
C48	C	1.428998	-0.348107	-0.974025
C49	C	1.429024	-0.348081	-1.083748
C50	C	1.556514	-0.454729	-1.090528
C51	C	1.556482	-0.454758	-0.980808
C52	C	1.307088	-0.318245	-1.231797
C53	C	1.243370	-0.264896	-1.283266
C54	C	1.232484	-0.183556	-1.242488
C55	C	1.285333	-0.155548	-1.150241
C56	C	1.349059	-0.208893	-1.098777
C57	C	1.359924	-0.290244	-1.139555
C58	C	1.678420	-0.484586	-0.832756
C59	C	1.742152	-0.537927	-0.781290
C60	C	1.753049	-0.619268	-0.822066
C61	C	1.700219	-0.647273	-0.914316
C62	C	1.636487	-0.593932	-0.965782
C63	C	1.625589	-0.512591	-0.924999
C64	C	1.492599	-0.401586	-0.258791
C65	C	1.492784	-0.401387	-0.142002
H66	H	1.098940	-0.304947	-0.647714
Br67	Br	1.237686	-0.535823	-0.574419
Br68	Br	1.618253	-0.862528	-0.406361
Br69	Br	0.713410	-0.111860	-0.879605
Br70	Br	1.321833	-0.428647	-1.287131
Br71	Br	1.367159	-0.939744	-0.657166
Br72	Br	0.627439	-0.141813	-0.639801
H73	H	1.311149	-0.639330	-0.403228
Br74	Br	1.420781	-0.170891	-0.973595
H75	H	1.377083	-0.304693	-0.926602
Br76	Br	1.839557	-0.691656	-0.752226
H77	H	1.085526	-0.588887	-0.150060
H78	H	1.276474	-0.089309	-1.117053
H79	H	1.180603	-0.140119	-1.284402
H80	H	0.900747	-0.214306	-0.913500
Br81	Br	1.171651	-0.302904	-1.408455
Br82	Br	1.643038	-0.527082	-1.169586
Br83	Br	0.855690	-0.527109	-0.381124
Br84	Br	1.564789	-0.631937	-1.090983
Br85	Br	1.715014	-0.757664	-0.969670
Br86	Br	1.813861	-0.499917	-0.656097
Br87	Br	1.663610	-0.374197	-0.777393
Br88	Br	0.944574	-0.470248	-0.245482
H89	H	0.768429	-0.260388	-0.544342
H90	H	0.994021	-0.310902	-0.797522
H91	H	1.244950	-0.662442	-0.218678
