data_functionalizedCrystal
_audit_creation_method	'MofGen! by Chris Wilmer'
_symmetry_space_group_name_H-M	'P1'
_symmetry_Int_Tables_number	1
_symmetry_cell_setting	triclinic
loop_
_symmetry_equiv_pos_as_xyz
  x,y,z
_cell_length_a	19.851628
_cell_length_b	14.560438
_cell_length_c	19.851628
_cell_angle_alpha	59.996617
_cell_angle_beta	90.001453
_cell_angle_gamma	59.997979
loop_
_atom_site_label
_atom_site_type_symbol
_atom_site_fract_x
_atom_site_fract_y
_atom_site_fract_z
Zr1	Zr	0.648978	1.005182	-0.088312
O2	O	0.541410	1.196813	-0.195888
O3	O	0.681953	0.813572	-0.055336
O4	O	0.681952	1.005190	-0.195873
O5	O	0.541412	1.005181	0.055510
O6	O	0.792814	1.005172	-0.195860
O7	O	0.541411	1.005195	-0.055351
O8	O	0.792815	0.662402	0.055536
O9	O	0.541411	1.347951	-0.195886
O10	O	0.778751	0.892363	-0.041260
O11	O	0.696017	0.892366	0.041464
O12	O	0.696016	1.117971	-0.124001
O13	O	0.613282	1.117974	-0.041277
Zr14	Zr	0.825791	1.005131	0.088519
Zr15	Zr	0.825790	1.005154	-0.088291
Zr16	Zr	0.648979	1.005160	0.088497
Zr17	Zr	0.648978	1.246230	-0.088309
Zr18	Zr	0.825791	0.764084	0.088516
O19	O	0.792816	1.196742	0.055543
O20	O	0.792814	1.196773	-0.195857
O21	O	0.541413	1.196782	0.055512
O22	O	0.933358	0.813500	0.196095
O23	O	0.933356	0.813532	-0.055306
O24	O	0.681955	0.813540	0.196064
O25	O	0.933357	1.005132	-0.055303
O26	O	0.792817	1.005123	0.196080
O27	O	0.681955	1.005141	0.196067
O28	O	0.933358	1.005118	0.055557
O29	O	0.681952	1.347929	-0.195869
O30	O	0.792816	0.662385	0.196076
O31	O	0.933358	0.662362	0.196093
O32	O	0.933357	0.662380	0.055553
O33	O	0.541412	1.347934	-0.055346
O34	O	0.681954	1.347911	-0.055329
O35	O	0.778753	0.892342	0.124208
O36	O	0.861487	0.892339	0.041484
O37	O	0.778752	1.117948	-0.041257
O38	O	0.696017	1.117951	0.041467
C39	C	0.737384	0.703643	0.000099
C40	C	0.737384	0.601312	0.000098
C41	C	0.780569	0.553234	-0.043083
C42	C	0.780572	0.457075	-0.043075
C43	C	0.694199	0.457083	0.043295
C44	C	0.694201	0.553234	0.043292
C45	C	0.516220	1.005192	0.000077
C46	C	0.441159	1.005204	0.000067
C47	C	0.214703	1.128187	-0.045019
C48	C	0.192341	1.066704	-0.077709
C49	C	0.303752	1.005170	0.000091
C50	C	0.192373	1.066661	0.032767
C51	C	0.171020	1.005147	0.000114
C52	C	0.282379	0.943687	-0.032645
C53	C	0.282408	0.943662	0.077874
C54	C	0.260100	0.882089	0.045203
C55	C	0.380214	1.005188	0.000076
C56	C	0.094563	1.005120	0.000127
C57	C	0.958549	1.005121	0.000130
C58	C	1.033610	1.005109	0.000139
C59	C	0.737383	1.005184	-0.221058
C60	C	0.737382	1.005194	-0.296119
C61	C	0.737385	1.306670	0.000108
C62	C	0.737385	1.409002	0.000109
C63	C	0.692271	1.128177	-0.567473
C64	C	0.659568	1.066717	-0.500017
C65	C	0.737385	1.005143	-0.566264
C66	C	0.770047	1.066667	-0.500005
C67	C	0.737382	1.005175	-0.433535
C68	C	0.704636	0.943682	-0.499797
C69	C	0.815159	0.943649	-0.499795
C70	C	0.782475	0.882099	-0.432327
C71	C	0.737384	1.005128	-0.642727
C72	C	0.737381	1.005180	-0.357070
C73	C	0.737386	1.005129	0.221265
C74	C	0.737387	1.005120	0.296325
C75	C	0.958549	0.703607	0.000126
C76	C	1.033610	0.601264	0.000134
C77	C	0.737386	0.703615	0.221261
C78	C	0.737386	0.601275	0.296320
C79	C	0.958550	0.703580	0.221288
C80	C	1.033612	0.601227	0.296356
C81	C	0.516218	1.306734	-0.221081
C82	C	0.441157	1.409086	-0.296149
C83	C	0.516220	1.306706	0.000081
C84	C	0.441159	1.409049	0.000073
C85	C	0.737383	1.306698	-0.221054
C86	C	0.737382	1.409039	-0.296113
C87	C	1.025672	0.553215	-0.043061
C88	C	1.096193	0.457067	-0.043071
C89	C	1.174651	0.408962	0.000121
C90	C	1.182587	0.457020	0.043317
C91	C	1.112067	0.553174	0.043321
C92	C	0.780574	0.553202	0.374767
C93	C	0.780571	0.457056	0.445300
C94	C	0.737385	0.408977	0.437383
C95	C	0.694193	0.457059	0.358928
C96	C	0.694191	0.553210	0.288397
C97	C	1.112056	0.553160	0.288428
C98	C	1.182591	0.457002	0.358955
C99	C	1.174681	0.408907	0.437410
C100	C	1.096229	0.456984	0.445337
C101	C	1.025695	0.553146	0.374810
C102	C	0.362713	1.457165	-0.288221
C103	C	0.292178	1.553353	-0.358748
C104	C	0.300088	1.601453	-0.437203
C105	C	0.378540	1.553370	-0.445130
C106	C	0.449073	1.457191	-0.374603
C107	C	0.449097	1.457108	0.043261
C108	C	0.378576	1.553283	0.043251
C109	C	0.300118	1.601391	0.000057
C110	C	0.292182	1.553328	-0.043136
C111	C	0.362702	1.457161	-0.043130
C112	C	0.780577	1.457087	-0.288170
C113	C	0.780592	1.553234	-0.358689
C114	C	0.737408	1.601337	-0.437150
C115	C	0.694213	1.553280	-0.445092
C116	C	0.694203	1.457128	-0.374573
H117	H	0.659040	0.417928	0.078462
N118	N	0.902260	0.874818	-0.500717
H119	H	0.936603	0.782380	-0.449774
H120	H	0.926823	0.921479	-0.501525
N121	N	0.827140	0.405227	-0.089656
H122	H	0.870604	0.308699	-0.050044
H123	H	0.854441	0.450368	-0.117018
N124	N	0.647629	0.605087	0.089876
H125	H	0.620269	0.560047	0.117236
H126	H	0.604212	0.701619	0.050220
N127	N	0.667944	0.874862	-0.500564
H128	H	0.617761	0.936788	-0.551607
H129	H	0.651400	0.843683	-0.449835
N130	N	0.941087	0.604980	0.383361
H131	H	0.934478	0.644865	0.414518
H132	H	0.934550	0.531543	0.414496
H133	H	0.815741	0.592337	0.381229
N134	N	0.284743	0.744200	0.095736
H135	H	0.261496	0.729446	0.059811
H136	H	0.262347	0.728983	0.143070
H137	H	1.089801	0.417811	0.509224
N138	N	0.832998	0.744218	-0.355812
H139	H	0.797065	0.729479	-0.321751
H140	H	0.880329	0.729005	-0.322250
H141	H	0.815747	0.417919	0.509175
N142	N	1.087619	0.405230	-0.089651
H143	H	1.144194	0.337020	-0.083108
H144	H	1.056419	0.478682	-0.150046
N145	N	0.572447	1.135638	-0.499149
H146	H	0.547394	1.090146	-0.499492
H147	H	0.538497	1.228547	-0.549562
N148	N	0.354131	1.405313	-0.089700
H149	H	0.410706	1.337088	-0.083146
H150	H	0.322940	1.478758	-0.150098
H151	H	1.118512	0.592305	0.224552
H152	H	1.232066	0.330666	0.000112
H153	H	0.797671	1.118681	-0.499359
N154	N	0.941055	0.605085	-0.089648
H155	H	0.946740	0.560049	-0.117012
H156	H	0.909912	0.701616	-0.133064
N157	N	0.647601	1.405323	-0.383142
H158	H	0.687197	1.308796	-0.355808
H159	H	0.620246	1.450486	-0.443563
H160	H	1.246477	0.417840	0.078482
N161	N	1.120634	0.604989	0.089916
H162	H	1.181039	0.559915	0.117276
H163	H	1.093263	0.588242	0.133337
N164	N	0.224066	1.705101	0.000070
H165	H	0.190122	1.671641	0.024650
H166	H	0.190175	1.784877	-0.058435
H167	H	0.196251	1.232203	-0.083221
H168	H	0.356257	1.418007	-0.224345
H169	H	0.737393	0.330685	0.494821
H170	H	0.153531	1.118701	-0.143481
H171	H	0.815742	1.417936	-0.224289
N172	N	0.827185	1.605052	-0.350113
H173	H	0.854531	1.559992	-0.289706
H174	H	0.787538	1.701583	-0.377498
N175	N	0.647621	0.405190	0.350395
H176	H	0.654186	0.336979	0.406984
H177	H	0.670306	0.365356	0.319220
N178	N	0.647618	0.605085	0.203773
H179	H	0.604164	0.701614	0.172588
H180	H	0.620303	0.559966	0.209508
N181	N	0.333626	0.874874	-0.069340
H182	H	0.384330	0.875341	-0.069145
H183	H	0.299907	0.921023	-0.127902
N184	N	0.333831	0.874862	0.164967
H185	H	0.300454	0.921427	0.189597
H186	H	0.384765	0.874683	0.164256
N187	N	0.140979	1.135541	0.069366
H188	H	0.123218	1.228464	0.035234
H189	H	0.174766	1.089923	0.127785
N190	N	0.641645	1.265856	-0.644203
H191	H	0.582876	1.312151	-0.644884
H192	H	0.642564	1.264518	-0.694581
N193	N	0.207571	1.605174	-0.350185
H194	H	0.164082	1.673405	-0.406764
H195	H	0.201044	1.644968	-0.318983
N196	N	1.267199	0.405158	0.350395
H197	H	1.261501	0.450213	0.289991
H198	H	1.298348	0.308629	0.377780
N199	N	1.250760	0.305189	0.513475
H200	H	1.301651	0.282041	0.496540
H201	H	1.250726	0.225462	0.547389
H202	H	0.815732	0.592375	-0.078253
N203	N	0.533683	1.405319	-0.383153
H204	H	0.540293	1.478675	-0.414307
H205	H	0.540219	1.365427	-0.414291
H206	H	0.242648	1.679768	-0.494624
H207	H	0.228292	1.592513	-0.078303
H208	H	0.384971	1.592546	-0.509016
N209	N	0.533714	1.405233	0.089851
H210	H	0.528029	1.450288	0.117202
H211	H	0.564855	1.421964	0.050198
N212	N	0.387146	1.605109	0.089841
H213	H	0.447551	1.560025	0.117209
H214	H	0.359764	1.588383	0.133253
N215	N	0.737432	1.705032	-0.513206
H216	H	0.771352	1.728162	-0.496260
H217	H	0.678923	1.784774	-0.547134
H218	H	0.659054	1.592461	-0.508984
