data_functionalizedCrystal
_audit_creation_method	'MofGen! by Chris Wilmer'
_symmetry_space_group_name_H-M	'P1'
_symmetry_Int_Tables_number	1
_symmetry_cell_setting	triclinic
loop_
_symmetry_equiv_pos_as_xyz
  x,y,z
_cell_length_a	21.395362
_cell_length_b	14.908178
_cell_length_c	21.395355
_cell_angle_alpha	86.685439
_cell_angle_beta	89.956060
_cell_angle_gamma	93.328618
loop_
_atom_site_label
_atom_site_type_symbol
_atom_site_fract_x
_atom_site_fract_y
_atom_site_fract_z
Zn1	Zn	0.943530	-0.358911	-0.340196
Zn2	Zn	1.443530	0.141089	0.159804
Zn3	Zn	0.937410	-0.509764	-0.229370
Zn4	Zn	1.437410	-0.009764	0.270630
Zn5	Zn	0.838744	-0.358953	-0.235395
Zn6	Zn	1.338744	0.141047	0.264605
Zn7	Zn	0.832691	-0.509782	-0.334074
Zn8	Zn	1.332691	-0.009782	0.165926
O9	O	0.888094	-0.434352	-0.284759
O10	O	1.388094	0.065648	0.215241
O11	O	1.030397	-0.378896	-0.325535
O12	O	1.530397	0.121104	0.174465
O13	O	0.924294	-0.489768	-0.142491
O14	O	1.424294	0.010232	0.357509
O15	O	0.857738	-0.232692	-0.254381
O16	O	1.357738	0.267308	0.245619
O17	O	1.025901	-0.489727	-0.244112
O18	O	1.525901	0.010273	0.255888
O19	O	0.934725	-0.232661	-0.331377
O20	O	1.434725	0.267339	0.168623
O21	O	0.851804	-0.378968	-0.146918
O22	O	1.351804	0.121032	0.353082
O23	O	0.750262	-0.378986	-0.248445
O24	O	1.250262	0.121014	0.251555
O25	O	0.847422	-0.489759	-0.422564
O26	O	1.347422	0.010241	0.077436
O27	O	0.745815	-0.489800	-0.320944
O28	O	1.245815	0.010200	0.179056
O29	O	0.928856	-0.378914	-0.427062
O30	O	1.428856	0.121086	0.072938
O31	O	0.918425	-0.636021	-0.238176
O32	O	1.418425	-0.136021	0.261824
O33	O	0.841488	-0.636035	-0.315101
O34	O	1.341488	-0.136035	0.184899
C35	C	0.725304	-0.434400	-0.284684
C36	C	1.225304	0.065600	0.215316
C37	C	0.655661	-0.434442	-0.284666
C38	C	1.155661	0.065558	0.215334
C39	C	0.620646	-0.492219	-0.322353
C40	C	1.120646	0.007781	0.177647
C41	C	0.555212	-0.492197	-0.322382
C42	C	1.055212	0.007803	0.177618
C43	C	0.524794	-0.434407	-0.284712
C44	C	1.024794	0.065593	0.215288
C45	C	0.559818	-0.376619	-0.247023
C46	C	1.059818	0.123381	0.252977
C47	C	0.625251	-0.376636	-0.247000
C48	C	1.125251	0.123364	0.253000
C49	C	0.421360	-0.427139	-0.228598
C50	C	0.921360	0.072861	0.271402
C51	C	0.355927	-0.427128	-0.228620
C52	C	0.855927	0.072872	0.271380
C53	C	0.322976	-0.434348	-0.284784
C54	C	0.822976	0.065652	0.215216
C55	C	0.355465	-0.441599	-0.340927
C56	C	0.855465	0.058401	0.159073
C57	C	0.420898	-0.441616	-0.340904
C58	C	0.920898	0.058384	0.159096
C59	C	0.453843	-0.434382	-0.284733
C60	C	0.953843	0.065618	0.215267
C61	C	0.217009	-0.492105	-0.322505
C62	C	0.717009	0.007895	0.177495
C63	C	0.151574	-0.492076	-0.322535
C64	C	0.651574	0.007924	0.177465
C65	C	0.156181	-0.376503	-0.247170
C66	C	0.656181	0.123497	0.252830
C67	C	0.221616	-0.376527	-0.247146
C68	C	0.721616	0.123473	0.252854
C69	C	0.252025	-0.434332	-0.284812
C70	C	0.752025	0.065668	0.215188
C71	C	0.878652	-0.668765	-0.275334
C72	C	1.378652	-0.168765	0.224666
C73	C	0.874671	-0.769047	-0.271323
C74	C	1.374671	-0.269047	0.228677
C75	C	0.947294	-0.957307	-0.344048
C76	C	1.447294	-0.457307	0.155952
C77	C	0.943555	-1.051531	-0.340282
C78	C	1.443555	-0.551531	0.159718
C79	C	0.863451	-1.051722	-0.260027
C80	C	1.363451	-0.551722	0.239973
C81	C	0.867190	-0.957498	-0.263793
C82	C	1.367190	-0.457498	0.236207
C83	C	0.909113	-0.910293	-0.305805
C84	C	1.409113	-0.410293	0.194195
C85	C	0.912855	-0.816067	-0.309568
C86	C	1.412855	-0.316067	0.190432
C87	C	0.832749	-0.816260	-0.229317
C88	C	1.332749	-0.316260	0.270683
C89	C	0.829010	-0.910484	-0.225550
C90	C	1.329010	-0.410484	0.274450
C91	C	1.051519	-0.434305	-0.284834
C92	C	1.551519	0.065695	0.215166
C93	C	1.121161	-0.434285	-0.284866
C94	C	1.621161	0.065715	0.215134
C95	C	0.888147	-0.434334	-0.448183
C96	C	1.388147	0.065666	0.051817
C97	C	0.888169	-0.434326	-0.517824
C98	C	1.388169	0.065674	-0.017824
C99	C	0.897589	-0.199025	-0.294234
C100	C	1.397589	0.300975	0.205766
C101	C	0.901635	-0.098742	-0.298272
C102	C	1.401635	0.401258	0.201728
C103	C	0.930570	-0.376607	-0.552881
C104	C	1.430570	0.123393	-0.052881
C105	C	0.930570	-0.376568	-0.618318
C106	C	1.430570	0.123432	-0.118318
C107	C	0.888176	-0.434265	-0.648695
C108	C	1.388176	0.065735	-0.148695
C109	C	0.845768	-0.491988	-0.613631
C110	C	1.345768	0.008012	-0.113631
C111	C	0.845764	-0.492019	-0.548196
C112	C	1.345764	0.007981	-0.048196
C113	C	0.879957	-0.515504	-0.749102
C114	C	1.379957	-0.015504	-0.249102
C115	C	0.879965	-0.515475	-0.814536
C116	C	1.379965	-0.015475	-0.314536
C117	C	0.888184	-0.434169	-0.850520
C118	C	1.388184	0.065831	-0.350520
C119	C	0.896408	-0.352891	-0.821062
C120	C	1.396408	0.147109	-0.321062
C121	C	0.896405	-0.352921	-0.755626
C122	C	1.396405	0.147079	-0.255626
C123	C	0.888175	-0.434237	-0.719649
C124	C	1.388175	0.065763	-0.219649
C125	C	0.930588	-0.376403	-0.956531
C126	C	1.430588	0.123597	-0.456531
C127	C	0.930584	-0.376363	-1.021969
C128	C	1.430584	0.123637	-0.521969
C129	C	0.845785	-0.491791	-1.017281
C130	C	1.345785	0.008209	-0.517281
C131	C	0.845785	-0.491823	-0.951844
C132	C	1.345785	0.008177	-0.451844
C133	C	0.888190	-0.434130	-0.921473
C134	C	1.388190	0.065870	-0.421473
C135	C	0.888080	-0.434305	-0.121973
C136	C	1.388080	0.065695	0.378027
C137	C	0.888189	-0.434059	-0.052342
C138	C	1.388189	0.065941	0.447658
H139	H	0.526697	-0.539246	-0.353074
H140	H	1.026697	-0.039246	0.146926
H141	H	0.811261	-0.538759	-1.042014
H142	H	1.311261	-0.038759	-0.542014
N143	N	0.976331	-0.314195	-0.923769
N144	N	1.476331	0.185805	-0.423769
H145	H	0.969904	-0.322985	-0.876995
H146	H	1.469904	0.177015	-0.376995
H147	H	1.020506	-0.328243	-0.934689
H148	H	1.520506	0.171757	-0.434689
N149	N	0.976304	-0.314311	-0.656139
N150	N	1.476304	0.185689	-0.156139
H151	H	1.003165	-0.277768	-0.626970
H152	H	1.503165	0.222232	-0.126970
H153	H	1.003815	-0.351024	-0.681836
H154	H	1.503815	0.148976	-0.181836
N155	N	0.249811	-0.554445	-0.363133
N156	N	0.749811	-0.054445	0.136867
H157	H	0.278483	-0.517852	-0.393670
H158	H	0.778483	-0.017852	0.106330
H159	H	0.275195	-0.596198	-0.335887
H160	H	0.775195	-0.096198	0.164113
H161	H	0.981434	-0.918872	-0.378251
H162	H	1.481434	-0.418872	0.121749
N163	N	0.984723	-1.102240	-0.381541
N164	N	1.484723	-0.602240	0.118459
H165	H	1.011843	-1.058036	-0.408728
H166	H	1.511843	-0.558036	0.091272
H167	H	1.012186	-1.141312	-0.354524
H168	H	1.512186	-0.641312	0.145476
H169	H	0.873097	-0.581696	-0.719810
H170	H	1.373097	-0.081696	-0.219810
H171	H	0.801661	-0.777971	-0.198174
H172	H	1.301661	-0.277971	0.301826
N173	N	0.663023	-0.314310	-0.206355
N174	N	1.163023	0.185690	0.293645
H175	H	0.633828	-0.277691	-0.182498
H176	H	1.133828	0.222309	0.317502
H177	H	0.688651	-0.350976	-0.175832
H178	H	1.188651	0.149024	0.324168
H179	H	0.903102	-0.286684	-0.850359
H180	H	1.403102	0.213316	-0.350359
H181	H	0.448184	-0.421255	-0.182860
H182	H	0.948184	0.078745	0.317140
N183	N	0.818240	-1.102643	-0.214715
N184	N	1.318240	-0.602643	0.285285
H185	H	0.821668	-1.169467	-0.218133
H186	H	1.321668	-0.669467	0.281867
H187	H	0.828677	-1.086189	-0.170640
H188	H	1.328677	-0.586189	0.329360
H189	H	0.811262	-0.538830	-0.923301
H190	H	1.311262	-0.038830	-0.423301
H191	H	0.535048	-0.329564	-0.216353
H192	H	1.035048	0.170436	0.283647
H193	H	0.329480	-0.421230	-0.182905
H194	H	0.829480	0.078770	0.317095
H195	H	0.946993	-0.777634	-0.343774
H196	H	1.446993	-0.277634	0.156226
N197	N	0.783797	-0.961399	-0.180237
N198	N	1.283797	-0.461399	0.319763
H199	H	0.787222	-1.028225	-0.183652
H200	H	1.287222	-0.528225	0.316348
H201	H	0.794235	-0.944942	-0.136163
H202	H	1.294235	-0.444942	0.363837
H203	H	0.123065	-0.539124	-0.353229
H204	H	0.623065	-0.039124	0.146771
H205	H	0.965098	-0.329628	-0.528157
H206	H	1.465098	0.170372	-0.028157
N207	N	0.259392	-0.314223	-0.206492
N208	N	0.759392	0.185777	0.293508
H209	H	0.288265	-0.272477	-0.233673
H210	H	0.788265	0.227523	0.266327
H211	H	0.230159	-0.277666	-0.182635
H212	H	0.730159	0.222334	0.317365
N213	N	0.905276	-0.265266	-0.723852
N214	N	1.405276	0.234734	-0.223852
H215	H	0.910486	-0.213750	-0.756572
H216	H	1.410486	0.286250	-0.256572
H217	H	0.867438	-0.256912	-0.697009
H218	H	1.367438	0.243088	-0.197009
N219	N	0.976308	-0.314089	-1.059784
N220	N	1.476308	0.185911	-0.559784
H221	H	1.003167	-0.277546	-1.030612
H222	H	1.503167	0.222454	-0.530612
H223	H	1.003823	-0.350785	-1.085490
H224	H	1.503823	0.149215	-0.585490
H225	H	0.873272	-0.581657	-0.838516
H226	H	1.373272	-0.081657	-0.338516
H227	H	0.811249	-0.538962	-0.638369
H228	H	1.311249	-0.038962	-0.138369
H229	H	0.811234	-0.539019	-0.519653
H230	H	1.311234	-0.039019	-0.019653
H231	H	0.447348	-0.447517	-0.386617
H232	H	0.947348	0.052483	0.113383
N233	N	0.653439	-0.554565	-0.362982
N234	N	1.153439	-0.054565	0.137018
H235	H	0.642663	-0.540644	-0.408328
H236	H	1.142663	-0.040644	0.091672
H237	H	0.700195	-0.545787	-0.357201
H238	H	1.200195	-0.045787	0.142799
N239	N	0.319935	-0.449392	-0.401509
N240	N	0.819935	0.050608	0.098491
H241	H	0.273554	-0.448277	-0.393007
H242	H	0.773554	0.051723	0.106993
H243	H	0.333524	-0.397282	-0.431671
H244	H	0.833524	0.102718	0.068329
H245	H	0.131416	-0.329445	-0.216502
H246	H	0.631416	0.170555	0.283498
