data_functionalizedCrystal
_audit_creation_method	'MofGen! by Chris Wilmer'
_symmetry_space_group_name_H-M	'P1'
_symmetry_Int_Tables_number	1
_symmetry_cell_setting	triclinic
loop_
_symmetry_equiv_pos_as_xyz
  x,y,z
_cell_length_a	17.699083
_cell_length_b	14.519709
_cell_length_c	16.176319
_cell_angle_alpha	89.992256
_cell_angle_beta	89.998611
_cell_angle_gamma	83.481580
loop_
_atom_site_label
_atom_site_type_symbol
_atom_site_fract_x
_atom_site_fract_y
_atom_site_fract_z
O1	O	1.004413	0.116624	-0.068632
O2	O	1.504413	0.616624	0.431368
O3	O	0.784078	0.131798	-0.068660
O4	O	1.284078	0.631798	0.431340
O5	O	0.900087	-0.010052	-0.068638
O6	O	1.400087	0.489948	0.431362
O7	O	0.888403	0.258474	-0.068654
O8	O	1.388403	0.758474	0.431346
O9	O	0.900071	-0.010061	0.068855
O10	O	1.400071	0.489939	0.568855
O11	O	0.784062	0.131789	0.068833
O12	O	1.284062	0.631789	0.568833
O13	O	1.004397	0.116615	0.068861
O14	O	1.504397	0.616615	0.568861
Cu15	Cu	0.894228	0.124201	0.081401
Cu16	Cu	1.394228	0.624201	0.581401
Cu17	Cu	0.894247	0.124212	-0.081200
Cu18	Cu	1.394247	0.624212	0.418800
O19	O	0.888387	0.258465	0.068839
O20	O	1.388387	0.758465	0.568839
C21	C	0.755871	0.131249	0.000083
C22	C	1.255871	0.631249	0.500083
C23	C	0.671848	0.129618	0.000073
C24	C	1.171848	0.629618	0.500073
C25	C	0.899534	-0.044414	0.000109
C26	C	1.399534	0.455586	0.500109
C27	C	0.897903	-0.146789	0.000109
C28	C	1.397903	0.353211	0.500109
C29	C	0.623466	0.212881	0.000068
C30	C	1.123466	0.712881	0.500068
C31	C	0.544518	0.211343	0.000079
C32	C	1.044518	0.711343	0.500079
C33	C	0.513954	0.126541	0.000089
C34	C	1.013954	0.626541	0.500089
C35	C	0.562343	0.043272	0.000096
C36	C	1.062343	0.543272	0.500096
C37	C	0.641289	0.044811	0.000091
C38	C	1.141289	0.544811	0.500091
C39	C	0.243962	0.037064	0.000117
C40	C	0.743962	0.537064	0.500117
C41	C	0.165010	0.035531	0.000119
C42	C	0.665010	0.535531	0.500119
C43	C	0.147191	0.203596	0.000105
C44	C	0.647191	0.703596	0.500105
C45	C	0.226137	0.205135	0.000100
C46	C	0.726137	0.705135	0.500100
C47	C	0.274519	0.121866	0.000112
C48	C	0.774519	0.621866	0.500112
C49	C	0.360123	0.123535	0.000102
C50	C	0.860123	0.623535	0.500102
C51	C	0.428352	0.124872	0.000093
C52	C	0.928352	0.624872	0.500093
C53	C	0.891896	-0.521659	0.000087
C54	C	1.391896	-0.021659	0.500087
C55	C	0.893564	-0.417358	0.000093
C56	C	1.393564	0.082642	0.500093
C57	C	0.894899	-0.334227	0.000099
C58	C	1.394899	0.165773	0.500099
C59	C	0.896568	-0.229920	0.000104
C60	C	1.396568	0.270080	0.500104
C61	C	1.032603	0.117164	0.000116
C62	C	1.532603	0.617164	0.500116
C63	C	1.116626	0.118795	0.000121
C64	C	1.616626	0.618795	0.500121
C65	C	0.888940	0.292827	0.000090
C66	C	1.388940	0.792827	0.500090
C67	C	0.890572	0.395202	0.000085
C68	C	1.390572	0.895202	0.500085
N69	N	0.894220	0.124193	0.195767
N70	N	1.394220	0.624193	0.695767
N71	N	0.894260	0.124213	-0.195565
N72	N	1.394260	0.624213	0.304435
C73	C	0.945604	0.061408	0.239040
C74	C	1.445604	0.561408	0.739040
C75	C	0.945608	0.061407	0.325588
C76	C	1.445608	0.561407	0.825588
C77	C	0.894231	0.124196	0.368859
C78	C	1.394231	0.624196	0.868859
C79	C	0.842841	0.186985	0.325579
C80	C	1.342841	0.686985	0.825579
C81	C	0.842834	0.186981	0.239034
C82	C	1.342834	0.686981	0.739034
C83	C	0.842867	0.187002	0.674608
C84	C	1.342867	0.687002	1.174608
C85	C	0.842879	0.187003	0.761159
C86	C	1.342879	0.687003	1.261159
C87	C	0.945641	0.061428	0.761161
C88	C	1.445641	0.561428	1.261161
C89	C	0.945634	0.061424	0.674616
C90	C	1.445634	0.561424	1.174616
C91	C	0.894242	0.124209	0.631343
C92	C	1.394242	0.624209	1.131343
C93	C	0.894237	0.124208	0.537499
C94	C	1.394237	0.624208	1.037499
C95	C	0.894238	0.124202	0.462702
C96	C	1.394238	0.624202	0.962702
H97	H	0.505128	0.279144	0.000074
H98	H	1.005128	0.779144	0.500074
C99	C	0.786314	0.256048	0.191432
C100	C	1.286314	0.756048	0.691432
H101	H	0.755721	0.293450	0.229597
H102	H	1.255721	0.793450	0.729597
H103	H	0.754764	0.222920	0.157680
H104	H	1.254764	0.722920	0.657680
H105	H	0.813591	0.294399	0.157663
H106	H	1.313591	0.794399	0.657663
C107	C	0.694510	-0.046778	0.000088
C108	C	1.194510	0.453222	0.500088
H109	H	0.665002	-0.097504	0.000086
H110	H	1.165002	0.402496	0.500086
H111	H	0.725682	-0.049677	0.048032
H112	H	1.225682	0.450323	0.548032
H113	H	0.725673	-0.049664	-0.047868
H114	H	1.225673	0.450336	0.452132
H115	H	0.987445	0.010281	0.203814
H116	H	1.487445	0.510281	0.703814
C117	C	1.002138	-0.007649	0.373185
C118	C	1.502138	0.492351	0.873185
H119	H	1.032743	-0.045034	0.335019
H120	H	1.532743	0.454966	0.835019
H121	H	0.974874	-0.046003	0.406959
H122	H	1.474874	0.453997	0.906959
H123	H	1.033687	0.025494	0.406934
H124	H	1.533687	0.525494	0.906934
H125	H	0.251017	0.274189	0.000088
H126	H	0.751017	0.774189	0.500088
H127	H	0.801004	0.238106	0.360816
H128	H	1.301004	0.738106	0.860816
C129	C	1.002147	-0.007647	0.627021
C130	C	1.502147	0.492353	1.127021
H131	H	1.032746	-0.045047	0.665190
H132	H	1.532746	0.454953	1.165190
H133	H	1.033692	0.025475	0.593247
H134	H	1.533692	0.525475	1.093247
H135	H	0.974861	-0.045999	0.593273
H136	H	1.474861	0.454001	1.093273
C137	C	0.657079	0.306165	0.000057
C138	C	1.157079	0.806165	0.500057
H139	H	0.616954	0.355532	0.000064
H140	H	1.116954	0.855532	0.500064
H141	H	0.687504	0.310264	-0.047891
H142	H	1.187504	0.810264	0.452109
H143	H	0.687506	0.310255	0.048009
H144	H	1.187506	0.810255	0.548009
C145	C	0.093969	0.295191	0.000103
C146	C	0.593969	0.795191	0.500103
H147	H	0.042574	0.282134	0.000117
H148	H	0.542574	0.782134	0.500117
H149	H	0.103243	0.329973	-0.047848
H150	H	0.603243	0.829973	0.452152
H151	H	0.103251	0.329967	0.048052
H152	H	0.603251	0.829967	0.548052
H153	H	0.283346	-0.030739	0.000127
H154	H	0.783346	0.469261	0.500127
C155	C	1.002165	-0.007644	0.808763
C156	C	1.502165	0.492356	1.308763
H157	H	0.994808	0.001340	0.866504
H158	H	1.494808	0.501340	1.366504
H159	H	1.052687	0.002294	0.794572
H160	H	1.552687	0.502294	1.294572
H161	H	0.993859	-0.069185	0.794586
H162	H	1.493859	0.430815	1.294586
H163	H	0.801023	0.238125	0.639382
H164	H	1.301023	0.738125	1.139382
C165	C	0.131392	-0.057755	0.000138
C166	C	0.631392	0.442245	0.500138
H167	H	0.171512	-0.107127	0.000153
H168	H	0.671512	0.392873	0.500153
H169	H	0.100964	-0.061851	-0.047806
H170	H	0.600964	0.438149	0.452194
H171	H	0.100966	-0.061841	0.048094
H172	H	0.600966	0.438159	0.548094
H173	H	0.537452	-0.025775	0.000116
H174	H	1.037452	0.474225	0.500116
C175	C	0.786347	0.256058	0.808757
C176	C	1.286347	0.756058	1.308757
H177	H	0.755731	0.293441	0.770591
H178	H	1.255731	0.793441	1.270591
H179	H	0.813613	0.294416	0.842513
H180	H	1.313613	0.794416	1.342513
H181	H	0.754810	0.222908	0.842522
H182	H	1.254810	0.722908	1.342522
