data_functionalizedCrystal
_audit_creation_method	'MofGen! by Chris Wilmer'
_symmetry_space_group_name_H-M	'P1'
_symmetry_Int_Tables_number	1
_symmetry_cell_setting	triclinic
loop_
_symmetry_equiv_pos_as_xyz
  x,y,z
_cell_length_a	21.395364
_cell_length_b	18.050590
_cell_length_c	21.395355
_cell_angle_alpha	90.018036
_cell_angle_beta	90.024552
_cell_angle_gamma	90.033504
loop_
_atom_site_label
_atom_site_type_symbol
_atom_site_fract_x
_atom_site_fract_y
_atom_site_fract_z
Zn1	Zn	0.957912	-0.295449	0.354264
Zn2	Zn	1.457912	0.204551	0.854264
Zn3	Zn	0.957837	-0.419621	0.249487
Zn4	Zn	1.457837	0.080379	0.749487
Zn5	Zn	0.853127	-0.295482	0.249500
Zn6	Zn	1.353127	0.204518	0.749500
Zn7	Zn	0.853118	-0.419634	0.354227
Zn8	Zn	1.353118	0.080366	0.854227
O9	O	0.905499	-0.357547	0.301870
O10	O	1.405499	0.142453	0.801870
O11	O	1.045580	-0.311902	0.340374
O12	O	1.545580	0.188098	0.840374
O13	O	0.943919	-0.403162	0.161811
O14	O	1.443919	0.096838	0.661811
O15	O	0.867062	-0.191553	0.263418
O16	O	1.367062	0.308447	0.763418
O17	O	1.045525	-0.403130	0.263396
O18	O	1.545525	0.096870	0.763396
O19	O	0.944047	-0.191529	0.340387
O20	O	1.444047	0.308471	0.840387
O21	O	0.866989	-0.311957	0.161821
O22	O	1.366989	0.188043	0.661821
O23	O	0.765448	-0.311970	0.263383
O24	O	1.265448	0.188030	0.763383
O25	O	0.867047	-0.403153	0.441910
O26	O	1.367047	0.096847	0.941910
O27	O	0.765442	-0.403184	0.340325
O28	O	1.265442	0.096816	0.840325
O29	O	0.944039	-0.311915	0.441937
O30	O	1.444039	0.188085	0.941937
O31	O	0.943911	-0.523547	0.263360
O32	O	1.443911	-0.023547	0.763360
O33	O	0.866974	-0.523557	0.340312
O34	O	1.366974	-0.023557	0.840312
C35	C	0.742711	-0.357583	0.301852
C36	C	1.242711	0.142417	0.801852
C37	C	0.673070	-0.357616	0.301859
C38	C	1.173070	0.142384	0.801859
C39	C	0.640408	-0.310191	0.342004
C40	C	1.140408	0.189809	0.842004
C41	C	0.574972	-0.310171	0.342007
C42	C	1.074972	0.189829	0.842007
C43	C	0.542201	-0.357590	0.301871
C44	C	1.042201	0.142410	0.801871
C45	C	0.574871	-0.405018	0.261718
C46	C	1.074871	0.094982	0.761718
C47	C	0.640305	-0.405031	0.261712
C48	C	1.140305	0.094969	0.761712
C49	C	0.438489	-0.424470	0.296834
C50	C	0.938489	0.075530	0.796834
C51	C	0.373056	-0.424458	0.296844
C52	C	0.873056	0.075542	0.796844
C53	C	0.340381	-0.357549	0.301885
C54	C	0.840381	0.142451	0.801885
C55	C	0.373146	-0.290650	0.306929
C56	C	0.873146	0.209350	0.806929
C57	C	0.438580	-0.290663	0.306923
C58	C	0.938580	0.209337	0.806923
C59	C	0.471249	-0.357580	0.301872
C60	C	0.971249	0.142420	0.801872
C61	C	0.236766	-0.310099	0.342034
C62	C	0.736766	0.189901	0.842034
C63	C	0.171330	-0.310078	0.342032
C64	C	0.671330	0.189922	0.842032
C65	C	0.171230	-0.404931	0.261747
C66	C	0.671230	0.095069	0.761747
C67	C	0.236665	-0.404945	0.261746
C68	C	0.736665	0.095055	0.761746
C69	C	0.269429	-0.357530	0.301893
C70	C	0.769429	0.142470	0.801893
C71	C	0.905450	-0.550499	0.301845
C72	C	1.405450	-0.050499	0.801845
C73	C	0.905487	-0.633044	0.301855
C74	C	1.405487	-0.133044	0.801855
C75	C	0.947412	-0.832463	0.260067
C76	C	1.447412	-0.332463	0.760067
C77	C	0.962722	-0.881803	0.317251
C78	C	1.462722	-0.381803	0.817251
C79	C	0.905523	-0.784175	0.301880
C80	C	1.405523	-0.284175	0.801880
C81	C	0.890277	-0.881916	0.244722
C82	C	1.390277	-0.381916	0.744722
C83	C	0.905558	-0.930160	0.301899
C84	C	1.405558	-0.430160	0.801899
C85	C	0.920862	-0.832428	0.359094
C86	C	1.420862	-0.332428	0.859094
C87	C	0.848390	-0.832537	0.286526
C88	C	1.348390	-0.332537	0.786526
C89	C	0.863678	-0.881855	0.343750
C90	C	1.363678	-0.381855	0.843750
C91	C	0.905504	-0.700076	0.301868
C92	C	1.405504	-0.200076	0.801868
C93	C	0.905577	-1.014256	0.301917
C94	C	1.405577	-0.514256	0.801917
C95	C	1.068922	-0.357511	0.301888
C96	C	1.568922	0.142489	0.801888
C97	C	1.138563	-0.357496	0.301895
C98	C	1.638563	0.142504	0.801895
C99	C	0.905551	-0.357531	0.465293
C100	C	1.405551	0.142469	0.965293
C101	C	0.905573	-0.357525	0.534934
C102	C	1.405573	0.142475	1.034934
C103	C	0.905564	-0.163841	0.301908
C104	C	1.405564	0.336159	0.801908
C105	C	0.905592	-0.081295	0.301925
C106	C	1.405592	0.418705	0.801925
C107	C	0.905483	-0.357508	0.139082
C108	C	1.405483	0.142492	0.639082
C109	C	0.905582	-0.357305	0.069441
C110	C	1.405582	0.142695	0.569441
C111	C	0.945660	-0.310015	0.567662
C112	C	1.445660	0.189985	1.067662
C113	C	0.945660	-0.309983	0.633098
C114	C	1.445660	0.190017	1.133098
C115	C	0.905578	-0.357474	0.665803
C116	C	1.405578	0.142526	1.165803
C117	C	0.865482	-0.404988	0.633067
C118	C	1.365482	0.095012	1.133067
C119	C	0.865480	-0.405013	0.567632
C120	C	1.365480	0.094987	1.067632
C121	C	0.900614	-0.424345	0.769469
C122	C	1.400614	0.075655	1.269469
C123	C	0.900621	-0.424321	0.834902
C124	C	1.400621	0.075679	1.334902
C125	C	0.905582	-0.357396	0.867623
C126	C	1.405582	0.142604	1.367623
C127	C	0.910549	-0.290493	0.834904
C128	C	1.410549	0.209507	1.334904
C129	C	0.910546	-0.290518	0.769470
C130	C	1.410546	0.209482	1.269470
C131	C	0.905576	-0.357452	0.736755
C132	C	1.405576	0.142548	1.236755
C133	C	0.945670	-0.309848	0.971304
C134	C	1.445670	0.190152	1.471304
C135	C	0.945665	-0.309814	1.036741
C136	C	1.445665	0.190186	1.536741
C137	C	0.865491	-0.404825	1.036708
C138	C	1.365491	0.095175	1.536708
C139	C	0.865493	-0.404852	0.971273
C140	C	1.365493	0.095148	1.471273
C141	C	0.905586	-0.357364	0.938575
C142	C	1.405586	0.142636	1.438575
H143	H	0.465256	-0.236191	0.311028
H144	H	0.965256	0.263809	0.811028
C145	C	0.815840	-0.910968	0.391584
C146	C	1.315840	-0.410968	0.891584
N147	N	0.779811	-0.932896	0.427614
N148	N	1.279811	-0.432896	0.927614
H149	H	0.144737	-0.271454	0.374722
H150	H	0.644737	0.228546	0.874722
C151	C	1.028014	-0.911047	0.334809
C152	C	1.528014	-0.411047	0.834809
N153	N	1.077193	-0.933072	0.348029
N154	N	1.577193	-0.433072	0.848029
H155	H	0.667080	-0.271581	0.374694
H156	H	1.167080	0.228419	0.874694
H157	H	0.933724	-0.810782	0.407481
H158	H	1.433724	-0.310782	0.907481
H159	H	0.800073	-0.810878	0.273511
H160	H	1.300073	-0.310878	0.773511
C161	C	0.474425	-0.498081	0.291291
C162	C	0.974425	0.001919	0.791291
N163	N	0.501492	-0.553522	0.287118
N164	N	1.001492	-0.053522	0.787118
C165	C	0.135185	-0.457091	0.217596
C166	C	0.635185	0.042909	0.717596
N167	N	0.108034	-0.496379	0.184340
N168	N	0.608034	0.003621	0.684340
C169	C	0.272809	-0.257935	0.386190
C170	C	0.772809	0.242065	0.886190
N171	N	0.299955	-0.218643	0.419449
N172	N	0.799955	0.281357	0.919449
C173	C	0.539037	-0.258003	0.386174
C174	C	1.039037	0.241997	0.886174
N175	N	0.511972	-0.218711	0.419443
N176	N	1.011972	0.281289	0.919443
H177	H	0.877367	-0.903654	0.196376
H178	H	1.377367	-0.403654	0.696376
H179	H	0.982848	-0.810776	0.224743
H180	H	1.482848	-0.310776	0.724743
C181	C	0.337208	-0.217043	0.312468
C182	C	0.837208	0.282957	0.812468
N183	N	0.310137	-0.161604	0.316639
N184	N	0.810137	0.338396	0.816639
C185	C	0.989768	-0.257604	0.935334
C186	C	1.489768	0.242396	1.435334
N187	N	1.022981	-0.218252	0.908243
N188	N	1.522981	0.281748	1.408243
H189	H	0.832849	-0.443486	1.063336
H190	H	1.332849	0.056514	1.563336
C191	C	0.989756	-0.257767	0.531698
C192	C	1.489756	0.242233	1.031698
N193	N	1.022966	-0.218410	0.504609
N194	N	1.522966	0.281590	1.004609
C195	C	0.989765	-0.257721	0.669106
C196	C	1.489765	0.242279	1.169106
N197	N	1.022987	-0.218359	0.696225
N198	N	1.522987	0.281641	1.196225
H199	H	0.832833	-0.443700	0.540986
H200	H	1.332833	0.056300	1.040986
C201	C	0.676235	-0.457208	0.217551
C202	C	1.176235	0.042792	0.717551
N203	N	0.703297	-0.496510	0.184289
N204	N	1.203297	0.003490	0.684289
C205	C	0.989766	-0.257546	1.072741
C206	C	1.489766	0.242454	1.572741
N207	N	1.022984	-0.218176	1.099858
N208	N	1.522984	0.281824	1.599858
H209	H	0.263259	-0.443567	0.229058
H210	H	0.763259	0.056433	0.729058
H211	H	0.548185	-0.443626	0.229039
H212	H	1.048185	0.056374	0.729039
C213	C	0.916002	-0.216926	0.733481
C214	C	1.416002	0.283074	1.233481
N215	N	0.920107	-0.161494	0.706375
N216	N	1.420107	0.338506	1.206375
C217	C	0.337020	-0.498047	0.291288
C218	C	0.837020	0.001953	0.791288
N219	N	0.309879	-0.553477	0.287100
N220	N	0.809879	-0.053477	0.787100
C221	C	0.821395	-0.457120	0.935271
C222	C	1.321395	0.042880	1.435271
N223	N	0.788177	-0.496489	0.908154
N224	N	1.288177	0.003511	1.408154
C225	C	0.916005	-0.216869	0.870893
C226	C	1.416005	0.283131	1.370893
N227	N	0.920115	-0.161418	0.898003
N228	N	1.420115	0.338582	1.398003
H229	H	0.896580	-0.478798	0.861536
H230	H	1.396580	0.021202	1.361536
H231	H	0.896406	-0.478830	0.742832
H232	H	1.396406	0.021170	1.242832
H233	H	0.832845	-0.443653	0.659699
H234	H	1.332845	0.056347	1.159699
