data_functionalizedCrystal
_audit_creation_method	'MofGen! by Chris Wilmer'
_symmetry_space_group_name_H-M	'P1'
_symmetry_Int_Tables_number	1
_symmetry_cell_setting	triclinic
loop_
_symmetry_equiv_pos_as_xyz
  x,y,z
_cell_length_a	13.262533
_cell_length_b	10.540539
_cell_length_c	12.376897
_cell_angle_alpha	77.434509
_cell_angle_beta	61.834454
_cell_angle_gamma	84.479736
loop_
_atom_site_label
_atom_site_type_symbol
_atom_site_fract_x
_atom_site_fract_y
_atom_site_fract_z
O1	O	1.462416	0.253565	-0.355603
O2	O	1.137752	0.248977	-0.255789
O3	O	1.307491	0.067054	-0.307975
O4	O	1.292676	0.435488	-0.303417
O5	O	1.345979	0.113445	-0.507805
O6	O	1.176239	0.295368	-0.455619
O7	O	1.500903	0.299957	-0.555434
Zn8	Zn	1.344682	0.305028	-0.537254
Zn9	Zn	1.293973	0.243905	-0.273969
O10	O	1.331164	0.481879	-0.503248
C11	C	1.115422	0.268163	-0.342923
C12	C	0.991548	0.256199	-0.304839
C13	C	1.325623	0.042873	-0.407546
C14	C	1.322298	-0.098296	-0.406518
C15	C	0.726277	0.323644	-0.633198
C16	C	0.842663	0.334893	-0.668986
C17	C	0.879891	0.315219	-0.577952
C18	C	0.800719	0.284298	-0.451125
C19	C	0.684320	0.273058	-0.415333
C20	C	0.837934	0.264633	-0.360087
C21	C	0.758762	0.233711	-0.233260
C22	C	0.642375	0.222473	-0.197475
C23	C	0.605148	0.242146	-0.288508
C24	C	0.954333	0.275873	-0.395879
C25	C	0.912376	0.225286	-0.178014
C26	C	0.795990	0.214038	-0.142226
C27	C	1.194849	-0.290240	-0.366913
C28	C	1.198305	-0.143294	-0.368399
C29	C	1.403948	-0.129521	-0.538976
C30	C	1.399735	-0.276322	-0.537772
C31	C	1.358489	-0.329430	-0.311302
C32	C	1.359340	-0.182723	-0.310144
C33	C	1.523232	0.280770	-0.468297
C34	C	1.647105	0.292732	-0.506373
C35	C	1.313031	0.506060	-0.403674
C36	C	1.316355	0.647227	-0.404694
N37	N	1.379298	0.346743	-0.716942
C38	C	1.178971	0.105335	-1.010411
C39	C	1.154725	0.076134	-0.884626
C40	C	1.210866	0.143784	-0.842699
C41	C	1.291257	0.240639	-0.926569
C42	C	1.315512	0.269835	-1.052369
C43	C	1.347407	0.308285	-0.884656
C44	C	1.427798	0.405140	-0.968527
C45	C	1.452048	0.434332	-1.094313
C46	C	1.395907	0.366682	-1.136241
C47	C	1.323152	0.279088	-0.758857
C48	C	1.459693	0.443589	-0.800814
C49	C	1.483939	0.472790	-0.926599
N50	N	1.259366	0.202181	-0.094283
H51	H	1.018784	0.301052	-0.499142
H52	H	1.505409	0.498675	-0.766679
H53	H	1.301700	-0.383713	-0.212474
C54	C	1.155754	-0.065399	-0.459459
N55	N	1.123705	-0.006728	-0.528052
H56	H	0.974659	0.324380	-0.607098
C57	C	1.184186	0.111666	-0.704328
N58	N	1.164082	0.087476	-0.600100
C59	C	0.685316	0.345288	-0.733320
N60	N	0.654464	0.361592	-0.808738
C61	C	0.929744	0.368898	-0.808492
N62	N	0.995335	0.394509	-0.913575
C63	C	0.477116	0.229780	-0.249148
N64	N	0.380681	0.220470	-0.219505
C65	C	1.278447	-0.157821	-0.177978
N66	N	1.217508	-0.139069	-0.078429
H67	H	1.447901	-0.370919	-0.338069
H68	H	1.257697	0.200230	-0.690580
H69	H	0.577914	0.197308	-0.094203
H70	H	0.731512	0.188862	-0.038961
C71	C	0.953321	0.203641	-0.077869
N72	N	0.984168	0.187340	-0.002448
C73	C	1.150138	-0.309833	-0.456614
N74	N	1.116471	-0.324577	-0.524190
H75	H	1.133277	0.050257	-1.044565
H76	H	1.089274	-0.002728	-0.816348
H77	H	1.135598	-0.122783	-0.272163
H78	H	1.130108	-0.341073	-0.270022
C79	C	1.362339	-0.291604	-0.634683
N80	N	1.334167	-0.303108	-0.707676
H81	H	1.549394	0.551651	-0.994904
C82	C	1.521553	-0.331544	-0.581821
N83	N	1.613306	-0.373129	-0.615006
H84	H	1.448414	-0.154130	-0.331046
C85	C	1.528063	-0.089837	-0.582545
N86	N	1.621545	-0.059936	-0.615364
C87	C	1.422571	0.398800	-1.274611
N88	N	1.442653	0.422989	-1.378832
C89	C	1.540459	0.540898	-1.186562
N90	N	1.607039	0.621176	-1.256038
H91	H	1.378853	-0.069945	-0.611152
