data_functionalizedCrystal
_audit_creation_method	'MofGen! by Chris Wilmer'
_symmetry_space_group_name_H-M	'P1'
_symmetry_Int_Tables_number	1
_symmetry_cell_setting	triclinic
loop_
_symmetry_equiv_pos_as_xyz
  x,y,z
_cell_length_a	14.853567
_cell_length_b	10.654550
_cell_length_c	9.130313
_cell_angle_alpha	90.000110
_cell_angle_beta	90.002123
_cell_angle_gamma	95.940083
loop_
_atom_site_label
_atom_site_type_symbol
_atom_site_fract_x
_atom_site_fract_y
_atom_site_fract_z
O1	O	1.197237	-0.163955	-0.121715
O2	O	0.934882	-0.183487	-0.121735
O3	O	1.072092	0.009081	-0.121719
O4	O	1.060028	-0.356523	-0.121731
O5	O	1.072090	0.009076	0.121879
O6	O	0.934881	-0.183492	0.121864
O7	O	1.197236	-0.163961	0.121884
Cu8	Cu	1.066058	-0.173727	0.144116
Cu9	Cu	1.066060	-0.173721	-0.143968
O10	O	1.060026	-0.356528	0.121868
C11	C	0.901288	-0.182605	0.000062
C12	C	0.801190	-0.179953	0.000054
C13	C	1.230830	-0.164843	0.000084
C14	C	1.330928	-0.167495	0.000082
C15	C	1.071205	0.055867	0.000078
C16	C	1.068555	0.195283	0.000073
C17	C	1.744134	-0.293095	0.000052
C18	C	1.764190	-0.064320	0.000060
C19	C	1.670143	-0.061826	0.000068
C20	C	1.613087	-0.174969	0.000066
C21	C	1.650078	-0.290605	0.000056
C22	C	1.633145	0.053807	0.000063
C23	C	1.539093	0.056306	0.000070
C24	C	1.482035	-0.056838	0.000078
C25	C	1.519031	-0.172479	0.000070
C26	C	1.461975	-0.285621	0.000068
C27	C	1.498969	-0.401263	0.000069
C28	C	1.593020	-0.403749	0.000064
C29	C	1.387984	-0.054353	0.000084
C30	C	1.367919	-0.283131	0.000071
C31	C	1.060913	-0.403314	0.000067
C32	C	1.063563	-0.542730	0.000063
N33	N	1.066063	-0.173730	0.346739
C34	C	1.149342	0.275608	0.000083
C35	C	1.146846	0.406603	0.000073
C36	C	0.982770	0.376935	0.000048
C37	C	0.985267	0.245942	0.000047
C38	C	1.244070	0.292737	0.000105
C39	C	1.241574	0.423732	0.000094
N40	N	1.066062	-0.173707	-0.346590
C41	C	1.126835	-0.088490	0.423398
C42	C	1.126833	-0.088475	0.576735
C43	C	1.005283	-0.258951	0.576740
C44	C	1.005282	-0.258959	0.423406
C45	C	1.197014	0.009929	0.423396
C46	C	1.197011	0.009945	0.576733
H47	H	1.321469	-0.375267	0.000079
H48	H	0.919482	0.180545	0.000019
H49	H	1.270203	0.469675	-0.105083
H50	H	1.508980	0.150468	0.000070
O51	O	0.892940	0.431576	0.000026
H52	H	0.854078	0.399314	0.099304
O53	O	1.288771	-0.017632	0.631874
H54	H	1.288711	-0.017598	0.753441
O55	O	1.293137	0.254351	-0.134928
H56	H	1.353233	0.207344	-0.101740
H57	H	1.679607	0.145922	0.000058
O58	O	1.825723	0.057709	0.000053
H59	H	1.812481	0.113037	0.099339
H60	H	0.955796	-0.328342	0.639179
O61	O	1.284039	0.245941	0.139413
H62	H	1.303213	0.327067	0.213268
H63	H	1.452502	-0.493383	0.000059
H64	H	1.277266	0.465861	0.102041
H65	H	0.955789	-0.328358	0.360991
O66	O	1.176616	0.137574	0.368245
H67	H	1.166621	0.200070	0.462849
H68	H	1.262469	-0.019979	0.375842
H69	H	1.623150	-0.497898	0.000063
H70	H	1.175108	0.100940	0.624281
H71	H	1.774259	-0.387248	0.000059
H72	H	1.357867	0.039801	0.000072
