data_functionalizedCrystal
_audit_creation_method	'MofGen! by Chris Wilmer'
_symmetry_space_group_name_H-M	'P1'
_symmetry_Int_Tables_number	1
_symmetry_cell_setting	triclinic
loop_
_symmetry_equiv_pos_as_xyz
  x,y,z
_cell_length_a	13.635800
_cell_length_b	7.076018
_cell_length_c	9.582880
_cell_angle_alpha	106.718352
_cell_angle_beta	111.207034
_cell_angle_gamma	62.299659
loop_
_atom_site_label
_atom_site_type_symbol
_atom_site_fract_x
_atom_site_fract_y
_atom_site_fract_z
V1	V	1.954531	0.294195	0.465536
V2	V	2.454531	0.794195	0.965536
O3	O	2.056507	-0.015063	0.457774
O4	O	2.556507	0.484937	0.957774
O5	O	1.827688	0.584229	0.461295
O6	O	2.327688	1.084229	0.961295
O7	O	1.951658	0.289263	0.669055
O8	O	2.451658	0.789263	1.169055
O9	O	1.931679	0.281945	0.248575
O10	O	2.431679	0.781945	0.748575
V11	V	2.206882	0.257252	0.439714
V12	V	2.706882	0.757252	0.939714
O13	O	2.061932	0.375232	0.522178
O14	O	2.561932	0.875232	1.022178
O15	O	2.324580	0.176215	0.383072
O16	O	2.824580	0.676215	0.883072
O17	O	2.222121	-0.032783	0.443956
O18	O	2.722121	0.467217	0.943956
O19	O	2.163604	0.566510	0.447477
O20	O	2.663604	1.066510	0.947477
O21	O	2.288432	0.269502	0.656675
O22	O	2.788432	0.769502	1.156675
O23	O	2.098152	0.262184	0.236195
O24	O	2.598152	0.762184	0.736195
V25	V	2.454531	0.294195	0.465536
V26	V	2.954531	0.794195	0.965536
O27	O	2.556507	-0.015063	0.457774
O28	O	3.056507	0.484937	0.957774
O29	O	2.327688	0.584229	0.461295
O30	O	2.827688	1.084229	0.961295
O31	O	2.451658	0.289263	0.669055
O32	O	2.951658	0.789263	1.169055
O33	O	2.431679	0.281945	0.248575
O34	O	2.931679	0.781945	0.748575
V35	V	2.706882	0.257252	0.439714
V36	V	3.206882	0.757252	0.939714
O37	O	2.561932	0.375232	0.522178
O38	O	3.061932	0.875232	1.022178
O39	O	2.824580	0.176215	0.383072
O40	O	3.324580	0.676215	0.883072
O41	O	2.722121	-0.032783	0.443956
O42	O	3.222121	0.467217	0.943956
O43	O	2.663604	0.566510	0.447477
O44	O	3.163604	1.066510	0.947477
O45	O	2.788432	0.269502	0.656675
O46	O	3.288432	0.769502	1.156675
O47	O	2.598152	0.262184	0.236195
O48	O	3.098152	0.762184	0.736195
C49	C	2.160434	0.896508	0.451552
C50	C	2.660434	1.396508	0.951552
C51	C	2.224528	0.654941	0.453676
C52	C	2.724528	1.154941	0.953676
C53	C	1.724536	0.654949	0.453685
C54	C	2.224536	1.154949	0.953685
C55	C	1.660431	0.896511	0.451537
C56	C	2.160431	1.396511	0.951537
C57	C	1.882664	0.278685	0.718695
C58	C	2.382664	0.778685	1.218695
C59	C	1.920278	0.276572	0.885065
C60	C	2.420278	0.776572	1.385065
C61	C	1.998813	0.272769	0.186548
C62	C	2.498813	0.772769	0.686548
C63	C	1.950823	0.274871	0.020176
C64	C	2.450823	0.774871	0.520176
C65	C	2.382664	0.278685	0.718695
C66	C	2.882664	0.778685	1.218695
C67	C	2.420278	0.276572	0.885065
C68	C	2.920278	0.776572	1.385065
C69	C	2.498813	0.272769	0.186548
C70	C	2.998813	0.772769	0.686548
C71	C	2.450823	0.274871	0.020176
C72	C	2.950823	0.774871	0.520176
