data_functionalizedCrystal
_audit_creation_method	'MofGen! by Chris Wilmer'
_symmetry_space_group_name_H-M	'P1'
_symmetry_Int_Tables_number	1
_symmetry_cell_setting	triclinic
loop_
_symmetry_equiv_pos_as_xyz
  x,y,z
_cell_length_a	16.109301
_cell_length_b	11.026607
_cell_length_c	15.186229
_cell_angle_alpha	89.998222
_cell_angle_beta	89.999362
_cell_angle_gamma	96.023749
loop_
_atom_site_label
_atom_site_type_symbol
_atom_site_fract_x
_atom_site_fract_y
_atom_site_fract_z
O1	O	1.126503	0.155971	-0.073169
O2	O	0.887350	0.175382	-0.073183
O3	O	0.987106	-0.010969	-0.073174
O4	O	1.026747	0.342322	-0.073178
O5	O	0.987097	-0.010971	0.073283
O6	O	0.887341	0.175379	0.073274
O7	O	1.126494	0.155969	0.073288
Zn8	Zn	1.006916	0.165674	0.096534
Zn9	Zn	1.006928	0.165677	-0.096429
O10	O	1.026738	0.342319	0.073279
C11	C	0.856253	0.174594	0.000044
C12	C	0.763604	0.172237	0.000039
C13	C	0.979788	-0.056178	0.000053
C14	C	0.957987	-0.190883	0.000049
C15	C	0.557080	0.277333	0.000048
C16	C	0.470027	0.275108	0.000053
C17	C	0.456769	0.054010	0.000052
C18	C	0.543821	0.056235	0.000053
C19	C	0.593975	0.167900	0.000046
C20	C	0.419869	0.163450	0.000051
C21	C	0.325481	0.161038	0.000057
C22	C	0.688369	0.170314	0.000042
C23	C	1.018183	-0.264713	0.000051
C24	C	0.995652	-0.403938	0.000046
C25	C	1.157591	0.156756	0.000059
C26	C	1.250240	0.159114	0.000059
C27	C	1.034056	0.387529	0.000050
C28	C	1.055857	0.522234	0.000049
N29	N	1.006914	0.165670	0.228227
N30	N	1.006935	0.165671	-0.228122
C31	C	1.051109	0.083182	0.453954
C32	C	1.051112	0.083179	0.546144
C33	C	0.962734	0.248163	0.546145
C34	C	0.962728	0.248159	0.453957
C35	C	1.006920	0.165670	0.407864
C36	C	1.006929	0.165671	0.592241
C37	C	1.006931	0.165669	0.692198
C38	C	1.006917	0.165671	0.307901
H39	H	0.597913	0.368257	0.000049
H40	H	0.889771	-0.230748	0.000039
O41	O	0.919818	0.328181	0.409043
C42	C	0.880691	0.401341	0.267018
C43	C	0.929303	0.310640	0.317774
H44	H	0.888358	0.387208	0.193219
H45	H	0.811715	0.385508	0.285081
H46	H	0.906063	0.498525	0.285190
H47	H	0.904003	0.213421	0.299630
H48	H	0.998274	0.326579	0.299706
H49	H	1.087092	0.016013	0.416427
O50	O	0.579705	-0.050041	0.000204
C51	C	0.670341	-0.175806	0.076052
C52	C	0.629740	-0.055426	0.075997
H53	H	0.710816	-0.180188	0.137313
H54	H	0.619578	-0.256047	0.076105
H55	H	0.710731	-0.180267	0.014732
H56	H	0.589355	-0.050847	0.137306
H57	H	0.680544	0.024758	0.075897
O58	O	1.099524	-0.216966	0.000096
C59	C	1.196144	-0.034669	0.000051
C60	C	1.103990	-0.088575	0.000020
H61	H	1.199785	0.069141	-0.000029
H62	H	1.228451	-0.066552	0.061359
H63	H	1.228423	-0.066705	-0.061225
H64	H	1.071640	-0.056564	0.061255
H65	H	1.071746	-0.056699	-0.061329
H66	H	0.927432	-0.443797	0.000037
O67	O	1.094098	0.003219	0.591012
C68	C	1.203819	-0.022563	0.695047
C69	C	1.155191	0.068131	0.644305
H70	H	1.253235	0.029882	0.738132
H71	H	1.158902	-0.083184	0.738269
H72	H	1.235359	-0.081541	0.646247
H73	H	1.123647	0.127189	0.693040
H74	H	1.200146	0.128668	0.601069
H75	H	0.415924	-0.036904	0.000063
O76	O	0.434148	0.381378	0.000205
C77	C	0.343519	0.507152	0.076049
C78	C	0.384112	0.386766	0.075997
H79	H	0.303042	0.511536	0.137311
H80	H	0.394285	0.587387	0.076100
H81	H	0.303130	0.511619	0.014729
H82	H	0.424495	0.382179	0.137306
H83	H	0.333304	0.306587	0.075900
O84	O	0.919755	0.328127	0.591021
C85	C	0.810052	0.353916	0.695077
C86	C	0.858670	0.263219	0.644328
H87	H	0.760642	0.301473	0.738174
H88	H	0.854978	0.414535	0.738289
H89	H	0.778506	0.412897	0.646282
H90	H	0.890220	0.204158	0.693059
H91	H	0.813706	0.202685	0.601102
O92	O	1.137203	-0.430027	0.000091
C93	C	1.233827	-0.247735	0.000041
C94	C	1.141672	-0.301636	0.000015
H95	H	1.237470	-0.143924	-0.000040
H96	H	1.266135	-0.279618	0.061349
H97	H	1.266102	-0.279773	-0.061235
H98	H	1.109325	-0.269622	0.061250
H99	H	1.109426	-0.269759	-0.061333
