data_functionalizedCrystal
_audit_creation_method	'MofGen! by Chris Wilmer'
_symmetry_space_group_name_H-M	'P1'
_symmetry_Int_Tables_number	1
_symmetry_cell_setting	triclinic
loop_
_symmetry_equiv_pos_as_xyz
  x,y,z
_cell_length_a	16.994747
_cell_length_b	21.395362
_cell_length_c	21.395355
_cell_angle_alpha	89.956060
_cell_angle_beta	89.993832
_cell_angle_gamma	89.973055
loop_
_atom_site_label
_atom_site_type_symbol
_atom_site_fract_x
_atom_site_fract_y
_atom_site_fract_z
Zn1	Zn	-0.313785	-0.957945	0.354693
Zn2	Zn	-0.445671	-0.957883	0.249961
Zn3	Zn	-0.313822	-0.853160	0.249894
Zn4	Zn	-0.445688	-0.853165	0.354665
O5	O	-0.379741	-0.905538	0.302303
O6	O	-0.331258	-1.045615	0.340839
O7	O	-0.428190	-0.943964	0.162274
O8	O	-0.203436	-0.867084	0.263780
O9	O	-0.428154	-1.045570	0.263893
O10	O	-0.203409	-0.944069	0.340775
O11	O	-0.331320	-0.867024	0.162225
O12	O	-0.331336	-0.765483	0.263753
O13	O	-0.428182	-0.867092	0.442347
O14	O	-0.428217	-0.765487	0.340728
O15	O	-0.331274	-0.944074	0.442367
O16	O	-0.556055	-0.943969	0.263866
O17	O	-0.556067	-0.867033	0.340792
C18	C	-0.379783	-0.742751	0.302231
C19	C	-0.379820	-0.673109	0.302214
C20	C	-0.584681	-0.905502	0.302332
C21	C	-0.674003	-0.905507	0.302330
Zn22	Zn	-0.944908	-0.853178	0.249877
Zn23	Zn	-0.944850	-0.957973	0.354665
Zn24	Zn	-0.813080	-0.853186	0.354655
Zn25	Zn	-0.812926	-0.957895	0.249940
O26	O	-0.878941	-0.905558	0.302284
O27	O	-1.055282	-0.867108	0.263755
O28	O	-0.927410	-0.944109	0.442342
O29	O	-0.830656	-0.765507	0.340725
O30	O	-1.055239	-0.944101	0.340743
O31	O	-0.927510	-0.765501	0.263745
O32	O	-0.830599	-0.867123	0.442334
O33	O	-0.702678	-0.867047	0.340786
O34	O	-0.830394	-0.943968	0.162254
O35	O	-0.702566	-0.943976	0.263853
O36	O	-0.927361	-0.867033	0.162207
O37	O	-0.927261	-1.045640	0.340804
O38	O	-0.830338	-1.045583	0.263863
C39	C	-0.174001	-0.905578	0.302271
C40	C	-0.084679	-0.905597	0.302258
C41	C	-0.379725	-0.905590	0.465727
C42	C	-0.379719	-0.905613	0.535368
C43	C	-0.379700	-1.068962	0.302377
C44	C	-0.379683	-1.138603	0.302408
C45	C	-0.430333	-0.640415	0.342235
C46	C	-0.430314	-0.574979	0.342263
C47	C	-0.379790	-0.542241	0.302259
C48	C	-0.329267	-0.574944	0.262235
C49	C	-0.329282	-0.640378	0.262213
C50	C	-0.373435	-0.438515	0.245852
C51	C	-0.373425	-0.373082	0.245873
C52	C	-0.379738	-0.340420	0.302328
C53	C	-0.386077	-0.373200	0.358764
C54	C	-0.386092	-0.438634	0.358742
C55	C	-0.379767	-0.471289	0.302279
C56	C	-0.430233	-0.236773	0.342383
C57	C	-0.430208	-0.171337	0.342412
C58	C	-0.329165	-0.171302	0.262378
C59	C	-0.329186	-0.236738	0.262355
C60	C	-0.379724	-0.269469	0.302356
C61	C	-0.379700	-0.905523	0.139516
C62	C	-0.379485	-0.905622	0.069875
C63	C	-0.329256	-0.945695	0.568093
C64	C	-0.329222	-0.945694	0.633528
C65	C	-0.379665	-0.905617	0.666236
C66	C	-0.430131	-0.865527	0.633504
C67	C	-0.430158	-0.865525	0.568070
C68	C	-0.450690	-0.900661	0.769925
C69	C	-0.450665	-0.900668	0.835358
C70	C	-0.379582	-0.905621	0.868057
C71	C	-0.308522	-0.910581	0.835316
C72	C	-0.308549	-0.910579	0.769882
C73	C	-0.379641	-0.905615	0.737189
C74	C	-0.329078	-0.945705	0.971734
C75	C	-0.329043	-0.945700	1.037171
C76	C	-0.429958	-0.865536	1.037146
C77	C	-0.429986	-0.865538	0.971710
C78	C	-0.379548	-0.905626	0.939009
C79	C	-0.878779	-1.068346	0.302344
C80	C	-0.878732	-1.137987	0.302387
C81	C	-0.878867	-0.905491	0.138861
C82	C	-0.878835	-0.905462	0.069220
C83	C	-0.879106	-0.742135	0.302227
C84	C	-0.879177	-0.672493	0.302202
C85	C	-0.879060	-0.905581	0.465072
C86	C	-0.879242	-0.905435	0.534713
C87	C	-0.929221	-1.170703	0.342434
C88	C	-0.929192	-1.236138	0.342475
C89	C	-0.878671	-1.268857	0.302472
C90	C	-0.828181	-1.236136	0.262421
C91	C	-0.828214	-1.170702	0.262377
C92	C	-0.929306	-0.865387	0.036488
C93	C	-0.929277	-0.865348	-0.028948
C94	C	-0.878780	-0.905386	-0.061650
C95	C	-0.828303	-0.945462	-0.028913
C96	C	-0.828330	-0.945498	0.036521
C97	C	-0.828777	-0.639789	0.342270
C98	C	-0.828828	-0.574354	0.342247
C99	C	-0.879282	-0.541624	0.302159
C100	C	-0.929684	-0.574333	0.262086
C101	C	-0.929629	-0.639767	0.262106
C102	C	-0.828558	-0.865571	0.567386
C103	C	-0.828729	-0.865421	0.632821
C104	C	-0.879581	-0.905140	0.665582
C105	C	-0.930271	-0.945005	0.632904
C106	C	-0.930103	-0.945151	0.567470
H107	H	-0.471484	-0.667061	0.374808
H108	H	-0.787095	-1.144070	0.229767
H109	H	-0.970361	-1.144072	0.375013
C110	C	-0.273690	-0.538938	0.218231
H111	H	-0.243603	-0.567784	0.194395
H112	H	-0.303805	-0.513366	0.190907
H113	H	-0.239359	-0.513457	0.242250
C114	C	-0.772769	-0.989506	-0.064892
H115	H	-0.779995	-0.983746	-0.108549
H116	H	-0.719779	-0.980338	-0.054169
H117	H	-0.784288	-1.031614	-0.054161
H118	H	-0.970429	-0.832782	0.063105
C119	C	-0.485501	-0.821453	0.935708
H120	H	-0.478289	-0.827188	0.892054
H121	H	-0.538493	-0.830611	0.946457
H122	H	-0.473958	-0.779356	0.946397
H123	H	-0.471447	-0.548354	0.374855
H124	H	-0.391251	-0.465321	0.404694
C125	C	-0.485618	-0.821443	0.669477
H126	H	-0.515673	-0.797567	0.640613
H127	H	-0.519971	-0.845403	0.695032
H128	H	-0.455435	-0.794150	0.694972
C129	C	-0.772960	-0.821573	0.668755
H130	H	-0.742643	-0.797950	0.639868
H131	H	-0.802966	-0.794046	0.694153
H132	H	-0.738852	-0.845679	0.694403
H133	H	-0.970307	-1.262770	0.375093
H134	H	-0.787784	-0.547731	0.374881
C135	C	-0.878758	-0.905346	-0.133626
H136	H	-0.841453	-0.934928	-0.148419
H137	H	-0.929646	-0.916184	-0.148430
H138	H	-0.865149	-0.864899	-0.148434
C139	C	-0.772601	-1.272129	0.218428
H140	H	-0.742532	-1.243278	0.194567
H141	H	-0.738264	-1.297655	0.242454
H142	H	-0.802718	-1.297655	0.191117
H143	H	-0.970381	-0.832712	-0.055593
H144	H	-0.787144	-0.833228	0.540721
H145	H	-0.879708	-0.905016	0.718862
H146	H	-0.787232	-0.978135	0.063166
H147	H	-0.971374	-0.977617	0.540873
H148	H	-0.471249	-0.832882	0.541426
H149	H	-0.391216	-0.346609	0.404736
C150	C	-0.273720	-0.676344	0.218185
H151	H	-0.243628	-0.647477	0.194361
H152	H	-0.239405	-0.701917	0.242180
H153	H	-0.303856	-0.701820	0.190840
H154	H	-0.970762	-0.547674	0.229447
H155	H	-0.879316	-0.488343	0.302146
C156	C	-0.985082	-0.675735	0.218037
H157	H	-1.015141	-0.646867	0.194167
H158	H	-0.954887	-0.701248	0.190746
H159	H	-1.019444	-0.701273	0.242013
C160	C	-0.528884	-0.895212	0.733958
H161	H	-0.518724	-0.895914	0.690299
H162	H	-0.562051	-0.929288	0.744718
H163	H	-0.554111	-0.857059	0.744663
H164	H	-0.787688	-0.666429	0.374916
H165	H	-0.971674	-0.977341	0.659588
H166	H	-0.471380	-0.263425	0.374957
C167	C	-0.878635	-1.340833	0.302527
H168	H	-0.841320	-1.355638	0.272965
H169	H	-0.865051	-1.355635	0.342983
H170	H	-0.929518	-1.355630	0.291656
C171	C	-0.485786	-0.135372	0.386428
H172	H	-0.515893	-0.164240	0.410240
H173	H	-0.455671	-0.109889	0.413776
H174	H	-0.520099	-0.109806	0.362417
H175	H	-0.288024	-0.144648	0.229809
C176	C	-0.528824	-0.895220	0.871370
H177	H	-0.518630	-0.895941	0.915023
H178	H	-0.554062	-0.857071	0.860631
H179	H	-0.561997	-0.929300	0.860678
C180	C	-0.273628	-0.272707	0.218328
H181	H	-0.280869	-0.316365	0.224048
H182	H	-0.285089	-0.261931	0.176221
H183	H	-0.220642	-0.262021	0.227564
C184	C	-0.366452	-0.337030	0.183798
H185	H	-0.362679	-0.365852	0.150173
H186	H	-0.411640	-0.311474	0.178244
H187	H	-0.320719	-0.311530	0.184676
C188	C	-0.273769	-0.989782	0.532121
H189	H	-0.281014	-0.984044	0.488464
H190	H	-0.220770	-0.980625	0.542823
H191	H	-0.285304	-1.031880	0.542879
C192	C	-0.273718	-0.989791	0.669533
H193	H	-0.243687	-1.013668	0.640685
H194	H	-0.239343	-0.965838	0.695033
H195	H	-0.303889	-1.017084	0.695085
C196	C	-0.230392	-0.916027	0.733865
H197	H	-0.240593	-0.915319	0.690213
H198	H	-0.197217	-0.881951	0.744552
H199	H	-0.205155	-0.954180	0.744605
C200	C	-0.366491	-0.474439	0.183749
H201	H	-0.367400	-0.518103	0.191817
H202	H	-0.409349	-0.463664	0.157351
H203	H	-0.318426	-0.463718	0.163770
H204	H	-0.288004	-0.978343	0.945107
C205	C	-0.230324	-0.916030	0.871273
H206	H	-0.188012	-0.918987	0.842403
H207	H	-0.223387	-0.880124	0.896769
H208	H	-0.231330	-0.952352	0.896827
C209	C	-0.273532	-0.989793	1.073169
H210	H	-0.243504	-1.013670	1.044319
H211	H	-0.239155	-0.965837	1.098664
H212	H	-0.303697	-1.017086	1.098725
H213	H	-0.471021	-0.832898	1.063776
