data_functionalizedCrystal
_audit_creation_method	'MofGen! by Chris Wilmer'
_symmetry_space_group_name_H-M	'P1'
_symmetry_Int_Tables_number	1
_symmetry_cell_setting	triclinic
loop_
_symmetry_equiv_pos_as_xyz
  x,y,z
_cell_length_a	10.654545
_cell_length_b	19.188930
_cell_length_c	9.730223
_cell_angle_alpha	89.990488
_cell_angle_beta	89.997167
_cell_angle_gamma	83.813930
loop_
_atom_site_label
_atom_site_type_symbol
_atom_site_fract_x
_atom_site_fract_y
_atom_site_fract_z
O1	O	1.665768	0.098047	-0.114293
O2	O	1.300091	0.107393	-0.114301
O3	O	1.493482	0.001133	-0.114270
O4	O	1.472377	0.204306	-0.114324
O5	O	1.493469	0.001130	0.114310
O6	O	1.300078	0.107390	0.114279
O7	O	1.665755	0.098044	0.114286
Zn8	Zn	1.482915	0.102716	0.150575
Zn9	Zn	1.482931	0.102720	-0.150589
O10	O	1.472364	0.204304	0.114256
C11	C	1.253301	0.106706	-0.000011
C12	C	1.113901	0.104655	-0.000013
C13	C	1.048410	0.103687	0.124587
C14	C	0.917432	0.101749	0.124587
C15	C	0.917446	0.101747	-0.124623
C16	C	1.048423	0.103681	-0.124622
C17	C	1.492792	-0.024884	0.000024
C18	C	1.490741	-0.102402	0.000036
C19	C	1.604216	-0.146585	0.000044
C20	C	1.602289	-0.219421	0.000022
C21	C	1.486879	-0.248071	0.000019
C22	C	1.373389	-0.203879	0.000002
C23	C	1.375319	-0.131044	0.000011
N24	N	1.398658	-0.356653	0.077807
N25	N	1.396832	-0.425844	0.077802
C26	C	1.481055	-0.467518	-0.000009
N27	N	1.567193	-0.437389	-0.077798
N28	N	1.569023	-0.368192	-0.077787
C29	C	1.484773	-0.327048	0.000009
C30	C	1.592448	-0.590679	-0.000026
C31	C	1.590516	-0.663516	-0.000056
C32	C	1.361613	-0.647972	-0.000063
C33	C	1.363548	-0.575137	-0.000046
C34	C	1.478970	-0.546494	-0.000021
C35	C	1.712545	0.098731	-0.000006
C36	C	1.851945	0.100782	-0.000013
N37	N	1.482913	0.102713	0.356111
C38	C	1.473054	0.230320	-0.000041
C39	C	1.475105	0.307838	-0.000062
N40	N	1.482943	0.102718	-0.356126
C41	C	1.568575	0.055682	0.428051
C42	C	1.568588	0.055682	0.571934
C43	C	1.397272	0.149752	0.571925
C44	C	1.397254	0.149748	0.428044
H45	H	1.101718	0.104480	0.226052
H46	H	1.327532	0.188047	0.630507
C47	C	0.845396	0.100693	0.261657
N48	N	0.791138	0.099900	0.364905
C49	C	1.303071	0.201521	0.348906
N50	N	1.232154	0.240526	0.289299
H51	H	0.864117	0.100955	-0.226075
H52	H	1.698201	-0.123269	0.000060
C53	C	1.120468	0.104741	-0.261699
N54	N	1.174733	0.105536	-0.364941
C55	C	1.662813	0.003937	0.651061
N56	N	1.733784	-0.035041	0.710658
C57	C	1.727125	-0.268031	0.000041
N58	N	1.821153	-0.304642	0.000059
C59	C	1.246438	-0.235396	0.000009
N60	N	1.150814	-0.259134	0.000013
C61	C	1.234660	-0.679484	-0.000071
N62	N	1.139036	-0.703221	-0.000081
C63	C	1.250482	-0.082441	0.000005
N64	N	1.156452	-0.045832	0.000003
C65	C	1.719413	-0.559170	-0.000019
N66	N	1.815044	-0.535440	-0.000019
C67	C	1.238714	-0.526533	-0.000048
N68	N	1.144683	-0.489925	-0.000055
C69	C	1.715355	-0.712118	-0.000039
N70	N	1.809387	-0.748726	-0.000020
C71	C	1.662792	0.003937	0.348929
N72	N	1.733756	-0.035041	0.289339
