data_functionalizedCrystal
_audit_creation_method	'MofGen! by Chris Wilmer'
_symmetry_space_group_name_H-M	'P1'
_symmetry_Int_Tables_number	1
_symmetry_cell_setting	triclinic
loop_
_symmetry_equiv_pos_as_xyz
  x,y,z
_cell_length_a	17.077404
_cell_length_b	21.295416
_cell_length_c	17.077396
_cell_angle_alpha	90.030718
_cell_angle_beta	89.981638
_cell_angle_gamma	89.971698
loop_
_atom_site_label
_atom_site_type_symbol
_atom_site_fract_x
_atom_site_fract_y
_atom_site_fract_z
Zn1	Zn	1.200014	0.250643	-0.443807
Zn2	Zn	1.533347	0.583977	-0.110473
Zn3	Zn	1.866681	0.917310	0.222860
Zn4	Zn	1.199904	0.355916	-0.312535
Zn5	Zn	1.533237	0.689250	0.020798
Zn6	Zn	1.866571	1.022583	0.354131
Zn7	Zn	1.068746	0.250661	-0.312557
Zn8	Zn	1.402079	0.583995	0.020776
Zn9	Zn	1.735412	0.917328	0.354109
Zn10	Zn	1.068697	0.355875	-0.443762
Zn11	Zn	1.402030	0.689208	-0.110428
Zn12	Zn	1.735363	1.022542	0.222905
O13	O	1.134340	0.303274	-0.378165
O14	O	1.467673	0.636607	-0.044832
O15	O	1.801007	0.969941	0.288501
O16	O	1.309846	0.264618	-0.426403
O17	O	1.643180	0.597951	-0.093070
O18	O	1.976513	0.931285	0.240264
O19	O	1.182480	0.341979	-0.202691
O20	O	1.515813	0.675312	0.130642
O21	O	1.849147	1.008646	0.463975
O22	O	1.086225	0.162569	-0.329996
O23	O	1.419559	0.495903	0.003338
O24	O	1.752892	0.829236	0.336671
O25	O	1.309766	0.341962	-0.329959
O26	O	1.643099	0.675295	0.003375
O27	O	1.976432	1.008628	0.336708
O28	O	1.182668	0.162556	-0.426424
O29	O	1.516001	0.495890	-0.093091
O30	O	1.849334	0.829223	0.240243
O31	O	1.086119	0.264648	-0.202707
O32	O	1.419452	0.597982	0.130626
O33	O	1.752785	0.931315	0.463959
O34	O	0.958892	0.264608	-0.329952
O35	O	1.292226	0.597942	0.003381
O36	O	1.625559	0.931275	0.336715
O37	O	1.086142	0.341891	-0.553615
O38	O	1.419475	0.675224	-0.220281
O39	O	1.752808	1.008557	0.113052
O40	O	0.958856	0.341908	-0.426347
O41	O	1.292190	0.675242	-0.093014
O42	O	1.625523	1.008575	0.240319
O43	O	1.182620	0.264578	-0.553648
O44	O	1.515953	0.597911	-0.220314
O45	O	1.849287	0.931244	0.113019
O46	O	1.182433	0.444000	-0.329915
O47	O	1.515766	0.777334	0.003418
O48	O	1.849099	1.110667	0.336752
O49	O	1.086035	0.443970	-0.426326
O50	O	1.419368	0.777303	-0.092993
O51	O	1.752702	1.110636	0.240340
C52	C	0.930392	0.303256	-0.378148
C53	C	1.263726	0.636589	-0.044814
C54	C	1.597059	0.969923	0.288519
C55	C	0.843142	0.303264	-0.378159
C56	C	1.176476	0.636597	-0.044825
C57	C	1.509809	0.969930	0.288508
C58	C	0.802195	0.263062	-0.428454
C59	C	1.135528	0.596396	-0.095121
C60	C	1.468862	0.929729	0.238213
C61	C	0.720215	0.263066	-0.428458
C62	C	1.053548	0.596400	-0.095124
C63	C	1.386881	0.929733	0.238209
C64	C	0.679183	0.303275	-0.378169
C65	C	1.012516	0.636609	-0.044836
C66	C	1.345850	0.969942	0.288497
C67	C	0.720136	0.343478	-0.327869
C68	C	1.053469	0.676812	0.005465
C69	C	1.386803	1.010145	0.338798
C70	C	0.802115	0.343471	-0.327862
C71	C	1.135448	0.676804	0.005472
C72	C	1.468782	1.010137	0.338805
C73	C	0.549266	0.343493	-0.327888
C74	C	0.882599	0.676826	0.005445
C75	C	1.215933	1.010159	0.338779
C76	C	0.467281	0.343501	-0.327896
C77	C	0.800615	0.676835	0.005437
C78	C	1.133948	1.010168	0.338771
C79	C	0.467366	0.263088	-0.428484
C80	C	0.800699	0.596422	-0.095151
C81	C	1.134032	0.929755	0.238183
C82	C	0.549345	0.263081	-0.428477
C83	C	0.882678	0.596414	-0.095144
C84	C	1.216011	0.929747	0.238190
C85	C	0.590292	0.303285	-0.378177
C86	C	0.923625	0.636618	-0.044844
C87	C	1.256959	0.969951	0.288490
C88	C	1.134238	0.466826	-0.378131
C89	C	1.467571	0.800159	-0.044797
C90	C	1.800905	1.133492	0.288536
C91	C	1.134266	0.536794	-0.378142
C92	C	1.467599	0.870127	-0.044809
C93	C	1.800933	1.203460	0.288525
C94	C	1.184505	0.569655	-0.327994
C95	C	1.517838	0.902989	0.005340
C96	C	1.851171	1.236322	0.338673
C97	C	1.184542	0.635398	-0.328015
C98	C	1.517875	0.968731	0.005318
C99	C	1.851208	1.302064	0.338652
C100	C	1.134326	0.668276	-0.378176
C101	C	1.467659	1.001610	-0.044843
C102	C	1.800993	1.334943	0.288491
C103	C	1.084084	0.635407	-0.428334
C104	C	1.417417	0.968740	-0.095001
C105	C	1.750750	1.302073	0.238333
C106	C	1.084054	0.569665	-0.428317
C107	C	1.417387	0.902999	-0.094984
C108	C	1.750720	1.236332	0.238350
N109	N	1.065658	0.771540	-0.384160
N110	N	1.398991	1.104873	-0.050827
N111	N	1.732324	1.438207	0.282507
N112	N	1.065688	0.833991	-0.384172
N113	N	1.399022	1.167325	-0.050838
N114	N	1.732355	1.500658	0.282495
C115	C	1.134415	0.866351	-0.378232
C116	C	1.467748	1.199684	-0.044898
C117	C	1.801081	1.533018	0.288435
N118	N	1.203111	0.833900	-0.372265
N119	N	1.536444	1.167233	-0.038931
N120	N	1.869777	1.500566	0.294402
N121	N	1.203079	0.771443	-0.372249
N122	N	1.536412	1.104776	-0.038916
N123	N	1.869746	1.438109	0.294418
C124	C	1.134353	0.739562	-0.378201
C125	C	1.467687	1.072895	-0.044867
C126	C	1.801020	1.406228	0.288466
C127	C	1.184698	0.970498	-0.328104
C128	C	1.518031	1.303831	0.005229
C129	C	1.851365	1.637165	0.338563
C130	C	1.184736	1.036242	-0.328131
C131	C	1.518070	1.369575	0.005203
C132	C	1.851403	1.702908	0.338536
C133	C	1.084271	1.036249	-0.428446
C134	C	1.417604	1.369583	-0.095112
C135	C	1.750938	1.702916	0.238221
C136	C	1.084240	0.970507	-0.428423
C137	C	1.417573	1.303840	-0.095090
C138	C	1.750906	1.637173	0.238244
C139	C	1.134452	0.937635	-0.378248
C140	C	1.467785	1.270968	-0.044915
C141	C	1.801119	1.604302	0.288419
C142	C	1.339084	0.303292	-0.378183
C143	C	1.672418	0.636626	-0.044850
C144	C	2.005751	0.969959	0.288483
C145	C	1.426334	0.303300	-0.378191
C146	C	1.759667	0.636633	-0.044858
C147	C	2.093001	0.969967	0.288476
C148	C	1.134465	1.139084	-0.378231
C149	C	1.467798	1.472417	-0.044897
C150	C	1.801132	1.805750	0.288436
C151	C	1.134521	1.069116	-0.378293
C152	C	1.467854	1.402449	-0.044960
C153	C	1.801188	1.735782	0.288373
C154	C	1.134388	0.303228	-0.582910
C155	C	1.467721	0.636561	-0.249576
C156	C	1.801054	0.969894	0.083757
C157	C	1.134408	0.303208	-0.670159
C158	C	1.467741	0.636541	-0.336826
C159	C	1.801075	0.969874	-0.003493
C160	C	1.184646	0.262947	-0.711168
C161	C	1.517979	0.596281	-0.377835
C162	C	1.851313	0.929614	-0.044501
C163	C	1.184655	0.262927	-0.793149
C164	C	1.517989	0.596260	-0.459815
C165	C	1.851322	0.929593	-0.126482
C166	C	1.134430	0.303170	-0.834119
C167	C	1.467763	0.636503	-0.500786
C168	C	1.801097	0.969836	-0.167452
C169	C	1.084187	0.343432	-0.793105
C170	C	1.417520	0.676765	-0.459771
C171	C	1.750853	1.010098	-0.126438
C172	C	1.084174	0.343449	-0.711126
C173	C	1.417507	0.676782	-0.377792
C174	C	1.750840	1.010116	-0.044459
C175	C	1.084218	0.343394	-0.963975
C176	C	1.417552	0.676727	-0.630641
C177	C	1.750885	1.010060	-0.297308
C178	C	1.084232	0.343377	-1.045959
C179	C	1.417565	0.676711	-0.712626
C180	C	1.750899	1.010044	-0.379293
C181	C	1.184700	0.262871	-1.045998
C182	C	1.518033	0.596205	-0.712664
C183	C	1.851366	0.929538	-0.379331
C184	C	1.184687	0.262889	-0.964019
C185	C	1.518020	0.596222	-0.630685
C186	C	1.851354	0.929555	-0.297352
C187	C	1.134444	0.303152	-0.923010
C188	C	1.467778	0.636485	-0.589677
C189	C	1.801111	0.969818	-0.256343
C190	C	1.134338	0.303275	-0.174217
C191	C	1.467671	0.636608	0.159116
C192	C	1.801005	0.969941	0.492449
C193	C	1.134470	0.303117	-0.086968
C194	C	1.467803	0.636450	0.246365
C195	C	1.801137	0.969784	0.579699
H196	H	0.686879	0.230332	-0.469415
H197	H	1.020212	0.563665	-0.136081
H198	H	1.353546	0.896998	0.197252
H199	H	1.043199	0.662180	-0.469177
H200	H	1.376532	0.995514	-0.135844
H201	H	1.709866	1.328847	0.197490
O202	O	1.238932	1.071690	-0.274047
O203	O	1.572266	1.405024	0.059286
O204	O	1.905599	1.738357	0.392620
H205	H	1.203837	1.101699	-0.234095
H206	H	1.537170	1.435032	0.099238
H207	H	1.870504	1.768366	0.432571
O208	O	1.030108	1.071706	-0.482546
O209	O	1.363441	1.405039	-0.149212
O210	O	1.696775	1.738373	0.184121
H211	H	1.043532	1.059046	-0.544163
H212	H	1.376866	1.392380	-0.210830
H213	H	1.710199	1.725713	0.122504
H214	H	0.433876	0.376243	-0.286947
H215	H	0.767209	0.709577	0.046386
H216	H	1.100542	1.042910	0.379719
O217	O	0.423202	0.219721	-0.482730
O218	O	0.756535	0.553054	-0.149397
O219	O	1.089869	0.886388	0.183936
H220	H	0.465506	0.191765	-0.517704
H221	H	0.798840	0.525099	-0.184370
H222	H	1.132173	0.858432	0.148963
O223	O	1.030033	0.935056	-0.482491
O224	O	1.363366	1.268390	-0.149158
O225	O	1.696700	1.601723	0.184175
H226	H	0.995111	0.968961	-0.517367
H227	H	1.328444	1.302295	-0.184034
H228	H	1.661778	1.635628	0.149299
O229	O	1.030009	0.386832	-0.837294
O230	O	1.363342	0.720165	-0.503961
O231	O	1.696676	1.053499	-0.170627
H232	H	1.043423	0.436242	-0.821541
H233	H	1.376756	0.769576	-0.488208
H234	H	1.710089	1.102909	-0.154875
H235	H	1.225566	0.230144	-0.826534
H236	H	1.558899	0.563477	-0.493201
H237	H	1.892233	0.896811	-0.159868
O238	O	1.238739	0.670860	-0.273941
O239	O	1.572073	1.004193	0.059392
O240	O	1.905406	1.337527	0.392726
H241	H	1.203645	0.700870	-0.233989
H242	H	1.536979	1.034203	0.099344
H243	H	1.870312	1.367536	0.432677
H244	H	1.043142	0.542909	-0.469155
H245	H	1.376476	0.876242	-0.135821
H246	H	1.709809	1.209576	0.197512
H247	H	1.225608	0.230087	-1.079391
H248	H	1.558941	0.563420	-0.746058
H249	H	1.892275	0.896753	-0.412724
O250	O	1.238862	0.935036	-0.274001
O251	O	1.572195	1.268369	0.059332
O252	O	1.905528	1.601702	0.392666
H253	H	1.273814	0.968935	-0.239142
H254	H	1.607148	1.302268	0.094191
H255	H	1.940481	1.635601	0.427524
O256	O	1.029979	0.386864	-0.666888
O257	O	1.363312	0.720197	-0.333555
O258	O	1.696645	1.053530	-0.000222
H259	H	0.995056	0.414845	-0.709149
H260	H	1.328389	0.748178	-0.375815
H261	H	1.661723	1.081512	-0.042482
H262	H	0.835453	0.376206	-0.286906
H263	H	1.168787	0.709540	0.046428
H264	H	1.502120	1.042873	0.379761
H265	H	0.582750	0.230343	-0.469431
H266	H	0.916084	0.563676	-0.136097
H267	H	1.249417	0.897009	0.197236
H268	H	0.582603	0.376229	-0.286926
H269	H	0.915936	0.709563	0.046407
H270	H	1.249270	1.042896	0.379740
H271	H	1.225548	0.230179	-0.677816
H272	H	1.558881	0.563512	-0.344483
H273	H	1.892214	0.896846	-0.011149
O274	O	1.238670	0.534199	-0.273890
O275	O	1.572004	0.867532	0.059443
O276	O	1.905337	1.200866	0.392776
H277	H	1.273618	0.568099	-0.239028
H278	H	1.606951	0.901433	0.094305
H279	H	1.940284	1.234766	0.427638
O280	O	0.675886	0.386844	-0.273622
O281	O	1.009219	0.720178	0.059711
O282	O	1.342552	1.053511	0.393045
H283	H	0.638540	0.418916	-0.308684
H284	H	0.971873	0.752249	0.024650
H285	H	1.305207	1.085583	0.357983
H286	H	1.225589	0.230123	-0.930663
H287	H	1.558923	0.563456	-0.597329
H288	H	1.892256	0.896789	-0.263996
O289	O	1.030055	0.386775	-1.090154
O290	O	1.363388	0.720108	-0.756821
O291	O	1.696722	1.053441	-0.423488
H292	H	0.995106	0.414767	-1.047868
H293	H	1.328439	0.748101	-0.714534
H294	H	1.661773	1.081434	-0.381201
O295	O	1.030024	0.386815	-0.919739
O296	O	1.363358	0.720148	-0.586406
O297	O	1.696691	1.053482	-0.253072
H298	H	0.995105	0.414799	-0.961999
H299	H	1.328438	0.748132	-0.628666
H300	H	1.661772	1.081466	-0.295333
H301	H	0.835597	0.230321	-0.469407
H302	H	1.168931	0.563655	-0.136073
H303	H	1.502264	0.896988	0.197260
