data_functionalizedCrystal
_audit_creation_method	'MofGen! by Chris Wilmer'
_symmetry_space_group_name_H-M	'P1'
_symmetry_Int_Tables_number	1
_symmetry_cell_setting	triclinic
loop_
_symmetry_equiv_pos_as_xyz
  x,y,z
_cell_length_a	19.121459
_cell_length_b	19.805407
_cell_length_c	19.121256
_cell_angle_alpha	87.549788
_cell_angle_beta	90.113108
_cell_angle_gamma	92.416784
loop_
_atom_site_label
_atom_site_type_symbol
_atom_site_fract_x
_atom_site_fract_y
_atom_site_fract_z
Zn1	Zn	-0.296141	-1.062643	0.384547
Zn2	Zn	-0.046141	-0.812643	0.634547
Zn3	Zn	0.203859	-0.562643	0.884547
Zn4	Zn	0.453859	-0.312643	1.134547
Zn5	Zn	-0.408348	-1.062173	0.262317
Zn6	Zn	-0.158348	-0.812173	0.512317
Zn7	Zn	0.091652	-0.562173	0.762317
Zn8	Zn	0.341652	-0.312173	1.012317
Zn9	Zn	-0.291129	-0.944457	0.267320
Zn10	Zn	-0.041129	-0.694457	0.517320
Zn11	Zn	0.208871	-0.444457	0.767320
Zn12	Zn	0.458871	-0.194457	1.017320
Zn13	Zn	-0.413336	-0.954035	0.379510
Zn14	Zn	-0.163336	-0.704035	0.629510
Zn15	Zn	0.086664	-0.454035	0.879510
Zn16	Zn	0.336664	-0.204035	1.129510
O17	O	-0.352238	-1.005827	0.323424
O18	O	-0.102238	-0.755827	0.573424
O19	O	0.147762	-0.505827	0.823424
O20	O	0.397762	-0.255827	1.073424
O21	O	-0.311035	-1.157298	0.368348
O22	O	-0.061035	-0.907298	0.618348
O23	O	0.188965	-0.657298	0.868348
O24	O	0.438965	-0.407298	1.118348
O25	O	-0.388613	-1.042352	0.164876
O26	O	-0.138613	-0.792352	0.414876
O27	O	0.111387	-0.542352	0.664876
O28	O	0.361387	-0.292352	0.914876
O29	O	-0.193692	-0.956323	0.287073
O30	O	0.056308	-0.706323	0.537073
O31	O	0.306308	-0.456323	0.787073
O32	O	0.556308	-0.206323	1.037073
O33	O	-0.393473	-1.156953	0.278546
O34	O	-0.143473	-0.906953	0.528546
O35	O	0.106527	-0.656953	0.778546
O36	O	0.356527	-0.406953	1.028546
O37	O	-0.197374	-1.043154	0.373199
O38	O	0.052626	-0.793154	0.623199
O39	O	0.302626	-0.543154	0.873199
O40	O	0.552626	-0.293154	1.123199
O41	O	-0.302494	-0.955867	0.168551
O42	O	-0.052494	-0.705867	0.418551
O43	O	0.197506	-0.455867	0.668551
O44	O	0.447506	-0.205867	0.918551
O45	O	-0.307330	-0.851010	0.282188
O46	O	-0.057330	-0.601010	0.532188
O47	O	0.192670	-0.351010	0.782188
O48	O	0.442670	-0.101010	1.032188
O49	O	-0.401975	-0.972647	0.478283
O50	O	-0.151975	-0.722647	0.728283
O51	O	0.098025	-0.472647	0.978283
O52	O	0.348025	-0.222647	1.228283
O53	O	-0.397115	-0.858046	0.364613
O54	O	-0.147115	-0.608046	0.614613
O55	O	0.102885	-0.358046	0.864613
O56	O	0.352885	-0.108046	1.114613
O57	O	-0.315872	-1.052441	0.481984
O58	O	-0.065872	-0.802441	0.731984
O59	O	0.184128	-0.552441	0.981984
O60	O	0.434128	-0.302441	1.231984
O61	O	-0.507112	-1.051640	0.273661
O62	O	-0.257112	-0.801640	0.523661
O63	O	-0.007112	-0.551640	0.773661
O64	O	0.242888	-0.301640	1.023661
O65	O	-0.510777	-0.972191	0.359762
O66	O	-0.260777	-0.722191	0.609762
O67	O	-0.010777	-0.472191	0.859762
O68	O	0.239223	-0.222191	1.109762
C69	C	-0.352221	-0.829969	0.323397
C70	C	-0.102221	-0.579969	0.573397
C71	C	0.147779	-0.329969	0.823397
C72	C	0.397779	-0.079969	1.073397
C73	C	-0.352231	-0.754737	0.323401
C74	C	-0.102231	-0.504737	0.573401
C75	C	0.147769	-0.254737	0.823401
C76	C	0.397769	-0.004737	1.073401
C77	C	-0.399045	-0.723075	0.366244
C78	C	-0.149045	-0.473075	0.616244
C79	C	0.100955	-0.223075	0.866244
C80	C	0.350955	0.026925	1.116244
C81	C	-0.399045	-0.652387	0.366252
C82	C	-0.149045	-0.402387	0.616252
C83	C	0.100955	-0.152387	0.866252
C84	C	0.350955	0.097613	1.116252
C85	C	-0.352234	-0.613363	0.323413
C86	C	-0.102234	-0.363363	0.573413
C87	C	0.147766	-0.113363	0.823413
C88	C	0.397766	0.136637	1.073413
C89	C	-0.305415	-0.645030	0.280569
C90	C	-0.055415	-0.395030	0.530569
C91	C	0.194585	-0.145030	0.780569
C92	C	0.444585	0.104970	1.030569
C93	C	-0.305411	-0.715717	0.280565
C94	C	-0.055411	-0.465717	0.530565
C95	C	0.194589	-0.215717	0.780565
C96	C	0.444589	0.034283	1.030565
C97	C	-0.305425	-0.359958	0.280584
C98	C	-0.055425	-0.109958	0.530584
C99	C	0.194575	0.140042	0.780584
C100	C	0.444575	0.390042	1.030584
C101	C	-0.305434	-0.289266	0.280590
C102	C	-0.055434	-0.039266	0.530590
C103	C	0.194566	0.210734	0.780590
C104	C	0.444566	0.460734	1.030590
C105	C	-0.399059	-0.296627	0.366271
C106	C	-0.149059	-0.046627	0.616271
C107	C	0.100941	0.203373	0.866271
C108	C	0.350941	0.453373	1.116271
C109	C	-0.399056	-0.367314	0.366267
C110	C	-0.149056	-0.117314	0.616267
C111	C	0.100944	0.132686	0.866267
C112	C	0.350944	0.382686	1.116267
C113	C	-0.352235	-0.398976	0.323426
C114	C	-0.102235	-0.148976	0.573426
C115	C	0.147765	0.101024	0.823426
C116	C	0.397765	0.351024	1.073426
C117	C	-0.352234	-0.475624	0.323419
C118	C	-0.102234	-0.225624	0.573419
C119	C	0.147766	0.024376	0.823419
C120	C	0.397766	0.274376	1.073419
C121	C	-0.352237	-0.536716	0.323416
C122	C	-0.102237	-0.286716	0.573416
C123	C	0.147763	-0.036716	0.823416
C124	C	0.397763	0.213284	1.073416
C125	C	-0.534382	-1.012923	0.315637
C126	C	-0.284382	-0.762923	0.565637
C127	C	-0.034382	-0.512923	0.815637
C128	C	0.215618	-0.262923	1.065637
C129	C	-0.612304	-1.016021	0.312330
C130	C	-0.362304	-0.766021	0.562330
C131	C	-0.112304	-0.516021	0.812330
C132	C	0.137696	-0.266021	1.062330
C133	C	-1.052922	-1.035636	0.291358
C134	C	-0.802922	-0.785636	0.541358
C135	C	-0.552922	-0.535636	0.791358
C136	C	-0.302922	-0.285636	1.041358
C137	C	-0.979705	-1.032718	0.294467
C138	C	-0.729705	-0.782718	0.544467
C139	C	-0.479705	-0.532718	0.794467
C140	C	-0.229705	-0.282718	1.044467
C141	C	-0.945032	-0.989863	0.340816
C142	C	-0.695032	-0.739863	0.590816
C143	C	-0.445032	-0.489863	0.840816
C144	C	-0.195032	-0.239863	1.090816
C145	C	-0.983578	-0.949918	0.384053
C146	C	-0.733578	-0.699918	0.634053
C147	C	-0.483578	-0.449918	0.884053
C148	C	-0.233578	-0.199918	1.134053
C149	C	-1.056793	-0.952832	0.380939
C150	C	-0.806793	-0.702832	0.630939
C151	C	-0.556793	-0.452832	0.880939
C152	C	-0.306793	-0.202832	1.130939
C153	C	-0.724066	-0.978990	0.352453
C154	C	-0.474066	-0.728990	0.602453
C155	C	-0.224066	-0.478990	0.852453
C156	C	0.025934	-0.228990	1.102453
C157	C	-0.650846	-0.976080	0.355565
C158	C	-0.400846	-0.726080	0.605565
C159	C	-0.150846	-0.476080	0.855565
C160	C	0.099154	-0.226080	1.105565
C161	C	-0.646978	-1.058880	0.265978
C162	C	-0.396978	-0.808880	0.515978
C163	C	-0.146978	-0.558880	0.765978
C164	C	0.103022	-0.308880	1.015978
C165	C	-0.720195	-1.061794	0.262872
C166	C	-0.470195	-0.811794	0.512872
C167	C	-0.220195	-0.561794	0.762872
C168	C	0.029805	-0.311794	1.012872
C169	C	-0.758735	-1.021846	0.306106
C170	C	-0.508735	-0.771846	0.556106
C171	C	-0.258735	-0.521846	0.806106
C172	C	-0.008735	-0.271846	1.056106
C173	C	-0.870193	-0.986882	0.343997
C174	C	-0.620193	-0.736882	0.593997
C175	C	-0.370193	-0.486882	0.843997
C176	C	-0.120193	-0.236882	1.093997
C177	C	-0.833572	-1.024824	0.302922
C178	C	-0.583572	-0.774824	0.552922
C179	C	-0.333572	-0.524824	0.802922
C180	C	-0.083572	-0.274824	1.052922
C181	C	-0.169385	-0.998722	0.331256
C182	C	0.080615	-0.748722	0.581256
C183	C	0.330615	-0.498722	0.831256
C184	C	0.580615	-0.248722	1.081256
C185	C	-0.091463	-0.995695	0.334593
C186	C	0.158537	-0.745695	0.584593
C187	C	0.408537	-0.495695	0.834593
C188	C	0.658537	-0.245695	1.084593
C189	C	-0.360039	-1.013665	0.506283
C190	C	-0.110039	-0.763665	0.756283
C191	C	0.139961	-0.513665	1.006283
C192	C	0.389961	-0.263665	1.256283
C193	C	-0.363363	-1.017005	0.584206
C194	C	-0.113363	-0.767005	0.834206
C195	C	0.136637	-0.517005	1.084206
C196	C	0.386637	-0.267005	1.334206
C197	C	-0.352252	-0.182371	0.323444
C198	C	-0.102252	0.067629	0.573444
C199	C	0.147748	0.317629	0.823444
C200	C	0.397748	0.567629	1.073444
C201	C	-0.352245	-0.257602	0.323436
C202	C	-0.102245	-0.007602	0.573436
C203	C	0.147755	0.242398	0.823436
C204	C	0.397755	0.492398	1.073436
C205	C	-0.320087	-0.973548	0.622728
C206	C	-0.070087	-0.723548	0.872728
C207	C	0.179913	-0.473548	1.122728
C208	C	0.429913	-0.223548	1.372728
C209	C	-0.323217	-0.976684	0.695945
C210	C	-0.073217	-0.726684	0.945945
C211	C	0.176783	-0.476684	1.195945
C212	C	0.426783	-0.226684	1.445945
C213	C	-0.369618	-1.023281	0.730640
C214	C	-0.119618	-0.773281	0.980640
C215	C	0.130382	-0.523281	1.230640
C216	C	0.380382	-0.273281	1.480640
C217	C	-0.412898	-1.066740	0.692113
C218	C	-0.162898	-0.816740	0.942113
C219	C	0.087102	-0.566740	1.192113
C220	C	0.337102	-0.316740	1.442113
C221	C	-0.409772	-1.063600	0.618896
C222	C	-0.159772	-0.813600	0.868896
C223	C	0.090228	-0.563600	1.118896
C224	C	0.340228	-0.313600	1.368896
C225	C	-0.381303	-1.035010	0.951609
C226	C	-0.131303	-0.785010	1.201609
C227	C	0.118697	-0.535010	1.451609
C228	C	0.368697	-0.285010	1.701609
C229	C	-0.384424	-1.038148	1.024830
C230	C	-0.134424	-0.788148	1.274830
C231	C	0.115576	-0.538148	1.524830
C232	C	0.365576	-0.288148	1.774830
C233	C	-0.294743	-0.948091	1.028658
C234	C	-0.044743	-0.698091	1.278658
C235	C	0.205257	-0.448091	1.528658
C236	C	0.455257	-0.198091	1.778658
C237	C	-0.291618	-0.944958	0.955441
C238	C	-0.041618	-0.694958	1.205441
C239	C	0.208382	-0.444958	1.455441
C240	C	0.458382	-0.194958	1.705441
C241	C	-0.334901	-0.988415	0.916920
C242	C	-0.084901	-0.738415	1.166920
C243	C	0.165099	-0.488415	1.416920
C244	C	0.415099	-0.238415	1.666920
C245	C	-0.372816	-1.026489	0.805479
C246	C	-0.122816	-0.776489	1.055479
C247	C	0.127184	-0.526489	1.305479
C248	C	0.377184	-0.276489	1.555479
C249	C	-0.331706	-0.985203	0.842081
C250	C	-0.081706	-0.735203	1.092081
C251	C	0.168294	-0.485203	1.342081
C252	C	0.418294	-0.235203	1.592081
C253	C	-0.344481	-0.998019	1.141275
C254	C	-0.094481	-0.748019	1.391275
C255	C	0.155519	-0.498019	1.641275
C256	C	0.405519	-0.248019	1.891275
C257	C	-0.341149	-0.994691	1.063352
C258	C	-0.091149	-0.744691	1.313352
C259	C	0.158851	-0.494691	1.563352
C260	C	0.408851	-0.244691	1.813352
H261	H	-0.437167	-0.626610	0.401138
H262	H	-0.187167	-0.376610	0.651138
H263	H	0.062833	-0.126610	0.901138
H264	H	0.312833	0.123390	1.151138
H265	H	-1.081148	-1.070537	0.253620
H266	H	-0.831148	-0.820537	0.503620
H267	H	-0.581148	-0.570537	0.753620
H268	H	-0.331148	-0.320537	1.003620
Br269	Br	-0.241900	-0.236305	0.222447
Br270	Br	0.008100	0.013695	0.472447
Br271	Br	0.258100	0.263695	0.722447
Br272	Br	0.508100	0.513695	0.972447
H273	H	-0.267306	-0.385728	0.245695
H274	H	-0.017306	-0.135728	0.495695
H275	H	0.232694	0.114272	0.745695
H276	H	0.482694	0.364272	0.995695
Br277	Br	-0.927402	-1.086934	0.235795
Br278	Br	-0.677402	-0.836934	0.485795
Br279	Br	-0.427402	-0.586934	0.735795
Br280	Br	-0.177402	-0.336934	0.985795
Br281	Br	-0.462592	-0.420272	0.424403
Br282	Br	-0.212592	-0.170272	0.674403
Br283	Br	0.037408	0.079728	0.924403
Br284	Br	0.287408	0.329728	1.174403
H285	H	-0.267297	-0.613251	0.245692
H286	H	-0.017297	-0.363251	0.495692
H287	H	0.232703	-0.113251	0.745692
H288	H	0.482703	0.136749	0.995692
Br289	Br	-0.475879	-1.129974	0.739196
Br290	Br	-0.225879	-0.879974	0.989196
Br291	Br	0.024121	-0.629974	1.239196
Br292	Br	0.274121	-0.379974	1.489196
H293	H	-1.088173	-0.920311	0.416150
H294	H	-0.838173	-0.670311	0.666150
H295	H	-0.588173	-0.420311	0.916150
H296	H	-0.338173	-0.170311	1.166150
H297	H	-0.437181	-0.270840	0.401157
H298	H	-0.187181	-0.020840	0.651157
H299	H	0.062819	0.229160	0.901157
H300	H	0.312819	0.479160	1.151157
H301	H	-0.267287	-0.741496	0.245682
H302	H	-0.017287	-0.491496	0.495682
H303	H	0.232713	-0.241496	0.745682
H304	H	0.482713	0.008504	0.995682
Br305	Br	-0.823130	-0.928729	0.406903
Br306	Br	-0.573130	-0.678729	0.656903
Br307	Br	-0.323130	-0.428729	0.906903
Br308	Br	-0.073130	-0.178729	1.156903
Br309	Br	-0.767247	-1.119962	0.199973
Br310	Br	-0.517247	-0.869962	0.449973
Br311	Br	-0.267247	-0.619962	0.699973
Br312	Br	-0.017247	-0.369962	0.949973
H313	H	-0.259506	-0.912710	1.060029
H314	H	-0.009506	-0.662710	1.310029
H315	H	0.240494	-0.412710	1.560029
H316	H	0.490494	-0.162710	1.810029
Br317	Br	-0.228639	-0.881720	0.908360
Br318	Br	0.021361	-0.631720	1.158360
Br319	Br	0.271361	-0.381720	1.408360
Br320	Br	0.521361	-0.131720	1.658360
Br321	Br	-0.257106	-0.910310	0.575650
Br322	Br	-0.007106	-0.660310	0.825650
Br323	Br	0.242894	-0.410310	1.075650
Br324	Br	0.492894	-0.160310	1.325650
Br325	Br	-0.594671	-1.113092	0.207306
Br326	Br	-0.344671	-0.863092	0.457306
Br327	Br	-0.094671	-0.613092	0.707306
Br328	Br	0.155329	-0.363092	0.957306
Br329	Br	-0.462583	-0.776029	0.424380
Br330	Br	-0.212583	-0.526029	0.674380
Br331	Br	0.037417	-0.276029	0.924380
Br332	Br	0.287417	-0.026029	1.174380
H333	H	-0.287980	-0.941294	0.727307
H334	H	-0.037980	-0.691294	0.977307
H335	H	0.212020	-0.441294	1.227307
H336	H	0.462020	-0.191294	1.477307
Br337	Br	-0.468511	-1.122575	0.566616
Br338	Br	-0.218511	-0.872575	0.816616
Br339	Br	0.031489	-0.622575	1.066616
Br340	Br	0.281489	-0.372575	1.316616
H341	H	-0.622618	-0.941180	0.393310
H342	H	-0.372618	-0.691180	0.643310
H343	H	-0.122618	-0.441180	0.893310
H344	H	0.127382	-0.191180	1.143310
Br345	Br	-0.447393	-1.101399	1.071916
Br346	Br	-0.197393	-0.851399	1.321916
Br347	Br	0.052607	-0.601399	1.571916
Br348	Br	0.302607	-0.351399	1.821916
Br349	Br	-0.936522	-0.891755	0.446954
Br350	Br	-0.686522	-0.641755	0.696954
Br351	Br	-0.436522	-0.391755	0.946954
Br352	Br	-0.186522	-0.141755	1.196954
H353	H	-0.755436	-0.946456	0.387653
H354	H	-0.505436	-0.696456	0.637653
H355	H	-0.255436	-0.446456	0.887653
H356	H	-0.005436	-0.196456	1.137653
Br357	Br	-0.440040	-1.093992	0.899340
Br358	Br	-0.190040	-0.843992	1.149340
Br359	Br	0.059960	-0.593992	1.399340
Br360	Br	0.309960	-0.343992	1.649340
H361	H	-0.861807	-1.059714	0.265183
H362	H	-0.611807	-0.809714	0.515183
H363	H	-0.361807	-0.559714	0.765183
H364	H	-0.111807	-0.309714	1.015183
Br365	Br	-0.268734	-0.921967	0.794995
Br366	Br	-0.018734	-0.671967	1.044995
Br367	Br	0.231266	-0.421967	1.294995
Br368	Br	0.481266	-0.171967	1.544995
H369	H	-0.410597	-1.064428	0.833736
H370	H	-0.160597	-0.814428	1.083736
H371	H	0.089403	-0.564428	1.333736
H372	H	0.339403	-0.314428	1.583736
