data_functionalizedCrystal
_audit_creation_method	'MofGen! by Chris Wilmer'
_symmetry_space_group_name_H-M	'P1'
_symmetry_Int_Tables_number	1
_symmetry_cell_setting	triclinic
loop_
_symmetry_equiv_pos_as_xyz
  x,y,z
_cell_length_a	14.971482
_cell_length_b	16.109304
_cell_length_c	14.048226
_cell_angle_alpha	89.996377
_cell_angle_beta	89.994098
_cell_angle_gamma	83.537623
loop_
_atom_site_label
_atom_site_type_symbol
_atom_site_fract_x
_atom_site_fract_y
_atom_site_fract_z
O1	O	1.186794	0.108333	-0.079142
O2	O	0.926375	0.121311	-0.079146
O3	O	1.063737	-0.006200	-0.079145
O4	O	1.049432	0.235844	-0.079144
O5	O	1.063721	-0.006208	0.079177
O6	O	0.926358	0.121303	0.079175
O7	O	1.186777	0.108325	0.079179
Zn8	Zn	1.056565	0.114813	0.104314
Zn9	Zn	1.056587	0.114823	-0.104281
O10	O	1.049415	0.235836	0.079178
C11	C	0.893043	0.120727	0.000014
C12	C	0.793748	0.118990	0.000012
C13	C	0.747095	0.118167	0.086314
C14	C	0.653799	0.116521	0.086315
C15	C	0.607157	0.115704	0.000013
C16	C	0.653816	0.116524	-0.086295
C17	C	0.747111	0.118164	-0.086295
C18	C	0.459359	0.113108	-0.086289
C19	C	0.366057	0.111469	-0.086290
C20	C	0.366047	0.111465	0.086321
C21	C	0.459342	0.113105	0.086321
C22	C	0.505995	0.113927	0.000012
C23	C	1.063149	-0.037179	0.000014
C24	C	1.061410	-0.129477	0.000007
C25	C	1.057403	-0.341815	-0.086290
C26	C	1.055761	-0.428537	-0.086289
C27	C	1.055747	-0.428542	0.086321
C28	C	1.057383	-0.341821	0.086320
C29	C	1.058215	-0.298460	0.000011
C30	C	1.054938	-0.471904	0.000014
C31	C	1.053157	-0.565932	0.000015
C32	C	1.059993	-0.204426	0.000009
C33	C	1.220110	0.108909	0.000017
C34	C	1.319404	0.110647	0.000012
C35	C	1.050003	0.266816	0.000017
C36	C	1.051742	0.359113	0.000017
N37	N	1.056557	0.114806	0.246675
N38	N	1.056602	0.114824	-0.246642
C39	C	1.117400	0.058367	0.296494
C40	C	1.117406	0.058367	0.396151
C41	C	1.056573	0.114810	0.445988
C42	C	0.995723	0.171251	0.396163
C43	C	0.995713	0.171247	0.296507
C44	C	0.995749	0.171257	0.603877
C45	C	0.995759	0.171262	0.703540
C46	C	1.117442	0.058377	0.703521
C47	C	1.117432	0.058373	0.603865
C48	C	1.056583	0.114815	0.554047
H49	H	0.615821	0.115838	0.156591
H50	H	0.946196	0.217216	0.563318
O51	O	1.183010	-0.002514	0.242741
H52	H	1.225312	-0.041765	0.294130
O53	O	0.315744	0.110583	0.179421
H54	H	0.325658	0.167530	0.220783
O55	O	0.797436	0.119056	-0.179377
H56	H	0.749329	0.118221	-0.239389
O57	O	0.930130	0.232120	0.757299
H58	H	0.887802	0.271355	0.705917
H59	H	1.058039	-0.306520	0.156600
O60	O	1.183045	-0.002490	0.449888
H61	H	1.225357	-0.041727	0.398491
O62	O	0.315744	0.110582	-0.179369
H63	H	0.363858	0.111417	-0.239385
O64	O	0.930116	0.232134	0.449916
H65	H	0.887803	0.271376	0.398528
O66	O	0.797393	0.119059	0.179402
H67	H	0.847898	0.063189	0.183536
O68	O	1.054864	-0.475290	-0.179376
H69	H	1.116107	-0.466006	-0.220770
O70	O	0.509682	0.113999	-0.179377
H71	H	0.461575	0.113166	-0.239389
H72	H	1.058078	-0.306513	-0.156568
H73	H	1.166971	0.012417	0.563288
H74	H	0.615833	0.115852	-0.156564
O75	O	1.054876	-0.475312	0.179410
H76	H	1.053619	-0.542901	0.164914
O77	O	1.183077	-0.002506	0.757239
H78	H	1.145453	-0.042984	0.802647
O79	O	0.509652	0.114014	0.179401
H80	H	0.461540	0.113169	0.239417
O81	O	0.930095	0.232123	0.242766
H82	H	0.887801	0.271378	0.294161
