data_functionalizedCrystal
_audit_creation_method	'MofGen! by Chris Wilmer'
_symmetry_space_group_name_H-M	'P1'
_symmetry_Int_Tables_number	1
_symmetry_cell_setting	triclinic
loop_
_symmetry_equiv_pos_as_xyz
  x,y,z
_cell_length_a	16.120530
_cell_length_b	29.839131
_cell_length_c	16.120297
_cell_angle_alpha	92.867727
_cell_angle_beta	90.128140
_cell_angle_gamma	87.136742
loop_
_atom_site_label
_atom_site_type_symbol
_atom_site_fract_x
_atom_site_fract_y
_atom_site_fract_z
Zn1	Zn	1.247310	-0.227600	-0.534529
Zn2	Zn	1.747310	0.272400	-0.034529
Zn3	Zn	1.254220	-0.299116	-0.395460
Zn4	Zn	1.754220	0.200884	0.104540
Zn5	Zn	1.115305	-0.220008	-0.388448
Zn6	Zn	1.615305	0.279992	0.111552
Zn7	Zn	1.108176	-0.298702	-0.527429
Zn8	Zn	1.608176	0.201298	-0.027429
O9	O	1.181253	-0.261356	-0.461466
O10	O	1.681253	0.238644	0.038534
O11	O	1.364591	-0.240437	-0.521987
O12	O	1.864591	0.259563	-0.021987
O13	O	1.241667	-0.285618	-0.278165
O14	O	1.741667	0.214382	0.221835
O15	O	1.132907	-0.158152	-0.407863
O16	O	1.632907	0.341848	0.092137
O17	O	1.369668	-0.292979	-0.419813
O18	O	1.869668	0.207021	0.080187
O19	O	1.229891	-0.163729	-0.515187
O20	O	1.729891	0.336271	-0.015187
O21	O	1.139607	-0.227498	-0.273013
O22	O	1.639607	0.272502	0.226987
O23	O	0.997995	-0.227097	-0.400978
O24	O	1.497995	0.272903	0.099022
O25	O	1.120758	-0.292274	-0.644736
O26	O	1.620758	0.207726	-0.144736
O27	O	0.992758	-0.284913	-0.503087
O28	O	1.492758	0.215087	-0.003087
O29	O	1.222979	-0.240035	-0.649952
O30	O	1.722979	0.259965	-0.149952
O31	O	1.234755	-0.361925	-0.412929
O32	O	1.734755	0.138075	0.087071
O33	O	1.127458	-0.361621	-0.509886
O34	O	1.627458	0.138379	-0.009886
C35	C	0.965204	-0.255137	-0.450502
C36	C	1.465204	0.244863	0.049498
C37	C	0.872777	-0.252487	-0.445831
C38	C	1.372777	0.247513	0.054169
C39	C	1.181105	-0.378074	-0.461418
C40	C	1.681105	0.121926	0.038582
C41	C	1.181116	-0.428009	-0.461428
C42	C	1.681116	0.071991	0.038572
C43	C	0.703550	-0.247640	-0.437311
C44	C	1.203550	0.252360	0.062689
C45	C	0.659793	-0.275108	-0.485683
C46	C	1.159793	0.224892	0.014317
C47	C	0.565629	-0.272411	-0.480942
C48	C	1.065629	0.227589	0.019058
C49	C	0.797722	-0.250336	-0.442050
C50	C	1.297722	0.249664	0.057950
C51	C	1.237215	-0.737807	-0.411063
C52	C	1.737215	-0.237807	0.088937
C53	C	1.237316	-0.925484	-0.411101
C54	C	1.737316	-0.425484	0.088899
O55	O	1.284896	-0.949877	-0.368241
O56	O	1.784896	-0.449877	0.131759
N57	N	1.181422	-0.948805	-0.461538
N58	N	1.681422	-0.448805	0.038462
C59	C	1.125502	-0.925204	-0.511973
C60	C	1.625502	-0.425204	-0.011973
O61	O	1.077969	-0.949347	-0.554880
O62	O	1.577969	-0.449347	-0.054880
C63	C	1.125406	-0.737528	-0.511940
C64	C	1.625406	-0.237528	-0.011940
C65	C	1.181298	-0.714210	-0.461493
C66	C	1.681298	-0.214210	0.038507
C67	C	1.293104	-0.714488	-0.360622
C68	C	1.793104	-0.214488	0.139378
C69	C	1.293075	-0.667572	-0.360609
C70	C	1.793075	-0.167572	0.139391
C71	C	1.237158	-0.643974	-0.411039
C72	C	1.737158	-0.143974	0.088961
C73	C	1.181269	-0.667293	-0.461481
C74	C	1.681269	-0.167293	0.038519
C75	C	1.069491	-0.713929	-0.562379
C76	C	1.569491	-0.213929	-0.062379
C77	C	1.069473	-0.667007	-0.562367
C78	C	1.569473	-0.167007	-0.062367
C79	C	1.125365	-0.643688	-0.511921
C80	C	1.625365	-0.143688	-0.011921
C81	C	1.125323	-0.596779	-0.511898
C82	C	1.625323	-0.096779	-0.011898
N83	N	1.181217	-0.573458	-0.461461
N84	N	1.681217	-0.073458	0.038539
C85	C	1.237135	-0.597055	-0.411031
C86	C	1.737135	-0.097055	0.088969
C87	C	1.125556	-1.023737	-0.511986
C88	C	1.625556	-0.523737	-0.011986
C89	C	1.125579	-1.070655	-0.511994
C90	C	1.625579	-0.570655	-0.011994
C91	C	1.237394	-1.070932	-0.411122
C92	C	1.737394	-0.570932	0.088878
C93	C	1.237366	-1.024012	-0.411111
C94	C	1.737366	-0.524012	0.088889
C95	C	1.181450	-1.000416	-0.461549
C96	C	1.681450	-0.500416	0.038451
C97	C	1.237069	-0.498527	-0.411009
C98	C	1.737069	0.001473	0.088991
C99	C	1.237033	-0.451606	-0.410999
C100	C	1.737033	0.048394	0.089001
C101	C	1.125221	-0.451334	-0.511873
C102	C	1.625221	0.048666	-0.011873
C103	C	1.125254	-0.498251	-0.511880
C104	C	1.625254	0.001749	-0.011880
C105	C	1.181185	-0.521846	-0.461446
C106	C	1.681185	-0.021846	0.038554
O107	O	1.077774	-0.572358	-0.554742
O108	O	1.577774	-0.072358	-0.054742
O109	O	1.284673	-0.572905	-0.368145
O110	O	1.784673	-0.072905	0.131855
C111	C	1.237244	-0.784724	-0.411076
C112	C	1.737244	-0.284724	0.088924
C113	C	1.181356	-0.808043	-0.461517
C114	C	1.681356	-0.308043	0.038483
C115	C	1.125439	-0.784445	-0.511947
C116	C	1.625439	-0.284445	-0.011947
C117	C	1.181379	-0.854961	-0.461525
C118	C	1.681379	-0.354961	0.038475
C119	C	1.237296	-0.878559	-0.411095
C120	C	1.737296	-0.378559	0.088905
C121	C	1.293190	-0.855238	-0.360658
C122	C	1.793190	-0.355238	0.139342
C123	C	1.293161	-0.808322	-0.360646
C124	C	1.793161	-0.308322	0.139354
C125	C	1.069544	-0.807766	-0.562384
C126	C	1.569544	-0.307766	-0.062384
C127	C	1.069577	-0.854683	-0.562391
C128	C	1.569577	-0.354683	-0.062391
C129	C	1.125494	-0.878280	-0.511962
C130	C	1.625494	-0.378280	-0.011962
C131	C	1.398145	-0.267601	-0.472474
C132	C	1.898145	0.232399	0.027526
C133	C	1.490571	-0.270262	-0.477165
C134	C	1.990571	0.229738	0.022835
C135	C	1.170302	-0.266955	-0.678360
C136	C	1.670302	0.233045	-0.178360
C137	C	1.165636	-0.269341	-0.770787
C138	C	1.665636	0.230659	-0.270787
C139	C	1.181423	-0.144185	-0.461535
C140	C	1.681423	0.355815	0.038465
C141	C	1.181496	-0.094253	-0.461564
C142	C	1.681496	0.405747	0.038436
C143	C	1.157086	-0.273687	-0.940011
C144	C	1.657086	0.226313	-0.440011
C145	C	1.205584	-0.248896	-0.983782
C146	C	1.705584	0.251104	-0.483782
C147	C	1.200826	-0.251314	-1.077944
C148	C	1.700826	0.248686	-0.577944
C149	C	1.161842	-0.271269	-0.845840
C150	C	1.661842	0.228731	-0.345840
C151	C	1.192208	-0.255748	-0.245419
C152	C	1.692208	0.244252	0.254581
C153	C	1.197036	-0.253240	-0.153001
C154	C	1.697036	0.246760	0.346999
H155	H	0.670294	-0.222100	-0.392340
H156	H	1.170294	0.277900	0.107660
N157	N	1.294130	-0.427794	-0.359457
N158	N	1.794130	0.072206	0.140543
N159	N	1.344051	-0.448873	-0.314436
N160	N	1.844051	0.051127	0.185564
H161	H	1.384375	-0.432057	-0.278035
H162	H	1.884375	0.067943	0.221965
N163	N	1.350213	-0.738587	-0.309087
N164	N	1.850213	-0.238587	0.190913
N165	N	1.323686	-0.762579	-0.254588
N166	N	1.823686	-0.262579	0.245412
H167	H	1.364018	-0.779595	-0.218183
H168	H	1.864018	-0.279595	0.281817
H169	H	1.079744	-0.517238	-0.552961
H170	H	1.579744	-0.017238	-0.052961
H171	H	1.024056	-0.873665	-0.603470
H172	H	1.524056	-0.373665	-0.103470
H173	H	0.693051	-0.300650	-0.530658
H174	H	1.193051	0.199350	-0.030658
N175	N	1.262172	-0.219998	-0.942099
N176	N	1.762172	0.280002	-0.442099
N177	N	1.307779	-0.196693	-0.983200
N178	N	1.807779	0.303307	-0.483200
H179	H	1.347746	-0.176286	-0.953760
H180	H	1.847746	0.323714	-0.453760
N181	N	1.294204	-0.522618	-0.359486
N182	N	1.794204	-0.022618	0.140514
N183	N	1.344094	-0.501784	-0.314453
N184	N	1.844094	-0.001784	0.185547
H185	H	1.384442	-0.518798	-0.278060
H186	H	1.884442	-0.018798	0.221940
N187	N	1.350175	-0.643763	-0.309075
N188	N	1.850175	-0.143763	0.190925
N189	N	1.400094	-0.664846	-0.264058
N190	N	1.900094	-0.164846	0.235942
H191	H	1.440426	-0.648034	-0.227661
H192	H	1.940426	-0.148034	0.272339
N193	N	1.100522	-0.302585	-0.981720
N194	N	1.600522	0.197415	-0.481720
N195	N	1.096695	-0.304531	-1.059262
N196	N	1.596695	0.195469	-0.559262
H197	H	1.056749	-0.324941	-1.088729
H198	H	1.556749	0.175059	-0.588729
N199	N	1.294462	-1.000202	-0.359574
N200	N	1.794462	-0.500202	0.140426
N201	N	1.344377	-1.021282	-0.314550
N202	N	1.844377	-0.521282	0.185450
H203	H	1.384705	-1.004468	-0.278150
H204	H	1.884705	-0.504468	0.221850
N205	N	1.294504	-1.095048	-0.359610
N206	N	1.794504	-0.595048	0.140390
N207	N	1.294510	-1.136939	-0.359631
N208	N	1.794510	-0.636939	0.140369
H209	H	1.334844	-1.153974	-0.323256
H210	H	1.834844	-0.653974	0.176744
N211	N	1.068468	-1.094464	-0.563514
N212	N	1.568468	-0.594464	-0.063514
N213	N	1.018548	-1.073384	-0.608534
N214	N	1.518548	-0.573384	-0.108534
H215	H	0.978213	-1.090197	-0.644925
H216	H	1.478213	-0.590197	-0.144925
H217	H	1.080020	-1.004527	-0.553060
H218	H	1.580020	-0.504527	-0.053060
N219	N	1.012431	-0.783668	-0.613912
N220	N	1.512431	-0.283668	-0.113912
N221	N	1.014014	-0.791032	-0.690924
N222	N	1.514014	-0.291032	-0.190924
H223	H	0.973673	-0.774014	-0.727318
H224	H	1.473673	-0.274014	-0.227318
N225	N	1.012391	-0.737734	-0.613914
N226	N	1.512391	-0.237734	-0.113914
N227	N	0.962479	-0.716650	-0.658937
N228	N	1.462479	-0.216650	-0.158937
H229	H	0.922149	-0.733461	-0.695339
H230	H	1.422149	-0.233461	-0.195339
H231	H	1.023940	-0.647797	-0.603443
H232	H	1.523940	-0.147797	-0.103443
N233	N	1.068104	-0.427217	-0.563371
N234	N	1.568104	0.072783	-0.063371
N235	N	1.068094	-0.385326	-0.563347
N236	N	1.568094	0.114674	-0.063347
H237	H	1.027757	-0.368292	-0.599720
H238	H	1.527757	0.131708	-0.099720
H239	H	1.338718	-0.874459	-0.319594
H240	H	1.838718	-0.374459	0.180406
N241	N	1.350258	-0.784512	-0.309108
N242	N	1.850258	-0.284512	0.190892
N243	N	1.400175	-0.805595	-0.264089
N244	N	1.900175	-0.305595	0.235911
H245	H	1.440503	-0.788783	-0.227687
H246	H	1.940503	-0.288783	0.272313
