data_functionalizedCrystal
_audit_creation_method	'MofGen! by Chris Wilmer'
_symmetry_space_group_name_H-M	'P1'
_symmetry_Int_Tables_number	1
_symmetry_cell_setting	triclinic
loop_
_symmetry_equiv_pos_as_xyz
  x,y,z
_cell_length_a	19.902436
_cell_length_b	21.606444
_cell_length_c	19.902436
_cell_angle_alpha	59.997120
_cell_angle_beta	89.998137
_cell_angle_gamma	59.995780
loop_
_atom_site_label
_atom_site_type_symbol
_atom_site_fract_x
_atom_site_fract_y
_atom_site_fract_z
Zr1	Zr	0.647314	0.677384	-0.088102
O2	O	0.540021	0.806523	-0.195397
O3	O	0.680206	0.548260	-0.055214
O4	O	0.680206	0.677389	-0.195390
O5	O	0.540020	0.677385	0.055356
O6	O	0.790785	0.677377	-0.195381
O7	O	0.540021	0.677393	-0.055221
O8	O	0.790784	0.446388	0.055368
O9	O	0.540020	0.908374	-0.195393
O10	O	0.776756	0.601356	-0.041177
O11	O	0.694231	0.601359	0.041339
O12	O	0.694232	0.753392	-0.123701
O13	O	0.611707	0.753395	-0.041185
Zr14	Zr	0.823672	0.677351	0.088270
Zr15	Zr	0.823674	0.677365	-0.088088
Zr16	Zr	0.647312	0.677370	0.088255
Zr17	Zr	0.647312	0.839825	-0.088097
Zr18	Zr	0.823674	0.514911	0.088264
O19	O	0.790780	0.806476	0.055381
O20	O	0.790783	0.806496	-0.195377
O21	O	0.540018	0.806503	0.055361
O22	O	0.930965	0.548213	0.195564
O23	O	0.930968	0.548233	-0.055194
O24	O	0.680203	0.548240	0.195544
O25	O	0.930966	0.677351	-0.055189
O26	O	0.790780	0.677346	0.195557
O27	O	0.680201	0.677358	0.195548
O28	O	0.930965	0.677342	0.055388
O29	O	0.680203	0.908358	-0.195382
O30	O	0.790783	0.446377	0.195549
O31	O	0.930966	0.446362	0.195561
O32	O	0.930967	0.446373	0.055380
O33	O	0.540019	0.908362	-0.055213
O34	O	0.680202	0.908347	-0.055201
O35	O	0.776754	0.601343	0.123868
O36	O	0.859279	0.601341	0.041352
O37	O	0.776754	0.753377	-0.041172
O38	O	0.694230	0.753379	0.041344
C39	C	0.735495	0.474180	0.000076
C40	C	0.735496	0.405220	0.000074
C41	C	0.778571	0.372821	-0.043000
C42	C	0.778574	0.308021	-0.042994
C43	C	0.735497	0.275625	0.000081
C44	C	0.692420	0.308027	0.043160
C45	C	0.692423	0.372821	0.043158
C46	C	0.692410	0.046717	0.043167
C47	C	0.692409	-0.018080	0.043162
C48	C	0.778562	-0.018083	-0.042986
C49	C	0.778565	0.046711	-0.042987
C50	C	0.735492	0.079104	0.000095
C51	C	0.735491	0.149366	0.000090
C52	C	0.735493	0.205368	0.000082
C53	C	0.514893	0.677392	0.000066
C54	C	0.440023	0.677400	0.000060
C55	C	0.168021	0.677357	0.000091
C56	C	0.144454	0.773264	-0.051717
C57	C	0.222292	0.773324	-0.052004
C58	C	0.302964	0.677379	0.000076
C59	C	0.300554	0.629754	-0.037888
C60	C	0.222327	0.630368	-0.038271
C61	C	0.223312	0.628388	0.089887
C62	C	0.300234	0.630190	0.089749
C63	C	0.379231	0.677386	0.000067
C64	C	0.091756	0.677347	0.000097
C65	C	0.956093	0.677344	0.000102
C66	C	1.030963	0.677336	0.000108
C67	C	0.735496	0.677385	-0.220513
C68	C	0.735496	0.677391	-0.295381
C69	C	0.735491	0.880556	0.000091
C70	C	0.735490	0.949516	0.000093
C71	C	0.735494	0.677375	-0.432443
C72	C	0.683440	0.773275	-0.513013
C73	C	0.683161	0.773313	-0.590904
C74	C	0.735492	0.677360	-0.567390
C75	C	0.697800	0.629466	-0.513112
C76	C	0.697408	0.630100	-0.435562
C77	C	0.825269	0.628674	-0.434713
C78	C	0.825132	0.630459	-0.513582
C79	C	0.735491	0.677347	-0.643653
C80	C	0.735492	0.677386	-0.356178
C81	C	0.735490	0.677350	0.220680
C82	C	0.735490	0.677344	0.295549
C83	C	0.956095	0.474156	0.000094
C84	C	1.030966	0.405187	0.000098
C85	C	0.735493	0.474162	0.220673
C86	C	0.735493	0.405196	0.295539
C87	C	0.956093	0.474138	0.220691
C88	C	1.030962	0.405164	0.295563
C89	C	0.514893	0.880597	-0.220524
C90	C	0.440024	0.949571	-0.295396
C91	C	0.514891	0.880580	0.000073
C92	C	0.440020	0.949548	0.000069
C93	C	0.735493	0.880573	-0.220506
C94	C	0.735493	0.949539	-0.295372
C95	C	1.023050	0.372807	-0.042987
C96	C	1.093392	0.308013	-0.043000
C97	C	1.171649	0.275596	0.000077
C98	C	1.179563	0.307983	0.043164
C99	C	1.109222	0.372780	0.043171
C100	C	0.778569	0.372801	0.373784
C101	C	0.778565	0.308009	0.444135
C102	C	0.735491	0.275609	0.436240
C103	C	0.692409	0.308011	0.357987
C104	C	0.692408	0.372806	0.287637
C105	C	1.109206	0.372772	0.287651
C106	C	1.179561	0.307972	0.357995
C107	C	1.171670	0.275562	0.436249
C108	C	1.093417	0.307960	0.444159
C109	C	1.023065	0.372763	0.373817
C110	C	0.361780	0.981972	-0.287484
C111	C	0.291425	1.046791	-0.357828
C112	C	0.299316	1.079205	-0.436082
C113	C	0.377568	1.046802	-0.443992
C114	C	0.447921	0.981988	-0.373649
C115	C	0.447936	0.981935	0.043147
C116	C	0.377594	1.046747	0.043140
C117	C	0.299337	1.079166	0.000061
C118	C	0.291423	1.046777	-0.043022
C119	C	0.361764	0.981970	-0.043020
C120	C	0.778577	0.981919	-0.287450
C121	C	0.778593	1.046711	-0.357788
C122	C	0.735520	1.079127	-0.436047
C123	C	0.692436	1.046742	-0.443966
C124	C	0.692425	0.981946	-0.373629
H125	H	0.813646	0.399197	-0.078080
H126	H	0.657333	0.399174	0.223930
H127	H	0.632382	0.662335	-0.550466
H128	H	1.228962	0.222795	0.493520
Cl129	Cl	0.752205	0.521452	-0.347458
H130	H	0.708424	0.810868	-0.630411
H131	H	0.657338	0.955590	-0.380091
H132	H	1.115679	0.399136	0.078261
Cl133	Cl	0.546308	0.941197	0.097307
Cl134	Cl	0.890016	0.522400	-0.484945
Cl135	Cl	0.581800	0.830817	-0.514034
H136	H	1.087005	0.281562	0.507883
Cl137	Cl	0.210863	1.160685	-0.524506
H138	H	1.243290	0.281579	0.078235
H139	H	0.357694	0.560192	0.131599
Cl140	Cl	0.885423	0.519604	-0.347035
Cl141	Cl	1.277925	0.267252	0.348032
H142	H	1.086931	0.281652	-0.078086
H143	H	0.813646	0.399174	0.380228
Cl144	Cl	0.832732	0.267286	0.542499
Cl145	Cl	0.832709	0.267311	-0.097165
Cl146	Cl	0.387563	1.087448	0.097310
H147	H	0.708566	0.811120	-0.514833
H148	H	0.227696	1.073183	-0.078097
H149	H	0.813639	0.073089	-0.078066
H150	H	0.959358	0.399129	0.380270
H151	H	0.511629	0.955609	-0.380101
Cl152	Cl	0.210915	1.160636	0.000069
Cl153	Cl	0.580915	0.831058	-0.651030
Cl154	Cl	0.351798	0.941257	-0.097174
Cl155	Cl	0.595429	0.682038	-0.435705
H156	H	0.735498	0.222849	0.493530
H157	H	0.856786	0.659573	-0.431839
Cl158	Cl	0.832715	-0.058812	-0.097144
Cl159	Cl	0.868614	0.684377	-0.571388
H160	H	1.115647	0.399151	0.223939
Cl161	Cl	0.638264	0.267268	0.348076
Cl162	Cl	0.351838	0.941236	-0.189116
H163	H	0.959335	0.399201	-0.078076
H164	H	0.733910	0.558906	-0.493316
Cl165	Cl	1.260071	0.194134	0.000061
H166	H	0.383984	1.073202	-0.507715
H167	H	0.243230	0.557738	0.128671
Cl168	Cl	0.193061	1.087509	-0.347865
Cl169	Cl	0.832733	0.941179	-0.189077
H170	H	0.813676	1.073073	-0.351323
H171	H	0.735536	1.131888	-0.493313
Cl172	Cl	0.638282	1.087511	-0.542355
Cl173	Cl	0.638252	-0.058806	0.097319
Cl174	Cl	0.638265	0.087428	0.097330
Cl175	Cl	0.220481	0.831013	-0.012692
Cl176	Cl	0.638271	0.413549	0.097313
Cl177	Cl	0.638278	0.267289	0.097324
H178	H	0.104543	0.810725	-0.117556
Cl179	Cl	0.083977	0.831384	-0.012608
Cl180	Cl	0.302946	0.680830	-0.138936
H181	H	0.220517	0.810923	-0.118242
H182	H	0.185784	0.664218	-0.104348
H183	H	0.241675	0.560002	-0.002976
H184	H	0.186999	0.659074	0.121599
Cl185	Cl	0.299671	0.683786	0.133547
Cl186	Cl	0.388268	0.520837	0.017567
