data_functionalizedCrystal
_audit_creation_method	'MofGen! by Chris Wilmer'
_symmetry_space_group_name_H-M	'P1'
_symmetry_Int_Tables_number	1
_symmetry_cell_setting	triclinic
loop_
_symmetry_equiv_pos_as_xyz
  x,y,z
_cell_length_a	12.594516
_cell_length_b	18.101398
_cell_length_c	18.101389
_cell_angle_alpha	89.991407
_cell_angle_beta	90.012519
_cell_angle_gamma	89.989142
loop_
_atom_site_label
_atom_site_type_symbol
_atom_site_fract_x
_atom_site_fract_y
_atom_site_fract_z
Zn1	Zn	-0.424001	-1.132198	0.418558
Zn2	Zn	-0.601969	-1.132127	0.294729
Zn3	Zn	-0.423989	-1.008357	0.294753
Zn4	Zn	-0.601922	-1.008341	0.418552
O5	O	-0.512970	-1.070256	0.356648
O6	O	-0.447634	-1.235822	0.402125
O7	O	-0.578374	-1.115686	0.191100
O8	O	-0.275045	-1.024822	0.311189
O9	O	-0.578386	-1.235769	0.311148
O10	O	-0.275054	-1.115808	0.402148
O11	O	-0.447613	-1.024753	0.191117
O12	O	-0.447567	-0.904722	0.311183
O13	O	-0.578306	-1.024794	0.522186
O14	O	-0.578294	-0.904710	0.402137
O15	O	-0.447588	-1.115791	0.522190
O16	O	-0.750909	-1.115669	0.311142
O17	O	-0.750874	-1.024724	0.402114
C18	C	-0.512925	-0.877845	0.356662
C19	C	-0.512931	-0.795531	0.356686
C20	C	-0.512988	-0.496440	0.356661
C21	C	-0.595636	-0.527782	0.413604
C22	C	-0.595379	-0.613401	0.413836
C23	C	-0.512961	-0.644823	0.356674
C24	C	-0.400857	-0.613748	0.377994
C25	C	-0.401352	-0.528103	0.378401
C26	C	-0.541456	-0.527993	0.278260
C27	C	-0.543918	-0.613643	0.278677
C28	C	-0.512938	-0.728682	0.356679
C29	C	-0.513003	-0.412581	0.356657
C30	C	-0.789511	-1.070207	0.356641
C31	C	-0.907817	-1.070254	0.356663
C32	C	-0.977090	-1.020784	0.406108
C33	C	-1.047930	-1.002743	0.338535
C34	C	-1.047776	-1.088363	0.424247
C35	C	-0.977098	-1.052177	0.289054
C36	C	-0.976938	-1.137829	0.374812
C37	C	-1.047746	-1.119813	0.307193
C38	C	-0.235349	-1.070325	0.356672
C39	C	-0.117044	-1.070354	0.356682
C40	C	-0.512943	-1.070299	0.549810
C41	C	-0.512932	-1.070317	0.632124
C42	C	-0.513012	-0.263418	0.356639
C43	C	-0.513018	-0.345732	0.356649
C44	C	-0.512920	-1.070256	0.164238
C45	C	-0.512632	-1.070381	0.081924
C46	C	-0.512732	-1.070360	0.931216
C47	C	-0.594715	-1.012909	0.899887
C48	C	-0.595095	-1.013065	0.814269
C49	C	-0.512831	-1.070338	0.782833
C50	C	-0.543288	-1.148369	0.813919
C51	C	-0.543827	-1.148049	0.899564
C52	C	-0.400111	-1.050458	0.899637
C53	C	-0.400761	-1.048722	0.813987
C54	C	-0.512886	-1.070330	0.698973
C55	C	-0.512681	-1.070373	1.015075
H56	H	-0.377204	-0.508137	0.435715
Br57	Br	-1.099131	-1.189616	0.237438
H58	H	-0.946181	-1.036835	0.231891
H59	H	-0.945735	-1.194916	0.390179
Br60	Br	-0.925375	-0.950937	0.475701
H61	H	-0.576035	-0.955202	0.793251
H62	H	-1.078821	-1.103639	0.481394
Br63	Br	-0.732987	-1.034543	0.935829
H64	H	-0.488091	-0.635033	0.233972
H65	H	-0.481256	-0.507723	0.235832
Br66	Br	-0.681044	-1.176165	0.932878
H67	H	-0.485453	-1.192324	0.793557
Br68	Br	-1.099899	-0.907568	0.312951
Br69	Br	-0.563268	-0.916171	0.934213
Br70	Br	-0.734218	-1.035011	0.780127
H71	H	-0.339030	-1.092302	0.919897
Br72	Br	-0.448556	-1.221767	0.934111
Br73	Br	-0.679048	-1.176976	0.778185
Br74	Br	-0.353864	-0.957266	0.935634
H75	H	-0.377794	-0.991298	0.793669
H76	H	-0.336437	-1.087511	0.792587
H77	H	-0.679038	-0.507182	0.400393
Br78	Br	-0.564673	-0.491906	0.509864
Br79	Br	-0.733948	-0.648424	0.391599
H80	H	-0.337568	-0.507369	0.338827
Br81	Br	-0.563990	-0.647574	0.510657
H82	H	-0.337611	-0.634100	0.337812
H83	H	-0.621802	-0.506394	0.258884
Br84	Br	-0.359877	-0.649513	0.472482
H85	H	-0.626409	-0.633962	0.262597
