data_functionalizedCrystal
_audit_creation_method	'MofGen! by Chris Wilmer'
_symmetry_space_group_name_H-M	'P1'
_symmetry_Int_Tables_number	1
_symmetry_cell_setting	triclinic
loop_
_symmetry_equiv_pos_as_xyz
  x,y,z
_cell_length_a	17.699083
_cell_length_b	22.010155
_cell_length_c	17.699083
_cell_angle_alpha	89.996646
_cell_angle_beta	83.283015
_cell_angle_gamma	90.002416
loop_
_atom_site_label
_atom_site_type_symbol
_atom_site_fract_x
_atom_site_fract_y
_atom_site_fract_z
O1	O	1.004081	0.050441	0.095701
O2	O	1.504081	0.550441	0.595701
O3	O	0.783703	0.050461	0.108153
O4	O	1.283703	0.550461	0.608153
O5	O	0.900118	0.050445	-0.008262
O6	O	1.400118	0.550445	0.491738
O7	O	0.887666	0.050457	0.212116
O8	O	1.387666	0.550457	0.712116
O9	O	0.900097	-0.050605	-0.008245
O10	O	1.400097	0.449395	0.491755
O11	O	0.783682	-0.050589	0.108171
O12	O	1.283682	0.449411	0.608171
O13	O	1.004060	-0.050609	0.095718
O14	O	1.504060	0.449391	0.595718
Cu15	Cu	0.893869	-0.059826	0.101946
Cu16	Cu	1.393869	0.440174	0.601946
Cu17	Cu	0.893894	0.059678	0.101925
Cu18	Cu	1.393894	0.559678	0.601925
O19	O	0.887645	-0.050593	0.212134
O20	O	1.387645	0.449407	0.712134
C21	C	0.755495	-0.000061	0.107716
C22	C	1.255495	0.499939	0.607716
C23	C	0.671477	-0.000054	0.106377
C24	C	1.171477	0.499946	0.606377
N25	N	0.893857	-0.143878	0.101960
N26	N	1.393857	0.356122	0.601960
C27	C	0.622856	-0.000050	0.174711
C28	C	1.122856	0.499950	0.674711
C29	C	0.543913	-0.000058	0.173448
C30	C	1.043913	0.499942	0.673448
C31	C	0.513592	-0.000065	0.103852
C32	C	1.013592	0.499935	0.603852
C33	C	0.562219	-0.000071	0.035513
C34	C	1.062219	0.499929	0.535513
C35	C	0.641161	-0.000067	0.036776
C36	C	1.141161	0.499933	0.536776
C37	C	0.243856	-0.000086	0.030418
C38	C	0.743856	0.499914	0.530418
C39	C	0.164908	-0.000088	0.029160
C40	C	0.664908	0.499912	0.529160
C41	C	0.146608	-0.000077	0.167090
C42	C	0.646608	0.499923	0.667090
C43	C	0.225550	-0.000074	0.168353
C44	C	0.725550	0.499926	0.668353
C45	C	0.274170	-0.000082	0.100015
C46	C	0.774170	0.499918	0.600015
C47	C	0.359769	-0.000075	0.101384
C48	C	0.859769	0.499925	0.601384
C49	C	0.427995	-0.000069	0.102481
C50	C	0.927995	0.499931	0.602481
C51	C	0.945446	-0.563665	0.050384
C52	C	1.445446	-0.063665	0.550384
C53	C	0.945449	-0.627272	0.050379
C54	C	1.445449	-0.127272	0.550379
O55	O	0.989282	-0.660170	0.006537
O56	O	1.489282	-0.160170	0.506537
N57	N	0.893894	-0.659085	0.101910
N58	N	1.393894	-0.159085	0.601910
C59	C	0.842326	-0.627288	0.153444
C60	C	1.342326	-0.127288	0.653444
O61	O	0.798474	-0.660188	0.197274
O62	O	1.298474	-0.160188	0.697274
C63	C	0.842319	-0.563681	0.153445
C64	C	1.342319	-0.063681	0.653445
C65	C	0.893884	-0.531871	0.101916
C66	C	1.393884	-0.031871	0.601916
C67	C	0.997005	-0.531855	-0.001142
C68	C	1.497005	-0.031855	0.498858
C69	C	0.997002	-0.468252	-0.001135
C70	C	1.497002	0.031748	0.498865
C71	C	0.945440	-0.436458	0.050397
C72	C	1.445440	0.063542	0.550397
C73	C	0.893881	-0.468268	0.101922
C74	C	1.393881	0.031732	0.601922
C75	C	0.790749	-0.531884	0.204975
C76	C	1.290749	-0.031884	0.704975
C77	C	0.790746	-0.468274	0.204971
C78	C	1.290746	0.031726	0.704971
C79	C	0.842310	-0.436464	0.153442
C80	C	1.342310	0.063536	0.653442
C81	C	0.842316	-0.372872	0.153460
C82	C	1.342316	0.127128	0.653460
N83	N	0.893872	-0.341059	0.101929
N84	N	1.393872	0.158941	0.601929
C85	C	0.945434	-0.372852	0.050398
C86	C	1.445434	0.127148	0.550398
C87	C	0.842343	-0.760865	0.153437
C88	C	1.342343	-0.260865	0.653437
C89	C	0.842352	-0.824471	0.153440
C90	C	1.342352	-0.324471	0.653440
C91	C	0.945475	-0.824451	0.050374
C92	C	1.445475	-0.324451	0.550374
C93	C	0.945468	-0.760845	0.050375
C94	C	1.445468	-0.260845	0.550375
C95	C	0.893898	-0.729052	0.101906
C96	C	1.393898	-0.229052	0.601906
C97	C	0.945424	-0.239281	0.050415
C98	C	1.445424	0.260719	0.550415
C99	C	0.945419	-0.175672	0.050428
C100	C	1.445419	0.324328	0.550428
C101	C	0.842294	-0.175697	0.153491
C102	C	1.342294	0.324303	0.653491
C103	C	0.842302	-0.239300	0.153481
C104	C	1.342302	0.260700	0.653481
C105	C	0.893870	-0.271090	0.101937
C106	C	1.393870	0.228910	0.601937
O107	O	0.798504	-0.339934	0.197278
O108	O	1.298504	0.160066	0.697278
O109	O	0.989272	-0.339944	0.006568
O110	O	1.489272	0.160056	0.506568
C111	C	1.032268	-0.000085	0.096156
C112	C	1.532268	0.499915	0.596156
C113	C	1.116286	-0.000089	0.097494
C114	C	1.616286	0.499911	0.597494
C115	C	0.899662	-0.000080	-0.036451
C116	C	1.399662	0.499920	0.463549
C117	C	0.898323	-0.000080	-0.120469
C118	C	1.398323	0.499920	0.379531
N119	N	0.893912	0.143730	0.101905
N120	N	1.393912	0.643730	0.601905
C121	C	0.966656	-0.000087	-0.169090
C122	C	1.466656	0.499913	0.330910
C123	C	0.965394	-0.000082	-0.248033
C124	C	1.465394	0.499918	0.251967
C125	C	0.895798	-0.000073	-0.278354
C126	C	1.395798	0.499927	0.221646
C127	C	0.827459	-0.000065	-0.229727
C128	C	1.327459	0.499935	0.270273
C129	C	0.828722	-0.000066	-0.150785
C130	C	1.328722	0.499934	0.349215
C131	C	0.822364	-0.000059	-0.548090
C132	C	1.322364	0.499941	-0.048090
C133	C	0.821106	-0.000060	-0.627038
C134	C	1.321106	0.499940	-0.127038
C135	C	0.959036	-0.000075	-0.645338
C136	C	1.459036	0.499925	-0.145338
C137	C	0.960299	-0.000076	-0.566396
C138	C	1.460299	0.499924	-0.066396
C139	C	0.891961	-0.000064	-0.517776
C140	C	1.391961	0.499936	-0.017776
C141	C	0.893330	-0.000069	-0.432177
C142	C	1.393330	0.499931	0.067823
C143	C	0.894427	-0.000073	-0.363951
C144	C	1.394427	0.499927	0.136049
C145	C	0.888102	-0.000067	0.240322
C146	C	1.388102	0.499933	0.740322
C147	C	0.889440	-0.000063	0.324340
C148	C	1.389440	0.499937	0.824340
H149	H	0.647537	-0.000044	0.231384
H150	H	1.147537	0.499956	0.731384
H151	H	0.764429	-0.000054	-0.651721
H152	H	1.264429	0.499946	-0.151721
C153	C	0.490433	-0.000065	0.248621
C154	C	0.990433	0.499935	0.748621
N155	N	0.450152	-0.000075	0.305244
N156	N	0.950152	0.499925	0.805244
H157	H	0.748749	-0.442391	0.246933
H158	H	1.248749	0.057609	0.746933
H159	H	0.766718	-0.000049	-0.508512
H160	H	1.266718	0.499951	-0.008512
H161	H	0.680748	-0.000070	-0.018868
H162	H	1.180748	0.499930	0.481132
H163	H	0.140225	-0.000094	-0.027517
H164	H	0.640225	0.499906	0.472483
C165	C	1.040567	-0.000099	-0.301513
C166	C	1.540567	0.499901	0.198487
N167	N	1.097190	-0.000116	-0.341794
N168	N	1.597190	0.499884	0.158206
H169	H	0.250232	-0.000065	0.225025
H170	H	0.750232	0.499935	0.725025
H171	H	0.800372	-0.850366	0.195408
H172	H	1.300372	-0.350366	0.695408
C173	C	1.002187	-0.725860	-0.006315
C174	C	1.502187	-0.225860	0.493685
N175	N	1.044909	-0.699512	-0.049019
N176	N	1.544909	-0.199512	0.450981
C177	C	1.036860	-0.000085	-0.533048
C178	C	1.536860	0.499915	-0.033048
N179	N	1.094528	-0.000089	-0.507932
N180	N	1.594528	0.499911	-0.007932
C181	C	1.002144	-0.140685	-0.006263
C182	C	1.502144	0.359315	0.493737
N183	N	1.044865	-0.114335	-0.048963
N184	N	1.544865	0.385665	0.451037
H185	H	0.107012	-0.000074	0.222734
H186	H	0.607012	0.499926	0.722734
C187	C	1.002190	-0.859436	-0.006318
C188	C	1.502190	-0.359436	0.493682
N189	N	1.044904	-0.885789	-0.049016
N190	N	1.544904	-0.385789	0.450984
C191	C	0.297329	-0.000091	-0.044757
C192	C	0.797329	0.499909	0.455243
N193	N	0.337607	-0.000095	-0.101382
N194	N	0.837607	0.499905	0.398618
C195	C	0.785643	-0.725900	0.210164
C196	C	1.285643	-0.225900	0.710164
N197	N	0.742946	-0.699566	0.252900
N198	N	1.242946	-0.199566	0.752900
C199	C	0.528864	-0.000080	-0.041044
C200	C	1.028864	0.499920	0.458956
N201	N	0.503741	-0.000084	-0.098708
N202	N	1.003741	0.499916	0.401292
H203	H	1.014680	-0.000082	-0.684934
H204	H	1.514680	0.499918	-0.184934
C205	C	1.002154	-0.274241	-0.006284
C206	C	1.502154	0.225759	0.493716
N207	N	1.044886	-0.300572	-0.048987
N208	N	1.544886	0.199428	0.451013
H209	H	1.038988	-0.442356	-0.043097
H210	H	1.538988	0.057644	0.456903
C211	C	0.750902	-0.000061	-0.263082
C212	C	1.250902	0.499939	0.236918
N213	N	0.693238	-0.000062	-0.288205
N214	N	1.193238	0.499938	0.211795
H215	H	0.800315	-0.149801	0.195450
H216	H	1.300315	0.350199	0.695450
C217	C	1.053727	-0.566818	-0.057841
C218	C	1.553727	-0.066818	0.442159
N219	N	1.096455	-0.593147	-0.100550
N220	N	1.596455	-0.093147	0.399450
H221	H	0.748760	-0.557775	0.246934
H222	H	1.248760	-0.057775	0.746934
H223	H	0.800321	-0.265200	0.195448
H224	H	1.300321	0.234800	0.695448
C225	C	1.043219	-0.000096	-0.135745
C226	C	1.543219	0.499904	0.364255
N227	N	1.100889	-0.000100	-0.110632
N228	N	1.600889	0.499900	0.389368
H229	H	0.773078	-0.000060	-0.111198
H230	H	1.273078	0.499940	0.388802
