data_functionalizedCrystal
_audit_creation_method	'MofGen! by Chris Wilmer'
_symmetry_space_group_name_H-M	'P1'
_symmetry_Int_Tables_number	1
_symmetry_cell_setting	triclinic
loop_
_symmetry_equiv_pos_as_xyz
  x,y,z
_cell_length_a	10.654544
_cell_length_b	9.130307
_cell_length_c	10.654550
_cell_angle_alpha	89.996840
_cell_angle_beta	84.484949
_cell_angle_gamma	89.995168
loop_
_atom_site_label
_atom_site_type_symbol
_atom_site_fract_x
_atom_site_fract_y
_atom_site_fract_z
O1	O	-1.667837	0.121912	-0.176397
O2	O	-1.302358	0.121890	-0.193203
O3	O	-1.493501	0.121893	-0.002061
O4	O	-1.476694	0.121910	-0.367540
O5	O	-1.493494	-0.121706	-0.002059
O6	O	-1.302352	-0.121709	-0.193202
O7	O	-1.667831	-0.121687	-0.176396
Cu8	Cu	-1.485091	-0.143940	-0.184798
Cu9	Cu	-1.485098	0.144144	-0.184801
O10	O	-1.476688	-0.121689	-0.367538
C11	C	-1.255557	0.000088	-0.191968
C12	C	-1.116114	0.000079	-0.188276
C13	C	-0.826129	0.000118	-0.409904
C14	C	-0.877666	0.000120	-0.525922
C15	C	-1.008684	0.000107	-0.529395
C16	C	-1.088170	0.000097	-0.416839
C17	C	-1.036633	0.000095	-0.300821
C18	C	-0.905610	0.000103	-0.297360
C19	C	-1.064577	0.000077	-0.072259
C20	C	-0.933559	0.000080	-0.068783
C21	C	-1.144062	0.000067	0.040298
C22	C	-1.092525	0.000054	0.156318
C23	C	-0.961499	0.000065	0.159787
C24	C	-0.882022	0.000078	0.047235
N25	N	-1.485095	-0.346563	-0.184796
C26	C	-1.654421	-0.346551	-0.015589
C27	C	-1.739092	-0.423212	0.069010
C28	C	-1.739105	-0.576545	0.069011
C29	C	-1.654434	-0.653221	-0.015594
C30	C	-1.569763	-0.576561	-0.100194
C31	C	-1.569762	-0.423224	-0.100188
C32	C	-1.400433	-0.576573	-0.269393
C33	C	-1.400424	-0.423239	-0.269402
C34	C	-1.315762	-0.653249	-0.353998
C35	C	-1.231095	-0.576588	-0.438606
C36	C	-1.231086	-0.423245	-0.438604
C37	C	-1.315753	-0.346579	-0.354001
C38	C	-0.714631	0.000107	-0.177635
C39	C	-0.854073	0.000091	-0.181340
C40	C	-1.492263	0.000094	0.044738
C41	C	-1.488571	0.000096	0.184181
N42	N	-1.485104	0.346767	-0.184793
C43	C	-1.477925	0.000113	-0.414337
C44	C	-1.481617	0.000121	-0.553780
C45	C	-1.601113	0.000103	0.263667
C46	C	-1.597637	0.000121	0.394687
C47	C	-1.369067	0.000118	0.366724
C48	C	-1.372545	0.000111	0.235706
H49	H	-1.050644	0.000107	-0.623867
H50	H	-1.695589	0.000094	0.221720
H51	H	-1.315758	-0.221726	-0.353997
H52	H	-0.919547	0.000072	0.254263
H53	H	-0.719445	0.000103	-0.407088
H54	H	-0.812934	0.000134	-0.617563
H55	H	-1.280894	0.000109	0.170985
H56	H	-1.808028	-0.360769	0.137898
H57	H	-1.194850	0.000103	-0.419677
H58	H	-1.250743	0.000063	0.037462
H59	H	-1.157252	0.000055	0.247952
H60	H	-0.775338	0.000074	0.050048
H61	H	-1.654430	-0.221699	-0.015592
H62	H	-1.689280	0.000130	0.459400
H63	H	-1.808047	-0.638963	0.137904
H64	H	-1.654439	-0.778074	-0.015578
H65	H	-1.315770	-0.778101	-0.353989
H66	H	-1.162156	-0.639027	-0.507480
H67	H	-1.162132	-0.360836	-0.507491
H68	H	-1.274602	0.000127	0.408692
