data_functionalizedCrystal
_audit_creation_method	'MofGen! by Chris Wilmer'
_symmetry_space_group_name_H-M	'P1'
_symmetry_Int_Tables_number	1
_symmetry_cell_setting	triclinic
loop_
_symmetry_equiv_pos_as_xyz
  x,y,z
_cell_length_a	23.532355
_cell_length_b	22.010155
_cell_length_c	10.654550
_cell_angle_alpha	90.003220
_cell_angle_beta	83.656201
_cell_angle_gamma	90.009876
loop_
_atom_site_label
_atom_site_type_symbol
_atom_site_fract_x
_atom_site_fract_y
_atom_site_fract_z
O1	O	0.756279	0.050441	0.152125
O2	O	0.590556	0.050460	0.174250
O3	O	0.677228	0.050448	-0.019674
O4	O	0.669607	0.050453	0.346049
O5	O	0.677201	-0.050602	-0.019674
O6	O	0.590529	-0.050590	0.174250
O7	O	0.756253	-0.050609	0.152125
Cu8	Cu	0.673389	-0.059826	0.163187
Cu9	Cu	0.673420	0.059677	0.163187
O10	O	0.669581	-0.050597	0.346049
C11	C	0.569322	-0.000063	0.173697
C12	C	0.506093	-0.000055	0.172034
N13	N	0.673371	-0.143879	0.163186
C14	C	0.113997	-0.055163	0.161587
C15	C	0.054587	-0.055166	0.160005
O16	O	0.023851	-0.102011	0.159144
N17	N	0.024888	-0.000083	0.159220
C18	C	0.054602	0.055005	0.160005
O19	O	0.023885	0.101857	0.159191
C20	C	0.114011	0.055007	0.161578
C21	C	0.143707	-0.000079	0.162375
C22	C	0.143692	-0.110245	0.162382
C23	C	0.203098	-0.110242	0.163967
C24	C	0.232808	-0.055158	0.164755
C25	C	0.203112	-0.000077	0.163959
C26	C	0.143725	0.110094	0.162354
C27	C	0.203138	0.110091	0.163926
C28	C	0.232834	0.055005	0.164723
C29	C	0.292228	0.055010	0.166332
N30	N	0.321927	-0.000072	0.167116
C31	C	0.292217	-0.055156	0.166328
C32	C	-0.070161	0.054997	0.156700
C33	C	-0.129570	0.054996	0.155136
C34	C	-0.129580	-0.055175	0.155133
C35	C	-0.070171	-0.055173	0.156706
C36	C	-0.040462	-0.000085	0.157484
C37	C	0.416973	-0.055147	0.169656
C38	C	0.476383	-0.055139	0.171245
C39	C	0.476389	0.055031	0.171241
C40	C	0.416983	0.055024	0.169659
C41	C	0.387277	-0.000070	0.168862
O42	O	0.323002	0.101831	0.167189
O43	O	0.322942	-0.102000	0.167125
C44	C	0.708260	-0.563661	0.238936
C45	C	0.708267	-0.627269	0.238933
O46	O	0.737910	-0.660163	0.303329
N47	N	0.673431	-0.659086	0.163173
C48	C	0.638591	-0.627292	0.087401
O49	O	0.608961	-0.660196	0.022960
C50	C	0.638588	-0.563686	0.087399
C51	C	0.673421	-0.531872	0.163173
C52	C	0.743091	-0.531848	0.314703
C53	C	0.743083	-0.468244	0.314708
C54	C	0.708245	-0.436455	0.238945
C55	C	0.673413	-0.468269	0.163178
C56	C	0.603751	-0.531893	0.011621
C57	C	0.603751	-0.468282	0.011625
C58	C	0.638584	-0.436468	0.087399
C59	C	0.638567	-0.372876	0.087420
N60	N	0.673403	-0.341059	0.163180
C61	C	0.708241	-0.372849	0.238943
C62	C	0.638601	-0.760870	0.087411
C63	C	0.638601	-0.824475	0.087420
C64	C	0.708278	-0.824448	0.238950
C65	C	0.708274	-0.760841	0.238947
C66	C	0.673437	-0.729053	0.163171
C67	C	0.708222	-0.239277	0.238947
C68	C	0.708210	-0.175668	0.238949
C69	C	0.638536	-0.175701	0.087415
C70	C	0.638546	-0.239305	0.087417
C71	C	0.673394	-0.271091	0.163187
O72	O	0.608941	-0.339942	0.023052
O73	O	0.737871	-0.339937	0.303360
C74	C	0.777486	-0.000085	0.152678
C75	C	0.840716	-0.000089	0.154341
C76	C	0.676655	-0.000076	-0.066454
C77	C	0.674981	-0.000074	-0.205844
N78	N	0.673442	0.143730	0.163178
C79	C	0.726012	-0.000082	-0.286967
C80	C	0.724436	-0.000077	-0.417937
C81	C	0.620793	-0.000060	-0.386648
C82	C	0.622370	-0.000060	-0.255680
C83	C	0.778624	-0.000096	-0.237131
C84	C	0.829659	-0.000104	-0.318256
C85	C	0.828082	-0.000100	-0.449226
C86	C	0.775471	-0.000087	-0.499071
C87	C	0.670154	-0.000071	0.392829
C88	C	0.671828	-0.000070	0.532218
H89	H	0.500558	-0.099999	0.171899
H90	H	0.577959	-0.000051	-0.427243
N91	N	0.567330	-0.000074	-0.168176
H92	H	0.576313	-0.000079	-0.077648
H93	H	0.544425	0.037385	-0.184217
H94	H	0.392792	-0.100009	0.169018
H95	H	0.736599	-0.265150	0.300646
H96	H	0.119557	0.154951	0.161703
N97	N	0.235122	-0.169656	0.164826
H98	H	0.207279	-0.204547	0.164085
H99	H	0.264084	-0.172061	0.087623
H100	H	0.610226	-0.734992	0.025710
N101	N	0.235178	0.169511	0.164759
H102	H	0.220527	0.193596	0.242336
H103	H	0.277313	0.161111	0.165832
N104	N	0.111654	-0.169662	0.161528
H105	H	0.139536	-0.204549	0.161414
H106	H	0.082960	-0.172243	0.239167
N107	N	0.508437	0.114443	0.172086
H108	H	0.528776	0.116902	0.250591
H109	H	0.537368	0.116853	0.094829
H110	H	0.779913	-0.000101	-0.130490
H111	H	0.610174	-0.265209	0.025732
N112	N	0.745782	-0.141355	0.320679
H113	H	0.767855	-0.171149	0.368667
H114	H	0.773403	-0.114958	0.265603
N115	N	0.780684	-0.566117	0.396413
H116	H	0.769812	-0.555041	0.487908
H117	H	0.775401	-0.611232	0.384836
H118	H	0.872493	-0.000099	-0.277662
N119	N	-0.038145	-0.114586	0.157568
H120	H	-0.065986	-0.149479	0.156834
H121	H	-0.009185	-0.116991	0.080363
H122	H	0.869638	-0.000100	-0.515275
H123	H	0.774191	-0.000077	-0.605717
H124	H	-0.153781	-0.100027	0.154489
N125	N	-0.161596	0.114410	0.154296
H126	H	-0.133755	0.149302	0.155036
H127	H	-0.181929	0.116809	0.075781
H128	H	-0.045976	0.099859	0.157345
N129	N	0.384949	0.114436	0.168825
H130	H	0.412787	0.149331	0.169572
H131	H	0.364617	0.116836	0.090307
H132	H	0.736639	-0.734943	0.300650
N133	N	0.780661	-0.433936	0.396421
H134	H	0.802732	-0.463734	0.444402
H135	H	0.808283	-0.407543	0.341336
H136	H	0.610169	-0.149807	0.025734
H137	H	0.736645	-0.850342	0.300642
N138	N	0.601029	-0.858783	0.005692
H139	H	0.606316	-0.903902	0.017176
H140	H	0.559710	-0.847675	0.030984
N141	N	0.566194	-0.566196	-0.070139
H142	H	0.544134	-0.536397	-0.118143
H143	H	0.590799	-0.592572	-0.131811
H144	H	0.575381	-0.442403	-0.050084
