data_functionalizedCrystal
_audit_creation_method	'MofGen! by Chris Wilmer'
_symmetry_space_group_name_H-M	'P1'
_symmetry_Int_Tables_number	1
_symmetry_cell_setting	triclinic
loop_
_symmetry_equiv_pos_as_xyz
  x,y,z
_cell_length_a	14.971486
_cell_length_b	14.853567
_cell_length_c	13.448316
_cell_angle_alpha	90.001573
_cell_angle_beta	89.996447
_cell_angle_gamma	83.624529
loop_
_atom_site_label
_atom_site_type_symbol
_atom_site_fract_x
_atom_site_fract_y
_atom_site_fract_z
O1	O	1.186972	0.117482	-0.082569
O2	O	0.926574	0.131551	-0.082595
O3	O	1.063728	-0.006715	-0.082584
O4	O	1.049817	0.255747	-0.082580
O5	O	1.063705	-0.006711	0.082800
O6	O	0.926551	0.131555	0.082789
O7	O	1.186948	0.117485	0.082815
Cu8	Cu	1.056748	0.124520	0.097903
Cu9	Cu	1.056775	0.124516	-0.097683
O10	O	1.049794	0.255751	0.082804
C11	C	0.893238	0.130924	0.000093
C12	C	0.793940	0.129038	0.000083
C13	C	1.063087	-0.040301	0.000105
C14	C	1.061198	-0.140385	0.000096
C15	C	0.736730	0.210265	0.000086
C16	C	0.643430	0.208488	0.000101
C17	C	0.607342	0.125483	0.000106
C18	C	0.664560	0.044249	0.000106
C19	C	0.757858	0.046027	0.000098
C20	C	0.470097	0.040549	0.000119
C21	C	0.376793	0.038771	0.000125
C22	C	0.355669	0.203010	0.000122
C23	C	0.448967	0.204788	0.000114
C24	C	0.506178	0.123554	0.000113
C25	C	0.971740	-0.552902	0.000106
C26	C	1.134683	-0.574213	0.000122
C27	C	1.136459	-0.480180	0.000116
C28	C	1.055874	-0.422503	0.000107
C29	C	0.973514	-0.458860	0.000103
C30	C	1.218818	-0.443816	0.000130
C31	C	1.220597	-0.349777	0.000126
C32	C	1.140012	-0.292099	0.000109
C33	C	1.057648	-0.328461	0.000104
C34	C	0.977064	-0.270784	0.000095
C35	C	0.894699	-0.307144	0.000083
C36	C	0.892928	-0.401181	0.000087
C37	C	1.141782	-0.198061	0.000105
C38	C	0.978837	-0.176741	0.000092
C39	C	1.220285	0.118113	0.000124
C40	C	1.319582	0.119998	0.000128
C41	C	1.050436	0.289338	0.000113
C42	C	1.052325	0.389421	0.000115
N43	N	1.056735	0.124523	0.235467
N44	N	1.056795	0.124507	-0.235247
C45	C	1.117535	0.063307	0.712690
C46	C	1.117528	0.063314	0.608587
C47	C	1.056775	0.124515	0.556548
C48	C	0.996031	0.185721	0.608618
C49	C	0.996044	0.185718	0.712720
C50	C	0.996008	0.185720	0.391638
C51	C	0.995994	0.185722	0.287530
C52	C	1.117492	0.063316	0.287506
C53	C	1.117505	0.063313	0.391607
C54	C	1.056760	0.124518	0.443670
H55	H	0.596852	0.274632	0.000102
H56	H	1.166988	0.013481	0.566198
H57	H	0.825871	-0.430795	0.000078
H58	H	1.166970	0.013474	0.433977
N59	N	1.309433	-0.310572	0.000126
H60	H	1.313808	-0.272040	-0.061186
H61	H	1.313745	-0.272069	0.061470
N62	N	0.930504	0.251727	0.552489
H63	H	0.867016	0.241234	0.570622
H64	H	0.940956	0.315703	0.570624
N65	N	0.891925	-0.114527	0.000082
H66	H	0.856006	-0.126232	-0.061230
H67	H	0.856059	-0.126259	0.061426
H68	H	0.904681	-0.582511	0.000092
N69	N	0.930530	0.251721	0.768883
H70	H	0.940900	0.315726	0.750766
H71	H	0.867066	0.241150	0.750760
H72	H	1.208842	-0.168461	0.000122
H73	H	1.166953	0.013481	0.245110
H74	H	1.200291	-0.621179	0.000138
H75	H	0.946523	0.235559	0.245165
N76	N	0.775649	0.299794	0.000069
H77	H	0.725246	0.350980	0.000074
H78	H	0.813901	0.304113	0.061374
H79	H	0.829087	-0.260172	0.000082
H80	H	0.478346	0.272378	0.000101
N81	N	0.930495	0.251736	0.447795
H82	H	0.892004	0.290506	0.399035
H83	H	0.890922	0.217150	0.490995
N84	N	0.337866	-0.050753	0.000128
H85	H	0.388265	-0.101945	0.000132
H86	H	0.299612	-0.055059	0.061439
N87	N	0.293969	0.290629	0.000120
H88	H	0.229389	0.276911	0.000130
H89	H	0.305666	0.326806	0.061425
H90	H	0.516677	-0.025600	0.000120
H91	H	0.635171	-0.023335	0.000124
H92	H	0.804439	-0.020116	0.000095
H93	H	1.284425	-0.490782	0.000147
H94	H	1.167004	0.013466	0.755053
