data_functionalizedCrystal
_audit_creation_method	'MofGen! by Chris Wilmer'
_symmetry_space_group_name_H-M	'P1'
_symmetry_Int_Tables_number	1
_symmetry_cell_setting	triclinic
loop_
_symmetry_equiv_pos_as_xyz
  x,y,z
_cell_length_a	17.640280
_cell_length_b	17.639123
_cell_length_c	17.638773
_cell_angle_alpha	114.339740
_cell_angle_beta	87.825548
_cell_angle_gamma	92.177824
loop_
_atom_site_label
_atom_site_type_symbol
_atom_site_fract_x
_atom_site_fract_y
_atom_site_fract_z
Zn1	Zn	-0.175215	-1.383907	-0.691964
Zn2	Zn	-0.278167	-1.373299	-0.536848
Zn3	Zn	-0.175178	-1.218201	-0.526230
Zn4	Zn	-0.319709	-1.270361	-0.639737
O5	O	-0.237067	-1.311442	-0.598695
O6	O	-0.171502	-1.494928	-0.697687
O7	O	-0.247104	-1.326457	-0.423020
O8	O	-0.071611	-1.222792	-0.565629
O9	O	-0.247140	-1.487135	-0.583725
O10	O	-0.071638	-1.344536	-0.687392
O11	O	-0.171439	-1.212507	-0.415219
O12	O	-0.211721	-1.112692	-0.514987
O13	O	-0.317943	-1.311691	-0.759085
O14	O	-0.317907	-1.151013	-0.598380
O15	O	-0.211784	-1.395113	-0.797455
O16	O	-0.387249	-1.377034	-0.533083
O17	O	-0.417771	-1.301406	-0.608675
C18	C	-0.269319	-1.102701	-0.549864
C19	C	-0.283137	-1.013408	-0.528991
C20	C	-0.341904	-0.883465	-0.440174
C21	C	-0.328915	-0.967370	-0.459795
C22	C	-0.250332	-0.975555	-0.578595
C23	C	-0.263317	-0.891650	-0.558987
C24	C	-0.309103	-0.845612	-0.489775
C25	C	-0.230516	-0.853797	-0.608587
C26	C	-0.243497	-0.769898	-0.588978
C27	C	-0.289280	-0.723854	-0.519767
C28	C	-0.322085	-0.761713	-0.470165
C29	C	-0.184726	-0.899835	-0.677796
C30	C	-0.151924	-0.861982	-0.727396
C31	C	-0.164910	-0.778083	-0.707790
C32	C	-0.210692	-0.732039	-0.638580
C33	C	-0.132105	-0.740224	-0.757393
C34	C	-0.145086	-0.656325	-0.737783
C35	C	-0.223674	-0.648140	-0.618970
C36	C	-0.429365	-1.343755	-0.566386
C37	C	-0.511623	-1.357658	-0.552609
C38	C	-0.861739	-1.206218	-0.703731
C39	C	-0.939029	-1.219277	-0.690759
C40	C	-0.907188	-1.298117	-0.612164
C41	C	-0.829894	-1.285068	-0.625132
C42	C	-0.807176	-1.239116	-0.670915
C43	C	-0.775331	-1.317966	-0.592317
C44	C	-0.698043	-1.304913	-0.605280
C45	C	-0.675319	-1.258962	-0.651059
C46	C	-0.729889	-1.226063	-0.683879
C47	C	-0.798050	-1.363912	-0.546528
C48	C	-0.743487	-1.396811	-0.513713
C49	C	-0.666198	-1.383763	-0.526682
C50	C	-0.643473	-1.337812	-0.572461
C51	C	-0.611628	-1.416662	-0.493862
C52	C	-0.534341	-1.403609	-0.506826
C53	C	-0.566186	-1.324759	-0.585424
C54	C	-0.044019	-1.279029	-0.631152
C55	C	0.038247	-1.265216	-0.644983
C56	C	-0.269502	-1.360403	-0.808234
C57	C	-0.283323	-1.381268	-0.897527
C58	C	-0.204685	-0.520995	-0.647707
C59	C	-0.190873	-0.610287	-0.668571
C60	C	-0.342194	-1.469998	-1.027444
C61	C	-0.329203	-1.450386	-0.943539
C62	C	-0.250414	-1.331737	-0.935410
C63	C	-0.263396	-1.351342	-1.019317
C64	C	-0.309288	-1.420473	-1.065327
C65	C	-0.230489	-1.301817	-1.057200
C66	C	-0.243474	-1.321418	-1.141099
C67	C	-0.289365	-1.390544	-1.187114
C68	C	-0.322272	-1.440074	-1.149226
C69	C	-0.184602	-1.232683	-1.011187
C70	C	-0.151696	-1.183158	-1.049070
C71	C	-0.164676	-1.202762	-1.132972
C72	C	-0.210567	-1.271888	-1.178987
C73	C	-0.131768	-1.153232	-1.170860
C74	C	-0.144753	-1.172833	-1.254759
C75	C	-0.223551	-1.291489	-1.262886
C76	C	-0.204699	-1.262708	-0.389990
C77	C	-0.190645	-1.241964	-0.300769
H78	H	-0.174155	-0.968149	-0.693757
C79	C	-0.364637	-1.008333	-0.405866
C80	C	-0.407528	-0.950060	-0.341072
C81	C	-0.440454	-0.987767	-0.291384
H82	H	-0.325876	-1.028121	-0.383241
H83	H	-0.396653	-1.053649	-0.438740
H84	H	-0.375515	-0.904759	-0.308203
H85	H	-0.446302	-0.930267	-0.363672
H86	H	-0.472470	-1.033083	-0.324258
H87	H	-0.401687	-1.007554	-0.268766
H88	H	-0.469564	-0.948237	-0.247421
C89	C	-0.102271	-0.912122	-0.802529
C90	C	-0.097935	-0.993704	-0.809099
C91	C	-0.052211	-1.039918	-0.878310
H92	H	-0.052810	-0.887383	-0.796088
H93	H	-0.123666	-0.912881	-0.851469
H94	H	-0.076538	-0.992942	-0.760172
H95	H	-0.147383	-1.018466	-0.815553
H96	H	-0.073606	-1.040677	-0.927250
H97	H	-0.002754	-1.015173	-0.871863
H98	H	-0.049269	-1.095279	-0.882781
C99	C	-0.837218	-1.156284	-0.753442
C100	C	-0.901543	-1.130256	-0.779402
C101	C	-0.878983	-1.084254	-0.825191
H102	H	-0.807739	-1.190015	-0.800761
H103	H	-0.807767	-1.108991	-0.719564
H104	H	-0.930982	-1.177542	-0.813279
H105	H	-0.931030	-1.096515	-0.732100
H106	H	-0.849532	-1.036961	-0.791312
H107	H	-0.849503	-1.117990	-0.872505
H108	H	-0.922623	-1.066582	-0.842803
C109	C	-0.082474	-0.790150	-0.832632
C110	C	-0.114150	-0.791047	-0.904596
C111	C	-0.068447	-0.837021	-0.973921
H112	H	-0.079408	-0.845567	-0.837323
H113	H	-0.033049	-0.765299	-0.826155
H114	H	-0.163562	-0.815901	-0.911071
H115	H	-0.117215	-0.735643	-0.899932
H116	H	-0.019021	-0.812170	-0.967445
H117	H	-0.065383	-0.892435	-0.978604
H118	H	-0.089929	-0.837629	-1.022755
C119	C	-0.636148	-1.466534	-0.444094
C120	C	-0.571820	-1.492536	-0.418113
C121	C	-0.594376	-1.538470	-0.372254
H122	H	-0.665604	-1.513837	-0.477908
H123	H	-0.665620	-1.432741	-0.396783
H124	H	-0.542360	-1.526327	-0.465417
H125	H	-0.542356	-1.445250	-0.384287
H126	H	-0.623848	-1.504677	-0.324943
H127	H	-0.623833	-1.585768	-0.406074
H128	H	-0.550734	-1.556111	-0.354614
H129	H	-0.379557	-1.526297	-1.064911
H130	H	-0.860984	-1.374541	-0.535978
H131	H	-0.983454	-1.192496	-0.717497
H132	H	-0.761995	-1.434222	-0.476433
C133	C	-0.591443	-1.244663	-0.665193
C134	C	-0.583228	-1.197363	-0.712294
C135	C	-0.505975	-1.184165	-0.725321
H136	H	-0.567984	-1.296736	-0.694228
H137	H	-0.568072	-1.215705	-0.613039
H138	H	-0.606590	-1.226321	-0.764439
H139	H	-0.606671	-1.145281	-0.683273
H140	H	-0.482603	-1.155207	-0.673167
H141	H	-0.482522	-1.236242	-0.754354
H142	H	-0.500391	-1.152065	-0.757273
H143	H	-0.118373	-0.625503	-0.778170
C144	C	-0.364976	-1.504283	-0.902567
C145	C	-0.407933	-1.569026	-0.960825
C146	C	-0.440894	-1.618692	-0.923113
H147	H	-0.396957	-1.471409	-0.857236
H148	H	-0.326210	-1.526945	-0.882808
H149	H	-0.446694	-1.546365	-0.980572
H150	H	-0.375969	-1.601920	-1.006159
H151	H	-0.402127	-1.641354	-0.903354
H152	H	-0.472871	-1.585811	-0.877783
H153	H	-0.470038	-1.662630	-0.962637
H154	H	-0.114333	-1.126870	-1.011596
H155	H	-0.174040	-1.216720	-0.942868
C156	C	-0.200580	-1.256744	-0.885324
C157	C	-0.196237	-1.250187	-0.803745
C158	C	-0.150326	-1.181121	-0.757588
H159	H	-0.221817	-1.207728	-0.884528
H160	H	-0.151138	-1.263366	-0.910143
H161	H	-0.245669	-1.243559	-0.778932
H162	H	-0.174993	-1.299187	-0.804515
H163	H	-0.100883	-1.187744	-0.782407
H164	H	-0.171567	-1.132110	-0.756799
H165	H	-0.147367	-1.176668	-0.702234
C166	C	-0.932009	-1.348004	-0.562502
C167	C	-1.011373	-1.352404	-0.558180
C168	C	-1.034263	-1.398357	-0.512442
H169	H	-0.912885	-1.321590	-0.507864
H170	H	-0.912834	-1.402617	-0.589058
H171	H	-1.030541	-1.297801	-0.531622
H172	H	-1.030516	-1.378825	-0.612805
H173	H	-1.015087	-1.452970	-0.538999
H174	H	-1.015134	-1.371939	-0.457807
H175	H	-1.088113	-1.401355	-0.509510
H176	H	-0.299835	-0.655534	-0.503792
H177	H	-0.094410	-1.096942	-1.133384
C178	C	-0.108927	-1.118988	-1.295758
C179	C	-0.065941	-1.054266	-1.237513
C180	C	-0.032922	-1.004650	-1.275253
H181	H	-0.147642	-1.096298	-1.315537
H182	H	-0.076958	-1.151929	-1.341084
H183	H	-0.097907	-1.021330	-1.192202
H184	H	-0.027214	-1.076932	-1.217730
H185	H	-0.000953	-1.037591	-1.320580
H186	H	-0.071642	-0.981965	-1.295031
H187	H	-0.003747	-0.960735	-1.235743
C188	C	-0.475060	-1.439164	-0.471077
C189	C	-0.429793	-1.374185	-0.416337
C190	C	-0.375181	-1.406901	-0.383378
H191	H	-0.444156	-1.476215	-0.515005
H192	H	-0.499628	-1.468373	-0.441909
H193	H	-0.405226	-1.344989	-0.445505
H194	H	-0.460675	-1.337128	-0.372395
H195	H	-0.399749	-1.436110	-0.354209
H196	H	-0.344283	-1.443952	-0.427311
H197	H	-0.344465	-1.362817	-0.346227
H198	H	-0.260965	-0.610656	-0.562617
H199	H	-0.260914	-1.347788	-1.300353
C200	C	-0.391738	-0.833476	-0.365140
C201	C	-0.453726	-0.803933	-0.391315
C202	C	-0.499650	-0.757888	-0.322223
H203	H	-0.363123	-0.787748	-0.327257
H204	H	-0.409470	-0.868019	-0.338407
H205	H	-0.435994	-0.769392	-0.418036
H206	H	-0.482360	-0.849643	-0.429190
H207	H	-0.517382	-0.792431	-0.295489
H208	H	-0.471029	-0.712165	-0.284344
H209	H	-0.541717	-0.737844	-0.339974
H210	H	-0.547689	-1.287348	-0.622713
C211	C	-0.303313	-1.411890	-1.278249
C212	C	-0.233980	-1.427065	-1.322654
C213	C	-0.246799	-1.446743	-1.406610
H214	H	-0.327023	-1.366670	-1.283065
H215	H	-0.335323	-1.460179	-1.300268
H216	H	-0.201982	-1.378782	-1.300642
H217	H	-0.210259	-1.472288	-1.317862
H218	H	-0.278809	-1.495032	-1.428629
H219	H	-0.270510	-1.401520	-1.411418
H220	H	-0.199760	-1.457049	-1.436750
H221	H	-0.359376	-0.724229	-0.413812
H222	H	-0.213050	-1.013050	-0.634946
H223	H	-0.711392	-1.188652	-0.721168
C224	C	-0.372147	-1.515146	-1.199039
C225	C	-0.398200	-1.554320	-1.147905
C226	C	-0.444151	-1.623468	-1.193760
H227	H	-0.343561	-1.553126	-1.244724
H228	H	-0.414243	-1.497493	-1.219137
H229	H	-0.356110	-1.571974	-1.127820
H230	H	-0.426797	-1.516363	-1.102221
H231	H	-0.486248	-1.605815	-1.213858
H232	H	-0.415560	-1.661441	-1.239443
H233	H	-0.461839	-1.650051	-1.159071
