data_functionalizedCrystal
_audit_creation_method	'MofGen! by Chris Wilmer'
_symmetry_space_group_name_H-M	'P1'
_symmetry_Int_Tables_number	1
_symmetry_cell_setting	triclinic
loop_
_symmetry_equiv_pos_as_xyz
  x,y,z
_cell_length_a	8.559649
_cell_length_b	8.559649
_cell_length_c	7.681481
_cell_angle_alpha	85.069100
_cell_angle_beta	94.913240
_cell_angle_gamma	69.778664
loop_
_atom_site_label
_atom_site_type_symbol
_atom_site_fract_x
_atom_site_fract_y
_atom_site_fract_z
O1	O	2.109661	-0.037797	-0.146402
O2	O	1.634175	0.045985	-0.146408
O3	O	1.913809	-0.233649	-0.146402
O4	O	1.830027	0.241837	-0.146407
O5	O	1.948236	-0.268136	0.146456
O6	O	1.668602	0.011497	0.146450
O7	O	2.144088	-0.072285	0.146457
Zn8	Zn	1.911811	-0.035869	0.192951
Zn9	Zn	1.866452	0.009570	-0.192902
O10	O	1.864454	0.207349	0.146451
C11	C	1.591080	0.035090	0.000020
C12	C	1.411380	0.053990	0.000017
C13	C	1.937371	-0.311201	0.000024
C14	C	1.956269	-0.490899	0.000014
C15	C	2.187183	-0.061390	0.000025
C16	C	2.366881	-0.080288	0.000016
C17	C	1.840891	0.284902	0.000021
C18	C	1.821992	0.464601	0.000019
N19	N	1.942779	-0.066883	0.456286
N20	N	1.835499	0.040569	-0.456237
H21	H	1.466259	-0.209706	0.000009
H22	H	1.692573	-0.436021	0.000023
H23	H	2.052307	-0.176556	0.531494
O24	O	1.292619	0.208271	0.000087
C25	C	1.133610	0.193444	0.000031
H26	H	1.149432	0.060244	0.055478
H27	H	1.055404	0.286014	0.085048
H28	H	1.067417	0.222084	-0.140471
O29	O	1.705036	0.171474	0.453870
C30	C	1.767342	0.273275	0.347247
H31	H	1.898948	0.196207	0.319787
H32	H	1.681362	0.322449	0.217543
H33	H	1.772098	0.383487	0.418189
H34	H	2.085699	-0.590289	0.000030
