data_functionalizedCrystal
_audit_creation_method	'MofGen! by Chris Wilmer'
_symmetry_space_group_name_H-M	'P1'
_symmetry_Int_Tables_number	1
_symmetry_cell_setting	triclinic
loop_
_symmetry_equiv_pos_as_xyz
  x,y,z
_cell_length_a	13.032831
_cell_length_b	13.032721
_cell_length_c	13.032268
_cell_angle_alpha	103.289627
_cell_angle_beta	90.886977
_cell_angle_gamma	90.902885
loop_
_atom_site_label
_atom_site_type_symbol
_atom_site_fract_x
_atom_site_fract_y
_atom_site_fract_z
Zn1	Zn	1.399428	-0.702884	-0.857492
Zn2	Zn	1.399318	-0.857952	-0.702424
Zn3	Zn	1.255414	-0.659406	-0.658991
Zn4	Zn	1.206359	-0.852325	-0.851935
O5	O	1.315130	-0.768142	-0.767710
O6	O	1.540438	-0.744005	-0.857424
O7	O	1.400712	-0.815774	-0.551018
O8	O	1.295093	-0.519539	-0.669471
O9	O	1.540357	-0.857933	-0.743496
O10	O	1.400900	-0.551483	-0.815309
O11	O	1.294986	-0.669903	-0.519108
O12	O	1.107882	-0.664446	-0.664083
O13	O	1.211487	-0.848342	-0.998317
O14	O	1.071842	-0.806183	-0.805839
O15	O	1.353334	-0.738549	-1.002399
O16	O	1.353146	-1.002840	-0.738108
O17	O	1.211380	-0.998706	-0.847953
C18	C	1.053296	-0.729987	-0.729646
C19	C	0.941275	-0.713692	-0.713389
C20	C	0.873527	-0.776647	-0.776195
C21	C	0.757747	-0.759806	-0.759394
C22	C	1.276952	-1.038540	-0.797167
C23	C	1.260707	-1.154235	-0.809817
C24	C	1.323655	-1.207840	-0.761163
C25	C	1.306867	-1.327417	-0.774236
C26	C	1.577986	-0.806447	-0.805925
C27	C	1.690000	-0.822770	-0.822209
C28	C	1.276951	-0.797668	-1.039178
C29	C	1.260681	-0.810250	-1.154861
C30	C	1.353481	-0.496694	-0.738165
C31	C	1.369823	-0.381019	-0.725575
C32	C	1.323611	-0.761535	-1.208456
C33	C	1.306797	-0.774538	-1.328021
C34	C	1.353229	-0.738664	-0.497299
C35	C	1.369735	-0.725817	-0.381613
H36	H	0.730039	-0.693432	-0.693185
C37	C	0.910962	-0.866308	-0.865640
N38	N	0.939155	-0.933845	-0.933011
C39	C	1.217261	-1.385003	-0.843589
N40	N	1.149771	-1.428378	-0.895822
C41	C	0.727427	-0.912434	-0.911662
N42	N	0.755618	-0.979970	-0.979036
C43	C	1.171075	-0.879595	-1.212449
N44	N	1.103581	-0.931828	-1.255823
C45	C	1.413212	-0.692182	-1.150866
N46	N	1.480701	-0.639944	-1.107490
C47	C	1.217186	-0.843888	-1.385605
N48	N	1.149692	-0.896120	-1.428979
H49	H	0.913561	-0.647322	-0.647184
C50	C	1.413254	-1.150249	-0.691811
N51	N	1.480741	-1.106873	-0.639572
C52	C	1.459428	-1.323434	-0.656220
N53	N	1.526916	-1.280061	-0.603981
H54	H	1.194390	-1.196870	-0.861155
H55	H	1.436059	-0.674475	-1.338985
