data_functionalizedCrystal
_audit_creation_method	'MofGen! by Chris Wilmer'
_symmetry_space_group_name_H-M	'P1'
_symmetry_Int_Tables_number	1
_symmetry_cell_setting	triclinic
loop_
_symmetry_equiv_pos_as_xyz
  x,y,z
_cell_length_a	23.096457
_cell_length_b	23.096457
_cell_length_c	20.875619
_cell_angle_alpha	58.315818
_cell_angle_beta	87.026757
_cell_angle_gamma	60.000612
loop_
_atom_site_label
_atom_site_type_symbol
_atom_site_fract_x
_atom_site_fract_y
_atom_site_fract_z
Zr1	Zr	0.561726	0.633746	-0.084189
O2	O	0.474080	0.754531	-0.186605
O3	O	0.588592	0.512960	-0.052795
O4	O	0.594866	0.633746	-0.186612
O5	O	0.462859	0.633746	0.052771
O6	O	0.690146	0.633748	-0.186616
O7	O	0.467806	0.633745	-0.052788
O8	O	0.678924	0.417683	0.052759
O9	O	0.474082	0.849811	-0.186603
O10	O	0.671159	0.562643	-0.039406
O11	O	0.596361	0.562642	0.039374
O12	O	0.603748	0.704853	-0.118179
O13	O	0.528949	0.704852	-0.039398
Zr14	Zr	0.705798	0.633751	0.084159
Zr15	Zr	0.713687	0.633749	-0.084195
Zr16	Zr	0.553836	0.633748	0.084166
Zr17	Zr	0.561729	0.785706	-0.084187
Zr18	Zr	0.705794	0.481791	0.084157
O19	O	0.678932	0.754537	0.052765
O20	O	0.690149	0.754535	-0.186614
O21	O	0.462862	0.754534	0.052774
O22	O	0.793444	0.512966	0.186575
O23	O	0.804662	0.512963	-0.052803
O24	O	0.577374	0.512962	0.186584
O25	O	0.804665	0.633751	-0.052801
O26	O	0.672658	0.633751	0.186582
O27	O	0.577377	0.633749	0.186586
O28	O	0.799718	0.633752	0.052758
O29	O	0.594871	0.849813	-0.186608
O30	O	0.672653	0.417684	0.186579
O31	O	0.793442	0.417686	0.186574
O32	O	0.799713	0.417685	0.052754
O33	O	0.467811	0.849812	-0.052784
O34	O	0.588600	0.849814	-0.052789
O35	O	0.663776	0.562644	0.118149
O36	O	0.738574	0.562645	0.039368
O37	O	0.671163	0.704855	-0.039404
O38	O	0.596364	0.704854	0.039377
C39	C	0.633757	0.443670	-0.000018
C40	C	0.633756	0.379160	-0.000019
C41	C	0.584009	-0.028873	-0.058166
C42	C	0.584002	0.031746	-0.058166
C43	C	0.633767	0.009570	-0.000015
C44	C	0.683531	-0.073235	0.058150
C45	C	0.683531	-0.133851	0.058153
N46	N	0.695189	0.065673	0.017589
N47	N	0.695186	0.123259	0.017582
C48	C	0.633768	0.192200	-0.000018
N49	N	0.572350	0.201387	-0.017626
N50	N	0.572353	0.143797	-0.017623
C51	C	0.633772	0.075292	-0.000011
C52	C	0.583998	0.340723	-0.058177
C53	C	0.583991	0.401341	-0.058171
C54	C	0.683525	0.296357	0.058142
C55	C	0.683526	0.235742	0.058140
C56	C	0.633763	0.257930	-0.000024
C57	C	0.443681	0.633745	-0.000007
C58	C	0.379170	0.633744	-0.000005
C59	C	0.384052	0.559514	0.041106
C60	C	0.323437	0.559513	0.041110
C61	C	0.257939	0.633746	-0.000013
C62	C	0.253059	0.707986	-0.041126
C63	C	0.313674	0.707985	-0.041122
N64	N	0.138281	0.689001	-0.066939
N65	N	0.080702	0.688997	-0.066942
C66	C	0.075307	0.633753	-0.000027
N67	N	0.129673	0.578502	0.066890
N68	N	0.187259	0.578503	0.066891
C69	C	0.192208	0.633755	-0.000022
C70	C	0.014466	0.559517	0.041091
C71	C	-0.046152	0.559519	0.041097
C72	C	-0.116530	0.707994	-0.041146
C73	C	-0.055912	0.707990	-0.041144
C74	C	0.009584	0.633749	-0.000027
C75	C	0.823842	0.633752	-0.000023
C76	C	0.888354	0.633753	-0.000025
C77	C	0.643630	0.633746	-0.210601
C78	C	0.646979	0.633746	-0.282072
C79	C	0.633766	0.823827	-0.000012
C80	C	0.633768	0.888337	-0.000011
C81	C	0.671461	0.633754	-0.684385
C82	C	0.668312	0.633757	-0.617232
C83	C	0.614248	0.633751	-0.583650
C84	C	0.563326	0.633751	-0.617229
C85	C	0.566473	0.633754	-0.684384
C86	C	0.599204	0.633748	-0.382806
C87	C	0.596062	0.633743	-0.315645
C88	C	0.701048	0.633750	-0.315653
C89	C	0.704193	0.633748	-0.382807
C90	C	0.653269	0.633752	-0.416383
N91	N	0.611029	0.633752	-0.515007
N92	N	0.656486	0.633757	-0.485028
C93	C	0.623893	0.633750	0.210571
C94	C	0.620544	0.633751	0.282042
C95	C	0.823838	0.443674	-0.000026
C96	C	0.888348	0.379164	-0.000030
C97	C	0.623889	0.443672	0.210568
C98	C	0.620538	0.379162	0.282038
C99	C	0.813970	0.443676	0.210560
C100	C	0.875130	0.379167	0.282027
C101	C	0.453554	0.823821	-0.210590
C102	C	0.392393	0.888330	-0.282057
C103	C	0.443686	0.823823	-0.000004
C104	C	0.379176	0.888333	-0.000000
C105	C	0.643635	0.823825	-0.210598
C106	C	0.646986	0.888335	-0.282068
C107	C	0.883453	0.348868	-0.041158
C108	C	0.944062	0.288263	-0.041177
C109	C	1.009565	0.257950	-0.000063
C110	C	1.014459	0.288252	0.041067
C111	C	0.953851	0.348860	0.041081
C112	C	0.654154	0.348869	0.356727
C113	C	0.651003	0.288263	0.423887
C114	C	0.614239	0.257948	0.416356
C115	C	0.580619	0.288248	0.341658
C116	C	0.583766	0.348856	0.274500
C117	C	0.942903	0.348873	0.274467
C118	C	1.000376	0.288268	0.341611
C119	C	0.990075	0.257954	0.416316
C120	C	0.922296	0.288254	0.423875
C121	C	0.864824	0.348862	0.356731
C122	C	0.324621	0.918632	-0.274496
C123	C	0.267148	0.979255	-0.341641
C124	C	0.277448	1.009572	-0.416346
C125	C	0.345227	0.979268	-0.423905
C126	C	0.402699	0.918650	-0.356761
C127	C	0.384071	0.918635	0.041121
C128	C	0.323463	0.979257	0.041122
C129	C	0.257960	1.009572	0.000005
C130	C	0.253066	0.979268	-0.041121
C131	C	0.313674	0.918651	-0.041126
C132	C	0.683755	0.918630	-0.274511
C133	C	0.686917	0.979236	-0.341658
C134	C	0.653305	1.009550	-0.416361
C135	C	0.616534	0.979248	-0.423916
C136	C	0.613377	0.918639	-0.356770
H137	H	0.724048	-0.091287	0.105498
H138	H	1.036879	0.208604	0.470982
H139	H	0.525010	0.633753	-0.711719
C140	C	0.543179	0.633777	-0.419745
H141	H	0.510531	0.633774	-0.390125
H142	H	0.519717	0.681277	-0.472241
H143	H	0.564721	0.586292	-0.419649
H144	H	0.199727	0.768427	-0.074608
H145	H	0.230645	1.058931	-0.471012
H146	H	0.957846	0.373519	0.074577
H147	H	0.327461	1.003920	0.074615
H148	H	1.067800	0.263562	0.074540
H149	H	-0.059891	0.768436	-0.074627
H150	H	0.684091	0.373544	0.362875
H151	H	0.611681	0.208597	0.471047
C152	C	0.529265	-0.004465	-0.122137
H153	H	0.499625	0.053527	-0.156768
H154	H	0.552173	-0.025932	-0.150860
H155	H	0.502213	-0.025925	-0.098243
H156	H	0.543468	0.468755	-0.105529
C157	C	0.757052	0.633761	-0.278727
H158	H	0.747433	0.633767	-0.233927
H159	H	0.801652	0.586278	-0.263431
H160	H	0.756612	0.681262	-0.316046
H161	H	0.830123	0.373549	-0.074648
H162	H	0.543472	0.099166	-0.105515
C163	C	0.536586	0.633745	-0.278710
H164	H	0.506703	0.633756	-0.308329
H165	H	0.555686	0.586254	-0.226209
H166	H	0.510666	0.681239	-0.278820
H167	H	0.678384	0.263600	0.484703
H168	H	0.457881	0.893979	-0.362927
H169	H	0.550686	0.263556	0.335538
H170	H	0.556394	0.373513	0.213687
C171	C	0.738273	-0.224923	0.122123
H172	H	0.767913	-0.229453	0.156755
H173	H	0.715364	-0.250753	0.150846
H174	H	0.765324	-0.250749	0.098228
C175	C	0.656777	1.076224	-0.490215
H176	H	0.683485	1.089928	-0.475009
H177	H	0.678073	1.056367	-0.520602
H178	H	0.610910	1.123524	-0.520589
C179	C	0.790278	0.382169	0.365058
H180	H	0.792382	0.355425	0.419167
H181	H	0.766225	0.439395	0.340577
H182	H	0.766243	0.372218	0.340580
H183	H	0.913919	0.263564	0.484709
C184	C	0.954247	0.382210	0.192300
H185	H	1.002844	0.355487	0.197425
H186	H	0.933457	0.372273	0.164392
H187	H	0.933450	0.439439	0.164398
H188	H	0.316221	0.893951	-0.213674
H189	H	1.055560	0.263604	0.335442
C190	C	0.938666	0.254934	-0.086412
H191	H	0.890973	0.281660	-0.110881
H192	H	0.962582	0.264871	-0.125337
H193	H	0.959105	0.197705	-0.050915
C194	C	0.730933	0.633759	-0.721319
H195	H	0.760802	0.633768	-0.691707
H196	H	0.756858	0.586271	-0.721213
H197	H	0.711826	0.681255	-0.773822
H198	H	0.437401	0.893957	0.074608
C199	C	0.181012	1.012611	-0.086340
H200	H	0.186770	0.985890	-0.110839
H201	H	0.154167	1.002677	-0.050836
H202	H	0.157650	1.069840	-0.125254
C203	C	0.192600	1.012571	-0.333312
H204	H	0.194702	0.985820	-0.279203
H205	H	0.168554	1.069794	-0.357783
H206	H	0.168556	1.002635	-0.357800
H207	H	1.058911	0.208598	-0.000080
C208	C	0.356549	1.012616	-0.506082
H209	H	0.312611	1.053049	-0.544982
H210	H	0.382012	1.036265	-0.511989
H211	H	0.381999	0.969100	-0.511979
C212	C	0.191297	1.076246	0.000019
H213	H	0.203600	1.089942	0.030406
H214	H	0.166329	1.123543	-0.052367
H215	H	0.162843	1.056377	0.022046
C216	C	0.308280	0.885315	-0.086351
H217	H	0.260586	0.912049	-0.110828
H218	H	0.332203	0.895240	-0.125270
H219	H	0.328710	0.828088	-0.050850
H220	H	0.711127	0.893959	-0.213690
H221	H	0.724049	0.168329	0.105493
C222	C	0.727357	1.012567	-0.333334
H223	H	0.746909	0.985841	-0.279225
H224	H	0.763637	1.002630	-0.357810
H225	H	0.696463	1.069796	-0.357819
C226	C	0.579557	1.012605	-0.506091
H227	H	0.586700	1.053047	-0.544993
H228	H	0.598151	0.969103	-0.512000
H229	H	0.530997	1.036264	-0.511982
H230	H	0.583432	0.893979	-0.362933
C231	C	0.763663	0.633752	-0.419745
H232	H	0.758249	0.633744	-0.464543
H233	H	0.762207	0.681240	-0.435045
H234	H	0.807228	0.586256	-0.382430
C235	C	0.529259	0.365119	-0.122146
H236	H	0.536392	0.317161	-0.113822
H237	H	0.483831	0.396620	-0.119736
H238	H	0.533795	0.396620	-0.172349
C239	C	0.738265	0.271953	0.122110
H240	H	0.767900	0.213960	0.156749
H241	H	0.765314	0.293416	0.098225
H242	H	0.715349	0.293417	0.150836
C243	C	0.456092	0.477853	0.086340
H244	H	0.450315	0.433644	0.110831
H245	H	0.482949	0.474765	0.050850
H246	H	0.479452	0.474766	0.125262
H247	H	0.327413	0.499064	0.074588
H248	H	0.309693	0.768433	-0.074597
C249	C	0.503854	0.633748	-0.580295
H250	H	0.473976	0.633755	-0.609914
H251	H	0.522955	0.586258	-0.527794
H252	H	0.477929	0.681242	-0.580405
C253	C	0.086510	0.477858	0.086331
H254	H	0.080735	0.433648	0.110829
H255	H	0.113370	0.474764	0.050844
H256	H	0.109867	0.474780	0.125247
C257	C	-0.188569	0.789649	-0.086378
H258	H	-0.223971	0.779019	-0.080495
H259	H	-0.194837	0.820150	-0.066069
H260	H	-0.191348	0.820150	-0.140481
C261	C	0.724324	0.633753	-0.580300
H262	H	0.756978	0.633745	-0.609912
H263	H	0.702771	0.681241	-0.580406
H264	H	0.747791	0.586256	-0.527797
C265	C	-0.040783	0.477864	0.086326
H266	H	-0.086264	0.488496	0.080445
H267	H	-0.014648	0.447361	0.066018
H268	H	-0.018134	0.447364	0.140429
