data_functionalizedCrystal
_audit_creation_method	'MofGen! by Chris Wilmer'
_symmetry_space_group_name_H-M	'P1'
_symmetry_Int_Tables_number	1
_symmetry_cell_setting	triclinic
loop_
_symmetry_equiv_pos_as_xyz
  x,y,z
_cell_length_a	14.519709
_cell_length_b	10.654550
_cell_length_c	13.596369
_cell_angle_alpha	90.000219
_cell_angle_beta	89.999684
_cell_angle_gamma	95.917462
loop_
_atom_site_label
_atom_site_type_symbol
_atom_site_fract_x
_atom_site_fract_y
_atom_site_fract_z
O1	O	1.224724	-0.164615	-0.081663
O2	O	1.558057	0.168719	0.251670
O3	O	1.891390	0.502052	0.585004
O4	O	0.956347	-0.184001	-0.081693
O5	O	1.289681	0.149332	0.251640
O6	O	1.623014	0.482665	0.584974
O7	O	1.096706	0.008491	-0.081671
O8	O	1.430039	0.341824	0.251662
O9	O	1.763373	0.675157	0.584996
O10	O	1.084365	-0.357107	-0.081685
O11	O	1.417698	-0.023773	0.251648
O12	O	1.751032	0.309560	0.584982
O13	O	1.096689	0.008480	0.081912
O14	O	1.430022	0.341813	0.415245
O15	O	1.763355	0.675147	0.748578
O16	O	0.956330	-0.184012	0.081890
O17	O	1.289663	0.149321	0.415223
O18	O	1.622997	0.482655	0.748557
O19	O	1.224706	-0.164625	0.081920
O20	O	1.558040	0.168708	0.415253
O21	O	1.891373	0.502041	0.748587
Zn22	Zn	1.090515	-0.174320	0.107877
Zn23	Zn	1.423849	0.159013	0.441211
Zn24	Zn	1.757182	0.492346	0.774544
Zn25	Zn	1.090538	-0.174306	-0.107650
Zn26	Zn	1.423872	0.159027	0.225683
Zn27	Zn	1.757205	0.492360	0.559016
O28	O	1.084348	-0.357117	0.081898
O29	O	1.417681	-0.023784	0.415231
O30	O	1.751014	0.309549	0.748565
C31	C	0.921974	-0.183103	0.000095
C32	C	1.255307	0.150230	0.333428
C33	C	1.588641	0.483564	0.666761
C34	C	0.819579	-0.180396	0.000083
C35	C	1.152912	0.152938	0.333417
C36	C	1.486245	0.486271	0.666750
N37	N	1.090506	-0.174329	0.254969
N38	N	1.423840	0.159004	0.588302
N39	N	1.757173	0.492338	0.921636
C40	C	1.095791	0.055275	0.000120
C41	C	1.429124	0.388608	0.333453
C42	C	1.762458	0.721941	0.666786
C43	C	1.093080	0.194692	0.000118
C44	C	1.426413	0.528025	0.333451
C45	C	1.759747	0.861358	0.666785
C46	C	0.444631	-0.170428	0.000128
C47	C	0.777965	0.162905	0.333462
C48	C	1.111298	0.496238	0.666795
C49	C	0.548954	-0.173196	0.000116
C50	C	0.882287	0.160137	0.333449
C51	C	1.215620	0.493470	0.666782
C52	C	0.632102	-0.175412	0.000105
C53	C	0.965435	0.157922	0.333438
C54	C	1.298768	0.491255	0.666772
C55	C	0.736431	-0.178180	0.000094
C56	C	1.069764	0.155153	0.333427
C57	C	1.403097	0.488486	0.666761
C58	C	1.259079	-0.165524	0.000130
C59	C	1.592413	0.167810	0.333463
C60	C	1.925746	0.501143	0.666797
C61	C	1.361475	-0.168231	0.000135
C62	C	1.694808	0.165102	0.333468
C63	C	2.028141	0.498436	0.666802
C64	C	1.085262	-0.403901	0.000105
C65	C	1.418596	-0.070568	0.333438
C66	C	1.751929	0.262766	0.666772
C67	C	1.087973	-0.543318	0.000100
C68	C	1.421307	-0.209985	0.333434
C69	C	1.754640	0.123348	0.666767
C70	C	1.175721	0.274972	0.000127
C71	C	1.509054	0.608305	0.333460
C72	C	1.842388	0.941639	0.666793
C73	C	1.173168	0.405968	0.000115
C74	C	1.506501	0.739302	0.333448
C75	C	1.839835	1.072635	0.666781
C76	C	1.005326	0.376391	0.000089
C77	C	1.338660	0.709724	0.333422
C78	C	1.671993	1.043058	0.666755
C79	C	1.007880	0.245397	0.000094
C80	C	1.341213	0.578731	0.333427
C81	C	1.674547	0.912064	0.666760
N82	N	1.090554	-0.174288	-0.254742
N83	N	1.423888	0.159046	0.078591
N84	N	1.757221	0.492379	0.411925
C85	C	1.090511	-0.174332	0.343967
C86	C	1.423844	0.159001	0.677300
C87	C	1.757178	0.492335	1.010634
C88	C	1.090520	-0.174323	0.455618
C89	C	1.423853	0.159010	0.788952
C90	C	1.757187	0.492343	1.122285
C91	C	1.090532	-0.174309	0.544609
C92	C	1.423865	0.159024	0.877942
C93	C	1.757199	0.492358	1.211276
C94	C	1.090542	-0.174302	0.656267
C95	C	1.423876	0.159032	0.989601
C96	C	1.757209	0.492365	1.322934
H97	H	1.245096	0.233692	0.000144
H98	H	1.578430	0.567025	0.333478
H99	H	1.911763	0.900359	0.666811
H100	H	0.935959	0.417692	0.000071
H101	H	1.269292	0.751026	0.333404
H102	H	1.602626	1.084359	0.666738
H103	H	1.240463	0.471328	0.000120
H104	H	1.573796	0.804661	0.333453
H105	H	1.907130	1.137995	0.666786
H106	H	0.940579	0.180029	0.000084
H107	H	1.273913	0.513363	0.333417
H108	H	1.607246	0.846696	0.666750
