data_functionalizedCrystal
_audit_creation_method	'MofGen! by Chris Wilmer'
_symmetry_space_group_name_H-M	'P1'
_symmetry_Int_Tables_number	1
_symmetry_cell_setting	triclinic
loop_
_symmetry_equiv_pos_as_xyz
  x,y,z
_cell_length_a	11.026607
_cell_length_b	11.792241
_cell_length_c	10.065875
_cell_angle_alpha	98.849501
_cell_angle_beta	79.302338
_cell_angle_gamma	96.389716
loop_
_atom_site_label
_atom_site_type_symbol
_atom_site_fract_x
_atom_site_fract_y
_atom_site_fract_z
O1	O	1.630965	0.462836	-0.113504
O2	O	2.130965	0.962836	0.386496
O3	O	1.277303	0.408644	-0.113505
O4	O	1.777303	0.908644	0.386495
O5	O	1.462715	0.272275	-0.113495
O6	O	1.962715	0.772275	0.386505
O7	O	1.445553	0.599205	-0.113514
O8	O	1.945553	1.099205	0.386486
O9	O	1.427360	0.298412	0.113492
O10	O	1.927360	0.798412	0.613492
O11	O	1.241948	0.434781	0.113482
O12	O	1.741948	0.934781	0.613482
O13	O	1.595611	0.488973	0.113483
O14	O	2.095611	0.988973	0.613483
Zn15	Zn	1.413166	0.466027	0.149522
Zn16	Zn	1.913166	0.966027	0.649522
Zn17	Zn	1.459747	0.431590	-0.149543
Zn18	Zn	1.959747	0.931590	0.350457
O19	O	1.410198	0.625342	0.113473
O20	O	1.910198	1.125342	0.613473
C21	C	1.214349	0.411715	-0.000011
C22	C	1.714349	0.911715	0.499989
C23	C	1.079439	0.381912	-0.000011
C24	C	1.579439	0.881912	0.499989
C25	C	1.006175	0.464202	-0.000017
C26	C	1.506175	0.964202	0.499983
C27	C	0.866738	0.433401	-0.000017
C28	C	1.366738	0.933401	0.499983
C29	C	1.443960	0.242838	-0.000002
C30	C	1.943960	0.742838	0.499998
C31	C	1.440732	0.116183	-0.000003
C32	C	1.940732	0.616183	0.499997
C33	C	1.434802	-0.115710	-0.000026
C34	C	1.934802	0.384290	0.499974
C35	C	1.438097	0.013332	-0.000013
C36	C	1.938097	0.513332	0.499987
C37	C	1.658565	0.485901	-0.000014
C38	C	2.158565	0.985901	0.499986
C39	C	1.793477	0.515703	-0.000023
C40	C	2.293477	1.015703	0.499977
C41	C	1.428954	0.654778	-0.000023
C42	C	1.928954	1.154778	0.499977
C43	C	1.432183	0.781432	-0.000031
C44	C	1.932183	1.281432	0.499969
N45	N	1.381384	0.489530	0.353626
N46	N	1.881384	0.989530	0.853626
N47	N	1.491539	0.408079	-0.353647
N48	N	1.991539	0.908079	0.146353
C49	C	1.448682	0.439759	0.421408
C50	C	1.948682	0.939759	0.921408
C51	C	1.424231	0.457858	0.578574
C52	C	1.924231	0.957858	1.078574
H53	H	0.833974	0.608964	-0.000019
H54	H	1.333974	1.108964	0.499981
N55	N	1.548953	0.365542	0.344145
N56	N	2.048953	0.865542	0.844145
H57	H	1.612360	0.413063	0.284829
H58	H	2.112360	0.913063	0.784829
H59	H	1.590415	0.334811	0.411041
H60	H	2.090415	0.834811	0.911041
H61	H	1.305662	0.545537	0.411948
H62	H	1.805662	1.045537	0.911948
N63	N	1.025799	0.258385	0.000013
N64	N	1.525799	0.758385	0.500013
H65	H	0.933792	0.253893	0.000015
H66	H	1.433792	0.753893	0.500015
H67	H	1.067027	0.209626	-0.084130
H68	H	1.567027	0.709626	0.415870
H69	H	0.826244	0.340138	-0.000046
H70	H	1.326244	0.840138	0.499954
N71	N	1.059811	0.587732	-0.000015
N72	N	1.559811	1.087732	0.499985
H73	H	1.151818	0.592225	-0.000014
H74	H	1.651818	1.092225	0.499986
H75	H	1.044794	0.617106	-0.084165
H76	H	1.544794	1.117106	0.415835
N77	N	1.323919	0.532048	0.655807
N78	N	1.823919	1.032048	1.155807
H79	H	1.320668	0.534460	0.757133
H80	H	1.820668	1.034460	1.257133
H81	H	1.342579	0.612684	0.630898
H82	H	1.842579	1.112684	1.130898
H83	H	1.567257	0.352060	0.588036
H84	H	2.067257	0.852060	1.088036
