data_functionalizedCrystal
_audit_creation_method	'MofGen! by Chris Wilmer'
_symmetry_space_group_name_H-M	'P1'
_symmetry_Int_Tables_number	1
_symmetry_cell_setting	triclinic
loop_
_symmetry_equiv_pos_as_xyz
  x,y,z
_cell_length_a	10.654558
_cell_length_b	10.654550
_cell_length_c	9.730223
_cell_angle_alpha	89.998369
_cell_angle_beta	89.996179
_cell_angle_gamma	84.486610
loop_
_atom_site_label
_atom_site_type_symbol
_atom_site_fract_x
_atom_site_fract_y
_atom_site_fract_z
O1	O	1.667835	0.176445	-0.114267
O2	O	1.302358	0.193240	-0.114274
O3	O	1.493500	0.002104	-0.114265
O4	O	1.476694	0.367582	-0.114275
O5	O	1.493483	0.002105	0.114315
O6	O	1.302341	0.193241	0.114306
O7	O	1.667818	0.176446	0.114313
Zn8	Zn	1.485077	0.184844	0.150602
Zn9	Zn	1.485100	0.184842	-0.150562
O10	O	1.476677	0.367583	0.114304
C11	C	1.255552	0.192005	0.000016
C12	C	1.116109	0.188309	0.000013
C13	C	0.919580	0.183113	-0.124586
C14	C	1.050603	0.186575	-0.124587
C15	C	1.050588	0.186569	0.124623
C16	C	0.919569	0.183098	0.124623
C17	C	0.854079	0.181392	-0.249195
C18	C	0.919591	0.183129	-0.373805
C19	C	1.050614	0.186591	-0.373807
C20	C	1.116124	0.188315	-0.249197
C21	C	1.492257	-0.044694	0.000023
C22	C	1.488565	-0.184137	0.000018
C23	C	1.601106	-0.263620	0.000025
C24	C	1.597630	-0.394641	0.000015
C25	C	1.369061	-0.366684	-0.000001
C26	C	1.372539	-0.235666	-0.000002
C27	C	1.717133	-0.212091	0.000045
C28	C	1.829683	-0.291575	0.000052
C29	C	1.826207	-0.422596	0.000043
C30	C	1.710180	-0.474133	0.000025
C31	C	1.714625	0.177681	0.000021
C32	C	1.854067	0.181377	0.000014
C33	C	1.477919	0.414380	0.000013
C34	C	1.481611	0.553823	0.000009
N35	N	1.485071	0.184844	0.356138
N36	N	1.485116	0.184832	-0.356099
C37	C	1.400422	0.269442	0.428096
C38	C	1.400447	0.269439	0.571979
C39	C	1.569773	0.100231	0.571934
C40	C	1.569753	0.100240	0.428053
C41	C	1.315739	0.354045	0.356180
C42	C	1.231083	0.438649	0.428138
C43	C	1.231108	0.438647	0.572021
C44	C	1.315789	0.354041	0.643946
H45	H	1.103952	0.187994	-0.475270
H46	H	1.315811	0.354055	0.761105
H47	H	1.103936	0.187975	0.226074
H48	H	1.162186	0.507542	0.630607
H49	H	1.638683	0.031354	0.369465
H50	H	1.638717	0.031347	0.630505
O51	O	1.257442	0.192054	-0.249190
H52	H	1.291995	0.192978	-0.356768
H53	H	0.747393	0.178577	-0.249207
O54	O	1.947594	-0.508325	0.000060
H55	H	2.003086	-0.489870	-0.093090
O56	O	0.848946	0.181269	-0.508202
H57	H	0.746831	0.178583	-0.487272
H58	H	1.719976	-0.105409	0.000057
O59	O	1.139733	0.529883	0.350575
H60	H	1.153919	0.515660	0.238435
H61	H	1.707358	-0.580820	0.000003
H62	H	0.866224	0.181708	0.226084
H63	H	1.274597	-0.408657	-0.000013
O64	O	1.954823	-0.236000	0.000066
H65	H	1.938337	-0.131541	0.000084
H66	H	1.280898	-0.170948	-0.000005
O67	O	1.315717	0.354047	0.200993
H68	H	1.242619	0.427093	0.163071
