data_functionalizedCrystal
_audit_creation_method	'MofGen! by Chris Wilmer'
_symmetry_space_group_name_H-M	'P1'
_symmetry_Int_Tables_number	1
_symmetry_cell_setting	triclinic
loop_
_symmetry_equiv_pos_as_xyz
  x,y,z
_cell_length_a	18.050591
_cell_length_b	12.759399
_cell_length_c	12.759393
_cell_angle_alpha	90.030270
_cell_angle_beta	89.971724
_cell_angle_gamma	89.988878
loop_
_atom_site_label
_atom_site_type_symbol
_atom_site_fract_x
_atom_site_fract_y
_atom_site_fract_z
Zn1	Zn	1.135414	0.418334	-0.594236
Zn2	Zn	1.635414	0.918334	-0.094236
Zn3	Zn	1.135337	0.594048	-0.418555
Zn4	Zn	1.635337	1.094048	0.081445
Zn5	Zn	1.011217	0.418371	-0.418547
Zn6	Zn	1.511217	0.918371	0.081453
Zn7	Zn	1.011210	0.593959	-0.594168
Zn8	Zn	1.511210	1.093959	-0.094168
O9	O	1.073295	0.506178	-0.506377
O10	O	1.573295	1.006178	-0.006377
O11	O	1.239328	0.441664	-0.570963
O12	O	1.739328	0.941664	-0.070963
O13	O	1.118844	0.570796	-0.271533
O14	O	1.618844	1.070796	0.228467
O15	O	1.027728	0.271345	-0.441878
O16	O	1.527728	0.771345	0.058122
O17	O	1.239272	0.570760	-0.441891
O18	O	1.739272	1.070760	0.058109
O19	O	1.118975	0.271318	-0.570956
O20	O	1.618975	0.771318	-0.070956
O21	O	1.027653	0.441727	-0.271527
O22	O	1.527653	0.941727	0.228473
O23	O	0.907292	0.441642	-0.441812
O24	O	1.407292	0.941642	0.058188
O25	O	1.027715	0.570610	-0.741198
O26	O	1.527715	1.070610	-0.241198
O27	O	0.907286	0.570646	-0.570840
O28	O	1.407286	1.070646	-0.070840
O29	O	1.118967	0.441578	-0.741248
O30	O	1.618967	0.941578	-0.241248
O31	O	1.118836	0.741057	-0.441825
O32	O	1.618836	1.241057	0.058175
O33	O	1.027640	0.740992	-0.570848
O34	O	1.527640	1.240992	-0.070848
C35	C	0.880342	0.506139	-0.506319
C36	C	1.380342	1.006139	-0.006319
C37	C	0.797797	0.506147	-0.506319
C38	C	1.297797	1.006147	-0.006319
C39	C	1.073249	0.779145	-0.506353
C40	C	1.573249	1.279145	-0.006353
C41	C	1.073298	0.895922	-0.506378
C42	C	1.573298	1.395922	-0.006378
C43	C	1.073349	0.506080	-0.780410
C44	C	1.573349	1.006080	-0.280410
C45	C	1.073372	0.506038	-0.897187
C46	C	1.573372	1.006038	-0.397187
C47	C	0.598328	0.435914	-0.436315
C48	C	1.098328	0.935914	0.063685
C49	C	0.548921	0.531744	-0.410465
C50	C	1.048921	1.031744	0.089535
C51	C	0.646666	0.506179	-0.506366
C52	C	1.146666	1.006179	-0.006366
C53	C	0.548991	0.410382	-0.532213
C54	C	1.048991	0.910382	-0.032213
C55	C	0.500681	0.506202	-0.506410
C56	C	1.000681	1.006202	-0.006410
C57	C	0.598347	0.602060	-0.480466
C58	C	1.098347	1.102060	0.019534
C59	C	0.598422	0.480634	-0.602259
C60	C	1.098422	0.980634	-0.102259
C61	C	0.549037	0.576530	-0.576446
C62	C	1.049037	1.076530	-0.076446
C63	C	0.730765	0.506165	-0.506338
C64	C	1.230765	1.006165	-0.006338
C65	C	0.416585	0.506227	-0.506438
C66	C	0.916585	1.006227	-0.006438
C67	C	1.267000	0.506218	-0.506436
C68	C	1.767000	1.006218	-0.006436
C69	C	1.349546	0.506235	-0.506461
C70	C	1.849546	1.006235	-0.006461
C71	C	1.073361	0.232145	-0.506424
C72	C	1.573361	0.732145	-0.006424
C73	C	1.073389	0.115368	-0.506444
C74	C	1.573389	0.615368	-0.006444
C75	C	1.120837	0.950783	-0.439272
C76	C	1.620837	1.450783	0.060728
C77	C	1.120885	1.060507	-0.439307
C78	C	1.620885	1.560507	0.060693
C79	C	1.025847	1.060499	-0.573557
C80	C	1.525847	1.560499	-0.073557
C81	C	1.025803	0.950777	-0.573526
C82	C	1.525803	1.450777	-0.073526
C83	C	1.120874	0.573167	-1.061787
C84	C	1.620874	1.073167	-0.561787
C85	C	1.120856	0.573216	-0.952063
C86	C	1.620856	1.073216	-0.452063
C87	C	1.025897	0.438814	-0.952041
C88	C	1.525897	0.938814	-0.452041
C89	C	1.025912	0.438771	-1.061763
C90	C	1.525912	0.938771	-0.561763
C91	C	1.073284	0.506200	-0.233409
C92	C	1.573284	1.006200	0.266591
C93	C	1.073404	0.505945	-0.116633
C94	C	1.573404	1.005945	0.383367
H95	H	0.619970	0.376556	-0.377011
H96	H	1.119970	0.876556	0.122989
H97	H	0.527179	0.553367	-0.329389
H98	H	1.027179	1.053367	0.170611
F99	F	0.975376	0.367233	-1.120137
F100	F	1.475376	0.867233	-0.620137
H101	H	1.159545	0.627866	-1.106460
H102	H	1.659545	1.127866	-0.606460
F103	F	0.626563	0.707994	-0.451793
F104	F	1.126563	1.207994	0.048207
H105	H	0.987177	1.105176	-0.628225
H106	H	1.487177	1.605176	-0.128225
F107	F	1.171378	0.644764	-0.893697
F108	F	1.671378	1.144764	-0.393697
F109	F	0.520925	0.654297	-0.653903
F110	F	1.020925	1.154297	-0.153903
H111	H	0.987231	0.384122	-0.907352
H112	H	1.487231	0.884122	-0.407352
H113	H	0.620181	0.458981	-0.683311
H114	H	1.120181	0.958981	-0.183311
F115	F	0.520649	0.304481	-0.560763
F116	F	1.020649	0.804481	-0.060763
F117	F	1.171386	0.892405	-0.367809
F118	F	1.671386	1.392405	0.132191
H119	H	1.159598	1.105170	-0.384665
H120	H	1.659598	1.605170	0.115335
H121	H	0.987090	0.906107	-0.628176
H122	H	1.487090	1.406107	-0.128176
