data_functionalizedCrystal
_audit_creation_method	'MofGen! by Chris Wilmer'
_symmetry_space_group_name_H-M	'P1'
_symmetry_Int_Tables_number	1
_symmetry_cell_setting	triclinic
loop_
_symmetry_equiv_pos_as_xyz
  x,y,z
_cell_length_a	15.698487
_cell_length_b	23.196402
_cell_length_c	23.196401
_cell_angle_alpha	60.008822
_cell_angle_beta	90.013070
_cell_angle_gamma	60.001335
loop_
_atom_site_label
_atom_site_type_symbol
_atom_site_fract_x
_atom_site_fract_y
_atom_site_fract_z
Zr1	Zr	0.820609	0.631012	-0.075636
O2	O	0.684567	0.751277	-0.167681
O3	O	0.862310	0.510747	-0.047423
O4	O	0.862272	0.631014	-0.167688
O5	O	0.684638	0.631008	0.047456
O6	O	1.002454	0.631017	-0.167689
O7	O	0.684605	0.631010	-0.047416
O8	O	1.002521	0.415881	0.047443
O9	O	0.684571	0.846144	-0.167677
O10	O	0.984715	0.560216	-0.035387
O11	O	0.880124	0.560213	0.035416
O12	O	0.880080	0.701812	-0.106181
O13	O	0.775489	0.701809	-0.035379
Zr14	Zr	1.044235	0.631014	0.075671
Zr15	Zr	1.044182	0.631016	-0.075638
Zr16	Zr	0.820663	0.631010	0.075673
Zr17	Zr	0.820615	0.782315	-0.075629
Zr18	Zr	1.044229	0.479711	0.075664
O19	O	1.002535	0.751279	0.047458
O20	O	1.002458	0.751282	-0.167684
O21	O	0.684643	0.751273	0.047461
O22	O	1.180278	0.510749	0.167716
O23	O	1.180202	0.510752	-0.047426
O24	O	0.862386	0.510744	0.167719
O25	O	1.180207	0.631018	-0.047421
O26	O	1.002572	0.631011	0.167723
O27	O	0.862391	0.631009	0.167724
O28	O	1.180240	0.631016	0.047450
O29	O	0.862281	0.846147	-0.167679
O30	O	1.002563	0.415879	0.167714
O31	O	1.180274	0.415882	0.167712
O32	O	1.180231	0.415884	0.047441
O33	O	0.684613	0.846142	-0.047407
O34	O	0.862324	0.846145	-0.047408
O35	O	0.984765	0.560214	0.106216
O36	O	1.089355	0.560217	0.035413
O37	O	0.984720	0.701813	-0.035381
O38	O	0.880130	0.701810	0.035422
C39	C	0.932415	0.441757	0.000009
C40	C	0.932412	0.377525	0.000006
C41	C	0.652767	0.631008	0.000020
C42	C	0.557854	0.631007	0.000021
C43	C	0.987000	0.347356	-0.036954
C44	C	0.987010	0.286995	-0.036949
C45	C	0.932412	0.256817	0.000008
C46	C	0.877821	0.286990	0.036977
C47	C	0.877821	0.347344	0.036976
C48	C	0.840940	0.194786	-0.005265
C49	C	0.840937	0.134437	-0.005269
C50	C	0.932413	0.070662	0.000015
C51	C	1.023892	0.067252	0.005290
C52	C	1.023892	0.127606	0.005289
C53	C	0.932406	0.191372	0.000014
C54	C	0.987017	-0.024958	-0.036941
C55	C	0.987030	-0.085324	-0.036930
C56	C	0.877831	-0.085322	0.036991
C57	C	0.877828	-0.024963	0.036985
C58	C	0.932419	0.005218	0.000015
C59	C	0.384069	0.631021	0.000015
C60	C	0.480773	0.631017	0.000017
C61	C	1.212078	0.631017	0.000014
C62	C	1.306990	0.631019	0.000013
C63	C	0.932355	0.631016	-0.189247
C64	C	0.932333	0.631017	-0.253482
C65	C	0.932430	0.820269	0.000026
C66	C	0.932433	0.884501	0.000028
C67	C	0.877720	0.704926	-0.320608
C68	C	0.877746	0.704927	-0.380964
C69	C	0.932372	0.631015	-0.374188
C70	C	0.986997	0.557096	-0.307049
C71	C	0.986977	0.557097	-0.246696
C72	C	0.924612	0.574387	-0.441507
C73	C	0.924624	0.574389	-0.501861
C74	C	0.932438	0.631009	-0.560336
C75	C	0.940218	0.687640	-0.558456
C76	C	0.940199	0.687641	-0.498103
C77	C	0.932399	0.631005	-0.439627
C78	C	0.877850	0.704924	-0.692909
C79	C	0.877884	0.704922	-0.753264
C80	C	0.987128	0.557088	-0.679347
C81	C	0.987101	0.557092	-0.618994
C82	C	0.932457	0.631013	-0.625780
C83	C	0.932489	0.631010	0.189282
C84	C	0.932512	0.631009	0.253516
C85	C	1.212070	0.441761	0.000006
C86	C	1.306980	0.377531	0.000003
C87	C	0.932482	0.441754	0.189274
C88	C	0.932502	0.377521	0.253505
C89	C	1.212137	0.441758	0.189271
C90	C	1.307069	0.377527	0.253502
C91	C	0.652708	0.820268	-0.189236
C92	C	0.557775	0.884499	-0.253467
C93	C	0.652775	0.820265	0.000028
C94	C	0.557865	0.884495	0.000032
C95	C	0.932363	0.820272	-0.189239
C96	C	0.932343	0.884505	-0.253471
C97	C	1.296929	0.347367	-0.036963
C98	C	1.386099	0.287025	-0.036980
C99	C	1.485318	0.256842	-0.000028
C100	C	1.495366	0.287012	0.036938
C101	C	1.406198	0.347358	0.036951
C102	C	0.987132	0.347357	0.320633
C103	C	0.987147	0.287012	0.380991
C104	C	0.932537	0.256828	0.374221
C105	C	0.877899	0.286998	0.307086
C106	C	0.877879	0.347346	0.246729
C107	C	1.406255	0.347365	0.246707
C108	C	1.495463	0.287021	0.307053
C109	C	1.485483	0.256837	0.374193
C110	C	1.386286	0.287005	0.380986
C111	C	1.297081	0.347351	0.320641
C112	C	0.458589	0.914668	-0.246672
C113	C	0.369381	0.975031	-0.307018
C114	C	0.379362	1.005219	-0.374158
C115	C	0.478558	0.975047	-0.380951
C116	C	0.567764	0.914689	-0.320606
C117	C	0.567915	0.914665	0.036991
C118	C	0.478746	0.975024	0.036992
C119	C	0.379527	1.005209	0.000038
C120	C	0.369478	0.975036	-0.036926
C121	C	0.458647	0.914682	-0.036930
C122	C	0.986964	0.914670	-0.246678
C123	C	0.986965	0.975015	-0.307024
C124	C	0.932339	1.005199	-0.374164
C125	C	0.877717	0.975028	-0.380956
C126	C	0.877722	0.914680	-0.320609
H127	H	1.031454	0.371926	-0.067055
H128	H	1.558128	0.207698	0.423324
O129	O	1.417052	0.379872	0.076838
H130	H	1.379039	0.446447	0.039545
O131	O	1.045881	0.477385	-0.174282
H132	H	1.014337	0.441933	-0.168146
H133	H	1.576225	0.262464	0.301509
H134	H	0.450443	0.890093	-0.192009
O135	O	1.045878	0.254452	-0.076822
H136	H	1.083830	0.285583	-0.102534
O137	O	0.262461	1.007595	-0.076783
H138	H	0.202155	1.054625	-0.070560
H139	H	0.450449	0.890119	-0.067025
O140	O	0.818807	0.882145	-0.327939
H141	H	0.758456	0.893725	-0.302210
H142	H	0.288620	0.999587	-0.301473
O143	O	1.122560	-0.001526	0.010984
H144	H	1.186163	0.006248	0.014644
H145	H	0.486948	0.999580	0.067095
H146	H	1.031488	-0.109892	-0.067025
O147	O	0.818978	0.784643	-0.825672
H148	H	0.780972	0.836040	-0.820246
H149	H	0.833376	-0.109893	0.067082
H150	H	0.918242	0.528280	-0.393899
H151	H	1.031447	0.890104	-0.192015
O152	O	0.818935	0.007593	0.076839
H153	H	0.780962	-0.023525	0.102534
O154	O	1.046098	0.254474	0.453392
H155	H	0.990989	0.266067	0.482664
H156	H	1.098377	0.124824	0.009586
O157	O	1.046065	0.477376	-0.672046
H158	H	1.129997	0.441953	-0.642735
H159	H	0.648523	0.890126	-0.326147
H160	H	1.378176	0.262420	0.435660
H161	H	0.833228	0.765118	-0.326140
O162	O	1.045906	0.007592	-0.076803
H163	H	1.083884	-0.023540	-0.102494
O164	O	0.283143	1.070327	-0.439243
H165	H	0.212500	1.086228	-0.423232
H166	H	0.766448	0.137222	-0.009568
H167	H	0.932343	1.054339	-0.423296
H168	H	1.216148	0.371941	-0.067062
O169	O	0.742268	0.263576	-0.010970
H170	H	0.678656	0.255817	-0.014651
H171	H	1.216323	0.371902	0.326183
H172	H	0.486672	0.999633	-0.435624
H173	H	1.576162	0.262429	0.067023
H174	H	0.932562	0.207688	0.423373
O175	O	1.045920	0.477381	-0.299748
H176	H	1.129854	0.441951	-0.270437
H177	H	0.833241	0.999613	-0.435628
H178	H	0.648696	0.890093	0.067088
H179	H	0.833368	0.262414	0.067069
O180	O	0.283354	1.070283	0.000068
H181	H	0.307023	1.086173	0.031992
O182	O	1.045878	1.007553	-0.299692
H183	H	1.083846	0.976432	-0.242866
H184	H	1.377896	0.262468	-0.067082
H185	H	1.557916	0.207704	-0.000044
H186	H	1.031603	0.371926	0.326159
H187	H	0.833437	0.262413	0.301584
H188	H	0.833367	0.371908	0.067074
O189	O	0.818840	0.784644	-0.453380
H190	H	0.734898	0.820079	-0.459537
O191	O	0.948612	0.748704	-0.496064
H192	H	0.954060	0.788073	-0.546858
O193	O	0.819121	0.379765	0.174327
H194	H	0.781221	0.348588	0.179767
H195	H	0.833356	0.765115	-0.698435
O196	O	0.948648	0.748717	-0.621516
H197	H	1.019526	0.715903	-0.632586
O198	O	1.045997	0.477380	-0.546583
H199	H	1.014445	0.441934	-0.540453
O200	O	0.916424	0.513216	-0.503842
H201	H	0.911079	0.473799	-0.453020
O202	O	1.417033	0.379924	0.174295
H203	H	1.500996	0.348814	0.179720
