data_functionalizedCrystal
_audit_creation_method	'MofGen! by Chris Wilmer'
_symmetry_space_group_name_H-M	'P1'
_symmetry_Int_Tables_number	1
_symmetry_cell_setting	triclinic
loop_
_symmetry_equiv_pos_as_xyz
  x,y,z
_cell_length_a	12.811445
_cell_length_b	14.853559
_cell_length_c	11.295483
_cell_angle_alpha	94.102887
_cell_angle_beta	80.460739
_cell_angle_gamma	83.839672
loop_
_atom_site_label
_atom_site_type_symbol
_atom_site_fract_x
_atom_site_fract_y
_atom_site_fract_z
O1	O	1.410771	0.106116	-0.251358
O2	O	1.102834	0.121343	-0.218108
O3	O	1.265033	-0.017533	-0.235620
O4	O	1.248573	0.244992	-0.233845
O5	O	1.250786	-0.005354	-0.036031
O6	O	1.088588	0.133523	-0.018519
O7	O	1.396525	0.118295	-0.051769
Cu8	Cu	1.241256	0.127021	-0.016920
Cu9	Cu	1.258103	0.112618	-0.252957
O10	O	1.234326	0.257171	-0.034257
C11	C	1.056303	0.126952	-0.114058
C12	C	0.938878	0.125508	-0.101379
C13	C	0.733751	0.109533	-0.295168
C14	C	0.623420	0.108176	-0.283260
C15	C	0.607882	0.121444	-0.065657
C16	C	0.718213	0.122801	-0.077564
C17	C	0.781144	0.116844	-0.192324
C18	C	0.891478	0.118194	-0.204231
C19	C	0.875937	0.131468	0.013372
C20	C	0.765605	0.130112	0.025280
C21	C	1.257166	-0.045029	-0.135748
C22	C	1.254936	-0.145105	-0.135514
C23	C	1.253240	-0.574882	-0.243288
C24	C	1.237709	-0.561598	-0.025689
C25	C	1.239813	-0.467573	-0.025915
C26	C	1.248629	-0.427198	-0.134829
C27	C	1.255342	-0.480848	-0.243517
C28	C	1.233090	-0.413915	0.082773
C29	C	1.235192	-0.319884	0.082551
C30	C	1.244017	-0.279508	-0.026366
C31	C	1.250731	-0.333164	-0.135058
C32	C	1.259547	-0.292789	-0.243973
C33	C	1.266269	-0.346444	-0.352668
C34	C	1.264166	-0.440472	-0.352434
C35	C	1.246119	-0.185480	-0.026599
C36	C	1.261648	-0.198755	-0.244202
C37	C	1.443056	0.112687	-0.155821
C38	C	1.560482	0.114130	-0.168508
C39	C	1.242194	0.284668	-0.134132
C40	C	1.244424	0.384743	-0.134374
N41	N	1.229413	0.137151	0.149095
N42	N	1.269954	0.102481	-0.418973
C43	C	1.355200	0.029510	0.384803
C44	C	1.346259	0.037172	0.510432
C45	C	1.202584	0.160131	0.525985
C46	C	1.211526	0.152469	0.400356
C47	C	1.287837	0.087158	0.329769
C48	C	1.296783	0.079501	0.204137
C49	C	1.153104	0.202455	0.219693
C50	C	1.144163	0.210116	0.345322
H51	H	0.784992	0.104677	-0.388610
Br52	Br	1.273296	-0.513294	-0.499935
Br53	Br	1.400352	-0.009130	0.108342
Br54	Br	0.559103	0.098260	-0.422840
Br55	Br	1.040596	0.298746	0.441125
Br56	Br	1.437678	-0.041071	0.585120
Br57	Br	0.522455	0.129549	0.090076
H58	H	0.942716	0.113342	-0.297674
H59	H	1.229723	-0.276206	0.171056
H60	H	1.273439	-0.313557	-0.441345
Br61	Br	1.236992	-0.112666	0.120902
Br62	Br	0.940263	0.141371	0.152955
Br63	Br	1.262378	-0.647696	-0.390798
H64	H	1.098256	0.249398	0.174870
Br65	Br	1.221095	-0.468710	0.230579
H66	H	1.268833	-0.165889	-0.332895
H67	H	0.714351	0.134965	0.118714
H68	H	1.417343	-0.023663	0.327330
H69	H	1.230524	-0.594477	0.062985
Br70	Br	1.099009	0.248751	0.621794
