data_functionalizedCrystal
_audit_creation_method	'MofGen! by Chris Wilmer'
_symmetry_space_group_name_H-M	'P1'
_symmetry_Int_Tables_number	1
_symmetry_cell_setting	triclinic
loop_
_symmetry_equiv_pos_as_xyz
  x,y,z
_cell_length_a	10.489716
_cell_length_b	10.489741
_cell_length_c	9.565339
_cell_angle_alpha	90.000900
_cell_angle_beta	90.004273
_cell_angle_gamma	95.465845
loop_
_atom_site_label
_atom_site_type_symbol
_atom_site_fract_x
_atom_site_fract_y
_atom_site_fract_z
O1	O	0.179961	-1.694037	-0.116160
O2	O	0.196854	-1.322840	-0.116180
O3	O	0.002807	-1.516901	-0.116175
O4	O	0.374007	-1.499976	-0.116165
O5	O	0.002819	-1.516886	0.116346
O6	O	0.196866	-1.322825	0.116340
O7	O	0.179973	-1.694022	0.116360
Zn8	Zn	0.188421	-1.508421	0.153268
Zn9	Zn	0.188405	-1.508441	-0.153088
O10	O	0.374019	-1.499960	0.116355
C11	C	0.195584	-1.275301	0.000077
C12	C	0.191767	-1.133672	0.000069
C13	C	0.181243	-1.741561	0.000100
C14	C	0.185060	-1.883190	0.000099
C15	C	-0.044719	-1.515622	0.000081
C16	C	-0.186350	-1.511817	0.000068
C17	C	-0.284024	-1.630822	0.000088
C18	C	-0.361390	-1.567945	-0.114557
C19	C	-0.361342	-1.567902	0.114690
C20	C	-0.261851	-1.448990	-0.114671
C21	C	-0.261798	-1.448965	0.114679
C22	C	-0.339115	-1.386000	0.000006
C23	C	0.421545	-1.501240	0.000096
C24	C	0.563176	-1.505044	0.000100
N25	N	0.188431	-1.508416	0.362347
C26	C	0.068301	-1.065542	0.000079
C27	C	0.126619	-0.973418	-0.114561
C28	C	0.126660	-0.973437	0.114685
C29	C	0.250136	-1.043413	-0.114666
C30	C	0.250160	-1.043441	0.114683
C31	C	0.308568	-0.951344	0.000015
N32	N	0.188385	-1.508455	-0.362167
C33	C	0.278141	-1.418642	0.453548
C34	C	0.303952	-1.534136	0.546734
C35	C	0.162631	-1.392971	0.546716
C36	C	0.214300	-1.623969	0.453482
C37	C	0.072928	-1.482728	0.453456
C38	C	0.098691	-1.598306	0.546600
H39	H	-0.259347	-1.734335	-0.000023
H40	H	-0.404890	-1.618187	-0.211477
F41	F	-0.000500	-1.697666	0.599676
H42	H	-0.033196	-1.115241	-0.000067
H43	H	-0.404810	-1.618157	0.211610
H44	H	0.074373	-0.942415	-0.211486
F45	F	-0.204883	-1.383371	0.241366
F46	F	0.318394	-1.084010	0.241376
F47	F	0.134131	-1.265343	0.600250
F48	F	0.318359	-1.083704	-0.241491
H49	H	0.410172	-0.901911	-0.000045
H50	H	-0.024699	-1.460938	0.412452
F51	F	0.377390	-1.319502	0.400137
H52	H	-0.218552	-1.398787	-0.211701
H53	H	-0.363546	-1.282408	-0.000061
F54	F	0.058358	-0.932946	0.241368
F55	F	0.242946	-1.751632	0.400182
F56	F	0.431596	-1.562572	0.600288
