data_functionalizedCrystal
_audit_creation_method	'MofGen! by Chris Wilmer'
_symmetry_space_group_name_H-M	'P1'
_symmetry_Int_Tables_number	1
_symmetry_cell_setting	triclinic
loop_
_symmetry_equiv_pos_as_xyz
  x,y,z
_cell_length_a	10.654555
_cell_length_b	9.198806
_cell_length_c	10.654550
_cell_angle_alpha	89.996718
_cell_angle_beta	84.485953
_cell_angle_gamma	89.998944
loop_
_atom_site_label
_atom_site_type_symbol
_atom_site_fract_x
_atom_site_fract_y
_atom_site_fract_z
O1	O	-1.667836	0.120804	-0.176427
O2	O	-1.302359	0.120826	-0.193226
O3	O	-1.493500	0.120805	-0.002087
O4	O	-1.476694	0.120825	-0.367566
O5	O	-1.493486	-0.120980	-0.002086
O6	O	-1.302344	-0.120959	-0.193225
O7	O	-1.667822	-0.120981	-0.176425
Cu8	Cu	-1.485082	-0.143047	-0.184825
Cu9	Cu	-1.485099	0.142892	-0.184827
O10	O	-1.476680	-0.120961	-0.367564
C11	C	-1.255554	-0.000064	-0.191991
C12	C	-1.116111	-0.000055	-0.188296
N13	N	-1.485079	-0.344161	-0.184823
C14	C	-0.919573	0.131734	-0.183095
C15	C	-1.050595	0.131741	-0.186559
C16	C	-1.050598	-0.131867	-0.186557
C17	C	-0.919580	-0.131872	-0.183084
C18	C	-1.565532	-0.583771	-0.104395
C19	C	-1.565516	-0.416358	-0.104396
C20	C	-0.714627	-0.000083	-0.177662
C21	C	-0.854069	-0.000067	-0.181360
C22	C	-1.492259	-0.000086	0.044711
C23	C	-1.488567	-0.000084	0.184155
N24	N	-1.485111	0.344006	-0.184819
C25	C	-1.477921	-0.000066	-0.414363
C26	C	-1.481613	-0.000059	-0.553806
C27	C	-1.601109	-0.000090	0.263638
C28	C	-1.597632	-0.000072	0.394659
C29	C	-1.369063	-0.000048	0.366700
C30	C	-1.372541	-0.000055	0.235682
H31	H	-0.866239	0.239058	-0.181690
F32	F	-0.849862	-0.272160	-0.181234
F33	F	-1.655507	-0.335181	-0.014390
H34	H	-1.103923	0.239066	-0.187970
H35	H	-1.689275	-0.000074	0.459370
F36	F	-1.120329	-0.272135	-0.188402
F37	F	-1.655553	-0.664938	-0.014398
H38	H	-1.416219	-0.406261	-0.253676
H39	H	-1.695585	-0.000110	0.221690
F40	F	-1.252753	-0.000038	0.151084
F41	F	-1.245587	-0.000017	0.421551
H42	H	-1.416252	-0.593889	-0.253679
