data_functionalizedCrystal
_audit_creation_method	'MofGen! by Chris Wilmer'
_symmetry_space_group_name_H-M	'P1'
_symmetry_Int_Tables_number	1
_symmetry_cell_setting	triclinic
loop_
_symmetry_equiv_pos_as_xyz
  x,y,z
_cell_length_a	16.625546
_cell_length_b	10.685972
_cell_length_c	10.685314
_cell_angle_alpha	90.358457
_cell_angle_beta	94.331126
_cell_angle_gamma	85.613069
loop_
_atom_site_label
_atom_site_type_symbol
_atom_site_fract_x
_atom_site_fract_y
_atom_site_fract_z
Zn1	Zn	-0.271680	-1.863525	-0.856526
Zn2	Zn	0.061654	-1.530191	-0.523192
Zn3	Zn	0.394987	-1.196858	-0.189859
Zn4	Zn	-0.395485	-1.879457	-0.646740
Zn5	Zn	-0.062152	-1.546123	-0.313406
Zn6	Zn	0.271181	-1.212790	0.019927
Zn7	Zn	-0.270145	-1.669813	-0.630671
Zn8	Zn	0.063189	-1.336480	-0.297338
Zn9	Zn	0.396522	-1.003147	0.035995
Zn10	Zn	-0.415952	-1.653693	-0.840340
Zn11	Zn	-0.082618	-1.320359	-0.507006
Zn12	Zn	0.250715	-0.987026	-0.173673
O13	O	-0.338315	-1.766622	-0.743569
O14	O	-0.004982	-1.433289	-0.410236
O15	O	0.328351	-1.099955	-0.076902
O16	O	-0.280180	-2.041190	-0.842196
O17	O	0.053154	-1.707857	-0.508862
O18	O	0.386487	-1.374524	-0.175529
O19	O	-0.369651	-1.865061	-0.469065
O20	O	-0.036318	-1.531728	-0.135731
O21	O	0.297016	-1.198394	0.197602
O22	O	-0.157514	-1.695588	-0.660681
O23	O	0.175819	-1.362255	-0.327347
O24	O	0.509152	-1.028922	0.005986
O25	O	-0.371139	-2.052895	-0.688067
O26	O	-0.037806	-1.719562	-0.354733
O27	O	0.295527	-1.386229	-0.021400
O28	O	-0.158642	-1.837908	-0.826615
O29	O	0.174691	-1.504574	-0.493282
O30	O	0.508025	-1.171241	-0.159948
O31	O	-0.277564	-1.711037	-0.457259
O32	O	0.055769	-1.377704	-0.123926
O33	O	0.389103	-1.044370	0.209407
O34	O	-0.297409	-1.492123	-0.644986
O35	O	0.035924	-1.158789	-0.311652
O36	O	0.369257	-0.825456	0.021681
O37	O	-0.406021	-1.668113	-1.018030
O38	O	-0.072688	-1.334780	-0.684697
O39	O	0.260645	-1.001447	-0.351363
O40	O	-0.404533	-1.480279	-0.799028
O41	O	-0.071200	-1.146946	-0.465695
O42	O	0.262134	-0.813612	-0.132361
O43	O	-0.300025	-1.822276	-1.029922
O44	O	0.033308	-1.488943	-0.696589
O45	O	0.366642	-1.155609	-0.363255
O46	O	-0.511034	-1.849430	-0.672372
O47	O	-0.177701	-1.516096	-0.339038
O48	O	0.155633	-1.182763	-0.005705
O49	O	-0.526071	-1.683562	-0.814609
O50	O	-0.192737	-1.350228	-0.481276
O51	O	0.140596	-1.016895	-0.147942
C52	C	-0.353026	-1.440682	-0.718508
C53	C	-0.019693	-1.107349	-0.385174
C54	C	0.313641	-0.774016	-0.051841
C55	C	-0.359340	-1.301242	-0.707816
C56	C	-0.026007	-0.967908	-0.374483
C57	C	0.307326	-0.634575	-0.041149
C58	C	-0.547809	-1.766507	-0.743507
C59	C	-0.214475	-1.433174	-0.410174
C60	C	0.118858	-1.099840	-0.076841
C61	C	-0.637428	-1.766570	-0.743532
C62	C	-0.304095	-1.433236	-0.410198
C63	C	0.029239	-1.099903	-0.076865
C64	C	-0.965601	-1.766778	-0.743679
C65	C	-0.632267	-1.433445	-0.410346
C66	C	-0.298934	-1.100112	-0.077013
C67	C	-0.874293	-1.766716	-0.743641
C68	C	-0.540960	-1.433383	-0.410308
C69	C	-0.207627	-1.100049	-0.076975
C70	C	-0.801517	-1.766673	-0.743605
C71	C	-0.468184	-1.433340	-0.410271
C72	C	-0.134851	-1.100006	-0.076938
C73	C	-0.710204	-1.766613	-0.743568
C74	C	-0.376871	-1.433279	-0.410235
C75	C	-0.043537	-1.099946	-0.076902
C76	C	-0.128004	-1.766769	-0.743661
C77	C	0.205330	-1.433436	-0.410328
C78	C	0.538663	-1.100102	-0.076994
C79	C	-0.038381	-1.766832	-0.743700
C80	C	0.294952	-1.433498	-0.410367
C81	C	0.628285	-1.100165	-0.077034
C82	C	-0.355477	-1.741619	-1.070765
C83	C	-0.022144	-1.408286	-0.737432
C84	C	0.311189	-1.074953	-0.404098
C85	C	-0.362791	-1.730965	-1.210197
C86	C	-0.029457	-1.397631	-0.876863
C87	C	0.303876	-1.064298	-0.543530
C88	C	-0.323542	-1.093835	-0.768723
C89	C	0.009791	-0.760501	-0.435390
C90	C	0.343125	-0.427168	-0.102057
C91	C	-0.317232	-1.233274	-0.779427
C92	C	0.016101	-0.899941	-0.446094
C93	C	0.349435	-0.566608	-0.112761
C94	C	-0.321159	-1.791599	-0.417651
C95	C	0.012175	-1.458266	-0.084318
C96	C	0.345508	-1.124933	0.249015
C97	C	-0.313607	-1.802497	-0.278239
C98	C	0.019726	-1.469164	0.055094
C99	C	0.353059	-1.135830	0.388427
H100	H	-0.276346	-1.281761	-0.848914
H101	H	0.056987	-0.948428	-0.515581
H102	H	0.390321	-0.615094	-0.182248
N103	N	-0.410618	-1.240424	-0.620609
N104	N	-0.077285	-0.907090	-0.287276
N105	N	0.256048	-0.573757	0.046057
N106	N	-0.381252	-1.173384	-0.535202
N107	N	-0.047919	-0.840051	-0.201869
N108	N	0.285414	-0.506718	0.131465
H109	H	-0.417465	-1.130432	-0.473610
H110	H	-0.084132	-0.797098	-0.140277
H111	H	0.249201	-0.463765	0.193056
N112	N	-0.253754	-1.889528	-1.217492
N113	N	0.079579	-1.556195	-0.884159
N114	N	0.412912	-1.222862	-0.550826
N115	N	-0.247691	-1.898340	-1.100512
N116	N	0.085642	-1.565007	-0.767179
N117	N	0.418976	-1.231674	-0.433846
H118	H	-0.205418	-1.959806	-1.057600
H119	H	0.127915	-1.626473	-0.724267
H120	H	0.461248	-1.293139	-0.390934
N121	N	-0.422634	-1.643907	-1.270947
N122	N	-0.089301	-1.310574	-0.937614
N123	N	0.244033	-0.977240	-0.604281
N124	N	-0.428694	-1.635083	-1.387927
N125	N	-0.095360	-1.301750	-1.054593
N126	N	0.237973	-0.968416	-0.721260
H127	H	-0.470956	-1.573598	-1.430834
H128	H	-0.137623	-1.240265	-1.097501
H129	H	0.195710	-0.906932	-0.764168
