data_functionalizedCrystal
_audit_creation_method	'MofGen! by Chris Wilmer'
_symmetry_space_group_name_H-M	'P1'
_symmetry_Int_Tables_number	1
_symmetry_cell_setting	triclinic
loop_
_symmetry_equiv_pos_as_xyz
  x,y,z
_cell_length_a	21.295420
_cell_length_b	21.395361
_cell_length_c	21.295420
_cell_angle_alpha	89.980988
_cell_angle_beta	89.992398
_cell_angle_gamma	90.024750
loop_
_atom_site_label
_atom_site_type_symbol
_atom_site_fract_x
_atom_site_fract_y
_atom_site_fract_z
Zn1	Zn	-0.962242	0.249626	0.355931
Zn2	Zn	-0.962177	0.354381	0.250656
Zn3	Zn	-0.856998	0.249611	0.250674
Zn4	Zn	-0.856934	0.354359	0.355886
O5	O	-0.909588	0.301994	0.303287
O6	O	-1.050322	0.263538	0.341978
O7	O	-0.948225	0.340486	0.162569
O8	O	-0.871013	0.161935	0.264663
O9	O	-1.050275	0.340501	0.264633
O10	O	-0.948335	0.161946	0.341995
O11	O	-0.870950	0.263512	0.162582
O12	O	-0.768900	0.263490	0.264619
O13	O	-0.870903	0.340463	0.443981
O14	O	-0.768853	0.340448	0.341918
O15	O	-0.948272	0.263516	0.444014
O16	O	-0.948162	0.442056	0.264589
O17	O	-0.870841	0.442040	0.341901
C18	C	-0.746036	0.301965	0.303266
C19	C	-0.676068	0.301968	0.303272
C20	C	-0.909505	0.464782	0.303252
C21	C	-0.909527	0.534423	0.303258
C22	C	-0.176634	0.261992	0.343620
C23	C	-0.242377	0.261989	0.343622
C24	C	-0.275229	0.301994	0.303289
C25	C	-0.242333	0.342016	0.262963
C26	C	-0.176591	0.342022	0.262967
N27	N	-0.378436	0.306708	0.248171
N28	N	-0.440887	0.306699	0.248169
C29	C	-0.473303	0.301980	0.303274
N30	N	-0.440909	0.297258	0.358383
N31	N	-0.378451	0.297264	0.358385
C32	C	-0.346514	0.301993	0.303280
C33	C	-0.577477	0.261960	0.343602
C34	C	-0.643221	0.261962	0.343604
C35	C	-0.643175	0.341986	0.262940
C36	C	-0.577433	0.341987	0.262943
C37	C	-0.544588	0.301971	0.303273
C38	C	-0.909588	0.301989	0.467477
C39	C	-0.909588	0.301986	0.537445
C40	C	-0.073778	0.302016	0.303303
C41	C	-0.143746	0.302006	0.303297
C42	C	-0.909688	0.138571	0.303336
C43	C	-0.909731	0.068930	0.303357
C44	C	-0.949824	0.567124	0.263043
C45	C	-0.949853	0.632560	0.263057
C46	C	-0.909574	0.665292	0.303279
C47	C	-0.869274	0.632583	0.343502
C48	C	-0.869250	0.567149	0.343491
C49	C	-0.852893	0.769001	0.308211
C50	C	-0.852916	0.834434	0.308218
C51	C	-0.909647	0.867112	0.303316
C52	C	-0.966358	0.834350	0.298396
C53	C	-0.966334	0.768915	0.298385
C54	C	-0.909595	0.736244	0.303296
C55	C	-0.949979	0.970766	0.263115
C56	C	-0.950010	1.036202	0.263133
C57	C	-0.869425	1.036224	0.343575
C58	C	-0.869401	0.970789	0.343560
C59	C	-0.909677	0.938064	0.303326
C60	C	-0.949846	0.261927	1.036921
C61	C	-0.949853	0.261928	0.971179
C62	C	-0.909572	0.301989	0.938285
C63	C	-0.869293	0.342063	0.971138
C64	C	-0.869292	0.342065	1.036880
N65	N	-0.854469	0.306782	0.835055
N66	N	-0.854472	0.306777	0.772603
C67	C	-0.909574	0.301986	0.740210
N68	N	-0.964674	0.297189	0.772627
N69	N	-0.964671	0.297191	0.835084
C70	C	-0.909569	0.301991	0.866999
C71	C	-0.949861	0.261919	0.636079
C72	C	-0.949868	0.261925	0.570335
C73	C	-0.869303	0.342056	0.570296
C74	C	-0.869301	0.342053	0.636038
C75	C	-0.909579	0.301982	0.668926
C76	C	-0.909580	0.302008	1.139735
C77	C	-0.909570	0.301993	1.069767
H78	H	-0.149895	0.229410	0.376463
H79	H	-0.836508	0.374676	0.543514
O80	O	-0.675073	0.223031	0.382796
C81	C	-0.631982	0.187726	0.418401
H82	H	-0.585116	0.185524	0.392623
H83	H	-0.624989	0.210735	0.466171
C84	C	-0.715228	0.123757	0.459248
C85	C	-0.657667	0.121049	0.427584
H86	H	-0.731072	0.082628	0.464915
H87	H	-0.744260	0.147544	0.435262
H88	H	-0.709393	0.142934	0.499053
H89	H	-0.663504	0.101879	0.387777
H90	H	-0.628637	0.097257	0.451563
O91	O	-1.021452	0.737159	0.293525
C92	C	-1.051289	0.753137	0.236644
H93	H	-1.033625	0.800669	0.220079
H94	H	-1.040141	0.716336	0.199584
C95	C	-1.144497	0.697714	0.267298
C96	C	-1.122806	0.756097	0.246954
H97	H	-1.188612	0.699538	0.273656
H98	H	-1.124395	0.686948	0.305618
H99	H	-1.135202	0.667053	0.236411
H100	H	-1.132095	0.786755	0.277844
H101	H	-1.142911	0.766869	0.208639
H102	H	-1.012555	0.860955	0.294405
H103	H	-0.982828	1.062826	0.230386
O104	O	-0.797749	0.737326	0.313064
C105	C	-0.767930	0.753299	0.369952
H106	H	-0.785629	0.800789	0.386526
H107	H	-0.779058	0.716448	0.407002
C108	C	-0.674680	0.698048	0.339297
C109	C	-0.696414	0.756378	0.359652
H110	H	-0.630566	0.699944	0.332945
H111	H	-0.694770	0.687284	0.300972
H112	H	-0.683959	0.667344	0.370175
H113	H	-0.687143	0.787079	0.328770
H114	H	-0.676321	0.767147	0.397972
H115	H	-0.550655	0.374569	0.230105
H116	H	-0.982670	0.659190	0.230309
H117	H	-0.269159	0.229402	0.376457
O118	O	-0.989012	0.535433	0.223948
C119	C	-1.024576	0.578333	0.188446
H120	H	-1.026747	0.624963	0.214238
H121	H	-1.001567	0.585331	0.140615
C122	C	-1.088907	0.495480	0.147757
C123	C	-1.091578	0.552750	0.179438
H124	H	-1.130236	0.479699	0.142198
H125	H	-1.064946	0.466576	0.171673
H126	H	-1.069730	0.501319	0.107901
H127	H	-1.110747	0.546909	0.219295
H128	H	-1.115544	0.581652	0.155528
O129	O	-0.988900	0.222936	0.668059
C130	C	-0.953085	0.182472	0.706106
H131	H	-0.903511	0.178591	0.686286
H132	H	-0.950901	0.201845	0.755923
C133	C	-1.044770	0.122112	0.731489
C134	C	-0.983883	0.117340	0.707143
H135	H	-1.063768	0.081936	0.732132
H136	H	-1.068900	0.149374	0.705858
H137	H	-1.042942	0.138259	0.773001
H138	H	-0.985713	0.101201	0.665630
H139	H	-0.959754	0.090074	0.732767
H140	H	-0.836632	1.062874	0.376328
O141	O	-0.274312	0.380907	0.223870
C142	C	-0.312322	0.421432	0.259635
H143	H	-0.322188	0.399401	0.307378
H144	H	-0.286973	0.467877	0.266470
C145	C	-0.362643	0.459776	0.166335
C146	C	-0.374764	0.432716	0.224973
H147	H	-0.401158	0.466740	0.144954
H148	H	-0.337033	0.432476	0.142239
H149	H	-0.341517	0.498478	0.172040
H150	H	-0.395882	0.394012	0.219268
H151	H	-0.400379	0.460010	0.249067
H152	H	-0.836480	0.659237	0.376253
O153	O	-0.988909	0.222916	0.939290
C154	C	-0.975192	0.160469	0.955385
H155	H	-0.924906	0.157304	0.973456
H156	H	-1.008952	0.144091	0.993551
C157	C	-1.044292	0.122543	0.874803
C158	C	-0.982529	0.118655	0.896993
H159	H	-1.048821	0.096748	0.838786
H160	H	-1.053536	0.164614	0.863961
H161	H	-1.072419	0.108895	0.906614
H162	H	-0.954404	0.132309	0.865186
H163	H	-0.973281	0.076585	0.907829
H164	H	-0.550733	0.229377	0.376441
O165	O	-0.830112	0.380988	0.667851
C166	C	-0.794570	0.416359	0.624723
H167	H	-0.792407	0.390695	0.577869
H168	H	-0.817594	0.463948	0.617718
C169	C	-0.730225	0.456901	0.707914
C170	C	-0.727563	0.425377	0.650368
H171	H	-0.688893	0.462467	0.723733
H172	H	-0.754171	0.433073	0.736971
H173	H	-0.749414	0.496555	0.702069
H174	H	-0.708381	0.385721	0.656215
H175	H	-0.703612	0.449199	0.621313
O176	O	-0.797838	0.866287	0.312888
C177	C	-0.789785	0.904182	0.259308
H178	H	-0.818690	0.884459	0.218847
H179	H	-0.806103	0.953754	0.270178
C180	C	-0.684396	0.929481	0.290447
C181	C	-0.719894	0.905253	0.240751
H182	H	-0.641284	0.930145	0.279001
H183	H	-0.689822	0.903952	0.326547
H184	H	-0.698002	0.970789	0.299501
H185	H	-0.706294	0.863944	0.231703
H186	H	-0.714464	0.930775	0.204649
O187	O	-0.675177	0.380790	0.223782
C188	C	-0.740255	0.372219	0.232438
H189	H	-0.749256	0.323895	0.253139
H190	H	-0.758902	0.409430	0.265893
C191	C	-0.762939	0.437222	0.143308
C192	C	-0.773995	0.377867	0.168729
H193	H	-0.783753	0.440708	0.104011
H194	H	-0.719095	0.442998	0.137478
H195	H	-0.778479	0.468224	0.171194
H196	H	-0.758449	0.346866	0.140847
H197	H	-0.817838	0.372085	0.174554
O198	O	-0.989016	0.222944	0.538524
C199	C	-1.024573	0.187590	0.581652
H200	H	-0.998788	0.185419	0.628511
H201	H	-1.072370	0.210536	0.588646
C202	C	-1.065350	0.123574	0.498465
C203	C	-1.033677	0.120903	0.556016
H204	H	-1.070968	0.082438	0.482652
H205	H	-1.041396	0.147394	0.469408
H206	H	-1.105177	0.142698	0.504301
H207	H	-0.993847	0.101785	0.550179
H208	H	-1.057624	0.097078	0.585072
O209	O	-0.989163	0.939069	0.224016
C210	C	-1.024731	0.981967	0.188515
H211	H	-1.026911	1.028594	0.214312
H212	H	-1.001718	0.988973	0.140687
C213	C	-1.089045	0.899108	0.147813
C214	C	-1.091728	0.956375	0.179499
H215	H	-1.130371	0.883321	0.142248
H216	H	-1.065082	0.870206	0.171728
H217	H	-1.069866	0.904954	0.107960
H218	H	-1.110900	0.950527	0.219354
H219	H	-1.115696	0.985276	0.155590
H220	H	-0.836584	0.944162	0.376304
O221	O	-0.830043	0.535477	0.382576
C222	C	-0.794510	0.578394	0.418097
H223	H	-0.792368	0.625054	0.392321
H224	H	-0.817527	0.585309	0.465928
C225	C	-0.730127	0.495597	0.458761
C226	C	-0.727492	0.552904	0.427100
H227	H	-0.688788	0.479873	0.464317
H228	H	-0.754068	0.466682	0.434832
H229	H	-0.749311	0.501367	0.498617
H230	H	-0.708316	0.547133	0.387242
H231	H	-0.703547	0.581818	0.451023
H232	H	-0.982646	0.229301	1.063694
O233	O	-0.830254	0.381007	0.939115
C234	C	-0.866076	0.421484	0.901089
H235	H	-0.913793	0.399389	0.891260
H236	H	-0.872967	0.467919	0.926406
C237	C	-0.772833	0.459957	0.850702
C238	C	-0.831438	0.432816	0.838625
H239	H	-0.751466	0.466950	0.812172
H240	H	-0.748699	0.432689	0.876322
H241	H	-0.778584	0.498650	0.871801
H242	H	-0.825687	0.394121	0.817534
H243	H	-0.855571	0.460078	0.813000
H244	H	-0.149814	0.374608	0.230130
H245	H	-0.836494	0.374692	1.063622
