data_functionalizedCrystal
_audit_creation_method	'MofGen! by Chris Wilmer'
_symmetry_space_group_name_H-M	'P1'
_symmetry_Int_Tables_number	1
_symmetry_cell_setting	triclinic
loop_
_symmetry_equiv_pos_as_xyz
  x,y,z
_cell_length_a	15.995350
_cell_length_b	15.995350
_cell_length_c	14.472310
_cell_angle_alpha	89.998838
_cell_angle_beta	90.009379
_cell_angle_gamma	83.492375
loop_
_atom_site_label
_atom_site_type_symbol
_atom_site_fract_x
_atom_site_fract_y
_atom_site_fract_z
O1	O	-1.110997	-0.107921	-0.076758
O2	O	-0.867221	-0.121248	-0.076776
O3	O	-0.995773	0.007303	-0.076766
O4	O	-0.982445	-0.236472	-0.076769
O5	O	-0.995740	0.007296	0.076916
O6	O	-0.867188	-0.121256	0.076906
O7	O	-1.110963	-0.107928	0.076924
Cu8	Cu	-0.989073	-0.114593	0.090947
Cu9	Cu	-0.989112	-0.114584	-0.090800
O10	O	-0.982412	-0.236480	0.076913
C11	C	-0.995205	0.038494	0.000073
C12	C	-0.993553	0.131444	0.000068
C13	C	-0.836010	-0.120701	0.000062
C14	C	-0.743060	-0.119049	0.000055
C15	C	-1.142175	-0.108476	0.000083
C16	C	-1.235125	-0.110127	0.000084
C17	C	-0.405312	-0.113117	0.000074
C18	C	-0.452746	-0.021565	0.000418
C19	C	-0.549436	-0.023217	0.000065
C20	C	-0.572873	-0.116060	0.000065
C21	C	-0.531804	-0.161212	-0.087692
C22	C	-0.435169	-0.158912	-0.087759
C23	C	-0.434792	-0.160812	0.087007
C24	C	-0.531737	-0.160790	0.088160
C25	C	-0.667570	-0.117727	0.000057
C26	C	-0.310614	-0.111452	0.000076
C27	C	-0.982980	-0.267671	0.000072
C28	C	-0.984631	-0.360621	0.000071
N29	N	-0.989051	-0.114598	0.218778
C30	C	-0.987621	0.469192	0.000071
C31	C	-0.896069	0.421758	-0.000281
C32	C	-0.897721	0.325068	0.000066
C33	C	-0.990564	0.301631	0.000069
C34	C	-1.035701	0.342705	0.087831
C35	C	-1.033401	0.439340	0.087904
C36	C	-1.035330	0.439707	-0.086861
C37	C	-1.035309	0.342762	-0.088021
C38	C	-0.992231	0.206934	0.000071
C39	C	-0.985956	0.563890	0.000075
N40	N	-0.989140	-0.114572	-0.218631
C41	C	-0.989111	-0.114581	0.592869
C42	C	-0.920095	-0.183135	0.553698
C43	C	-0.920254	-0.183385	0.446610
C44	C	-0.989081	-0.114590	0.407278
C45	C	-1.076445	-0.133671	0.446122
C46	C	-1.076057	-0.134159	0.553243
C47	C	-0.971542	-0.026741	0.553398
C48	C	-0.969538	-0.027327	0.446270
C49	C	-0.989069	-0.114593	0.302390
C50	C	-0.989128	-0.114579	0.697757
H51	H	-0.434210	0.015027	0.063352
H52	H	-0.854945	-0.171953	0.579481
H53	H	-0.547101	-0.228494	0.093461
C54	C	-1.147514	-0.069272	0.588252
H55	H	-1.176656	-0.042737	0.537003
H56	H	-1.124492	-0.028127	0.624732
H57	H	-1.185490	-0.096931	0.624604
H58	H	-0.909219	-0.008392	0.580461
H59	H	-0.861973	0.297200	0.063079
H60	H	-0.577308	0.012521	-0.062951
H61	H	-1.004324	0.314320	0.153137
C62	C	-0.587828	0.024729	0.085045
H63	H	-0.544335	0.045399	0.120093
H64	H	-0.616110	-0.012175	0.122170
H65	H	-0.626712	0.070559	0.065297
C66	C	-0.410451	-0.114417	-0.176372
H67	H	-0.459447	-0.097910	-0.211988
H68	H	-0.372484	-0.151822	-0.211458
H69	H	-0.384186	-0.066051	-0.160334
H70	H	-1.000459	0.457639	0.153505
C71	C	-0.849791	0.286668	-0.084919
H72	H	-0.850743	0.227389	-0.084824
H73	H	-0.793163	0.299158	-0.082755
H74	H	-0.875911	0.309761	-0.139616
H75	H	-0.433166	0.014865	-0.062168
H76	H	-0.560193	-0.129845	-0.153002
C77	C	-0.391601	-0.249708	-0.093163
H78	H	-0.432985	-0.287835	-0.095315
H79	H	-0.357073	-0.261269	-0.040248
H80	H	-0.357877	-0.256038	-0.147285
H81	H	-1.092297	-0.197002	0.419285
H82	H	-0.545930	-0.229421	-0.090955
H83	H	-0.414242	-0.130885	0.153524
C84	C	-0.846827	0.448222	0.084250
H85	H	-0.791582	0.419280	0.083502
H86	H	-0.874761	0.434565	0.139214
H87	H	-0.843746	0.507156	0.082170
H88	H	-1.103909	0.328579	0.091097
H89	H	-1.100617	0.471588	0.091888
C90	C	-0.882720	-0.007761	0.411981
H91	H	-0.858480	-0.052577	0.374055
H92	H	-0.847103	-0.001592	0.463479
H93	H	-0.889020	0.042954	0.377234
C94	C	-0.568612	-0.116264	0.175867
H95	H	-0.608913	-0.070606	0.158878
H96	H	-0.524711	-0.095698	0.210333
H97	H	-0.594984	-0.155019	0.212491
C98	C	-1.096966	-0.220697	0.586994
H99	H	-1.096917	-0.221756	0.652629
H100	H	-1.055938	-0.263355	0.564334
H101	H	-1.150953	-0.230362	0.564849
H102	H	-0.403031	-0.228313	0.087600
H103	H	-1.016541	0.026079	0.419500
H104	H	-0.859490	0.440293	-0.063217
H105	H	-1.005412	0.460250	-0.153379
H106	H	-1.002307	0.315516	-0.152945
H107	H	-0.931159	-0.247952	0.580608
C108	C	-1.126775	0.322017	-0.095178
H109	H	-1.138928	0.287853	-0.044306
H110	H	-1.133879	0.292675	-0.151190
H111	H	-1.163954	0.372734	-0.094431
C112	C	-1.126514	0.482618	-0.087665
H113	H	-1.135499	0.518334	-0.035310
H114	H	-1.164341	0.440956	-0.085738
H115	H	-1.135946	0.515057	-0.142436
H116	H	-0.855314	-0.172016	0.420349
C117	C	-0.935414	-0.271440	0.411974
H118	H	-0.941508	-0.307196	0.463372
H119	H	-0.888916	-0.294188	0.375542
H120	H	-0.985189	-0.267260	0.375650
C121	C	-1.147486	-0.068021	0.411699
H122	H	-1.124442	-0.028299	0.373236
H123	H	-1.174710	-0.039832	0.463121
H124	H	-1.187130	-0.095435	0.377483
H125	H	-1.021872	0.024275	0.578728
