data_functionalizedCrystal
_audit_creation_method	'MofGen! by Chris Wilmer'
_symmetry_space_group_name_H-M	'P1'
_symmetry_Int_Tables_number	1
_symmetry_cell_setting	triclinic
loop_
_symmetry_equiv_pos_as_xyz
  x,y,z
_cell_length_a	12.759401
_cell_length_b	16.959453
_cell_length_c	12.759393
_cell_angle_alpha	90.033968
_cell_angle_beta	90.020938
_cell_angle_gamma	90.021513
loop_
_atom_site_label
_atom_site_type_symbol
_atom_site_fract_x
_atom_site_fract_y
_atom_site_fract_z
Zn1	Zn	1.606228	-0.314611	0.593995
Zn2	Zn	1.606103	-0.446810	0.418304
Zn3	Zn	1.430526	-0.314653	0.418330
Zn4	Zn	1.430502	-0.446755	0.593941
O5	O	1.518340	-0.380707	0.506143
O6	O	1.753232	-0.332153	0.570701
O7	O	1.582770	-0.429320	0.271287
O8	O	1.453896	-0.204037	0.441665
O9	O	1.753140	-0.429279	0.441622
O10	O	1.582983	-0.204006	0.570726
O11	O	1.453775	-0.332225	0.271305
O12	O	1.283502	-0.332171	0.441614
O13	O	1.453855	-0.429185	0.740970
O14	O	1.283484	-0.429226	0.570635
O15	O	1.582960	-0.332100	0.741009
O16	O	1.582746	-0.557414	0.441570
O17	O	1.453733	-0.557373	0.570610
C18	C	1.245372	-0.380698	0.506122
C19	C	1.128596	-0.380713	0.506138
C20	C	1.073752	-0.431326	0.573213
C21	C	0.964028	-0.431329	0.573234
C22	C	0.964001	-0.330103	0.439095
C23	C	1.073723	-0.330097	0.439080
C24	C	1.518252	-0.586074	0.506104
C25	C	1.518311	-0.673930	0.506123
C26	C	1.585641	-1.045331	0.573471
C27	C	1.451332	-1.045480	0.438970
C28	C	1.451293	-0.962935	0.438946
C29	C	1.518428	-0.921583	0.506187
C30	C	1.585602	-0.962778	0.573451
C31	C	1.384112	-0.921734	0.371690
C32	C	1.384070	-0.839183	0.371664
C33	C	1.451211	-0.797830	0.438900
C34	C	1.518389	-0.839030	0.506167
C35	C	1.585524	-0.797678	0.573407
C36	C	1.652708	-0.838876	0.640669
C37	C	1.652744	-0.921425	0.640687
C38	C	1.451175	-0.715282	0.438882
C39	C	1.585485	-0.715125	0.573387
C40	C	1.792373	-0.380718	0.506164
C41	C	1.909150	-0.380722	0.506173
C42	C	1.518418	-0.380632	0.780176
C43	C	1.518452	-0.380599	0.896953
C44	C	1.518456	-0.174539	0.506204
C45	C	1.518506	-0.086683	0.506231
C46	C	1.518322	-0.380726	0.233175
C47	C	1.518492	-0.380536	0.116399
C48	C	1.585682	-0.330039	0.951837
C49	C	1.585700	-0.330005	1.061561
C50	C	1.451255	-0.431098	1.061507
C51	C	1.451232	-0.431128	0.951785
H52	H	0.919310	-0.288895	0.384497
H53	H	1.640344	-1.078878	0.628231
O54	O	1.127103	-0.480570	0.638208
C55	C	1.190541	-0.531555	0.578269
H56	H	1.157434	-0.536368	0.495515
H57	H	1.191778	-0.592417	0.616128
H58	H	1.273705	-0.507109	0.574698
H59	H	1.640413	-0.288893	0.907196
H60	H	1.396478	-0.472300	0.907097
O61	O	1.651108	-0.280867	1.114713
C62	C	1.710408	-0.236263	1.042783
H63	H	1.714010	-0.268664	0.964562
H64	H	1.793197	-0.227829	1.074502
H65	H	1.671971	-0.176232	1.031122
H66	H	1.329366	-0.805645	0.316895
O67	O	0.910916	-0.480571	0.638423
C68	C	0.982881	-0.525226	0.697622
H69	H	1.061069	-0.527919	0.654568
H70	H	0.951159	-0.587515	0.708684
H71	H	0.994606	-0.496354	0.777483
O72	O	1.126843	-0.280904	0.373819
C73	C	1.054886	-0.236221	0.314647
H74	H	0.976656	-0.268596	0.310937
H75	H	1.086555	-0.227712	0.231887
H76	H	1.043260	-0.176225	0.353266
O77	O	1.386065	-0.480158	1.114936
C78	C	1.400482	-0.469278	1.223550
H79	H	1.481581	-0.443392	1.238557
H80	H	1.393328	-0.528474	1.265229
H81	H	1.338196	-0.427173	1.254691
O82	O	1.318752	-0.961869	0.306492
C83	C	1.214016	-0.941738	0.329338
H84	H	1.208654	-0.918996	0.413258
H85	H	1.162152	-0.996065	0.320260
H86	H	1.186550	-0.893875	0.272971
H87	H	1.640159	-0.681462	0.628139
O88	O	1.717773	-0.798616	0.706038
C89	C	1.657887	-0.750880	0.773845
H90	H	1.578278	-0.738591	0.736717
H91	H	1.700633	-0.692793	0.787945
H92	H	1.646327	-0.782654	0.851703
H93	H	1.396669	-1.079154	0.384230
H94	H	1.396470	-0.681742	0.384123
O95	O	1.717836	-0.961486	0.706139
C96	C	1.657986	-1.009238	0.773925
H97	H	1.575231	-0.984389	0.780328
H98	H	1.695933	-1.010117	0.854817
H99	H	1.654399	-1.071819	0.741447
