data_functionalizedCrystal
_audit_creation_method	'MofGen! by Chris Wilmer'
_symmetry_space_group_name_H-M	'P1'
_symmetry_Int_Tables_number	1
_symmetry_cell_setting	triclinic
loop_
_symmetry_equiv_pos_as_xyz
  x,y,z
_cell_length_a	31.640172
_cell_length_b	20.919309
_cell_length_c	20.919292
_cell_angle_alpha	64.524738
_cell_angle_beta	93.150133
_cell_angle_gamma	57.427983
loop_
_atom_site_label
_atom_site_type_symbol
_atom_site_fract_x
_atom_site_fract_y
_atom_site_fract_z
Zr1	Zr	0.386972	0.700864	-0.056880
O2	O	0.312493	0.834471	-0.153925
O3	O	0.412070	0.567267	-0.030721
O4	O	0.403940	0.700864	-0.159108
O5	O	0.324459	0.700872	0.079820
O6	O	0.473496	0.700853	-0.159113
O7	O	0.320624	0.700874	-0.025538
O8	O	0.488039	0.461873	0.070548
O9	O	0.309915	0.939851	-0.149841
O10	O	0.471945	0.622206	-0.015230
O11	O	0.422898	0.622213	0.063400
O12	O	0.413326	0.779505	-0.087759
O13	O	0.364279	0.779511	-0.009128
Zr14	Zr	0.504023	0.700843	0.111146
Zr15	Zr	0.497906	0.700847	-0.056888
Zr16	Zr	0.393089	0.700861	0.111153
Zr17	Zr	0.382860	0.868934	-0.050367
Zr18	Zr	0.508135	0.532773	0.104633
O19	O	0.478925	0.834440	0.084987
O20	O	0.470228	0.834446	-0.153935
O21	O	0.321191	0.834465	0.084997
O22	O	0.578501	0.567237	0.208191
O23	O	0.569804	0.567243	-0.030732
O24	O	0.420767	0.567262	0.208201
O25	O	0.566536	0.700836	-0.025554
O26	O	0.487055	0.700844	0.213374
O27	O	0.417499	0.700855	0.213378
O28	O	0.570371	0.700833	0.079804
O29	O	0.398093	0.939838	-0.149847
O30	O	0.492901	0.461870	0.204113
O31	O	0.581079	0.461856	0.204107
O32	O	0.576217	0.461860	0.070542
O33	O	0.314777	0.939848	-0.016277
O34	O	0.402955	0.939834	-0.016283
O35	O	0.477669	0.622203	0.142024
O36	O	0.526716	0.622196	0.063394
O37	O	0.468097	0.779495	-0.009135
O38	O	0.419050	0.779501	0.069496
C39	C	0.450641	0.490624	0.018986
C40	C	0.452386	0.419274	0.016220
C41	C	0.427594	0.385771	0.055950
C42	C	0.429208	0.318767	0.053313
C43	C	0.455619	0.285264	0.010951
C44	C	0.480412	0.318773	-0.028784
C45	C	0.478794	0.385780	-0.026151
C46	C	0.461783	0.082950	0.000944
C47	C	0.463401	0.015937	-0.001684
C48	C	0.412197	0.015937	0.080412
C49	C	0.410583	0.082941	0.083045
C50	C	0.435374	0.116448	0.043307
C51	C	0.457272	0.216773	0.008256
C52	C	0.433717	0.184942	0.045997
C53	C	0.306735	0.700875	0.027142
C54	C	0.259641	0.700883	0.027145
C55	C	-0.034477	0.700839	-0.030909
C56	C	-0.211463	0.700828	-0.030915
O57	O	-0.236131	0.700789	-0.080260
N58	N	-0.231481	0.700828	0.027127
C59	C	-0.207247	0.700825	0.085177
O60	O	-0.228331	0.700816	0.134549
C61	C	-0.030259	0.700830	0.085186
C62	C	-0.010247	0.700839	0.027136
C63	C	-0.014464	0.700847	-0.088953
C64	C	0.029778	0.700854	-0.088954
C65	C	0.054008	0.700854	-0.030909
C66	C	0.033995	0.700847	0.027136
C67	C	-0.006024	0.700821	0.143238
C68	C	0.038227	0.700820	0.143236
C69	C	0.058239	0.700829	0.085186
C70	C	0.102467	0.700855	0.085180
N71	N	0.122485	0.700854	0.027138
C72	C	0.098255	0.700854	-0.030906
C73	C	-0.300169	0.700825	0.085168
C74	C	-0.344417	0.700825	0.085165
C75	C	-0.348629	0.700825	-0.030927
C76	C	-0.304383	0.700832	-0.030926
C77	C	-0.280151	0.700824	0.027126
C78	C	0.191167	0.700871	-0.030903
C79	C	0.235411	0.700883	-0.030899
C80	C	0.239622	0.700877	0.085194
C81	C	0.195379	0.700871	0.085189
C82	C	0.171153	0.700865	0.027137
O83	O	0.127165	0.700883	0.134504
O84	O	0.119354	0.700843	-0.080262
C85	C	-0.078719	0.700831	-0.030909
C86	C	-0.098731	0.700823	0.027136
C87	C	-0.074502	0.700824	0.085181
C88	C	-0.142979	0.700824	0.027133
C89	C	-0.167208	0.700824	-0.030911
C90	C	-0.147190	0.700823	-0.088953
C91	C	-0.102948	0.700831	-0.088953
C92	C	-0.094520	0.700824	0.143222
C93	C	-0.138763	0.700817	0.143217
C94	C	-0.162992	0.700817	0.085173
C95	C	0.584259	0.700832	0.027124
C96	C	0.631354	0.700825	0.027120
C97	C	0.437846	0.700859	-0.183052
C98	C	0.435250	0.700861	-0.254386
C99	C	0.440354	0.911084	0.035280
C100	C	0.438609	0.982434	0.038045
C101	C	0.472349	0.700856	-0.287902
C102	C	0.469910	0.700850	-0.354925
C103	C	0.430370	0.700854	-0.388434
C104	C	0.393270	0.700856	-0.354912
C105	C	0.395711	0.700856	-0.287888
C106	C	0.421085	0.700849	-0.590802
C107	C	0.418646	0.700852	-0.657832
C108	C	0.495288	0.700844	-0.657840
C109	C	0.497723	0.700849	-0.590816
C110	C	0.460624	0.700846	-0.557298
C111	C	0.427876	0.700851	-0.456943
C112	C	0.463121	0.700843	-0.488787
C113	C	0.453148	0.700849	0.237317
C114	C	0.455745	0.700847	0.308652
C115	C	0.589402	0.490602	0.018976
C116	C	0.638242	0.419245	0.016208
C117	C	0.458292	0.490619	0.229170
C118	C	0.462634	0.419267	0.297740
C119	C	0.597053	0.490597	0.229161
C120	C	0.648490	0.419238	0.297727
C121	C	0.293941	0.911110	-0.174895
C122	C	0.242505	0.982469	-0.243462
C123	C	0.301592	0.911105	0.035289
C124	C	0.252752	0.982463	0.038058
C125	C	0.432703	0.911089	-0.174904
C126	C	0.428361	0.982441	-0.243474
C127	C	0.632588	0.385740	-0.026140
C128	C	0.678473	0.318701	-0.028756
C129	C	0.730013	0.285164	0.010980
C130	C	0.735666	0.318676	0.053330
C131	C	0.689781	0.385718	0.055941
C132	C	0.493263	0.385755	0.370989
C133	C	0.497341	0.318721	0.435424
C134	C	0.470792	0.285197	0.426608
C135	C	0.440159	0.318717	0.353352
C136	C	0.436079	0.385753	0.288918
C137	C	0.698252	0.385724	0.288882
C138	C	0.746586	0.318684	0.353302
C139	C	0.745157	0.285155	0.426565
C140	C	0.695390	0.318676	0.435409
C141	C	0.647057	0.385719	0.370990
C142	C	0.192742	1.015992	-0.234616
C143	C	0.144408	1.083053	-0.299035
C144	C	0.145837	1.116586	-0.372298
C145	C	0.195604	1.083060	-0.381142
C146	C	0.243937	1.016005	-0.316724
C147	C	0.258406	1.015975	0.080399
C148	C	0.212520	1.083032	0.082997
C149	C	0.160980	1.116571	0.043259
C150	C	0.155327	1.083056	0.000912
C151	C	0.201213	1.016005	-0.001690
C152	C	0.454916	1.015943	-0.234634
C153	C	0.450847	1.082977	-0.299056
C154	C	0.420219	1.116511	-0.372318
C155	C	0.393663	1.083002	-0.381156
C156	C	0.397736	1.015965	-0.316735
H157	H	0.501913	0.291494	-0.063281
O158	O	0.191195	0.979836	-0.155600
H159	H	0.148468	1.014430	-0.160284
H160	H	0.123621	1.171169	0.045384
O161	O	0.093704	1.188920	-0.441776
H162	H	0.058863	1.206589	-0.423309
O163	O	0.399119	0.421869	0.101668
H164	H	0.428461	0.408934	0.146553
O165	O	0.355702	0.700856	-0.251726
H166	H	0.313976	0.762255	-0.292886
H167	H	0.196602	0.988722	-0.036167
O168	O	-0.274040	0.700824	0.147783
H169	H	-0.230900	0.639425	0.178880
H170	H	-0.022311	0.700813	0.190508
H171	H	0.416907	1.171097	-0.424767
O172	O	0.593385	0.421858	0.380533
H173	H	0.571206	0.408991	0.351464
O174	O	0.313990	0.979826	0.123253
H175	H	0.321535	0.949296	0.185150
H176	H	-0.155056	0.700817	0.190488
H177	H	0.514883	0.413042	0.378181
O178	O	0.411528	0.282554	0.343841
H179	H	0.426753	0.252010	0.310111
H180	H	0.479857	0.988650	-0.174987
H181	H	0.767371	0.230574	0.008848
O182	O	0.479489	1.119115	-0.289515
H183	H	0.501462	1.084541	-0.227748
O184	O	0.530392	0.282560	0.514430
H185	H	0.548175	0.317123	0.509728
O186	O	0.360622	1.119183	-0.460175
H187	H	0.362249	1.171435	-0.503479
H188	H	0.590625	0.413045	-0.058508
H189	H	0.392013	-0.011350	0.112763
O190	O	0.090737	1.119195	-0.289481
H191	H	0.057363	1.171465	-0.346578
H192	H	0.673860	0.291424	-0.063242
H193	H	0.113357	1.110374	-0.031441
H194	H	0.376108	0.988695	-0.323943
H195	H	0.784517	0.230563	0.479012
H196	H	0.251703	0.700892	-0.078173
O197	O	0.791257	0.282493	0.096195
H198	H	0.822210	0.230238	0.087267
H199	H	0.500120	0.700845	-0.382213
O200	O	0.197143	1.119225	-0.460164
H201	H	0.155171	1.171474	-0.503465
O202	O	0.381066	0.700861	-0.554665
H203	H	0.403220	0.639463	-0.495822
H204	H	0.694393	0.412989	0.090430
O205	O	0.491883	-0.020198	-0.047383
H206	H	0.508845	0.014365	-0.074580
O207	O	0.051364	0.700854	-0.151560
H208	H	0.027080	0.700844	-0.191912
O209	O	0.297610	0.979838	-0.326268
H210	H	0.290478	1.014418	-0.388037
O211	O	0.218623	1.119162	0.128683
H212	H	0.262173	1.084557	0.155889
H213	H	0.409020	0.291492	0.085666
H214	H	0.481970	0.110225	-0.031411
O215	O	0.382093	0.119085	0.128730
H216	H	0.365120	0.084537	0.155908
O217	O	-0.282801	0.700835	-0.093537
H218	H	-0.285629	0.762233	-0.124627
H219	H	0.411139	0.413031	0.229278
H220	H	0.498981	0.413059	-0.058504
H221	H	0.412211	0.212227	0.080485
H222	H	0.478777	0.189487	-0.026235
O223	O	0.165036	0.700877	-0.093519
H224	H	0.186387	0.700894	-0.133881
H225	H	-0.368365	0.700827	-0.078190
O226	O	-0.040598	0.700861	-0.151571
H227	H	-0.010235	0.639476	-0.151108
O228	O	-0.365999	0.700812	0.147777
H229	H	-0.341707	0.700798	0.188142
H230	H	0.699426	0.413014	0.229233
O231	O	0.064364	0.700810	0.205852
H232	H	0.034002	0.762203	0.205377
O233	O	0.173789	0.700864	0.147796
H234	H	0.198074	0.700862	0.188159
H235	H	0.259355	0.700881	0.132452
H236	H	0.395681	0.700856	-0.484233
H237	H	-0.086658	0.700838	-0.136223
H238	H	-0.166927	0.700828	-0.136218
O239	O	-0.068389	0.700824	0.205831
H240	H	-0.089747	0.700827	0.246183
H241	H	0.504544	0.700858	-0.260626
H242	H	0.495317	0.700835	-0.461500
O243	O	0.540374	0.700833	-0.554668
H244	H	0.565766	0.700820	-0.589230
H245	H	0.787104	0.291398	0.346087
H246	H	0.525493	0.700845	-0.685135
O247	O	0.475209	0.212878	0.496111
H248	H	0.458921	0.238609	0.532506
O249	O	0.376004	0.700840	-0.693971
H250	H	0.350621	0.700826	-0.659399
O251	O	0.693856	0.282491	0.514432
H252	H	0.713595	0.295341	0.547435
O253	O	0.350619	0.700866	-0.391052
H254	H	0.355149	0.700877	-0.443295
