data_functionalizedCrystal
_audit_creation_method	'MofGen! by Chris Wilmer'
_symmetry_space_group_name_H-M	'P1'
_symmetry_Int_Tables_number	1
_symmetry_cell_setting	triclinic
loop_
_symmetry_equiv_pos_as_xyz
  x,y,z
_cell_length_a	21.395364
_cell_length_b	19.120786
_cell_length_c	19.120904
_cell_angle_alpha	89.866497
_cell_angle_beta	92.422135
_cell_angle_gamma	92.480057
loop_
_atom_site_label
_atom_site_type_symbol
_atom_site_fract_x
_atom_site_fract_y
_atom_site_fract_z
Zn1	Zn	0.931946	-0.295776	-0.384484
Zn2	Zn	1.265280	0.037557	-0.051151
Zn3	Zn	1.598613	0.370891	0.282182
Zn4	Zn	0.932254	-0.408020	-0.262244
Zn5	Zn	1.265587	-0.074687	0.071090
Zn6	Zn	1.598920	0.258647	0.404423
Zn7	Zn	0.831825	-0.290824	-0.267262
Zn8	Zn	1.165159	0.042510	0.066072
Zn9	Zn	1.498492	0.375843	0.399405
Zn10	Zn	0.822871	-0.413014	-0.379439
Zn11	Zn	1.156204	-0.079681	-0.046105
Zn12	Zn	1.489538	0.253652	0.287228
O13	O	0.879724	-0.351908	-0.323357
O14	O	1.213057	-0.018575	0.009976
O15	O	1.546391	0.314758	0.343310
O16	O	1.019665	-0.310648	-0.368281
O17	O	1.352999	0.022686	-0.034947
O18	O	1.686332	0.356019	0.298386
O19	O	0.922807	-0.388311	-0.164805
O20	O	1.256141	-0.054978	0.168529
O21	O	1.589474	0.278356	0.501862
O22	O	0.848725	-0.193369	-0.287023
O23	O	1.182059	0.139964	0.046310
O24	O	1.515392	0.473298	0.379643
O25	O	1.019891	-0.393113	-0.278471
O26	O	1.353224	-0.059780	0.054863
O27	O	1.686558	0.273554	0.388196
O28	O	0.922284	-0.197007	-0.373146
O29	O	1.255617	0.136326	-0.039813
O30	O	1.588951	0.469659	0.293520
O31	O	0.849023	-0.302208	-0.168491
O32	O	1.182357	0.031126	0.164842
O33	O	1.515690	0.364459	0.498175
O34	O	0.742959	-0.307050	-0.282131
O35	O	1.076293	0.026283	0.051203
O36	O	1.409626	0.359616	0.384536
O37	O	0.833464	-0.401625	-0.478213
O38	O	1.166797	-0.068292	-0.144879
O39	O	1.500131	0.265042	0.188454
O40	O	0.736381	-0.396823	-0.364547
O41	O	1.069714	-0.063490	-0.031213
O42	O	1.403047	0.269844	0.302120
O43	O	0.913601	-0.315490	-0.481920
O44	O	1.246935	0.017843	-0.148586
O45	O	1.580268	0.351176	0.184747
O46	O	0.914125	-0.506794	-0.273578
O47	O	1.247458	-0.173461	0.059755
O48	O	1.580792	0.159873	0.393088
O49	O	0.833762	-0.510463	-0.359681
O50	O	1.167095	-0.177130	-0.026348
O51	O	1.500429	0.156203	0.306986
C52	C	0.716936	-0.351942	-0.323336
C53	C	1.050269	-0.018608	0.009997
C54	C	1.383603	0.314725	0.343331
C55	C	0.647293	-0.351974	-0.323343
C56	C	0.980627	-0.018640	0.009990
C57	C	1.313960	0.314693	0.343324
C58	C	0.614479	-0.309110	-0.370173
C59	C	0.947813	0.024223	-0.036840
C60	C	1.281146	0.357556	0.296494
C61	C	0.549045	-0.309092	-0.370176
C62	C	0.882378	0.024242	-0.036843
C63	C	1.215711	0.357575	0.296490
C64	C	0.516425	-0.351949	-0.323357
C65	C	0.849759	-0.018616	0.009977
C66	C	1.183092	0.314717	0.343310
C67	C	0.549247	-0.394815	-0.276518
C68	C	0.882580	-0.061482	0.056816
C69	C	1.215914	0.271851	0.390149
C70	C	0.614681	-0.394827	-0.276511
C71	C	0.948014	-0.061494	0.056823
C72	C	1.281348	0.271839	0.390156
C73	C	0.410630	-0.414850	-0.315025
C74	C	0.743964	-0.081516	0.018308
C75	C	1.077297	0.251817	0.351641
C76	C	0.345197	-0.414839	-0.315037
C77	C	0.678531	-0.081506	0.018296
C78	C	1.011864	0.251828	0.351630
C79	C	0.314605	-0.351911	-0.323374
C80	C	0.647939	-0.018578	0.009959
C81	C	0.981272	0.314755	0.343293
C82	C	0.349454	-0.288993	-0.331714
C83	C	0.682787	0.044340	0.001619
C84	C	1.016121	0.377673	0.334953
C85	C	0.414888	-0.289005	-0.331707
C86	C	0.748221	0.044328	0.001626
C87	C	1.081555	0.377661	0.334960
C88	C	0.445473	-0.351941	-0.323359
C89	C	0.778806	-0.018607	0.009975
C90	C	1.112140	0.314726	0.343308
C91	C	0.210840	-0.309024	-0.370210
C92	C	0.544173	0.024309	-0.036877
C93	C	0.877506	0.357642	0.296456
C94	C	0.145404	-0.309004	-0.370209
C95	C	0.478737	0.024329	-0.036876
C96	C	0.812071	0.357662	0.296458
C97	C	0.145607	-0.394734	-0.276554
C98	C	0.478941	-0.061401	0.056780
C99	C	0.812274	0.271932	0.390113
C100	C	0.211042	-0.394748	-0.276552
C101	C	0.544376	-0.061415	0.056782
C102	C	0.877709	0.271919	0.390115
C103	C	0.243654	-0.351894	-0.323384
C104	C	0.576988	-0.018561	0.009950
C105	C	0.910321	0.314773	0.343283
C106	C	0.873021	-0.534069	-0.315553
C107	C	1.206355	-0.200735	0.017780
C108	C	1.539688	0.132598	0.351114
C109	C	0.870210	-0.611998	-0.312238
C110	C	1.203544	-0.278665	0.021096
C111	C	1.536877	0.054668	0.354429
C112	C	0.907157	-0.650445	-0.355556
C113	C	1.240490	-0.317112	-0.022223
C114	C	1.573823	0.016221	0.311111
C115	C	0.904513	-0.723669	-0.352442
C116	C	1.237846	-0.390336	-0.019109
C117	C	1.571179	-0.057002	0.314224
C118	C	0.864926	-0.758444	-0.306006
C119	C	1.198259	-0.425110	0.027327
C120	C	1.531592	-0.091777	0.360661
C121	C	0.827975	-0.719992	-0.262686
C122	C	1.161309	-0.386658	0.070648
C123	C	1.494642	-0.053325	0.403981
C124	C	0.830616	-0.646770	-0.265803
C125	C	1.163950	-0.313436	0.067530
C126	C	1.497283	0.019897	0.400863
C127	C	0.855034	-0.979435	-0.294350
C128	C	1.188368	-0.646102	0.038983
C129	C	1.521701	-0.312768	0.372317
C130	C	0.852398	-1.052662	-0.291234
C131	C	1.185731	-0.719329	0.042099
C132	C	1.519064	-0.385995	0.375433
C133	C	0.928934	-1.056334	-0.380992
C134	C	1.262268	-0.723001	-0.047659
C135	C	1.595601	-0.389668	0.285675
C136	C	0.931575	-0.983111	-0.384103
C137	C	1.264908	-0.649777	-0.050769
C138	C	1.598241	-0.316444	0.282564
C139	C	0.894622	-0.944665	-0.340785
C140	C	1.227955	-0.611332	-0.007452
C141	C	1.561289	-0.277998	0.325882
C142	C	0.862224	-0.833290	-0.302820
C143	C	1.195557	-0.499956	0.030513
C144	C	1.528890	-0.166623	0.363846
C145	C	0.897321	-0.869821	-0.343975
C146	C	1.230654	-0.536487	-0.010641
C147	C	1.563988	-0.203154	0.322692
C148	C	1.043148	-0.351876	-0.323379
C149	C	1.376481	-0.018542	0.009955
C150	C	1.709814	0.314791	0.343288
C151	C	1.112789	-0.351862	-0.323388
C152	C	1.446122	-0.018528	0.009945
C153	C	1.779456	0.314805	0.343279
C154	C	0.872500	-0.359667	-0.506215
C155	C	1.205833	-0.026334	-0.172882
C156	C	1.539166	0.307000	0.160452
C157	C	0.869421	-0.362973	-0.584138
C158	C	1.202754	-0.029640	-0.250805
C159	C	1.536088	0.303693	0.082529
C160	C	0.886469	-0.169038	-0.331207
C161	C	1.219803	0.164296	0.002126
C162	C	1.553136	0.497629	0.335459
C163	C	0.889344	-0.091109	-0.334553
C164	C	1.222677	0.242224	-0.001219
C165	C	1.556010	0.575558	0.332114
C166	C	0.909696	-0.319683	-0.622678
C167	C	1.243029	0.013650	-0.289344
C168	C	1.576362	0.346983	0.043989
C169	C	0.906795	-0.322787	-0.695895
C170	C	1.240129	0.010546	-0.362561
C171	C	1.573462	0.343880	-0.029228
C172	C	0.863623	-0.369185	-0.730571
C173	C	1.196956	-0.035852	-0.397238
C174	C	1.530290	0.297481	-0.063904
C175	C	0.823344	-0.412477	-0.692026
C176	C	1.156677	-0.079144	-0.358693
C177	C	1.490011	0.254189	-0.025359
C178	C	0.826242	-0.409369	-0.618810
C179	C	1.159575	-0.076036	-0.285477
C180	C	1.492908	0.257297	0.047856
C181	C	0.852784	-0.380810	-0.951538
C182	C	1.186117	-0.047476	-0.618205
C183	C	1.519451	0.285857	-0.284872
C184	C	0.849891	-0.383916	-1.024759
C185	C	1.183224	-0.050582	-0.691426
C186	C	1.516557	0.282751	-0.358092
C187	C	0.933342	-0.294224	-1.028623
C188	C	1.266675	0.039109	-0.695289
C189	C	1.600008	0.372442	-0.361956
C190	C	0.936238	-0.291123	-0.955405
C191	C	1.269571	0.042210	-0.622072
C192	C	1.602905	0.375543	-0.288739
C193	C	0.895957	-0.334413	-0.916867
C194	C	1.229290	-0.001079	-0.583534
C195	C	1.562623	0.332254	-0.250201
C196	C	0.860659	-0.372361	-0.805410
C197	C	1.193992	-0.039027	-0.472077
C198	C	1.527326	0.294306	-0.138744
C199	C	0.898918	-0.331233	-0.842029
C200	C	1.232252	0.002100	-0.508696
C201	C	1.565585	0.335433	-0.175362
C202	C	0.886958	-0.344129	-0.141213
C203	C	1.220292	-0.010796	0.192120
C204	C	1.553625	0.322537	0.525454
C205	C	0.890165	-0.340626	-0.063299
C206	C	1.223499	-0.007292	0.270035
C207	C	1.556832	0.326041	0.603368
H208	H	0.237759	-0.429655	-0.238420
H209	H	0.571093	-0.096322	0.094913
H210	H	0.904426	0.237012	0.428247
Cl211	Cl	0.990514	-0.232792	-0.911818
Cl212	Cl	1.323848	0.100541	-0.578485
Cl213	Cl	1.657181	0.433875	-0.245151
Cl214	Cl	0.507784	-0.255202	-0.429052
Cl215	Cl	0.841118	0.078132	-0.095719
Cl216	Cl	1.174451	0.411465	0.237614
H217	H	0.939593	-0.287537	-0.727271
H218	H	1.272926	0.045796	-0.393937
H219	H	1.606260	0.379129	-0.060604
Cl220	Cl	0.963976	-0.261354	-0.579092
Cl221	Cl	1.297309	0.071979	-0.245759
Cl222	Cl	1.630642	0.405312	0.087575
H223	H	0.316828	-0.466071	-0.308249
H224	H	0.650162	-0.132737	0.025084
H225	H	0.983495	0.200596	0.358417
H226	H	0.819993	-0.416069	-0.920169
H227	H	1.153326	-0.082736	-0.586835
H228	H	1.486660	0.250597	-0.253502
Cl229	Cl	0.947082	-0.826103	-0.402353
Cl230	Cl	1.280416	-0.492769	-0.069020
Cl231	Cl	1.613749	-0.159436	0.264313
H232	H	0.118688	-0.274096	-0.408343
H233	H	0.452022	0.059238	-0.075009
H234	H	0.785355	0.392571	0.258324
H235	H	0.934603	-0.754969	-0.387711
H236	H	1.267937	-0.421636	-0.054378
H237	H	1.601270	-0.088303	0.278955
Cl238	Cl	0.953184	-0.272899	-0.798435
Cl239	Cl	1.286518	0.060434	-0.465102
Cl240	Cl	1.619851	0.393767	-0.131769
H241	H	0.824947	-0.948138	-0.259078
H242	H	1.158281	-0.614805	0.074256
H243	H	1.491614	-0.281471	0.407589
H244	H	0.825511	-0.410142	-0.833652
H245	H	1.158844	-0.076808	-0.500318
H246	H	1.492177	0.256525	-0.166985
H247	H	0.829994	-0.861612	-0.265010
H248	H	1.163327	-0.528278	0.068324
H249	H	1.496660	-0.194945	0.401657
H250	H	0.788190	-0.450253	-0.720265
H251	H	1.121523	-0.116920	-0.386932
H252	H	1.454857	0.216413	-0.053599
Cl253	Cl	0.975383	-1.104670	-0.435448
Cl254	Cl	1.308716	-0.771337	-0.102115
Cl255	Cl	1.642050	-0.438004	0.231219
Cl256	Cl	0.251841	-0.255147	-0.429078
Cl257	Cl	0.585175	0.078187	-0.095745
Cl258	Cl	0.918508	0.411520	0.237588
H259	H	0.939395	-0.622137	-0.393366
H260	H	1.272729	-0.288803	-0.060033
H261	H	1.606062	0.044530	0.273300
H262	H	0.119049	-0.429630	-0.238432
H263	H	0.452383	-0.096296	0.094901
H264	H	0.785716	0.237037	0.428235
H265	H	0.966136	-0.258980	-1.060008
H266	H	1.299469	0.074354	-0.726675
H267	H	1.632802	0.407687	-0.393342
Cl268	Cl	0.775606	-0.463792	-0.570361
Cl269	Cl	1.108940	-0.130458	-0.237027
Cl270	Cl	1.442273	0.202875	0.096306
H271	H	0.795740	-0.748311	-0.224879
H272	H	1.129073	-0.414978	0.108454
H273	H	1.462407	-0.081644	0.441788
H274	H	0.800530	-0.615467	-0.230530
H275	H	1.133863	-0.282133	0.102804
H276	H	1.467197	0.051200	0.436137
Cl277	Cl	0.981342	-0.939399	-0.442483
Cl278	Cl	1.314676	-0.606066	-0.109150
Cl279	Cl	1.648009	-0.272733	0.224183
Cl280	Cl	0.655474	-0.255235	-0.429046
Cl281	Cl	0.988808	0.078098	-0.095713
Cl282	Cl	1.322141	0.411431	0.237621
Cl283	Cl	0.458695	-0.209912	-0.342187
Cl284	Cl	0.792029	0.123421	-0.008854
Cl285	Cl	1.125362	0.456754	0.324480
H286	H	0.814733	-0.421701	-1.052990
H287	H	1.148066	-0.088367	-0.719657
H288	H	1.481399	0.244966	-0.386323
Cl289	Cl	0.311003	-0.209879	-0.342194
Cl290	Cl	0.644337	0.123455	-0.008861
Cl291	Cl	0.977670	0.456788	0.324472
Cl292	Cl	0.449082	-0.493965	-0.304534
Cl293	Cl	0.782415	-0.160632	0.028799
Cl294	Cl	1.115749	0.172701	0.362133
H295	H	0.522684	-0.429710	-0.238396
H296	H	0.856018	-0.096376	0.094937
H297	H	1.189351	0.236957	0.428270
H298	H	0.641398	-0.429733	-0.238375
H299	H	0.974731	-0.096400	0.094958
H300	H	1.308064	0.236934	0.428292
H301	H	0.820158	-1.080974	-0.253419
H302	H	1.153491	-0.747640	0.079914
H303	H	1.486825	-0.414307	0.413247
