data_functionalizedCrystal
_audit_creation_method	'MofGen! by Chris Wilmer'
_symmetry_space_group_name_H-M	'P1'
_symmetry_Int_Tables_number	1
_symmetry_cell_setting	triclinic
loop_
_symmetry_equiv_pos_as_xyz
  x,y,z
_cell_length_a	10.654549
_cell_length_b	10.654545
_cell_length_c	14.048226
_cell_angle_alpha	89.995935
_cell_angle_beta	89.992531
_cell_angle_gamma	84.486172
loop_
_atom_site_label
_atom_site_type_symbol
_atom_site_fract_x
_atom_site_fract_y
_atom_site_fract_z
O1	O	1.667843	0.176431	-0.079178
O2	O	1.302365	0.193231	-0.079175
O3	O	1.493506	0.002092	-0.079176
O4	O	1.476701	0.367570	-0.079177
O5	O	1.493483	0.002080	0.079145
O6	O	1.302342	0.193219	0.079147
O7	O	1.667819	0.176419	0.079143
Zn8	Zn	1.485077	0.184817	0.104282
Zn9	Zn	1.485107	0.184833	-0.104314
O10	O	1.476678	0.367558	0.079144
C11	C	1.255555	0.191990	-0.000014
C12	C	1.116112	0.188296	-0.000012
C13	C	0.826129	0.409919	-0.000040
C14	C	0.877666	0.525937	-0.000036
C15	C	1.008684	0.529413	-0.000024
C16	C	1.088169	0.416857	-0.000018
C17	C	1.036632	0.300839	-0.000021
C18	C	0.905609	0.297376	-0.000031
C19	C	1.064575	0.072277	-0.000016
C20	C	0.933557	0.068799	-0.000022
C21	C	1.144060	-0.040278	-0.000010
C22	C	1.092523	-0.156300	-0.000007
C23	C	0.961496	-0.159771	-0.000018
C24	C	0.882019	-0.047220	-0.000025
C25	C	1.492260	-0.044712	-0.000017
C26	C	1.488568	-0.184155	-0.000023
C27	C	1.488608	-0.184151	-0.172629
C28	C	1.486898	-0.249659	-0.258932
C29	C	1.483429	-0.380678	-0.258934
C30	C	1.481666	-0.446192	-0.172622
C31	C	1.483376	-0.380684	-0.086319
C32	C	1.486849	-0.249662	-0.086328
C33	C	1.483326	-0.380687	0.086285
C34	C	1.486804	-0.249669	0.086289
C35	C	1.481563	-0.446200	0.172597
C36	C	1.483282	-0.380693	0.258902
C37	C	1.486753	-0.249667	0.258899
C38	C	1.488514	-0.184161	0.172591
C39	C	1.714629	0.177660	-0.000020
C40	C	1.854072	0.181354	-0.000028
C41	C	1.477924	0.414362	-0.000017
C42	C	1.481617	0.553805	-0.000018
N43	N	1.485065	0.184806	0.246642
N44	N	1.485129	0.184834	-0.246674
C45	C	1.569729	0.100205	0.296460
C46	C	1.569738	0.100205	0.396117
C47	C	1.485087	0.184812	0.445956
C48	C	1.400414	0.269417	0.396131
C49	C	1.400400	0.269410	0.296476
C50	C	1.400450	0.269426	0.603846
C51	C	1.400465	0.269435	0.703508
C52	C	1.569788	0.100221	0.703488
C53	C	1.569774	0.100214	0.603832
C54	C	1.485102	0.184821	0.554014
H55	H	1.157248	-0.247933	-0.000008
Br56	Br	1.481093	-0.469585	-0.376059
Br57	Br	1.321872	-0.035564	-0.000003
H58	H	1.194850	0.419697	-0.000019
Br59	Br	1.285576	0.384264	0.771139
Br60	Br	0.704206	-0.051921	-0.000031
Br61	Br	1.489060	-0.160772	0.376031
H62	H	0.719445	0.407100	-0.000034
H63	H	1.638730	0.031331	0.744055
H64	H	1.478826	-0.552872	-0.172631
H65	H	1.478731	-0.552882	0.172590
Br66	Br	0.769791	0.678684	-0.000057
Br67	Br	1.285518	0.384235	0.463765
Br68	Br	1.480869	-0.469606	0.376025
Br69	Br	1.489325	-0.160749	-0.376063
Br70	Br	1.285485	0.384223	0.228866
Br71	Br	1.285529	0.384246	0.536239
Br72	Br	1.493236	-0.006350	0.172581
H73	H	1.638667	0.031314	0.255888
H74	H	1.638677	0.031316	0.436678
Br75	Br	1.078634	0.686866	-0.000029
H76	H	0.919544	-0.254247	-0.000026
H77	H	1.638709	0.031327	0.563254
Br78	Br	1.493347	-0.006343	-0.172634
