data_functionalizedCrystal
_audit_creation_method	'MofGen! by Chris Wilmer'
_symmetry_space_group_name_H-M	'P1'
_symmetry_Int_Tables_number	1
_symmetry_cell_setting	triclinic
loop_
_symmetry_equiv_pos_as_xyz
  x,y,z
_cell_length_a	11.792241
_cell_length_b	12.811457
_cell_length_c	10.268362
_cell_angle_alpha	95.427370
_cell_angle_beta	89.994572
_cell_angle_gamma	84.118185
loop_
_atom_site_label
_atom_site_type_symbol
_atom_site_fract_x
_atom_site_fract_y
_atom_site_fract_z
O1	O	0.152863	1.393528	0.056286
O2	O	0.169489	1.088042	0.020203
O3	O	-0.004009	1.248198	0.039129
O4	O	0.326361	1.233372	0.037360
O5	O	-0.004016	1.248184	0.255728
O6	O	0.169482	1.088028	0.236802
O7	O	0.152856	1.393514	0.272885
Cu8	Cu	0.161168	1.240770	0.274621
Cu9	Cu	0.161177	1.240786	0.018467
O10	O	0.326354	1.233358	0.253959
C11	C	0.168554	1.048926	0.123883
C12	C	0.165766	0.932394	0.110119
C13	C	0.160497	0.713403	0.320417
C14	C	0.157877	0.603910	0.307491
C15	C	0.157897	0.603915	0.071342
C16	C	0.160517	0.713408	0.084268
C17	C	0.161819	0.768147	0.208810
C18	C	0.164448	0.877641	0.221735
C19	C	0.164459	0.877645	-0.014414
C20	C	0.161839	0.768153	-0.027340
C21	C	-0.046302	1.247260	0.147318
C22	C	-0.172310	1.244472	0.146988
C23	C	-0.403012	1.239347	0.146360
C24	C	-0.274633	1.242195	0.146709
C25	C	0.368646	1.234296	0.145767
C26	C	0.494655	1.237084	0.146089
C27	C	0.153791	1.432630	0.169202
C28	C	0.156579	1.549162	0.182958
N29	N	0.161161	1.240766	0.454786
N30	N	0.161174	1.240799	-0.161697
C31	C	0.161174	1.240781	0.720458
C32	C	0.161171	1.240769	0.572619
H33	H	0.156818	0.559330	-0.030054
H34	H	0.160774	0.723569	-0.128738
O35	O	0.165910	0.930841	0.342678
C36	C	0.265591	0.982870	0.355884
H37	H	0.333435	0.941960	0.284056
H38	H	0.298560	0.980306	0.460014
H39	H	0.245384	1.068415	0.334263
O40	O	0.156447	0.550864	0.416006
C41	C	0.058885	0.588930	0.492313
H42	H	0.028057	0.672205	0.468567
H43	H	0.081046	0.590129	0.600470
H44	H	-0.011338	0.535237	0.469607
H45	H	0.165543	0.922229	-0.105293
O46	O	0.161619	0.766716	0.441321
C47	C	0.064939	0.841361	0.457218
H48	H	0.032599	0.861540	0.357088
H49	H	0.088863	0.915809	0.515972
H50	H	-0.004821	0.807096	0.511450
