data_functionalizedCrystal
_audit_creation_method	'MofGen! by Chris Wilmer'
_symmetry_space_group_name_H-M	'P1'
_symmetry_Int_Tables_number	1
_symmetry_cell_setting	triclinic
loop_
_symmetry_equiv_pos_as_xyz
  x,y,z
_cell_length_a	20.919309
_cell_length_b	14.809374
_cell_length_c	14.809374
_cell_angle_alpha	60.797835
_cell_angle_beta	90.489664
_cell_angle_gamma	65.055241
loop_
_atom_site_label
_atom_site_type_symbol
_atom_site_fract_x
_atom_site_fract_y
_atom_site_fract_z
Zr1	Zr	0.726531	0.884033	-0.160180
O2	O	0.645958	1.049847	-0.312163
O3	O	0.739824	0.704965	-0.101308
O4	O	0.766730	0.851477	-0.286237
O5	O	0.610804	0.933638	0.004671
O6	O	0.874973	0.840874	-0.279757
O7	O	0.619052	0.903335	-0.127234
O8	O	0.826843	0.578790	0.051048
O9	O	0.658934	1.195722	-0.326134
O10	O	0.840056	0.775615	-0.086202
O11	O	0.753120	0.806143	0.007401
O12	O	0.784798	0.978642	-0.210329
O13	O	0.697862	1.009170	-0.116727
Zr14	Zr	0.886012	0.915454	0.060526
Zr15	Zr	0.899166	0.867123	-0.149846
Zr16	Zr	0.713377	0.932364	0.050192
Zr17	Zr	0.747226	1.116687	-0.182463
Zr18	Zr	0.865317	0.682800	0.082809
O19	O	0.872719	1.094522	0.001654
O20	O	0.891422	1.025802	-0.297468
O21	O	0.627254	1.118567	-0.013041
O22	O	0.966585	0.749640	0.212509
O23	O	0.985289	0.680920	-0.086613
O24	O	0.721121	0.773685	0.197814
O25	O	1.001739	0.865849	-0.104325
O26	O	0.845813	0.948010	0.186583
O27	O	0.737570	0.958613	0.180103
O28	O	0.993491	0.896152	0.027580
O29	O	0.796155	1.182280	-0.317919
O30	O	0.816388	0.617207	0.218265
O31	O	0.953609	0.603765	0.226480
O32	O	0.964065	0.565349	0.059262
O33	O	0.648478	1.234138	-0.158916
O34	O	0.785700	1.220697	-0.150702
O35	O	0.827745	0.820845	0.110675
O36	O	0.914681	0.790317	0.017073
O37	O	0.859423	0.993344	-0.107055
O38	O	0.772487	1.023872	-0.013452
C39	C	0.780385	0.608729	-0.021955
C40	C	0.771599	0.509962	-0.012496
C41	C	0.810809	0.450784	-0.054712
C42	C	0.801729	0.348702	-0.044936
C43	C	0.590332	0.920896	-0.062754
C44	C	0.517043	0.928075	-0.067141
C45	C	0.511455	0.825472	-0.004415
C46	C	0.442591	0.832224	-0.008540
C47	C	0.379317	0.941580	-0.075398
C48	C	0.384908	1.044192	-0.138127
C49	C	0.453771	1.037439	-0.133996
C50	C	0.169953	0.967271	-0.091110
C51	C	0.101088	0.974015	-0.095239
C52	C	0.158776	0.762047	0.034350
C53	C	0.227638	0.755303	0.038471
C54	C	0.233222	0.857916	-0.024254
C55	C	0.308926	0.948484	-0.079619
C56	C	0.303612	0.851012	-0.020026
C57	C	1.022212	0.878591	-0.036900
C58	C	1.095500	0.871412	-0.032513
C59	C	0.822725	0.839289	-0.312971
C60	C	0.828310	0.818771	-0.402279
C61	C	0.832158	1.190758	-0.077699
C62	C	0.840944	1.289525	-0.087158
C63	C	0.803388	0.910339	-0.503671
C64	C	0.809159	0.889135	-0.595978
C65	C	0.789818	0.960198	0.213317
C66	C	0.784233	0.980716	0.302625
C67	C	0.996325	0.587577	-0.009028
C68	C	1.060828	0.481630	0.004818
C69	C	0.763931	0.669184	0.241188
C70	C	0.749561	0.590934	0.339956
C71	C	0.979871	0.648031	0.254115
C72	C	1.038789	0.562602	0.357270
C73	C	0.632672	1.151456	-0.353769
C74	C	0.573754	1.236885	-0.456924
C75	C	0.616218	1.211910	-0.090626
C76	C	0.551716	1.317857	-0.104472
C77	C	0.848612	1.130303	-0.340842
C78	C	0.862982	1.208553	-0.439610
C79	C	1.052165	0.424200	-0.042596
C80	C	1.112768	0.324661	-0.029607
C81	C	1.182031	0.282549	0.030803
C82	C	1.190692	0.339989	0.078219
C83	C	1.130091	0.439531	0.065223
C84	C	0.781766	0.561864	0.440256
C85	C	0.768262	0.488355	0.533065
C86	C	0.722556	0.443911	0.525574
C87	C	0.690348	0.472988	0.425263
C88	C	0.703848	0.546503	0.332455
C89	C	1.111845	0.506548	0.356854
C90	C	1.167213	0.426289	0.453770
C91	C	1.149524	0.402080	0.551103
C92	C	1.076461	0.458144	0.551516
C93	C	1.021095	0.538407	0.454600
C94	C	0.500699	1.292950	-0.456509
C95	C	0.445334	1.373238	-0.553428
C96	C	0.463023	1.397452	-0.650761
C97	C	0.536085	1.341382	-0.651174
C98	C	0.591450	1.261103	-0.554256
C99	C	0.560379	1.375294	-0.057068
C100	C	0.499780	1.474854	-0.070082
C101	C	0.430517	1.516968	-0.130496
C102	C	0.421856	1.459525	-0.177907
C103	C	0.482455	1.359973	-0.164898
C104	C	0.908691	1.252974	-0.432084
C105	C	0.922207	1.326486	-0.524877
C106	C	0.890009	1.355582	-0.625195
C107	C	0.844298	1.311153	-0.632719
C108	C	0.830787	1.237635	-0.539926
H109	H	0.731311	0.485050	0.030887
Br110	Br	0.908112	0.331012	-0.159453
H111	H	1.137154	0.486280	0.103841
H112	H	0.279155	0.666250	0.092895
H113	H	0.901017	1.415447	-0.700745
Br114	Br	0.800600	1.350663	-0.768876
Br115	Br	0.327850	1.516693	-0.259891
Br116	Br	1.264269	0.147453	0.048430
H117	H	1.194613	0.336721	0.630010
H118	H	1.247095	0.305686	0.127404
H119	H	1.062068	0.438420	0.630777
Br120	Br	0.921948	0.614468	0.455185
Br121	Br	0.843802	0.622159	0.450453
Br122	Br	0.734577	0.307190	0.027384
Br123	Br	0.704241	0.344142	0.651540
H124	H	0.438047	0.748674	0.042540
H125	H	0.934912	1.229297	-0.350408
H126	H	0.475390	1.313210	-0.203499
H127	H	0.834772	0.795036	-0.577501
H128	H	0.562971	0.736423	0.050033
H129	H	0.653134	0.436791	0.419179
H130	H	1.105702	0.277905	-0.068220
Br131	Br	0.299035	1.192608	-0.228855
H132	H	0.794495	0.464689	0.614733
H133	H	0.677624	0.570160	0.250791
Br134	Br	0.476671	1.260105	-0.324428
Br135	Br	0.690594	1.185014	-0.554839
H136	H	0.793564	1.201476	-0.546070
H137	H	0.959426	1.362655	-0.518731
H138	H	1.126262	0.526245	0.277611
H139	H	0.758624	1.074815	-0.715853
H140	H	0.458316	1.120993	-0.185062
H141	H	1.226699	0.380648	0.453415
H142	H	0.851102	0.475688	-0.098087
Br143	Br	0.346186	1.449315	-0.552842
Br144	Br	0.511552	1.552790	-0.005728
Br145	Br	0.348282	1.652079	-0.148140
Br146	Br	0.871003	0.661937	-0.371482
H147	H	0.995775	0.458482	-0.091800
H148	H	0.154220	0.678506	0.085417
Br149	Br	0.387876	1.506408	-0.782284
Br150	Br	0.015214	1.122434	-0.185997
H151	H	0.616770	1.341015	-0.007867
Br152	Br	0.389482	0.702608	0.070720
Br153	Br	0.177524	1.106532	-0.176238
Br154	Br	0.560081	1.374255	-0.783278
H155	H	0.257401	1.037522	-0.134055
Br156	Br	0.760710	1.067172	-0.534467
