data_functionalizedCrystal
_audit_creation_method	'MofGen! by Chris Wilmer'
_symmetry_space_group_name_H-M	'P1'
_symmetry_Int_Tables_number	1
_symmetry_cell_setting	triclinic
loop_
_symmetry_equiv_pos_as_xyz
  x,y,z
_cell_length_a	11.792241
_cell_length_b	11.804365
_cell_length_c	13.339070
_cell_angle_alpha	74.887832
_cell_angle_beta	80.088645
_cell_angle_gamma	78.073685
loop_
_atom_site_label
_atom_site_type_symbol
_atom_site_fract_x
_atom_site_fract_y
_atom_site_fract_z
O1	O	1.566196	-0.098903	-0.118585
O2	O	1.240268	-0.098930	-0.132895
O3	O	1.365825	-0.098916	0.021729
O4	O	1.440639	-0.098917	-0.273209
O5	O	1.332758	0.099136	-0.018936
O6	O	1.207201	0.099122	-0.173560
O7	O	1.533128	0.099149	-0.159251
Cu8	Cu	1.367145	0.117220	-0.170118
Cu9	Cu	1.406251	-0.117000	-0.122027
O10	O	1.407571	0.099136	-0.313874
C11	C	1.181167	0.000093	-0.152327
C12	C	1.054326	0.000082	-0.149634
N13	N	1.339648	0.281957	-0.203942
N14	N	1.433755	-0.281738	-0.088195
C15	C	0.822084	0.000116	-0.144692
C16	C	0.951319	0.000098	-0.147438
C17	C	1.592230	0.000124	-0.139817
C18	C	1.719072	0.000127	-0.142509
C19	C	1.336655	0.000108	0.039155
C20	C	1.298987	0.000100	0.151665
C21	C	1.499779	0.655924	-0.006951
C22	C	1.520578	0.531264	0.018641
C23	C	1.475347	0.468931	-0.037002
C24	C	1.409314	0.531270	-0.118243
C25	C	1.388521	0.655942	-0.143843
C26	C	1.364089	0.468949	-0.173894
C27	C	1.298056	0.531288	-0.255135
C28	C	1.277266	0.655948	-0.280730
C29	C	1.322497	0.718280	-0.225087
C30	C	1.384882	0.344278	-0.148294
C31	C	1.273624	0.344296	-0.285186
C32	C	1.252825	0.468955	-0.310778
C33	C	1.436742	0.000109	-0.331300
C34	C	1.474411	0.000110	-0.443808
C35	C	1.591877	0.000125	0.514847
C36	C	1.627270	0.000139	0.409137
C37	C	1.545202	0.000128	0.344764
C38	C	1.427736	0.000105	0.386111
C39	C	1.392337	0.000100	0.491829
C40	C	1.345663	0.000104	0.321746
C41	C	1.228196	0.000081	0.363093
C42	C	1.192804	0.000075	0.468801
C43	C	1.274871	0.000085	0.533174
C44	C	1.381061	0.000109	0.216028
C45	C	1.181521	0.000085	0.193010
C46	C	1.146128	0.000070	0.298720
H47	H	1.492284	0.367428	-0.016161
H48	H	1.097153	0.000065	0.502460
N49	N	1.501036	0.000138	0.173781
N50	N	1.529105	0.083628	0.100222
H51	H	1.613844	0.083648	0.070384
H52	H	1.050484	0.000052	0.332400
H53	H	1.236796	0.293545	-0.330498
H54	H	1.574027	0.000140	0.258691
H55	H	1.574342	0.480513	0.084785
N56	N	1.452279	0.280579	-0.065289
N57	N	1.407959	0.211028	0.012096
H58	H	1.455550	0.166028	0.070729
H59	H	1.536607	0.706683	0.038341
N60	N	1.301216	0.845621	-0.251211
N61	N	1.198798	0.901248	-0.245325
H62	H	1.183762	0.991184	-0.263764
H63	H	1.223510	0.706704	-0.346889
N64	N	1.097695	0.000084	0.127250
N65	N	1.129313	0.000089	0.032867
H66	H	1.070117	0.000092	-0.013584
N67	N	1.185375	0.532657	-0.393755
N68	N	1.166818	0.643964	-0.416593
H69	H	1.119180	0.688956	-0.475195
H70	H	1.658682	0.000143	0.567265
N71	N	1.747254	0.000166	0.366920
N72	N	1.820518	0.000175	0.424403
H73	H	1.905263	0.000193	0.394588
N74	N	1.238739	0.000056	0.641163
N75	N	1.312031	0.000050	0.698623
H76	H	1.286517	0.000027	0.774893
