data_functionalizedCrystal
_audit_creation_method	'MofGen! by Chris Wilmer'
_symmetry_space_group_name_H-M	'P1'
_symmetry_Int_Tables_number	1
_symmetry_cell_setting	triclinic
loop_
_symmetry_equiv_pos_as_xyz
  x,y,z
_cell_length_a	10.654550
_cell_length_b	10.654545
_cell_length_c	9.130313
_cell_angle_alpha	89.996934
_cell_angle_beta	89.996647
_cell_angle_gamma	84.483991
loop_
_atom_site_label
_atom_site_type_symbol
_atom_site_fract_x
_atom_site_fract_y
_atom_site_fract_z
O1	O	0.176372	1.667843	-0.121781
O2	O	0.193184	1.302364	-0.121786
O3	O	0.002038	1.493506	-0.121778
O4	O	0.367517	1.476700	-0.121789
O5	O	0.002033	1.493493	0.121821
O6	O	0.193178	1.302350	0.121812
O7	O	0.176366	1.667830	0.121818
Cu8	Cu	0.184772	1.485089	0.144058
Cu9	Cu	0.184778	1.485104	-0.144026
O10	O	0.367511	1.476687	0.121810
C11	C	0.191948	1.255559	0.000012
C12	C	0.188258	1.116115	0.000010
C13	C	0.186518	1.050604	0.132797
C14	C	0.183030	0.919584	0.132797
C15	C	0.183028	0.919599	-0.132788
C16	C	0.186507	1.050617	-0.132787
C17	C	-0.044762	1.492266	0.000020
C18	C	-0.184206	1.488574	0.000014
C19	C	-0.263693	1.601115	0.000021
C20	C	-0.394714	1.597639	0.000010
C21	C	-0.366747	1.369069	-0.000006
C22	C	-0.235729	1.372547	-0.000006
C23	C	-0.279841	1.733079	0.000036
C24	C	-0.410862	1.729602	0.000026
C25	C	0.414312	1.477927	0.000009
C26	C	0.553755	1.481619	0.000004
C27	C	0.177602	1.714634	0.000016
C28	C	0.181292	1.854078	0.000009
N29	N	0.184766	1.485087	0.346680
N30	N	0.184774	1.485116	-0.346649
C31	C	0.100163	1.569754	0.423336
C32	C	0.100163	1.569766	0.576673
C33	C	0.269381	1.400440	0.576685
C34	C	0.269374	1.400423	0.423351
H35	H	0.181614	0.866250	0.240925
O36	O	-0.465491	1.777309	-0.125296
C37	C	-0.552649	1.881234	-0.091152
H38	H	-0.584344	1.873878	0.027538
H39	H	-0.637933	1.881556	-0.166594
H40	H	-0.506151	1.972303	-0.106790
O41	O	0.188145	1.114044	0.261920
C42	C	0.185889	1.028116	0.379120
H43	H	0.143722	0.939580	0.340186
H44	H	0.126022	1.073412	0.471993
H45	H	0.286096	1.001873	0.419950
H46	H	0.031269	1.638690	0.360914
O47	O	0.181516	0.856084	-0.261871
C48	C	0.290963	0.874796	-0.342636
H49	H	0.329679	0.965497	-0.304881
H50	H	0.266670	0.882267	-0.464117
H51	H	0.365040	0.791758	-0.324223
H52	H	-0.244217	1.775095	0.105218
O53	O	0.188372	1.114380	-0.261691
C54	C	0.298976	1.176858	-0.269656
H55	H	0.335697	1.192045	-0.154364
H56	H	0.277001	1.271984	-0.325848
H57	H	0.373667	1.117069	-0.335195
H58	H	-0.408713	1.274604	-0.000024
H59	H	0.031270	1.638708	0.639082
H60	H	0.338268	1.331510	0.639125
H61	H	-0.250481	1.784700	-0.101901
O62	O	-0.460573	1.789070	0.121602
C63	C	-0.431844	1.915514	0.121383
H64	H	-0.345010	1.924477	0.050608
H65	H	-0.412147	1.945953	0.238183
H66	H	-0.515143	1.978358	0.075185
H67	H	0.338268	1.331471	0.360934
H68	H	-0.171013	1.280904	-0.000032
