data_functionalizedCrystal
_audit_creation_method	'MofGen! by Chris Wilmer'
_symmetry_space_group_name_H-M	'P1'
_symmetry_Int_Tables_number	1
_symmetry_cell_setting	triclinic
loop_
_symmetry_equiv_pos_as_xyz
  x,y,z
_cell_length_a	10.540539
_cell_length_b	15.944551
_cell_length_c	9.616153
_cell_angle_alpha	89.996788
_cell_angle_beta	89.995174
_cell_angle_gamma	84.012115
loop_
_atom_site_label
_atom_site_type_symbol
_atom_site_fract_x
_atom_site_fract_y
_atom_site_fract_z
O1	O	1.684280	0.118370	-0.115583
O2	O	1.314716	0.129523	-0.115601
O3	O	1.509590	0.001731	-0.115579
O4	O	1.489406	0.246161	-0.115605
O5	O	1.509563	0.001734	0.115712
O6	O	1.314689	0.129525	0.115690
O7	O	1.684254	0.118372	0.115708
Zn8	Zn	1.499467	0.123949	0.152422
Zn9	Zn	1.499502	0.123946	-0.152315
O10	O	1.489379	0.246163	0.115686
C11	C	1.267411	0.128688	0.000043
C12	C	1.126497	0.126185	0.000036
C13	C	1.508739	-0.029566	0.000067
C14	C	1.506227	-0.122827	0.000067
C15	C	0.944375	0.030298	0.000587
C16	C	1.090959	0.032835	0.000051
C17	C	1.064228	0.171108	-0.132042
C18	C	0.917727	0.167922	-0.132138
C19	C	0.917182	0.169824	0.130883
C20	C	1.064152	0.170684	0.132615
C21	C	1.379430	-0.338440	0.000042
C22	C	1.438297	-0.399105	0.114086
C23	C	1.501682	-0.293580	0.000056
C24	C	1.438352	-0.399091	-0.113950
C25	C	1.497283	-0.458519	0.000040
C26	C	1.560583	-0.353017	0.114194
C27	C	1.560621	-0.352996	-0.113944
C28	C	1.619577	-0.413643	0.000128
C29	C	1.504213	-0.198563	0.000067
C30	C	1.494762	-0.553535	0.000039
C31	C	1.731559	0.119207	0.000061
C32	C	1.872473	0.121710	0.000058
C33	C	1.490231	0.277461	0.000037
C34	C	1.492743	0.370722	0.000027
N35	N	1.499452	0.123951	0.360396
N36	N	1.499527	0.123937	-0.360289
C37	C	1.394895	0.192081	0.580755
C38	C	1.395120	0.192337	0.419587
C39	C	1.631904	0.143890	0.418850
C40	C	1.631333	0.144372	0.580067
C41	C	1.472882	0.035659	0.580316
C42	C	1.469828	0.036231	0.419089
H43	H	1.134043	-0.002512	0.094731
H44	H	1.133200	-0.002764	-0.094786
C45	C	1.093049	0.262462	-0.138700
C46	C	1.225242	0.265374	-0.144571
C47	C	1.251842	0.349514	-0.150721
H48	H	1.059892	0.291577	-0.058249
H49	H	1.054592	0.288446	-0.219364
H50	H	1.263684	0.239402	-0.063915
H51	H	1.258430	0.236277	-0.225018
H52	H	1.213385	0.375497	-0.231386
H53	H	1.218677	0.378621	-0.070269
H54	H	1.341535	0.351500	-0.154719
H55	H	0.916281	-0.006580	0.095308
C56	C	1.119103	0.126846	0.262947
C57	C	1.020771	0.095917	0.339110
C58	C	1.071357	0.055517	0.459165
H59	H	1.159068	0.165885	0.318229
H60	H	1.180143	0.081369	0.237432
H61	H	0.959753	0.141388	0.364627
H62	H	0.980796	0.056867	0.283869
H63	H	1.132398	0.010040	0.433650
H64	H	1.111322	0.094561	0.514435
H65	H	1.004649	0.034520	0.510849
H66	H	0.914679	-0.006426	-0.093599
H67	H	1.711616	0.095612	0.380505
H68	H	1.277955	-0.305737	0.000151
C69	C	1.095468	0.261383	0.143176
C70	C	1.227891	0.262593	0.151270
C71	C	1.256785	0.346134	0.160966
H72	H	1.056734	0.286777	0.224141
H73	H	1.063989	0.291837	0.063274
H74	H	1.259355	0.232151	0.231163
H75	H	1.266654	0.237216	0.070314
H76	H	1.225306	0.376587	0.081065
H77	H	1.218044	0.371520	0.241931
H78	H	1.346636	0.346966	0.166446
C79	C	1.263082	0.176453	0.632290
C80	C	1.172289	0.238140	0.577913
C81	C	1.050844	0.223760	0.625347
H82	H	1.261200	0.179009	0.730967
H83	H	1.244162	0.122297	0.602649
H84	H	1.191203	0.292282	0.607562
H85	H	1.174130	0.235594	0.479240
H86	H	1.031924	0.169604	0.595705
H87	H	1.048975	0.226316	0.724023
H88	H	0.989224	0.265607	0.588449
C89	C	1.369200	-0.426155	-0.242461
C90	C	1.243555	-0.387711	-0.241929
C91	C	1.179811	-0.412610	-0.360293
H92	H	1.368639	-0.485689	-0.242106
H93	H	1.411746	-0.409572	-0.323476
H94	H	1.201020	-0.404300	-0.160935
H95	H	1.244079	-0.328178	-0.242304
H96	H	1.222357	-0.396026	-0.441308
H97	H	1.179259	-0.472144	-0.359928
H98	H	1.094558	-0.386524	-0.359954
H99	H	1.721141	-0.446196	0.000197
C100	C	1.369103	-0.426268	0.242518
C101	C	1.243434	-0.387866	0.241974
C102	C	1.179643	-0.412873	0.360248
H103	H	1.411549	-0.409737	0.323602
H104	H	1.368613	-0.485817	0.242017
H105	H	1.243931	-0.328330	0.242487
H106	H	1.200953	-0.404392	0.160916
H107	H	1.179153	-0.472423	0.359747
H108	H	1.222099	-0.396341	0.441323
H109	H	1.094367	-0.386828	0.359888
H110	H	0.889980	0.134718	-0.230861
C111	C	1.662688	0.230178	0.630467
C112	C	1.662541	0.231518	0.776052
C113	C	1.691443	0.310545	0.822521
H114	H	1.600543	0.272678	0.596511
H115	H	1.744558	0.240371	0.597206
H116	H	1.580683	0.221335	0.809299
H117	H	1.724687	0.189036	0.810045
H118	H	1.773312	0.320738	0.789260
H119	H	1.629294	0.353038	0.788556
H120	H	1.691358	0.311462	0.921304
C121	C	1.629739	-0.325706	-0.242329
C122	C	1.736155	-0.286012	-0.201598
C123	C	1.799855	-0.260867	-0.319840
H124	H	1.573762	-0.287513	-0.295178
H125	H	1.656763	-0.373776	-0.297311
H126	H	1.709129	-0.237948	-0.146639
H127	H	1.792161	-0.324189	-0.148766
H128	H	1.826879	-0.308938	-0.374822
H129	H	1.743868	-0.222677	-0.372680
H130	H	1.872071	-0.233939	-0.292221
H131	H	1.655935	0.207567	0.378454
H132	H	0.868844	0.235058	-0.138140
H133	H	1.107252	0.139900	-0.230331
C134	C	1.564999	-0.034516	0.365294
C135	C	1.652960	-0.000873	0.277707
C136	C	1.740674	-0.066016	0.228147
H137	H	1.521101	-0.073812	0.314875
H138	H	1.608750	-0.062224	0.441518
H139	H	1.609214	0.026821	0.201495
H140	H	1.696889	0.038416	0.328095
H141	H	1.784425	-0.093723	0.304371
H142	H	1.696765	-0.105307	0.177735
H143	H	1.800373	-0.043197	0.168725
C144	C	1.629357	-0.325785	0.242849
C145	C	1.630827	-0.238084	0.241403
C146	C	1.694149	-0.212966	0.359905
H147	H	1.714451	-0.352123	0.243306
H148	H	1.586200	-0.341889	0.323766
H149	H	1.673986	-0.221989	0.160507
H150	H	1.545750	-0.211726	0.240967
H151	H	1.650992	-0.229069	0.440822
H152	H	1.779240	-0.239309	0.360351
H153	H	1.695145	-0.153458	0.358946
H154	H	0.886035	0.139615	0.230998
H155	H	1.296666	0.180340	0.380069
C156	C	1.346812	0.010320	0.634298
C157	C	1.265487	-0.000410	0.522031
C158	C	1.149342	-0.023753	0.571706
H159	H	1.308404	0.053174	0.693966
H160	H	1.361601	-0.041103	0.684466
H161	H	1.250695	0.051006	0.471886
H162	H	1.303855	-0.043268	0.462353
H163	H	1.164131	-0.075176	0.621874
H164	H	1.110945	0.019104	0.631374
H165	H	1.094153	-0.031044	0.495541
C166	C	0.852923	0.259711	0.132341
C167	C	0.780574	0.273017	0.253956
C168	C	0.721369	0.355810	0.255332
H169	H	0.798702	0.268500	0.053645
H170	H	0.916070	0.298063	0.129499
H171	H	0.717435	0.234678	0.256785
H172	H	0.834765	0.264247	0.332671
H173	H	0.784516	0.394161	0.252490
H174	H	0.667155	0.364591	0.176631
H175	H	0.672283	0.364852	0.337851
C176	C	1.417224	0.278990	0.634456
C177	C	1.437050	0.331792	0.521910
C178	C	1.457609	0.411860	0.571325
H179	H	1.490177	0.274500	0.693032
H180	H	1.344749	0.301982	0.685729
H181	H	1.509518	0.308805	0.470660
H182	H	1.364110	0.336307	0.463323
H183	H	1.385133	0.434853	0.622598
H184	H	1.530560	0.407362	0.629901
H185	H	1.471051	0.447699	0.494970
H186	H	1.412127	0.257832	0.381001
C187	C	1.738355	0.080744	0.631804
C188	C	1.803245	0.042037	0.517899
C189	C	1.901845	-0.016575	0.565497
H190	H	1.703592	0.039187	0.686674
H191	H	1.796004	0.108805	0.686475
H192	H	1.745606	0.013976	0.463251
H193	H	1.838038	0.083572	0.463017
H194	H	1.959493	0.011486	0.620168
H195	H	1.867070	-0.058126	0.620367
H196	H	1.945892	-0.042839	0.488221
C197	C	1.574528	-0.032092	0.630956
C198	C	1.549784	-0.110391	0.577354
C199	C	1.643403	-0.172812	0.623968
H200	H	1.573379	-0.034127	0.729667
H201	H	1.655973	-0.019291	0.600200
H202	H	1.468360	-0.123188	0.608118
H203	H	1.550944	-0.108383	0.478647
H204	H	1.724848	-0.160012	0.593212
H205	H	1.642247	-0.174839	0.722678
H206	H	1.626634	-0.225943	0.587596
H207	H	1.372395	0.021118	0.380886
