data_functionalizedCrystal
_audit_creation_method	'MofGen! by Chris Wilmer'
_symmetry_space_group_name_H-M	'P1'
_symmetry_Int_Tables_number	1
_symmetry_cell_setting	triclinic
loop_
_symmetry_equiv_pos_as_xyz
  x,y,z
_cell_length_a	16.109318
_cell_length_b	15.944493
_cell_length_c	15.186229
_cell_angle_alpha	90.002130
_cell_angle_beta	90.000224
_cell_angle_gamma	83.471803
loop_
_atom_site_label
_atom_site_type_symbol
_atom_site_fract_x
_atom_site_fract_y
_atom_site_fract_z
O1	O	1.103134	0.108039	-0.073144
O2	O	1.436468	0.441372	0.260190
O3	O	1.769801	0.774705	0.593523
O4	O	0.861076	0.121460	-0.073160
O5	O	1.194409	0.454793	0.260173
O6	O	1.527743	0.788127	0.593507
O7	O	0.988740	-0.007531	-0.073159
O8	O	1.322074	0.325803	0.260175
O9	O	1.655407	0.659136	0.593508
O10	O	0.975470	0.237029	-0.073145
O11	O	1.308803	0.570362	0.260188
O12	O	1.642137	0.903696	0.593522
O13	O	0.988732	-0.007533	0.073299
O14	O	1.322065	0.325801	0.406632
O15	O	1.655398	0.659134	0.739965
O16	O	0.861067	0.121458	0.073297
O17	O	1.194401	0.454791	0.406631
O18	O	1.527734	0.788125	0.739964
O19	O	1.103126	0.108037	0.073314
O20	O	1.436459	0.441370	0.406647
O21	O	1.769793	0.774703	0.739980
Zn22	Zn	0.982095	0.114747	0.096559
Zn23	Zn	1.315429	0.448080	0.429892
Zn24	Zn	1.648762	0.781414	0.763225
Zn25	Zn	0.982106	0.114750	-0.096405
Zn26	Zn	1.315440	0.448083	0.236928
Zn27	Zn	1.648773	0.781416	0.570262
O28	O	0.975461	0.237027	0.073312
O29	O	1.308795	0.570361	0.406646
O30	O	1.642128	0.903694	0.739979
C31	C	0.830097	0.120913	0.000066
C32	C	1.163430	0.454246	0.333400
C33	C	1.496764	0.787579	0.666733
C34	C	0.737802	0.119275	0.000059
C35	C	1.071136	0.452609	0.333393
C36	C	1.404469	0.785942	0.666726
C37	C	0.438733	0.113987	-0.079759
C38	C	0.772066	0.447321	0.253574
C39	C	1.105399	0.780654	0.586907
C40	C	0.525454	0.115520	-0.079765
C41	C	0.858787	0.448854	0.253569
C42	C	1.192121	0.782187	0.586902
C43	C	0.525464	0.115507	0.079911
C44	C	0.858797	0.448840	0.413245
C45	C	1.192130	0.782173	0.746578
C46	C	0.438744	0.113968	0.079916
C47	C	0.772078	0.447301	0.413249
C48	C	1.105411	0.780634	0.746582
C49	C	0.395381	0.113212	0.000078
C50	C	0.728714	0.446546	0.333411
C51	C	1.062047	0.779879	0.666744
C52	C	0.568821	0.116284	0.000068
C53	C	0.902154	0.449618	0.333401
C54	C	1.235488	0.782951	0.666735
C55	C	0.662848	0.117947	0.000063
C56	C	0.996182	0.451280	0.333396
C57	C	1.329515	0.784613	0.666730
C58	C	0.301348	0.111548	0.000083
C59	C	0.634681	0.444882	0.333416
C60	C	0.968014	0.778215	0.666749
C61	C	0.988194	-0.038826	0.000066
C62	C	1.321527	0.294507	0.333399
C63	C	1.654860	0.627840	0.666733
C64	C	0.986568	-0.132074	0.000055
C65	C	1.319901	0.201259	0.333388
C66	C	1.653234	0.534592	0.666721
C67	C	1.061714	-0.367854	0.000077
C68	C	1.395047	-0.034521	0.333410
C69	C	1.728380	0.298812	0.666743
C70	C	1.021194	-0.418411	-0.072137
C71	C	1.354528	-0.085077	0.261197
C72	C	1.687861	0.248256	0.594530
C73	C	0.983555	-0.302795	0.000065
C74	C	1.316888	0.030539	0.333399
C75	C	1.650221	0.363872	0.666732
C76	C	1.021168	-0.418389	0.072259
C77	C	1.354501	-0.085055	0.405592
C78	C	1.687835	0.248278	0.738925
C79	C	0.980650	-0.467703	0.000079
C80	C	1.313983	-0.134370	0.333413
C81	C	1.647317	0.198963	0.666746
C82	C	0.943056	-0.352123	-0.072208
C83	C	1.276390	-0.018789	0.261126
C84	C	1.609723	0.314544	0.594459
C85	C	0.943041	-0.352097	0.072253
C86	C	1.276375	-0.018764	0.405586
C87	C	1.609708	0.314569	0.738919
C88	C	0.902464	-0.402621	0.000022
C89	C	1.235798	-0.069287	0.333355
C90	C	1.569131	0.264046	0.666688
C91	C	0.985230	-0.207795	0.000056
C92	C	1.318563	0.125538	0.333390
C93	C	1.651897	0.458871	0.666723
C94	C	0.978968	-0.562700	0.000082
C95	C	1.312302	-0.229367	0.333415
C96	C	1.645635	0.103967	0.666749
C97	C	1.134105	0.108584	0.000085
C98	C	1.467438	0.441917	0.333419
C99	C	1.800771	0.775250	0.666752
C100	C	1.226400	0.110221	0.000086
C101	C	1.559733	0.443555	0.333420
C102	C	1.893066	0.776888	0.666753
C103	C	0.976008	0.268323	0.000085
C104	C	1.309341	0.601656	0.333419
C105	C	1.642675	0.934990	0.666752
C106	C	0.977634	0.361571	0.000091
C107	C	1.310968	0.694904	0.333424
C108	C	1.644301	1.028238	0.666758
N109	N	0.982094	0.114745	0.228251
N110	N	1.315427	0.448078	0.561585
N111	N	1.648760	0.781412	0.894918
N112	N	0.982115	0.114745	-0.228098
N113	N	1.315448	0.448078	0.105236
N114	N	1.648781	0.781412	0.438569
C115	C	1.038643	0.057647	0.453975
C116	C	1.371976	0.390980	0.787308
C117	C	1.705309	0.724314	1.120641
C118	C	1.038645	0.057645	0.546164
C119	C	1.371979	0.390978	0.879498
C120	C	1.705312	0.724312	1.212831
C121	C	0.925560	0.171846	0.546172
C122	C	1.258893	0.505179	0.879506
C123	C	1.592226	0.838512	1.212839
C124	C	0.925554	0.171843	0.453984
C125	C	1.258887	0.505176	0.787318
C126	C	1.592220	0.838510	1.120651
C127	C	0.982100	0.114745	0.407888
C128	C	1.315433	0.448078	0.741221
C129	C	1.648767	0.781411	1.074555
C130	C	0.982108	0.114745	0.592266
C131	C	1.315442	0.448079	0.925599
C132	C	1.648775	0.781412	1.258932
C133	C	0.982111	0.114744	0.692222
C134	C	1.315444	0.448077	1.025555
C135	C	1.648778	0.781410	1.358888
C136	C	0.982097	0.114745	0.307925
C137	C	1.315430	0.448078	0.641259
C138	C	1.648763	0.781412	0.974592
H139	H	0.403446	0.113336	0.144932
H140	H	0.736780	0.446669	0.478266
H141	H	1.070113	0.780003	0.811599
N142	N	1.099638	-0.003931	0.595873
N143	N	1.432971	0.329403	0.929207
N144	N	1.766305	0.662736	1.262540
H145	H	1.136437	0.028191	0.634120
H146	H	1.469770	0.361524	0.967453
H147	H	1.803104	0.694857	1.300787
H148	H	1.067822	-0.041122	0.634074
H149	H	1.401155	0.292211	0.967407
H150	H	1.734488	0.625545	1.300740
H151	H	0.879506	0.218339	0.416458
H152	H	1.212839	0.551672	0.749791
H153	H	1.546172	0.885006	1.083125
H154	H	1.129038	-0.352244	0.000008
H155	H	1.462371	-0.018911	0.333342
H156	H	1.795705	0.314423	0.666675
N157	N	1.064891	-0.456721	0.153130
N158	N	1.398224	-0.123387	0.486464
N159	N	1.731558	0.209946	0.819797
H160	H	1.113331	-0.498901	0.134713
H161	H	1.446664	-0.165567	0.468047
H162	H	1.779997	0.167766	0.801380
H163	H	1.086282	-0.410695	0.189512
H164	H	1.419615	-0.077361	0.522845
H165	H	1.752948	0.255972	0.856178
H166	H	0.560781	0.116124	0.144912
H167	H	0.894114	0.449457	0.478246
H168	H	1.227447	0.782790	0.811579
H169	H	1.054206	-0.447365	-0.133184
H170	H	1.387539	-0.114031	0.200149
H171	H	1.720872	0.219302	0.533483
N172	N	1.099627	-0.003935	0.404254
N173	N	1.432961	0.329398	0.737588
N174	N	1.766294	0.662731	1.070921
H175	H	1.135446	-0.040107	0.447443
H176	H	1.468779	0.293226	0.780776
H177	H	1.802112	0.626560	1.114109
H178	H	1.067804	-0.041082	0.366006
H179	H	1.401137	0.292251	0.699340
H180	H	1.734470	0.625585	1.032673
H181	H	0.403428	0.113371	-0.144768
H182	H	0.736762	0.446704	0.188565
H183	H	1.070095	0.780038	0.521898
N184	N	0.864578	0.233427	0.595898
N185	N	1.197911	0.566760	0.929231
N186	N	1.531245	0.900093	1.262565
H187	H	0.896344	0.270631	0.634143
H188	H	1.229678	0.603965	0.967476
H189	H	1.563011	0.937298	1.300809
H190	H	0.828768	0.269540	0.552658
H191	H	1.162102	0.602873	0.885992
H192	H	1.495435	0.936207	1.219325
N193	N	0.572214	0.116348	-0.165874
N194	N	0.905548	0.449682	0.167459
N195	N	1.238881	0.783015	0.500793
H196	H	0.531582	0.115634	-0.216446
H197	H	0.864915	0.448967	0.116887
H198	H	1.198249	0.782301	0.450220
H199	H	0.601452	0.169025	-0.169350
H200	H	0.934785	0.502358	0.163983
H201	H	1.268119	0.835692	0.497316
H202	H	0.835088	-0.418069	-0.000022
H203	H	1.168421	-0.084735	0.333311
H204	H	1.501755	0.248598	0.666644
H205	H	0.910071	-0.323293	-0.133324
H206	H	1.243404	0.010040	0.200010
H207	H	1.576738	0.343373	0.533343
H208	H	0.910058	-0.323128	0.133302
H209	H	1.243392	0.010205	0.466635
H210	H	1.576725	0.343538	0.799969
