data_functionalizedCrystal
_audit_creation_method	'MofGen! by Chris Wilmer'
_symmetry_space_group_name_H-M	'P1'
_symmetry_Int_Tables_number	1
_symmetry_cell_setting	triclinic
loop_
_symmetry_equiv_pos_as_xyz
  x,y,z
_cell_length_a	27.435584
_cell_length_b	27.434948
_cell_length_c	27.431174
_cell_angle_alpha	60.005483
_cell_angle_beta	60.011353
_cell_angle_gamma	59.993028
loop_
_atom_site_label
_atom_site_type_symbol
_atom_site_fract_x
_atom_site_fract_y
_atom_site_fract_z
O1	O	0.067437	-0.712144	0.595551
O2	O	0.567437	-0.212144	1.095551
O3	O	0.025356	-0.554453	0.479848
O4	O	0.525356	-0.054453	0.979848
O5	O	0.125206	-0.654236	0.479781
O6	O	0.625206	-0.154236	0.979781
O7	O	-0.032412	-0.612361	0.595618
O8	O	0.467588	-0.112361	1.095618
O9	O	0.158328	-0.621117	0.512835
O10	O	0.658328	-0.121117	1.012835
O11	O	0.058479	-0.521333	0.512902
O12	O	0.558479	-0.021333	1.012902
O13	O	0.100560	-0.679025	0.628605
O14	O	0.600560	-0.179025	1.128605
Zn15	Zn	0.084778	-0.594921	0.576001
Zn16	Zn	0.584778	-0.094921	1.076001
Zn17	Zn	0.041138	-0.638557	0.532452
Zn18	Zn	0.541138	-0.138557	1.032452
O19	O	0.000710	-0.579241	0.628672
O20	O	0.500710	-0.079241	1.128672
N21	N	0.114563	-0.565144	0.605726
N22	N	0.614563	-0.065144	1.105726
N23	N	0.011358	-0.668338	0.502727
N24	N	0.511358	-0.168338	1.002727
C25	C	0.156385	-0.523520	0.904506
C26	C	0.656385	-0.023520	1.404506
C27	C	0.413419	-0.523497	0.647322
C28	C	0.913419	-0.023497	1.147322
C29	C	0.156253	-0.523488	0.647384
C30	C	0.656253	-0.023488	1.147384
C31	C	0.156238	-0.266354	0.647407
C32	C	0.656238	0.233646	1.147407
C33	C	0.197637	-0.390463	0.688753
C34	C	0.697637	0.109537	1.188753
C35	C	0.197646	-0.482126	0.688741
C36	C	0.697646	0.017874	1.188741
C37	C	0.220575	-0.459215	0.711654
C38	C	0.720575	0.040785	1.211654
C39	C	0.320555	-0.441991	0.659023
C40	C	0.820555	0.058009	1.159023
C41	C	0.383051	-0.462825	0.638179
C42	C	0.883051	0.037175	1.138179
C43	C	0.383069	-0.563942	0.676737
C44	C	0.883069	-0.063942	1.176737
C45	C	0.320575	-0.543107	0.697583
C46	C	0.820575	-0.043107	1.197583
C47	C	0.212704	-0.359206	0.627313
C48	C	0.712704	0.140794	1.127313
C49	C	0.191849	-0.296705	0.606496
C50	C	0.691849	0.203295	1.106496
C51	C	0.140866	-0.296722	0.708562
C52	C	0.640866	0.203278	1.208562
C53	C	0.161721	-0.359223	0.729379
C54	C	0.661721	0.140777	1.229379
C55	C	0.136200	-0.467030	0.703858
C56	C	0.636200	0.032970	1.203858
C57	C	0.115361	-0.487857	0.683021
C58	C	0.615361	0.012143	1.183021
C59	C	0.217408	-0.538877	0.631968
C60	C	0.717408	-0.038877	1.131968
C61	C	0.238249	-0.518050	0.652796
C62	C	0.738249	-0.018050	1.152796
C63	C	0.136259	-0.467047	0.811668
C64	C	0.636259	0.032953	1.311668
C65	C	0.115461	-0.487892	0.874167
C66	C	0.615461	0.012108	1.374167
C67	C	0.217537	-0.538923	0.874131
C68	C	0.717537	-0.038923	1.374131
C69	C	0.238333	-0.518080	0.811631
C70	C	0.738333	-0.018080	1.311631
C71	C	0.197693	-0.482140	0.780401
C72	C	0.697693	0.017860	1.280401
C73	C	0.289320	-0.482131	0.688723
C74	C	0.789320	0.017869	1.188723
C75	C	0.132699	-0.546027	0.973247
C76	C	0.632699	-0.046027	1.473247
C77	C	0.482158	-0.545613	0.624075
C78	C	0.982158	-0.045613	1.124075
C79	C	0.132521	-0.546006	0.624886
C80	C	0.632521	-0.046006	1.124886
C81	C	0.132917	-0.197607	0.625310
C82	C	0.632917	0.302393	1.125310
C83	C	-0.098217	-0.686189	0.484419
C84	C	0.401783	-0.186189	0.984419
C85	C	-0.006438	-0.686322	0.392891
C86	C	0.493562	-0.186322	0.892891
C87	C	-0.006621	-0.777944	0.484592
C88	C	0.493379	-0.277944	0.984592
C89	C	-0.006606	-0.686315	0.484649
C90	C	0.493394	-0.186315	0.984649
C91	C	-0.029470	-0.709193	0.461638
C92	C	0.470530	-0.209193	0.961638
N93	N	0.538410	-0.565162	0.605628
N94	N	1.038410	-0.065162	1.105628
O95	O	0.742647	-0.575135	0.458625
O96	O	1.242647	-0.075135	0.958625
O97	O	0.742821	-0.691181	0.616169
O98	O	1.242821	-0.191181	1.116169
O99	O	0.742757	-0.690917	0.516248
O100	O	1.242757	-0.190917	1.016248
O101	O	0.742711	-0.575399	0.558546
O102	O	1.242711	-0.075399	1.058546
O103	O	0.643472	-0.657878	0.549405
O104	O	1.143472	-0.157878	1.049405
O105	O	0.643536	-0.658142	0.649326
O106	O	1.143536	-0.158142	1.149326
O107	O	0.643362	-0.542096	0.491782
O108	O	1.143362	-0.042096	0.991782
Zn109	Zn	0.627685	-0.594873	0.575818
Zn110	Zn	1.127685	-0.094873	1.075818
Zn111	Zn	0.758498	-0.638404	0.532133
Zn112	Zn	1.258498	-0.138404	1.032133
O113	O	0.643426	-0.542360	0.591702
O114	O	1.143426	-0.042360	1.091702
N115	N	0.847774	-0.668115	0.502317
N116	N	1.347774	-0.168115	1.002317
N117	N	0.114542	-0.141354	0.605766
N118	N	0.614542	0.358646	1.105766
O119	O	-0.032397	0.062987	0.595660
O120	O	0.467603	0.562987	1.095660
O121	O	0.125155	0.062987	0.479633
O122	O	0.625155	0.562987	0.979633
O123	O	0.025219	0.062974	0.479910
O124	O	0.525219	0.562974	0.979910
O125	O	0.067539	0.063001	0.595383
O126	O	0.567539	0.563001	1.095383
O127	O	0.058343	-0.036320	0.513009
O128	O	0.558343	0.463680	1.013009
O129	O	0.158279	-0.036306	0.512732
O130	O	0.658279	0.463694	1.012732
O131	O	0.000728	-0.036306	0.628759
O132	O	0.500728	0.463694	1.128759
Zn133	Zn	0.084763	-0.052071	0.576000
Zn134	Zn	0.584763	0.447929	1.076000
Zn135	Zn	0.041120	0.078752	0.532392
Zn136	Zn	0.541120	0.578752	1.032392
O137	O	0.100664	-0.036292	0.628482
O138	O	0.600664	0.463708	1.128482
N139	N	0.011333	0.168036	0.502628
N140	N	0.511333	0.668036	1.002628
N141	N	0.114782	-0.565197	1.029501
N142	N	0.614782	-0.065197	1.529501
O143	O	0.104681	-0.712124	1.233827
O144	O	0.604681	-0.212124	1.733827
O145	O	-0.011334	-0.554523	1.233839
O146	O	0.488666	-0.054523	1.733839
O147	O	-0.011066	-0.654443	1.233797
O148	O	0.488934	-0.154443	1.733797
O149	O	0.104414	-0.612204	1.233869
O150	O	0.604414	-0.112204	1.733869
O151	O	0.022028	-0.621336	1.134509
O152	O	0.522028	-0.121336	1.634509
O153	O	0.021760	-0.521417	1.134551
O154	O	0.521760	-0.021417	1.634551
O155	O	0.137775	-0.679018	1.134539
O156	O	0.637775	-0.179018	1.634539
Zn157	Zn	0.085022	-0.594961	1.118780
Zn158	Zn	0.585022	-0.094961	1.618780
Zn159	Zn	0.041420	-0.638580	1.249597
Zn160	Zn	0.541420	-0.138580	1.749597
O161	O	0.137508	-0.579098	1.134580
O162	O	0.637508	-0.079098	1.634580
N163	N	0.011658	-0.668350	1.338876
N164	N	0.511658	-0.168350	1.838876
C165	C	0.037974	-0.518023	0.480435
C166	C	0.537974	-0.018023	0.980435
C167	C	0.161625	-0.641592	0.480351
C168	C	0.661625	-0.141592	0.980351
C169	C	0.087941	-0.715455	0.628017
C170	C	0.587941	-0.215455	1.128017
C171	C	-0.035710	-0.591885	0.628101
C172	C	0.464290	-0.091885	1.128101
C173	C	0.693199	-0.690642	0.652596
C174	C	1.193199	-0.190642	1.152596
C175	C	0.693122	-0.690315	0.528855
C176	C	1.193122	-0.190315	1.028855
C177	C	0.692981	-0.542634	0.455356
C178	C	1.192981	-0.042634	0.955356
C179	C	0.693062	-0.542961	0.579095
C180	C	1.193062	-0.042961	1.079095
C181	C	0.161524	0.013463	0.480164
C182	C	0.661524	0.513463	0.980164
C183	C	0.037807	0.013324	0.480547
C184	C	0.537807	0.513324	0.980547
C185	C	-0.035683	0.013341	0.628188
C186	C	0.464317	0.513341	1.128188
C187	C	0.088076	0.013357	0.627845
C188	C	0.588076	0.513357	1.127845
C189	C	-0.010764	-0.518114	1.184196
C190	C	0.489236	-0.018114	1.684196
C191	C	-0.010426	-0.641846	1.184125
C192	C	0.489574	-0.141846	1.684125
C193	C	0.137205	-0.715426	1.184182
C194	C	0.637205	-0.215426	1.684182
C195	C	0.136875	-0.591687	1.184231
C196	C	0.636875	-0.091687	1.684231
H197	H	0.103160	-0.437777	0.786243
H198	H	0.603160	0.062223	1.286243
O199	O	-0.089663	0.013425	0.671668
O200	O	0.410337	0.513425	1.171668
C201	C	-0.177273	0.064899	0.736916
C202	C	0.322727	0.564899	1.236916
C203	C	-0.116146	0.064869	0.687685
C204	C	0.383854	0.564869	1.187685
H205	H	-0.198708	0.106493	0.749871
H206	H	0.301292	0.606493	1.249871
H207	H	-0.171013	0.023379	0.777666
H208	H	0.328987	0.523379	1.277666
H209	H	-0.207371	0.064863	0.719625
H210	H	0.292629	0.564863	1.219625
H211	H	-0.086017	0.064926	0.704920
H212	H	0.413983	0.564926	1.204920
H213	H	-0.122451	0.106385	0.646945
H214	H	0.377549	0.606385	1.146945
O215	O	0.693034	-0.733557	0.518068
O216	O	1.193034	-0.233557	1.018068
C217	C	0.641614	-0.762059	0.491773
C218	C	1.141614	-0.262059	0.991773
C219	C	0.641632	-0.713043	0.503988
C220	C	1.141632	-0.213043	1.003988
H221	H	0.600066	-0.745488	0.480374
H222	H	1.100066	-0.245488	0.980374
H223	H	0.641627	-0.803770	0.533167
H224	H	1.141627	-0.303770	1.033167
H225	H	0.683166	-0.773194	0.452690
H226	H	1.183166	-0.273194	0.952690
H227	H	0.600088	-0.701857	0.543050
H228	H	1.100088	-0.201857	1.043050
H229	H	0.641650	-0.671363	0.462563
H230	H	1.141650	-0.171363	0.962563
O231	O	0.098650	-0.769539	0.671317
O232	O	0.598650	-0.269539	1.171317
C233	C	0.124857	-0.875758	0.699936
C234	C	0.624857	-0.375758	1.199936
C235	C	0.112731	-0.814545	0.650854
C236	C	0.612731	-0.314545	1.150854
H237	H	0.136256	-0.912163	0.683405
H238	H	0.636256	-0.412163	1.183405
H239	H	0.083425	-0.875998	0.741602
H240	H	0.583425	-0.375998	1.241602
H241	H	0.163912	-0.884431	0.711125
H242	H	0.663912	-0.384431	1.211125
H243	H	0.073696	-0.805833	0.639613
H244	H	0.573696	-0.305833	1.139613
H245	H	0.154193	-0.814335	0.609219
H246	H	0.654193	-0.314335	1.109219
H247	H	-0.080982	-0.582959	0.664476
H248	H	0.419018	-0.082959	1.164476
H249	H	-0.046689	-0.650868	1.184063
H250	H	0.453311	-0.150868	1.684063
H251	H	0.693242	-0.727072	0.697844
H252	H	1.193242	-0.227072	1.197844
O253	O	0.180144	-0.580975	1.184353
O254	O	0.680144	-0.080975	1.684353
C255	C	0.245297	-0.609730	1.235791
C256	C	0.745297	-0.109730	1.735791
C257	C	0.196287	-0.621917	1.235736
C258	C	0.696287	-0.121917	1.735736
H259	H	0.258373	-0.642832	1.277324
H260	H	0.758373	-0.142832	1.777324
H261	H	0.227813	-0.562307	1.235839
H262	H	0.727813	-0.062307	1.735839
H263	H	0.286021	-0.615054	1.194222
H264	H	0.786021	-0.115054	1.694222
H265	H	0.155547	-0.616626	1.277298
H266	H	0.655547	-0.116626	1.777298
H267	H	0.213819	-0.669335	1.235657
H268	H	0.713819	-0.169335	1.735657
O269	O	-0.054162	-0.464093	1.184225
O270	O	0.445838	0.035907	1.684225
C271	C	-0.081902	-0.365732	1.184215
C272	C	0.418098	0.134268	1.684215
C273	C	-0.032706	-0.426889	1.184197
C274	C	0.467294	0.073111	1.684197
H275	H	-0.064569	-0.335631	1.184180
H276	H	0.435431	0.164369	1.684180
H277	H	-0.122620	-0.371961	1.225768
H278	H	0.377380	0.128039	1.725768
H279	H	-0.094928	-0.344315	1.142664
H280	H	0.405072	0.155685	1.642664
H281	H	-0.019630	-0.448339	1.225720
H282	H	0.480370	0.051661	1.725720
H283	H	0.007979	-0.420621	1.142616
H284	H	0.507979	0.079379	1.642616
H285	H	0.097136	0.013366	0.664120
H286	H	0.597136	0.513366	1.164120
H287	H	0.173631	-0.760687	1.184171
H288	H	0.673631	-0.260687	1.684171
O289	O	0.692940	-0.499239	0.401340
O290	O	1.192940	0.000761	0.901340
C291	C	0.692812	-0.471465	0.303021
C292	C	1.192812	0.028535	0.803021
C293	C	0.692874	-0.520666	0.364161
C294	C	1.192874	-0.020666	0.864161
H295	H	0.692746	-0.488766	0.272949
H296	H	1.192746	0.011234	0.772949
H297	H	0.734349	-0.458418	0.281522
H298	H	1.234349	0.041582	0.781522
H299	H	0.651248	-0.430764	0.309347
H300	H	1.151248	0.069236	0.809347
H301	H	0.734410	-0.561399	0.357888
H302	H	1.234410	-0.061399	0.857888
H303	H	0.651310	-0.533663	0.385640
H304	H	1.151310	-0.033663	0.885640
H305	H	0.065433	-0.475593	0.899616
H306	H	0.565433	0.024407	1.399616
H307	H	0.693053	-0.506675	0.588146
H308	H	1.193053	-0.006675	1.088146
H309	H	0.206679	0.013739	0.443646
H310	H	0.706679	0.513739	0.943646
O311	O	0.026920	0.013271	0.437347
O312	O	0.526920	0.513271	0.937347
C313	C	-0.044022	0.013254	0.410056
C314	C	0.455978	0.513254	0.910056
C315	C	-0.031771	0.013311	0.459033
C316	C	0.468229	0.513311	0.959033
H317	H	-0.091477	0.013299	0.427566
H318	H	0.408523	0.513299	0.927566
H319	H	-0.011003	-0.028320	0.397030
H320	H	0.488997	0.471680	0.897030
H321	H	-0.038664	0.054788	0.369293
H322	H	0.461336	0.554788	0.869293
H323	H	-0.037138	-0.028194	0.499828
H324	H	0.462862	0.471806	0.999828
H325	H	-0.064788	0.054913	0.472008
H326	H	0.435212	0.554913	0.972008
H327	H	0.250633	-0.568176	0.899553
H328	H	0.750633	-0.068176	1.399553
O329	O	0.215628	-0.652334	0.436971
O330	O	0.715628	-0.152334	0.936971
C331	C	0.287493	-0.712704	0.373971
C332	C	0.787493	-0.212704	0.873971
C333	C	0.226331	-0.700612	0.423109
C334	C	0.726331	-0.200612	0.923109
H335	H	0.296160	-0.751728	0.362739
H336	H	0.796160	-0.251728	0.862739
H337	H	0.323962	-0.724084	0.390408
H338	H	0.823962	-0.224084	0.890408
H339	H	0.287618	-0.671216	0.332353
H340	H	0.787618	-0.171216	0.832353
H341	H	0.226148	-0.742079	0.464744
H342	H	0.726148	-0.242079	0.964744
H343	H	0.189888	-0.689207	0.406623
H344	H	0.689888	-0.189207	0.906623
O345	O	0.027320	-0.463960	0.437096
O346	O	0.527320	0.036040	0.937096
C347	C	0.056170	-0.376215	0.371856
C348	C	0.556170	0.123785	0.871856
C349	C	0.068292	-0.437423	0.420945
C350	C	0.568292	0.062577	0.920945
H351	H	0.089296	-0.354748	0.358774
H352	H	0.589296	0.145252	0.858774
H353	H	0.008762	-0.346165	0.389266
H354	H	0.508762	0.153835	0.889266
H355	H	0.061503	-0.382441	0.331152
H356	H	0.561503	0.117559	0.831152
H357	H	0.062992	-0.431254	0.461665
H358	H	0.562992	0.068746	0.961665
H359	H	0.115695	-0.467452	0.403487
H360	H	0.615695	0.032548	0.903487
H361	H	0.288361	-0.530376	0.786177
H362	H	0.788361	-0.030376	1.286177
H363	H	0.065328	-0.475552	0.695316
H364	H	0.565328	0.024448	1.195316
O365	O	0.096733	-0.432047	0.738681
O366	O	0.596733	0.067953	1.238681
C367	C	0.015840	-0.340075	0.746708
C368	C	0.515840	0.159925	1.246708
C369	C	0.060515	-0.379628	0.707200
C370	C	0.560515	0.120372	1.207200
H371	H	-0.013462	-0.297692	0.721277
H372	H	0.486538	0.202308	1.221277
H373	H	0.041256	-0.327732	0.758994
H374	H	0.541256	0.172268	1.258994
H375	H	-0.013376	-0.365547	0.789126
H376	H	0.486624	0.134453	1.289126
H377	H	0.089742	-0.354193	0.664757
H378	H	0.589742	0.145807	1.164757
H379	H	0.035062	-0.391975	0.694963
H380	H	0.535062	0.108025	1.194963
O381	O	0.256933	-0.573749	0.597040
O382	O	0.756933	-0.073749	1.097040
C383	C	0.360354	-0.622188	0.548635
C384	C	0.860354	-0.122188	1.048635
C385	C	0.315655	-0.582681	0.588185
C386	C	0.815655	-0.082681	1.088185
H387	H	0.407840	-0.629432	0.541473
H388	H	0.907840	-0.129432	1.041473
H389	H	0.353176	-0.599290	0.503660
H390	H	0.853176	-0.099290	1.003660
H391	H	0.353131	-0.667129	0.571529
H392	H	0.853131	-0.167129	1.071529
H393	H	0.322851	-0.537733	0.565344
H394	H	0.822851	-0.037733	1.065344
H395	H	0.322845	-0.605626	0.633158
H396	H	0.822845	-0.105626	1.133158
H397	H	0.288283	-0.530335	0.640482
H398	H	0.788283	-0.030335	1.140482
H399	H	0.408519	-0.613593	0.683941
H400	H	0.908519	-0.113593	1.183941
O401	O	0.290204	-0.582090	0.726527
O402	O	0.790204	-0.082090	1.226527
C403	C	0.219652	-0.623811	0.817323
C404	C	0.719652	-0.123811	1.317323
C405	C	0.254019	-0.579651	0.784618
C406	C	0.754019	-0.079651	1.284618
H407	H	0.190378	-0.621845	0.864291
H408	H	0.690378	-0.121845	1.364291
H409	H	0.252700	-0.670988	0.820120
H410	H	0.752700	-0.170988	1.320120
H411	H	0.190402	-0.611261	0.791748
H412	H	0.690402	-0.111261	1.291748
H413	H	0.283269	-0.592146	0.810166
H414	H	0.783269	-0.092146	1.310166
H415	H	0.220938	-0.532485	0.781815
H416	H	0.720938	-0.032485	1.281815
O417	O	0.413365	-0.423795	0.609236
O418	O	0.913365	0.076205	1.109236
C419	C	0.432420	-0.337141	0.525020
C420	C	0.932420	0.162859	1.025020
C421	C	0.398061	-0.381310	0.557731
C422	C	0.898061	0.118690	1.057731
H423	H	0.420049	-0.302774	0.483378
H424	H	0.920049	0.197226	0.983378
H425	H	0.482463	-0.362470	0.511595
H426	H	0.982463	0.137530	1.011595
H427	H	0.420151	-0.313457	0.555901
H428	H	0.920151	0.186543	1.055901
H429	H	0.410280	-0.405007	0.526883
H430	H	0.910280	0.094993	1.026883
H431	H	0.348026	-0.355950	0.571165
H432	H	0.848026	0.144050	1.071165
O433	O	0.290131	-0.382783	0.650522
O434	O	0.790131	0.117217	1.150522
C435	C	0.219614	-0.307153	0.696575
C436	C	0.719614	0.192847	1.196575
C437	C	0.254022	-0.374224	0.706287
C438	C	0.754022	0.125776	1.206287
H439	H	0.190422	-0.300210	0.741652
H440	H	0.690422	0.199790	1.241652
H441	H	0.190296	-0.289532	0.669136
H442	H	0.690296	0.210468	1.169136
H443	H	0.252689	-0.282055	0.671740
H444	H	0.752689	0.217945	1.171740
H445	H	0.220990	-0.399371	0.731138
H446	H	0.720990	0.100629	1.231138
H447	H	0.283349	-0.391798	0.733701
H448	H	0.783349	0.108202	1.233701
O449	O	0.105967	-0.266465	0.748105
O450	O	0.605967	0.233535	1.248105
C451	C	0.057646	-0.273075	0.851538
C452	C	0.557646	0.226925	1.351538
C453	C	0.097162	-0.307414	0.806822
C454	C	0.597162	0.192586	1.306822
H455	H	0.050526	-0.306167	0.899021
H456	H	0.550526	0.193833	1.399021
H457	H	0.012653	-0.243834	0.844403
H458	H	0.512653	0.256166	1.344403
H459	H	0.080543	-0.243794	0.844289
H460	H	0.580543	0.256206	1.344289
H461	H	0.074318	-0.336727	0.814044
H462	H	0.574318	0.163273	1.314044
H463	H	0.142154	-0.336617	0.813968
H464	H	0.642154	0.163383	1.313968
H465	H	0.204115	-0.271255	0.556464
H466	H	0.704115	0.228745	1.056464
O467	O	0.247562	-0.389461	0.587771
O468	O	0.747562	0.110539	1.087771
C469	C	0.295946	-0.382847	0.484336
C470	C	0.795946	0.117153	0.984336
C471	C	0.256455	-0.348510	0.529054
C472	C	0.756455	0.151490	1.029054
H473	H	0.303159	-0.349753	0.436854
H474	H	0.803159	0.150247	0.936854
H475	H	0.273056	-0.412091	0.491500
H476	H	0.773056	0.087909	0.991500
H477	H	0.340898	-0.412124	0.491555
H478	H	0.840898	0.087876	0.991555
H479	H	0.211496	-0.319201	0.521863
H480	H	0.711496	0.180799	1.021863
H481	H	0.279392	-0.319303	0.521880
H482	H	0.779392	0.180697	1.021880
H483	H	0.149444	-0.384673	0.779411
H484	H	0.649444	0.115327	1.279411
