data_functionalizedCrystal
_audit_creation_method	'MofGen! by Chris Wilmer'
_symmetry_space_group_name_H-M	'P1'
_symmetry_Int_Tables_number	1
_symmetry_cell_setting	triclinic
loop_
_symmetry_equiv_pos_as_xyz
  x,y,z
_cell_length_a	14.971506
_cell_length_b	17.019294
_cell_length_c	13.448316
_cell_angle_alpha	86.114424
_cell_angle_beta	89.992937
_cell_angle_gamma	83.508029
loop_
_atom_site_label
_atom_site_type_symbol
_atom_site_fract_x
_atom_site_fract_y
_atom_site_fract_z
O1	O	1.186681	0.102877	-0.091506
O2	O	1.686681	0.602877	0.408494
O3	O	0.926252	0.115171	-0.092559
O4	O	1.426252	0.615171	0.407441
O5	O	1.063731	-0.005802	-0.082196
O6	O	1.563731	0.494198	0.417804
O7	O	1.049202	0.223849	-0.101870
O8	O	1.549202	0.723849	0.398130
O9	O	1.063714	-0.005809	0.083189
O10	O	1.563714	0.494191	0.583189
O11	O	0.926235	0.115163	0.072825
O12	O	1.426235	0.615163	0.572825
O13	O	1.186663	0.102869	0.073878
O14	O	1.686663	0.602869	0.573878
Cu15	Cu	1.056448	0.109016	0.088453
Cu16	Cu	1.556448	0.609016	0.588453
Cu17	Cu	1.056468	0.109024	-0.107134
Cu18	Cu	1.556468	0.609024	0.392866
O19	O	1.049184	0.223842	0.063515
O20	O	1.549184	0.723842	0.563515
C21	C	0.892921	0.114614	-0.009820
C22	C	1.392921	0.614614	0.490180
C23	C	0.793629	0.112958	-0.009678
C24	C	1.293629	0.612958	0.490322
C25	C	1.063171	-0.035195	0.003012
C26	C	1.563171	0.464805	0.503012
C27	C	1.061518	-0.122768	0.010508
C28	C	1.561518	0.377232	0.510508
C29	C	0.355185	0.177707	-0.015235
C30	C	0.855185	0.677707	0.484765
C31	C	0.448482	0.179257	-0.015372
C32	C	0.948482	0.679257	0.484628
C33	C	0.505878	0.108181	-0.009279
C34	C	1.005878	0.608181	0.490721
C35	C	0.469974	0.035550	-0.003058
C36	C	0.969974	0.535550	0.496942
C37	C	0.376679	0.034001	-0.002928
C38	C	0.876679	0.534001	0.497072
C39	C	0.664429	0.038784	-0.003327
C40	C	1.164429	0.538784	0.496673
C41	C	0.757730	0.040333	-0.003455
C42	C	1.257730	0.540333	0.496545
C43	C	0.736231	0.184040	-0.015771
C44	C	1.236231	0.684040	0.484229
C45	C	0.642937	0.182491	-0.015641
C46	C	1.142937	0.682491	0.484359
C47	C	0.607039	0.109860	-0.009418
C48	C	1.107039	0.609860	0.490582
C49	C	1.060753	-0.163901	-0.076121
C50	C	1.560753	0.336099	0.423879
C51	C	1.059194	-0.246184	-0.069074
C52	C	1.559194	0.253816	0.430926
C53	C	1.058407	-0.287333	0.024602
C54	C	1.558407	0.212667	0.524602
C55	C	1.059169	-0.246193	0.111237
C56	C	1.559169	0.253807	0.611237
C57	C	1.060722	-0.163911	0.104190
C58	C	1.560722	0.336089	0.604190
C59	C	1.053713	-0.535771	0.050390
C60	C	1.553713	-0.035771	0.550390
C61	C	1.052163	-0.618059	0.057431
C62	C	1.552163	-0.118059	0.557431
C63	C	1.052186	-0.618043	-0.122881
C64	C	1.552186	-0.118043	0.377119
C65	C	1.053744	-0.535760	-0.129920
C66	C	1.553744	-0.035760	0.370080
C67	C	1.054501	-0.494628	-0.043285
C68	C	1.554501	0.005372	0.456715
C69	C	1.056816	-0.371439	0.031806
C70	C	1.556816	0.128561	0.531806
C71	C	1.056086	-0.410522	-0.050491
C72	C	1.556086	0.089478	0.449509
C73	C	1.219995	0.103426	-0.008864
C74	C	1.719995	0.603426	0.491136
C75	C	1.319287	0.105082	-0.009012
C76	C	1.819287	0.605082	0.490988
C77	C	1.049744	0.253236	-0.021696
C78	C	1.549744	0.753236	0.478304
C79	C	1.051397	0.340808	-0.029198
C80	C	1.551397	0.840808	0.470802
N81	N	1.056440	0.109009	0.226017
N82	N	1.556440	0.609009	0.726017
N83	N	1.056483	0.109025	-0.244698
N84	N	1.556483	0.609025	0.255302
C85	C	1.117334	0.055464	0.282645
C86	C	1.617334	0.555464	0.782645
C87	C	1.117340	0.055464	0.386748
C88	C	1.617340	0.555464	0.886748
C89	C	1.056455	0.109012	0.434222
C90	C	1.556455	0.609012	0.934222
C91	C	0.995554	0.162559	0.377587
C92	C	1.495554	0.662559	0.877587
C93	C	0.995544	0.162555	0.273486
C94	C	1.495544	0.662555	0.773486
C95	C	0.995578	0.162565	0.594566
C96	C	1.495578	0.662565	1.094566
C97	C	0.995588	0.162570	0.698674
C98	C	1.495588	0.662570	1.198674
C99	C	1.117374	0.055473	0.707829
C100	C	1.617374	0.555473	1.207829
C101	C	1.117365	0.055469	0.603728
C102	C	1.617365	0.555469	1.103728
C103	C	1.056465	0.109017	0.547100
C104	C	1.556465	0.609017	1.047100
H105	H	0.308458	0.235586	-0.020190
H106	H	0.808458	0.735586	0.479810
H107	H	1.054347	-0.502293	0.120935
H108	H	1.554347	-0.002293	0.620935
H109	H	1.166918	0.011862	0.243999
H110	H	1.666918	0.511862	0.743999
H111	H	1.166924	0.011863	0.432854
H112	H	1.666924	0.511863	0.932854
H113	H	1.051567	-0.651542	-0.193415
H114	H	1.551567	-0.151542	0.306585
H115	H	0.477705	0.238396	-0.020449
H116	H	0.977705	0.738396	0.479551
H117	H	1.166946	0.011870	0.565075
H118	H	1.666946	0.511870	1.065075
H119	H	0.596206	0.240367	-0.020596
H120	H	1.096206	0.740367	0.479404
H121	H	0.765463	0.243179	-0.020837
H122	H	1.265463	0.743179	0.479163
H123	H	0.347453	-0.025138	0.002138
H124	H	0.847453	0.474862	0.502138
H125	H	1.058575	-0.279671	-0.139617
H126	H	1.558575	0.220329	0.360383
H127	H	0.635205	-0.020360	0.001736
H128	H	1.135205	0.479640	0.501736
H129	H	1.061399	-0.130404	-0.152402
H130	H	1.561399	0.369596	0.347598
H131	H	1.054386	-0.502263	-0.206201
H132	H	1.554386	-0.002263	0.293799
H133	H	1.061332	-0.130420	0.174732
H134	H	1.561332	0.369580	0.674732
H135	H	1.056178	-0.404952	0.108078
H136	H	1.556178	0.095048	0.608078
H137	H	0.516714	-0.022321	0.001897
H138	H	1.016714	0.477679	0.501897
H139	H	1.058523	-0.279703	0.187510
H140	H	1.558523	0.220297	0.687510
H141	H	1.051517	-0.651560	0.133717
H142	H	1.551517	-0.151560	0.633717
H143	H	1.166960	0.011872	0.753941
H144	H	1.666960	0.511872	1.253941
H145	H	1.056721	-0.377014	-0.126762
H146	H	1.556721	0.122986	0.373238
H147	H	0.946008	0.206173	0.737322
H148	H	1.446008	0.706173	1.237322
H149	H	0.945984	0.206167	0.548463
H150	H	1.445984	0.706167	1.048463
H151	H	0.945975	0.206157	0.416246
H152	H	1.445975	0.706157	0.916246
H153	H	0.804461	-0.017543	0.001499
H154	H	1.304461	0.482457	0.501499
H155	H	0.945957	0.206156	0.227380
H156	H	1.445957	0.706156	0.727380
