data_functionalizedCrystal
_audit_creation_method	'MofGen! by Chris Wilmer'
_symmetry_space_group_name_H-M	'P1'
_symmetry_Int_Tables_number	1
_symmetry_cell_setting	triclinic
loop_
_symmetry_equiv_pos_as_xyz
  x,y,z
_cell_length_a	15.995280
_cell_length_b	19.188924
_cell_length_c	17.666332
_cell_angle_alpha	90.008552
_cell_angle_beta	89.989927
_cell_angle_gamma	96.697219
loop_
_atom_site_label
_atom_site_type_symbol
_atom_site_fract_x
_atom_site_fract_y
_atom_site_fract_z
O1	O	-1.110697	0.089764	0.062964
O2	O	-0.610697	0.589764	0.562964
O3	O	-0.866872	0.100928	0.062964
O4	O	-0.366872	0.600928	0.562964
O5	O	-0.995824	-0.006294	0.062955
O6	O	-0.495824	0.493706	0.562955
O7	O	-0.981745	0.196985	0.062973
O8	O	-0.481745	0.696985	0.562973
O9	O	-0.995801	-0.006299	-0.062942
O10	O	-0.495801	0.493701	0.437058
O11	O	-0.866850	0.100923	-0.062933
O12	O	-0.366850	0.600923	0.437067
O13	O	-1.110674	0.089758	-0.062932
O14	O	-0.610674	0.589758	0.437068
Cu15	Cu	-0.988760	0.095340	-0.074428
Cu16	Cu	-0.488760	0.595340	0.425572
Cu17	Cu	-0.988786	0.095346	0.074459
Cu18	Cu	-0.488786	0.595346	0.574459
O19	O	-0.981723	0.196980	-0.062924
O20	O	-0.481723	0.696980	0.437076
C21	C	-0.835667	0.100473	0.000015
C22	C	-0.335667	0.600473	0.500015
C23	C	-0.742718	0.099115	0.000014
C24	C	-0.242718	0.599115	0.500014
C25	C	-0.404996	0.094123	0.000025
C26	C	0.095004	0.594123	0.500025
C27	C	-0.428023	0.171509	0.000313
C28	C	0.071977	0.671509	0.500313
C29	C	-0.524694	0.172976	0.000025
C30	C	-0.024694	0.672976	0.500025
C31	C	-0.572544	0.096600	0.000020
C32	C	-0.072544	0.596600	0.500020
C33	C	-0.543572	0.057908	-0.071874
C34	C	-0.043572	0.557908	0.428126
C35	C	-0.446784	0.056980	-0.071930
C36	C	0.053216	0.556980	0.428070
C37	C	-0.446960	0.055406	0.071238
C38	C	0.053040	0.555406	0.571238
C39	C	-0.543443	0.058271	0.072184
C40	C	-0.043443	0.558271	0.572184
C41	C	-0.667235	0.097996	0.000015
C42	C	-0.167235	0.597996	0.500015
C43	C	-0.310305	0.092725	0.000025
C44	C	0.189695	0.592725	0.500025
C45	C	-0.995357	-0.032309	0.000006
C46	C	-0.495357	0.467691	0.500006
C47	C	-0.993992	-0.109817	0.000004
C48	C	-0.493992	0.390183	0.500004
C49	C	-0.993367	-0.146214	0.068630
C50	C	-0.493367	0.353786	0.568630
C51	C	-0.992071	-0.219040	0.068636
C52	C	-0.492071	0.280960	0.568636
C53	C	-0.991418	-0.255467	0.000012
C54	C	-0.491418	0.244533	0.500012
C55	C	-0.992039	-0.219061	-0.068624
C56	C	-0.492039	0.280939	0.431376
C57	C	-0.993325	-0.146235	-0.068628
C58	C	-0.493325	0.353765	0.431372
N59	N	-1.037039	-0.375026	-0.051064
N60	N	-0.537039	0.124974	0.448936
N61	N	-1.035818	-0.444207	-0.051056
N62	N	-0.535818	0.055793	0.448944
C63	C	-0.987540	-0.474885	0.000019
C64	C	-0.487540	0.025115	0.500019
N65	N	-0.940539	-0.433770	0.051096
N66	N	-0.440539	0.066230	0.551096
N67	N	-0.941763	-0.364583	0.051090
N68	N	-0.441763	0.135417	0.551090
C69	C	-0.990023	-0.334434	0.000008
C70	C	-0.490023	0.165566	0.500008
C71	C	-0.985509	-0.590248	0.068656
C72	C	-0.485509	-0.090248	0.568656
C73	C	-0.984209	-0.663075	0.068659
C74	C	-0.484209	-0.163075	0.568659
C75	C	-0.984185	-0.663095	-0.068603
C76	C	-0.484185	-0.163095	0.431397
C77	C	-0.985477	-0.590269	-0.068604
C78	C	-0.485477	-0.090269	0.431396
C79	C	-0.986143	-0.553851	0.000028
C80	C	-0.486143	-0.053851	0.500028
C81	C	-0.141878	0.090223	0.000020
C82	C	0.358122	0.590223	0.500020
C83	C	-0.234822	0.091608	0.000031
C84	C	0.265178	0.591608	0.500031
C85	C	-0.982189	0.222995	0.000027
C86	C	-0.482189	0.722995	0.500027
C87	C	-0.983554	0.300503	0.000034
C88	C	-0.483554	0.800503	0.500034
N89	N	-0.988747	0.095334	-0.179148
N90	N	-0.488747	0.595334	0.320852
C91	C	-1.045865	0.047880	-0.218761
C92	C	-0.545865	0.547880	0.281239
C93	C	-1.045870	0.047876	-0.298009
C94	C	-0.545870	0.547876	0.201991
C95	C	-0.988765	0.095340	-0.337640
C96	C	-0.488765	0.595340	0.162360
C97	C	-0.931636	0.142798	-0.298017
C98	C	-0.431636	0.642798	0.201983
C99	C	-0.931627	0.142795	-0.218771
C100	C	-0.431627	0.642795	0.281229
N101	N	-0.977878	0.157122	-0.462053
N102	N	-0.477878	0.657122	0.037947
N103	N	-0.977892	0.157122	-0.537333
N104	N	-0.477892	0.657122	-0.037333
C105	C	-0.988787	0.095350	-0.576404
C106	C	-0.488787	0.595350	-0.076404
N107	N	-0.999685	0.033575	-0.537350
N108	N	-0.499685	0.533575	-0.037350
N109	N	-0.999675	0.033575	-0.462062
N110	N	-0.499675	0.533575	0.037938
C111	C	-0.988768	0.095348	-0.423569
C112	C	-0.488768	0.595348	0.076431
C113	C	-1.045913	0.047887	-0.701947
C114	C	-0.545913	0.547887	-0.201947
C115	C	-1.045912	0.047883	-0.781196
C116	C	-0.545912	0.547883	-0.281196
C117	C	-0.931682	0.142811	-0.781202
C118	C	-0.431682	0.642811	-0.281202
C119	C	-0.931679	0.142809	-0.701955
C120	C	-0.431679	0.642809	-0.201955
C121	C	-0.988799	0.095348	-0.662332
C122	C	-0.488799	0.595348	-0.162332
N123	N	-0.988806	0.095346	0.179179
N124	N	-0.488806	0.595346	0.679179
H125	H	-0.543618	0.203274	0.051563
H126	H	-0.043618	0.703274	0.551563
H127	H	-0.993831	-0.116601	-0.124513
H128	H	-0.493831	0.383399	0.375487
H129	H	-0.419859	0.083773	-0.125669
H130	H	0.080141	0.583773	0.374331
Br131	Br	-0.854129	0.207208	-0.351799
Br132	Br	-0.354129	0.707208	0.148201
H133	H	-0.983696	-0.692708	0.124545
H134	H	-0.483696	-0.192708	0.624545
Br135	Br	-0.991142	-0.268495	-0.161758
Br136	Br	-0.491142	0.231505	0.338242
Br137	Br	-0.422874	-0.037584	-0.077426
Br138	Br	0.077126	0.462416	0.422574
H139	H	-0.885172	0.181454	-0.669699
H140	H	-0.385172	0.681454	-0.169699
Br141	Br	-0.983290	-0.712524	-0.161739
Br142	Br	-0.483290	-0.212524	0.338261
H143	H	-0.985993	-0.560635	-0.124487
H144	H	-0.485993	-0.060635	0.375513
H145	H	-0.399926	0.201340	0.051872
H146	H	0.100074	0.701340	0.551872
Br147	Br	-0.574276	0.105200	0.160837
Br148	Br	-0.074276	0.605200	0.660837
H149	H	-0.885114	0.181439	-0.186517
H150	H	-0.385114	0.681439	0.313483
H151	H	-0.576620	0.002524	0.076523
H152	H	-0.076620	0.502524	0.576523
H153	H	-0.398885	0.201170	-0.050951
H154	H	0.101115	0.701170	0.449049
H155	H	-0.542975	0.203456	-0.051594
H156	H	-0.042975	0.703456	0.448406
Br157	Br	-0.423997	-0.039534	0.072040
Br158	Br	0.076003	0.460466	0.572040
H159	H	-0.986047	-0.560594	0.124540
H160	H	-0.486047	-0.060594	0.624540
H161	H	-1.092422	0.009240	-0.669684
H162	H	-0.592422	0.509240	-0.169684
Br163	Br	-0.597019	-0.035771	-0.076334
Br164	Br	-0.097019	0.464229	0.423666
Br165	Br	-1.123380	-0.016532	-0.164986
Br166	Br	-0.623380	0.483468	0.335014
H167	H	-1.092422	0.009236	-0.813450
H168	H	-0.592422	0.509236	-0.313450
Br169	Br	-1.123393	-0.016533	-0.351780
Br170	Br	-0.623393	0.483467	0.148220
Br171	Br	-0.854173	0.207218	-0.834981
Br172	Br	-0.354173	0.707218	-0.334981
Br173	Br	-0.399623	0.095733	0.162062
Br174	Br	0.100377	0.595733	0.662062
Br175	Br	-0.576821	0.102681	-0.161047
Br176	Br	-0.076821	0.602681	0.338953
Br177	Br	-0.994267	-0.096791	0.161773
Br178	Br	-0.494267	0.403209	0.661773
Br179	Br	-0.991220	-0.268447	0.161779
Br180	Br	-0.491220	0.231553	0.661779
