data_functionalizedCrystal
_audit_creation_method	'MofGen! by Chris Wilmer'
_symmetry_space_group_name_H-M	'P1'
_symmetry_Int_Tables_number	1
_symmetry_cell_setting	triclinic
loop_
_symmetry_equiv_pos_as_xyz
  x,y,z
_cell_length_a	6.817900
_cell_length_b	17.284796
_cell_length_c	12.200875
_cell_angle_alpha	91.041467
_cell_angle_beta	107.143593
_cell_angle_gamma	103.042616
loop_
_atom_site_label
_atom_site_type_symbol
_atom_site_fract_x
_atom_site_fract_y
_atom_site_fract_z
V1	V	-4.060296	-0.109233	-0.347874
O2	O	-4.055411	0.005065	-0.351306
O3	O	-4.003658	-0.216413	-0.335825
O4	O	-4.030136	-0.107633	-0.504005
O5	O	-4.028750	-0.104468	-0.181961
V6	V	-4.542628	-0.095552	-0.329204
O7	O	-4.324167	-0.139243	-0.388828
O8	O	-4.728954	-0.065542	-0.288250
O9	O	-4.376059	0.011628	-0.341253
O10	O	-4.664909	-0.209849	-0.325772
O11	O	-4.691571	-0.100317	-0.495117
O12	O	-4.349580	-0.097151	-0.173072
C13	C	-3.846065	-0.242538	-0.327841
C14	C	-3.881165	-0.330160	-0.319030
C15	C	-4.073026	-0.822149	-0.258164
C16	C	-4.040065	-0.739821	-0.266462
C17	C	-4.075226	-0.709976	-0.374649
C18	C	-4.143332	-0.762463	-0.474543
C19	C	-4.176277	-0.844789	-0.466244
C20	C	-3.982217	-0.464972	-0.410626
C21	C	-3.949271	-0.382640	-0.418918
C22	C	-3.846002	-0.360004	-0.210835
C23	C	-3.878966	-0.442333	-0.202546
C24	C	-3.947058	-0.494812	-0.302440
N25	N	-4.041542	-0.625825	-0.383133
N26	N	-3.980726	-0.578962	-0.293954
C27	C	-3.879839	-0.103778	-0.542372
C28	C	-3.936410	-0.103180	-0.669946
C29	C	-4.039942	-0.102085	-0.903519
C30	C	-3.982321	-0.102694	-0.773542
C31	C	-4.196994	0.037750	-0.349233
C32	C	-4.141132	0.125371	-0.358051
C33	C	-4.163219	-0.101009	-0.134700
C34	C	-4.085887	-0.101603	-0.007125
H35	H	-4.171945	-0.738156	-0.562631
Br36	Br	-3.997016	-0.342137	-0.565754
H37	H	-4.231728	-0.887518	-0.547583
Br38	Br	-4.025320	-0.862645	-0.111332
H39	H	-4.037665	-0.507692	-0.491968
H40	H	-3.850336	-0.466626	-0.114449
Br41	Br	-3.947624	-0.668600	-0.130893
H42	H	-3.790557	-0.317267	-0.129507
