data_functionalizedCrystal
_audit_creation_method	'MofGen! by Chris Wilmer'
_symmetry_space_group_name_H-M	'P1'
_symmetry_Int_Tables_number	1
_symmetry_cell_setting	triclinic
loop_
_symmetry_equiv_pos_as_xyz
  x,y,z
_cell_length_a	14.044190
_cell_length_b	14.044191
_cell_length_c	12.503572
_cell_angle_alpha	93.837835
_cell_angle_beta	86.160597
_cell_angle_gamma	93.191777
loop_
_atom_site_label
_atom_site_type_symbol
_atom_site_fract_x
_atom_site_fract_y
_atom_site_fract_z
O1	O	0.225145	1.282215	0.089290
O2	O	0.216832	1.005543	0.089303
O3	O	0.082653	1.139721	0.089276
O4	O	0.359323	1.148036	0.089318
O5	O	0.092762	1.129632	-0.089364
O6	O	0.226941	0.995453	-0.089337
O7	O	0.235254	1.272125	-0.089350
Cu8	Cu	0.232021	1.132868	-0.105654
Cu9	Cu	0.220065	1.144800	0.105608
O10	O	0.369433	1.137947	-0.089322
C11	C	0.218249	0.964876	-0.000016
C12	C	0.207402	0.858733	-0.000012
C13	C	0.264503	0.613276	-0.000014
C14	C	0.187587	0.664399	-0.000023
C15	C	0.198615	0.772536	-0.000017
C16	C	0.253476	0.505129	-0.000020
C17	C	0.052086	1.131040	-0.000047
C18	C	-0.054057	1.120192	-0.000056
C19	C	-0.299516	1.177295	-0.000017
C20	C	-0.248393	1.100378	-0.000021
C21	C	-0.140254	1.111405	-0.000040
C22	C	-0.407664	1.166269	0.000003
C23	C	0.400000	1.146629	0.000003
C24	C	0.506142	1.157477	0.000019
C25	C	0.233836	1.312792	-0.000029
C26	C	0.244683	1.418936	-0.000026
N27	N	0.240429	1.124483	-0.254245
C28	C	0.252807	1.112148	-0.473358
C29	C	0.199275	1.165524	-0.526696
C30	C	0.206162	1.158661	-0.648618
C31	C	0.245921	1.119010	-0.351425
N32	N	0.211649	1.153192	0.254198
H33	H	0.113450	0.626957	0.000041
C34	C	0.364645	0.663862	0.000012
N35	N	0.440071	0.701975	0.000037
H36	H	-0.285838	1.026246	-0.000011
C37	C	-0.248930	1.277437	-0.000048
N38	N	-0.210816	1.352863	-0.000080
C39	C	0.130383	1.234234	-0.464686
N40	N	0.078502	1.285990	-0.417976
C41	C	0.321704	1.043453	-0.535367
N42	N	0.373597	0.991714	-0.582084
