data_functionalizedCrystal
_audit_creation_method	'MofGen! by Chris Wilmer'
_symmetry_space_group_name_H-M	'P1'
_symmetry_Int_Tables_number	1
_symmetry_cell_setting	triclinic
loop_
_symmetry_equiv_pos_as_xyz
  x,y,z
_cell_length_a	19.077312
_cell_length_b	18.101397
_cell_length_c	19.076919
_cell_angle_alpha	92.268541
_cell_angle_beta	94.668947
_cell_angle_gamma	87.726658
loop_
_atom_site_label
_atom_site_type_symbol
_atom_site_fract_x
_atom_site_fract_y
_atom_site_fract_z
Zn1	Zn	1.061675	-0.354669	-0.355251
Zn2	Zn	1.561675	0.145331	0.144749
Zn3	Zn	1.066338	-0.473726	-0.237364
Zn4	Zn	1.566338	0.026274	0.262636
Zn5	Zn	0.948532	-0.345132	-0.242119
Zn6	Zn	1.448532	0.154868	0.257881
Zn7	Zn	0.943769	-0.473696	-0.359946
Zn8	Zn	1.443769	0.026304	0.140054
O9	O	1.005078	-0.411806	-0.298670
O10	O	1.505078	0.088194	0.201330
O11	O	1.160940	-0.374466	-0.335658
O12	O	1.660940	0.125534	0.164342
O13	O	1.054655	-0.452690	-0.139347
O14	O	1.554655	0.047310	0.360653
O15	O	0.963582	-0.242767	-0.257151
O16	O	1.463582	0.257233	0.242849
O17	O	1.164365	-0.461937	-0.249046
O18	O	1.664365	0.038063	0.250954
O19	O	1.046708	-0.249774	-0.340269
O20	O	1.546708	0.250226	0.159731
O21	O	0.968104	-0.358212	-0.142841
O22	O	1.468104	0.141788	0.357159
O23	O	0.849254	-0.358183	-0.261704
O24	O	1.349254	0.141817	0.238296
O25	O	0.955465	-0.461885	-0.457971
O26	O	1.455465	0.038115	0.042029
O27	O	0.845755	-0.452638	-0.348272
O28	O	1.345755	0.047362	0.151728
O29	O	1.042090	-0.374437	-0.454521
O30	O	1.542090	0.125563	0.045479
O31	O	1.050037	-0.577352	-0.253600
O32	O	1.550037	-0.077352	0.246400
O33	O	0.959986	-0.577330	-0.343661
O34	O	1.459986	-0.077330	0.156339
C35	C	0.821927	-0.404373	-0.306014
C36	C	1.321927	0.095627	0.193986
C37	C	0.743573	-0.401211	-0.309172
C38	C	1.243573	0.098789	0.190828
C39	C	0.302331	-0.378477	-0.331833
C40	C	0.802331	0.121523	0.168167
C41	C	0.375953	-0.381461	-0.328861
C42	C	0.875953	0.118539	0.171139
C43	C	0.414541	-0.428414	-0.282209
C44	C	0.914541	0.071586	0.217791
C45	C	0.379504	-0.472391	-0.238530
C46	C	0.879504	0.027609	0.261470
C47	C	0.305883	-0.469410	-0.241506
C48	C	0.805883	0.030590	0.258494
C49	C	0.634915	-0.442207	-0.268469
C50	C	1.134915	0.057793	0.231531
C51	C	0.708540	-0.445183	-0.265495
C52	C	1.208540	0.054817	0.234505
C53	C	0.704984	-0.354254	-0.355828
C54	C	1.204984	0.145746	0.144172
C55	C	0.631362	-0.351274	-0.358797
C56	C	1.131362	0.148726	0.141203
C57	C	0.596331	-0.395254	-0.315121
C58	C	1.096331	0.104746	0.184879
N59	N	0.489795	-0.431464	-0.279169
N60	N	0.989795	0.068536	0.220831
N61	N	0.521079	-0.392208	-0.318165
N62	N	1.021079	0.107792	0.181835
C63	C	1.005019	-0.604213	-0.298638
C64	C	1.505019	-0.104213	0.201362
C65	C	1.005058	-0.686529	-0.298646
C66	C	1.505058	-0.186529	0.201354
C67	C	1.005145	-0.985626	-0.298706
C68	C	1.505145	-0.485626	0.201294
C69	C	1.061657	-0.954272	-0.241903
C70	C	1.561657	-0.454272	0.258097
C71	C	1.061839	-0.868667	-0.242036
C72	C	1.561839	-0.368667	0.257964
C73	C	1.005102	-0.837240	-0.298676
C74	C	1.505102	-0.337240	0.201324
C75	C	1.022252	-0.872080	-0.372172
C76	C	1.522252	-0.372080	0.127828
C77	C	1.022684	-0.957730	-0.371858
C78	C	1.522684	-0.457730	0.128142
C79	C	0.931313	-0.950340	-0.282663
C80	C	1.431313	-0.450340	0.217337
C81	C	0.931748	-0.864638	-0.280989
C82	C	1.431748	-0.364638	0.219011
C83	C	1.005076	-0.753379	-0.298663
C84	C	1.505076	-0.253379	0.201337
C85	C	1.005173	-1.069487	-0.298724
C86	C	1.505173	-0.569487	0.201276
C87	C	1.188945	-0.419269	-0.291298
C88	C	1.688945	0.080731	0.208702
C89	C	1.267299	-0.422449	-0.288156
C90	C	1.767299	0.077551	0.211844
C91	C	0.997726	-0.419221	-0.482539
C92	C	1.497726	0.080779	0.017461
C93	C	0.994593	-0.422381	-0.560894
C94	C	1.494593	0.077619	-0.060894
C95	C	1.005156	-0.218649	-0.298716
C96	C	1.505156	0.281351	0.201284
C97	C	1.005189	-0.136337	-0.298736
C98	C	1.505189	0.363663	0.201264
C99	C	1.038220	-0.378338	-0.595910
C100	C	1.538220	0.121662	-0.095910
C101	C	1.035267	-0.381304	-0.669532
C102	C	1.535267	0.118696	-0.169532
C103	C	0.988691	-0.428317	-0.708137
C104	C	1.488691	0.071683	-0.208137
C105	C	0.945060	-0.472362	-0.673116
C106	C	1.445060	0.027638	-0.173116
C107	C	0.948009	-0.469392	-0.599495
C108	C	1.448009	0.030608	-0.099495
C109	C	0.975030	-0.442079	-0.928513
C110	C	1.475030	0.057921	-0.428513
C111	C	0.972086	-0.445048	-1.002139
C112	C	1.472086	0.054952	-0.502139
C113	C	1.062293	-0.353988	-0.998550
C114	C	1.562293	0.146012	-0.498550
C115	C	1.065241	-0.351025	-0.924928
C116	C	1.565241	0.148975	-0.424928
C117	C	1.021607	-0.395067	-0.889913
C118	C	1.521607	0.104933	-0.389913
N119	N	0.985674	-0.431352	-0.783391
N120	N	1.485674	0.068648	-0.283391
N121	N	1.024621	-0.392028	-0.814661
N122	N	1.524621	0.107972	-0.314661
C123	C	1.012443	-0.404368	-0.115514
C124	C	1.512443	0.095632	0.384486
C125	C	1.015712	-0.401005	-0.037155
C126	C	1.515712	0.098995	0.462845
H127	H	1.051456	-0.844958	-0.187446
H128	H	1.551456	-0.344958	0.312554
O129	O	1.134362	-0.845088	-0.255781
O130	O	1.634362	-0.345088	0.244219
H131	H	1.148330	-0.868579	-0.307661
H132	H	1.648330	-0.368579	0.192339
O133	O	1.133791	-0.986322	-0.255472
O134	O	1.633791	-0.486322	0.244528
H135	H	1.173281	-0.963834	-0.215082
H136	H	1.673281	-0.463834	0.284918
H137	H	0.404473	-0.345657	-0.364430
H138	H	0.904473	0.154343	0.135570
O139	O	1.048123	-0.977986	-0.169364
O140	O	1.548123	-0.477986	0.330636
H141	H	1.088648	-0.955192	-0.130241
H142	H	1.588648	-0.455192	0.369759
O143	O	0.742772	-0.306828	-0.402936
O144	O	1.242772	0.193172	0.097064
H145	H	0.729140	-0.247630	-0.391516
H146	H	1.229140	0.252370	0.108484
H147	H	0.939511	-0.477953	-0.900013
H148	H	1.439511	0.022047	-0.400013
H149	H	0.912476	-0.505249	-0.570986
H150	H	1.412476	-0.005249	-0.070986
O151	O	0.921841	-0.495748	-1.043783
O152	O	1.421841	0.004252	-0.543783
H153	H	0.934459	-0.553792	-1.029155
H154	H	1.434459	-0.053792	-0.529155
H155	H	0.907134	-0.510639	-0.704554
H156	H	1.407134	-0.010639	-0.204554
H157	H	0.982221	-0.851864	-0.415504
H158	H	1.482221	-0.351864	0.084496
O159	O	0.268099	-0.516832	-0.194390
O160	O	0.768099	-0.016832	0.305610
H161	H	0.233300	-0.554481	-0.227228
H162	H	0.733300	-0.054481	0.272772
O163	O	1.092802	-0.847381	-0.391032
O164	O	1.592802	-0.347381	0.108968
H165	H	1.115760	-0.810311	-0.348180
H166	H	1.615760	-0.310311	0.151820
H167	H	1.103170	-0.312744	-0.893500
H168	H	1.603170	0.187256	-0.393500
H169	H	1.076564	-0.980512	-0.385796
H170	H	1.576564	-0.480512	0.114204
H171	H	0.983164	-0.978633	-0.415477
H172	H	1.483164	-0.478633	0.084523
O173	O	0.914536	-0.834048	-0.209367
O174	O	1.414536	-0.334048	0.290633
H175	H	0.912680	-0.772681	-0.209294
H176	H	1.412680	-0.272681	0.290706
O177	O	1.082324	-0.333801	-0.707298
O178	O	1.582324	0.166199	-0.207298
H179	H	1.116825	-0.369757	-0.739402
H180	H	1.616825	0.130243	-0.239402
H181	H	0.599948	-0.313043	-0.396789
H182	H	1.099948	0.186957	0.103211
O183	O	0.909883	-0.975169	-0.213104
O184	O	1.409883	-0.475169	0.286896
H185	H	0.906785	-1.036325	-0.214924
H186	H	1.406785	-0.536325	0.285076
O187	O	0.260710	-0.327832	-0.382148
O188	O	0.760710	0.172168	0.117852
H189	H	0.272636	-0.343434	-0.436881
H190	H	0.772636	0.156566	0.063119
O191	O	0.750165	-0.495833	-0.215181
O192	O	1.250165	0.004167	0.284819
H193	H	0.713438	-0.525921	-0.185315
H194	H	1.213438	-0.025921	0.314685
H195	H	0.887620	-0.843022	-0.319573
H196	H	1.387620	-0.343022	0.180427
O197	O	1.109333	-0.306464	-1.036314
O198	O	1.609333	0.193536	-0.536314
H199	H	1.099450	-0.316415	-1.093993
H200	H	1.599450	0.183585	-0.593993
H201	H	0.606401	-0.478016	-0.232903
H202	H	1.106401	0.021984	0.267097
O203	O	0.875616	-0.977305	-0.337466
O204	O	1.375616	-0.477305	0.162534
H205	H	0.888499	-0.961047	-0.390288
H206	H	1.388499	-0.461047	0.109712
O207	O	0.421119	-0.523030	-0.188205
O208	O	0.921119	-0.023030	0.311795
H209	H	0.478199	-0.517709	-0.193466
H210	H	0.978199	-0.017709	0.306534
O211	O	1.088455	-0.327630	-0.554272
O212	O	1.588455	0.172370	-0.054272
H213	H	1.118290	-0.297498	-0.590993
H214	H	1.618290	0.202502	-0.090993
