data_functionalizedCrystal
_audit_creation_method	'MofGen! by Chris Wilmer'
_symmetry_space_group_name_H-M	'P1'
_symmetry_Int_Tables_number	1
_symmetry_cell_setting	triclinic
loop_
_symmetry_equiv_pos_as_xyz
  x,y,z
_cell_length_a	21.606444
_cell_length_b	17.917603
_cell_length_c	21.606444
_cell_angle_alpha	57.010631
_cell_angle_beta	90.000833
_cell_angle_gamma	63.035261
loop_
_atom_site_label
_atom_site_type_symbol
_atom_site_fract_x
_atom_site_fract_y
_atom_site_fract_z
Zr1	Zr	0.627109	0.818667	-0.112145
O2	O	0.534168	0.974694	-0.216858
O3	O	0.651517	0.662640	-0.075961
O4	O	0.657398	0.818674	-0.210974
O5	O	0.528292	0.818655	0.020008
O6	O	0.759248	0.818679	-0.210977
O7	O	0.528287	0.818660	-0.081846
O8	O	0.748728	0.539562	0.030535
O9	O	0.538813	1.097772	-0.221504
O10	O	0.742869	0.726820	-0.065466
O11	O	0.666863	0.726812	0.010549
O12	O	0.673788	0.910522	-0.148410
O13	O	0.597782	0.910514	-0.072395
Zr14	Zr	0.789555	0.818667	0.050294
Zr15	Zr	0.789547	0.818676	-0.112152
Zr16	Zr	0.627116	0.818659	0.050300
Zr17	Zr	0.634515	1.014961	-0.119555
Zr18	Zr	0.782148	0.622373	0.057703
O19	O	0.765147	0.974694	0.014110
O20	O	0.765136	0.974706	-0.216867
O21	O	0.534180	0.974683	0.014119
O22	O	0.882495	0.662640	0.155007
O23	O	0.882484	0.662652	-0.075970
O24	O	0.651528	0.662628	0.155016
O25	O	0.888372	0.818679	-0.081860
O26	O	0.759266	0.818660	0.149122
O27	O	0.657416	0.818655	0.149126
O28	O	0.888377	0.818674	0.019995
O29	O	0.667930	1.097778	-0.221509
O30	O	0.748734	0.539556	0.159657
O31	O	0.877851	0.539562	0.159652
O32	O	0.877845	0.539569	0.030530
O33	O	0.538819	1.097765	-0.092381
O34	O	0.667936	1.097772	-0.092386
O35	O	0.742876	0.726812	0.086559
O36	O	0.818882	0.726820	0.010543
O37	O	0.749801	0.910522	-0.072400
O38	O	0.673795	0.910514	0.003615
C39	C	0.505146	0.818657	-0.030918
C40	C	0.436186	0.818653	-0.030915
C41	C	0.699067	0.573133	-0.021658
C42	C	0.695923	0.489802	-0.018512
C43	C	0.439847	0.722763	0.012378
C44	C	0.375049	0.722766	0.012378
C45	C	0.306592	0.818660	-0.030919
C46	C	0.302934	0.914557	-0.074213
C47	C	0.367730	0.914553	-0.074209
C48	C	0.041616	0.914576	-0.074231
C49	C	-0.023182	0.914572	-0.074234
C50	C	0.048935	0.722788	0.012357
C51	C	0.113732	0.722784	0.012361
C52	C	0.110068	0.818681	-0.030930
C53	C	0.180329	0.818677	-0.030929
C54	C	0.236332	0.818665	-0.030925
C55	C	0.690177	0.337231	-0.012768
C56	C	0.726485	0.300098	-0.049081
C57	C	0.723288	0.215203	-0.045885
C58	C	0.693373	0.422134	-0.015964
C59	C	0.911518	0.818678	-0.030933
C60	C	0.980478	0.818681	-0.030936
C61	C	0.708322	0.818678	-0.234121
C62	C	0.708319	0.818681	-0.303083
C63	C	0.717597	1.064201	-0.040193
C64	C	0.720741	1.147533	-0.043339
C65	C	0.672259	0.914571	-0.378778
C66	C	0.672265	0.914568	-0.443572
C67	C	0.708328	0.818674	-0.432671
C68	C	0.744392	0.722777	-0.356969
C69	C	0.744390	0.722781	-0.292176
C70	C	0.744404	0.722759	-0.618271
C71	C	0.744401	0.722762	-0.683072
C72	C	0.672279	0.914546	-0.769668
C73	C	0.672276	0.914550	-0.704875
C74	C	0.708344	0.818653	-0.629178
C75	C	0.708338	0.818658	-0.558921
C76	C	0.708330	0.818669	-0.502927
C77	C	0.708342	0.818657	0.172269
C78	C	0.708345	0.818653	0.241232
C79	C	0.902253	0.573144	-0.021666
C80	C	0.968068	0.489816	-0.018523
C81	C	0.699077	0.573123	0.181537
C82	C	0.695936	0.489787	0.253645
C83	C	0.902263	0.573133	0.181529
C84	C	0.968082	0.489802	0.253635
C85	C	0.514401	1.064201	-0.243381
C86	C	0.448582	1.147533	-0.315486
C87	C	0.514411	1.064190	-0.040186
C88	C	0.448596	1.147518	-0.043328
C89	C	0.717587	1.064211	-0.243388
C90	C	0.720728	1.147547	-0.315496
C91	C	0.959298	0.450684	-0.056730
C92	C	1.021132	0.372399	-0.053793
C93	C	1.091737	0.333242	-0.012643
C94	C	1.100506	0.372381	0.025565
C95	C	1.038672	0.450670	0.022623
C96	C	0.734139	0.450652	0.327191
C97	C	0.731185	0.372361	0.394950
C98	C	0.690032	0.333200	0.389161
C99	C	0.651824	0.372343	0.315608
C100	C	0.654774	0.450639	0.247850
C101	C	1.038672	0.450672	0.247817
C102	C	1.100522	0.372384	0.315561
C103	C	1.091780	0.333221	0.389122
C104	C	1.021183	0.372358	0.394938
C105	C	0.959334	0.450650	0.327195
C106	C	0.377993	1.186672	-0.309668
C107	C	0.316143	1.264984	-0.377413
C108	C	0.324885	1.304151	-0.450975
C109	C	0.395483	1.265009	-0.456791
C110	C	0.457330	1.186703	-0.389047
C111	C	0.457366	1.186659	-0.005128
C112	C	0.395533	1.264965	-0.008084
C113	C	0.324929	1.304125	-0.049236
C114	C	0.316159	1.264982	-0.087441
C115	C	0.377992	1.186682	-0.084489
C116	C	0.761888	1.186682	-0.309683
C117	C	0.764854	1.264974	-0.377429
C118	C	0.726655	1.304135	-0.450989
C119	C	0.685494	1.264992	-0.456801
C120	C	0.682533	1.186696	-0.389055
H121	H	0.495584	0.644675	0.047639
H122	H	1.014076	0.340460	0.454841
H123	H	1.045803	0.482547	0.187926
H124	H	1.142147	0.269470	0.444277
H125	H	0.402687	1.296822	0.023030
H126	H	0.378036	0.644683	0.047633
H127	H	0.169470	0.644698	0.047616
H128	H	0.051913	0.644705	0.047608
Cl129	Cl	0.227394	1.314218	-0.139168
Cl130	Cl	-0.109245	1.035134	-0.128668
Cl131	Cl	0.809917	1.137467	-0.217216
H132	H	1.045824	0.482521	0.053741
Cl133	Cl	0.606747	0.499822	0.155396
Cl134	Cl	0.870545	0.499898	-0.108471
Cl135	Cl	0.870594	0.499826	0.334523
H136	H	0.759968	0.332067	-0.082570
Cl137	Cl	0.366983	1.137449	-0.217199
H138	H	0.038623	0.992661	-0.109495
Cl139	Cl	0.816598	1.314173	-0.370105
Cl140	Cl	0.626938	1.035104	-0.864834
H141	H	0.767650	0.482528	0.331919
Cl142	Cl	0.600094	0.323099	0.308344
Cl143	Cl	0.638486	0.287874	0.038935
H144	H	0.729072	1.367889	-0.506146
Cl145	Cl	0.789742	0.602200	-0.669362
H146	H	0.642887	0.992659	-0.387663
Cl147	Cl	0.779225	0.323165	0.487407
H148	H	0.642903	0.992651	-0.505204
H149	H	0.654394	1.296888	-0.516702
Cl150	Cl	0.216873	1.035111	-0.128640
Cl151	Cl	0.626928	1.035107	-0.718585
Cl152	Cl	0.227401	1.314171	-0.370083
H153	H	0.687636	0.269447	0.444340
H154	H	0.274519	1.367912	-0.506130
Cl155	Cl	0.406460	1.314254	-0.549274
Cl156	Cl	0.363127	1.035106	-0.128634
H157	H	0.773773	0.644674	-0.556644
H158	H	0.773759	0.644698	-0.348097
Cl159	Cl	0.789733	0.602228	-0.197014
H160	H	1.158000	0.340526	0.310811
Cl161	Cl	1.010091	0.323207	-0.101826
Cl162	Cl	1.169464	0.234818	-0.008950
H163	H	1.158000	0.340488	0.059068
Cl164	Cl	0.546069	1.137502	-0.396374
H165	H	0.514850	1.154781	0.028387
H166	H	0.274586	1.367882	-0.051634
Cl167	Cl	0.366953	1.137480	-0.132512
H168	H	0.649013	1.154840	-0.393799
