data_functionalizedCrystal
_audit_creation_method	'MofGen! by Chris Wilmer'
_symmetry_space_group_name_H-M	'P1'
_symmetry_Int_Tables_number	1
_symmetry_cell_setting	triclinic
loop_
_symmetry_equiv_pos_as_xyz
  x,y,z
_cell_length_a	10.654563
_cell_length_b	10.654551
_cell_length_c	16.176319
_cell_angle_alpha	89.994994
_cell_angle_beta	89.994923
_cell_angle_gamma	84.487968
loop_
_atom_site_label
_atom_site_type_symbol
_atom_site_fract_x
_atom_site_fract_y
_atom_site_fract_z
O1	O	1.667837	0.176484	-0.068699
O2	O	1.302361	0.193272	-0.068710
O3	O	1.493501	0.002139	-0.068703
O4	O	1.476697	0.367617	-0.068707
O5	O	1.493474	0.002127	0.068791
O6	O	1.302334	0.193259	0.068783
O7	O	1.667810	0.176471	0.068794
Cu8	Cu	1.485070	0.184864	0.081343
Cu9	Cu	1.485101	0.184879	-0.081259
O10	O	1.476670	0.367604	0.068787
C11	C	1.255550	0.192029	0.000035
C12	C	1.116107	0.188331	0.000031
C13	C	1.050601	0.186603	-0.074914
C14	C	0.919578	0.183148	-0.074906
C15	C	0.919579	0.183144	0.074996
C16	C	1.050599	0.186608	0.074988
C17	C	0.731546	0.251870	-0.164942
C18	C	0.666038	0.250121	-0.239890
C19	C	0.717536	0.177785	-0.306064
C20	C	0.834544	0.107167	-0.297293
C21	C	0.900047	0.108905	-0.222343
C22	C	0.848547	0.181271	-0.156172
C23	C	1.238634	0.117875	0.165018
C24	C	1.304140	0.119604	0.239969
C25	C	1.252645	0.191933	0.306150
C26	C	1.135635	0.262532	0.297387
C27	C	1.070129	0.260803	0.222436
C28	C	1.121633	0.188477	0.156255
C29	C	1.492254	-0.044665	0.000043
C30	C	1.488561	-0.184109	0.000039
C31	C	1.486843	-0.249606	-0.074910
C32	C	1.483363	-0.380626	-0.074910
C33	C	1.483325	-0.380642	0.074992
C34	C	1.486796	-0.249622	0.074992
C35	C	1.405189	-0.550694	-0.164958
C36	C	1.403492	-0.616198	-0.239910
C37	C	1.478098	-0.582648	-0.306081
C38	C	1.554431	-0.483600	-0.297302
C39	C	1.556139	-0.418104	-0.222348
C40	C	1.481504	-0.451648	-0.156181
C41	C	1.564980	-0.079554	0.165034
C42	C	1.566697	-0.014056	0.239989
C43	C	1.492099	-0.047605	0.306166
C44	C	1.415785	-0.146660	0.297395
C45	C	1.414068	-0.212157	0.222441
C46	C	1.488664	-0.178599	0.156263
C47	C	1.714621	0.177714	0.000047
C48	C	1.854064	0.181412	0.000046
C49	C	1.477918	0.414408	0.000039
C50	C	1.481610	0.553852	0.000038
N51	N	1.485057	0.184853	0.195708
N52	N	1.485124	0.184880	-0.195624
C53	C	1.569720	0.100255	0.238976
C54	C	1.569726	0.100253	0.325523
C55	C	1.485075	0.184857	0.368801
C56	C	1.400403	0.269460	0.325527
C57	C	1.400391	0.269454	0.238982
C58	C	1.400446	0.269484	0.674555
C59	C	1.400466	0.269486	0.761107
C60	C	1.569781	0.100283	0.761096
C61	C	1.569769	0.100277	0.674551
C62	C	1.485093	0.184875	0.631285
C63	C	1.485086	0.184873	0.537441
C64	C	1.485087	0.184866	0.462643
H65	H	0.876461	0.048257	-0.351179
Cl66	Cl	1.481107	-0.463011	0.169214
H67	H	1.493514	0.005727	0.367200
H68	H	0.570766	0.307621	-0.247025
H69	H	1.103934	0.188013	-0.135949
Cl70	Cl	1.676195	-0.006082	0.620148
H71	H	1.625717	-0.052218	0.111146
Cl72	Cl	1.676228	-0.006075	0.815493
H73	H	1.344421	-0.578010	-0.111085
H74	H	1.351921	-0.292811	0.215302
H75	H	0.866226	0.181738	0.136024
Cl76	Cl	0.923021	0.349546	0.211423
Cl77	Cl	1.293948	0.375807	0.184589
Cl78	Cl	1.294037	0.375852	0.815513
Cl79	Cl	1.475978	-0.665013	-0.400300
H80	H	1.093699	0.321417	0.351280
H81	H	1.488276	-0.196268	-0.135941
Cl82	Cl	0.666806	0.342836	-0.081757
Cl83	Cl	1.676152	-0.006106	0.184578
Cl84	Cl	1.303382	0.026943	0.081816
Cl85	Cl	1.676160	-0.006102	0.379918
Cl86	Cl	1.322008	-0.188848	0.380593
H87	H	1.618289	-0.337462	-0.215200
H88	H	1.305989	0.193325	0.367180
Cl89	Cl	1.047126	0.020127	-0.211310
Cl90	Cl	1.294004	0.375837	0.620169
Cl91	Cl	1.293975	0.375816	0.379932
H92	H	0.664195	0.176369	-0.367091
H93	H	1.615190	-0.456302	-0.351184
Cl94	Cl	1.307530	-0.740708	-0.250946
Cl95	Cl	1.662651	0.110460	0.251018
Cl96	Cl	1.451200	0.030779	0.251004
