data_functionalizedCrystal
_audit_creation_method	'MofGen! by Chris Wilmer'
_symmetry_space_group_name_H-M	'P1'
_symmetry_Int_Tables_number	1
_symmetry_cell_setting	triclinic
loop_
_symmetry_equiv_pos_as_xyz
  x,y,z
_cell_length_a	16.974885
_cell_length_b	19.188924
_cell_length_c	16.053919
_cell_angle_alpha	92.885510
_cell_angle_beta	89.241669
_cell_angle_gamma	83.267823
loop_
_atom_site_label
_atom_site_type_symbol
_atom_site_fract_x
_atom_site_fract_y
_atom_site_fract_z
O1	O	1.048766	0.088912	-0.001364
O2	O	0.819185	0.100835	0.014136
O3	O	0.940603	-0.006789	0.005929
O4	O	0.927348	0.196535	0.006843
O5	O	0.934680	-0.011996	-0.132529
O6	O	0.813261	0.095627	-0.124321
O7	O	1.042843	0.083704	-0.139821
Zn8	Zn	0.927112	0.088839	-0.154055
Zn9	Zn	0.934916	0.095700	0.028369
O10	O	0.921424	0.191327	-0.131614
C11	C	0.786851	0.097875	-0.053110
C12	C	0.699332	0.096806	-0.047201
C13	C	0.207047	0.091073	-0.005785
C14	C	0.289280	0.092077	-0.011348
C15	C	0.327159	0.089746	-0.089603
C16	C	0.282801	0.086403	-0.162300
C17	C	0.200571	0.085394	-0.156737
C18	C	0.572745	0.092454	-0.114335
C19	C	0.654981	0.093466	-0.119893
C20	C	0.661454	0.099139	0.031060
C21	C	0.579221	0.098134	0.036617
C22	C	0.534871	0.094787	-0.036081
N23	N	0.411213	0.090774	-0.095291
N24	N	0.450819	0.093754	-0.030392
C25	C	0.937213	-0.035403	-0.063272
C26	C	0.935927	-0.112907	-0.063187
C27	C	0.938556	-0.146467	0.012327
C28	C	0.937336	-0.219288	0.012415
C29	C	0.933504	-0.258549	-0.063015
C30	C	0.930871	-0.224981	-0.138539
C31	C	0.932082	-0.152159	-0.138625
N32	N	0.974065	-0.380360	-0.122087
N33	N	0.972916	-0.449537	-0.122001
C34	C	0.929853	-0.477955	-0.062761
N35	N	0.887992	-0.434583	-0.003599
N36	N	0.889144	-0.365400	-0.003683
C37	C	0.932190	-0.337512	-0.062930
C38	C	0.931158	-0.590476	0.012854
C39	C	0.929934	-0.663298	0.012940
C40	C	0.923477	-0.668990	-0.138016
C41	C	0.924693	-0.596168	-0.138100
C42	C	0.928538	-0.556916	-0.062662
C43	C	1.075176	0.086664	-0.072574
C44	C	1.162695	0.087733	-0.078477
C45	C	0.924815	0.219942	-0.062412
C46	C	0.926101	0.297446	-0.062491
N47	N	0.921791	0.084156	-0.278554
C48	C	0.894437	0.059826	-0.800333
C49	C	0.898153	0.063129	-0.713178
C50	C	0.947671	0.106988	-0.672823
C51	C	0.993483	0.147541	-0.719629
C52	C	0.989770	0.144234	-0.806783
C53	C	0.963890	0.121401	-0.412513
C54	C	0.967597	0.124707	-0.325353
C55	C	0.872268	0.040294	-0.318908
C56	C	0.868556	0.036994	-0.406063
C57	C	0.914371	0.077544	-0.452861
N58	N	0.951469	0.110367	-0.583737
N59	N	0.910576	0.074161	-0.541946
N60	N	0.940242	0.100377	0.152868
H61	H	0.325388	0.094793	0.047846
Cl62	Cl	0.940641	-0.261487	0.107354
H63	H	0.176212	0.092977	0.057939
Cl64	Cl	0.832177	0.004689	-0.851055
H65	H	0.697572	0.101862	0.090246
H66	H	0.548386	0.100031	0.100340
Cl67	Cl	0.806298	-0.018142	-0.456788
Cl68	Cl	0.926047	-0.274335	-0.233365
Cl69	Cl	1.021479	0.172385	-0.471334
Cl70	Cl	0.921388	-0.553976	-0.233037
Cl71	Cl	1.055739	0.202675	-0.668898
Cl72	Cl	0.702599	0.090533	-0.218279
H73	H	0.929938	-0.124836	-0.200119
Cl74	Cl	0.918654	-0.718339	-0.232844
H75	H	0.934284	-0.558514	0.074281
H76	H	0.860855	0.030105	-0.675078
Cl77	Cl	0.144815	0.081188	-0.248125
Cl78	Cl	0.933233	-0.705487	0.107882
H79	H	0.834970	0.007279	-0.280796
H80	H	0.536646	0.089719	-0.173531
H81	H	0.313649	0.084500	-0.226017
Cl82	Cl	1.029876	0.179829	-0.274625
H83	H	1.027070	0.177255	-0.844886
H84	H	0.941684	-0.114511	0.073754
