data_functionalizedCrystal
_audit_creation_method	'MofGen! by Chris Wilmer'
_symmetry_space_group_name_H-M	'P1'
_symmetry_Int_Tables_number	1
_symmetry_cell_setting	triclinic
loop_
_symmetry_equiv_pos_as_xyz
  x,y,z
_cell_length_a	10.686285
_cell_length_b	10.685980
_cell_length_c	11.169409
_cell_angle_alpha	94.396777
_cell_angle_beta	94.400340
_cell_angle_gamma	89.665709
loop_
_atom_site_label
_atom_site_type_symbol
_atom_site_fract_x
_atom_site_fract_y
_atom_site_fract_z
Zn1	Zn	-0.352328	1.956353	0.795803
Zn2	Zn	0.147672	2.456353	1.295803
Zn3	Zn	-0.562155	1.972346	0.581003
Zn4	Zn	-0.062155	2.472346	1.081003
Zn5	Zn	-0.368479	1.746560	0.578634
Zn6	Zn	0.131521	2.246560	1.078634
Zn7	Zn	-0.578118	1.762662	0.765167
Zn8	Zn	-0.078118	2.262662	1.265167
O9	O	-0.465270	1.859480	0.680152
O10	O	0.034730	2.359480	1.180152
O11	O	-0.366723	2.134028	0.781122
O12	O	0.133277	2.634028	1.281122
O13	O	-0.536543	1.942349	0.412730
O14	O	-0.036543	2.442349	0.912730
O15	O	-0.190789	1.760958	0.619271
O16	O	0.309211	2.260958	1.119271
O17	O	-0.520882	2.145777	0.623310
O18	O	-0.020882	2.645777	1.123310
O19	O	-0.178923	1.915092	0.778825
O20	O	0.321077	2.415092	1.278825
O21	O	-0.394249	1.776465	0.410989
O22	O	0.105751	2.276465	0.910989
O23	O	-0.409728	1.573143	0.589565
O24	O	0.090272	2.073143	1.089565
O25	O	-0.548088	1.788401	0.937189
O26	O	-0.048088	2.288401	1.437189
O27	O	-0.563749	1.584973	0.726610
O28	O	-0.063749	2.084973	1.226610
O29	O	-0.382201	1.930706	0.959698
O30	O	0.117799	2.430706	1.459698
O31	O	-0.739821	1.957962	0.593603
O32	O	-0.239821	2.457962	1.093603
O33	O	-0.751549	1.803908	0.728907
O34	O	-0.251549	2.303908	1.228907
C35	C	-0.490224	1.533539	0.654506
C36	C	0.009776	2.033539	1.154506
C37	C	-0.500930	1.394102	0.643561
C38	C	-0.000930	1.894102	1.143561
C39	C	-0.791200	1.884452	0.658217
C40	C	-0.291200	2.384452	1.158217
C41	C	-0.930625	1.895250	0.648882
C42	C	-0.430625	2.395250	1.148882
C43	C	-0.138065	1.834445	0.702201
C44	C	0.361935	2.334445	1.202201
C45	C	0.001370	1.823776	0.711597
C46	C	0.501370	2.323776	1.211597
C47	C	-0.465124	1.859566	0.993211
C48	C	0.034876	2.359566	1.493211
C49	C	-0.465061	1.859602	1.126618
C50	C	0.034939	2.359602	1.626618
C51	C	-0.440220	2.186694	0.705898
C52	C	0.059780	2.686694	1.205898
C53	C	-0.429545	2.326133	0.716869
C54	C	0.070455	2.826133	1.216869
C55	C	-0.465320	1.859460	0.368322
C56	C	0.034680	2.359460	0.868322
C57	C	-0.465011	1.859639	0.234958
C58	C	0.034989	2.359639	0.734958
H59	H	-0.950189	1.754325	0.772433
H60	H	-0.450189	2.254325	1.272433
H61	H	-0.570239	1.345614	0.572416
H62	H	-0.070239	1.845614	1.072416
H63	H	-0.979074	1.964697	0.588034
H64	H	-0.479074	2.464697	1.088034
O65	O	-0.346757	1.383758	0.801774
O66	O	0.153243	1.883758	1.301774
C67	C	-0.282562	1.292575	0.867757
C68	C	0.217438	1.792575	1.367757
H69	H	-0.285252	1.198773	0.811649
H70	H	0.214748	1.698773	1.311649
H71	H	-0.180859	1.322953	0.890315
H72	H	0.319141	1.822953	1.390315
H73	H	-0.329663	1.282264	0.954662
H74	H	0.170337	1.782264	1.454662
