data_functionalizedCrystal
_audit_creation_method	'MofGen! by Chris Wilmer'
_symmetry_space_group_name_H-M	'P1'
_symmetry_Int_Tables_number	1
_symmetry_cell_setting	triclinic
loop_
_symmetry_equiv_pos_as_xyz
  x,y,z
_cell_length_a	16.120490
_cell_length_b	18.050589
_cell_length_c	16.120379
_cell_angle_alpha	92.961160
_cell_angle_beta	90.180922
_cell_angle_gamma	87.120764
loop_
_atom_site_label
_atom_site_type_symbol
_atom_site_fract_x
_atom_site_fract_y
_atom_site_fract_z
Zn1	Zn	1.247575	-0.327702	0.534595
Zn2	Zn	1.254472	-0.458571	0.395534
Zn3	Zn	1.115521	-0.328429	0.388505
Zn4	Zn	1.108468	-0.445880	0.527517
O5	O	1.181509	-0.390145	0.461538
O6	O	1.364858	-0.350069	0.522052
O7	O	1.241878	-0.446922	0.278228
O8	O	1.133104	-0.224410	0.407905
O9	O	1.369925	-0.446218	0.419885
O10	O	1.230123	-0.223876	0.515236
O11	O	1.139791	-0.351308	0.273063
O12	O	0.998217	-0.339002	0.401041
O13	O	1.121083	-0.424588	0.644830
O14	O	0.993036	-0.425293	0.503172
O15	O	1.223284	-0.337763	0.650030
O16	O	1.235039	-0.560810	0.413021
O17	O	1.127770	-0.551486	0.509988
C18	C	0.965453	-0.380849	0.450576
C19	C	0.873023	-0.376890	0.445907
C20	C	1.181409	-0.583094	0.461519
C21	C	1.181441	-0.665640	0.461542
C22	C	0.660070	-0.410680	0.485761
C23	C	0.703796	-0.369667	0.437380
C24	C	0.797963	-0.373687	0.442126
C25	C	0.565895	-0.406661	0.481017
C26	C	1.123164	-0.860050	0.514256
C27	C	1.106718	-0.912264	0.437345
C28	C	1.181523	-0.816773	0.461557
C29	C	1.198010	-0.911642	0.538479
C30	C	1.181599	-0.962761	0.461578
C31	C	1.165038	-0.867900	0.384604
C32	C	1.256363	-0.867273	0.485791
C33	C	1.239947	-0.919468	0.408829
C34	C	1.181476	-0.732673	0.461546
C35	C	1.181646	-1.046859	0.461581
C36	C	1.398408	-0.399478	0.472542
C37	C	1.490838	-0.403455	0.477232
C38	C	1.192396	-0.400520	0.245474
C39	C	1.197194	-0.404778	0.153048
C40	C	1.181631	-0.196443	0.461576
C41	C	1.181683	-0.113899	0.461592
C42	C	1.205966	-0.412552	-0.016174
C43	C	1.157221	-0.367446	-0.059900
C44	C	1.162102	-0.371772	-0.154062
C45	C	1.201087	-0.408227	0.077995
C46	C	1.170628	-0.379679	0.678448
C47	C	1.165990	-0.375218	0.770882
H48	H	0.670511	-0.331535	0.392395
H49	H	1.043464	-0.932119	0.416867
O50	O	1.064153	-0.829238	0.567346
C51	C	0.955572	-0.850959	0.664236
C52	C	1.022358	-0.885952	0.604130
H53	H	0.921775	-0.896795	0.694005
H54	H	0.909167	-0.814955	0.628565
H55	H	0.986377	-0.815213	0.714681
H56	H	0.991626	-0.921733	0.553672
H57	H	1.068757	-0.921913	0.639859
O58	O	1.260232	-0.462427	-0.055827
C59	C	1.403291	-0.504910	-0.075241
C60	C	1.341935	-0.448368	-0.030281
H61	H	1.469359	-0.493572	-0.054591
H62	H	1.397696	-0.499545	-0.145215
H63	H	1.388228	-0.563511	-0.059157
H64	H	1.356958	-0.389742	-0.046296
H65	H	1.347541	-0.453797	0.039682
H66	H	0.693353	-0.448809	0.530742
O67	O	1.148321	-0.844852	0.307039
C68	C	1.129577	-0.740711	0.219998
C69	C	1.148502	-0.766712	0.307880
H70	H	1.129734	-0.677534	0.220644
H71	H	1.065998	-0.759582	0.199231
H72	H	1.179051	-0.765781	0.175039
H73	H	1.099080	-0.741654	0.352899
H74	H	1.212105	-0.747852	0.328577
H75	H	1.111824	-0.325580	-0.026618
O76	O	1.298777	-0.950210	0.355495
C77	C	1.347908	-0.962700	0.214201
C78	C	1.281223	-0.927850	0.274508
H79	H	1.333749	-0.944623	0.148713
H80	H	1.347879	-1.025820	0.214929
H81	H	1.411505	-0.943416	0.234332
H82	H	1.217593	-0.947076	0.254420
H83	H	1.281325	-0.864735	0.273772
H84	H	1.319600	-0.847418	0.506305
H85	H	1.211924	-0.930947	0.603522
