data_functionalizedCrystal
_audit_creation_method	'MofGen! by Chris Wilmer'
_symmetry_space_group_name_H-M	'P1'
_symmetry_Int_Tables_number	1
_symmetry_cell_setting	triclinic
loop_
_symmetry_equiv_pos_as_xyz
  x,y,z
_cell_length_a	19.288864
_cell_length_b	19.288859
_cell_length_c	18.366186
_cell_angle_alpha	89.994011
_cell_angle_beta	89.977106
_cell_angle_gamma	83.134986
loop_
_atom_site_label
_atom_site_type_symbol
_atom_site_fract_x
_atom_site_fract_y
_atom_site_fract_z
O1	O	0.921351	0.086649	-0.060783
O2	O	0.719090	0.098338	-0.060733
O3	O	0.826067	-0.008637	-0.060755
O4	O	0.814374	0.193624	-0.060761
O5	O	0.826049	-0.008643	0.060344
O6	O	0.719072	0.098332	0.060367
O7	O	0.921333	0.086644	0.060317
Zn8	Zn	0.820199	0.092487	0.079569
Zn9	Zn	0.820223	0.092494	-0.079985
O10	O	0.814356	0.193619	0.060339
C11	C	0.693204	0.097959	-0.000177
C12	C	0.616101	0.096830	-0.000158
C13	C	0.825682	-0.034516	-0.000206
C14	C	0.824555	-0.111620	-0.000207
C15	C	0.571403	0.159598	-0.000171
C16	C	0.498956	0.158537	-0.000179
C17	C	0.471210	0.094705	-0.000188
C18	C	0.515918	0.031929	-0.000171
C19	C	0.588363	0.032991	-0.000156
C20	C	0.362955	0.044528	-0.042638
C21	C	0.290511	0.043468	-0.042658
C22	C	0.247765	0.091425	-0.000232
C23	C	0.277470	0.140455	0.042203
C24	C	0.349915	0.141517	0.042219
C25	C	0.392656	0.093546	-0.000204
C26	C	0.124511	0.153048	-0.000253
C27	C	0.052063	0.151984	-0.000257
C28	C	0.069026	0.025374	-0.000256
C29	C	0.141472	0.026439	-0.000245
C30	C	0.169210	0.090278	-0.000247
C31	C	0.947218	0.087022	-0.000241
C32	C	1.024322	0.088151	-0.000265
C33	C	0.879698	-0.675661	-0.000239
C34	C	0.880764	-0.603214	-0.000233
C35	C	0.817994	-0.558508	-0.000218
C36	C	0.754155	-0.586253	-0.000190
C37	C	0.753092	-0.658698	-0.000189
C38	C	0.771188	-0.437232	-0.042632
C39	C	0.772254	-0.364788	-0.042637
C40	C	0.821272	-0.335062	-0.000218
C41	C	0.869236	-0.377789	0.042197
C42	C	0.868172	-0.450235	0.042198
C43	C	0.819141	-0.479952	-0.000219
C44	C	0.886262	-0.228770	-0.000234
C45	C	0.887325	-0.156322	-0.000223
C46	C	0.760715	-0.139362	-0.000188
C47	C	0.759654	-0.211809	-0.000191
C48	C	0.822430	-0.256509	-0.000218
C49	C	0.814740	0.219498	-0.000212
C50	C	0.815868	0.296602	-0.000216
N51	N	0.820188	0.092482	0.188460
N52	N	0.820240	0.092494	-0.188876
C53	C	0.867573	0.045137	0.226550
C54	C	0.867577	0.045134	0.302778
C55	C	0.820204	0.092488	0.340913
C56	C	0.772810	0.139837	0.302813
C57	C	0.772802	0.139834	0.226586
C58	C	0.810904	0.155776	0.461673
C59	C	0.810917	0.155780	0.537897
C60	C	0.820223	0.092497	0.576020
C61	C	0.829532	0.029207	0.537908
C62	C	0.829525	0.029204	0.461682
C63	C	0.820206	0.092496	0.423567
C64	C	0.867616	0.045144	0.696766
C65	C	0.867615	0.045140	0.772995
C66	C	0.772851	0.139849	0.773028
C67	C	0.772848	0.139847	0.696800
C68	C	0.820234	0.092495	0.658674
H69	H	0.462556	0.209652	-0.000188
C70	C	0.409318	-0.007464	-0.088836
C71	C	0.390523	0.001446	-0.162168
C72	C	0.433223	-0.046426	-0.204746
H73	H	0.403632	-0.053630	-0.074022
H74	H	0.456724	0.000194	-0.082798
H75	H	0.343129	-0.006218	-0.168202
H76	H	0.396212	0.047601	-0.177004
H77	H	0.480628	-0.038768	-0.198708
H78	H	0.427534	-0.092589	-0.189926
H79	H	0.420481	-0.040383	-0.254507
C80	C	0.485932	-0.037447	-0.000148
C81	C	0.540587	-0.092192	-0.000116
C82	C	0.512992	-0.156113	-0.000081
H83	H	0.458060	-0.040590	-0.042374
H84	H	0.458017	-0.040533	0.042092
H85	H	0.568489	-0.089108	-0.042351
H86	H	0.568463	-0.089072	0.042107
H87	H	0.485078	-0.159199	0.042158
H88	H	0.485120	-0.159249	-0.042308
H89	H	0.550071	-0.193265	-0.000053
H90	H	0.374098	0.181436	0.076774
C91	C	0.190041	-0.041689	-0.000093
C92	C	0.232082	-0.044790	0.062227
C93	C	0.276825	-0.107546	0.062399
H94	H	0.218743	-0.043968	-0.042268
H95	H	0.163168	-0.079879	-0.000061
H96	H	0.258952	-0.006611	0.062189
H97	H	0.203399	-0.042523	0.104412
H98	H	0.249953	-0.145736	0.062430
H99	H	0.305522	-0.109820	0.020220
H100	H	0.305351	-0.109661	0.104685
H101	H	0.803313	0.207312	0.430639
H102	H	0.709607	-0.102962	-0.000169
H103	H	0.733202	-0.330005	-0.077178
H104	H	0.703048	-0.549848	-0.000176
H105	H	0.906200	0.006582	0.804009
H106	H	0.906165	0.006578	0.333797
H107	H	0.734215	0.178389	0.195572
H108	H	0.701111	-0.681280	-0.000169
C109	C	0.919045	-0.006356	0.185289
C110	C	0.960531	-0.047833	0.234969
C111	C	1.007947	-0.095283	0.196983
H112	H	0.947940	0.018473	0.155528
H113	H	0.894167	-0.035249	0.155588
H114	H	0.985408	-0.018944	0.264656
H115	H	0.931655	-0.072677	0.264730
H116	H	0.983069	-0.124176	0.167283
H117	H	1.036837	-0.070448	0.167225
H118	H	1.036096	-0.123435	0.230685
C119	C	0.721379	0.191152	0.814514
C120	C	0.678996	0.154259	0.858315
C121	C	0.631575	0.201495	0.896553
H122	H	0.693091	0.219371	0.780991
H123	H	0.746254	0.219995	0.844275
H124	H	0.654123	0.125428	0.828556
H125	H	0.707265	0.126042	0.891852
H126	H	0.656450	0.230338	0.926314
H127	H	0.603292	0.229712	0.863024
H128	H	0.602817	0.176470	0.926281
H129	H	0.734265	0.178403	0.665785
H130	H	0.242667	0.179506	0.076751
H131	H	0.624757	-0.018124	-0.000145
C132	C	0.839694	-0.039579	0.579156
C133	C	0.847867	-0.095001	0.529466
C134	C	0.857247	-0.158373	0.567439
H135	H	0.800053	-0.043440	0.608919
H136	H	0.880167	-0.041116	0.608852
H137	H	0.807398	-0.093465	0.499782
H138	H	0.887509	-0.091163	0.499701
H139	H	0.897720	-0.159909	0.597136
H140	H	0.817604	-0.162226	0.597201
H141	H	0.862800	-0.195984	0.533730
C142	C	0.950018	-0.572991	-0.000379
C143	C	0.954313	-0.531877	-0.062677
C144	C	1.018094	-0.504018	-0.062832
H145	H	0.987313	-0.609915	-0.000431
H146	H	0.953069	-0.545044	0.041827
H147	H	0.951268	-0.559823	-0.104871
H148	H	0.917032	-0.494942	-0.062637
H149	H	1.021145	-0.476072	-0.020627
H150	H	1.055384	-0.540947	-0.062883
H151	H	1.021014	-0.476115	-0.105097
H152	H	0.015670	0.203100	-0.000263
C153	C	0.800766	0.224563	0.579140
C154	C	0.792586	0.279982	0.529442
C155	C	0.783224	0.343356	0.567406
H156	H	0.840417	0.228420	0.608856
H157	H	0.760302	0.226106	0.608884
H158	H	0.833046	0.278440	0.499711
H159	H	0.752934	0.276148	0.499725
H160	H	0.742760	0.344900	0.597150
H161	H	0.822877	0.347207	0.597120
H162	H	0.777666	0.380966	0.533692
C163	C	0.947928	-0.724076	-0.000221
C164	C	1.004057	-0.684273	-0.000220
C165	C	1.066920	-0.728850	-0.000190
H166	H	0.950251	-0.752705	-0.042438
H167	H	0.950178	-0.752681	0.042028
H168	H	1.001808	-0.655680	-0.042464
H169	H	1.001758	-0.655645	0.041994
H170	H	1.069170	-0.757455	0.042059
H171	H	1.069236	-0.757477	-0.042408
H172	H	1.105011	-0.701850	-0.000182
H173	H	0.731262	-0.461428	-0.077169
C174	C	0.839489	-0.039462	0.420220
C175	C	0.780922	-0.044793	0.376490
C176	C	0.790070	-0.108037	0.338281
H177	H	0.845000	-0.077207	0.453760
H178	H	0.879910	-0.040997	0.390412
H179	H	0.740513	-0.043265	0.406295
H180	H	0.775401	-0.007063	0.342936
H181	H	0.830490	-0.109572	0.308473
H182	H	0.795582	-0.145777	0.371827
H183	H	0.750337	-0.111660	0.308601
C184	C	0.920350	-0.496547	0.088200
C185	C	0.988272	-0.487977	0.066067
C186	C	1.036356	-0.530620	0.108436
H187	H	0.912795	-0.543973	0.082163
H188	H	0.914456	-0.483851	0.137995
H189	H	0.994164	-0.500678	0.016284
H190	H	0.995850	-0.440560	0.072106
H191	H	1.030461	-0.517923	0.158231
H192	H	1.028794	-0.578044	0.102396
H193	H	1.082446	-0.524806	0.093429
H194	H	0.909146	-0.353588	0.076744
H195	H	0.937378	-0.265167	-0.000255
C196	C	0.918975	-0.006358	0.655375
C197	C	0.907944	-0.074601	0.673881
C198	C	0.955237	-0.122052	0.635749
H199	H	0.965338	0.000980	0.667803
H200	H	0.912167	0.000403	0.604520
H201	H	0.914758	-0.081358	0.724725
H202	H	0.861591	-0.081960	0.661451
H203	H	0.948428	-0.115291	0.584894
H204	H	1.001596	-0.114708	0.648180
H205	H	0.947754	-0.168360	0.648295
C206	C	0.721342	0.191140	0.344307
C207	C	0.678963	0.154247	0.388113
C208	C	0.631545	0.201483	0.426354
H209	H	0.693050	0.219359	0.310786
H210	H	0.746219	0.219983	0.374065
H211	H	0.654088	0.125416	0.358357
H212	H	0.707235	0.126031	0.421648
H213	H	0.656422	0.230326	0.456113
H214	H	0.603259	0.229699	0.392828
H215	H	0.602790	0.176458	0.456086
H216	H	0.593982	0.211581	-0.000174
H217	H	0.147096	0.205029	-0.000244
H218	H	0.046436	-0.026600	-0.000309
C219	C	0.956703	-0.126340	-0.000283
C220	C	1.011447	-0.180995	-0.000325
C221	C	1.075369	-0.153402	-0.000390
H222	H	0.959848	-0.098448	0.041936
H223	H	0.959789	-0.098445	-0.042529
H224	H	1.008363	-0.208878	0.041917
H225	H	1.008326	-0.208891	-0.042541
H226	H	1.078454	-0.125507	-0.042637
H227	H	1.078506	-0.125511	0.041830
H228	H	1.112520	-0.190481	-0.000426
H229	H	0.266331	0.003548	-0.077214
C230	C	0.690371	-0.241969	-0.000027
C231	C	0.686045	-0.283056	0.062285
C232	C	0.622226	-0.310843	0.062466
H233	H	0.687263	-0.269921	-0.042208
H234	H	0.653118	-0.204989	0.000021
H235	H	0.723288	-0.320031	0.062230
H236	H	0.689140	-0.255120	0.104475
H237	H	0.584972	-0.273863	0.062514
H238	H	0.619124	-0.338792	0.020283
H239	H	0.619279	-0.338718	0.104747
