data_functionalizedCrystal
_audit_creation_method	'MofGen! by Chris Wilmer'
_symmetry_space_group_name_H-M	'P1'
_symmetry_Int_Tables_number	1
_symmetry_cell_setting	triclinic
loop_
_symmetry_equiv_pos_as_xyz
  x,y,z
_cell_length_a	10.654550
_cell_length_b	14.750779
_cell_length_c	10.654550
_cell_angle_alpha	77.233227
_cell_angle_beta	95.515069
_cell_angle_gamma	77.230523
loop_
_atom_site_label
_atom_site_type_symbol
_atom_site_fract_x
_atom_site_fract_y
_atom_site_fract_z
O1	O	1.640840	0.079755	-0.203386
O2	O	1.275355	0.079773	-0.220198
O3	O	1.466503	0.079758	-0.029051
O4	O	1.449692	0.079771	-0.394534
O5	O	1.520538	-0.079897	0.024978
O6	O	1.329390	-0.079882	-0.166169
O7	O	1.694875	-0.079899	-0.149357
Zn8	Zn	1.520712	-0.105239	-0.149185
Zn9	Zn	1.449518	0.105113	-0.220371
O10	O	1.503727	-0.079884	-0.340504
C11	C	1.255574	-0.000052	-0.191950
C12	C	1.116129	-0.000046	-0.188261
N13	N	1.569309	-0.248799	-0.100602
C14	C	1.036643	-0.000044	-0.300803
C15	C	0.905627	-0.000061	-0.297320
C16	C	0.933596	-0.000076	-0.068746
C17	C	1.064611	-0.000066	-0.072227
C18	C	1.265206	-0.600593	-0.404574
C19	C	1.299269	-0.701094	-0.370538
C20	C	1.468566	-0.701071	-0.201340
C21	C	1.434513	-0.600567	-0.235357
C22	C	1.332833	-0.550336	-0.336976
C23	C	1.502140	-0.550310	-0.167760
C24	C	1.468094	-0.449815	-0.201779
C25	C	1.366421	-0.399577	-0.303396
C26	C	1.298787	-0.449841	-0.370995
C27	C	1.603826	-0.600543	-0.066148
C28	C	1.671453	-0.550286	0.001450
C29	C	1.637401	-0.449789	-0.032563
C30	C	1.535728	-0.399551	-0.134180
C31	C	1.705034	-0.399525	0.035036
C32	C	1.670988	-0.299030	0.001017
C33	C	1.501682	-0.299056	-0.168199
C34	C	1.714655	-0.000072	-0.177606
C35	C	1.854099	-0.000072	-0.181297
C36	C	1.492286	-0.000069	0.044762
C37	C	1.488594	-0.000067	0.184204
N38	N	1.400931	0.248672	-0.268944
C39	C	1.477943	-0.000055	-0.414318
C40	C	1.481634	-0.000051	-0.553762
C41	C	1.601137	-0.000072	0.263692
C42	C	1.597656	-0.000061	0.394708
C43	C	1.369081	-0.000043	0.366739
C44	C	1.372560	-0.000048	0.235723
H45	H	1.078586	-0.000035	-0.395282
H46	H	1.689300	-0.000063	0.459422
O47	O	0.828580	-0.000014	-0.406777
C48	C	0.814692	-0.000050	-0.633841
C49	C	0.902084	-0.000079	-0.509980
H50	H	0.874091	-0.000123	-0.717306
H51	H	0.730043	0.066774	-0.660625
H52	H	0.775255	-0.066856	-0.615257
H53	H	0.941614	0.066682	-0.528466
H54	H	0.986662	-0.066948	-0.483232
H55	H	1.280907	-0.000041	0.170999
H56	H	0.891635	-0.000099	0.025727
H57	H	1.182400	-0.559693	-0.487313
O58	O	1.141638	-0.000024	0.037206
C59	C	1.155584	-0.000099	0.264309
C60	C	1.068198	-0.000120	0.140471
H61	H	1.096251	-0.000197	0.347837
H62	H	1.194967	0.066735	0.245865
H63	H	1.240267	-0.066896	0.290921
H64	H	0.983453	0.066631	0.113791
H65	H	1.028916	-0.066998	0.158980
H66	H	1.418875	-0.258156	-0.250938
O67	O	1.333574	-0.301955	-0.336442
C68	C	1.404143	-0.157719	-0.411995
C69	C	1.441524	-0.268273	-0.374580
H70	H	1.491391	-0.130453	-0.442865
H71	H	1.373503	-0.130382	-0.324722
H72	H	1.319815	-0.130477	-0.496192
H73	H	1.525878	-0.295597	-0.290417
H74	H	1.472084	-0.295545	-0.461923
O75	O	1.233388	-0.749766	-0.436294
C76	C	1.061900	-0.739182	-0.607760
C77	C	1.136380	-0.683943	-0.533385
H78	H	0.983471	-0.685989	-0.686292
H79	H	1.014539	-0.786209	-0.537089
H80	H	1.132626	-0.786256	-0.655017
H81	H	1.065740	-0.636818	-0.486123
H82	H	1.183761	-0.636977	-0.604114
H83	H	1.551358	-0.741980	-0.118604
H84	H	1.631546	-0.682372	-0.038458
H85	H	1.215980	-0.408940	-0.453734
O86	O	1.736552	-0.250211	0.066816
C87	C	1.797902	-0.219369	0.274032
C88	C	1.723576	-0.274722	0.199707
H89	H	1.787459	-0.239181	0.381491
H90	H	1.756060	-0.138913	0.232305
H91	H	1.905302	-0.239086	0.263325
H92	H	1.616166	-0.255086	0.210384
H93	H	1.765523	-0.355164	0.241450
O94	O	1.770148	-0.599233	0.100164
C95	C	1.897684	-0.754039	0.227518
C96	C	1.785869	-0.698730	0.115714
H97	H	1.910448	-0.834492	0.240108
H98	H	1.873771	-0.734355	0.321627
H99	H	1.991683	-0.734206	0.203525
H100	H	1.691825	-0.718533	0.139581
H101	H	1.809894	-0.718419	0.021638
H102	H	1.787831	-0.440436	0.117767
H103	H	1.695618	-0.000087	0.221749
H104	H	1.274611	-0.000028	0.408702
