data_functionalizedCrystal
_audit_creation_method	'MofGen! by Chris Wilmer'
_symmetry_space_group_name_H-M	'P1'
_symmetry_Int_Tables_number	1
_symmetry_cell_setting	triclinic
loop_
_symmetry_equiv_pos_as_xyz
  x,y,z
_cell_length_a	12.759401
_cell_length_b	18.101395
_cell_length_c	12.759393
_cell_angle_alpha	89.966505
_cell_angle_beta	89.980163
_cell_angle_gamma	90.032629
loop_
_atom_site_label
_atom_site_type_symbol
_atom_site_fract_x
_atom_site_fract_y
_atom_site_fract_z
Zn1	Zn	1.606135	-0.294755	-0.594006
Zn2	Zn	2.106135	0.205245	-0.094006
Zn3	Zn	1.605979	-0.418617	-0.418321
Zn4	Zn	2.105979	0.081383	0.081679
Zn5	Zn	1.430437	-0.294797	-0.418342
Zn6	Zn	1.930437	0.205203	0.081658
Zn7	Zn	1.430376	-0.418563	-0.593958
Zn8	Zn	1.930376	0.081437	-0.093958
O9	O	1.518232	-0.356683	-0.506157
O10	O	2.018232	0.143317	-0.006157
O11	O	1.753136	-0.311191	-0.570713
O12	O	2.253136	0.188809	-0.070713
O13	O	1.582654	-0.402232	-0.271302
O14	O	2.082654	0.097768	0.228698
O15	O	1.453835	-0.191159	-0.441673
O16	O	1.953835	0.308841	0.058327
O17	O	1.753021	-0.402192	-0.441637
O18	O	2.253021	0.097808	0.058363
O19	O	1.582920	-0.191128	-0.570733
O20	O	2.082920	0.308872	-0.070733
O21	O	1.453684	-0.311262	-0.271318
O22	O	1.953684	0.188738	0.228682
O23	O	1.283408	-0.311210	-0.441626
O24	O	1.783408	0.188790	0.058374
O25	O	1.453730	-0.402099	-0.740986
O26	O	1.953730	0.097901	-0.240986
O27	O	1.283363	-0.402140	-0.570651
O28	O	1.783363	0.097860	-0.070651
O29	O	1.582860	-0.311139	-0.741021
O30	O	2.082860	0.188861	-0.241021
O31	O	1.582594	-0.522243	-0.441590
O32	O	2.082594	-0.022243	0.058410
O33	O	1.453579	-0.522203	-0.570630
O34	O	1.953579	-0.022203	-0.070630
C35	C	1.245265	-0.356674	-0.506136
C36	C	1.745265	0.143326	-0.006136
C37	C	1.128488	-0.356688	-0.506152
C38	C	1.628488	0.143312	-0.006152
C39	C	1.518091	-0.549094	-0.506126
C40	C	2.018091	-0.049094	-0.006126
C41	C	1.518127	-0.631408	-0.506148
C42	C	2.018127	-0.131408	-0.006148
C43	C	1.073630	-0.404107	-0.573229
C44	C	1.573630	0.095893	-0.073229
C45	C	0.963906	-0.404110	-0.573250
C46	C	1.463906	0.095890	-0.073250
C47	C	0.963908	-0.309272	-0.439107
C48	C	1.463908	0.190728	0.060893
C49	C	1.073630	-0.309266	-0.439092
C50	C	1.573630	0.190734	0.060908
C51	C	1.518358	-0.930499	-0.506204
C52	C	2.018358	-0.430499	-0.006204
C53	C	1.437373	-0.899179	-0.587594
C54	C	1.937373	-0.399179	-0.087594
C55	C	1.436988	-0.813561	-0.587340
C56	C	1.936988	-0.313561	-0.087340
C57	C	1.518243	-0.782116	-0.506177
C58	C	2.018243	-0.282116	-0.006177
C59	C	1.488263	-0.813277	-0.395451
C60	C	1.988263	-0.313277	0.104549
C61	C	1.487741	-0.898922	-0.395938
C62	C	1.987741	-0.398922	0.104062
C63	C	1.629500	-0.898838	-0.534565
C64	C	2.129500	-0.398838	-0.034565
C65	C	1.628847	-0.813187	-0.536994
C66	C	2.128847	-0.313187	-0.036994
C67	C	1.518181	-0.698257	-0.506155
C68	C	2.018181	-0.198257	-0.006155
C69	C	1.518418	-1.014358	-0.506219
C70	C	2.018418	-0.514358	-0.006219
C71	C	1.792265	-0.356693	-0.506178
C72	C	2.292265	0.143307	-0.006178
C73	C	1.909042	-0.356697	-0.506187
C74	C	2.409042	0.143303	-0.006187
C75	C	1.518305	-0.356608	-0.780190
C76	C	2.018305	0.143392	-0.280190
C77	C	1.518337	-0.356576	-0.896967
C78	C	2.018337	0.143424	-0.396967
C79	C	1.518402	-0.163521	-0.506211
C80	C	2.018402	0.336479	-0.006211
C81	C	1.518474	-0.081207	-0.506234
C82	C	2.018474	0.418793	-0.006234
C83	C	1.451206	-0.309200	-0.951836
C84	C	1.951206	0.190800	-0.451836
C85	C	1.451230	-0.309177	-1.061561
C86	C	1.951230	0.190823	-0.561561
C87	C	1.585525	-0.403910	-1.061536
C88	C	2.085525	0.096090	-0.561536
C89	C	1.585495	-0.403936	-0.951814
C90	C	2.085495	0.096064	-0.451814
C91	C	1.518219	-0.356704	-0.233189
C92	C	2.018219	0.143296	0.266811
C93	C	1.518392	-0.356528	-0.116413
C94	C	2.018392	0.143472	0.383587
H95	H	1.118292	-0.442720	-0.627836
H96	H	1.618292	0.057280	-0.127836
Cl97	Cl	0.894946	-0.463725	-0.657582
Cl98	Cl	1.394946	0.036275	-0.157582
H99	H	1.689837	-0.919091	-0.475286
H100	H	2.189837	-0.419091	0.024714
H101	H	1.640163	-0.442518	-0.907138
H102	H	2.140163	0.057482	-0.407138
Cl103	Cl	1.466038	-0.930896	-0.714768
Cl104	Cl	1.966038	-0.430896	-0.214768
Cl105	Cl	1.663758	-0.781739	-0.662805
Cl106	Cl	2.163758	-0.281739	-0.162805
Cl107	Cl	0.894935	-0.249662	-0.354806
Cl108	Cl	1.394935	0.250338	0.145194
Cl109	Cl	1.142599	-0.249644	-0.354766
Cl110	Cl	1.642599	0.250356	0.145234
H111	H	1.545393	-0.792910	-0.333156
H112	H	2.045393	-0.292910	0.166844
Cl113	Cl	1.366775	-0.249666	-0.882890
Cl114	Cl	1.866775	0.250334	-0.382890
H115	H	1.640203	-0.442467	-1.106206
H116	H	2.140203	0.057533	-0.606206
Cl117	Cl	1.465943	-0.781026	-0.714100
Cl118	Cl	1.965943	-0.281026	-0.214100
Cl119	Cl	1.310958	-0.932527	-0.558979
Cl120	Cl	1.810958	-0.432527	-0.058979
H121	H	1.354607	-0.793141	-0.568554
H122	H	1.854607	-0.293141	-0.068554
H123	H	1.406496	-0.918968	-0.371913
H124	H	1.906496	-0.418968	0.128087
H125	H	1.544168	-0.919643	-0.333229
H126	H	2.044168	-0.419643	0.166771
Cl127	Cl	1.671700	-0.932094	-0.657100
Cl128	Cl	2.171700	-0.432094	-0.157100
H129	H	1.692377	-0.791778	-0.482034
H130	H	2.192377	-0.291778	0.017966
Cl131	Cl	1.364153	-0.780272	-0.357692
Cl132	Cl	1.864153	-0.280272	0.142308
H133	H	1.396565	-0.270599	-1.106230
H134	H	1.896565	0.229401	-0.606230
