data_functionalizedCrystal
_audit_creation_method	'MofGen! by Chris Wilmer'
_symmetry_space_group_name_H-M	'P1'
_symmetry_Int_Tables_number	1
_symmetry_cell_setting	triclinic
loop_
_symmetry_equiv_pos_as_xyz
  x,y,z
_cell_length_a	16.109301
_cell_length_b	14.421503
_cell_length_c	16.109301
_cell_angle_alpha	90.000142
_cell_angle_beta	96.538519
_cell_angle_gamma	89.990199
loop_
_atom_site_label
_atom_site_type_symbol
_atom_site_fract_x
_atom_site_fract_y
_atom_site_fract_z
O1	O	1.103119	0.077056	-0.106861
O2	O	0.861057	0.077071	-0.120160
O3	O	0.988737	0.077054	0.007520
O4	O	0.975438	0.077073	-0.234542
O5	O	0.988753	-0.077170	0.007512
O6	O	0.861072	-0.077152	-0.120169
O7	O	1.103134	-0.077167	-0.106869
Cu8	Cu	0.982105	-0.091242	-0.113520
Cu9	Cu	0.982086	0.091145	-0.113510
O10	O	0.975453	-0.077150	-0.234550
C11	C	0.830090	-0.000039	-0.119626
C12	C	0.737794	-0.000033	-0.118011
N13	N	0.982124	-0.219523	-0.113526
C14	C	0.515522	-0.000038	-0.190018
C15	C	0.428801	-0.000044	-0.188494
C16	C	0.448676	-0.000053	-0.037006
C17	C	0.535394	-0.000053	-0.038530
C18	C	0.568815	-0.000041	-0.115039
C19	C	0.395376	-0.000047	-0.111990
C20	C	0.301350	-0.000053	-0.110337
C21	C	0.662847	-0.000037	-0.116693
C22	C	1.041176	-0.469160	-0.054474
C23	C	0.966055	-0.530954	-0.038347
C24	C	0.982105	-0.408684	-0.113516
C25	C	1.057208	-0.530985	-0.129594
C26	C	0.982094	-0.591406	-0.113504
C27	C	0.906946	-0.469117	-0.097353
C28	C	0.998149	-0.469143	-0.188632
C29	C	0.922974	-0.530909	-0.172537
C30	C	0.982113	-0.303423	-0.113521
C31	C	0.982078	-0.696665	-0.113500
C32	C	1.134101	-0.000056	-0.107404
C33	C	1.226397	-0.000055	-0.109019
C34	C	0.988206	-0.000058	0.038491
C35	C	0.986591	-0.000060	0.130786
N36	N	0.982074	0.219427	-0.113497
C37	C	0.975984	-0.000036	-0.265521
C38	C	0.977600	-0.000029	-0.357816
C39	C	1.058599	-0.000049	0.353059
C40	C	1.057075	-0.000042	0.439779
C41	C	0.905586	-0.000036	0.419905
C42	C	0.907111	-0.000037	0.333186
C43	C	0.983620	-0.000049	0.299766
C44	C	0.980571	-0.000040	0.473205
C45	C	0.978918	-0.000031	0.567231
C46	C	0.985273	-0.000055	0.205734
H47	H	0.542730	-0.000035	-0.252317
H48	H	0.578788	-0.000059	0.022530
H49	H	0.385413	-0.000044	-0.249550
H50	H	1.120726	-0.558160	-0.143198
H51	H	1.118130	-0.000041	0.483168
N52	N	0.948069	-0.566927	0.045800
H53	H	0.947659	-0.636955	0.045009
H54	H	0.891783	-0.543390	0.058362
H55	H	0.843295	-0.000028	0.447127
N56	N	0.826241	-0.000036	0.275692
H57	H	0.792852	0.057135	0.286436
H58	H	0.792933	-0.057244	0.286462
N59	N	0.412629	-0.000070	0.045511
H60	H	0.349606	-0.000069	0.035102
H61	H	0.432118	0.057098	0.078326
H62	H	1.120897	-0.000057	0.325851
H63	H	1.091077	-0.442046	-0.004515
N64	N	0.822788	-0.433283	-0.079235
H65	H	0.823319	-0.363252	-0.079326
H66	H	0.810579	-0.456381	-0.022696
N67	N	0.856733	-0.566603	-0.238676
H68	H	0.800055	-0.543975	-0.226417
H69	H	0.857486	-0.636630	-0.238605
H70	H	1.011753	-0.441972	-0.252140
