data_functionalizedCrystal
_audit_creation_method	'MofGen! by Chris Wilmer'
_symmetry_space_group_name_H-M	'P1'
_symmetry_Int_Tables_number	1
_symmetry_cell_setting	triclinic
loop_
_symmetry_equiv_pos_as_xyz
  x,y,z
_cell_length_a	6.817900
_cell_length_b	15.300992
_cell_length_c	17.078481
_cell_angle_alpha	96.105750
_cell_angle_beta	99.306161
_cell_angle_gamma	104.175078
loop_
_atom_site_label
_atom_site_type_symbol
_atom_site_fract_x
_atom_site_fract_y
_atom_site_fract_z
V1	V	-3.983043	-0.124547	-0.247600
O2	O	-3.967876	0.006202	-0.242641
O3	O	-3.938238	-0.247165	-0.246143
O4	O	-3.914034	-0.122537	-0.355479
O5	O	-3.992247	-0.119289	-0.132548
V6	V	-4.468876	-0.108920	-0.233810
O7	O	-4.239235	-0.158828	-0.277849
O8	O	-4.662881	-0.074639	-0.203561
O9	O	-4.290474	0.013698	-0.235267
O10	O	-4.601440	-0.239669	-0.238769
O11	O	-4.577069	-0.114177	-0.348862
O12	O	-4.314679	-0.110930	-0.125931
C13	C	-3.784780	-0.277059	-0.242298
C14	C	-3.829296	-0.377300	-0.241826
C15	C	-3.823453	-0.411578	-0.168927
C16	C	-3.865300	-0.505766	-0.168486
C17	C	-3.912975	-0.565674	-0.240945
C18	C	-3.918823	-0.531390	-0.313850
C19	C	-3.876991	-0.437205	-0.314290
C20	C	-4.006008	-0.727702	-0.312927
C21	C	-4.047839	-0.821895	-0.312486
C22	C	-3.994317	-0.796263	-0.167123
C23	C	-3.952485	-0.702078	-0.167563
C24	C	-3.958332	-0.667801	-0.240468
C25	C	-3.753905	-0.118082	-0.381766
C26	C	-3.778789	-0.117250	-0.469959
C27	C	-3.971944	-0.121360	-0.515443
C28	C	-3.995314	-0.120577	-0.598310
C29	C	-3.825529	-0.115690	-0.635692
C30	C	-3.632357	-0.111577	-0.590202
C31	C	-3.608987	-0.112354	-0.507336
C32	C	-3.875963	-0.112879	-0.883090
C33	C	-3.899350	-0.112106	-0.965962
C34	C	-4.262305	-0.121104	-0.974064
C35	C	-4.238920	-0.121885	-0.891197
C36	C	-4.045749	-0.117767	-0.845713
N37	N	-3.849414	-0.114892	-0.720395
N38	N	-4.021864	-0.118559	-0.761011
C39	C	-4.107275	0.043588	-0.239110
C40	C	-4.041996	0.143828	-0.239587
C41	C	-4.138151	-0.115387	-0.099640
C42	C	-4.092505	-0.116216	-0.011446
H43	H	-3.957658	-0.580176	-0.372847
H44	H	-4.419577	-0.124455	-1.011105
C45	C	-3.710251	-0.592532	-0.079923
C46	C	-3.858939	-0.543463	-0.088363
H47	H	-3.706359	-0.615813	-0.030461
H48	H	-3.578939	-0.553394	-0.080554
H49	H	-3.744642	-0.641676	-0.123027
H50	H	-3.824540	-0.494314	-0.045262
H51	H	-3.990280	-0.582604	-0.087724
C52	C	-3.954793	-0.938352	-0.392591
C53	C	-4.100258	-0.887743	-0.392137
H54	H	-3.987152	-0.978998	-0.441767
H55	H	-3.957302	-0.972245	-0.349117
H56	H	-3.821272	-0.898132	-0.387208
H57	H	-4.233778	-0.927963	-0.397513
H58	H	-4.097770	-0.853847	-0.435622
C59	C	-3.677291	-0.186561	-0.796166
C60	C	-3.663639	-0.108474	-0.833164
H61	H	-3.546205	-0.183871	-0.765356
H62	H	-3.719958	-0.239227	-0.836041
H63	H	-3.774948	-0.189533	-0.761996
H64	H	-3.565993	-0.105506	-0.867338
H65	H	-3.620945	-0.055793	-0.793284
H66	H	-3.913654	-0.653302	-0.108560
H67	H	-4.377180	-0.125864	-0.860766
H68	H	-3.881772	-0.409299	-0.373652
H69	H	-3.494115	-0.107593	-0.620644
H70	H	-3.451691	-0.108984	-0.470301
H71	H	-4.110209	-0.125345	-0.485014
H72	H	-4.010805	-0.699799	-0.372294
C73	C	-3.559193	-0.026312	-0.973754
C74	C	-3.712712	-0.106721	-1.007059
H75	H	-3.443988	-0.022987	-0.999131
H76	H	-3.517616	-0.026191	-0.917901
H77	H	-3.611857	0.024775	-0.981655
H78	H	-3.660052	-0.157809	-0.999152
H79	H	-3.754291	-0.106851	-1.062925
C80	C	-4.181529	-0.891604	-0.086031
C81	C	-3.987940	-0.833924	-0.086978
H82	H	-4.177597	-0.914849	-0.036551
H83	H	-4.215886	-0.940764	-0.129108
H84	H	-4.282389	-0.858311	-0.091779
H85	H	-3.887081	-0.867220	-0.081236
H86	H	-3.953558	-0.784757	-0.043889
C87	C	-3.774802	-0.395714	-0.025199
C88	C	-3.771071	-0.345732	-0.089277
H89	H	-3.742485	-0.355064	0.023973
H90	H	-3.676125	-0.430042	-0.025507
H91	H	-3.908342	-0.435925	-0.030602
H92	H	-3.637526	-0.305526	-0.083877
H93	H	-3.869752	-0.311388	-0.088968
C94	C	-4.349885	-0.205862	-0.641560
C95	C	-4.207638	-0.125087	-0.648299
H96	H	-4.480966	-0.208643	-0.672423
H97	H	-4.360243	-0.207024	-0.586864
H98	H	-4.304928	-0.256702	-0.660836
H99	H	-4.252588	-0.074247	-0.629017
H100	H	-4.197286	-0.123917	-0.703007
