data_functionalizedCrystal
_audit_creation_method	'MofGen! by Chris Wilmer'
_symmetry_space_group_name_H-M	'P1'
_symmetry_Int_Tables_number	1
_symmetry_cell_setting	triclinic
loop_
_symmetry_equiv_pos_as_xyz
  x,y,z
_cell_length_a	21.395362
_cell_length_b	18.050590
_cell_length_c	21.395355
_cell_angle_alpha	90.018036
_cell_angle_beta	90.043940
_cell_angle_gamma	90.034430
loop_
_atom_site_label
_atom_site_type_symbol
_atom_site_fract_x
_atom_site_fract_y
_atom_site_fract_z
Zn1	Zn	0.957912	-0.295431	0.354588
Zn2	Zn	1.457912	0.204569	0.854588
Zn3	Zn	0.957837	-0.419603	0.249811
Zn4	Zn	1.457837	0.080397	0.749811
Zn5	Zn	0.853127	-0.295465	0.249789
Zn6	Zn	1.353127	0.204535	0.749789
Zn7	Zn	0.853119	-0.419618	0.354516
Zn8	Zn	1.353119	0.080382	0.854516
O9	O	0.905499	-0.357529	0.302176
O10	O	1.405499	0.142471	0.802176
O11	O	1.045580	-0.311881	0.340728
O12	O	1.545580	0.188119	0.840728
O13	O	0.943919	-0.403143	0.162130
O14	O	1.443919	0.096857	0.662130
O15	O	0.867062	-0.191536	0.263712
O16	O	1.367062	0.308464	0.763712
O17	O	1.045525	-0.403110	0.263749
O18	O	1.545525	0.096890	0.763749
O19	O	0.944048	-0.191511	0.340707
O20	O	1.444048	0.308489	0.840707
O21	O	0.866989	-0.311940	0.162114
O22	O	1.366989	0.188060	0.662114
O23	O	0.765448	-0.311955	0.263642
O24	O	1.265448	0.188045	0.763642
O25	O	0.867048	-0.403136	0.442203
O26	O	1.367048	0.096864	0.942203
O27	O	0.765442	-0.403170	0.340584
O28	O	1.265442	0.096830	0.840584
O29	O	0.944039	-0.311896	0.442256
O30	O	1.444039	0.188104	0.942256
O31	O	0.943911	-0.523529	0.263680
O32	O	1.443911	-0.023529	0.763680
O33	O	0.866975	-0.523540	0.340606
O34	O	1.366975	-0.023540	0.840606
C35	C	0.742711	-0.357568	0.302103
C36	C	1.242711	0.142432	0.802103
C37	C	0.673070	-0.357603	0.302087
C38	C	1.173070	0.142397	0.802087
C39	C	0.905451	-0.550481	0.302151
C40	C	1.405451	-0.050481	0.802151
C41	C	0.905487	-0.633027	0.302161
C42	C	1.405487	-0.133027	0.802161
C43	C	0.640370	-0.405161	0.342091
C44	C	1.140370	0.094839	0.842091
C45	C	0.574935	-0.405143	0.342119
C46	C	1.074935	0.094857	0.842119
C47	C	0.542202	-0.357574	0.302132
C48	C	1.042202	0.142426	0.802132
C49	C	0.574910	-0.310007	0.262125
C50	C	1.074910	0.189993	0.762125
C51	C	0.640344	-0.310021	0.262103
C52	C	1.140344	0.189979	0.762103
C53	C	0.438476	-0.351592	0.245726
C54	C	0.938476	0.148408	0.745726
C55	C	0.373043	-0.351583	0.245748
C56	C	0.873043	0.148417	0.745748
C57	C	0.340381	-0.357526	0.302201
C58	C	0.840381	0.142474	0.802201
C59	C	0.373160	-0.363494	0.358634
C60	C	0.873160	0.136506	0.858634
C61	C	0.438594	-0.363508	0.358612
C62	C	0.938594	0.136492	0.858612
C63	C	0.471249	-0.357553	0.302152
C64	C	0.971249	0.142447	0.802152
C65	C	0.236728	-0.405067	0.342238
C66	C	0.736728	0.094933	0.842238
C67	C	0.171292	-0.405044	0.342267
C68	C	0.671292	0.094956	0.842267
C69	C	0.171268	-0.309911	0.262268
C70	C	0.671268	0.190089	0.762268
C71	C	0.236703	-0.309931	0.262245
C72	C	0.736703	0.190069	0.762245
C73	C	0.269430	-0.357513	0.302229
C74	C	0.769430	0.142487	0.802229
C75	C	0.947412	-0.832444	0.260387
C76	C	1.447412	-0.332444	0.760387
C77	C	0.962722	-0.881784	0.317576
C78	C	1.462722	-0.381784	0.817576
C79	C	0.905523	-0.784157	0.302186
C80	C	1.405523	-0.284157	0.802186
C81	C	0.890277	-0.881899	0.245023
C82	C	1.390277	-0.381899	0.745023
C83	C	0.905559	-0.930142	0.302205
C84	C	1.405559	-0.430142	0.802205
C85	C	0.920862	-0.832410	0.359405
C86	C	1.420862	-0.332410	0.859405
C87	C	0.848390	-0.832520	0.286813
C88	C	1.348390	-0.332520	0.786813
C89	C	0.863678	-0.881838	0.344042
C90	C	1.363678	-0.381838	0.844042
C91	C	0.905504	-0.700059	0.302174
C92	C	1.405504	-0.200059	0.802174
C93	C	0.905577	-1.014239	0.302224
C94	C	1.405577	-0.514239	0.802224
C95	C	1.068922	-0.357490	0.302249
C96	C	1.568922	0.142510	0.802249
C97	C	1.138563	-0.357474	0.302281
C98	C	1.638563	0.142526	0.802281
C99	C	0.905551	-0.357514	0.465599
C100	C	1.405551	0.142486	0.965599
C101	C	0.905573	-0.357508	0.535241
C102	C	1.405573	0.142492	1.035241
C103	C	0.905564	-0.163823	0.302215
C104	C	1.405564	0.336177	0.802215
C105	C	0.905592	-0.081278	0.302231
C106	C	1.405592	0.418722	0.802231
C107	C	0.905483	-0.357490	0.139388
C108	C	1.405483	0.142510	0.639388
C109	C	0.905582	-0.357288	0.069747
C110	C	1.405582	0.142712	0.569747
C111	C	0.945661	-0.309997	0.567982
C112	C	1.445661	0.190003	1.067982
C113	C	0.945660	-0.309965	0.633418
C114	C	1.445660	0.190035	1.133418
C115	C	0.905578	-0.357457	0.666109
C116	C	1.405578	0.142543	1.166109
C117	C	0.865482	-0.404971	0.633359
C118	C	1.365482	0.095029	1.133359
C119	C	0.865480	-0.404996	0.567925
C120	C	1.365480	0.095004	1.067925
C121	C	0.900614	-0.424328	0.769773
C122	C	1.400614	0.075672	1.269773
C123	C	0.900621	-0.424304	0.835206
C124	C	1.400621	0.075696	1.335206
C125	C	0.905582	-0.357379	0.867930
C126	C	1.405582	0.142621	1.367930
C127	C	0.910549	-0.290475	0.835212
C128	C	1.410549	0.209525	1.335212
C129	C	0.910547	-0.290501	0.769778
C130	C	1.410547	0.209499	1.269778
C131	C	0.905576	-0.357434	0.737061
C132	C	1.405576	0.142566	1.237061
C133	C	0.945671	-0.309829	0.971624
C134	C	1.445671	0.190171	1.471624
C135	C	0.945665	-0.309796	1.037061
C136	C	1.445665	0.190204	1.537061
C137	C	0.865491	-0.404808	1.037001
C138	C	1.365491	0.095192	1.537001
C139	C	0.865493	-0.404835	0.971566
C140	C	1.365493	0.095165	1.471566
C141	C	0.905586	-0.357346	0.938881
C142	C	1.405586	0.142654	1.438881
H143	H	0.548305	-0.443870	0.374697
H144	H	1.048305	0.056130	0.874697
H145	H	0.982849	-0.810757	0.225076
H146	H	1.482849	-0.310757	0.725076
H147	H	0.832833	-0.443684	0.541267
H148	H	1.332833	0.056316	1.041267
H149	H	0.263328	-0.271207	0.229666
H150	H	0.763328	0.228793	0.729666
H151	H	0.465064	-0.346749	0.199752
H152	H	0.965064	0.153251	0.699752
N153	N	0.339573	-0.345497	0.188099
N154	N	0.839573	0.154503	0.688099
N155	N	0.368740	-0.340183	0.137699
N156	N	0.868740	0.159817	0.637699
H157	H	0.345104	-0.335887	0.096982
H158	H	0.845104	0.164113	0.596982
N159	N	0.541467	-0.261416	0.221287
N160	N	1.041467	0.238584	0.721287
N161	N	0.483045	-0.261410	0.221312
N162	N	0.983045	0.238590	0.721312
H163	H	0.459425	-0.227088	0.192471
H164	H	0.959425	0.272912	0.692471
H165	H	0.666968	-0.271291	0.229527
H166	H	1.166968	0.228709	0.729527
N167	N	0.986615	-0.261447	0.666881
N168	N	1.486615	0.238553	1.166881
N169	N	0.986613	-0.261438	0.725304
N170	N	1.486613	0.238562	1.225304
H171	H	1.015539	-0.227174	0.748938
H172	H	1.515539	0.272826	1.248938
H173	H	1.011054	-0.903426	0.330591
H174	H	1.511054	-0.403426	0.830591
H175	H	0.144669	-0.443770	0.374847
H176	H	0.644669	0.056230	0.874847
N177	N	0.937129	-0.805250	0.420075
N178	N	1.437129	-0.305250	0.920075
N179	N	0.939761	-0.737043	0.429852
N180	N	1.439761	-0.237043	0.929852
H181	H	0.951252	-0.717859	0.472698
H182	H	1.451252	-0.217859	0.972698
H183	H	0.896406	-0.478812	0.743135
H184	H	1.396406	0.021188	1.243135
H185	H	0.667012	-0.443905	0.374650
H186	H	1.167012	0.056095	0.874650
N187	N	0.472087	-0.369556	0.416251
N188	N	0.972087	0.130444	0.916251
N189	N	0.530510	-0.369542	0.416221
N190	N	1.030510	0.130458	0.916221
H191	H	0.554165	-0.373798	0.456929
H192	H	1.054165	0.126202	0.956929
N193	N	0.824539	-0.453473	0.666759
N194	N	1.324539	0.046527	1.166759
N195	N	0.824547	-0.453445	0.725182
N196	N	1.324547	0.046555	1.225182
H197	H	0.795627	-0.487699	0.748771
H198	H	1.295627	0.012301	1.248771
N199	N	0.339796	-0.369588	0.416298
N200	N	0.839796	0.130412	0.916298
N201	N	0.281374	-0.369582	0.416312
N202	N	0.781374	0.130418	0.916312
H203	H	0.257807	-0.373895	0.457035
H204	H	0.757807	0.126105	0.957035
N205	N	0.270152	-0.453673	0.383083
N206	N	0.770152	0.046327	0.883083
N207	N	0.240945	-0.496130	0.418803
N208	N	0.740945	0.003870	0.918803
H209	H	0.264548	-0.530459	0.447649
H210	H	0.764548	-0.030459	0.947649
H211	H	0.828269	-0.903388	0.379439
H212	H	1.328269	-0.403388	0.879439
H213	H	0.800073	-0.810862	0.273781
H214	H	1.300073	-0.310862	0.773781
N215	N	0.137831	-0.261316	0.221432
N216	N	0.637831	0.238684	0.721432
N217	N	0.079408	-0.261304	0.221461
N218	N	0.579408	0.238696	0.721461
H219	H	0.055789	-0.226980	0.192622
H220	H	0.555789	0.273020	0.692622
H221	H	0.877367	-0.903637	0.196673
H222	H	1.377367	-0.403637	0.696673
N223	N	0.986619	-0.261487	0.534607
N224	N	1.486619	0.238513	1.034607
N225	N	1.022410	-0.219070	0.563853
N226	N	1.522410	0.280930	1.063853
H227	H	1.051337	-0.184809	0.540281
H228	H	1.551337	0.315191	1.040281
N229	N	0.915621	-0.222160	0.736368
N230	N	1.415621	0.277840	1.236368
N231	N	0.920053	-0.162408	0.765585
N232	N	1.420053	0.337592	1.265585
H233	H	0.923635	-0.114141	0.741990
H234	H	1.423635	0.385859	1.241990
H235	H	0.914590	-0.235979	0.861854
H236	H	1.414590	0.264021	1.361854
N237	N	0.986624	-0.261316	0.938242
N238	N	1.486624	0.238684	1.438242
N239	N	1.022410	-0.218891	0.967488
N240	N	1.522410	0.281109	1.467488
H241	H	1.051333	-0.184626	0.943914
H242	H	1.551333	0.315374	1.443914
N243	N	0.824551	-0.453335	1.070377
N244	N	1.324551	0.046665	1.570377
N245	N	0.788766	-0.495760	1.041131
N246	N	1.288766	0.004240	1.541131
H247	H	0.759851	-0.530034	1.064704
H248	H	1.259851	-0.030034	1.564704
N249	N	0.986616	-0.261252	1.070498
N250	N	1.486616	0.238748	1.570498
N251	N	1.022406	-0.218858	1.041304
N252	N	1.522406	0.281142	1.541304
H253	H	1.051329	-0.184572	1.064919
H254	H	1.551329	0.315428	1.564919
N255	N	0.824541	-0.453373	0.938127
N256	N	1.324541	0.046627	1.438127
N257	N	0.788753	-0.495771	0.967320
N258	N	1.288753	0.004229	1.467320
H259	H	0.759827	-0.530051	0.943705
H260	H	1.259827	-0.030051	1.443705
N261	N	0.895506	-0.492642	0.868613
N262	N	1.395506	0.007358	1.368613
N263	N	0.891037	-0.552387	0.839391
N264	N	1.391037	-0.052387	1.339391
H265	H	0.887407	-0.600652	0.862983
H266	H	1.387407	-0.100652	1.362983
