data_functionalizedCrystal
_audit_creation_method	'MofGen! by Chris Wilmer'
_symmetry_space_group_name_H-M	'P1'
_symmetry_Int_Tables_number	1
_symmetry_cell_setting	triclinic
loop_
_symmetry_equiv_pos_as_xyz
  x,y,z
_cell_length_a	16.625547
_cell_length_b	16.625545
_cell_length_c	12.827885
_cell_angle_alpha	89.966975
_cell_angle_beta	89.974319
_cell_angle_gamma	90.025495
loop_
_atom_site_label
_atom_site_type_symbol
_atom_site_fract_x
_atom_site_fract_y
_atom_site_fract_z
Zn1	Zn	1.232670	-0.320962	-0.591000
Zn2	Zn	1.232564	-0.455817	-0.416251
Zn3	Zn	1.097830	-0.321002	-0.416255
Zn4	Zn	1.097795	-0.455757	-0.590932
O5	O	1.165215	-0.388384	-0.503609
O6	O	1.345488	-0.338860	-0.567846
O7	O	1.214661	-0.437975	-0.270015
O8	O	1.115776	-0.208164	-0.439465
O9	O	1.345410	-0.437937	-0.439459
O10	O	1.214842	-0.208135	-0.567850
O11	O	1.115673	-0.338927	-0.270018
O12	O	0.984993	-0.338869	-0.439399
O13	O	1.115716	-0.437834	-0.737177
O14	O	0.984967	-0.437872	-0.567734
O15	O	1.214808	-0.338801	-0.737227
O16	O	1.214628	-0.568641	-0.439393
O17	O	1.115613	-0.568597	-0.567730
C18	C	0.955724	-0.388369	-0.503560
C19	C	0.866103	-0.388382	-0.503564
C20	C	1.165127	-0.597875	-0.503576
C21	C	1.165163	-0.687496	-0.503597
C22	C	0.793320	-0.388383	-0.503577
C23	C	0.702012	-0.388387	-0.503603
C24	C	0.629235	-0.388395	-0.503629
C25	C	0.537921	-0.388400	-0.503654
C26	C	1.165195	-0.760279	-0.503618
C27	C	1.165242	-0.851587	-0.503641
C28	C	1.165284	-0.924364	-0.503654
C29	C	1.165330	-1.015678	-0.503676
C30	C	1.375524	-0.388401	-0.503659
C31	C	1.465145	-0.388408	-0.503681
C32	C	1.165270	-0.388306	-0.776180
C33	C	1.165294	-0.388273	-0.892333
C34	C	1.165325	-0.178076	-0.503665
C35	C	1.165371	-0.088454	-0.503689
C36	C	1.116276	-0.437258	-0.944093
C37	C	1.116299	-0.437224	-1.064143
C38	C	1.165206	-0.388404	-0.232099
C39	C	1.165338	-0.388210	-0.115947
H40	H	1.074295	-0.479223	-0.899530
H41	H	1.207280	-0.346314	-0.936896
N42	N	1.063648	-0.489826	-1.119990
N43	N	1.063738	-0.489722	-1.217432
H44	H	1.026551	-0.526872	-1.256878
H45	H	1.207303	-0.346267	-1.071441
