data_functionalizedCrystal
_audit_creation_method	'MofGen! by Chris Wilmer'
_symmetry_space_group_name_H-M	'P1'
_symmetry_Int_Tables_number	1
_symmetry_cell_setting	triclinic
loop_
_symmetry_equiv_pos_as_xyz
  x,y,z
_cell_length_a	23.532407
_cell_length_b	17.699083
_cell_length_c	16.176319
_cell_angle_alpha	89.994260
_cell_angle_beta	89.988536
_cell_angle_gamma	83.065846
loop_
_atom_site_label
_atom_site_type_symbol
_atom_site_fract_x
_atom_site_fract_y
_atom_site_fract_z
O1	O	0.072020	1.003713	-0.068723
O2	O	0.081390	0.783287	-0.068732
O3	O	-0.006208	0.900147	-0.068712
O4	O	0.159618	0.886853	-0.068743
O5	O	-0.006213	0.900131	0.068781
O6	O	0.081384	0.783271	0.068761
O7	O	0.072014	1.003697	0.068771
Cu8	Cu	0.076699	0.893483	0.081320
Cu9	Cu	0.076705	0.893502	-0.081282
O10	O	0.159612	0.886837	0.068750
C11	C	-0.027427	0.899801	0.000037
C12	C	-0.090647	0.898783	0.000043
C13	C	0.081051	0.755084	0.000013
C14	C	0.080044	0.671071	0.000010
C15	C	0.072353	1.031901	0.000023
C16	C	0.073360	1.115914	0.000021
C17	C	-0.489570	0.961554	0.000000
C18	C	-0.548973	0.960609	-0.000006
O19	O	-0.585550	1.018799	-0.000034
N20	N	-0.571799	0.891136	-0.000008
C21	C	-0.535218	0.822604	-0.000013
O22	O	-0.560088	0.763424	-0.000017
C23	C	-0.475816	0.823550	-0.000013
C24	C	-0.452994	0.893028	-0.000002
C25	C	-0.466747	1.031026	0.000010
C26	C	-0.407348	1.031972	0.000018
C27	C	-0.370772	0.963445	0.000016
C28	C	-0.393595	0.893973	0.000006
C29	C	-0.439237	0.755019	-0.000023
C30	C	-0.379832	0.755971	-0.000023
C31	C	-0.357009	0.825449	-0.000012
C32	C	-0.297620	0.826391	0.000012
N33	N	-0.274795	0.895864	0.000014
C34	C	-0.311371	0.964391	0.000017
C35	C	-0.659966	0.820622	-0.000015
C36	C	-0.719367	0.819674	-0.000010
C37	C	-0.733118	0.957680	-0.000004
C38	C	-0.673716	0.958626	-0.000004
C39	C	-0.637141	0.890095	-0.000013
C40	C	-0.186628	0.966371	0.000034
C41	C	-0.127223	0.967310	0.000045
C42	C	-0.113478	0.829305	0.000035
C43	C	-0.172877	0.828365	0.000028
C44	C	-0.209452	0.896904	0.000025
O45	O	-0.261008	0.768232	0.000036
O46	O	-0.286493	1.023560	0.000009
C47	C	0.180832	0.887184	-0.000000
C48	C	0.244052	0.888202	-0.000012
N49	N	0.076694	0.893475	0.195685
C50	C	0.021942	1.164795	0.000028
C51	C	0.022892	1.243734	0.000030
C52	C	0.075260	1.273789	0.000020
C53	C	0.126682	1.224901	0.000016
C54	C	0.125732	1.145964	0.000019
C55	C	0.130516	1.543245	0.000003
C56	C	0.131463	1.622188	-0.000003
C57	C	0.027676	1.641015	0.000014
C58	C	0.026726	1.562078	0.000017
C59	C	0.078148	1.513196	0.000018
C60	C	0.077117	1.427602	0.000017
C61	C	0.076291	1.359381	0.000015
N62	N	0.076706	0.893516	-0.195647
C63	C	0.037921	0.945236	0.238958
C64	C	0.037921	0.945240	0.325505
C65	C	0.076696	0.893486	0.368778
C66	C	0.115470	0.841719	0.325498
C67	C	0.115468	0.841713	0.238953
C68	C	0.115481	0.841745	0.674527
C69	C	0.115481	0.841758	0.761078
C70	C	0.037934	0.945273	0.761079
C71	C	0.037932	0.945266	0.674534
C72	C	0.076704	0.893497	0.631262
C73	C	0.076703	0.893493	0.537418
C74	C	0.076700	0.893493	0.462620
H75	H	-0.108645	1.023889	0.000056
H76	H	0.147040	0.799576	0.360736
H77	H	0.147039	0.799563	0.203721
H78	H	0.169322	1.249378	0.000013
H79	H	0.147058	0.799610	0.796309
H80	H	0.174110	1.646655	-0.000007
H81	H	0.172387	1.503454	-0.000001
H82	H	-0.015918	1.537612	0.000022
H83	H	0.167602	1.106164	0.000017
H84	H	-0.083687	0.773512	0.000036
H85	H	0.147051	0.799595	0.639302
H86	H	-0.655139	1.015201	0.000004
H87	H	0.006362	0.987424	0.796320
H88	H	0.006349	0.987383	0.203732
H89	H	-0.216401	1.022182	0.000028
H90	H	0.006359	0.987411	0.639304
H91	H	-0.388773	1.088547	0.000024
H92	H	-0.496522	1.086833	0.000009
H93	H	-0.020702	1.140331	0.000031
H94	H	-0.630189	0.764811	-0.000016
H95	H	-0.018978	1.283531	0.000039
H96	H	-0.191460	0.771791	0.000042
H97	H	-0.014193	1.680824	0.000017
H98	H	-0.762909	1.013478	-0.000006
H99	H	-0.737943	0.763099	-0.000004
H100	H	-0.457808	0.698442	-0.000037
H101	H	0.006349	0.987387	0.360738
H102	H	-0.350054	0.700163	-0.000032
