data_functionalizedCrystal
_audit_creation_method	'MofGen! by Chris Wilmer'
_symmetry_space_group_name_H-M	'P1'
_symmetry_Int_Tables_number	1
_symmetry_cell_setting	triclinic
loop_
_symmetry_equiv_pos_as_xyz
  x,y,z
_cell_length_a	14.044220
_cell_length_b	8.559649
_cell_length_c	7.681481
_cell_angle_alpha	94.904209
_cell_angle_beta	96.264921
_cell_angle_gamma	98.516229
loop_
_atom_site_label
_atom_site_type_symbol
_atom_site_fract_x
_atom_site_fract_y
_atom_site_fract_z
O1	O	1.239912	-0.367620	0.146229
O2	O	1.573246	-0.034287	0.479562
O3	O	1.906579	0.299046	0.812895
O4	O	0.964948	-0.353858	0.146273
O5	O	1.298281	-0.020525	0.479607
O6	O	1.631614	0.312809	0.812940
O7	O	1.126654	-0.131590	0.146245
O8	O	1.459988	0.201743	0.479579
O9	O	1.793321	0.535076	0.812912
O10	O	1.078206	-0.589888	0.146257
O11	O	1.411539	-0.256554	0.479590
O12	O	1.744872	0.076779	0.812923
O13	O	1.106695	-0.158909	-0.146609
O14	O	1.440029	0.174424	0.186724
O15	O	1.773362	0.507757	0.520058
O16	O	0.944989	-0.381177	-0.146581
O17	O	1.278322	-0.047844	0.186753
O18	O	1.611655	0.285490	0.520086
O19	O	1.219953	-0.394939	-0.146626
O20	O	1.553287	-0.061606	0.186708
O21	O	1.886620	0.271727	0.520041
Zn22	Zn	1.079302	-0.392396	-0.193100
Zn23	Zn	1.412635	-0.059062	0.140233
Zn24	Zn	1.745969	0.274271	0.473566
Zn25	Zn	1.105599	-0.356402	0.192748
Zn26	Zn	1.438932	-0.023068	0.526081
Zn27	Zn	1.772266	0.310265	0.859415
O28	O	1.058246	-0.617207	-0.146598
O29	O	1.391580	-0.283873	0.186736
O30	O	1.724913	0.049460	0.520069
C31	C	0.920093	-0.361495	-0.000148
C32	C	1.253426	-0.028161	0.333185
C33	C	1.586759	0.305172	0.666519
C34	C	0.816176	-0.343529	-0.000131
C35	C	1.149509	-0.010196	0.333203
C36	C	1.482842	0.323138	0.666536
N37	N	1.123547	-0.331825	0.456079
N38	N	1.456881	0.001508	0.789412
N39	N	1.790214	0.334842	1.122746
C40	C	1.120347	-0.086243	-0.000179
C41	C	1.453680	0.247090	0.333154
C42	C	1.787013	0.580424	0.666487
C43	C	1.131276	0.089580	-0.000171
C44	C	1.464610	0.422913	0.333162
C45	C	1.797943	0.756247	0.666495
C46	C	0.625902	-0.310691	-0.000166
C47	C	0.959236	0.022642	0.333167
C48	C	1.292569	0.355976	0.666500
C49	C	0.558994	-0.438098	-0.000171
C50	C	0.892328	-0.104764	0.333163
C51	C	1.225661	0.228569	0.666496
C52	C	0.453120	-0.419826	-0.000190
C53	C	0.786453	-0.086493	0.333143
C54	C	1.119786	0.246841	0.666476
C55	C	0.731787	-0.328960	-0.000146
C56	C	1.065121	0.004373	0.333187
C57	C	1.398454	0.337707	0.666520
C58	C	1.264809	-0.387302	-0.000201
C59	C	1.598142	-0.053969	0.333133
C60	C	1.931475	0.279364	0.666466
C61	C	1.368726	-0.405267	-0.000206
C62	C	1.702060	-0.071933	0.333127
C63	C	2.035393	0.261400	0.666460
C64	C	1.064554	-0.662554	-0.000169
C65	C	1.397888	-0.329220	0.333164
C66	C	1.731221	0.004113	0.666497
C67	C	1.053625	-0.838376	-0.000166
C68	C	1.386959	-0.505042	0.333168
C69	C	1.720292	-0.171709	0.666501
N70	N	1.061362	-0.416960	-0.456431
N71	N	1.394695	-0.083627	-0.123098
N72	N	1.728028	0.249706	0.210235
H73	H	0.581227	-0.560897	-0.000159
H74	H	0.914560	-0.227563	0.333174
H75	H	1.247894	0.105770	0.666508
Br76	Br	0.928879	0.040244	-0.000156
Br77	Br	1.262212	0.373577	0.333177
Br78	Br	1.595546	0.706910	0.666511
Br79	Br	1.256026	0.210963	-0.000223
Br80	Br	1.589359	0.544296	0.333110
Br81	Br	1.922692	0.877629	0.666444
H82	H	0.997888	-0.503867	0.468383
H83	H	1.331222	-0.170534	0.801716
H84	H	1.664555	0.162800	1.135050
Br85	Br	0.588849	-0.106028	-0.000180
Br86	Br	0.922183	0.227305	0.333153
Br87	Br	1.255516	0.560639	0.666486
Br88	Br	1.229339	-0.186941	0.581396
Br89	Br	1.562672	0.146393	0.914729
Br90	Br	1.896006	0.479726	1.248063
