data_functionalizedCrystal
_audit_creation_method	'MofGen! by Chris Wilmer'
_symmetry_space_group_name_H-M	'P1'
_symmetry_Int_Tables_number	1
_symmetry_cell_setting	triclinic
loop_
_symmetry_equiv_pos_as_xyz
  x,y,z
_cell_length_a	13.262402
_cell_length_b	13.339070
_cell_length_c	9.730223
_cell_angle_alpha	90.000235
_cell_angle_beta	105.918119
_cell_angle_gamma	99.431904
loop_
_atom_site_label
_atom_site_type_symbol
_atom_site_fract_x
_atom_site_fract_y
_atom_site_fract_z
O1	O	1.432407	0.136473	0.421190
O2	O	1.131141	0.151296	0.308566
O3	O	1.247199	-0.003526	0.351956
O4	O	1.316350	0.291295	0.377799
O5	O	1.247198	-0.003522	0.580536
O6	O	1.131140	0.151300	0.537145
O7	O	1.432407	0.136477	0.649770
Zn8	Zn	1.281773	0.143889	0.629749
Zn9	Zn	1.281774	0.143884	0.328586
O10	O	1.316349	0.291299	0.606379
C11	C	1.091794	0.150465	0.408146
C12	C	0.974551	0.147972	0.364316
C13	C	0.919469	0.146797	0.219122
C14	C	0.809314	0.144464	0.177945
C15	C	0.754229	0.143298	0.281957
C16	C	0.809310	0.144465	0.427153
C17	C	0.919477	0.146807	0.468336
C18	C	0.754238	0.143307	0.531170
C19	C	0.809319	0.144475	0.676367
C20	C	0.919474	0.146815	0.717542
C21	C	0.974559	0.147982	0.613530
C22	C	0.644071	0.140966	0.489988
C23	C	0.644079	0.140976	0.739201
C24	C	0.754234	0.143309	0.780379
C25	C	1.235517	-0.041263	0.461878
C26	C	1.200699	-0.153712	0.448856
C27	C	1.471428	-0.517356	0.550064
C28	C	1.504144	-0.411704	0.562308
C29	C	1.428286	-0.347201	0.533946
C30	C	1.319705	-0.388360	0.493338
C31	C	1.286985	-0.494022	0.481104
C32	C	1.243843	-0.323867	0.464985
C33	C	1.135262	-0.365026	0.424378
C34	C	1.102547	-0.470678	0.412145
C35	C	1.178406	-0.535181	0.440507
C36	C	1.276563	-0.218205	0.477219
C37	C	1.092120	-0.194871	0.408259
C38	C	1.059403	-0.300523	0.396015
C39	C	1.471754	0.137308	0.550186
C40	C	1.588997	0.139801	0.594007
C41	C	1.328031	0.329035	0.496455
C42	C	1.362849	0.441485	0.509468
N43	N	1.281780	0.143892	0.835288
N44	N	1.281774	0.143873	0.123049
C45	C	1.333195	0.075360	0.926437
C46	C	1.333189	0.075348	1.070318
C47	C	1.230352	0.212408	1.031888
C48	C	1.230352	0.212415	0.888008
C49	C	1.392572	-0.003768	0.948627
C50	C	1.392566	-0.003780	1.092508
H51	H	0.664536	0.141398	0.248421
H52	H	1.014134	-0.504185	0.379090
H53	H	1.151773	-0.621212	0.430535
C54	C	1.546085	0.127768	0.990281
C55	C	1.504731	0.029117	0.930329
H56	H	1.615332	0.148071	0.978999
H57	H	1.501112	0.173270	0.943310
H58	H	1.549874	0.128860	1.089200
H59	H	1.500935	0.028027	0.831407
H60	H	1.549715	-0.016397	0.977297
C61	C	0.944980	-0.142443	0.470751
C62	C	1.008728	-0.123978	0.377078
H63	H	0.893507	-0.098666	0.451509
H64	H	0.909956	-0.211248	0.457647
H65	H	0.988244	-0.129920	0.566627
H66	H	0.965464	-0.136508	0.281202
H67	H	1.043753	-0.055156	0.390170
H68	H	0.599230	0.140030	0.823897
H69	H	1.188479	0.268197	1.074828
H70	H	1.188474	0.268210	0.813790
C71	C	0.939869	0.060575	0.937583
C72	C	0.980022	0.148105	0.877143
H73	H	0.977252	0.061371	1.036112
H74	H	0.866389	0.059022	0.927944
H75	H	0.948751	0.001971	0.889694
H76	H	0.971132	0.206710	0.925025
H77	H	1.053519	0.149668	0.886793
C78	C	1.306086	-0.172447	0.975491
C79	C	1.338742	-0.108761	0.875770
H80	H	1.272848	-0.237260	0.930506
H81	H	1.366218	-0.179859	1.052194
H82	H	1.257029	-0.143418	1.011382
H83	H	1.387805	-0.137786	0.839886
H84	H	1.278602	-0.101351	0.799041
C85	C	0.774640	0.057067	1.000420
C86	C	0.814790	0.144596	0.939976
H87	H	0.812031	0.057860	1.098946
H88	H	0.701162	0.055516	0.990794
H89	H	0.783516	-0.001538	0.952525
H90	H	0.805907	0.203202	0.987865
H91	H	0.888285	0.146157	0.949614
C92	C	1.528905	-0.062415	1.276138
C93	C	1.507930	0.019193	1.188370
H94	H	1.600125	-0.048233	1.335312
H95	H	1.481425	-0.071874	1.334299
H96	H	1.519408	-0.122483	1.218321
H97	H	1.517420	0.079260	1.246187
H98	H	1.555425	0.028664	1.130203
H99	H	0.599235	0.140017	0.371768
H100	H	1.346332	-0.077246	1.119841
H101	H	0.764475	0.143514	0.059726
H102	H	0.964330	0.147754	0.134452
H103	H	1.064255	0.149874	0.647049
H104	H	1.364970	-0.184705	0.510282
C105	C	0.915622	-0.405815	0.224753
C106	C	0.940053	-0.345776	0.351391
H107	H	0.841942	-0.433757	0.197211
H108	H	0.932213	-0.365078	0.151262
H109	H	0.956132	-0.459339	0.239912
H110	H	0.899549	-0.292247	0.336228
H111	H	0.923452	-0.386515	0.424898
C112	C	1.424943	-0.189502	0.650215
C113	C	1.464252	-0.231067	0.547407
H114	H	1.447159	-0.117805	0.658529
H115	H	1.349430	-0.204776	0.621962
H116	H	1.451598	-0.217728	0.739882
H117	H	1.437591	-0.202847	0.457736
H118	H	1.539781	-0.215785	0.575653
C119	C	1.671426	-0.399065	0.507351
C120	C	1.623490	-0.366466	0.606935
H121	H	1.745108	-0.371132	0.534901
H122	H	1.662795	-0.471212	0.504131
H123	H	1.638893	-0.376944	0.415487
H124	H	1.656018	-0.388594	0.698798
H125	H	1.632129	-0.294305	0.610170
C126	C	1.503150	-0.689684	0.561930
C127	C	1.554802	-0.588257	0.581241
H128	H	1.554628	-0.733455	0.581174
H129	H	1.459901	-0.702194	0.625465
H130	H	1.459903	-0.702194	0.466044
H131	H	1.598043	-0.575746	0.677132
H132	H	1.598069	-0.575743	0.517705
