data_functionalizedCrystal
_audit_creation_method	'MofGen! by Chris Wilmer'
_symmetry_space_group_name_H-M	'P1'
_symmetry_Int_Tables_number	1
_symmetry_cell_setting	triclinic
loop_
_symmetry_equiv_pos_as_xyz
  x,y,z
_cell_length_a	21.395362
_cell_length_b	12.759394
_cell_length_c	21.395355
_cell_angle_alpha	89.987117
_cell_angle_beta	89.956060
_cell_angle_gamma	90.029736
loop_
_atom_site_label
_atom_site_type_symbol
_atom_site_fract_x
_atom_site_fract_y
_atom_site_fract_z
Zn1	Zn	0.957933	-0.417943	-0.354610
Zn2	Zn	0.957866	-0.593608	-0.249843
Zn3	Zn	0.853148	-0.417992	-0.249811
Zn4	Zn	0.853148	-0.593629	-0.354548
O5	O	0.905524	-0.505793	-0.302203
O6	O	1.045602	-0.441216	-0.340752
O7	O	0.943947	-0.570323	-0.162161
O8	O	0.867076	-0.270964	-0.263726
O9	O	1.045553	-0.570276	-0.263780
O10	O	0.944061	-0.270928	-0.340721
O11	O	0.867011	-0.441299	-0.162138
O12	O	0.765470	-0.441320	-0.263666
O13	O	0.867076	-0.570313	-0.442234
O14	O	0.765470	-0.570360	-0.340615
O15	O	0.944061	-0.441237	-0.442280
O16	O	0.943947	-0.740631	-0.263719
O17	O	0.867011	-0.740647	-0.340645
C18	C	0.742736	-0.505848	-0.302130
C19	C	0.673095	-0.505897	-0.302114
C20	C	0.905489	-0.778760	-0.302193
C21	C	0.905531	-0.895537	-0.302209
C22	C	0.640398	-0.573178	-0.342122
C23	C	0.574963	-0.573152	-0.342150
C24	C	0.542226	-0.505857	-0.302159
C25	C	0.574931	-0.438564	-0.262148
C26	C	0.640365	-0.438584	-0.262126
C27	C	0.438500	-0.497393	-0.245753
C28	C	0.373067	-0.497380	-0.245774
C29	C	0.340406	-0.505788	-0.302228
C30	C	0.373185	-0.514231	-0.358662
C31	C	0.438619	-0.514252	-0.358640
C32	C	0.471274	-0.505827	-0.302179
C33	C	0.236756	-0.573044	-0.342269
C34	C	0.171320	-0.573011	-0.342298
C35	C	0.171290	-0.438429	-0.262291
C36	C	0.236725	-0.438456	-0.262268
C37	C	0.269454	-0.505770	-0.302256
C38	C	0.985636	-0.895341	-0.382444
C39	C	1.025708	-0.950104	-0.422567
C40	C	1.025745	-1.059826	-0.422580
C41	C	0.985705	-1.114787	-0.382468
C42	C	0.945633	-1.060024	-0.342346
C43	C	0.945601	-0.950300	-0.342336
C44	C	0.865526	-1.060220	-0.262115
C45	C	0.865491	-0.950498	-0.262097
C46	C	0.825485	-1.115181	-0.222003
C47	C	0.785415	-1.060418	-0.181877
C48	C	0.785380	-0.950690	-0.181865
C49	C	0.825419	-0.895735	-0.221975
C50	C	1.068947	-0.505738	-0.302276
C51	C	1.138588	-0.505714	-0.302308
C52	C	0.905576	-0.505772	-0.465626
C53	C	0.905598	-0.505762	-0.535268
C54	C	0.905576	-0.231759	-0.302227
C55	C	0.905598	-0.114983	-0.302237
C56	C	0.945682	-0.438550	-0.568006
C57	C	0.945681	-0.438505	-0.633441
C58	C	0.905603	-0.505691	-0.666136
C59	C	0.865510	-0.572908	-0.633390
C60	C	0.865508	-0.572944	-0.567956
C61	C	0.900643	-0.600292	-0.769806
C62	C	0.900650	-0.600258	-0.835239
C63	C	0.905607	-0.505580	-0.867957
C64	C	0.910569	-0.410933	-0.835234
C65	C	0.910567	-0.410968	-0.769800
C66	C	0.905601	-0.505659	-0.737089
C67	C	0.945692	-0.438313	-0.971648
C68	C	0.945687	-0.438266	-1.037084
C69	C	0.865519	-0.572679	-1.037032
C70	C	0.865521	-0.572716	-0.971597
C71	C	0.905611	-0.505535	-0.938908
C72	C	0.905508	-0.505738	-0.139415
C73	C	0.905607	-0.505451	-0.069775
H74	H	0.667042	-0.627988	-0.374684
H75	H	0.548273	-0.383770	-0.229589
C76	C	0.825522	-1.235871	-0.222016
H77	H	0.795934	-1.260758	-0.192385
H78	H	0.865966	-1.260631	-0.211231
H79	H	0.814676	-1.260684	-0.262441
C80	C	1.069739	-0.889651	-0.466699
H81	H	1.093602	-0.937982	-0.490602
H82	H	1.097038	-0.846806	-0.442770
H83	H	1.045732	-0.846885	-0.493965
H84	H	0.752815	-1.105176	-0.149224
H85	H	0.263347	-0.383675	-0.229686
C86	C	0.337016	-0.488092	-0.183701
H87	H	0.365838	-0.483067	-0.150077
H88	H	0.311458	-0.548280	-0.178135
H89	H	0.311517	-0.427179	-0.184591
C90	C	0.821437	-0.646589	-1.072988
H91	H	0.827183	-0.636949	-1.116648
H92	H	0.779341	-0.631243	-1.062234
H93	H	0.830602	-0.717184	-1.062274
C94	C	0.989778	-0.364400	-0.935688
H95	H	1.013643	-0.324349	-0.964560
H96	H	1.017072	-0.404586	-0.910183
H97	H	0.965809	-0.318647	-0.910143
C98	C	0.989783	-0.364328	-1.073096
H99	H	1.013660	-0.324333	-1.044254
H100	H	0.965828	-0.318540	-1.098601
H101	H	1.017074	-0.404506	-1.098645
C102	C	0.821433	-0.646659	-0.935583
H103	H	0.797565	-0.686672	-0.964425
H104	H	0.794141	-0.606493	-0.910034
H105	H	0.845394	-0.692446	-0.910078
C106	C	0.985597	-0.774651	-0.382431
H107	H	1.015178	-0.749762	-0.412068
H108	H	0.996437	-0.749835	-0.342008
H109	H	0.945150	-0.749897	-0.393222
C110	C	0.895199	-0.704362	-0.871230
H111	H	0.895921	-0.690784	-0.914886
H112	H	0.857049	-0.737977	-0.860485
H113	H	0.929278	-0.748547	-0.860530
C114	C	0.895054	-0.704425	-0.733821
H115	H	0.892067	-0.760780	-0.762680
H116	H	0.858702	-0.702935	-0.708319
H117	H	0.930915	-0.713800	-0.708272
H118	H	0.752746	-0.906107	-0.149195
C119	C	0.676333	-0.364579	-0.218113
H120	H	0.647467	-0.324497	-0.194297
H121	H	0.701908	-0.318873	-0.242116
H122	H	0.701808	-0.404718	-0.190760
H123	H	0.465088	-0.490542	-0.199779
H124	H	0.832876	-0.627608	-0.660015
H125	H	0.346594	-0.521076	-0.404632
C126	C	0.825379	-0.775045	-0.221967
H127	H	0.854959	-0.750159	-0.251606
H128	H	0.836218	-0.750221	-0.181546
H129	H	0.784931	-0.750295	-0.232760
H130	H	1.058369	-1.104414	-0.455258
C131	C	0.821422	-0.646896	-0.531943
H132	H	0.797555	-0.686911	-0.560784
H133	H	0.794130	-0.606740	-0.506388
H134	H	0.845391	-0.692681	-0.506444
H135	H	0.144699	-0.627797	-0.374881
H136	H	0.465306	-0.521123	-0.404590
C137	C	0.135291	-0.364400	-0.218303
H138	H	0.164138	-0.324329	-0.194473
H139	H	0.109715	-0.404509	-0.190972
H140	H	0.109814	-0.318670	-0.242332
H141	H	0.548336	-0.627939	-0.374731
C142	C	0.985744	-1.235477	-0.382486
H143	H	1.015345	-1.260220	-0.412125
H144	H	0.945315	-1.260363	-0.393274
H145	H	0.996609	-1.260307	-0.342067
C146	C	0.272762	-0.647073	-0.386260
H147	H	0.243914	-0.687129	-0.410099
H148	H	0.298241	-0.692801	-0.362239
H149	H	0.298335	-0.606950	-0.413592
C150	C	0.916018	-0.306869	-0.733805
H151	H	0.915310	-0.320455	-0.690150
H152	H	0.881943	-0.262681	-0.744500
H153	H	0.954172	-0.273254	-0.744551
H154	H	0.914606	-0.333837	-0.861872
C155	C	0.989774	-0.364645	-0.532052
H156	H	1.013643	-0.324602	-0.560925
H157	H	1.017064	-0.404837	-0.506547
H158	H	0.965811	-0.318883	-0.506508
H159	H	0.978322	-0.383766	-0.660102
