data_functionalizedCrystal
_audit_creation_method	'MofGen! by Chris Wilmer'
_symmetry_space_group_name_H-M	'P1'
_symmetry_Int_Tables_number	1
_symmetry_cell_setting	triclinic
loop_
_symmetry_equiv_pos_as_xyz
  x,y,z
_cell_length_a	13.033286
_cell_length_b	13.031981
_cell_length_c	18.215399
_cell_angle_alpha	97.211043
_cell_angle_beta	82.825818
_cell_angle_gamma	90.919693
loop_
_atom_site_label
_atom_site_type_symbol
_atom_site_fract_x
_atom_site_fract_y
_atom_site_fract_z
Zn1	Zn	1.520220	-0.609021	0.225334
Zn2	Zn	1.498283	-0.781029	0.088840
Zn3	Zn	1.348245	-0.587232	0.119648
Zn4	Zn	1.326400	-0.759160	0.229231
O5	O	1.423287	-0.684111	0.165763
O6	O	1.661215	-0.650109	0.192704
O7	O	1.478342	-0.755356	-0.010057
O8	O	1.389381	-0.446184	0.144929
O9	O	1.645098	-0.776483	0.092423
O10	O	1.515729	-0.462192	0.222576
O11	O	1.368109	-0.612973	0.012577
O12	O	1.201442	-0.591767	0.148708
O13	O	1.352149	-0.739210	0.331698
O14	O	1.185393	-0.718082	0.229218
O15	O	1.494547	-0.628903	0.328835
O16	O	1.457160	-0.922067	0.096202
O17	O	1.330878	-0.905999	0.199346
C18	C	1.156104	-0.650188	0.192729
C19	C	1.041799	-0.635700	0.204281
C20	C	0.982876	-0.691672	0.159753
C21	C	0.864736	-0.676700	0.171691
C22	C	1.389296	-0.951358	0.144867
C23	C	1.374849	-1.065700	0.135943
C24	C	1.430882	-1.124509	0.170430
C25	C	1.415951	-1.242687	0.161207
C26	C	1.691513	-0.718166	0.138692
C27	C	1.805815	-0.732679	0.127156
C28	C	1.423359	-0.684048	0.357715
C29	C	1.423389	-0.684021	0.439514
C30	C	1.457439	-0.415823	0.186754
C31	C	1.471992	-0.301495	0.195699
C32	C	1.423284	-0.684107	-0.025442
C33	C	1.423490	-0.683869	-0.107238
C34	C	1.497567	-0.626526	0.626221
C35	C	1.497583	-0.626497	0.703081
C36	C	1.349304	-0.741366	0.706050
C37	C	1.349284	-0.741388	0.629193
C38	C	1.423421	-0.683970	0.589279
C39	C	1.423457	-0.683920	0.742997
C40	C	1.423474	-0.683889	0.826332
C41	C	1.423404	-0.683999	0.505939
H42	H	1.019893	-0.750679	0.112794
O43	O	1.569437	-0.570672	0.587389
C44	C	1.519328	-0.496802	0.554055
H45	H	1.436779	-0.523198	0.547558
H46	H	1.517728	-0.419136	0.590785
C47	C	1.679650	-0.452949	0.484780
C48	C	1.578264	-0.485373	0.476795
H49	H	1.716007	-0.445894	0.437125
H50	H	1.713411	-0.502713	0.507240
H51	H	1.678303	-0.388230	0.515392
H52	H	1.579613	-0.550096	0.446192
H53	H	1.544505	-0.435619	0.454328
O54	O	0.820458	-0.606432	0.227757
C55	C	0.750918	-0.657272	0.276875
H56	H	0.725017	-0.733164	0.246342
H57	H	0.790842	-0.673876	0.326357
C58	C	0.687827	-0.494645	0.342435
C59	C	0.656007	-0.587854	0.304931
H60	H	0.629283	-0.451825	0.359745
H61	H	0.734680	-0.460393	0.309345
H62	H	0.721098	-0.508496	0.383665
H63	H	0.622750	-0.574004	0.263697
H64	H	0.609146	-0.622103	0.338015
H65	H	0.842825	-0.791695	0.080197
H66	H	1.557959	-0.579718	0.733155
H67	H	1.004781	-0.576700	0.251244
H68	H	1.489904	-1.087369	0.206788
H69	H	1.288946	-0.788116	0.738557
O70	O	1.304286	-1.109934	0.092668
C71	C	1.205059	-1.070795	0.121049
H72	H	1.203539	-1.040473	0.182664
H73	H	1.186017	-1.005154	0.089108
C74	C	1.126308	-1.194915	0.036288
C75	C	1.124440	-1.157681	0.111967
H76	H	1.076577	-1.248508	0.030683
H77	H	1.193160	-1.221282	0.017165
H78	H	1.110444	-1.140206	0.009679
H79	H	1.140317	-1.212387	0.138573
H80	H	1.057589	-1.131326	0.131094
H81	H	1.288898	-0.788164	0.599115
H82	H	1.356916	-1.279824	0.124855
H83	H	1.531018	-1.264358	0.232059
