data_functionalizedCrystal
_audit_creation_method	'MofGen! by Chris Wilmer'
_symmetry_space_group_name_H-M	'P1'
_symmetry_Int_Tables_number	1
_symmetry_cell_setting	triclinic
loop_
_symmetry_equiv_pos_as_xyz
  x,y,z
_cell_length_a	23.532407
_cell_length_b	23.532407
_cell_length_c	22.010155
_cell_angle_alpha	89.991245
_cell_angle_beta	89.989184
_cell_angle_gamma	82.848678
loop_
_atom_site_label
_atom_site_type_symbol
_atom_site_fract_x
_atom_site_fract_y
_atom_site_fract_z
O1	O	0.755269	0.069133	-0.050455
O2	O	0.589406	0.079136	-0.050474
O3	O	0.677339	-0.008797	-0.050453
O4	O	0.667336	0.157066	-0.050476
O5	O	0.677312	-0.008796	0.050597
O6	O	0.589379	0.079137	0.050576
O7	O	0.755242	0.069134	0.050595
Cu8	Cu	0.672308	0.074136	0.059812
Cu9	Cu	0.672340	0.074135	-0.059691
O10	O	0.667309	0.157067	0.050574
C11	C	0.568176	0.078882	0.000049
C12	C	0.504959	0.078116	0.000042
C13	C	0.677071	-0.030013	0.000074
C14	C	0.676305	-0.093230	0.000078
C15	C	0.105856	0.125350	0.000063
C16	C	0.046456	0.124638	0.000067
O17	O	0.009711	0.168424	0.000083
N18	N	0.023830	0.072362	0.000073
C19	C	0.060607	0.020794	0.000082
O20	O	0.035908	-0.023737	0.000088
C21	C	0.120006	0.021506	0.000082
C22	C	0.142629	0.073785	0.000070
C23	C	0.128479	0.177625	0.000051
C24	C	0.187876	0.178336	0.000046
C25	C	0.224649	0.126772	0.000053
C26	C	0.202025	0.074497	0.000065
C27	C	0.156783	-0.030062	0.000096
C28	C	0.216185	-0.029345	0.000097
C29	C	0.238808	0.022934	0.000084
C30	C	0.298194	0.023643	0.000067
N31	N	0.320820	0.075920	0.000061
C32	C	0.284048	0.127484	0.000054
C33	C	-0.064135	0.019302	0.000082
C34	C	-0.123533	0.018589	0.000077
C35	C	-0.137680	0.122434	0.000063
C36	C	-0.078281	0.123146	0.000064
C37	C	-0.041509	0.071578	0.000076
C38	C	0.408784	0.128974	0.000043
C39	C	0.468186	0.129680	0.000035
C40	C	0.482329	0.025836	0.000052
C41	C	0.422932	0.025129	0.000057
C42	C	0.386160	0.076702	0.000054
O43	O	0.334974	-0.020119	0.000054
O44	O	0.308755	0.172007	0.000055
C45	C	0.723539	-0.492333	0.000050
C46	C	0.722827	-0.551733	0.000046
O47	O	0.766613	-0.588478	0.000028
N48	N	0.670551	-0.574359	0.000040
C49	C	0.618983	-0.537582	0.000033
O50	O	0.574452	-0.562281	0.000027
C51	C	0.619695	-0.478182	0.000033
C52	C	0.671974	-0.455560	0.000045
C53	C	0.775814	-0.469710	0.000061
C54	C	0.776525	-0.410313	0.000067
C55	C	0.724961	-0.373540	0.000062
C56	C	0.672685	-0.396164	0.000051
C57	C	0.568127	-0.441406	0.000022
C58	C	0.568844	-0.382004	0.000022
C59	C	0.621123	-0.359381	0.000034
C60	C	0.621832	-0.299995	0.000052
N61	N	0.674109	-0.277368	0.000057
C62	C	0.725673	-0.314141	0.000062
C63	C	0.617491	-0.662324	0.000031
C64	C	0.616778	-0.721722	0.000035
C65	C	0.720623	-0.735869	0.000047
C66	C	0.721335	-0.676470	0.000047
C67	C	0.669767	-0.639698	0.000037
C68	C	0.727163	-0.189405	0.000075
C69	C	0.727869	-0.130003	0.000083
C70	C	0.624025	-0.115860	0.000069
C71	C	0.623318	-0.175257	0.000064
C72	C	0.674891	-0.212029	0.000065
O73	O	0.578070	-0.263215	0.000067
O74	O	0.770196	-0.289433	0.000060
C75	C	0.776472	0.069388	0.000071
C76	C	0.839689	0.070154	0.000073
C77	C	0.667577	0.178283	0.000046
C78	C	0.668343	0.241500	0.000037
N79	N	0.672289	0.074136	0.143865
C80	C	0.706680	0.108500	0.563643
C81	C	0.706687	0.108499	0.627251
O82	O	0.735909	0.137711	0.660141
N83	N	0.672345	0.074134	0.659072
C84	C	0.638000	0.039763	0.627282
O85	O	0.608791	0.010532	0.660189
C86	C	0.637997	0.039761	0.563676
C87	C	0.672336	0.074133	0.531858
C88	C	0.741017	0.142869	0.531825
C89	C	0.741010	0.142870	0.468222
C90	C	0.706666	0.108503	0.436437
C91	C	0.672329	0.074135	0.468255
C92	C	0.603655	0.005388	0.531887
C93	C	0.603656	0.005388	0.468276
C94	C	0.637995	0.039760	0.436458
C95	C	0.637978	0.039769	0.372866
N96	N	0.672319	0.074135	0.341045
C97	C	0.706663	0.108502	0.372830
C98	C	0.638009	0.039769	0.760860
C99	C	0.638008	0.039773	0.824465
C100	C	0.706696	0.108509	0.824429
C101	C	0.706693	0.108507	0.760823
C102	C	0.672350	0.074134	0.729039
C103	C	0.706645	0.108503	0.239259
C104	C	0.706634	0.108503	0.175650
C105	C	0.637948	0.039765	0.175691
C106	C	0.637958	0.039767	0.239295
C107	C	0.672311	0.074137	0.271077
O108	O	0.608772	0.010571	0.339935
O109	O	0.735873	0.137722	0.339916
N110	N	0.672355	0.074138	0.856256
H111	H	0.486602	0.172255	0.000025
H112	H	0.582043	-0.085909	0.000067
H113	H	0.734596	0.136495	0.149747
H114	H	0.206289	0.220908	0.000036
H115	H	0.609985	0.011786	0.149800
H116	H	-0.059867	0.165717	0.000057
H117	H	0.404512	-0.017441	0.000058
H118	H	0.512280	-0.016146	0.000056
H119	H	0.770443	-0.111587	0.000094
H120	H	0.610037	0.011780	0.734985
H121	H	0.734619	0.136490	0.265129
H122	H	0.769159	-0.219337	0.000073
H123	H	0.768987	0.170855	0.557698
H124	H	0.138375	-0.072634	0.000106
H125	H	0.819097	-0.391900	0.000074
H126	H	0.817806	-0.499645	0.000063
H127	H	0.246123	-0.071339	0.000107
H128	H	0.768975	0.170857	0.442322
H129	H	0.575689	-0.022603	0.442401
H130	H	0.378851	0.170970	0.000042
H131	H	0.580748	-0.193677	0.000071
H132	H	0.763906	-0.658056	0.000056
H133	H	0.098544	0.219617	0.000048
H134	H	0.762610	-0.765821	0.000048
H135	H	-0.167632	0.164421	0.000060
H136	H	0.575693	-0.022603	0.557782
H137	H	0.574207	-0.740136	0.000036
H138	H	0.610039	0.011791	0.850366
H139	H	-0.141947	-0.023982	0.000078
H140	H	0.609989	0.011786	0.265202
H141	H	0.734660	0.136493	0.850321
H142	H	0.575496	-0.632386	0.000028
H143	H	-0.034198	-0.022693	0.000086
H144	H	0.525555	-0.459814	0.000009
H145	H	0.526850	-0.352066	0.000013
H146	H	0.734655	0.136496	0.734921
