data_functionalizedCrystal
_audit_creation_method	'MofGen! by Chris Wilmer'
_symmetry_space_group_name_H-M	'P1'
_symmetry_Int_Tables_number	1
_symmetry_cell_setting	triclinic
loop_
_symmetry_equiv_pos_as_xyz
  x,y,z
_cell_length_a	17.038272
_cell_length_b	7.681459
_cell_length_c	8.559649
_cell_angle_alpha	85.069691
_cell_angle_beta	99.554890
_cell_angle_gamma	83.855538
loop_
_atom_site_label
_atom_site_type_symbol
_atom_site_fract_x
_atom_site_fract_y
_atom_site_fract_z
O1	O	-1.008526	-0.146201	0.358155
O2	O	-0.781220	-0.146253	0.352695
O3	O	-0.914899	-0.146221	0.125545
O4	O	-0.874847	-0.146234	0.585305
O5	O	-0.931354	0.146641	0.097522
O6	O	-0.797675	0.146609	0.324672
O7	O	-1.024982	0.146661	0.330132
Zn8	Zn	-0.913941	0.193133	0.322953
Zn9	Zn	-0.892260	-0.192725	0.359874
O10	O	-0.891302	0.146628	0.557283
C11	C	-0.760617	0.000171	0.333714
C12	C	-0.674711	0.000151	0.318886
C13	C	-1.045584	0.000232	0.349114
C14	C	-1.131489	0.000241	0.363943
N15	N	-0.928744	0.456471	0.297755
C16	C	-0.616439	0.000149	0.455039
C17	C	-0.535725	0.000173	0.441093
C18	C	-0.513285	0.000188	0.290994
C19	C	-0.571564	0.000196	0.154831
C20	C	-0.652277	0.000184	0.168777
C21	C	-0.270481	0.000236	0.241725
C22	C	-0.189761	0.000243	0.227790
C23	C	-0.153928	0.000224	0.514053
C24	C	-0.234644	0.000202	0.527987
C25	C	-0.292916	0.000219	0.391823
C26	C	-0.430782	0.000208	0.276737
C27	C	-0.375418	0.000212	0.406081
C28	C	-0.926162	0.000208	0.052416
C29	C	-0.935196	0.000200	-0.123735
N30	N	-0.877457	0.543937	0.385072
C31	C	-0.880039	0.000196	0.630411
C32	C	-0.871004	0.000192	0.806564
H33	H	-0.634703	0.000136	0.577265
O34	O	-0.991175	0.546000	0.191225
C35	C	-0.985360	0.501120	0.036905
H36	H	-0.947977	0.367223	0.045793
H37	H	-0.955445	0.604851	-0.027125
C38	C	-1.115830	0.657301	-0.068096
C39	C	-1.069921	0.492838	-0.057179
H40	H	-1.167991	0.652200	-0.126136
H41	H	-1.119747	0.687544	0.035871
H42	H	-1.090891	0.743726	-0.121450
H43	H	-1.094855	0.406421	-0.003809
H44	H	-1.066011	0.462581	-0.161140
H45	H	-0.809136	0.000184	-0.118349
H46	H	-0.997070	0.000228	-0.198833
O47	O	-0.397101	-0.000041	0.551991
C48	C	-0.357965	-0.151749	0.650146
H49	H	-0.301609	-0.202302	0.604169
H50	H	-0.399901	-0.257961	0.648295
C51	C	-0.403908	-0.043612	0.878446
C52	C	-0.334688	-0.105693	0.821983
H53	H	-0.389553	-0.015207	0.984444
H54	H	-0.430278	0.058594	0.812317
H55	H	-0.438849	-0.132133	0.876890
H56	H	-0.299753	-0.017165	0.823521
H57	H	-0.308311	-0.207884	0.888116
H58	H	-0.252906	0.000169	0.650214
O59	O	-0.167821	0.000196	0.082102
C60	C	-0.084088	0.000241	0.098996
H61	H	-0.054551	-0.055225	0.225401
H62	H	-0.069933	0.140746	0.074833
C63	C	-0.087922	-0.046456	-0.175912
C64	C	-0.051643	-0.114595	-0.020663
H65	H	-0.067907	-0.117286	-0.249727
H66	H	-0.144335	-0.046481	-0.187297
H67	H	-0.076123	0.070629	-0.196025
H68	H	-0.063450	-0.231670	-0.000546
H69	H	0.004770	-0.114594	-0.009278
O70	O	-0.549709	-0.000101	0.009090
C71	C	-0.495547	-0.151751	0.006984
H72	H	-0.503740	-0.257769	0.102548
H73	H	-0.431491	-0.117456	0.031589
C74	C	-0.501782	-0.090305	-0.275023
C75	C	-0.511850	-0.220524	-0.157657
H76	H	-0.511834	-0.132724	-0.376582
H77	H	-0.538269	0.011869	-0.273604
H78	H	-0.448401	-0.061737	-0.254498
H79	H	-0.565232	-0.249073	-0.178173
H80	H	-0.475371	-0.322704	-0.159084
H81	H	-0.106475	0.000214	0.624909
H82	H	-0.488282	0.000169	0.551963
H83	H	-0.317918	0.000252	0.130850
H84	H	-0.699722	0.000185	0.057907
O85	O	-0.815090	0.454031	0.491491
C86	C	-0.844877	0.347415	0.604985
H87	H	-0.907791	0.319968	0.552616
H88	H	-0.847150	0.418357	0.716090
C89	C	-0.712084	0.205909	0.713934
C90	C	-0.789354	0.172185	0.649609
H91	H	-0.677834	0.097821	0.741467
H92	H	-0.692015	0.277742	0.637476
H93	H	-0.713989	0.265032	0.806514
H94	H	-0.787449	0.113084	0.557021
H95	H	-0.809421	0.100337	0.726054
H96	H	-0.412505	0.000269	0.154521
