data_functionalizedCrystal
_audit_creation_method	'MofGen! by Chris Wilmer'
_symmetry_space_group_name_H-M	'P1'
_symmetry_Int_Tables_number	1
_symmetry_cell_setting	triclinic
loop_
_symmetry_equiv_pos_as_xyz
  x,y,z
_cell_length_a	12.759401
_cell_length_b	19.121063
_cell_length_c	12.759393
_cell_angle_alpha	92.404035
_cell_angle_beta	89.979062
_cell_angle_gamma	92.470439
loop_
_atom_site_label
_atom_site_type_symbol
_atom_site_fract_x
_atom_site_fract_y
_atom_site_fract_z
Zn1	Zn	1.588334	-0.279551	-0.611809
Zn2	Zn	2.088334	0.220449	-0.111809
Zn3	Zn	1.580690	-0.397017	-0.443603
Zn4	Zn	2.080690	0.102983	0.056397
Zn5	Zn	1.412630	-0.279588	-0.436146
Zn6	Zn	1.912630	0.220412	0.063854
Zn7	Zn	1.405092	-0.396968	-0.619238
Zn8	Zn	1.905092	0.103032	-0.119238
O9	O	1.496686	-0.338281	-0.527699
O10	O	1.996686	0.161719	-0.027699
O11	O	1.734340	-0.295138	-0.589508
O12	O	2.234340	0.204862	-0.089508
O13	O	1.558352	-0.381476	-0.295595
O14	O	2.058352	0.118524	0.204405
O15	O	1.442291	-0.181299	-0.453218
O16	O	1.942291	0.318701	0.046782
O17	O	1.728724	-0.381440	-0.465928
O18	O	2.228724	0.118560	0.034072
O19	O	1.571380	-0.181271	-0.582277
O20	O	2.071380	0.318729	-0.082277
O21	O	1.434879	-0.295201	-0.290117
O22	O	1.934879	0.204799	0.209883
O23	O	1.264609	-0.295154	-0.460422
O24	O	1.764609	0.204846	0.039578
O25	O	1.429444	-0.381356	-0.765271
O26	O	1.929444	0.118644	-0.265271
O27	O	1.259071	-0.381393	-0.594938
O28	O	1.759071	0.118607	-0.094938
O29	O	1.564071	-0.295090	-0.759813
O30	O	2.064071	0.204910	-0.259813
O31	O	1.551042	-0.495295	-0.473132
O32	O	2.051042	0.004705	0.026868
O33	O	1.422032	-0.495259	-0.602169
O34	O	1.922032	0.004741	-0.102169
C35	C	1.223720	-0.338272	-0.527678
C36	C	1.723720	0.161728	-0.027678
C37	C	1.106942	-0.338286	-0.527694
C38	C	1.606942	0.161714	-0.027694
C39	C	1.049220	-0.383259	-0.597636
C40	C	1.549220	0.116741	-0.097636
C41	C	0.939495	-0.383261	-0.597657
C42	C	1.439495	0.116739	-0.097657
C43	C	0.945226	-0.293316	-0.457786
C44	C	1.445226	0.206684	0.042214
C45	C	1.054948	-0.293311	-0.457771
C46	C	1.554948	0.206689	0.042229
C47	C	1.484918	-0.520761	-0.539289
C48	C	1.984918	-0.020761	-0.039289
C49	C	1.479980	-0.598827	-0.544282
C50	C	1.979980	-0.098827	-0.044282
C51	C	1.544881	-0.635498	-0.479500
C52	C	2.044881	-0.135498	0.020500
C53	C	1.540243	-0.708849	-0.484203
C54	C	2.040243	-0.208849	0.015797
C55	C	1.470697	-0.745528	-0.553682
C56	C	1.970697	-0.245528	-0.053682
C57	C	1.405794	-0.708852	-0.618471
C58	C	1.905794	-0.208852	-0.118471
C59	C	1.410438	-0.635502	-0.613773
C60	C	1.910438	-0.135502	-0.113773
C61	C	1.453316	-0.966997	-0.571229
C62	C	1.953316	-0.466997	-0.071229
C63	C	1.448675	-1.040352	-0.575920
C64	C	1.948675	-0.540352	-0.075920
C65	C	1.583126	-1.040344	-0.441653
C66	C	2.083126	-0.540344	0.058347
C67	C	1.587759	-0.966993	-0.436957
C68	C	2.087759	-0.466993	0.063043
C69	C	1.522860	-0.930323	-0.501749
C70	C	2.022860	-0.430323	-0.001749
C71	C	1.465952	-0.820504	-0.558488
C72	C	1.965952	-0.320504	-0.058488
C73	C	1.527611	-0.855348	-0.496948
C74	C	2.027611	-0.355348	0.003052
C75	C	1.770719	-0.338290	-0.527721
C76	C	2.270719	0.161710	-0.027721
C77	C	1.887495	-0.338294	-0.527731
C78	C	2.387495	0.161706	-0.027731
C79	C	1.496769	-0.338214	-0.801728
C80	C	1.996769	0.161786	-0.301728
C81	C	1.496805	-0.338185	-0.918503
C82	C	1.996805	0.161815	-0.418503
C83	C	1.508529	-0.155088	-0.516087
C84	C	2.008529	0.344912	-0.016087
C85	C	1.513576	-0.077023	-0.511139
C86	C	2.013576	0.422977	-0.011139
C87	C	1.566910	-0.293259	-0.970524
C88	C	2.066910	0.206741	-0.470524
C89	C	1.566930	-0.293229	-1.080246
C90	C	2.066930	0.206771	-0.580246
C91	C	1.426735	-0.383056	-1.085917
C92	C	1.926735	0.116944	-0.585917
C93	C	1.426711	-0.383083	-0.976196
C94	C	1.926711	0.116917	-0.476196
C95	C	1.496667	-0.338298	-0.254733
C96	C	1.996667	0.161702	0.245267
C97	C	1.496848	-0.338128	-0.137946
C98	C	1.996848	0.161872	0.362054
H99	H	1.091550	-0.419879	-0.654575
H100	H	1.591550	0.080121	-0.154575
O101	O	1.602632	-0.815787	-0.422028
O102	O	2.102632	-0.315787	0.077972
H103	H	1.557753	-0.782422	-0.366397
H104	H	2.057753	-0.282422	0.133603
H105	H	1.601508	-0.605639	-0.422919
H106	H	2.101508	-0.105639	0.077081
H107	H	1.101948	-0.256684	-0.400816
H108	H	1.601948	0.243316	0.099184
O109	O	1.351073	-0.431538	-0.920096
O110	O	1.851073	0.068462	-0.420096
H111	H	1.395753	-0.467289	-0.872366
H112	H	1.895753	0.032711	-0.372366
O113	O	1.642533	-0.244767	-1.136361
O114	O	2.142533	0.255233	-0.636361
H115	H	1.693955	-0.276188	-1.188367
H116	H	2.193955	0.223812	-0.688367
H117	H	1.593091	-0.738703	-0.431450
H118	H	2.093091	-0.238703	0.068550
O119	O	1.653154	-1.079892	-0.371802
O120	O	2.153154	-0.579892	0.128198
H121	H	1.638258	-1.137059	-0.386752
H122	H	2.138258	-0.637059	0.113248
O123	O	0.877228	-0.431845	-0.672980
O124	O	1.377228	0.068155	-0.172980
H125	H	0.931818	-0.463147	-0.721552
H126	H	1.431818	0.036853	-0.221552
O127	O	0.889147	-0.244831	-0.382337
O128	O	1.389147	0.255169	0.117663
H129	H	0.803151	-0.252402	-0.394079
H130	H	1.303151	0.247598	0.105921
O131	O	1.642503	-0.244834	-0.908291
O132	O	2.142503	0.255166	-0.408291
H133	H	1.628047	-0.189705	-0.925845
H134	H	2.128047	0.310295	-0.425845
H135	H	1.644389	-0.937130	-0.380382
H136	H	2.144389	-0.437130	0.119618
H137	H	1.409326	-0.850376	-0.615056
H138	H	1.909326	-0.350376	-0.115056
O139	O	1.373670	-1.079917	-0.650869
O140	O	1.873670	-0.579917	-0.150869
H141	H	1.329329	-1.042096	-0.695143
H142	H	1.829329	-0.542096	-0.195143
O143	O	1.340427	-0.595944	-0.683631
O144	O	1.840427	-0.095944	-0.183631
H145	H	1.291276	-0.633770	-0.732724
H146	H	1.791276	-0.133770	-0.232724
H147	H	1.400470	-0.937146	-0.623984
H148	H	1.900470	-0.437146	-0.123984
O149	O	1.330769	-0.748407	-0.693400
O150	O	1.830769	-0.248407	-0.193400
H151	H	1.338429	-0.805573	-0.685773
H152	H	1.838429	-0.305573	-0.185773
H153	H	1.369670	-0.419612	-1.132904
H154	H	1.869670	0.080388	-0.632904
