data_functionalizedCrystal
_audit_creation_method	'MofGen! by Chris Wilmer'
_symmetry_space_group_name_H-M	'P1'
_symmetry_Int_Tables_number	1
_symmetry_cell_setting	triclinic
loop_
_symmetry_equiv_pos_as_xyz
  x,y,z
_cell_length_a	14.044220
_cell_length_b	15.538191
_cell_length_c	14.750779
_cell_angle_alpha	97.569385
_cell_angle_beta	103.816111
_cell_angle_gamma	109.769514
loop_
_atom_site_label
_atom_site_type_symbol
_atom_site_fract_x
_atom_site_fract_y
_atom_site_fract_z
O1	O	1.154940	-0.238903	-0.079805
O2	O	0.881710	-0.230939	-0.079808
O3	O	1.071510	-0.102261	-0.079811
O4	O	0.965140	-0.367580	-0.079803
O5	O	1.125163	-0.065890	0.079839
O6	O	0.935363	-0.194568	0.079841
O7	O	1.208593	-0.202532	0.079844
Zn8	Zn	1.080496	-0.192775	0.105191
Zn9	Zn	1.009807	-0.240696	-0.105155
O10	O	1.018793	-0.331209	0.079847
C11	C	0.874422	-0.209267	0.000016
C12	C	0.772773	-0.198867	0.000014
N13	N	1.128747	-0.160070	0.248746
C14	C	1.215881	-0.224204	0.000018
C15	C	1.317527	-0.234605	0.000013
C16	C	1.503647	-0.253617	0.000015
C17	C	1.586657	-0.179859	0.000013
C18	C	1.690221	-0.190438	0.000014
C19	C	1.400073	-0.243040	0.000014
C20	C	1.109465	-0.049916	0.000011
C21	C	1.142612	0.051870	0.000002
C22	C	0.980838	-0.383555	0.000023
C23	C	0.947688	-0.485342	0.000026
C24	C	0.813274	0.367338	0.000019
C25	C	0.844449	0.462985	0.000021
C26	C	1.019792	0.470695	0.000023
C27	C	0.988631	0.375046	0.000015
C28	C	0.885371	0.323375	0.000014
C29	C	1.060728	0.331082	0.000011
C30	C	1.029571	0.235442	0.000009
C31	C	0.926316	0.183766	0.000011
C32	C	0.854214	0.227735	0.000012
C33	C	1.163989	0.382756	0.000019
C34	C	1.236086	0.338792	0.000015
C35	C	1.204927	0.243149	0.000006
C36	C	1.101673	0.191473	0.000008
C37	C	1.277029	0.199180	0.000005
C38	C	1.245872	0.103540	0.000003
C39	C	1.070516	0.095833	0.000006
N40	N	0.961566	-0.273393	-0.248710
C41	C	0.826822	-0.364692	0.600568
C42	C	0.860638	-0.341781	0.701066
C43	C	1.028716	-0.227886	0.701027
C44	C	0.994912	-0.250783	0.600526
C45	C	0.893965	-0.319188	0.550304
C46	C	1.062055	-0.205280	0.550263
C47	C	1.028256	-0.228179	0.449771
C48	C	0.927314	-0.296583	0.399542
C49	C	0.860166	-0.342088	0.449812
C50	C	1.163004	-0.136880	0.600486
C51	C	1.230147	-0.091376	0.550223
C52	C	1.196345	-0.114271	0.449729
C53	C	1.095404	-0.182675	0.399501
C54	C	1.263493	-0.068766	0.399459
C55	C	1.229694	-0.091666	0.298967
C56	C	1.061604	-0.205574	0.299009
H57	H	1.579921	-0.108783	-0.000059
O58	O	0.713036	0.317070	0.000140
C59	C	0.717549	0.280370	0.082835
H60	H	0.798271	0.275672	0.110406
H61	H	0.705739	0.328513	0.140731
C62	C	0.530244	0.187366	0.023850
C63	C	0.629386	0.181588	0.057709
H64	H	0.475859	0.126434	0.008354
H65	H	0.527202	0.212093	-0.031862
H66	H	0.520418	0.227489	0.072102
H67	H	0.639216	0.141475	0.009453
H68	H	0.632427	0.156851	0.113412
H69	H	1.510359	-0.324703	0.000016
O70	O	0.795451	-0.385830	0.750002
C71	C	0.775037	-0.318742	0.808122
H72	H	0.841428	-0.246777	0.823156
H73	H	0.696085	-0.315586	0.769410
C74	C	0.688163	-0.435325	0.885126
C75	C	0.769711	-0.346938	0.903598
H76	H	0.684872	-0.452719	0.944018
H77	H	0.701912	-0.480525	0.845967
H78	H	0.622378	-0.432684	0.852864
H79	H	0.835494	-0.349583	0.935848
H80	H	0.755972	-0.301739	0.942764
H81	H	0.986429	0.053758	-0.000002
O82	O	0.896051	0.090897	0.000178
C83	C	0.865307	0.075661	0.082848
H84	H	0.904234	0.144006	0.140642
H85	H	0.775269	0.051000	0.064153
C86	C	0.852956	-0.083937	0.049352
C87	C	0.900774	0.000005	0.120339
H88	H	0.874828	-0.130608	0.072477
H89	H	0.873665	-0.073674	-0.006347
H90	H	0.777927	-0.104475	0.033780
H91	H	0.975800	0.020548	0.135901
H92	H	0.880078	-0.010257	0.176041
H93	H	0.770127	0.185660	0.000004
O94	O	0.774257	0.505535	-0.000026
C95	C	0.676449	0.439422	-0.000004
H96	H	0.669788	0.365492	-0.030226
H97	H	0.671914	0.445514	0.076588
C98	C	0.592913	0.549644	-0.025497
C99	C	0.584728	0.458842	-0.062624
H100	H	0.536334	0.561624	-0.064120
H101	H	0.658809	0.594187	-0.025509
H102	H	0.589136	0.554709	0.038328
H103	H	0.588518	0.453781	-0.126444
H104	H	0.518830	0.414298	-0.062625
H105	H	1.103868	0.512779	0.000027
O106	O	0.963477	-0.271895	0.250174
C107	C	0.904000	-0.231297	0.192037
H108	H	0.937480	-0.152062	0.222318
H109	H	0.908860	-0.246295	0.115870
C110	C	0.746116	-0.371041	0.153326
C111	C	0.787232	-0.273725	0.190522
H112	H	0.674087	-0.397215	0.152386
H113	H	0.786187	-0.398394	0.192491
H114	H	0.750176	-0.383527	0.089856
H115	H	0.783184	-0.261241	0.253994
H116	H	0.747157	-0.246370	0.151367
O117	O	1.194446	0.475678	0.000064
C118	C	1.301038	0.511853	0.000048
H119	H	1.342886	0.465804	0.030275
H120	H	1.303637	0.512380	-0.076542
C121	C	1.306032	0.669420	0.025534
C122	C	1.357433	0.612866	0.062667
H123	H	1.340819	0.731730	0.064156
H124	H	1.234218	0.645048	0.025541
H125	H	1.308201	0.669848	-0.038291
H126	H	1.355251	0.612429	0.126485
H127	H	1.429248	0.637239	0.062672
H128	H	1.320162	0.380876	0.000020
H129	H	1.361107	0.241267	0.000015
H130	H	1.304581	0.067745	0.000000
O131	O	0.894647	-0.318840	0.301924
C132	C	0.964352	-0.352526	0.268326
H133	H	1.044548	-0.325160	0.326218
H134	H	0.929677	-0.432679	0.250507
C135	C	0.880506	-0.351626	0.106389
C136	C	0.979007	-0.318008	0.177491
H137	H	0.889543	-0.330338	0.050356
H138	H	0.833542	-0.328935	0.129024
H139	H	0.851620	-0.418419	0.091552
H140	H	1.007885	-0.251217	0.192336
H141	H	1.025977	-0.340687	0.154857
H142	H	0.777960	-0.397783	0.408920
H143	H	0.744617	-0.420387	0.559675
O144	O	1.126720	-0.161432	0.749965
C145	C	1.142169	-0.150995	0.849440
H146	H	1.061794	-0.175890	0.863188
H147	H	1.188092	-0.194826	0.877947
C148	C	1.304300	-0.016177	0.884139
C149	C	1.205582	-0.046747	0.901024
H150	H	1.343421	0.048126	0.915961
H151	H	1.293895	-0.023211	0.817121
H152	H	1.342557	-0.052712	0.907895
H153	H	1.167323	-0.010221	0.877258
H154	H	1.215982	-0.039705	0.968040
O155	O	1.328152	-0.024922	0.599161
C156	C	1.343600	-0.014485	0.698637
H157	H	1.263225	-0.039380	0.712384
H158	H	1.389524	-0.058316	0.727144
C159	C	1.505732	0.120332	0.733336
C160	C	1.407013	0.089763	0.750221
H161	H	1.544852	0.184636	0.765157
H162	H	1.495327	0.113299	0.666317
H163	H	1.543988	0.083798	0.757092
H164	H	1.368754	0.126289	0.726454
H165	H	1.417414	0.096805	0.817237
O166	O	1.361468	-0.002213	0.448297
C167	C	1.351132	0.071675	0.506458
H168	H	1.268851	0.072473	0.476191
H169	H	1.362056	0.060776	0.582619
C170	C	1.537291	0.165051	0.545169
C171	C	1.436235	0.166036	0.507990
H172	H	1.589789	0.223258	0.546119
H173	H	1.544256	0.115271	0.505988
H174	H	1.546379	0.155965	0.608633
H175	H	1.427143	0.175111	0.444524
H176	H	1.429270	0.215821	0.547161
H177	H	1.190522	-0.118241	0.682314
O178	O	1.295027	-0.047344	0.250284
C179	C	1.391381	0.017926	0.316159
H180	H	1.378076	0.038485	0.387804
H181	H	1.453162	-0.015157	0.326832
C182	C	1.447490	0.080893	0.188925
C183	C	1.431147	0.106150	0.276918
H184	H	1.472023	0.135312	0.164718
H185	H	1.382576	0.036917	0.144543
H186	H	1.498971	0.053322	0.197831
H187	H	1.379657	0.133709	0.268008
H188	H	1.496053	0.150133	0.321298
