data_functionalizedCrystal
_audit_creation_method	'MofGen! by Chris Wilmer'
_symmetry_space_group_name_H-M	'P1'
_symmetry_Int_Tables_number	1
_symmetry_cell_setting	triclinic
loop_
_symmetry_equiv_pos_as_xyz
  x,y,z
_cell_length_a	19.121414
_cell_length_b	19.120786
_cell_length_c	16.625539
_cell_angle_alpha	92.471374
_cell_angle_beta	87.584190
_cell_angle_gamma	95.006361
loop_
_atom_site_label
_atom_site_type_symbol
_atom_site_fract_x
_atom_site_fract_y
_atom_site_fract_z
Zn1	Zn	1.063724	-0.234252	0.392440
Zn2	Zn	1.058613	-0.351934	0.252085
Zn3	Zn	0.946057	-0.239296	0.263123
Zn4	Zn	0.941008	-0.356909	0.392378
O5	O	1.002350	-0.295598	0.325007
O6	O	1.161508	-0.245670	0.369228
O7	O	1.043656	-0.337022	0.140717
O8	O	0.965918	-0.140155	0.284922
O9	O	1.157753	-0.332131	0.266110
O10	O	1.052367	-0.136449	0.379931
O11	O	0.960962	-0.254267	0.148826
O12	O	0.846925	-0.259090	0.284863
O13	O	0.957312	-0.340609	0.505219
O14	O	0.843216	-0.345500	0.379826
O15	O	1.047471	-0.250493	0.505264
O16	O	1.038760	-0.451066	0.266051
O17	O	0.952357	-0.454721	0.369123
C18	C	0.819540	-0.303383	0.333536
C19	C	0.741333	-0.306730	0.337203
C20	C	0.706504	-0.263246	0.289571
C21	C	0.633020	-0.266397	0.293016
C22	C	0.594365	-0.313030	0.344098
C23	C	0.629198	-0.356518	0.391731
C24	C	0.702682	-0.353370	0.388281
C25	C	0.372398	-0.324793	0.356980
C26	C	0.298909	-0.327936	0.360428
C27	C	0.302736	-0.237816	0.261711
C28	C	0.376220	-0.234669	0.258270
C29	C	0.411047	-0.278160	0.305900
C30	C	0.519252	-0.316250	0.347622
C31	C	0.486159	-0.274942	0.302370
C32	C	0.994475	-0.478425	0.316399
C33	C	0.991170	-0.556637	0.312741
C34	C	1.034594	-0.591392	0.360531
C35	C	1.031486	-0.664880	0.357095
C36	C	0.984958	-0.703612	0.305864
C37	C	0.941530	-0.668851	0.258072
C38	C	0.944634	-0.595364	0.261512
C39	C	0.973330	-0.925594	0.293002
C40	C	0.970229	-0.999085	0.289564
C41	C	1.060185	-0.995109	0.388589
C42	C	1.063289	-0.921621	0.392021
C43	C	1.019858	-0.886867	0.344232
C44	C	0.981781	-0.778728	0.302349
C45	C	1.023032	-0.811752	0.347752
C46	C	1.185874	-0.287783	0.316445
C47	C	1.264081	-0.284452	0.312796
C48	C	1.002398	-0.295543	0.535316
C49	C	1.002419	-0.295520	0.624937
C50	C	1.010276	-0.112055	0.333665
C51	C	1.013653	-0.033841	0.337354
C52	C	1.002345	-0.295599	0.115516
C53	C	1.002470	-0.295418	0.025898
C54	C	1.002455	-0.295440	0.953115
C55	C	1.002443	-0.295465	0.861806
C56	C	1.002437	-0.295481	0.789029
C57	C	1.002424	-0.295504	0.697714
H58	H	0.267439	-0.365909	0.402030
H59	H	0.597720	-0.394491	0.433319
H60	H	0.731038	-0.388780	0.427068
C61	C	0.264420	-0.189983	0.209317
N62	N	0.235560	-0.153955	0.169848
C63	C	0.896866	-0.557134	0.208938
N64	N	0.860883	-0.528340	0.169339
C65	C	0.890391	-0.711456	0.201666
N66	N	0.851889	-0.743545	0.159159
C67	C	0.749018	-0.211947	0.233377
N68	N	0.781037	-0.173309	0.191047
H69	H	0.400745	-0.360207	0.395764
H70	H	0.487771	-0.354218	0.389214
H71	H	0.517634	-0.236977	0.260777
H72	H	0.604666	-0.230992	0.254225
H73	H	1.072485	-0.559862	0.402246
H74	H	0.407688	-0.196701	0.216668
H75	H	1.060912	-0.780215	0.389468
C76	C	1.079265	-0.703107	0.409658
N77	N	1.115257	-0.731900	0.449247
C78	C	0.930664	-0.821337	0.245921
N79	N	0.892184	-0.853432	0.203394
H80	H	1.101176	-0.890088	0.433738
H81	H	1.095543	-1.023414	0.427497
H82	H	0.937968	-0.897303	0.254089
C83	C	0.919040	-1.041688	0.233206
N84	N	0.880486	-1.073777	0.190760
