data_functionalizedCrystal
_audit_creation_method	'MofGen! by Chris Wilmer'
_symmetry_space_group_name_H-M	'P1'
_symmetry_Int_Tables_number	1
_symmetry_cell_setting	triclinic
loop_
_symmetry_equiv_pos_as_xyz
  x,y,z
_cell_length_a	18.215407
_cell_length_b	19.076808
_cell_length_c	18.215399
_cell_angle_alpha	87.671240
_cell_angle_beta	89.983115
_cell_angle_gamma	92.320961
loop_
_atom_site_label
_atom_site_type_symbol
_atom_site_fract_x
_atom_site_fract_y
_atom_site_fract_z
Zn1	Zn	1.113292	-0.280269	-0.404282
Zn2	Zn	1.613292	0.219731	0.095718
Zn3	Zn	1.108256	-0.397977	-0.276266
Zn4	Zn	1.608256	0.102023	0.223734
Zn5	Zn	0.990225	-0.280286	-0.281234
Zn6	Zn	1.490225	0.219714	0.218766
Zn7	Zn	0.985247	-0.397931	-0.399299
Zn8	Zn	1.485247	0.102069	0.100701
O9	O	1.049255	-0.339116	-0.340270
O10	O	1.549255	0.160884	0.159730
O11	O	1.215608	-0.295895	-0.387307
O12	O	1.715608	0.204105	0.112693
O13	O	1.092575	-0.382392	-0.173940
O14	O	1.592575	0.117608	0.326060
O15	O	1.010741	-0.181788	-0.301722
O16	O	1.510741	0.318212	0.198278
O17	O	1.211908	-0.382375	-0.293255
O18	O	1.711908	0.117625	0.206745
O19	O	1.101158	-0.181775	-0.392124
O20	O	1.601158	0.318225	0.107876
O21	O	1.005858	-0.295925	-0.177590
O22	O	1.505858	0.204075	0.322410
O23	O	0.886581	-0.295880	-0.296889
O24	O	1.386581	0.204120	0.203111
O25	O	1.002257	-0.382296	-0.502945
O26	O	1.502257	0.117704	-0.002945
O27	O	0.882923	-0.382313	-0.383630
O28	O	1.382923	0.117687	0.116370
O29	O	1.096331	-0.295850	-0.506607
O30	O	1.596331	0.204150	-0.006607
O31	O	1.087747	-0.496468	-0.288422
O32	O	1.587747	0.003532	0.211578
O33	O	0.997373	-0.496434	-0.378813
O34	O	1.497373	0.003566	0.121187
C35	C	0.858050	-0.339094	-0.340258
C36	C	1.358050	0.160906	0.159742
C37	C	0.776250	-0.339102	-0.340270
C38	C	1.276250	0.160898	0.159730
C39	C	0.589978	-0.294164	-0.389314
C40	C	1.089978	0.205836	0.110686
C41	C	0.513119	-0.294170	-0.389316
C42	C	1.013119	0.205830	0.110684
C43	C	0.509283	-0.384087	-0.291239
C44	C	1.009283	0.115913	0.208761
C45	C	0.586141	-0.384077	-0.291234
C46	C	1.086141	0.115923	0.208766
C47	C	0.626486	-0.339117	-0.340275
C48	C	1.126486	0.160883	0.159725
C49	C	0.472770	-0.339133	-0.340283
C50	C	0.972770	0.160867	0.159717
C51	C	0.389436	-0.339140	-0.340285
C52	C	0.889436	0.160860	0.159715
C53	C	0.709826	-0.339109	-0.340273
C54	C	1.209826	0.160891	0.159727
C55	C	1.041493	-0.521990	-0.332554
C56	C	1.541493	-0.021990	0.167446
C57	C	1.038240	-0.600224	-0.329277
C58	C	1.538240	-0.100224	0.170723
C59	C	1.083752	-0.636911	-0.374844
C60	C	1.583752	-0.136911	0.125156
C61	C	1.080692	-0.710420	-0.371767
C62	C	1.580692	-0.210420	0.128233
C63	C	1.032124	-0.747241	-0.323118
C64	C	1.532124	-0.247241	0.176882
C65	C	0.986608	-0.710549	-0.277550
C66	C	1.486608	-0.210549	0.222450
C67	C	0.989664	-0.637041	-0.280631
C68	C	1.489664	-0.137041	0.219369
C69	C	1.017936	-0.967094	-0.308854
C70	C	1.517936	-0.467094	0.191146
C71	C	1.014884	-1.040607	-0.305774
C72	C	1.514884	-0.540607	0.194226
C73	C	1.108968	-1.040473	-0.399993
C74	C	1.608968	-0.540473	0.100007
C75	C	1.112024	-0.966964	-0.403067
C76	C	1.612024	-0.466964	0.096933
C77	C	1.066504	-0.930278	-0.357501
C78	C	1.566504	-0.430278	0.142499
N79	N	1.028997	-0.822379	-0.319970
N80	N	1.528997	-0.322379	0.180030
N81	N	1.069628	-0.855141	-0.360654
N82	N	1.569628	-0.355141	0.139346
C83	C	1.241207	-0.339138	-0.340283
C84	C	1.741207	0.160862	0.159717
C85	C	1.323005	-0.339148	-0.340288
C86	C	1.823005	0.160852	0.159712
C87	C	1.049300	-0.339066	-0.532225
C88	C	1.549300	0.160934	-0.032225
C89	C	1.049320	-0.339045	-0.614025
C90	C	1.549320	0.160955	-0.114025
C91	C	1.057067	-0.155528	-0.348033
C92	C	1.557067	0.344472	0.151967
C93	C	1.060396	-0.077294	-0.351341
C94	C	1.560396	0.422706	0.148659
C95	C	1.098334	-0.293972	-0.880993
C96	C	1.598334	0.206028	-0.380993
C97	C	1.098324	-0.293991	-0.804134
C98	C	1.598324	0.206009	-0.304134
C99	C	1.000369	-0.384016	-0.800310
C100	C	1.500369	0.115984	-0.300310
C101	C	1.000383	-0.384000	-0.877168
C102	C	1.500383	0.116000	-0.377168
C103	C	1.049364	-0.338974	-0.917508
C104	C	1.549364	0.161026	-0.417508
C105	C	1.049341	-0.339009	-0.763790
C106	C	1.549341	0.160991	-0.263790
C107	C	1.049331	-0.339030	-0.680456
C108	C	1.549331	0.160970	-0.180456
C109	C	1.049376	-0.338954	-1.000848
C110	C	1.549376	0.161046	-0.500848
C111	C	1.049254	-0.339115	-0.149064
C112	C	1.549254	0.160885	0.350936
C113	C	1.049386	-0.338938	-0.067273
C114	C	1.549386	0.161062	0.432727
H115	H	0.476424	-0.420693	-0.251312
H116	H	0.976424	0.079307	0.248688
Br117	Br	1.164789	-0.232917	-0.754580
Br118	Br	1.664789	0.267083	-0.254580
Br119	Br	0.933894	-0.445116	-0.745559
Br120	Br	1.433894	0.054884	-0.245559
H121	H	1.138217	-0.257308	-0.913836
H122	H	1.638217	0.242692	-0.413836
Br123	Br	1.142448	-0.760208	-0.433623
Br124	Br	1.642448	-0.260208	0.066377
Br125	Br	0.463575	-0.233158	-0.455868
Br126	Br	0.963575	0.266842	0.044132
Br127	Br	0.920683	-0.760519	-0.211536
Br128	Br	1.420683	-0.260519	0.288464
Br129	Br	1.149675	-0.586947	-0.440864
Br130	Br	1.649675	-0.086947	0.059136
H131	H	0.622826	-0.257553	-0.429244
H132	H	1.122826	0.242447	0.070756
Br133	Br	0.635693	-0.445078	-0.224667
Br134	Br	1.135693	0.054922	0.275333
Br135	Br	0.933927	-0.445086	-0.926729
Br136	Br	1.433927	0.054914	-0.426729
H137	H	1.151572	-0.936986	-0.442680
H138	H	1.651572	-0.436986	0.057320
H139	H	0.975331	-1.070584	-0.266159
H140	H	1.475331	-0.570584	0.233841
Br141	Br	0.956150	-0.917315	-0.247024
Br142	Br	1.456150	-0.417315	0.252976
Br143	Br	1.170739	-1.090265	-0.461830
Br144	Br	1.670739	-0.590265	0.038170
H145	H	0.952603	-0.607171	-0.243527
H146	H	1.452603	-0.107171	0.256473
