data_functionalizedCrystal
_audit_creation_method	'MofGen! by Chris Wilmer'
_symmetry_space_group_name_H-M	'P1'
_symmetry_Int_Tables_number	1
_symmetry_cell_setting	triclinic
loop_
_symmetry_equiv_pos_as_xyz
  x,y,z
_cell_length_a	17.000383
_cell_length_b	19.188924
_cell_length_c	16.098538
_cell_angle_alpha	92.711427
_cell_angle_beta	87.475102
_cell_angle_gamma	79.371133
loop_
_atom_site_label
_atom_site_type_symbol
_atom_site_fract_x
_atom_site_fract_y
_atom_site_fract_z
O1	O	1.059590	0.021830	-0.069314
O2	O	1.559590	0.521830	0.430686
O3	O	0.827769	0.047175	-0.069305
O4	O	1.327769	0.547175	0.430695
O5	O	0.950372	-0.067546	-0.069300
O6	O	1.450372	0.432454	0.430700
O7	O	0.936987	0.136551	-0.069319
O8	O	1.436987	0.636551	0.430681
O9	O	0.943210	-0.060869	0.069213
O10	O	1.443210	0.439131	0.569213
O11	O	0.820607	0.053851	0.069208
O12	O	1.320607	0.553851	0.569208
O13	O	1.052429	0.028507	0.069198
O14	O	1.552429	0.528507	0.569198
Zn15	Zn	0.935381	0.042239	0.091195
Zn16	Zn	1.435381	0.542239	0.591195
Zn17	Zn	0.944817	0.033442	-0.091301
Zn18	Zn	1.444817	0.533442	0.408699
O19	O	0.929826	0.143228	0.069194
O20	O	1.429826	0.643228	0.569194
C21	C	0.794529	0.051874	-0.000047
C22	C	1.294529	0.551874	0.499953
C23	C	0.706157	0.055922	-0.000043
C24	C	1.206157	0.555922	0.499957
C25	C	0.946358	-0.090193	-0.000043
C26	C	1.446358	0.409807	0.499957
C27	C	0.945060	-0.167622	-0.000041
C28	C	1.445060	0.332378	0.499959
C29	C	0.205850	0.082055	-0.000076
C30	C	0.705850	0.582055	0.499924
C31	C	0.288886	0.078247	-0.000075
C32	C	0.788886	0.578247	0.499925
C33	C	0.340112	0.012142	-0.000063
C34	C	0.840112	0.512142	0.499937
C35	C	0.308299	-0.050158	-0.000060
C36	C	0.808299	0.449842	0.499940
C37	C	0.225264	-0.046349	-0.000067
C38	C	0.725264	0.453651	0.499933
C39	C	0.591309	-0.002570	-0.000047
C40	C	1.091309	0.497430	0.499953
C41	C	0.674348	-0.006374	-0.000037
C42	C	1.174348	0.493626	0.499963
C43	C	0.654930	0.122031	-0.000054
C44	C	1.154930	0.622031	0.499946
C45	C	0.571894	0.125834	-0.000056
C46	C	1.071894	0.625834	0.499944
C47	C	0.540088	0.063534	-0.000058
C48	C	1.040088	0.563534	0.499942
C49	C	0.424988	0.008248	-0.000059
C50	C	0.924988	0.508248	0.499941
C51	C	0.455213	0.067429	-0.000067
C52	C	0.955213	0.567429	0.499933
C53	C	0.948358	-0.207625	-0.075544
C54	C	1.448358	0.292375	0.424456
C55	C	0.947127	-0.280375	-0.075550
C56	C	1.447127	0.219625	0.424450
C57	C	0.942613	-0.313123	-0.000049
C58	C	1.442613	0.186877	0.499951
C59	C	0.939311	-0.273110	0.075464
C60	C	1.439311	0.226890	0.575464
C61	C	0.940534	-0.200359	0.075469
C62	C	1.440534	0.299641	0.575469
N63	N	0.983091	-0.432624	0.056143
N64	N	1.483091	0.067376	0.556143
N65	N	0.981931	-0.501735	0.056134
N66	N	1.481931	-0.001735	0.556134
C67	C	0.938926	-0.532316	-0.000057
C68	C	1.438926	-0.032316	0.499943
N69	N	0.897136	-0.491178	-0.056251
N70	N	1.397136	0.008822	0.443749
N71	N	0.898300	-0.422062	-0.056244
N72	N	1.398300	0.077938	0.443756
C73	C	0.941286	-0.392008	-0.000045
C74	C	1.441286	0.107992	0.499955
C75	C	0.940889	-0.651204	-0.075572
C76	C	1.440889	-0.151204	0.424428
C77	C	0.939652	-0.723955	-0.075575
C78	C	1.439652	-0.223955	0.424425
C79	C	0.931844	-0.716689	0.075442
C80	C	1.431844	-0.216689	0.575442
C81	C	0.933073	-0.643938	0.075443
C82	C	1.433073	-0.143938	0.575443
C83	C	0.937599	-0.611201	-0.000067
C84	C	1.437599	-0.111201	0.499933
C85	C	1.085668	0.023807	-0.000061
C86	C	1.585668	0.523807	0.499939
C87	C	1.174041	0.019760	-0.000071
C88	C	1.674041	0.519760	0.499929
C89	C	0.933839	0.165875	-0.000065
C90	C	1.433839	0.665875	0.499935
C91	C	0.935138	0.243303	-0.000073
C92	C	1.435138	0.743303	0.499927
N93	N	0.928947	0.048242	0.215744
N94	N	1.428947	0.548242	0.715744
N95	N	0.951257	0.027433	-0.215850
N96	N	1.451257	0.527433	0.284150
C97	C	0.981003	-0.000435	0.259331
C98	C	1.481003	0.499565	0.759331
C99	C	0.976510	0.003771	0.346520
C100	C	1.476510	0.503771	0.846520
C101	C	0.919963	0.056657	0.390120
C102	C	1.419963	0.556657	0.890120
C103	C	0.867901	0.105336	0.346527
C104	C	1.367901	0.605336	0.846527
C105	C	0.872391	0.101127	0.259340
C106	C	1.372391	0.601127	0.759340
C107	C	0.903685	0.071904	0.653369
C108	C	1.403685	0.571904	1.153369
C109	C	0.899200	0.076110	0.740563
C110	C	1.399200	0.576110	1.240563
C111	C	1.007809	-0.025456	0.740550
C112	C	1.507809	0.474544	1.240550
C113	C	1.012297	-0.029658	0.653361
C114	C	1.512297	0.470342	1.153361
C115	C	0.960232	0.019019	0.609775
C116	C	1.460232	0.519019	1.109775
C117	C	0.915370	0.060958	0.479241
C118	C	1.415370	0.560958	0.979241
C119	C	0.964822	0.014714	0.520656
C120	C	1.464822	0.514714	1.020656
H121	H	0.164146	0.135884	-0.000080
H122	H	0.664146	0.635884	0.499920
Br123	Br	0.838628	0.132732	0.538416
Br124	Br	1.338628	0.632732	1.038416
H125	H	0.314780	0.128974	-0.000088
H126	H	0.814780	0.628974	0.499912
H127	H	0.530191	0.179663	-0.000069
H128	H	1.030191	0.679663	0.499931
Br129	Br	1.041558	-0.057062	0.461484
Br130	Br	1.541558	0.442938	0.961484
H131	H	0.680836	0.172752	-0.000055
H132	H	1.180836	0.672752	0.499945
Br133	Br	0.947026	-0.606769	-0.178046
Br134	Br	1.447026	-0.106769	0.321954
Br135	Br	0.743870	-0.096092	-0.000019
Br136	Br	1.243870	0.403908	0.499981
Br137	Br	0.928593	-0.589644	0.177917
Br138	Br	1.428593	-0.089644	0.677917
H139	H	0.565423	-0.053299	-0.000046
H140	H	1.065423	0.446701	0.499954
H141	H	0.413502	0.121250	-0.000081
H142	H	0.913502	0.621250	0.499919
H143	H	0.830000	0.140764	0.223852
H144	H	1.330000	0.640764	0.723852
H145	H	0.853151	0.119180	0.776058
H146	H	1.353151	0.619180	1.276058
Br147	Br	1.078463	-0.091516	0.799704
Br148	Br	1.578463	0.408484	1.299704
H149	H	0.942334	-0.756524	-0.137062
H150	H	1.442334	-0.256524	0.362938
H151	H	0.199368	-0.097077	-0.000064
H152	H	0.699368	0.402923	0.499936
Br153	Br	1.089043	-0.101430	0.594188
Br154	Br	1.589043	0.398570	1.094188
Br155	Br	0.954496	-0.163197	-0.178020
Br156	Br	1.454496	0.336803	0.321980
Br157	Br	0.377819	-0.139872	-0.000048
Br158	Br	0.877819	0.360128	0.499952
H159	H	0.861293	0.111540	0.617889
H160	H	1.361293	0.611540	1.117889
Br161	Br	0.494515	-0.081462	-0.000036
Br162	Br	0.994515	0.418538	0.499964
H163	H	1.027053	-0.043497	0.223837
H164	H	1.527053	0.456503	0.723837
Br165	Br	0.925711	-0.761123	0.177910
Br166	Br	1.425711	-0.261123	0.677910
H167	H	0.949807	-0.312951	-0.137036
H168	H	1.449807	0.187049	0.362964
H169	H	0.935634	-0.299777	0.136938
H170	H	1.435634	0.200223	0.636938
H171	H	0.937845	-0.167788	0.136955
H172	H	1.437845	0.332212	0.636955
H173	H	1.018898	-0.035866	0.382008
H174	H	1.518898	0.464134	0.882008
Br175	Br	0.791151	0.177108	0.405695
Br176	Br	1.291151	0.677108	0.905695
