data_functionalizedCrystal
_audit_creation_method	'MofGen! by Chris Wilmer'
_symmetry_space_group_name_H-M	'P1'
_symmetry_Int_Tables_number	1
_symmetry_cell_setting	triclinic
loop_
_symmetry_equiv_pos_as_xyz
  x,y,z
_cell_length_a	25.639239
_cell_length_b	18.215407
_cell_length_c	25.639234
_cell_angle_alpha	89.990915
_cell_angle_beta	90.021106
_cell_angle_gamma	89.965694
loop_
_atom_site_label
_atom_site_type_symbol
_atom_site_fract_x
_atom_site_fract_y
_atom_site_fract_z
Zn1	Zn	-0.208263	-1.124938	0.295593
Zn2	Zn	-0.295686	-1.124836	0.208158
Zn3	Zn	-0.208259	-1.001889	0.208174
Zn4	Zn	-0.295663	-1.001807	0.295564
O5	O	-0.251968	-1.063368	0.251872
O6	O	-0.219871	-1.227909	0.284000
O7	O	-0.284096	-1.108518	0.134995
O8	O	-0.135095	-1.018289	0.219789
O9	O	-0.284100	-1.227833	0.219762
O10	O	-0.135098	-1.108693	0.284016
O11	O	-0.219865	-1.018190	0.135006
O12	O	-0.219843	-0.898894	0.219761
O13	O	-0.284061	-1.018149	0.368733
O14	O	-0.284057	-0.898834	0.283966
O15	O	-0.219849	-1.108613	0.368755
O16	O	-0.368848	-1.108438	0.219733
O17	O	-0.368831	-1.018050	0.283950
C18	C	-0.251947	-0.872161	0.251862
C19	C	-0.251951	-0.790362	0.251870
C20	C	-0.218572	-0.602207	0.285371
C21	C	-0.218575	-0.525348	0.285372
C22	C	-0.285356	-0.525280	0.218377
C23	C	-0.285350	-0.602138	0.218374
C24	C	-0.251959	-0.640599	0.251874
C25	C	-0.251967	-0.486883	0.251878
C26	C	-0.251971	-0.403549	0.251880
C27	C	-0.251955	-0.723938	0.251872
C28	C	-0.387810	-1.063244	0.251848
C29	C	-0.445924	-1.063258	0.251855
C30	C	-0.806284	-1.110556	0.218491
C31	C	-0.860888	-1.110584	0.218498
O32	O	-0.889121	-1.150670	0.190105
N33	N	-0.888207	-1.063497	0.251907
C34	C	-0.860919	-1.016383	0.285314
O35	O	-0.889170	-0.976335	0.313732
C36	C	-0.806315	-1.016359	0.285309
C37	C	-0.778999	-1.063444	0.251895
C38	C	-0.778968	-1.157638	0.185080
C39	C	-0.724367	-1.157608	0.185073
C40	C	-0.697083	-1.110496	0.218476
C41	C	-0.724399	-1.063414	0.251887
C42	C	-0.779028	-0.969250	0.318719
C43	C	-0.724421	-0.969230	0.318712
C44	C	-0.697105	-1.016315	0.285297
C45	C	-0.642514	-1.016273	0.285284
N46	N	-0.615195	-1.063360	0.251875
C47	C	-0.642479	-1.110472	0.218471
C48	C	-0.975589	-1.016439	0.285322
C49	C	-1.030192	-1.016459	0.285325
C50	C	-1.030157	-1.110661	0.218509
C51	C	-0.975554	-1.110637	0.218505
C52	C	-0.948270	-1.063526	0.251914
C53	C	-0.527814	-1.110406	0.218458
C54	C	-0.473209	-1.110370	0.218452
C55	C	-0.473248	-1.016171	0.285269
C56	C	-0.527849	-1.016204	0.285273
C57	C	-0.555130	-1.063327	0.251866
O58	O	-0.614246	-0.976210	0.313664
O59	O	-0.614222	-1.150520	0.190064
C60	C	-0.115595	-1.063512	0.251908
C61	C	-0.057481	-1.063573	0.251923
C62	C	-0.251953	-1.063383	0.388245
C63	C	-0.251947	-1.063390	0.446359
C64	C	-0.251983	-0.255320	0.251881
C65	C	-0.251975	-0.337119	0.251882
C66	C	-0.251945	-1.063394	0.116030
C67	C	-0.251804	-1.063530	0.057916
C68	C	-0.285316	-1.016334	0.697536
C69	C	-0.285328	-1.016322	0.642931
O70	O	-0.313752	-0.976243	0.614680
N71	N	-0.251905	-1.063418	0.615633
C72	C	-0.218463	-1.110525	0.642942
O73	O	-0.190035	-1.150583	0.614709
C74	C	-0.218449	-1.110534	0.697545
C75	C	-0.251879	-1.063439	0.724841
C76	C	-0.318743	-0.969243	0.724831
C77	C	-0.318731	-0.969258	0.779432
C78	C	-0.285294	-1.016363	0.806737
C79	C	-0.251868	-1.063454	0.779441
C80	C	-0.185006	-1.157637	0.724853
C81	C	-0.184994	-1.157641	0.779460
C82	C	-0.218424	-1.110547	0.806756
C83	C	-0.218419	-1.110573	0.861347
N84	N	-0.251842	-1.063476	0.888645
C85	C	-0.285280	-1.016371	0.861340
C86	C	-0.218495	-1.110502	0.528271
C87	C	-0.218511	-1.110498	0.473669
C88	C	-0.285375	-1.016293	0.473662
C89	C	-0.285361	-1.016302	0.528266
C90	C	-0.251918	-1.063406	0.555570
C91	C	-0.285254	-1.016405	0.976005
C92	C	-0.285241	-1.016425	1.030611
C93	C	-0.218376	-1.110627	1.030613
C94	C	-0.218390	-1.110609	0.976012
C95	C	-0.251831	-1.063492	0.948710
O96	O	-0.190008	-1.150629	0.889633
O97	O	-0.313699	-0.976314	0.889580
H98	H	-0.550021	-1.148780	0.191256
C99	C	-0.945871	-1.161639	0.182164
C100	C	-0.914575	-1.119993	0.148613
C101	C	-0.887232	-1.166954	0.115124
H102	H	-0.924499	-1.193692	0.202121
H103	H	-0.969929	-1.189684	0.162241
H104	H	-0.890519	-1.091961	0.168535
H105	H	-0.935934	-1.087942	0.128645
H106	H	-0.911290	-1.194999	0.095201
H107	H	-0.865863	-1.199005	0.135085
H108	H	-0.865998	-1.138704	0.092353
C109	C	-0.443458	-1.161415	0.182192
C110	C	-0.389798	-1.151296	0.189321
C111	C	-0.362377	-1.198298	0.155925
H112	H	-0.452306	-1.210888	0.189844
H113	H	-0.452403	-1.150677	0.147046
H114	H	-0.380856	-1.162039	0.224459
H115	H	-0.380934	-1.101833	0.181666
H116	H	-0.371323	-1.187560	0.120779
H117	H	-0.371230	-1.247768	0.163579
H118	H	-0.325966	-1.191434	0.160754
H119	H	-0.702129	-1.195951	0.157865
C120	C	-0.321569	-0.965126	0.557966
C121	C	-0.291955	-0.918001	0.589324
C122	C	-0.325293	-0.870852	0.616694
H123	H	-0.341497	-0.937004	0.533939
H124	H	-0.344340	-0.993236	0.579295
H125	H	-0.269193	-0.889894	0.567996
H126	H	-0.272028	-0.946102	0.613360
H127	H	-0.348064	-0.898962	0.638023
H128	H	-0.345219	-0.842735	0.592664
H129	H	-0.305205	-0.838877	0.637977
C130	C	-0.321676	-0.483481	0.182099
C131	C	-0.355241	-0.439360	0.211648
C132	C	-0.388713	-0.400853	0.178248
H133	H	-0.301708	-0.453444	0.159345
H134	H	-0.341590	-0.517332	0.162157
H135	H	-0.335330	-0.405513	0.231582
H136	H	-0.375221	-0.469379	0.234401
H137	H	-0.408627	-0.434704	0.158306
H138	H	-0.368741	-0.370820	0.155495
H139	H	-0.411494	-0.370917	0.198292
H140	H	-0.801177	-1.196005	0.157879
H141	H	-0.953378	-0.978070	0.312526
H142	H	-0.191262	-1.148866	0.550499
H143	H	-0.345971	-0.930880	0.702605
H144	H	-0.312538	-0.633398	0.191093
C145	C	-0.694894	-0.918001	0.355007
C146	C	-0.730508	-0.876765	0.384260
C147	C	-0.703329	-0.829559	0.417695
H148	H	-0.673562	-0.946039	0.377849
H149	H	-0.673636	-0.885900	0.335000
H150	H	-0.751758	-0.908861	0.404266
H151	H	-0.751842	-0.848712	0.361432
H152	H	-0.682070	-0.797459	0.397687
H153	H	-0.681998	-0.857603	0.440533
H154	H	-0.727489	-0.801571	0.437543
C155	C	-0.182347	-0.643872	0.321822
C156	C	-0.193796	-0.625169	0.373533
C157	C	-0.160431	-0.663527	0.407126
H158	H	-0.187093	-0.695156	0.317096
H159	H	-0.147199	-0.631283	0.314264
H160	H	-0.228936	-0.637763	0.381089
H161	H	-0.189048	-0.573892	0.378276
H162	H	-0.125283	-0.650938	0.399567
H163	H	-0.165179	-0.714809	0.402394
H164	H	-0.168191	-0.650838	0.442215
H165	H	-0.157784	-1.195986	0.702639
H166	H	-0.157758	-1.195996	0.801689
C167	C	-0.182412	-0.483572	0.321774
C168	C	-0.212067	-0.439422	0.355225
C169	C	-0.178770	-0.400920	0.388762
H170	H	-0.162515	-0.517403	0.341773
H171	H	-0.159611	-0.453558	0.301831
H172	H	-0.234858	-0.469433	0.375165
H173	H	-0.231963	-0.405576	0.335240
H174	H	-0.155969	-0.370907	0.368819
H175	H	-0.158874	-0.434758	0.408757
H176	H	-0.198885	-0.370955	0.411458
H177	H	-0.191173	-1.148963	0.953787
H178	H	-1.052382	-1.149024	0.191312
H179	H	-0.191153	-1.148981	1.052855
C180	C	-0.557535	-0.964987	0.321461
C181	C	-0.588924	-0.917852	0.291835
C182	C	-0.616269	-0.870658	0.325157
H183	H	-0.578845	-0.993041	0.344275
H184	H	-0.533478	-0.936881	0.341342
H185	H	-0.612979	-0.945954	0.271963
H186	H	-0.567628	-0.889781	0.269022
H187	H	-0.592212	-0.842553	0.345038
H188	H	-0.637576	-0.898719	0.347970
H189	H	-0.637566	-0.838667	0.305061
H190	H	-0.451025	-0.977811	0.312464
H191	H	-1.052428	-0.978110	0.312529
H192	H	-0.312466	-0.978075	1.052832
C193	C	-0.321627	-0.965234	0.946462
C194	C	-0.350907	-0.924020	0.982063
C195	C	-0.384428	-0.876889	0.954867
H196	H	-0.301696	-0.933111	0.925159
H197	H	-0.344443	-0.993348	0.925174
H198	H	-0.328093	-0.895908	1.003342
H199	H	-0.370848	-0.956123	1.003367
H200	H	-0.407245	-0.905003	0.933579
H201	H	-0.364494	-0.844771	0.933565
H202	H	-0.404302	-0.848925	0.979018
C203	C	-0.321620	-0.965172	0.443916
C204	C	-0.314462	-0.975234	0.390255
C205	C	-0.347834	-0.928151	0.362836
H206	H	-0.356771	-0.975855	0.452793
H207	H	-0.313953	-0.915719	0.452833
H208	H	-0.322132	-1.024676	0.381342
H209	H	-0.279317	-0.964546	0.381363
H210	H	-0.340168	-0.878698	0.371753
H211	H	-0.382984	-0.938838	0.371717
H212	H	-0.342979	-0.934966	0.326425
H213	H	-0.801260	-0.930904	0.345926
H214	H	-0.345952	-0.930907	0.801651
C215	C	-0.182163	-1.161664	0.444132
C216	C	-0.152871	-1.202903	0.479738
C217	C	-0.119374	-1.250036	0.452550
H218	H	-0.202111	-1.193770	0.422826
H219	H	-0.159353	-1.133550	0.422847
H220	H	-0.175678	-1.231015	0.501014
H221	H	-0.132912	-1.170816	0.501046
H222	H	-0.096564	-1.221922	0.431265
H223	H	-0.139326	-1.282137	0.431245
H224	H	-0.099492	-1.278017	0.476705
