data_functionalizedCrystal
_audit_creation_method	'MofGen! by Chris Wilmer'
_symmetry_space_group_name_H-M	'P1'
_symmetry_Int_Tables_number	1
_symmetry_cell_setting	triclinic
loop_
_symmetry_equiv_pos_as_xyz
  x,y,z
_cell_length_a	17.077404
_cell_length_b	18.050590
_cell_length_c	17.077396
_cell_angle_alpha	89.970225
_cell_angle_beta	89.980499
_cell_angle_gamma	90.018777
loop_
_atom_site_label
_atom_site_type_symbol
_atom_site_fract_x
_atom_site_fract_y
_atom_site_fract_z
Zn1	Zn	1.200078	-0.295655	-0.443836
Zn2	Zn	1.533412	0.037678	-0.110502
Zn3	Zn	1.866745	0.371012	0.222831
Zn4	Zn	1.199995	-0.419852	-0.312567
Zn5	Zn	1.533329	-0.086519	0.020767
Zn6	Zn	1.866662	0.246814	0.354100
Zn7	Zn	1.068810	-0.295681	-0.312584
Zn8	Zn	1.402143	0.037652	0.020750
Zn9	Zn	1.735477	0.370986	0.354083
Zn10	Zn	1.068788	-0.419808	-0.443790
Zn11	Zn	1.402121	-0.086475	-0.110457
Zn12	Zn	1.735455	0.246859	0.222876
O13	O	1.134418	-0.357749	-0.378194
O14	O	1.467751	-0.024416	-0.044861
O15	O	1.801085	0.308918	0.288473
O16	O	1.309914	-0.312138	-0.426434
O17	O	1.643247	0.021196	-0.093101
O18	O	1.976581	0.354529	0.240232
O19	O	1.182568	-0.403410	-0.202722
O20	O	1.515901	-0.070077	0.130611
O21	O	1.849234	0.263257	0.463945
O22	O	1.086267	-0.191753	-0.330021
O23	O	1.419600	0.141580	0.003313
O24	O	1.752934	0.474914	0.336646
O25	O	1.309853	-0.403385	-0.329992
O26	O	1.643187	-0.070051	0.003342
O27	O	1.976520	0.263282	0.336675
O28	O	1.182709	-0.191734	-0.426451
O29	O	1.516043	0.141600	-0.093118
O30	O	1.849376	0.474933	0.240216
O31	O	1.086187	-0.312182	-0.202734
O32	O	1.419520	0.021151	0.130599
O33	O	1.752853	0.354485	0.463932
O34	O	0.958960	-0.312139	-0.329977
O35	O	1.292294	0.021194	0.003357
O36	O	1.625627	0.354527	0.336690
O37	O	1.086229	-0.403310	-0.553643
O38	O	1.419563	-0.069976	-0.220310
O39	O	1.752896	0.263357	0.113023
O40	O	0.958944	-0.403335	-0.426374
O41	O	1.292277	-0.070002	-0.093040
O42	O	1.625611	0.263332	0.240293
O43	O	1.182688	-0.312095	-0.553677
O44	O	1.516021	0.021239	-0.220343
O45	O	1.849354	0.354572	0.112990
O46	O	1.182546	-0.523771	-0.329948
O47	O	1.515880	-0.190438	0.003386
O48	O	1.849213	0.142896	0.336719
O49	O	1.086149	-0.523739	-0.426357
O50	O	1.419482	-0.190405	-0.093024
O51	O	1.752816	0.142928	0.240310
C52	C	0.930470	-0.357736	-0.378172
C53	C	1.263803	-0.024402	-0.044839
C54	C	1.597137	0.308931	0.288494
C55	C	0.843220	-0.357748	-0.378182
C56	C	1.176554	-0.024414	-0.044848
C57	C	1.509887	0.308919	0.288485
C58	C	0.802242	-0.405305	-0.428295
C59	C	1.135576	-0.071972	-0.094962
C60	C	1.468909	0.261362	0.238372
C61	C	0.720262	-0.405307	-0.428308
C62	C	1.053595	-0.071973	-0.094974
C63	C	1.386928	0.261360	0.238359
C64	C	0.679261	-0.357754	-0.378202
C65	C	1.012594	-0.024421	-0.044869
C66	C	1.345928	0.308912	0.288464
C67	C	0.720245	-0.310192	-0.328087
C68	C	1.053578	0.023142	0.005247
C69	C	1.386911	0.356475	0.338580
C70	C	0.802224	-0.310187	-0.328079
C71	C	1.135557	0.023146	0.005255
C72	C	1.468890	0.356480	0.338588
C73	C	0.549375	-0.310206	-0.328106
C74	C	0.882708	0.023127	0.005228
C75	C	1.216041	0.356460	0.338561
C76	C	0.467390	-0.310212	-0.328112
C77	C	0.800723	0.023121	0.005221
C78	C	1.134057	0.356455	0.338554
C79	C	0.467413	-0.405326	-0.428335
C80	C	0.800746	-0.071993	-0.095001
C81	C	1.134079	0.261341	0.238332
C82	C	0.549392	-0.405321	-0.428327
C83	C	0.882725	-0.071988	-0.094993
C84	C	1.216058	0.261345	0.238340
C85	C	0.590370	-0.357760	-0.378210
C86	C	0.923703	-0.024426	-0.044876
C87	C	1.257037	0.308907	0.288457
C88	C	1.134358	-0.550701	-0.378163
C89	C	1.467691	-0.217368	-0.044829
C90	C	1.801024	0.115965	0.288504
C91	C	1.134404	-0.633247	-0.378176
C92	C	1.467737	-0.299914	-0.044842
C93	C	1.801070	0.033420	0.288491
C94	C	1.186934	-0.832688	-0.325821
C95	C	1.520267	-0.499355	0.007512
C96	C	1.853600	-0.166022	0.340845
C97	C	1.206108	-0.882019	-0.397464
C98	C	1.539442	-0.548686	-0.064131
C99	C	1.872775	-0.215352	0.269203
C100	C	1.134448	-0.784377	-0.378207
C101	C	1.467781	-0.451044	-0.044874
C102	C	1.801115	-0.117711	0.288460
C103	C	1.115353	-0.882128	-0.306596
C104	C	1.448687	-0.548795	0.026737
C105	C	1.782020	-0.215461	0.360070
C106	C	1.134493	-0.930362	-0.378231
C107	C	1.467826	-0.597029	-0.044898
C108	C	1.801159	-0.263696	0.288436
C109	C	1.153660	-0.832621	-0.449887
C110	C	1.486993	-0.499288	-0.116554
C111	C	1.820326	-0.165954	0.216779
C112	C	1.062871	-0.832726	-0.358971
C113	C	1.396205	-0.499392	-0.025638
C114	C	1.729538	-0.166059	0.307695
C115	C	1.082019	-0.882034	-0.430663
C116	C	1.415352	-0.548701	-0.097330
C117	C	1.748685	-0.215368	0.236003
C118	C	1.134424	-0.700279	-0.378192
C119	C	1.467758	-0.366946	-0.044859
C120	C	1.801091	-0.033612	0.288475
C121	C	1.134516	-1.014459	-0.378254
C122	C	1.467849	-0.681126	-0.044920
C123	C	1.801183	-0.347792	0.288413
C124	C	1.339162	-0.357763	-0.378216
C125	C	1.672495	-0.024430	-0.044883
C126	C	2.005829	0.308904	0.288450
C127	C	1.426412	-0.357769	-0.378226
C128	C	1.759745	-0.024436	-0.044892
C129	C	2.093079	0.308898	0.288441
C130	C	1.134465	-0.357694	-0.582938
C131	C	1.467799	-0.024361	-0.249605
C132	C	1.801132	0.308972	0.083728
C133	C	1.134486	-0.357671	-0.670188
C134	C	1.467819	-0.024338	-0.336855
C135	C	1.801152	0.308996	-0.003522
C136	C	1.134500	-0.164043	-0.378243
C137	C	1.467833	0.169290	-0.044909
C138	C	1.801167	0.502623	0.288424
C139	C	1.134535	-0.081498	-0.378263
C140	C	1.467868	0.251836	-0.044930
C141	C	1.801201	0.585169	0.288403
C142	C	1.184713	-0.310172	-0.711197
C143	C	1.518047	0.023162	-0.377864
C144	C	1.851380	0.356495	-0.044530
C145	C	1.184723	-0.310147	-0.793178
C146	C	1.518056	0.023186	-0.459844
C147	C	1.851389	0.356520	-0.126511
C148	C	1.134508	-0.357626	-0.834148
C149	C	1.467841	-0.024293	-0.500814
C150	C	1.801175	0.309041	-0.167481
C151	C	1.084275	-0.405127	-0.793133
C152	C	1.417608	-0.071794	-0.459800
C153	C	1.750941	0.261539	-0.126467
C154	C	1.084262	-0.405148	-0.711154
C155	C	1.417595	-0.071815	-0.377821
C156	C	1.750928	0.261519	-0.044488
C157	C	1.084306	-0.405083	-0.964003
C158	C	1.417640	-0.071750	-0.630670
C159	C	1.750973	0.261584	-0.297337
C160	C	1.084320	-0.405064	-1.045988
C161	C	1.417653	-0.071730	-0.712655
C162	C	1.750987	0.261603	-0.379321
C163	C	1.184767	-0.310082	-1.046027
C164	C	1.518101	0.023252	-0.712693
C165	C	1.851434	0.356585	-0.379360
C166	C	1.184754	-0.310102	-0.964048
C167	C	1.518088	0.023231	-0.630714
C168	C	1.851421	0.356564	-0.297381
C169	C	1.134522	-0.357605	-0.923039
C170	C	1.467855	-0.024272	-0.589706
C171	C	1.801189	0.309062	-0.256372
C172	C	1.134416	-0.357750	-0.174246
C173	C	1.467749	-0.024417	0.159087
C174	C	1.801082	0.308917	0.492420
C175	C	1.134548	-0.357564	-0.086997
C176	C	1.467881	-0.024231	0.246336
C177	C	1.801214	0.309103	0.579670
H178	H	0.686855	-0.271471	-0.287293
H179	H	1.020189	0.061863	0.046040
H180	H	1.353522	0.395196	0.379373
H181	H	0.582772	-0.444047	-0.469122
H182	H	0.916106	-0.110713	-0.135789
H183	H	1.249439	0.222620	0.197544
C184	C	1.175605	-0.803375	-0.531734
C185	C	1.508939	-0.470042	-0.198401
C186	C	1.842272	-0.136708	0.134933
H187	H	1.175483	-0.750746	-0.531218
H188	H	1.508816	-0.417413	-0.197885
H189	H	1.842150	-0.084079	0.135448
H190	H	1.138573	-0.820665	-0.568985
H191	H	1.471907	-0.487331	-0.235651
H192	H	1.805240	-0.153998	0.097682
H193	H	1.226313	-0.820663	-0.545484
H194	H	1.559646	-0.487329	-0.212151
H195	H	1.892979	-0.153996	0.121183
H196	H	0.434044	-0.444050	-0.469144
H197	H	0.767378	-0.110717	-0.135811
H198	H	1.100711	0.222616	0.197523
C199	C	0.847303	-0.257876	-0.272955
C200	C	1.180636	0.075458	0.060378
C201	C	1.513970	0.408791	0.393711
H202	H	0.901999	-0.264677	-0.280132
H203	H	1.235332	0.068656	0.053201
H204	H	1.568665	0.401989	0.386534
H205	H	0.833844	-0.268678	-0.220193
H206	H	1.167178	0.064656	0.113140
H207	H	1.500511	0.397989	0.446473
H208	H	0.833885	-0.207990	-0.284548
H209	H	1.167219	0.125343	0.048786
H210	H	1.500552	0.458676	0.382119
H211	H	1.043353	-0.443819	-0.677766
H212	H	1.376687	-0.110486	-0.344433
H213	H	1.710020	0.222847	-0.011099
H214	H	1.231334	-0.811021	-0.281566
H215	H	1.564667	-0.477687	0.051767
H216	H	1.898000	-0.144354	0.385100
H217	H	1.037653	-0.903564	-0.475026
H218	H	1.370986	-0.570231	-0.141692
H219	H	1.704319	-0.236898	0.191641
H220	H	1.043386	-0.443783	-0.826498
H221	H	1.376719	-0.110450	-0.493164
H222	H	1.710053	0.222884	-0.159831
C223	C	0.981097	-0.803446	-0.336950
C224	C	1.314430	-0.470113	-0.003617
C225	C	1.647764	-0.136780	0.329717
H226	H	0.960976	-0.774483	-0.378821
H227	H	1.294310	-0.441150	-0.045487
H228	H	1.627643	-0.107817	0.287846
H229	H	0.984854	-0.773769	-0.291184
H230	H	1.318188	-0.440436	0.042149
H231	H	1.651521	-0.107103	0.375482
H232	H	0.947004	-0.844030	-0.327268
H233	H	1.280337	-0.510697	0.006066
H234	H	1.613670	-0.177364	0.339399
C235	C	1.287902	-0.911278	-0.419464
C236	C	1.621235	-0.577945	-0.086131
C237	C	1.954569	-0.244611	0.247203
H238	H	1.325119	-0.894387	-0.382185
H239	H	1.658453	-0.561054	-0.048851
H240	H	1.991786	-0.227721	0.284482
H241	H	1.301844	-0.893599	-0.469983
H242	H	1.635177	-0.560266	-0.136650
H243	H	1.968511	-0.226933	0.196683
H244	H	1.287206	-0.963903	-0.419777
H245	H	1.620539	-0.630570	-0.086444
H246	H	1.953872	-0.297237	0.246889
H247	H	1.043429	-0.443724	-1.079344
H248	H	1.376762	-0.110390	-0.746011
H249	H	1.710095	0.222943	-0.412677
H250	H	0.835619	-0.444030	-0.469094
H251	H	1.168953	-0.110697	-0.135761
H252	H	1.502286	0.222636	0.197572
H253	H	0.434009	-0.271482	-0.287321
H254	H	0.767343	0.061852	0.046012
H255	H	1.100676	0.395185	0.379345
C256	C	0.675189	-0.457665	-0.483384
C257	C	1.008522	-0.124332	-0.150051
C258	C	1.341856	0.209002	0.183282
H259	H	0.711349	-0.486004	-0.513203
H260	H	1.044682	-0.152671	-0.179869
H261	H	1.378016	0.180663	0.153464
H262	H	0.643209	-0.429343	-0.517662
H263	H	0.976542	-0.096010	-0.184329
H264	H	1.309876	0.237324	0.149005
H265	H	0.643211	-0.489975	-0.453249
H266	H	0.976544	-0.156642	-0.119916
H267	H	1.309877	0.176692	0.213417
C268	C	1.093504	-0.911500	-0.224774
C269	C	1.426837	-0.578166	0.108559
C270	C	1.760170	-0.244833	0.441893
H271	H	1.130831	-0.894594	-0.187613
H272	H	1.464165	-0.561261	0.145720
H273	H	1.797498	-0.227927	0.479054
H274	H	1.093206	-0.964120	-0.225482
H275	H	1.426539	-0.630787	0.107852
H276	H	1.759873	-0.297454	0.441185
H277	H	1.042998	-0.893889	-0.210742
H278	H	1.376331	-0.560555	0.122591
H279	H	1.709665	-0.227222	0.455924
C280	C	0.594449	-0.257887	-0.272981
C281	C	0.927782	0.075447	0.060352
C282	C	1.261116	0.408780	0.393686
H283	H	0.558291	-0.229571	-0.243136
H284	H	0.891624	0.103762	0.090197
H285	H	1.224957	0.437096	0.423530
H286	H	0.626451	-0.225564	-0.303068
H287	H	0.959784	0.107770	0.030265
H288	H	1.293117	0.441103	0.363599
H289	H	0.626406	-0.286256	-0.238718
H290	H	0.959739	0.047078	0.094615
H291	H	1.293073	0.380411	0.427948
C292	C	1.239947	-0.257940	-0.666137
C293	C	1.573280	0.075393	-0.332804
C294	C	1.906614	0.408726	0.000530
H295	H	1.269855	-0.229642	-0.702305
H296	H	1.603189	0.103691	-0.368971
H297	H	1.936522	0.437024	-0.035638
H298	H	1.274134	-0.286354	-0.634153
H299	H	1.607467	0.046979	-0.300819
H300	H	1.940801	0.380313	0.032514
H301	H	1.209919	-0.225586	-0.634164
H302	H	1.543253	0.107747	-0.300830
H303	H	1.876586	0.441081	0.032503
C304	C	1.239977	-0.257901	-0.838284
C305	C	1.573310	0.075432	-0.504951
C306	C	1.906644	0.408766	-0.171617
H307	H	1.269888	-0.229635	-0.802142
H308	H	1.603222	0.103699	-0.468809
H309	H	1.936555	0.437032	-0.135476
H310	H	1.209973	-0.225529	-0.870267
H311	H	1.543306	0.107804	-0.536934
H312	H	1.876639	0.441137	-0.203600
H313	H	1.274173	-0.286311	-0.870262
H314	H	1.607506	0.047022	-0.536929
H315	H	1.940839	0.380355	-0.203595
H316	H	1.225648	-0.271445	-0.930692
H317	H	1.558982	0.061889	-0.597359
H318	H	1.892315	0.395222	-0.264025
C319	C	1.240031	-0.257838	-1.091133
C320	C	1.573364	0.075495	-0.757799
C321	C	1.906697	0.408828	-0.424466
H322	H	1.232845	-0.264622	-1.145824
H323	H	1.566179	0.068712	-0.812491
H324	H	1.899512	0.402045	-0.479157
H325	H	1.292761	-0.268727	-1.077700
H326	H	1.626095	0.064606	-0.744366
H327	H	1.959428	0.397940	-0.411033
H328	H	1.228571	-0.207936	-1.077712
H329	H	1.561904	0.125397	-0.744379
H330	H	1.895238	0.458731	-0.411046
C331	C	1.029077	-0.457359	-0.918895
C332	C	1.362411	-0.124026	-0.585562
C333	C	1.695744	0.209307	-0.252228
H334	H	0.999186	-0.485646	-0.955035
H335	H	1.332519	-0.152313	-0.621702
H336	H	1.665853	0.181021	-0.288369
H337	H	0.994874	-0.428981	-0.886902
H338	H	1.328207	-0.095647	-0.553569
H339	H	1.661540	0.237686	-0.220235
H340	H	1.059117	-0.489722	-0.886927
H341	H	1.392450	-0.156388	-0.553594
H342	H	1.725784	0.176945	-0.220260
