data_functionalizedCrystal
_audit_creation_method	'MofGen! by Chris Wilmer'
_symmetry_space_group_name_H-M	'P1'
_symmetry_Int_Tables_number	1
_symmetry_cell_setting	triclinic
loop_
_symmetry_equiv_pos_as_xyz
  x,y,z
_cell_length_a	15.297475
_cell_length_b	15.297510
_cell_length_c	17.077396
_cell_angle_alpha	80.350647
_cell_angle_beta	80.315421
_cell_angle_gamma	88.372274
loop_
_atom_site_label
_atom_site_type_symbol
_atom_site_fract_x
_atom_site_fract_y
_atom_site_fract_z
Zn1	Zn	1.278656	0.580789	-0.723476
Zn2	Zn	1.253189	0.727249	-0.610428
Zn3	Zn	1.132180	0.555432	-0.566388
Zn4	Zn	1.106795	0.701822	-0.715818
O5	O	1.192705	0.641323	-0.654027
O6	O	1.397845	0.621471	-0.730115
O7	O	1.237102	0.704487	-0.494738
O8	O	1.172893	0.436238	-0.572000
O9	O	1.379134	0.729075	-0.647059
O10	O	1.280508	0.454867	-0.687412
O11	O	1.148198	0.578254	-0.462383
O12	O	1.006246	0.553598	-0.564575
O13	O	1.129627	0.685737	-0.826681
O14	O	0.987595	0.661149	-0.674360
O15	O	1.255893	0.596815	-0.832307
O16	O	1.212487	0.846435	-0.639634
O17	O	1.104932	0.827753	-0.717064
C18	C	0.965140	0.601863	-0.613858
C19	C	0.867783	0.585003	-0.596695
C20	C	0.554545	0.761831	-0.776698
C21	C	0.646016	0.777678	-0.792823
C22	C	0.701462	0.729511	-0.743792
C23	C	0.665429	0.665493	-0.678635
C24	C	0.573949	0.649649	-0.662505
C25	C	0.720866	0.617329	-0.629599
C26	C	0.684833	0.553312	-0.564441
C27	C	0.593361	0.537470	-0.548315
C28	C	0.537915	0.585638	-0.597345
C29	C	0.812346	0.633173	-0.645729
C30	C	0.831749	0.520991	-0.531535
C31	C	0.740279	0.505144	-0.515411
C32	C	1.153215	0.868876	-0.682318
C33	C	1.136401	0.966238	-0.694461
C34	C	1.313193	1.279500	-0.567607
C35	C	1.328990	1.188023	-0.556194
C36	C	1.280844	1.132573	-0.590760
C37	C	1.216899	1.168607	-0.636741
C38	C	1.201095	1.260092	-0.648150
C39	C	1.168747	1.113165	-0.671303
C40	C	1.104801	1.149199	-0.717284
C41	C	1.089001	1.240675	-0.728691
C42	C	1.137147	1.296126	-0.694125
C43	C	1.184550	1.021680	-0.659893
C44	C	1.072453	1.002272	-0.740436
C45	C	1.056656	1.093748	-0.751850
C46	C	1.421158	0.680938	-0.694354
C47	C	1.518511	0.697819	-0.711538
C48	C	1.232365	1.412884	-0.625655
C49	C	1.249244	1.315534	-0.613582
C50	C	1.192769	0.641268	-0.858773
C51	C	1.192796	0.641244	-0.946023
C52	C	1.258546	0.594938	-0.989944
C53	C	1.258561	0.594911	-1.071923
C54	C	1.192831	0.641195	-1.109981
C55	C	1.127075	0.687503	-1.066054
C56	C	1.127056	0.687524	-0.984075
C57	C	1.127119	0.687456	-1.236923
C58	C	1.127138	0.687436	-1.318908
C59	C	1.258624	0.594843	-1.324771
C60	C	1.258606	0.594865	-1.242793
C61	C	1.192851	0.641173	-1.198871
C62	C	1.192702	0.641324	-0.450079
C63	C	1.192887	0.641130	-0.362829
H64	H	0.564025	0.485352	-0.495252
O65	O	0.847321	0.695250	-0.709116
C66	C	0.828282	0.672366	-0.781075
H67	H	0.815274	0.598047	-0.772007
H68	H	0.887137	0.690390	-0.831402
H69	H	0.767042	0.710156	-0.798003
H70	H	1.036922	1.270009	-0.766121
O71	O	0.790302	0.744983	-0.759590
C72	C	0.810215	0.811829	-0.827601
H73	H	0.755381	0.815038	-0.865686
H74	H	0.876001	0.796045	-0.864941
H75	H	0.815365	0.878453	-0.807171
H76	H	1.073553	0.725184	-1.097046
O77	O	1.063363	0.732364	-1.356007
C78	C	1.077469	0.722391	-1.437775
H79	H	1.150052	0.705449	-1.457347
H80	H	1.060120	0.786943	-1.476034
H81	H	1.033640	0.666717	-1.446065
O82	O	1.322327	0.549834	-0.952983
C83	C	1.318357	0.459225	-0.958812
H84	H	1.249157	0.442667	-0.968440
H85	H	1.333405	0.417276	-0.900859
H86	H	1.369299	0.444463	-1.011848
H87	H	1.073509	0.725221	-0.948313
O88	O	0.705210	0.443083	-0.452039
C89	C	0.643620	0.483705	-0.398137
H90	H	0.659224	0.557453	-0.406622
H91	H	0.648057	0.451756	-0.333635
H92	H	0.573776	0.474755	-0.410565
O93	O	1.025813	0.948400	-0.774121
C94	C	1.084806	0.904029	-0.827028
H95	H	1.149034	0.943497	-0.847533
H96	H	1.053272	0.897473	-0.881685
H97	H	1.099814	0.835240	-0.794650
H98	H	1.124290	1.370615	-0.703417
O99	O	1.296189	1.043713	-0.579822
C100	C	1.323954	1.016971	-0.655209
H101	H	1.299865	1.067071	-0.704341
H102	H	1.295004	0.948944	-0.654532
H103	H	1.399442	1.013272	-0.667715
H104	H	0.876894	0.481771	-0.491610
O105	O	1.322386	0.549757	-1.205832
C106	C	1.318412	0.459149	-1.211666
H107	H	1.249211	0.442596	-1.221296
H108	H	1.333458	0.417196	-1.153714
H109	H	1.369353	0.444388	-1.264703
H110	H	1.236615	0.992349	-0.622455
H111	H	0.675347	0.829803	-0.845873
O112	O	1.322445	0.550055	-1.114700
C113	C	1.370379	0.609710	-1.178299
H114	H	1.327969	0.670726	-1.193368
H115	H	1.388311	0.576051	-1.233586
H116	H	1.433617	0.630592	-1.159373
O117	O	1.322404	0.549858	-1.367539
C118	C	1.308335	0.559770	-1.448058
H119	H	1.235764	0.576736	-1.450881
H120	H	1.325665	0.495183	-1.472105
H121	H	1.352199	0.615403	-1.486298
O122	O	0.500787	0.808582	-0.824441
C123	C	0.526458	0.793408	-0.904282
H124	H	0.598718	0.771255	-0.913489
H125	H	0.518619	0.857209	-0.947809
H126	H	0.482795	0.739493	-0.916110
O127	O	1.391047	1.153114	-0.511432
C128	C	1.368070	1.172215	-0.432604
H129	H	1.322920	1.232827	-0.433298
H130	H	1.430769	1.186284	-0.409002
H131	H	1.331942	1.112983	-0.391772
O132	O	0.449054	0.570263	-0.581822
C133	C	0.422401	0.542577	-0.648911
H134	H	0.472538	0.566718	-0.705271
H135	H	0.354365	0.571529	-0.656935
H136	H	0.418747	0.467098	-0.638778
O137	O	1.359876	1.333488	-0.534090
C138	C	1.332181	1.421950	-0.553986
H139	H	1.301338	1.429455	-0.611050
H140	H	1.391776	1.468057	-0.564577
H141	H	1.281034	1.439870	-0.502421
O142	O	0.994642	1.128875	-0.796582
C143	C	1.035359	1.190333	-0.862712
H144	H	1.099395	1.215506	-0.848496
H145	H	0.988565	1.248503	-0.874931
H146	H	1.051042	1.156691	-0.918181
H147	H	1.073563	0.725150	-1.201161
