data_functionalizedCrystal
_audit_creation_method	'MofGen! by Chris Wilmer'
_symmetry_space_group_name_H-M	'P1'
_symmetry_Int_Tables_number	1
_symmetry_cell_setting	triclinic
loop_
_symmetry_equiv_pos_as_xyz
  x,y,z
_cell_length_a	10.685980
_cell_length_b	16.625545
_cell_length_c	10.685880
_cell_angle_alpha	85.662549
_cell_angle_beta	80.918858
_cell_angle_gamma	85.609419
loop_
_atom_site_label
_atom_site_type_symbol
_atom_site_fract_x
_atom_site_fract_y
_atom_site_fract_z
Zn1	Zn	1.995671	0.265673	-0.866651
Zn2	Zn	2.495671	0.765673	-0.366651
Zn3	Zn	1.979228	0.390940	-0.654384
Zn4	Zn	2.479228	0.890940	-0.154384
Zn5	Zn	1.767111	0.265715	-0.638123
Zn6	Zn	2.267111	0.765715	-0.138123
Zn7	Zn	1.783336	0.410063	-0.850286
Zn8	Zn	2.283336	0.910063	-0.350286
O9	O	1.881336	0.333098	-0.752361
O10	O	2.381336	0.833098	-0.252361
O11	O	2.171124	0.274269	-0.852147
O12	O	2.671124	0.774269	-0.352147
O13	O	1.937419	0.366343	-0.474602
O14	O	2.437419	0.866343	0.025398
O15	O	1.797521	0.152875	-0.668482
O16	O	2.297521	0.652875	-0.168482
O17	O	2.159044	0.366302	-0.696196
O18	O	2.659044	0.866302	-0.196196
O19	O	1.965443	0.152844	-0.836380
O20	O	2.465443	0.652844	-0.336380
O21	O	1.781577	0.274342	-0.462655
O22	O	2.281577	0.774342	0.037345
O23	O	1.591628	0.292884	-0.652613
O24	O	2.091628	0.792884	-0.152613
O25	O	1.825174	0.398894	-1.030082
O26	O	2.325174	0.898894	-0.530082
O27	O	1.603549	0.398936	-0.808488
O28	O	2.103549	0.898936	-0.308488
O29	O	1.981175	0.292812	-1.042105
O30	O	2.481175	0.792812	-0.542105
O31	O	1.953152	0.506311	-0.680327
O32	O	2.453152	1.006311	-0.180327
O33	O	1.809230	0.520361	-0.824255
O34	O	2.309230	1.020361	-0.324255
C35	C	1.551530	0.347990	-0.727011
C36	C	2.051530	0.847990	-0.227011
C37	C	1.410439	0.354382	-0.716196
C38	C	1.910439	0.854382	-0.216196
C39	C	1.881204	0.542593	-0.752310
C40	C	2.381204	1.042593	-0.252310
C41	C	1.881267	0.632212	-0.752340
C42	C	2.381267	1.132212	-0.252340
C43	C	1.881486	0.960385	-0.752508
C44	C	2.381486	1.460385	-0.252508
C45	C	1.881421	0.869078	-0.752464
C46	C	2.381421	1.369078	-0.252464
C47	C	1.881375	0.796302	-0.752423
C48	C	2.381375	1.296302	-0.252423
C49	C	1.881313	0.704988	-0.752381
C50	C	2.381313	1.204988	-0.252381
C51	C	2.212431	0.318148	-0.777811
C52	C	2.712431	0.818148	-0.277811
C53	C	2.353523	0.311777	-0.788656
C54	C	2.853523	0.811777	-0.288656
C55	C	1.906819	0.347981	-1.083437
C56	C	2.406819	0.847981	-0.583437
C57	C	1.917678	0.354324	-1.224523
C58	C	2.417678	0.854324	-0.724523
C59	C	1.881496	1.122786	-0.752456
C60	C	2.381496	1.622786	-0.252456
C61	C	1.881540	1.033166	-0.752533
C62	C	2.381540	1.533166	-0.252533
C63	C	1.856026	0.318211	-0.422578
C64	C	2.356026	0.818211	0.077422
C65	C	1.845413	0.311630	-0.281513
C66	C	2.345413	0.811630	0.218487
H67	H	1.351222	0.395751	-0.645876
H68	H	1.851222	0.895751	-0.145876
H69	H	1.412733	0.270405	-0.858963
H70	H	1.912733	0.770405	-0.358963
H71	H	1.775227	0.270228	-1.222369
H72	H	2.275227	0.770228	-0.722369
H73	H	1.987863	0.395732	-1.283672
H74	H	2.487863	0.895732	-0.783672
