data_functionalizedCrystal
_audit_creation_method	'MofGen! by Chris Wilmer'
_symmetry_space_group_name_H-M	'P1'
_symmetry_Int_Tables_number	1
_symmetry_cell_setting	triclinic
loop_
_symmetry_equiv_pos_as_xyz
  x,y,z
_cell_length_a	6.817900
_cell_length_b	17.253917
_cell_length_c	10.773894
_cell_angle_alpha	100.014688
_cell_angle_beta	96.645922
_cell_angle_gamma	102.659311
loop_
_atom_site_label
_atom_site_type_symbol
_atom_site_fract_x
_atom_site_fract_y
_atom_site_fract_z
V1	V	-3.947573	-0.108251	-0.400460
O2	O	-3.938044	0.008241	-0.380664
O3	O	-3.898237	-0.217566	-0.409429
O4	O	-3.865271	-0.105252	-0.569773
O5	O	-3.971237	-0.104850	-0.219210
V6	V	-4.435715	-0.094474	-0.377359
O7	O	-4.198699	-0.138470	-0.451135
O8	O	-4.634786	-0.064255	-0.326684
O9	O	-4.261844	0.014841	-0.368390
O10	O	-4.562641	-0.210966	-0.397156
O11	O	-4.529447	-0.097875	-0.558609
O12	O	-4.294810	-0.097473	-0.208046
C13	C	-3.744107	-0.244256	-0.406133
C14	C	-3.784830	-0.333614	-0.414595
C15	C	-3.786704	-0.364984	-0.303205
C16	C	-3.824986	-0.448946	-0.311160
C17	C	-3.861380	-0.501537	-0.430506
C18	C	-3.859510	-0.470162	-0.541905
C19	C	-3.821242	-0.386202	-0.533949
C20	C	-3.977693	-0.753781	-0.466672
C21	C	-4.015956	-0.837746	-0.474620
C22	C	-3.981434	-0.816524	-0.243873
C23	C	-3.943155	-0.732563	-0.235928
C24	C	-3.941299	-0.701196	-0.347327
N25	N	-3.900505	-0.587360	-0.438641
N26	N	-3.902189	-0.615375	-0.339192
C27	C	-3.702055	-0.100988	-0.610666
C28	C	-3.716042	-0.099259	-0.749157
C29	C	-3.894091	-0.102255	-0.817338
C30	C	-3.908552	-0.100468	-0.960476
C31	C	-4.079317	0.041527	-0.371683
C32	C	-4.017831	0.130884	-0.363229
C33	C	-4.121369	-0.101740	-0.167147
C34	C	-4.086621	-0.103464	-0.028654
H35	H	-3.826515	-0.474483	-0.220454
H36	H	-3.889159	-0.512988	-0.639080
C37	C	-3.719440	-0.095408	-1.023800
C38	C	-3.640777	-0.162741	-1.012314
C39	C	-3.466559	-0.158101	-1.070618
H40	H	-3.754015	-0.094931	-1.111594
H41	H	-3.620021	-0.047065	-0.983326
H42	H	-3.740176	-0.211072	-1.052791
H43	H	-3.606157	-0.163232	-0.924534
H44	H	-3.367140	-0.109758	-1.030144
H45	H	-3.501153	-0.157622	-1.158409
H46	H	-3.413154	-0.203781	-1.062822
H47	H	-3.982952	-0.842073	-0.153179
H48	H	-3.913535	-0.689749	-0.138743
H49	H	-4.035818	-0.106136	-0.769739
C50	C	-3.526899	-0.093907	-0.812482
C51	C	-3.380889	-0.022557	-0.752655
C52	C	-3.206629	-0.017593	-0.810962
H53	H	-3.473002	-0.139484	-0.804858
H54	H	-3.561633	-0.093349	-0.900247
H55	H	-3.346154	-0.023122	-0.664912
H56	H	-3.434720	0.023032	-0.760275
H57	H	-3.241363	-0.017034	-0.898727
H58	H	-3.152751	-0.063173	-0.803335
H59	H	-3.107548	0.030822	-0.770386
C60	C	-4.055554	-0.894718	-0.604328
C61	C	-4.045802	-0.849280	-0.700188
C62	C	-4.082298	-0.901734	-0.819683
H63	H	-3.955589	-0.925346	-0.608162
H64	H	-4.186923	-0.930487	-0.616536
H65	H	-3.914452	-0.813525	-0.687983
H66	H	-4.145765	-0.818653	-0.696396
H67	H	-4.213666	-0.937503	-0.831892
H68	H	-3.982328	-0.932360	-0.823504
H69	H	-4.075705	-0.870913	-0.884739
H70	H	-4.228366	-0.107355	-0.981065
C71	C	-3.747355	-0.308024	-0.173510
C72	C	-3.757255	-0.353474	-0.077666
C73	C	-3.721059	-0.301034	0.041826
H74	H	-3.616040	-0.272221	-0.161162
H75	H	-3.847435	-0.277433	-0.169810
H76	H	-3.657180	-0.384051	-0.081363
H77	H	-3.888556	-0.389275	-0.089971
H78	H	-3.821140	-0.270442	0.045526
H79	H	-3.589745	-0.265233	0.054160
H80	H	-3.727790	-0.331863	0.106869
C81	C	-3.976072	-0.719701	-0.587595
C82	C	-4.125820	-0.675962	-0.596073
C83	C	-4.124411	-0.644566	-0.707466
H84	H	-3.846320	-0.684749	-0.585170
H85	H	-4.003328	-0.763034	-0.659842
H86	H	-4.098550	-0.632635	-0.523845
H87	H	-4.255593	-0.710898	-0.598519
H88	H	-4.151668	-0.687898	-0.779713
H89	H	-3.994653	-0.609617	-0.705031
H90	H	-4.226025	-0.614892	-0.713239
H91	H	-3.819739	-0.360663	-0.624656
