data_functionalizedCrystal
_audit_creation_method	'MofGen! by Chris Wilmer'
_symmetry_space_group_name_H-M	'P1'
_symmetry_Int_Tables_number	1
_symmetry_cell_setting	triclinic
loop_
_symmetry_equiv_pos_as_xyz
  x,y,z
_cell_length_a	19.188930
_cell_length_b	19.188940
_cell_length_c	18.266242
_cell_angle_alpha	90.011404
_cell_angle_beta	90.015506
_cell_angle_gamma	83.146747
loop_
_atom_site_label
_atom_site_type_symbol
_atom_site_fract_x
_atom_site_fract_y
_atom_site_fract_z
O1	O	0.926144	0.087174	0.061117
O2	O	0.722833	0.098908	0.061067
O3	O	0.830352	-0.008614	0.061088
O4	O	0.818625	0.194696	0.061096
O5	O	0.830350	-0.008631	-0.060674
O6	O	0.722831	0.098891	-0.060695
O7	O	0.926142	0.087157	-0.060645
Zn8	Zn	0.824487	0.093022	-0.080002
Zn9	Zn	0.824489	0.093044	0.080424
O10	O	0.818623	0.194679	-0.060666
C11	C	0.696821	0.098520	0.000179
C12	C	0.619317	0.097379	0.000160
C13	C	0.574395	0.160470	0.000174
C14	C	0.501571	0.159398	0.000182
C15	C	0.473672	0.095232	0.000191
C16	C	0.518604	0.032133	0.000173
C17	C	0.591426	0.033207	0.000157
N18	N	0.365691	0.046191	0.041659
N19	N	0.296512	0.045176	0.041675
C20	C	0.254264	0.091994	0.000236
N21	N	0.283805	0.139877	-0.041212
N22	N	0.352990	0.140894	-0.041225
C23	C	0.394710	0.094061	0.000207
C24	C	0.130377	0.153927	0.000257
C25	C	0.057553	0.152853	0.000261
C26	C	0.074587	0.025586	0.000259
C27	C	0.147410	0.026662	0.000248
C28	C	0.175301	0.090835	0.000251
C29	C	0.829970	-0.034633	0.000207
C30	C	0.828827	-0.112138	0.000207
C31	C	0.820691	-0.665406	-0.066150
C32	C	0.821758	-0.592581	-0.066154
C33	C	0.822296	-0.556153	0.000218
C34	C	0.821749	-0.592552	0.066598
C35	C	0.820675	-0.665374	0.066600
N36	N	0.863713	-0.447122	0.049630
N37	N	0.864734	-0.377944	0.049623
C38	C	0.825530	-0.336744	0.000216
N39	N	0.785273	-0.367335	-0.049196
N40	N	0.784255	-0.436520	-0.049192
C41	C	0.823460	-0.477189	0.000223
C42	C	0.827228	-0.221388	-0.066164
C43	C	0.828291	-0.148561	-0.066166
C44	C	0.828288	-0.148534	0.066589
C45	C	0.827219	-0.221358	0.066588
C46	C	0.826692	-0.257781	0.000209
C47	C	0.952154	0.087546	0.000244
C48	C	1.029659	0.088686	0.000268
C49	C	0.819005	0.220699	0.000217
C50	C	0.820148	0.298203	0.000221
N51	N	0.824490	0.093006	-0.189489
N52	N	0.824491	0.093054	0.189911
C53	C	0.866606	0.135345	0.772219
C54	C	0.866611	0.135349	0.695574
C55	C	0.824487	0.093021	0.657224
C56	C	0.782369	0.050673	0.695525
C57	C	0.782370	0.050666	0.772168
N58	N	0.763347	0.091191	0.536869
N59	N	0.763348	0.091202	0.464061
C60	C	0.824482	0.093039	0.426301
N61	N	0.885617	0.094880	0.464101
N62	N	0.885615	0.094872	0.536915
C63	C	0.824482	0.093024	0.574117
C64	C	0.866608	0.135384	0.304902
C65	C	0.866614	0.135383	0.228256
C66	C	0.782365	0.050711	0.228208
C67	C	0.782365	0.050709	0.304853
C68	C	0.824485	0.093049	0.343196
H69	H	0.183987	-0.024713	0.000240
O70	O	0.822329	-0.553262	0.138184
H71	H	0.774540	-0.560857	0.169992
H72	H	0.820232	-0.695003	0.120650
O73	O	0.160465	0.223138	0.000244
H74	H	0.142419	0.253458	0.049869
H75	H	0.748067	0.016235	0.336031
H76	H	0.748068	0.016246	0.196984
O77	O	0.826648	-0.260679	-0.137753
H78	H	0.827192	-0.223134	-0.183908
H79	H	0.900905	0.169860	0.336123
O80	O	0.912035	0.181015	0.654255
H81	H	0.896559	0.236841	0.668970
H82	H	0.900915	0.169858	0.197080
O83	O	0.820118	-0.704692	-0.137741
H84	H	0.772746	-0.684357	-0.169580
H85	H	0.495884	-0.020111	0.000190
H86	H	0.826781	-0.250989	0.120635
H87	H	0.900906	0.169819	0.803433
O88	O	0.453106	0.227448	0.000194
H89	H	0.419539	0.230000	0.049826
O90	O	0.828884	-0.109306	-0.137755
H91	H	0.828347	-0.146872	-0.183908
H92	H	0.597098	0.212724	0.000178
H93	H	0.748073	0.016187	0.803345
H94	H	0.628002	-0.018171	0.000146
H95	H	0.020977	0.204231	0.000268
H96	H	0.051873	-0.026659	0.000311
O97	O	0.822354	-0.553318	-0.137743
H98	H	0.821813	-0.590881	-0.183898
O99	O	0.828868	-0.109256	0.138179
H100	H	0.829710	-0.052504	0.127029
O101	O	0.736930	0.005021	0.654168
H102	H	0.743998	0.012145	0.594439
