data_functionalizedCrystal
_audit_creation_method	'MofGen! by Chris Wilmer'
_symmetry_space_group_name_H-M	'P1'
_symmetry_Int_Tables_number	1
_symmetry_cell_setting	triclinic
loop_
_symmetry_equiv_pos_as_xyz
  x,y,z
_cell_length_a	10.723024
_cell_length_b	10.723024
_cell_length_c	7.540329
_cell_angle_alpha	89.997572
_cell_angle_beta	89.997341
_cell_angle_gamma	84.467869
loop_
_atom_site_label
_atom_site_type_symbol
_atom_site_fract_x
_atom_site_fract_y
_atom_site_fract_z
O1	O	1.657186	0.175025	-0.147466
O2	O	1.294034	0.191779	-0.147472
O3	O	1.483986	0.001826	-0.147462
O4	O	1.467233	0.364978	-0.147476
O5	O	1.483975	0.001823	0.147503
O6	O	1.294022	0.191776	0.147493
O7	O	1.657175	0.175023	0.147499
Cu8	Cu	1.475597	0.183399	0.174429
Cu9	Cu	1.475611	0.183402	-0.174402
O10	O	1.467222	0.364976	0.147490
C11	C	1.247528	0.190558	0.000010
C12	C	1.108974	0.186911	0.000008
C13	C	1.033991	0.293198	0.000003
C14	C	0.890788	0.289431	0.000001
C15	C	1.482762	-0.044675	0.000018
C16	C	1.479114	-0.183229	0.000012
C17	C	1.585401	-0.258212	0.000011
C18	C	1.581634	-0.401415	0.000005
C19	C	1.703680	0.176243	0.000013
C20	C	1.842234	0.179891	0.000004
C21	C	1.468447	0.411477	0.000005
C22	C	1.472094	0.550031	-0.000000
N23	N	1.475597	0.183397	0.419777
N24	N	1.475621	0.183395	-0.419750
H25	H	1.067152	0.093125	-0.000034
H26	H	0.826355	0.380421	-0.000011
H27	H	0.906659	0.088896	-0.000003
C28	C	1.704559	-0.488449	-0.000006
H29	H	1.685901	-0.573279	-0.000025
H30	H	1.751808	-0.472895	0.102850
H31	H	1.751801	-0.472880	-0.102884
C32	C	1.712103	-0.201726	0.000020
H33	H	1.698013	-0.112887	0.000036
H34	H	1.758237	-0.228713	-0.102838
H35	H	1.758220	-0.228720	0.102897
C36	C	1.349160	-0.362948	0.000002
H37	H	1.279948	-0.411988	0.000010
H38	H	1.345844	-0.311579	-0.102853
H39	H	1.345838	-0.311597	0.102882
C40	C	1.090477	0.419900	-0.000004
H41	H	1.179316	0.405810	-0.000014
H42	H	1.063481	0.466029	0.102851
H43	H	1.063492	0.466021	-0.102884
H44	H	1.385328	-0.225051	-0.000001
