data_functionalizedCrystal
_audit_creation_method	'MofGen! by Chris Wilmer'
_symmetry_space_group_name_H-M	'P1'
_symmetry_Int_Tables_number	1
_symmetry_cell_setting	triclinic
loop_
_symmetry_equiv_pos_as_xyz
  x,y,z
_cell_length_a	16.992694
_cell_length_b	12.996460
_cell_length_c	16.992696
_cell_angle_alpha	89.985852
_cell_angle_beta	89.331661
_cell_angle_gamma	89.999814
loop_
_atom_site_label
_atom_site_type_symbol
_atom_site_fract_x
_atom_site_fract_y
_atom_site_fract_z
O1	O	1.050852	0.085469	-0.166918
O2	O	1.384185	0.418802	0.166415
O3	O	1.717519	0.752135	0.499749
O4	O	0.822452	0.085499	-0.165087
O5	O	1.155785	0.418832	0.168246
O6	O	1.489119	0.752165	0.501580
O7	O	0.935736	0.085455	-0.051802
O8	O	1.269070	0.418789	0.281531
O9	O	1.602403	0.752122	0.614864
O10	O	0.937568	0.085512	-0.280203
O11	O	1.270901	0.418845	0.053131
O12	O	1.604235	0.752179	0.386464
O13	O	0.935723	-0.085679	-0.051795
O14	O	1.269057	0.247655	0.281538
O15	O	1.602390	0.580988	0.614872
O16	O	0.822439	-0.085635	-0.165079
O17	O	1.155772	0.247698	0.168254
O18	O	1.489106	0.581031	0.501587
O19	O	1.050839	-0.085665	-0.166911
O20	O	1.384172	0.247668	0.166423
O21	O	1.717506	0.581001	0.499756
Cu22	Cu	0.936638	-0.101276	-0.165994
Cu23	Cu	1.269971	0.232057	0.167339
Cu24	Cu	1.603305	0.565391	0.500672
Cu25	Cu	0.936653	0.101109	-0.166003
Cu26	Cu	1.269987	0.434443	0.167330
Cu27	Cu	1.603320	0.767776	0.500663
O28	O	0.937555	-0.085622	-0.280195
O29	O	1.270888	0.247712	0.053138
O30	O	1.604222	0.581045	0.386472
C31	C	0.793085	-0.000065	-0.162727
C32	C	1.126419	0.333268	0.170606
C33	C	1.459752	0.666602	0.503939
C34	C	0.705601	-0.000055	-0.155699
C35	C	1.038934	0.333279	0.177635
C36	C	1.372267	0.666612	0.510968
N37	N	0.936633	-0.243623	-0.165988
N38	N	1.269966	0.089710	0.167345
N39	N	1.603299	0.423043	0.500679
C40	C	0.659610	-0.000039	-0.223517
C41	C	0.992943	0.333295	0.109817
C42	C	1.326277	0.666628	0.443150
C43	C	0.577409	-0.000055	-0.216908
C44	C	0.910743	0.333279	0.116426
C45	C	1.244076	0.666612	0.449759
C46	C	0.541201	-0.000079	-0.142480
C47	C	0.874534	0.333254	0.190853
C48	C	1.207867	0.666588	0.524187
C49	C	0.587198	-0.000098	-0.074657
C50	C	0.920531	0.333235	0.258676
C51	C	1.253864	0.666568	0.592010
C52	C	0.669397	-0.000090	-0.081267
C53	C	1.002730	0.333244	0.252067
C54	C	1.336064	0.666577	0.585400
C55	C	0.295886	-0.000113	-0.115086
C56	C	0.629220	0.333220	0.218248
C57	C	0.962553	0.666553	0.551581
C58	C	0.213681	-0.000119	-0.108481
C59	C	0.547014	0.333214	0.224852
C60	C	0.880348	0.666548	0.558186
C61	C	0.203898	-0.000077	-0.250732
C62	C	0.537232	0.333256	0.082601
C63	C	0.870565	0.666590	0.415934
C64	C	0.286100	-0.000062	-0.257335
C65	C	0.619433	0.333271	0.075998
C66	C	0.952766	0.666604	0.409331
C67	C	0.332089	-0.000087	-0.189512
C68	C	0.665423	0.333246	0.143821
C69	C	0.998756	0.666580	0.477154
N70	N	0.457179	-0.000092	-0.135723
N71	N	0.790512	0.333241	0.197610
N72	N	1.123845	0.666575	0.530944
N73	N	0.416110	-0.000081	-0.196270
N74	N	0.749443	0.333252	0.137063
N75	N	1.082777	0.666585	0.470396
C76	C	0.936652	-0.663437	-0.166004
C77	C	1.269986	-0.330104	0.167329
C78	C	1.603319	0.003229	0.500663
C79	C	0.936645	-0.546632	-0.166002
C80	C	1.269978	-0.213299	0.167331
C81	C	1.603311	0.120034	0.500665
C82	C	0.936643	-0.453534	-0.165997
C83	C	1.269976	-0.120201	0.167337
C84	C	1.603310	0.213133	0.500670
C85	C	0.936635	-0.336721	-0.165993
C86	C	1.269968	-0.003388	0.167340
C87	C	1.603301	0.329945	0.500673
C88	C	1.080206	-0.000099	-0.169270
C89	C	1.413539	0.333234	0.164063
C90	C	1.746872	0.666567	0.497397
C91	C	1.167690	-0.000103	-0.176299
C92	C	1.501024	0.333231	0.157034
C93	C	1.834357	0.666564	0.490368
C94	C	0.933374	-0.000117	-0.022439
C95	C	1.266707	0.333217	0.310895
C96	C	1.600041	0.666550	0.644228
C97	C	0.926345	-0.000131	0.065046
C98	C	1.259678	0.333202	0.398379
C99	C	1.593012	0.666536	0.731713
N100	N	0.936664	0.243457	-0.166004
N101	N	1.269998	0.576790	0.167330
N102	N	1.603331	0.910123	0.500663
C103	C	0.994163	-0.000149	0.111037
C104	C	1.327496	0.333184	0.444370
C105	C	1.660830	0.666517	0.777704
C106	C	0.987554	-0.000153	0.193238
C107	C	1.320887	0.333180	0.526571
C108	C	1.654220	0.666513	0.859904
C109	C	0.913126	-0.000146	0.229446
C110	C	1.246459	0.333187	0.562779
C111	C	1.579793	0.666520	0.896113
C112	C	0.845303	-0.000125	0.183449
C113	C	1.178636	0.333208	0.516782
C114	C	1.511970	0.666542	0.850116
C115	C	0.851913	-0.000114	0.101250
C116	C	1.185246	0.333220	0.434583
C117	C	1.518580	0.666553	0.767916
C118	C	0.885731	-0.000172	0.474760
C119	C	1.219064	0.333161	0.808094
C120	C	1.552398	0.666494	1.141427
C121	C	0.879126	-0.000187	0.556966
C122	C	1.212460	0.333147	0.890299
C123	C	1.545793	0.666480	1.223632
C124	C	1.021378	-0.000213	0.566749
C125	C	1.354711	0.333120	0.900082
C126	C	1.688044	0.666454	1.233415
C127	C	1.027981	-0.000208	0.484547
C128	C	1.361314	0.333125	0.817881
C129	C	1.694648	0.666459	1.151214
C130	C	0.960158	-0.000181	0.438558
C131	C	1.293491	0.333152	0.771891
C132	C	1.626825	0.666486	1.105224
N133	N	0.906369	-0.000154	0.313468
N134	N	1.239702	0.333180	0.646801
N135	N	1.573035	0.666513	0.980135
N136	N	0.966916	-0.000166	0.354537
N137	N	1.300249	0.333167	0.687870
N138	N	1.633583	0.666500	1.021204
C139	C	0.939917	-0.000093	0.690441
C140	C	1.273250	0.333241	1.023774
C141	C	1.606583	0.666574	1.357108
C142	C	0.946944	-0.000205	0.602956
C143	C	1.280277	0.333128	0.936290
C144	C	1.613611	0.666462	1.269623
H145	H	0.689084	-0.000018	-0.284124
H146	H	1.022418	0.333315	0.049210
H147	H	1.355751	0.666649	0.382543
H148	H	0.557710	-0.000133	-0.014056
H149	H	0.891044	0.333200	0.319277
H150	H	1.224377	0.666534	0.652610
H151	H	1.076595	-0.000233	0.604202
H152	H	1.409928	0.333100	0.937535
H153	H	1.743262	0.666434	1.270869
H154	H	0.539967	-0.000040	-0.272133
H155	H	0.873300	0.333293	0.061201
H156	H	1.206633	0.666626	0.394534
H157	H	0.818515	-0.000198	0.586443
H158	H	1.151849	0.333136	0.919777
H159	H	1.485182	0.666469	1.253110
C160	C	1.084123	0.087822	0.024262
C161	C	1.417457	0.421155	0.357596
C162	C	1.750790	0.754488	0.690929
C163	C	1.075976	-0.000156	0.071237
C164	C	1.409309	0.333178	0.404571
C165	C	1.742642	0.666511	0.737904
H166	H	1.134631	0.087815	-0.000310
H167	H	1.467964	0.421148	0.333023
H168	H	1.801297	0.754481	0.666357
H169	H	1.078596	0.147484	0.056120
H170	H	1.411929	0.480817	0.389454
H171	H	1.745262	0.814151	0.722787
H172	H	1.044675	0.087820	-0.014891
H173	H	1.378008	0.421153	0.318443
H174	H	1.711342	0.754487	0.651776
H175	H	1.115420	-0.000150	0.110394
H176	H	1.448754	0.333183	0.443728
H177	H	1.782087	0.666516	0.777061
H178	H	1.081511	-0.059834	0.039377
H179	H	1.414844	0.273500	0.372710
H180	H	1.748178	0.606833	0.706043
H181	H	1.088588	-0.000214	0.455073
H182	H	1.421921	0.333120	0.788406
H183	H	1.755254	0.666453	1.121739
H184	H	0.830504	-0.000151	0.437325
H185	H	1.163838	0.333183	0.770658
H186	H	1.497171	0.666516	1.103992
C187	C	0.268170	-0.000040	-0.397281
C188	C	0.601503	0.333294	-0.063948
C189	C	0.934836	0.666627	0.269385
C190	C	0.325897	-0.000045	-0.339149
C191	C	0.659231	0.333288	-0.005816
C192	C	0.992564	0.666621	0.327518
H193	H	0.292741	-0.000033	-0.447789
H194	H	0.626074	0.333300	-0.114456
H195	H	0.959408	0.666633	0.218878
H196	H	0.236312	0.059632	-0.391750
H197	H	0.569645	0.392965	-0.058416
H198	H	0.902979	0.726298	0.274917
H199	H	0.236314	-0.059725	-0.391736
H200	H	0.569647	0.273608	-0.058403
H201	H	0.902980	0.606941	0.274930
H202	H	0.357750	0.059645	-0.344691
H203	H	0.691083	0.392978	-0.011357
H204	H	1.024417	0.726311	0.321976
H205	H	0.357768	-0.059723	-0.344683
H206	H	0.691102	0.273611	-0.011350
H207	H	1.024435	0.606944	0.321983
C208	C	0.105774	0.087905	-0.325826
C209	C	0.439107	0.421239	0.007507
C210	C	0.772441	0.754572	0.340840
C211	C	0.153343	-0.000061	-0.325279
C212	C	0.486676	0.333272	0.008055
C213	C	0.820010	0.666606	0.341388
H214	H	0.074561	0.087907	-0.371849
H215	H	0.407894	0.421240	-0.038515
H216	H	0.741227	0.754574	0.294818
H217	H	0.138041	0.147575	-0.325455
H218	H	0.471374	0.480909	0.007878
H219	H	0.804708	0.814242	0.341211
H220	H	0.072450	0.087881	-0.280551
H221	H	0.405783	0.421214	0.052782
H222	H	0.739117	0.754547	0.386116
H223	H	0.186671	-0.000033	-0.370552
H224	H	0.520005	0.333301	-0.037218
H225	H	0.853338	0.666634	0.296115
H226	H	0.121073	-0.059747	-0.325657
H227	H	0.454406	0.273587	0.007676
H228	H	0.787739	0.606920	0.341009
H229	H	0.706842	-0.000102	-0.026042
H230	H	1.040175	0.333231	0.307291
H231	H	1.373509	0.666564	0.640625
C232	C	0.196707	0.087809	0.014808
C233	C	0.530040	0.421142	0.348141
C234	C	0.863373	0.754476	0.681474
C235	C	0.173877	-0.000148	-0.026665
C236	C	0.507211	0.333185	0.306669
C237	C	0.840544	0.666518	0.640002
H238	H	0.172135	0.087788	0.065315
H239	H	0.505468	0.421121	0.398649
H240	H	0.838802	0.754454	0.731982
H241	H	0.181225	0.147485	-0.013334
H242	H	0.514558	0.480818	0.320000
H243	H	0.847891	0.814152	0.653333
H244	H	0.252244	0.087794	0.020578
H245	H	0.585577	0.421128	0.353912
H246	H	0.918911	0.754461	0.687245
H247	H	0.118340	-0.000130	-0.032440
H248	H	0.451674	0.333203	0.300893
H249	H	0.785007	0.666537	0.634226
H250	H	0.189355	-0.059840	0.001483
H251	H	0.522688	0.273493	0.334817
H252	H	0.856021	0.606827	0.668150
H253	H	1.042779	-0.000170	0.230680
H254	H	1.376112	0.333163	0.564014
H255	H	1.709445	0.666496	0.897347
C256	C	0.772008	-0.000143	0.305109
C257	C	1.105341	0.333190	0.638442
C258	C	1.438674	0.666524	0.971776
C259	C	0.763490	-0.000121	0.223247
C260	C	1.096823	0.333212	0.556581
C261	C	1.430157	0.666546	0.889914
H262	H	0.721498	-0.000150	0.329675
H263	H	1.054831	0.333184	0.663009
H264	H	1.388164	0.666517	0.996342
H265	H	0.800146	0.059525	0.320582
H266	H	1.133479	0.392859	0.653915
H267	H	1.466813	0.726192	0.987249
H268	H	0.800146	-0.059832	0.320587
H269	H	1.133479	0.273502	0.653920
H270	H	1.466813	0.606835	0.987253
H271	H	0.735357	0.059572	0.207769
H272	H	1.068690	0.392905	0.541102
H273	H	1.402023	0.726238	0.874435
H274	H	0.735339	-0.059796	0.207768
H275	H	1.068673	0.273538	0.541101
H276	H	1.402006	0.606871	0.874434
H277	H	0.796688	-0.000098	0.063804
H278	H	1.130022	0.333235	0.397138
H279	H	1.463355	0.666568	0.730471
H280	H	0.333322	-0.000134	-0.059859
H281	H	0.666655	0.333199	0.273475
H282	H	0.999988	0.666532	0.606808
