data_functionalizedCrystal
_audit_creation_method	'MofGen! by Chris Wilmer'
_symmetry_space_group_name_H-M	'P1'
_symmetry_Int_Tables_number	1
_symmetry_cell_setting	triclinic
loop_
_symmetry_equiv_pos_as_xyz
  x,y,z
_cell_length_a	15.944556
_cell_length_b	14.519710
_cell_length_c	13.596369
_cell_angle_alpha	89.995619
_cell_angle_beta	90.017613
_cell_angle_gamma	96.409243
loop_
_atom_site_label
_atom_site_type_symbol
_atom_site_fract_x
_atom_site_fract_y
_atom_site_fract_z
O1	O	-0.110109	1.223679	-0.081796
O2	O	0.223225	1.557012	0.251537
O3	O	0.556558	1.890345	0.584871
O4	O	-0.123075	0.955179	-0.081806
O5	O	0.210258	1.288513	0.251527
O6	O	0.543591	1.621846	0.584861
O7	O	0.005672	1.096758	-0.081765
O8	O	0.339005	1.430091	0.251568
O9	O	0.672339	1.763425	0.584901
O10	O	-0.238856	1.082100	-0.081837
O11	O	0.094478	1.415433	0.251497
O12	O	0.427811	1.748767	0.584830
O13	O	0.005679	1.096744	0.081818
O14	O	0.339012	1.430077	0.415151
O15	O	0.672345	1.763411	0.748484
O16	O	-0.123068	0.955165	0.081777
O17	O	0.210265	1.288499	0.415110
O18	O	0.543598	1.621832	0.748444
O19	O	-0.110102	1.223665	0.081787
O20	O	0.223232	1.556998	0.415120
O21	O	0.556565	1.890331	0.748453
Zn22	Zn	-0.116584	1.089413	0.107754
Zn23	Zn	0.216749	1.422746	0.441088
Zn24	Zn	0.550083	1.756079	0.774421
Zn25	Zn	-0.116593	1.089431	-0.107773
Zn26	Zn	0.216740	1.422765	0.225560
Zn27	Zn	0.550074	1.756098	0.558893
O28	O	-0.238849	1.082086	0.081746
O29	O	0.094484	1.415419	0.415079
O30	O	0.427818	1.748753	0.748413
C31	C	0.036970	1.096141	0.000033
C32	C	0.370303	1.429475	0.333367
C33	C	0.703637	1.762808	0.666700
C34	C	0.130218	1.094314	0.000054
C35	C	0.463552	1.427647	0.333387
C36	C	0.796885	1.760981	0.666721
C37	C	-0.122467	0.920814	-0.000015
C38	C	0.210866	1.254147	0.333318
C39	C	0.544199	1.587480	0.666652
C40	C	-0.120657	0.818435	-0.000017
C41	C	0.212677	1.151769	0.333316
C42	C	0.546010	1.485102	0.666650
C43	C	-0.110710	1.258030	-0.000006
C44	C	0.222624	1.591364	0.333327
C45	C	0.555957	1.924697	0.666661
C46	C	-0.112520	1.360408	-0.000011
C47	C	0.220813	1.693742	0.333323
C48	C	0.554146	2.027075	0.666656
C49	C	0.400985	1.001093	0.000084
C50	C	0.734318	1.334426	0.333418
C51	C	1.067652	1.667759	0.666751
C52	C	0.350331	1.046040	-0.080580
C53	C	0.683664	1.379373	0.252754
C54	C	1.016998	1.712706	0.586087
C55	C	0.465870	1.087797	0.000091
C56	C	0.799203	1.421130	0.333425
C57	C	1.132536	1.754463	0.666758
C58	C	0.350365	1.046049	0.080700
C59	C	0.683698	1.379382	0.414034
C60	C	1.017032	1.712715	0.747367
C61	C	0.300953	1.090994	0.000075
C62	C	0.634286	1.424327	0.333408
C63	C	0.967619	1.757661	0.666741
C64	C	0.416444	1.132720	-0.080639
C65	C	0.749778	1.466054	0.252694
C66	C	1.083111	1.799387	0.586028
C67	C	0.416482	1.132717	0.080713
C68	C	0.749815	1.466050	0.414047
C69	C	1.083148	1.799383	0.747380
C70	C	0.365861	1.177727	0.000030
C71	C	0.699194	1.511060	0.333363
C72	C	1.032527	1.844394	0.666696
C73	C	0.560874	1.085952	0.000100
C74	C	0.894207	1.419286	0.333434
C75	C	1.227541	1.752619	0.666767
C76	C	0.205951	1.092845	0.000059
C77	C	0.539284	1.426179	0.333392
C78	C	0.872618	1.759512	0.666726
C79	C	0.729851	1.082690	-0.000005
C80	C	1.063185	1.416023	0.333328
C81	C	1.396518	1.749357	0.666661
C82	C	0.636599	1.084480	0.000113
C83	C	0.969932	1.417813	0.333446
C84	C	1.303265	1.751147	0.666780
N85	N	-0.116577	1.089407	0.254846
N86	N	0.216756	1.422740	0.588179
N87	N	0.550089	1.756073	0.921513
C88	C	-0.119187	1.735293	-0.000013
C89	C	0.214146	2.068626	0.333320
C90	C	0.547480	2.401959	0.666654
C91	C	-0.117336	1.630988	-0.000013
C92	C	0.215998	1.964321	0.333321
C93	C	0.549331	2.297655	0.666654
C94	C	-0.115854	1.547854	-0.000013
C95	C	0.217479	1.881187	0.333321
C96	C	0.550813	2.214521	0.666654
C97	C	-0.114002	1.443543	-0.000011
C98	C	0.219331	1.776876	0.333323
C99	C	0.552665	2.110209	0.666656
N100	N	-0.116593	1.089444	-0.254865
N101	N	0.216740	1.422778	0.078468
N102	N	0.550074	1.756111	0.411802
C103	C	-0.116594	1.089430	0.656137
C104	C	0.216739	1.422763	0.989470
C105	C	0.550073	1.756097	1.322804
C106	C	-0.116592	1.089421	0.544486
C107	C	0.216741	1.422754	0.877819
C108	C	0.550075	1.756087	1.211152
C109	C	-0.116586	1.089419	0.455495
C110	C	0.216747	1.422752	0.788828
C111	C	0.550080	1.756085	1.122162
C112	C	-0.116583	1.089409	0.343837
C113	C	0.216750	1.422742	0.677170
C114	C	0.550083	1.756075	1.010503
H115	H	0.416746	0.926419	0.000007
H116	H	0.750079	1.259752	0.333340
H117	H	1.083412	1.593085	0.666673
O118	O	0.316033	1.002222	0.162019
O119	O	0.649367	1.335555	0.495353
O120	O	0.982700	1.668888	0.828686
C121	C	0.333559	0.909168	0.161701
C122	C	0.666893	1.242501	0.495034
C123	C	1.000226	1.575834	0.828368
H124	H	0.391635	0.902473	0.114482
H125	H	0.724969	1.235807	0.447815
H126	H	1.058302	1.569140	0.781148
H127	H	0.345992	0.886480	0.240140
H128	H	0.679325	1.219814	0.573474
H129	H	1.012659	1.553147	0.906807
H130	H	0.277224	0.863304	0.130225
H131	H	0.610557	1.196638	0.463559
H132	H	0.943891	1.529971	0.796892
O133	O	0.347149	1.266844	-0.000151
O134	O	0.680482	1.600177	0.333182
O135	O	1.013815	1.933510	0.666515
C136	C	0.299195	1.282312	-0.084497
C137	C	0.632529	1.615645	0.248837
C138	C	0.965862	1.948978	0.582170
H139	H	0.266414	1.213423	-0.112277
H140	H	0.599747	1.546756	0.221056
H141	H	0.933081	1.880090	0.554390
H142	H	0.249798	1.330374	-0.065119
H143	H	0.583132	1.663707	0.268214
H144	H	0.916465	1.997040	0.601548
H145	H	0.342596	1.315646	-0.144296
H146	H	0.675929	1.648979	0.189037
H147	H	1.009263	1.982312	0.522370
H148	H	0.321447	1.009428	-0.148775
H149	H	0.654780	1.342761	0.184559
H150	H	0.988114	1.676095	0.517892
H151	H	0.445381	1.169296	0.148911
H152	H	0.778714	1.502629	0.482244
H153	H	1.112047	1.835963	0.815578
H154	H	0.445194	1.169316	-0.148896
H155	H	0.778528	1.502650	0.184438
H156	H	1.111861	1.835983	0.517771
