data_functionalizedCrystal
_audit_creation_method	'MofGen! by Chris Wilmer'
_symmetry_space_group_name_H-M	'P1'
_symmetry_Int_Tables_number	1
_symmetry_cell_setting	triclinic
loop_
_symmetry_equiv_pos_as_xyz
  x,y,z
_cell_length_a	14.044220
_cell_length_b	13.101018
_cell_length_c	10.654550
_cell_angle_alpha	86.608452
_cell_angle_beta	88.836904
_cell_angle_gamma	93.664297
loop_
_atom_site_label
_atom_site_type_symbol
_atom_site_fract_x
_atom_site_fract_y
_atom_site_fract_z
O1	O	1.264871	0.085105	0.296649
O2	O	1.764871	0.585105	0.796649
O3	O	0.988831	0.085131	0.285714
O4	O	1.488831	0.585131	0.785714
O5	O	1.133197	0.085111	0.109080
O6	O	1.633197	0.585111	0.609080
O7	O	1.120505	0.085125	0.473282
O8	O	1.620505	0.585125	0.973282
O9	O	1.122827	-0.085318	0.121764
O10	O	1.622827	0.414682	0.621764
O11	O	0.978461	-0.085298	0.298398
O12	O	1.478461	0.414702	0.798398
O13	O	1.254501	-0.085324	0.309333
O14	O	1.754501	0.414676	0.809333
Zn15	Zn	1.114834	-0.112370	0.305879
Zn16	Zn	1.614834	0.387630	0.805879
Zn17	Zn	1.128497	0.112177	0.289167
Zn18	Zn	1.628497	0.612177	0.789167
O19	O	1.110134	-0.085304	0.485966
O20	O	1.610134	0.414696	0.985966
C21	C	0.948300	-0.000080	0.287269
C22	C	1.448300	0.499920	0.787269
C23	C	0.842981	-0.000070	0.272993
C24	C	1.342981	0.499930	0.772993
N25	N	1.105517	-0.265618	0.317284
N26	N	1.605517	0.234382	0.817284
C27	C	0.650147	-0.000092	0.246896
C28	C	1.150147	0.499908	0.746896
C29	C	0.593179	-0.000092	0.348144
C30	C	1.093179	0.499908	0.848144
C31	C	0.485880	-0.000104	0.333623
C32	C	0.985880	0.499896	0.833623
C33	C	0.757457	-0.000080	0.261415
C34	C	1.257457	0.499920	0.761415
C35	C	1.150495	-0.525534	0.262230
C36	C	1.650495	-0.025534	0.762230
C37	C	1.092848	-0.474653	0.332803
C38	C	1.592848	0.025347	0.832803
C39	C	1.099898	-0.358335	0.324166
C40	C	1.599898	0.141665	0.824166
C41	C	1.143445	-0.641862	0.270866
C42	C	1.643445	-0.141862	0.770866
C43	C	1.295031	-0.000111	0.307777
C44	C	1.795031	0.499889	0.807777
C45	C	1.400351	-0.000114	0.322053
C46	C	1.900351	0.499886	0.822053
C47	C	1.127080	-0.000103	0.068531
C48	C	1.627080	0.499897	0.568531
C49	C	1.124292	-0.000101	-0.071193
C50	C	1.624292	0.499899	0.428807
N51	N	1.137822	0.265425	0.277753
N52	N	1.637822	0.765425	0.777753
C53	C	1.209292	-0.000109	-0.142136
C54	C	1.709292	0.499891	0.357864
C55	C	1.206667	-0.000096	-0.273422
C56	C	1.706667	0.499904	0.226578
C57	C	1.034033	-0.000072	-0.262809
C58	C	1.534033	0.499928	0.237191
C59	C	1.036660	-0.000078	-0.131526
C60	C	1.536660	0.499922	0.368474
C61	C	1.116252	-0.000088	0.526516
C62	C	1.616252	0.499912	1.026516
C63	C	1.119040	-0.000083	0.666239
C64	C	1.619040	0.499917	1.166239
H65	H	0.618336	-0.000101	0.149317
H66	H	1.118336	0.499899	0.649317
H67	H	1.038200	-0.518450	0.399711
H68	H	1.538200	-0.018450	0.899711
H69	H	1.205140	-0.481741	0.195329
H70	H	1.705140	0.018259	0.695329
H71	H	1.280648	-0.000126	-0.093018
H72	H	1.780648	0.499874	0.406982
H73	H	1.275884	-0.000100	-0.331179
H74	H	1.775884	0.499900	0.168821
N75	N	0.939520	-0.000051	-0.327882
N76	N	1.439520	0.499949	0.172118
H77	H	0.950752	-0.000053	-0.421814
H78	H	1.450752	0.499947	0.078186
H79	H	0.898442	-0.063228	-0.297919
H80	H	1.398442	0.436772	0.202081
N81	N	0.944977	-0.000062	-0.054997
N82	N	1.444977	0.499938	0.445003
H83	H	0.889063	-0.000054	-0.113136
H84	H	1.389063	0.499946	0.386864
H85	H	0.938461	-0.063242	0.004402
H86	H	1.438461	0.436758	0.504402
H87	H	0.624993	-0.000083	0.445731
H88	H	1.124993	0.499917	0.945731
