data_functionalizedCrystal
_audit_creation_method	'MofGen! by Chris Wilmer'
_symmetry_space_group_name_H-M	'P1'
_symmetry_Int_Tables_number	1
_symmetry_cell_setting	triclinic
loop_
_symmetry_equiv_pos_as_xyz
  x,y,z
_cell_length_a	11.792241
_cell_length_b	11.792241
_cell_length_c	16.776229
_cell_angle_alpha	89.993219
_cell_angle_beta	89.997077
_cell_angle_gamma	84.193416
loop_
_atom_site_label
_atom_site_type_symbol
_atom_site_fract_x
_atom_site_fract_y
_atom_site_fract_z
O1	O	1.506913	0.155571	-0.066211
O2	O	1.176572	0.171603	-0.066230
O3	O	1.349759	-0.001584	-0.066214
O4	O	1.333726	0.328757	-0.066226
O5	O	1.349736	-0.001594	0.066362
O6	O	1.176549	0.171593	0.066347
O7	O	1.506890	0.155560	0.066365
Zn8	Zn	1.341715	0.163574	0.087405
Zn9	Zn	1.341746	0.163589	-0.087270
O10	O	1.333703	0.328747	0.066350
C11	C	1.348740	-0.043880	0.000074
C12	C	1.345726	-0.169894	0.000073
C13	C	1.134269	0.170591	0.000056
C14	C	1.008255	0.167576	0.000049
C15	C	1.340183	-0.400606	0.000059
C16	C	1.343262	-0.272221	0.000066
C17	C	0.777543	0.162034	0.000072
C18	C	0.905928	0.165113	0.000060
C19	C	1.549192	0.156572	0.000078
C20	C	1.675206	0.159587	0.000079
C21	C	1.334721	0.371043	0.000060
C22	C	1.337736	0.497057	0.000056
N23	N	1.341703	0.163564	0.206617
N24	N	1.341767	0.163590	-0.206481
C25	C	1.418414	0.086909	0.248341
C26	C	1.418420	0.086908	0.331793
C27	C	1.341720	0.163568	0.373520
C28	C	1.265001	0.240227	0.331790
C29	C	1.264990	0.240222	0.248339
C30	C	1.265042	0.240250	0.668337
C31	C	1.265061	0.240252	0.751794
C32	C	1.418472	0.086936	0.751791
C33	C	1.418461	0.086930	0.668340
C34	C	1.341739	0.163585	0.626618
C35	C	1.341731	0.163583	0.536129
C36	C	1.341732	0.163576	0.464006
H37	H	1.480876	0.024487	0.214372
H38	H	1.480941	0.024516	0.785770
O39	O	1.190632	0.314736	0.207718
C40	C	1.251832	0.385186	0.159445
H41	H	1.340366	0.340580	0.146940
H42	H	1.260056	0.469129	0.191594
C43	C	1.079238	0.463790	0.095539
C44	C	1.187975	0.409000	0.080174
H45	H	1.039847	0.478485	0.046642
H46	H	1.038005	0.416330	0.128063
H47	H	1.086107	0.533736	0.122331
H48	H	1.181104	0.339049	0.053391
H49	H	1.229205	0.456448	0.047643
H50	H	1.202598	0.302681	0.785766
O51	O	1.190421	0.314564	0.627775
C52	C	1.120036	0.253317	0.579499
H53	H	1.117561	0.163794	0.604657
H54	H	1.155517	0.247601	0.516252
C55	C	1.001608	0.425022	0.547320
C56	C	0.998560	0.315071	0.578223
H57	H	0.926676	0.463116	0.546529
H58	H	1.049029	0.466286	0.579841
H59	H	1.031180	0.420243	0.494616
H60	H	0.969002	0.319852	0.630929
H61	H	0.951130	0.273809	0.545710
O62	O	1.492725	0.012247	0.627786
C63	C	1.431350	-0.058188	0.579640
H64	H	1.342898	-0.013426	0.567081
H65	H	1.422931	-0.141997	0.611926
C66	C	1.603804	-0.137357	0.515825
C67	C	1.495169	-0.082376	0.500394
H68	H	1.643172	-0.152283	0.466944
H69	H	1.645155	-0.089907	0.548264
H70	H	1.596773	-0.207192	0.542733
H71	H	1.502201	-0.012536	0.473496
H72	H	1.453820	-0.129815	0.467949
H73	H	1.480883	0.024488	0.365764
H74	H	1.202544	0.302642	0.365769
