data_functionalizedCrystal
_audit_creation_method	'MofGen! by Chris Wilmer'
_symmetry_space_group_name_H-M	'P1'
_symmetry_Int_Tables_number	1
_symmetry_cell_setting	triclinic
loop_
_symmetry_equiv_pos_as_xyz
  x,y,z
_cell_length_a	15.995350
_cell_length_b	16.109301
_cell_length_c	15.186229
_cell_angle_alpha	90.000638
_cell_angle_beta	89.998487
_cell_angle_gamma	96.523072
loop_
_atom_site_label
_atom_site_type_symbol
_atom_site_fract_x
_atom_site_fract_y
_atom_site_fract_z
O1	O	0.107624	-1.103160	-0.073168
O2	O	0.121018	-0.861101	-0.073182
O3	O	-0.007569	-0.988747	-0.073174
O4	O	0.236210	-0.975514	-0.073176
O5	O	-0.007570	-0.988739	0.073283
O6	O	0.121016	-0.861093	0.073275
O7	O	0.107622	-1.103151	0.073289
Zn8	Zn	0.114319	-0.982121	0.096535
Zn9	Zn	0.114321	-0.982132	-0.096428
O10	O	0.236208	-0.975505	0.073281
C11	C	-0.038764	-0.988196	0.000053
C12	C	-0.131714	-0.986556	0.000048
C13	C	0.120474	-0.830122	0.000045
C14	C	0.118848	-0.737826	0.000040
C15	C	0.108166	-1.134130	0.000060
C16	C	0.109792	-1.226426	0.000059
C17	C	-0.469460	-0.980665	0.000050
C18	C	-0.422001	-0.889758	-0.000283
C19	C	-0.325311	-0.891399	0.000047
C20	C	-0.301900	-0.983587	0.000049
C21	C	-0.342991	-1.028421	0.083684
C22	C	-0.439626	-1.026137	0.083754
C23	C	-0.439983	-1.028025	-0.082795
C24	C	-0.343037	-1.028003	-0.083901
C25	C	-0.207203	-0.985243	0.000051
C26	C	-0.564157	-0.979012	0.000054
C27	C	0.267404	-0.976056	0.000052
C28	C	0.360354	-0.977697	0.000051
N29	N	0.114317	-0.982119	0.228228
C30	C	0.191366	-0.515573	0.000049
C31	C	0.189831	-0.428853	0.000055
C32	C	0.037268	-0.448686	0.000053
C33	C	0.038804	-0.535405	0.000053
C34	C	0.115855	-0.568846	0.000047
C35	C	0.112785	-0.395406	0.000052
C36	C	0.111120	-0.301380	0.000058
C37	C	0.117520	-0.662879	0.000043
N38	N	0.114317	-0.982140	-0.228121
C39	C	0.057398	-1.038660	0.453954
C40	C	0.057396	-1.038662	0.546144
C41	C	0.171238	-0.925593	0.546146
C42	C	0.171236	-0.925587	0.453958
C43	C	0.114316	-0.982125	0.407865
C44	C	0.114317	-0.982134	0.592242
C45	C	0.114315	-0.982136	0.692198
C46	C	0.114317	-0.982122	0.307902
H47	H	-0.296879	-0.856156	-0.059906
H48	H	-0.327694	-1.095231	-0.088949
H49	H	0.217586	-0.879546	0.416429
F50	F	0.231815	-0.865426	0.595208
F51	F	-0.003183	-1.098831	0.404902
H52	H	0.251320	-0.385481	0.000058
F53	F	-0.044731	-0.413087	0.000055
F54	F	-0.446207	-0.842268	-0.078678
F55	F	-0.447881	-0.842350	0.077455
F56	F	-0.041570	-0.592106	0.000057
F57	F	-0.003186	-1.098832	0.595193
F58	F	-0.288874	-0.845013	0.078537
H59	H	-0.457919	-0.993437	0.146271
F60	F	-0.324554	-1.116947	0.087754
H61	H	0.254106	-0.542798	0.000051
F62	F	-0.305887	-0.987711	0.165034
F63	F	-0.481803	-1.113372	0.088724
H64	H	-0.460513	-0.998306	-0.146186
H65	H	-0.315779	-0.995224	-0.145772
H66	H	-0.471762	-1.095050	-0.083356
