data_functionalizedCrystal
_audit_creation_method	'MofGen! by Chris Wilmer'
_symmetry_space_group_name_H-M	'P1'
_symmetry_Int_Tables_number	1
_symmetry_cell_setting	triclinic
loop_
_symmetry_equiv_pos_as_xyz
  x,y,z
_cell_length_a	14.628931
_cell_length_b	14.560438
_cell_length_c	14.560438
_cell_angle_alpha	59.997697
_cell_angle_beta	60.001335
_cell_angle_gamma	90.000784
loop_
_atom_site_label
_atom_site_type_symbol
_atom_site_fract_x
_atom_site_fract_y
_atom_site_fract_z
Zr1	Zr	0.880626	-0.120587	1.005309
O2	O	0.734665	-0.267246	1.196915
O3	O	0.925369	-0.075620	0.813702
O4	O	0.925370	-0.267233	1.005307
O5	O	0.734666	0.075506	1.005313
O6	O	1.075802	-0.267233	1.005306
O7	O	0.734665	-0.075633	1.005310
O8	O	1.075801	0.075528	0.662560
O9	O	0.734667	-0.267256	1.348059
O10	O	1.056719	-0.056452	0.892513
O11	O	0.944454	0.056340	0.892515
O12	O	0.944454	-0.169260	1.118105
O13	O	0.832189	-0.056467	1.118107
Zr14	Zr	1.120549	0.120461	1.005313
Zr15	Zr	1.120548	-0.120587	1.005308
Zr16	Zr	0.880627	0.120461	1.005313
Zr17	Zr	0.880628	-0.120603	1.246366
Zr18	Zr	1.120547	0.120477	0.764256
O19	O	1.075805	0.075494	1.196920
O20	O	1.075803	-0.267246	1.196914
O21	O	0.734667	0.075493	1.196921
O22	O	1.266509	0.267120	0.813706
O23	O	1.266507	-0.075620	0.813701
O24	O	0.925371	0.267119	0.813707
O25	O	1.266509	-0.075632	1.005309
O26	O	1.075805	0.267107	1.005315
O27	O	0.925373	0.267107	1.005316
O28	O	1.266510	0.075506	1.005311
O29	O	0.925372	-0.267255	1.348059
O30	O	1.075802	0.267129	0.662563
O31	O	1.266508	0.267129	0.662563
O32	O	1.266507	0.075528	0.662559
O33	O	0.734668	-0.075655	1.348062
O34	O	0.925373	-0.075654	1.348062
O35	O	1.056720	0.169133	0.892517
O36	O	1.168986	0.056341	0.892514
O37	O	1.056721	-0.056467	1.118107
O38	O	0.944456	0.056326	1.118109
C39	C	0.700482	-0.000064	1.005312
C40	C	0.598629	-0.000064	1.005312
C41	C	1.000585	-0.000044	0.703785
C42	C	1.000584	-0.000037	0.601450
C43	C	1.000589	0.301451	1.005316
C44	C	1.000589	0.403782	1.005318
C45	C	0.608910	0.055896	0.893403
C46	C	0.503641	0.055897	0.893401
C47	C	1.300693	-0.000063	1.005310
C48	C	1.402546	-0.000063	1.005310
C49	C	1.000586	-0.301578	1.005306
C50	C	1.000585	-0.403909	1.005304
C51	C	0.941990	0.392977	1.123072
C52	C	0.941984	0.489131	1.123066
C53	C	1.059186	0.606895	0.887540
C54	C	1.059185	0.510741	0.887548
C55	C	0.917708	-0.083318	0.636663
C56	C	0.917712	-0.083347	0.540523
C57	C	1.083475	0.083197	0.373959
C58	C	1.083474	0.083220	0.470098
C59	C	1.000590	-0.000083	1.306836
C60	C	1.000590	-0.000089	1.409171
C61	C	1.300691	-0.000043	0.703784
C62	C	1.402543	-0.000037	0.601449
C63	C	1.000587	0.301471	0.703790
C64	C	1.000586	0.403808	0.601457
C65	C	1.300692	0.301471	0.703790
C66	C	1.402545	0.403809	0.601456
C67	C	0.700482	-0.301597	1.306832
C68	C	0.598629	-0.403935	1.409166
C69	C	0.700484	-0.000083	1.306837
C70	C	0.598632	-0.000090	1.409173
C71	C	1.000588	-0.301597	1.306831
C72	C	1.000588	-0.403935	1.409165
C73	C	1.391795	-0.058908	0.553368
C74	C	1.487500	-0.058905	0.457221
C75	C	1.604698	0.058848	0.457240
C76	C	1.508994	0.058839	0.553392
C77	C	1.059187	0.510764	0.553380
C78	C	1.059174	0.606917	0.457236
C79	C	0.941958	0.489146	0.457251
C80	C	0.941965	0.392995	0.553400
C81	C	1.508997	0.393014	0.553376
C82	C	1.604695	0.489175	0.457231
C83	C	1.487475	0.606923	0.457251
C84	C	1.391780	0.510763	0.553401
H85	H	0.695646	0.103810	0.797596
C86	C	1.123646	0.724568	0.404348
N87	N	1.172211	0.813186	0.364513
C88	C	0.826532	-0.174954	0.579269
N89	N	0.757849	-0.243954	0.608456
H90	H	1.691381	0.106784	0.418099
H91	H	0.894275	0.305890	1.218968
H92	H	0.511892	-0.047970	1.101120
H93	H	0.894265	0.480323	1.218954
C94	C	1.123817	0.724555	0.758001
N95	N	1.172563	0.813177	0.660429
C96	C	1.174650	0.174840	0.431356
N97	N	1.243322	0.243844	0.402178
C98	C	1.721793	0.477292	0.404342
N99	N	1.809993	0.468337	0.364505
C100	C	1.123649	0.522633	0.758002
N101	N	1.172199	0.531587	0.660432
H102	H	1.517755	0.106778	0.592544
C103	C	0.515302	0.120623	0.763961
N104	N	0.524085	0.169378	0.666464
H105	H	0.393910	-0.047979	1.101124
C106	C	0.877498	0.275333	0.606287
N107	N	0.828942	0.186712	0.646123
H108	H	0.850207	-0.151105	0.743613
H109	H	0.894233	0.480356	0.418110
H110	H	1.150961	0.150982	0.267003
C111	C	1.475667	-0.123663	0.404332
N112	N	1.466751	-0.172440	0.364495
H113	H	1.305121	-0.106859	0.592505
H114	H	1.106916	0.519574	0.592509
H115	H	1.517768	0.305931	0.592502
H116	H	1.478724	0.694015	0.418111
H117	H	1.305096	0.519561	0.592551
