data_functionalizedCrystal
_audit_creation_method	'MofGen! by Chris Wilmer'
_symmetry_space_group_name_H-M	'P1'
_symmetry_Int_Tables_number	1
_symmetry_cell_setting	triclinic
loop_
_symmetry_equiv_pos_as_xyz
  x,y,z
_cell_length_a	19.805407
_cell_length_b	19.805404
_cell_length_c	12.759393
_cell_angle_alpha	90.034362
_cell_angle_beta	90.028317
_cell_angle_gamma	90.028840
loop_
_atom_site_label
_atom_site_type_symbol
_atom_site_fract_x
_atom_site_fract_y
_atom_site_fract_z
Zn1	Zn	1.034748	-0.269444	0.594199
Zn2	Zn	1.034649	-0.382647	0.418507
Zn3	Zn	0.921555	-0.269475	0.418511
Zn4	Zn	0.921520	-0.382595	0.594122
O5	O	0.978118	-0.326040	0.506335
O6	O	1.129452	-0.284469	0.570923
O7	O	1.019619	-0.367669	0.271486
O8	O	0.936626	-0.174755	0.441851
O9	O	1.129378	-0.367639	0.441843
O10	O	1.019789	-0.174732	0.570927
O11	O	0.936530	-0.284523	0.271490
O12	O	0.826834	-0.284473	0.441776
O13	O	0.936567	-0.367550	0.741153
O14	O	0.826808	-0.367581	0.570796
O15	O	1.019755	-0.284419	0.741210
O16	O	1.019586	-0.477356	0.441768
O17	O	0.936471	-0.477318	0.570792
C18	C	0.802262	-0.326025	0.506279
C19	C	0.727030	-0.326035	0.506280
C20	C	0.265243	-0.369396	0.573477
C21	C	0.335932	-0.369395	0.573455
C22	C	0.371268	-0.326057	0.506376
C23	C	0.335913	-0.282721	0.439307
C24	C	0.265225	-0.282726	0.439324
C25	C	0.620986	-0.282701	0.439233
C26	C	0.691678	-0.282698	0.439223
C27	C	0.691692	-0.369369	0.573363
C28	C	0.621005	-0.369374	0.573381
C29	C	0.585656	-0.326042	0.506309
C30	C	0.509007	-0.326045	0.506332
C31	C	0.447915	-0.326050	0.506357
C32	C	0.978032	-0.501896	0.506294
C33	C	0.978057	-0.577128	0.506312
C34	C	1.021562	-1.038917	0.439299
C35	C	1.021531	-0.968228	0.439279
C36	C	0.978207	-0.932890	0.506390
C37	C	0.934907	-0.968244	0.573519
C38	C	0.934936	-1.038931	0.573534
C39	C	0.934789	-0.683171	0.573461
C40	C	0.934765	-0.612479	0.573444
C41	C	1.021384	-0.612468	0.439207
C42	C	1.021413	-0.683155	0.439221
C43	C	0.978111	-0.718503	0.506346
C44	C	0.978145	-0.795151	0.506366
C45	C	0.978176	-0.856243	0.506376
C46	C	1.154661	-0.326056	0.506391
C47	C	1.229893	-0.326063	0.506416
C48	C	0.978169	-0.325975	0.780368
C49	C	0.978190	-0.325948	0.897145
C50	C	0.978223	-0.149497	0.506398
C51	C	0.978267	-0.074265	0.506425
C52	C	0.978106	-0.326056	0.233367
C53	C	0.978216	-0.325893	0.116591
C54	C	1.021510	-0.282654	0.952038
C55	C	1.021521	-0.282625	1.061762
C56	C	0.934892	-0.369189	1.061690
C57	C	0.934878	-0.369214	0.951968
H58	H	0.720482	-0.404655	0.627974
C59	C	0.887953	-0.416261	0.892227
C60	C	0.926242	-0.459649	0.829213
C61	C	0.883039	-0.502987	0.774154
H62	H	0.862147	-0.442094	0.940469
H63	H	0.858484	-0.390392	0.849361
H64	H	0.955699	-0.485516	0.872076
H65	H	0.952046	-0.433835	0.780952
H66	H	0.853570	-0.477118	0.731288
H67	H	0.857235	-0.528815	0.822404
H68	H	0.909011	-0.532427	0.731386
H69	H	1.056641	-0.583680	0.384547
C70	C	0.887812	-0.721664	0.646238
C71	C	0.897093	-0.791133	0.631875
C72	C	0.853824	-0.826618	0.698896
H73	H	0.897652	-0.710116	0.716881
H74	H	0.842320	-0.710167	0.630784
H75	H	0.942575	-0.802626	0.647336
H76	H	0.887248	-0.802702	0.561246
H77	H	0.808332	-0.815120	0.683442
H78	H	0.863668	-0.815064	0.769535
H79	H	0.860111	-0.873756	0.689153
C80	C	0.729923	-0.235621	0.366266
C81	C	0.683837	-0.197688	0.307506
C82	C	0.719043	-0.154324	0.240282
H83	H	0.757530	-0.206096	0.406408
H84	H	0.757453	-0.261467	0.320363
H85	H	0.656318	-0.171843	0.353403
H86	H	0.656228	-0.227195	0.267342
H87	H	0.746574	-0.180170	0.194380
H88	H	0.746649	-0.124803	0.280434
H89	H	0.687779	-0.128585	0.200400
H90	H	0.899684	-1.067711	0.628200
C91	C	0.582598	-0.235784	0.366231
C92	C	0.542012	-0.274087	0.298773
C93	C	0.506654	-0.230898	0.231471
H94	H	0.554982	-0.206292	0.406324
H95	H	0.613766	-0.210004	0.326224
H96	H	0.510849	-0.299856	0.338775
H97	H	0.569612	-0.303577	0.258656
H98	H	0.537821	-0.205117	0.191465
H99	H	0.479041	-0.201407	0.271573
H100	H	0.479117	-0.256880	0.185687
C101	C	0.887913	-0.416276	1.121083
C102	C	0.902596	-0.483251	1.094352
C103	C	0.859328	-0.526648	1.149030
H104	H	0.894084	-0.410154	1.194307
H105	H	0.842428	-0.406410	1.103064
H106	H	0.948070	-0.493113	1.112377
H107	H	0.896421	-0.489394	1.021137
H108	H	0.813843	-0.516782	1.131012
H109	H	0.865502	-0.520520	1.222252
H110	H	0.869280	-0.572095	1.130894
H111	H	1.056845	-1.067684	0.384655
C112	C	0.887800	-0.930001	0.646433
C113	C	0.849880	-0.976091	0.705207
C114	C	0.806475	-0.940888	0.772384
H115	H	0.913595	-0.902382	0.692337
H116	H	0.858274	-0.902482	0.606223
H117	H	0.879403	-1.003598	0.745414
H118	H	0.824071	-1.003711	0.659331
H119	H	0.776948	-0.913369	0.732174
H120	H	0.832276	-0.913271	0.818280
H121	H	0.780736	-0.972154	0.812263
C122	C	0.374242	-0.235755	0.366297
C123	C	0.357012	-0.250432	0.262310
C124	C	0.392315	-0.207187	0.195024
H125	H	0.362715	-0.190265	0.381655
H126	H	0.421410	-0.241965	0.375822
H127	H	0.309855	-0.244217	0.252790
H128	H	0.368541	-0.295915	0.246919
H129	H	0.439482	-0.213396	0.204549
H130	H	0.380784	-0.161699	0.210392
H131	H	0.380634	-0.217143	0.124462
H132	H	0.592238	-0.404663	0.628008
C133	C	0.226807	-0.235791	0.366382
C134	C	0.186197	-0.274071	0.298930
C135	C	0.150805	-0.230860	0.231705
H136	H	0.199204	-0.206317	0.406532
H137	H	0.257955	-0.209991	0.326368
H138	H	0.155053	-0.299859	0.338939
H139	H	0.213783	-0.303543	0.258757
H140	H	0.181953	-0.205060	0.191691
H141	H	0.123206	-0.201388	0.271863
H142	H	0.123252	-0.256827	0.185924
H143	H	1.056776	-0.247422	0.907404
C144	C	1.068517	-0.235510	1.121223
C145	C	1.053830	-0.168548	1.094522
C146	C	1.097116	-0.125125	1.149263
H147	H	1.062368	-0.241594	1.194438
H148	H	1.113997	-0.245387	1.103235
H149	H	1.008361	-0.158675	1.112516
H150	H	1.059983	-0.162443	1.021315
H151	H	1.142595	-0.135002	1.131276
H152	H	1.090963	-0.131215	1.222476
H153	H	1.087161	-0.079687	1.131147
H154	H	0.236478	-0.404684	0.628107
H155	H	0.364711	-0.404683	0.628061
C156	C	1.068617	-0.929971	0.366367
C157	C	1.106581	-0.976048	0.307625
C158	C	1.149973	-0.940831	0.240456
H159	H	1.042811	-0.902438	0.320444
H160	H	1.098116	-0.902365	0.406582
H161	H	1.077086	-1.003642	0.267413
H162	H	1.132401	-1.003583	0.353520
H163	H	1.179473	-0.913225	0.280671
H164	H	1.124162	-0.913300	0.194540
H165	H	1.175742	-0.972089	0.200599
H166	H	1.056694	-0.711924	0.384576
H167	H	0.899483	-0.583707	0.628096
