data_functionalizedCrystal
_audit_creation_method	'MofGen! by Chris Wilmer'
_symmetry_space_group_name_H-M	'P1'
_symmetry_Int_Tables_number	1
_symmetry_cell_setting	triclinic
loop_
_symmetry_equiv_pos_as_xyz
  x,y,z
_cell_length_a	19.188925
_cell_length_b	15.995350
_cell_length_c	14.472310
_cell_angle_alpha	90.009379
_cell_angle_beta	89.999258
_cell_angle_gamma	96.682538
loop_
_atom_site_label
_atom_site_type_symbol
_atom_site_fract_x
_atom_site_fract_y
_atom_site_fract_z
O1	O	0.089992	-1.110665	-0.076762
O2	O	0.101105	-0.866849	-0.076781
O3	O	-0.006090	-0.995795	-0.076766
O4	O	0.197186	-0.981718	-0.076777
O5	O	-0.006084	-0.995762	0.076916
O6	O	0.101111	-0.866815	0.076901
O7	O	0.089998	-1.110632	0.076920
Cu8	Cu	0.095555	-0.988721	0.090943
Cu9	Cu	0.095548	-0.988760	-0.090804
O10	O	0.197192	-0.981685	0.076905
C11	C	0.100649	-0.835639	0.000058
C12	C	0.099271	-0.742694	0.000051
C13	C	-0.032099	-0.995323	0.000075
C14	C	-0.109607	-0.993957	0.000073
C15	C	0.090454	-1.141841	0.000079
C16	C	0.091832	-1.234787	0.000081
C17	C	-0.671208	-1.060471	0.000055
C18	C	-0.598381	-1.061762	0.000063
C19	C	-0.553640	-0.986100	0.000057
C20	C	-0.581730	-0.909142	0.000066
C21	C	-0.654555	-0.907853	0.000067
N22	N	-0.433101	-0.931336	-0.052257
N23	N	-0.363920	-0.932565	-0.052259
C24	C	-0.334221	-0.989979	0.000056
N25	N	-0.376316	-1.046129	0.052364
N26	N	-0.445503	-1.044902	0.052362
C27	C	-0.474672	-0.987489	0.000057
C28	C	-0.227172	-1.068332	0.000063
C29	C	-0.154344	-1.069620	0.000077
C30	C	-0.137693	-0.916998	0.000071
C31	C	-0.210520	-0.915712	0.000066
C32	C	-0.255256	-0.991382	0.000058
C33	C	0.223202	-0.982157	0.000062
C34	C	0.300710	-0.983523	0.000058
N35	N	0.095560	-0.988699	0.218774
C36	C	0.094325	-0.404964	0.000070
C37	C	0.017982	-0.452680	0.000417
C38	C	0.019360	-0.549365	0.000064
C39	C	0.096778	-0.572516	0.000061
C40	C	0.134429	-0.531309	-0.087697
C41	C	0.132511	-0.434680	-0.087764
C42	C	0.134096	-0.434298	0.087001
C43	C	0.134078	-0.531243	0.088154
C44	C	0.098169	-0.667208	0.000053
C45	C	0.092936	-0.310272	0.000072
N46	N	0.095537	-0.988788	-0.218635
C47	C	0.095545	-0.988759	0.592865
C48	C	0.152710	-0.919532	0.553691
C49	C	0.152919	-0.919690	0.446603
C50	C	0.095552	-0.988728	0.407274
C51	C	0.111464	-1.076034	0.446117
C52	C	0.111870	-1.075645	0.553238
C53	C	0.022298	-0.971459	0.553397
C54	C	0.022787	-0.969454	0.446269
C55	C	0.095555	-0.988717	0.302386
C56	C	0.095544	-0.988776	0.697753
H57	H	-0.575512	-1.124424	0.000060
H58	H	-0.010441	-0.577346	-0.062951
H59	H	0.191306	-0.545225	-0.090963
H60	H	-0.131482	-1.132283	0.000080
H61	H	-0.707627	-1.122087	0.000053
C62	C	0.095409	-0.410096	-0.176379
C63	C	0.067728	-0.478354	-0.246591
C64	C	0.030623	-0.453775	-0.335207
C65	C	0.021199	-0.360937	-0.353611
C66	C	0.048880	-0.292673	-0.283397
C67	C	0.085985	-0.317252	-0.194781
H68	H	0.074704	-0.547083	-0.232970
H69	H	0.010132	-0.504309	-0.387184
H70	H	-0.006268	-0.342742	-0.419210
H71	H	0.041905	-0.223944	-0.297019
H72	H	0.106476	-0.266718	-0.142804
C73	C	0.056717	-1.147280	0.411699
C74	C	0.011108	-1.201746	0.481608
C75	C	-0.043640	-1.272989	0.447189
C76	C	-0.052779	-1.289766	0.342861
C77	C	-0.007168	-1.235299	0.272945
C78	C	0.047580	-1.164056	0.307365
H79	H	0.017872	-1.189327	0.558844
H80	H	-0.077404	-1.313309	0.498945
H81	H	-0.093306	-1.342505	0.317382
H82	H	-0.013932	-1.247717	0.195710
H83	H	0.081344	-1.123735	0.255608
H84	H	0.188560	-0.402226	-0.091749
C85	C	0.210351	-0.551701	0.095310
C86	C	0.240236	-0.606486	0.020954
C87	C	0.316514	-0.626940	0.028100
C88	C	0.362908	-0.592609	0.109602
C89	C	0.333023	-0.537821	0.183964
C90	C	0.256745	-0.517367	0.176818
H91	H	0.205893	-0.631903	-0.039384
H92	H	0.338636	-0.667497	-0.026948
H93	H	0.419373	-0.607750	0.114892
H94	H	0.367367	-0.512404	0.244302
H95	H	0.234623	-0.476809	0.231867
C96	C	0.099088	-0.569771	-0.175931
C97	C	0.036118	-0.638514	-0.168534
C98	C	0.000770	-0.676970	-0.256765
C99	C	0.028392	-0.646683	-0.352392
C100	C	0.091365	-0.577936	-0.359793
C101	C	0.126714	-0.539480	-0.271562
H102	H	0.015668	-0.660937	-0.097741
H103	H	-0.045847	-0.727861	-0.251286
H104	H	0.002225	-0.675150	-0.417706
H105	H	0.111816	-0.555512	-0.430586
H106	H	0.173331	-0.488589	-0.277041
C107	C	0.210135	-0.391111	0.087809
C108	C	0.259726	-0.404630	0.006895
C109	C	0.335762	-0.361440	0.007695
C110	C	0.362205	-0.304730	0.089409
C111	C	0.312613	-0.291208	0.170330
C112	C	0.236577	-0.334398	0.169530
H113	H	0.240152	-0.446613	-0.053601
H114	H	0.372473	-0.371450	-0.052208
H115	H	0.418491	-0.272757	0.090002
H116	H	0.332187	-0.249225	0.230825
H117	H	0.199866	-0.324388	0.229433
C118	C	-0.023263	-0.426262	-0.083888
C119	C	-0.052771	-0.492647	-0.155146
C120	C	-0.094110	-0.466171	-0.239338
C121	C	-0.105939	-0.373309	-0.252273
C122	C	-0.076430	-0.306918	-0.181012
C123	C	-0.035091	-0.333395	-0.096820
H124	H	-0.044015	-0.561394	-0.145573
H125	H	-0.115954	-0.515318	-0.292089
H126	H	-0.136540	-0.353710	-0.314597
H127	H	-0.085186	-0.238172	-0.190585
H128	H	-0.013247	-0.284247	-0.044069
H129	H	-0.010236	-0.577889	0.062974
H130	H	0.109140	-0.413840	0.153519
C131	C	0.182807	-1.097191	0.409870
C132	C	0.226681	-1.035406	0.345077
C133	C	0.298026	-1.056557	0.308832
C134	C	0.325498	-1.139493	0.337380
C135	C	0.281624	-1.201284	0.402176
C136	C	0.210278	-1.180133	0.438421
H137	H	0.206345	-0.974006	0.323941
H138	H	0.330505	-1.010815	0.260866
H139	H	0.378312	-1.155151	0.310549
H140	H	0.301959	-1.262684	0.423312
H141	H	0.177800	-1.225875	0.486387
H142	H	0.143386	-0.854416	0.579474
H143	H	-0.101265	-0.855392	0.000074
C144	C	0.225737	-0.934241	0.589979
C145	C	0.233642	-1.008774	0.654969
C146	C	0.306671	-1.023503	0.691232
C147	C	0.371794	-0.963701	0.662506
C148	C	0.363891	-0.889163	0.597513
C149	C	0.290862	-0.874433	0.561249
H150	H	0.185432	-1.053048	0.676237
H151	H	0.312521	-1.078681	0.739345
H152	H	0.425854	-0.974604	0.689350
H153	H	0.412101	-0.844889	0.576244
H154	H	0.285012	-0.819255	0.513137
C155	C	0.226348	-0.934578	0.411964
C156	C	0.257306	-1.015930	0.438286
C157	C	0.330739	-1.030820	0.403649
C158	C	0.373213	-0.964358	0.342690
C159	C	0.342255	-0.883000	0.316364
C160	C	0.268822	-0.868110	0.351001
H161	H	0.225864	-1.065134	0.483415
H162	H	0.353656	-1.091047	0.423138
H163	H	0.427572	-0.975381	0.317049
H164	H	0.373697	-0.833796	0.271235
H165	H	0.245906	-0.807883	0.331512
H166	H	-0.233384	-0.853052	0.000062
H167	H	-0.012531	-0.434257	0.063352
H168	H	0.006998	-0.909193	0.580461
H169	H	0.010711	-0.905232	0.420883
C170	C	0.096945	-0.568251	0.175867
C171	C	0.033056	-0.635630	0.167581
C172	C	-0.004077	-0.672645	0.255291
C173	C	0.022679	-0.642280	0.351287
C174	C	0.086572	-0.574897	0.359577
C175	C	0.123705	-0.537883	0.271867
H176	H	0.013246	-0.658111	0.096515
H177	H	-0.051375	-0.722526	0.249154
H178	H	-0.004809	-0.669680	0.416216
H179	H	0.106382	-0.552416	0.430643
H180	H	0.171003	-0.488001	0.278004
C181	C	0.184035	-1.096289	0.586984
C182	C	0.189251	-1.174222	0.647932
C183	C	0.261418	-1.194864	0.681671
C184	C	0.328368	-1.137573	0.654463
C185	C	0.323154	-1.059635	0.593511
C186	C	0.250987	-1.038993	0.559772
H187	H	0.139689	-1.216637	0.668077
H188	H	0.265277	-1.252560	0.726792
H189	H	0.381790	-1.152854	0.679439
H190	H	0.372716	-1.017220	0.573367
H191	H	0.247128	-0.981297	0.514651
H192	H	0.071876	-1.128753	0.579150
H193	H	0.143439	-0.854786	0.420343
H194	H	-0.020242	-1.021946	0.578729
C195	C	-0.532517	-0.825913	0.000058
C196	C	-0.452412	-0.827326	0.000051
C197	C	-0.403200	-0.744094	0.000048
C198	C	-0.434093	-0.659448	0.000052
C199	C	-0.514203	-0.658031	0.000058
C200	C	-0.563415	-0.741264	0.000061
H201	H	-0.429539	-0.889989	0.000048
H202	H	-0.343897	-0.745143	0.000043
H203	H	-0.397664	-0.597834	0.000049
H204	H	-0.537076	-0.595368	0.000061
H205	H	-0.622717	-0.740214	0.000066
C206	C	-0.276386	-1.151564	0.000069
C207	C	-0.245493	-1.236210	0.000083
C208	C	-0.294704	-1.319443	0.000091
C209	C	-0.374810	-1.318030	0.000085
C210	C	-0.405708	-1.233381	0.000072
C211	C	-0.356496	-1.150148	0.000064
H212	H	-0.186190	-1.237259	0.000087
H213	H	-0.271831	-1.382106	0.000101
H214	H	-0.411239	-1.379644	0.000091
H215	H	-0.465010	-1.232332	0.000068
H216	H	-0.379369	-1.087485	0.000054
C217	C	-0.037376	-1.033179	0.410117
C218	C	-0.083660	-1.088550	0.478553
C219	C	-0.143819	-1.152286	0.442403
C220	C	-0.157694	-1.160652	0.337818
C221	C	-0.111407	-1.105279	0.269376
C222	C	-0.051248	-1.041542	0.305525
H223	H	-0.073391	-1.082359	0.555979
H224	H	-0.178083	-1.193277	0.493070
H225	H	-0.202227	-1.207833	0.311058
H226	H	-0.121677	-1.111469	0.191950
H227	H	-0.016984	-1.000551	0.254859
H228	H	-0.677418	-0.845191	0.000072
