data_functionalizedCrystal
_audit_creation_method	'MofGen! by Chris Wilmer'
_symmetry_space_group_name_H-M	'P1'
_symmetry_Int_Tables_number	1
_symmetry_cell_setting	triclinic
loop_
_symmetry_equiv_pos_as_xyz
  x,y,z
_cell_length_a	15.944551
_cell_length_b	19.188930
_cell_length_c	14.421503
_cell_angle_alpha	89.999163
_cell_angle_beta	89.996859
_cell_angle_gamma	83.321760
loop_
_atom_site_label
_atom_site_type_symbol
_atom_site_fract_x
_atom_site_fract_y
_atom_site_fract_z
O1	O	1.114192	0.090038	-0.077026
O2	O	1.614192	0.590038	0.422974
O3	O	0.869601	0.101140	-0.077050
O4	O	1.369601	0.601140	0.422950
O5	O	0.998955	-0.006048	-0.077019
O6	O	1.498955	0.493952	0.422981
O7	O	0.984838	0.197227	-0.077057
O8	O	1.484838	0.697227	0.422943
O9	O	0.998934	-0.006032	0.077204
O10	O	1.498934	0.493968	0.577204
O11	O	0.869580	0.101156	0.077173
O12	O	1.369580	0.601156	0.577173
O13	O	1.114171	0.090054	0.077198
O14	O	1.614171	0.590054	0.577198
Cu15	Cu	0.991873	0.095607	0.091267
Cu16	Cu	1.491873	0.595607	0.591267
Cu17	Cu	0.991899	0.095588	-0.091120
Cu18	Cu	1.491899	0.595588	0.408880
O19	O	0.984817	0.197243	0.077167
O20	O	1.484817	0.697243	0.577167
C21	C	0.838298	0.100687	0.000059
C22	C	1.338298	0.600687	0.500059
C23	C	0.745057	0.099306	0.000050
C24	C	1.245057	0.599306	0.500050
C25	C	0.530462	0.029563	0.000081
C26	C	1.030462	0.529563	0.500081
C27	C	0.469331	0.061941	-0.075965
C28	C	0.969331	0.561941	0.424035
C29	C	0.574341	0.096806	0.000062
C30	C	1.074341	0.596806	0.500062
C31	C	0.469332	0.061973	0.076087
C32	C	0.969332	0.561973	0.576087
C33	C	0.409437	0.094386	0.000077
C34	C	0.909437	0.594386	0.500077
C35	C	0.514438	0.129203	-0.076047
C36	C	1.014438	0.629203	0.423953
C37	C	0.514446	0.129225	0.076073
C38	C	1.014446	0.629225	0.576073
C39	C	0.453332	0.161652	0.000008
C40	C	0.953332	0.661652	0.500008
C41	C	0.669338	0.098198	0.000052
C42	C	1.169338	0.598198	0.500052
C43	C	0.314441	0.093000	0.000080
C44	C	0.814441	0.593000	0.500080
C45	C	0.998487	-0.032052	0.000095
C46	C	1.498487	0.467948	0.500095
C47	C	0.997115	-0.109560	0.000103
C48	C	1.497115	0.390440	0.500103
C49	C	1.073016	-0.154288	0.000115
C50	C	1.573016	0.345712	0.500115
C51	C	1.071726	-0.227115	0.000100
C52	C	1.571726	0.272885	0.500100
C53	C	0.994532	-0.255211	0.000092
C54	C	1.494532	0.244789	0.500092
C55	C	0.918622	-0.210474	0.000075
C56	C	1.418622	0.289526	0.500075
C57	C	0.919913	-0.137648	0.000080
C58	C	1.419913	0.362352	0.500080
N59	N	0.935519	-0.363364	0.052571
N60	N	1.435519	0.136636	0.552571
N61	N	0.934298	-0.432545	0.052568
N62	N	1.434298	0.067455	0.552568
C63	C	0.990637	-0.474630	0.000073
C64	C	1.490637	0.025370	0.500073
N65	N	1.048256	-0.444921	-0.052407
N66	N	1.548256	0.055079	0.447593
N67	N	1.049480	-0.375733	-0.052400
N68	N	1.549480	0.124267	0.447600
C69	C	0.993123	-0.334178	0.000085
C70	C	1.493123	0.165822	0.500085
C71	C	1.065145	-0.598326	0.000067
C72	C	1.565145	-0.098326	0.500067
C73	C	1.063852	-0.671154	0.000046
C74	C	1.563852	-0.171154	0.500046
C75	C	0.910745	-0.654511	0.000030
C76	C	1.410745	-0.154511	0.500030
C77	C	0.912040	-0.581685	0.000041
C78	C	1.412040	-0.081685	0.500041
C79	C	0.989242	-0.553597	0.000064
C80	C	1.489242	-0.053597	0.500064
C81	C	1.145474	0.090507	0.000087
C82	C	1.645474	0.590507	0.500087
C83	C	1.238715	0.091889	0.000089
C84	C	1.738715	0.591889	0.500089
C85	C	0.985285	0.223247	0.000050
C86	C	1.485285	0.723247	0.500050
C87	C	0.986657	0.300755	0.000036
C88	C	1.486657	0.800755	0.500036
N89	N	0.991862	0.095619	0.219549
N90	N	1.491862	0.595619	0.719549
N91	N	0.991917	0.095569	-0.219401
N92	N	1.491917	0.595569	0.280599
C93	C	0.932038	0.145161	0.469188
C94	C	1.432038	0.645161	0.969188
C95	C	1.007887	0.158716	0.530995
C96	C	1.507887	0.658716	1.030995
C97	C	0.991882	0.095603	0.408710
C98	C	1.491882	0.595603	0.908710
C99	C	0.916052	0.082064	0.530997
C100	C	1.416052	0.582064	1.030997
C101	C	0.991895	0.095588	0.591431
C102	C	1.491895	0.595588	1.091431
C103	C	1.067770	0.109189	0.469157
C104	C	1.567770	0.609189	0.969157
C105	C	0.975885	0.032510	0.469153
C106	C	1.475885	0.532510	0.969153
C107	C	1.051789	0.046038	0.530932
C108	C	1.551789	0.546038	1.030932
C109	C	0.991874	0.095613	0.303449
C110	C	1.491874	0.595613	0.803449
C111	C	0.991913	0.095578	0.696690
C112	C	1.491913	0.595578	1.196690
H113	H	1.135880	-0.131424	0.000131
H114	H	1.635880	0.368576	0.500131
H115	H	0.881481	0.187105	0.442078
H116	H	1.381481	0.687105	0.942078
H117	H	0.449336	0.033493	-0.140247
H118	H	0.949336	0.533493	0.359753
C119	C	0.829419	0.066595	0.567694
C120	C	1.329419	0.566595	1.067694
H121	H	0.836247	0.024977	0.603935
H122	H	1.336247	0.524977	1.103935
H123	H	0.793001	0.060555	0.516925
H124	H	1.293001	0.560555	1.016925
H125	H	0.805567	0.104714	0.604877
H126	H	1.305567	0.604714	1.104877
C127	C	0.541299	0.167601	-0.162984
C128	C	1.041299	0.667601	0.337016
H129	H	0.600789	0.168226	-0.162470
H130	H	1.100789	0.668226	0.337530
H131	H	0.514187	0.214379	-0.163189
H132	H	1.014187	0.714379	0.336811
H133	H	0.525505	0.143878	-0.216926
H134	H	1.025505	0.643878	0.283074
H135	H	1.133536	-0.263540	0.000106
H136	H	1.633536	0.236460	0.500106
C137	C	0.408247	0.237115	-0.000061
C138	C	0.908247	0.737115	0.499939
H139	H	0.423676	0.260880	-0.054130
H140	H	0.923676	0.760880	0.445870
H141	H	0.424376	0.261184	0.053438
H142	H	0.924376	0.761184	0.553438
H143	H	0.348866	0.235833	0.000445
H144	H	0.848866	0.735833	0.500445
C145	C	0.836421	-0.088443	0.000069
C146	C	1.336421	0.411557	0.500069
H147	H	0.848247	-0.041048	0.000069
H148	H	1.348247	0.458952	0.500069
H149	H	0.804743	-0.096961	0.053842
H150	H	1.304743	0.403039	0.553842
H151	H	0.804769	-0.096956	-0.053727
H152	H	1.304769	0.403044	0.446273
C153	C	1.120234	-0.010587	0.567337
C154	C	1.620234	0.489413	1.067337
H155	H	1.174047	-0.000858	0.546047
H156	H	1.674047	0.499142	1.046047
H157	H	1.109323	-0.055287	0.545225
H158	H	1.609323	0.444713	1.045225
H159	H	1.119566	-0.010539	0.633207
H160	H	1.619566	0.489461	1.133207
H161	H	0.564003	-0.026244	-0.000003
H162	H	1.064003	0.473756	0.499997
C163	C	0.833710	-0.241377	0.000069
C164	C	1.333710	0.258623	0.500069
H165	H	0.843811	-0.291155	0.000077
H166	H	1.343811	0.208845	0.500077
H167	H	0.802475	-0.226023	-0.053715
H168	H	1.302475	0.273977	0.446285
H169	H	0.802463	-0.226023	0.053854
H170	H	1.302463	0.273977	0.553854
C171	C	1.150061	-0.567426	0.000082
C172	C	1.650061	-0.067426	0.500082
H173	H	1.195082	-0.604498	0.000073
H174	H	1.695082	-0.104498	0.500073
H175	H	1.153741	-0.539367	0.053867
H176	H	1.653741	-0.039367	0.553867
H177	H	1.153753	-0.539359	-0.053702
H178	H	1.653753	-0.039359	0.446298
C179	C	1.154428	0.124738	0.432627
C180	C	1.654428	0.624738	0.932627
H181	H	1.190606	0.131199	0.483477
H182	H	1.690606	0.631199	0.983477
H183	H	1.147544	0.166136	0.395964
H184	H	1.647544	0.666136	0.895964
H185	H	1.178603	0.086462	0.395913
H186	H	1.678603	0.586462	0.895913
H187	H	1.125662	-0.707571	0.000051
H188	H	1.625662	-0.207571	0.500051
C189	C	0.825833	-0.685408	0.000018
C190	C	1.325833	-0.185408	0.500018
H191	H	0.835933	-0.735187	0.000020
H192	H	1.335933	-0.235187	0.500020
H193	H	0.794599	-0.670050	-0.053765
H194	H	1.294599	-0.170050	0.446235
H195	H	0.794584	-0.670058	0.053804
H196	H	1.294584	-0.170058	0.553804
C197	C	0.828548	-0.532482	0.000044
C198	C	1.328548	-0.032482	0.500044
H199	H	0.782388	-0.559643	0.000045
H200	H	1.282388	-0.059643	0.500045
H201	H	0.825874	-0.503722	-0.053733
H202	H	1.325874	-0.003722	0.446267
H203	H	0.825866	-0.503732	0.053836
H204	H	1.325866	-0.003732	0.553836
C205	C	0.541497	0.167621	0.162913
C206	C	1.041497	0.667621	0.662913
H207	H	0.526238	0.143667	0.216897
H208	H	1.026238	0.643667	0.716897
H209	H	0.514026	0.214281	0.163451
H210	H	1.014026	0.714281	0.663451
H211	H	0.600926	0.168586	0.161976
H212	H	1.100926	0.668586	0.661976
H213	H	0.449343	0.033526	0.140376
H214	H	0.949343	0.533526	0.640376
C215	C	1.026178	0.230782	0.567706
C216	C	1.526178	0.730782	1.067706
H217	H	0.983602	0.265949	0.546574
H218	H	1.483602	0.765949	1.046574
H219	H	1.079640	0.240740	0.545627
H220	H	1.579640	0.740740	1.045627
H221	H	1.026556	0.230120	0.633574
H222	H	1.526556	0.730120	1.133574
H223	H	0.962318	-0.020823	0.441967
H224	H	1.462318	0.479177	0.941967
