data_functionalizedCrystal
_audit_creation_method	'MofGen! by Chris Wilmer'
_symmetry_space_group_name_H-M	'P1'
_symmetry_Int_Tables_number	1
_symmetry_cell_setting	triclinic
loop_
_symmetry_equiv_pos_as_xyz
  x,y,z
_cell_length_a	6.817900
_cell_length_b	19.452420
_cell_length_c	19.453046
_cell_angle_alpha	96.332859
_cell_angle_beta	101.708137
_cell_angle_gamma	101.696715
loop_
_atom_site_label
_atom_site_type_symbol
_atom_site_fract_x
_atom_site_fract_y
_atom_site_fract_z
V1	V	-3.997944	-0.097931	-0.219347
V2	V	-3.497944	0.402069	0.280653
O3	O	-3.995097	0.003938	-0.214818
O4	O	-3.495097	0.503938	0.285182
O5	O	-3.940914	-0.193441	-0.218187
O6	O	-3.440914	0.306559	0.281813
O7	O	-3.940964	-0.096762	-0.314857
O8	O	-3.440964	0.403238	0.185143
O9	O	-3.995047	-0.093411	-0.117479
O10	O	-3.495047	0.406589	0.382521
V11	V	-4.483802	-0.085706	-0.207122
V12	V	-3.983802	0.414294	0.292878
O13	O	-4.254081	-0.124746	-0.246165
O14	O	-3.754081	0.375254	0.253835
O15	O	-4.677863	-0.058891	-0.180304
O16	O	-4.177863	0.441109	0.319696
O17	O	-4.317625	0.009804	-0.208282
O18	O	-3.817625	0.509804	0.291718
O19	O	-4.604046	-0.187575	-0.211651
O20	O	-4.104046	0.312425	0.288349
O21	O	-4.604096	-0.090226	-0.308990
O22	O	-4.104096	0.409774	0.191010
O23	O	-4.317575	-0.086876	-0.111612
O24	O	-3.817575	0.413124	0.388388
C25	C	-3.784093	-0.216714	-0.214815
C26	C	-3.284093	0.283286	0.285185
C27	C	-3.818694	-0.294798	-0.214503
C28	C	-3.318694	0.205202	0.285497
C29	C	-3.801489	-0.321207	-0.149988
C30	C	-3.301489	0.178793	0.350012
C31	C	-3.834073	-0.394572	-0.149673
C32	C	-3.334073	0.105428	0.350327
C33	C	-3.883824	-0.441526	-0.213877
C34	C	-3.383824	0.058474	0.286123
C35	C	-3.901042	-0.415109	-0.278400
C36	C	-3.401042	0.084891	0.221600
C37	C	-3.868477	-0.341745	-0.278714
C38	C	-3.368477	0.158255	0.221286
N39	N	-3.846560	-0.562128	-0.259094
N40	N	-3.346560	-0.062128	0.240906
N41	N	-3.877489	-0.631820	-0.258792
N42	N	-3.377489	-0.131820	0.241208
C43	C	-3.981947	-0.662568	-0.212937
C44	C	-3.481947	-0.162568	0.287063
N45	N	-4.054277	-0.620989	-0.167384
N46	N	-3.554277	-0.120989	0.332616
N47	N	-4.023335	-0.551290	-0.167684
N48	N	-3.523335	-0.051290	0.332316
C49	C	-3.919140	-0.521078	-0.213544
C50	C	-3.419140	-0.021078	0.286456
C51	C	-4.000073	-0.768528	-0.148077
C52	C	-3.500073	-0.268528	0.351923
C53	C	-4.032672	-0.841896	-0.147765
C54	C	-3.532672	-0.341896	0.352235
C55	C	-4.099621	-0.862431	-0.276494
C56	C	-3.599621	-0.362431	0.223506
C57	C	-4.067042	-0.789065	-0.276804
C58	C	-3.567042	-0.289065	0.223196
C59	C	-4.017259	-0.742117	-0.212593
C60	C	-3.517259	-0.242117	0.287407
C61	C	-3.784156	-0.093389	-0.338126
C62	C	-3.284156	0.406611	0.161874
C63	C	-3.818796	-0.093065	-0.416208
C64	C	-3.318796	0.406935	0.083792
C65	C	-4.099518	-0.155083	-0.983842
C66	C	-3.599518	0.344917	-0.483842
C67	C	-4.066958	-0.155393	-0.910477
C68	C	-3.566958	0.344607	-0.410477
C69	C	-4.017245	-0.091187	-0.863528
C70	C	-3.517245	0.408813	-0.363528
C71	C	-4.000041	-0.026667	-0.889950
C72	C	-3.500041	0.473333	-0.389950
C73	C	-4.032581	-0.026359	-0.963314
C74	C	-3.532581	0.473641	-0.463314
N75	N	-4.054572	-0.045961	-0.742942
N76	N	-3.554572	0.454039	-0.242942
N77	N	-4.023667	-0.046258	-0.673250
N78	N	-3.523667	0.453742	-0.173250
C79	C	-3.919197	-0.092112	-0.642485
C80	C	-3.419197	0.407888	-0.142485
N81	N	-3.846831	-0.137669	-0.684047
N82	N	-3.346831	0.362331	-0.184047
N83	N	-3.877749	-0.137374	-0.753746
N84	N	-3.377749	0.362626	-0.253746
C85	C	-3.981956	-0.091514	-0.783976
C86	C	-3.481956	0.408486	-0.283976
C87	C	-3.901084	-0.156964	-0.536519
C88	C	-3.401084	0.343036	-0.036519
C89	C	-3.868510	-0.157271	-0.463152
C90	C	-3.368510	0.342729	0.036848
C91	C	-3.801613	-0.028543	-0.442626
C92	C	-3.301613	0.471457	0.057374
C93	C	-3.834167	-0.028238	-0.515993
C94	C	-3.334167	0.471762	-0.015993
C95	C	-3.883911	-0.092451	-0.562935
C96	C	-3.383911	0.407549	-0.062935
C97	C	-4.137788	0.033073	-0.211653
C98	C	-3.637788	0.533073	0.288347
C99	C	-4.082425	0.111156	-0.211969
C100	C	-3.582425	0.611156	0.288031
C101	C	-4.137725	-0.090251	-0.088340
C102	C	-3.637725	0.409749	0.411660
C103	C	-4.082325	-0.090571	-0.010257
C104	C	-3.582325	0.409429	0.489743
H105	H	-3.941554	-0.453344	-0.330675
H106	H	-3.441554	0.046656	0.169325
H107	H	-4.018671	-0.863395	-0.095227
H108	H	-3.518671	-0.363395	0.404773
H109	H	-3.761114	0.023735	-0.404401
H110	H	-3.261114	0.523735	0.095599
H111	H	-3.959537	-0.730301	-0.095793
H112	H	-3.459537	-0.230301	0.404207
O113	O	-3.753409	-0.275541	-0.087666
O114	O	-3.253409	0.224459	0.412334
C115	C	-3.905005	-0.235895	-0.087325
C116	C	-3.405005	0.264105	0.412675
H117	H	-3.986670	-0.234945	-0.144366
H118	H	-3.486670	0.265055	0.355634
H119	H	-3.829164	-0.179198	-0.059549
H120	H	-3.329164	0.320802	0.440451
H121	H	-4.021761	-0.261481	-0.057785
H122	H	-3.521761	0.238519	0.442215
H123	H	-4.140018	-0.207370	-1.022059
H124	H	-3.640018	0.292630	-0.522059
H125	H	-3.820174	0.024295	-0.537499
H126	H	-3.320174	0.524295	-0.037499
H127	H	-4.140130	-0.900660	-0.328769
H128	H	-3.640130	-0.400660	0.171231
H129	H	-4.081039	-0.767563	-0.329339
H130	H	-3.581039	-0.267563	0.170661
O131	O	-3.884876	-0.219927	-0.437468
O132	O	-3.384876	0.280073	0.062532
C133	C	-3.695686	-0.220648	-0.392225
C134	C	-3.195686	0.279352	0.107775
H135	H	-3.565959	-0.181701	-0.406107
H136	H	-3.065959	0.318299	0.093893
H137	H	-3.667093	-0.276463	-0.399349
H138	H	-3.167093	0.223537	0.100651
H139	H	-3.701021	-0.204365	-0.334634
H140	H	-3.201021	0.295635	0.165366
H141	H	-3.941570	-0.209250	-0.574742
H142	H	-3.441570	0.290750	-0.074742
H143	H	-3.820058	-0.416079	-0.097136
H144	H	-3.320058	0.083921	0.402864
O145	O	-3.885171	-0.316205	-0.341448
O146	O	-3.385171	0.183795	0.158552
C147	C	-3.936132	-0.373377	-0.398052
C148	C	-3.436132	0.126623	0.101948
H149	H	-3.886519	-0.421426	-0.377740
H150	H	-3.386519	0.078574	0.122260
H151	H	-3.853486	-0.357461	-0.441283
H152	H	-3.353486	0.142539	0.058717
H153	H	-4.109593	-0.387474	-0.420904
H154	H	-3.609593	0.112526	0.079096
O155	O	-4.083809	-0.218056	-0.884792
O156	O	-3.583809	0.281944	-0.384792
C157	C	-4.239427	-0.225533	-0.846392
C158	C	-3.739427	0.274467	-0.346392
H159	H	-4.263054	-0.170842	-0.827546
H160	H	-3.763054	0.329158	-0.327546
H161	H	-4.191874	-0.252303	-0.798431
H162	H	-3.691874	0.247697	-0.298431
H163	H	-4.389187	-0.259498	-0.882145
H164	H	-3.889187	0.240502	-0.382145
O165	O	-3.952109	0.035677	-0.844327
O166	O	-3.452109	0.535677	-0.344327
C167	C	-4.103680	0.036004	-0.804677
C168	C	-3.603680	0.536004	-0.304677
H169	H	-4.252974	-0.002761	-0.834996
H170	H	-3.752974	0.497239	-0.334996
H171	H	-4.131600	0.091804	-0.795913
H172	H	-3.631600	0.591804	-0.295913
H173	H	-4.049031	0.019234	-0.751061
H174	H	-3.549031	0.519234	-0.251061
H175	H	-4.018584	0.026177	-0.984819
H176	H	-3.518584	0.526177	-0.484819
