data_functionalizedCrystal
_audit_creation_method	'MofGen! by Chris Wilmer'
_symmetry_space_group_name_H-M	'P1'
_symmetry_Int_Tables_number	1
_symmetry_cell_setting	triclinic
loop_
_symmetry_equiv_pos_as_xyz
  x,y,z
_cell_length_a	17.038272
_cell_length_b	19.188930
_cell_length_c	16.098538
_cell_angle_alpha	92.708456
_cell_angle_beta	87.069734
_cell_angle_gamma	87.128169
loop_
_atom_site_label
_atom_site_type_symbol
_atom_site_fract_x
_atom_site_fract_y
_atom_site_fract_z
O1	O	1.040399	0.148677	-0.069168
O2	O	1.373733	0.482011	0.264165
O3	O	1.707066	0.815344	0.597499
O4	O	0.812777	0.146269	-0.069192
O5	O	1.146111	0.479603	0.264141
O6	O	1.479444	0.812936	0.597475
O7	O	0.933156	0.046226	-0.069163
O8	O	1.266489	0.379560	0.264170
O9	O	1.599823	0.712893	0.597504
O10	O	0.920020	0.248720	-0.069197
O11	O	1.253354	0.582053	0.264136
O12	O	1.586687	0.915387	0.597470
O13	O	0.926124	0.052046	0.069348
O14	O	1.259458	0.385379	0.402682
O15	O	1.592791	0.718713	0.736015
O16	O	0.805745	0.152089	0.069319
O17	O	1.139079	0.485422	0.402652
O18	O	1.472412	0.818755	0.735986
O19	O	1.033367	0.154497	0.069343
O20	O	1.366701	0.487830	0.402677
O21	O	1.700034	0.821163	0.736010
Zn22	Zn	0.918440	0.154217	0.091323
Zn23	Zn	1.251773	0.487550	0.424656
Zn24	Zn	1.585107	0.820883	0.757990
Zn25	Zn	0.927705	0.146549	-0.091172
Zn26	Zn	1.261038	0.479883	0.242162
Zn27	Zn	1.594371	0.813216	0.575495
O28	O	0.912989	0.254540	0.069314
O29	O	1.246322	0.587873	0.402648
O30	O	1.579655	0.921206	0.735981
C31	C	0.780140	0.146990	0.000061
C32	C	1.113473	0.480323	0.333394
C33	C	1.446807	0.813656	0.666727
C34	C	0.693368	0.140458	0.000052
C35	C	1.026701	0.473791	0.333385
C36	C	1.360035	0.807124	0.666719
C37	C	0.643067	0.200424	0.000043
C38	C	0.976400	0.533757	0.333376
C39	C	1.309734	0.867091	0.666709
C40	C	0.561535	0.194283	0.000055
C41	C	0.894868	0.527617	0.333389
C42	C	1.228202	0.860950	0.666722
C43	C	0.530306	0.128176	0.000071
C44	C	0.863639	0.461509	0.333405
C45	C	1.196973	0.794842	0.666738
C46	C	0.580613	0.068205	0.000083
C47	C	0.913947	0.401539	0.333416
C48	C	1.247280	0.734872	0.666750
C49	C	0.662144	0.074347	0.000077
C50	C	0.995477	0.407680	0.333410
C51	C	1.328810	0.741013	0.666743
C52	C	0.284615	0.106479	0.000097
C53	C	0.617948	0.439812	0.333430
C54	C	0.951281	0.773146	0.666764
C55	C	0.203078	0.100342	0.000101
C56	C	0.536412	0.433675	0.333435
C57	C	0.869745	0.767008	0.666768
C58	C	0.184005	0.226420	0.000075
C59	C	0.517338	0.559754	0.333408
C60	C	0.850672	0.893087	0.666742
C61	C	0.265538	0.232556	0.000063
C62	C	0.598871	0.565889	0.333397
C63	C	0.932205	0.899223	0.666730
C64	C	0.315838	0.172586	0.000080
C65	C	0.649171	0.505919	0.333413
C66	C	0.982505	0.839252	0.666746
C67	C	0.446968	0.121897	0.000081
C68	C	0.780301	0.455231	0.333415
C69	C	1.113634	0.788564	0.666748
C70	C	0.399175	0.178865	0.000075
C71	C	0.732508	0.512198	0.333409
C72	C	1.065841	0.845532	0.666742
C73	C	0.929215	0.023099	0.000095
C74	C	1.262548	0.356432	0.333428
C75	C	1.595881	0.689765	0.666762
C76	C	0.927937	-0.054485	0.000102
C77	C	1.261271	0.278849	0.333435
C78	C	1.594604	0.612182	0.666769
C79	C	0.998572	-0.095020	0.000113
C80	C	1.331905	0.238313	0.333447
C81	C	1.665238	0.571647	0.666780
C82	C	0.997373	-0.167919	0.000100
C83	C	1.330706	0.165414	0.333433
C84	C	1.664039	0.498748	0.666767
C85	C	0.925534	-0.200279	0.000092
C86	C	1.258867	0.133054	0.333425
C87	C	1.592201	0.466388	0.666758
C88	C	0.854890	-0.159735	0.000076
C89	C	1.188224	0.173599	0.333409
C90	C	1.521557	0.506932	0.666742
C91	C	0.856092	-0.086838	0.000081
C92	C	1.189425	0.246496	0.333414
C93	C	1.522759	0.579829	0.666747
N94	N	0.868229	-0.309715	0.047224
N95	N	1.201562	0.023618	0.380557
N96	N	1.534896	0.356952	0.713891
N97	N	0.867092	-0.378964	0.047221
N98	N	1.200426	-0.045631	0.380554
N99	N	1.533759	0.287702	0.713888
C100	C	0.921910	-0.419913	0.000075
C101	C	1.255243	-0.086580	0.333408
C102	C	1.588576	0.246753	0.666741
N103	N	0.977918	-0.388997	-0.047058
N104	N	1.311251	-0.055664	0.286275
N105	N	1.644585	0.277669	0.619609
N106	N	0.979057	-0.319742	-0.047051
N107	N	1.312390	0.013592	0.286282
N108	N	1.645724	0.346925	0.619615
C109	C	0.924223	-0.279323	0.000086
C110	C	1.257557	0.054010	0.333419
C111	C	1.590890	0.387344	0.666752
C112	C	0.991249	-0.539494	0.000070
C113	C	1.324582	-0.206161	0.333404
C114	C	1.657916	0.127172	0.666737
C115	C	0.990047	-0.612395	0.000052
C116	C	1.323380	-0.279061	0.333385
C117	C	1.656714	0.054272	0.666718
C118	C	0.847562	-0.604208	0.000036
C119	C	1.180896	-0.270875	0.333369
C120	C	1.514229	0.062458	0.666702
C121	C	0.848767	-0.531310	0.000046
C122	C	1.182100	-0.197977	0.333379
C123	C	1.515433	0.135357	0.666712
C124	C	0.920612	-0.498957	0.000067
C125	C	1.253945	-0.165624	0.333400
C126	C	1.587279	0.167709	0.666734
C127	C	1.066005	0.153776	0.000089
C128	C	1.399338	0.487110	0.333422
C129	C	1.732671	0.820443	0.666755
C130	C	1.152777	0.160308	0.000092
C131	C	1.486110	0.493641	0.333425
C132	C	1.819444	0.826974	0.666758
C133	C	0.916930	0.277667	0.000054
C134	C	1.250263	0.611000	0.333388
C135	C	1.583597	0.944334	0.666721
C136	C	0.918208	0.355250	0.000042
C137	C	1.251541	0.688584	0.333375
C138	C	1.584875	1.021917	0.666709
N139	N	0.912123	0.159449	0.215871
N140	N	1.245456	0.492783	0.549204
N141	N	1.578789	0.826116	0.882537
N142	N	0.934028	0.141311	-0.215719
N143	N	1.267362	0.474645	0.117614
N144	N	1.600695	0.807978	0.450947
C145	C	0.963235	0.117004	0.259468
C146	C	1.296568	0.450338	0.592801
C147	C	1.629902	0.783671	0.926135
C148	C	0.958823	0.120672	0.346656
C149	C	1.292156	0.454005	0.679989
C150	C	1.625490	0.787339	1.013323
C151	C	0.903302	0.166789	0.390245
C152	C	1.236635	0.500122	0.723578
C153	C	1.569969	0.833455	1.056911
C154	C	0.852184	0.209235	0.346641
C155	C	1.185518	0.542569	0.679975
C156	C	1.518851	0.875902	1.013308
C157	C	0.856593	0.205564	0.259455
C158	C	1.189926	0.538897	0.592788
C159	C	1.523260	0.872230	0.926122
C160	C	0.887319	0.180086	0.653491
C161	C	1.220653	0.513420	0.986824
C162	C	1.553986	0.846753	1.320158
C163	C	0.882916	0.183756	0.740683
C164	C	1.216249	0.517090	1.074017
C165	C	1.549583	0.850423	1.407350
C166	C	0.989554	0.095192	0.740692
C167	C	1.322888	0.428525	1.074025
C168	C	1.656221	0.761858	1.407359
C169	C	0.993961	0.091527	0.653504
C170	C	1.327295	0.424861	0.986837
C171	C	1.660628	0.758194	1.320171
C172	C	0.942841	0.133971	0.609908
C173	C	1.276174	0.467305	0.943241
C174	C	1.609508	0.800638	1.276575
C175	C	0.898792	0.170540	0.479365
C176	C	1.232126	0.503873	0.812698
C177	C	1.565459	0.837207	1.146031
C178	C	0.947347	0.130216	0.520790
C179	C	1.280680	0.463549	0.854123
C180	C	1.614014	0.796882	1.187456
H181	H	0.555180	0.014379	0.000108
H182	H	0.888513	0.347713	0.333441
H183	H	1.221847	0.681046	0.666775
O184	O	1.073562	-0.211648	0.000121
O185	O	1.406895	0.121685	0.333454
O186	O	1.740228	0.455018	0.666787
H187	H	1.073540	-0.242692	0.056575
H188	H	1.406874	0.090641	0.389908
H189	H	1.740207	0.423974	0.723241
O190	O	0.770079	-0.639105	0.000028
O191	O	1.103412	-0.305771	0.333361
O192	O	1.436746	0.027562	0.666694
H193	H	0.721162	-0.598667	0.000020
H194	H	1.054496	-0.265334	0.333353
H195	H	1.387829	0.068000	0.666686
H196	H	0.814971	0.240126	0.223959
H197	H	1.148304	0.573459	0.557292
H198	H	1.481638	0.906793	0.890625
O199	O	0.413279	0.050598	0.000095
O200	O	0.746612	0.383931	0.333428
O201	O	1.079946	0.717264	0.666762
H202	H	0.461951	0.009926	0.000103
H203	H	0.795284	0.343259	0.333436
H204	H	1.128618	0.676593	0.666770
O205	O	1.013950	0.074895	0.393685
O206	O	1.347283	0.408228	0.727019
O207	O	1.680617	0.741562	1.060352
H208	H	1.049818	0.108234	0.433400
H209	H	1.383151	0.441568	0.766734
H210	H	1.716484	0.774901	1.100067
O211	O	0.129747	0.291097	0.000071
O212	O	0.463081	0.624430	0.333404
O213	O	0.796414	0.957764	0.666738
H214	H	0.143671	0.320131	-0.056392
H215	H	0.477005	0.653464	0.276941
H216	H	0.810338	0.986798	0.610274
O217	O	0.779901	-0.043115	0.000074
O218	O	1.113234	0.290218	0.333407
O219	O	1.446567	0.623551	0.666741
H220	H	0.792806	0.013010	0.000077
H221	H	1.126139	0.346343	0.333410
H222	H	1.459473	0.679677	0.666743
O223	O	0.838919	0.220286	0.526385
O224	O	1.172253	0.553619	0.859718
O225	O	1.505586	0.886953	1.193052
H226	H	0.778858	0.207039	0.509673
H227	H	1.112191	0.540372	0.843006
H228	H	1.445524	0.873705	1.176340
H229	H	0.837702	0.221313	0.776169
H230	H	1.171035	0.554646	1.109503
H231	H	1.504369	0.887979	1.442836
O232	O	0.777406	-0.194634	0.000078
O233	O	1.110740	0.138699	0.333411
O234	O	1.444073	0.472032	0.666744
H235	H	0.776318	-0.230021	-0.056373
H236	H	1.109651	0.103312	0.276960
H237	H	1.442984	0.436645	0.610294
H238	H	0.806974	0.246782	0.382136
H239	H	1.140307	0.580115	0.715470
H240	H	1.473641	0.913448	1.048803
H241	H	1.039171	0.053976	0.618016
H242	H	1.372504	0.387309	0.951349
H243	H	1.705837	0.720642	1.284682
O244	O	1.068736	-0.504594	0.000083
O245	O	1.402069	-0.171261	0.333417
O246	O	1.735403	0.162073	0.666750
H247	H	1.075551	-0.473934	-0.056364
H248	H	1.408884	-0.140601	0.276969
H249	H	1.742218	0.192733	0.610303
O250	O	0.338856	0.041796	0.000113
O251	O	0.672190	0.375129	0.333447
O252	O	1.005523	0.708463	0.666780
H253	H	0.379323	0.039203	-0.056338
H254	H	0.712656	0.372536	0.276995
H255	H	1.045989	0.705869	0.610329
O256	O	1.066235	-0.656121	0.000071
O257	O	1.399568	-0.322787	0.333404
O258	O	1.732901	0.010546	0.666738
H259	H	1.116390	-0.621373	0.000097
H260	H	1.449724	-0.288040	0.333430
H261	H	1.783057	0.045294	0.666764
H262	H	0.424604	0.232690	0.000067
H263	H	0.757938	0.566023	0.333400
H264	H	1.091271	0.899356	0.666734
H265	H	0.791248	-0.498305	0.000041
H266	H	1.124581	-0.164972	0.333374
H267	H	1.457914	0.168361	0.666708
O268	O	0.676749	0.271726	0.000034
O269	O	1.010082	0.605060	0.333367
O270	O	1.343415	0.938393	0.666700
H271	H	0.628069	0.312393	0.000040
H272	H	0.961403	0.645726	0.333374
H273	H	1.294736	0.979059	0.666707
H274	H	1.031173	0.060635	0.776196
H275	H	1.364506	0.393968	1.109529
H276	H	1.697840	0.727302	1.442862
O277	O	0.832193	0.225870	0.606474
O278	O	1.165526	0.559203	0.939807
O279	O	1.498859	0.892536	1.273140
H280	H	0.792854	0.258559	0.651434
H281	H	1.126187	0.591893	0.984767
H282	H	1.459520	0.925226	1.318100
H283	H	1.057074	-0.068683	0.000128
H284	H	1.390407	0.264650	0.333461
H285	H	1.723741	0.597983	0.666795
H286	H	1.008449	0.079455	0.223984
H287	H	1.341782	0.412788	0.557317
H288	H	1.675116	0.746121	0.890650
O289	O	1.007218	0.080472	0.473770
O290	O	1.340551	0.413806	0.807103
O291	O	1.673885	0.747139	1.140436
H292	H	1.067281	0.093714	0.490482
H293	H	1.400614	0.427048	0.823815
H294	H	1.733948	0.760381	1.157148
H295	H	0.520582	0.243114	0.000047
H296	H	0.853916	0.576448	0.333380
H297	H	1.187249	0.909781	0.666713
H298	H	0.290958	0.286387	0.000041
H299	H	0.624292	0.619721	0.333374
H300	H	0.957625	0.953054	0.666707
H301	H	0.177655	0.046506	0.000113
H302	H	0.510989	0.379840	0.333447
H303	H	0.844322	0.713173	0.666780
H304	H	0.703099	0.025516	0.000084
H305	H	1.036432	0.358849	0.333417
H306	H	1.369765	0.692182	0.666750
