data_functionalizedCrystal
_audit_creation_method	'MofGen! by Chris Wilmer'
_symmetry_space_group_name_H-M	'P1'
_symmetry_Int_Tables_number	1
_symmetry_cell_setting	triclinic
loop_
_symmetry_equiv_pos_as_xyz
  x,y,z
_cell_length_a	20.875790
_cell_length_b	19.377372
_cell_length_c	20.875619
_cell_angle_alpha	87.122545
_cell_angle_beta	60.178562
_cell_angle_gamma	74.179824
loop_
_atom_site_label
_atom_site_type_symbol
_atom_site_fract_x
_atom_site_fract_y
_atom_site_fract_z
Zr1	Zr	0.864416	0.629526	-0.142885
O2	O	0.964332	0.542195	-0.225760
O3	O	0.744260	0.652141	-0.121439
O4	O	0.875450	0.664811	-0.250538
O5	O	0.831495	0.524258	0.009679
O6	O	0.907178	0.766261	-0.265578
O7	O	0.833142	0.529524	-0.096661
O8	O	0.672503	0.743596	-0.034645
O9	O	1.066171	0.546922	-0.221255
O10	O	0.824857	0.742518	-0.118733
O11	O	0.799950	0.662877	-0.028148
O12	O	0.954410	0.677795	-0.180145
O13	O	0.929503	0.598153	-0.089560
Zr14	Zr	0.912393	0.782926	0.002727
Zr15	Zr	0.915018	0.791326	-0.166873
Zr16	Zr	0.861791	0.621125	0.026715
Zr17	Zr	1.026838	0.637066	-0.135700
Zr18	Zr	0.749971	0.775386	-0.004457
O19	O	1.032549	0.760311	-0.018719
O20	O	1.036282	0.772254	-0.259868
O21	O	0.960599	0.530251	0.015389
O22	O	0.812477	0.870257	0.085602
O23	O	0.816210	0.882201	-0.155547
O24	O	0.740527	0.640197	0.119710
O25	O	0.945314	0.888194	-0.149837
O26	O	0.901359	0.747640	0.110380
O27	O	0.869631	0.646191	0.125421
O28	O	0.943668	0.882927	-0.043497
O29	O	1.106393	0.675532	-0.240323
O30	O	0.670416	0.736919	0.100165
O31	O	0.710638	0.865529	0.081097
O32	O	0.712725	0.872206	-0.053712
O33	O	1.064084	0.540246	-0.086446
O34	O	1.104306	0.668855	-0.105513
O35	O	0.822400	0.734657	0.039987
O36	O	0.847306	0.814299	-0.050598
O37	O	0.976859	0.749575	-0.112010
O38	O	0.951953	0.669933	-0.021425
C39	C	0.685240	0.696794	-0.079066
C40	C	0.616288	0.693593	-0.082115
C41	C	0.544352	0.742459	-0.035735
C42	C	0.479573	0.739419	-0.038600
C43	C	0.486732	0.687515	-0.087850
C44	C	0.558675	0.638644	-0.134233
C45	C	0.623451	0.641682	-0.131363
C46	C	0.297241	0.673025	-0.101556
C47	C	0.232457	0.669992	-0.104423
C48	C	0.153359	0.770767	-0.008789
C49	C	0.218141	0.773802	-0.005927
C50	C	0.290077	0.724929	-0.052307
N51	N	0.420519	0.684408	-0.090782
N52	N	0.356288	0.728034	-0.049371
C53	C	0.825109	0.503838	-0.040073
C54	C	0.803627	0.435149	-0.029890
C55	C	1.071094	0.040320	-0.156681
C56	C	1.050890	-0.024215	-0.147103
C57	C	0.915647	0.043361	-0.082993
C58	C	0.935839	0.107903	-0.092563
C59	C	1.013564	0.106375	-0.129408
C60	C	0.878309	0.173959	-0.065290
C61	C	0.898500	0.238494	-0.074863
C62	C	0.976221	0.236974	-0.111708
C63	C	1.033755	0.170911	-0.138981
C64	C	0.800585	0.175484	-0.028450
C65	C	0.743055	0.241540	-0.001177
C66	C	0.763245	0.306078	-0.010745
C67	C	0.840966	0.304558	-0.047590
C68	C	0.705711	0.372141	0.016528
C69	C	0.725902	0.436676	0.006955
C70	C	0.861157	0.369093	-0.057163
C71	C	1.091569	0.715657	-0.061092
C72	C	1.160522	0.718858	-0.058042
C73	C	0.891688	0.716733	-0.282222
C74	C	0.892803	0.720299	-0.354222
C75	C	0.951701	0.908614	-0.100084
C76	C	0.973183	0.977302	-0.110268
C77	C	0.900963	0.746367	-0.760398
C78	C	0.899918	0.743013	-0.692748
C79	C	0.881910	0.685449	-0.650634
C80	C	0.864954	0.631229	-0.676177
C81	C	0.866005	0.634580	-0.743828
C82	C	0.876898	0.669431	-0.447417
C83	C	0.875846	0.666085	-0.379760
C84	C	0.910812	0.777869	-0.396336
C85	C	0.911856	0.781217	-0.463986
C86	C	0.894904	0.726996	-0.489525
N87	N	0.880839	0.682021	-0.581483
N88	N	0.895981	0.730422	-0.558678
C89	C	0.885121	0.695719	0.142065
C90	C	0.884006	0.692153	0.214064
C91	C	0.748536	0.899182	-0.109071
C92	C	0.701065	0.964670	-0.122305
C93	C	0.681956	0.686287	0.133078
C94	C	0.611889	0.679520	0.202028
C95	C	0.745252	0.888675	0.103073
C96	C	0.696667	0.950597	0.161839
C97	C	1.031557	0.523777	-0.243230
C98	C	1.080142	0.461855	-0.301996
C99	C	1.028274	0.513269	-0.031087
C100	C	1.075744	0.447782	-0.017853
C101	C	1.094853	0.726165	-0.273236
C102	C	1.164920	0.732932	-0.342186
C103	C	0.667054	0.957955	-0.164092
C104	C	0.622458	1.019483	-0.176541
C105	C	0.611870	1.087724	-0.147197
C106	C	0.645887	1.094437	-0.105408
C107	C	0.690486	1.032911	-0.092964
C108	C	0.590704	0.713810	0.269980
C109	C	0.524876	0.707449	0.334773
C110	C	0.480233	0.666802	0.331611
C111	C	0.501424	0.632507	0.263651
C112	C	0.567253	0.638864	0.198861
C113	C	0.686854	1.021254	0.142150
C114	C	0.641215	1.079443	0.197360
C115	C	0.605384	1.066973	0.272258
C116	C	0.615201	0.996308	0.291946
C117	C	0.660844	0.938120	0.236737
C118	C	1.089963	0.391198	-0.282308
C119	C	1.135622	0.333010	-0.337517
C120	C	1.171456	0.345481	-0.412414
C121	C	1.161635	0.416145	-0.432103
C122	C	1.115981	0.474332	-0.376894
C123	C	1.109762	0.454497	0.023928
C124	C	1.154376	0.392971	0.036359
C125	C	1.164967	0.324730	0.007012
C126	C	1.130947	0.318017	-0.034774
C127	C	1.086338	0.379542	-0.047209
C128	C	1.209545	0.773585	-0.339000
C129	C	1.275376	0.779957	-0.403781
C130	C	1.296584	0.745672	-0.471747
C131	C	1.251952	0.705017	-0.474931
C132	C	1.186119	0.698649	-0.410151
H133	H	0.421002	0.779211	-0.000832
N134	N	0.845534	0.569138	-0.630759
H135	H	0.847438	0.575242	-0.584025
H136	H	0.792093	0.568298	-0.617169
N137	N	1.137998	0.654796	-0.413599
H138	H	1.170613	0.603288	-0.433107
H139	H	1.093078	0.656014	-0.362236
N140	N	0.727168	1.040161	-0.047892
H141	H	0.757034	0.990834	-0.044459
H142	H	0.763258	1.071026	-0.072698
H143	H	0.668825	0.880589	0.252778
H144	H	1.192289	0.801505	-0.283665
H145	H	1.208629	0.298095	-0.457361
H146	H	0.564499	0.596380	-0.174330
N147	N	0.536629	0.798446	0.017380
H148	H	0.481226	0.828940	0.046327
H149	H	0.552950	0.773631	0.052812
N150	N	1.323505	0.823808	-0.400338
H151	H	1.300080	0.844554	-0.347450
H152	H	1.377602	0.791847	-0.418347
H153	H	1.350191	0.750862	-0.524489
H154	H	1.190817	0.426291	-0.493090
H155	H	0.852198	0.590433	-0.764620
N156	N	1.146207	0.256798	-0.316273
H157	H	1.116570	0.257733	-0.260449
H158	H	1.126431	0.229071	-0.338812
N159	N	1.105388	0.550540	-0.398135
H160	H	1.135016	0.549604	-0.453960
H161	H	1.048859	0.574716	-0.378982
N162	N	1.098345	0.528095	0.055583
H163	H	1.126673	0.523002	0.083933
H164	H	1.119121	0.558999	0.013817
N165	N	0.659229	0.243175	0.038553
H166	H	0.647222	0.215929	0.083792
H167	H	0.625898	0.294833	0.054329
N168	N	1.051327	0.377728	-0.201531
H169	H	1.069959	0.401790	-0.174827
H170	H	0.993660	0.398227	-0.178260
H171	H	0.594765	1.014003	-0.210568
H172	H	0.682023	0.601883	-0.169123
N173	N	0.240177	0.614005	-0.157541
H174	H	0.223901	0.638770	-0.193022
H175	H	0.295586	0.583520	-0.186434
H176	H	1.182069	0.398451	0.070386
N177	N	1.213081	0.258373	0.020427
H178	H	1.233020	0.272989	0.051352
H179	H	1.180416	0.225122	0.047590
H180	H	1.139577	0.262447	-0.058665
N181	N	0.556149	1.129730	0.331806
H182	H	0.588414	1.161839	0.328225
H183	H	0.512114	1.158238	0.324813
H184	H	0.627046	0.746909	0.272569
N185	N	0.453260	0.588677	0.260250
H186	H	0.433319	0.609645	0.226110
H187	H	0.485888	0.537171	0.240773
N188	N	1.049648	0.372294	-0.092274
H189	H	1.063130	0.319727	-0.108973
H190	H	0.991859	0.392439	-0.060828
H191	H	0.584493	0.610943	0.143533
N192	N	0.725488	1.034715	0.061371
H193	H	0.712340	1.088310	0.057287
H194	H	0.783151	1.014155	0.038085
H195	H	1.269230	0.677104	-0.530278
H196	H	0.212304	0.816070	0.034175
H197	H	0.094783	0.810555	0.028972
N198	N	0.374832	0.620343	-0.151610
H199	H	0.369538	0.587015	-0.183257
H200	H	0.412234	0.647711	-0.184649
H201	H	0.924448	0.367847	-0.087143
H202	H	1.097744	-0.078001	-0.169316
H203	H	0.992659	0.289525	-0.119503
H204	H	0.586022	0.986164	0.352934
H205	H	0.507633	0.735380	0.390101
H206	H	0.915623	0.793244	-0.794682
H207	H	1.097046	0.169665	-0.168961
N208	N	0.918209	0.801486	-0.665204
H209	H	0.929772	0.838463	-0.702146
H210	H	0.872545	0.825507	-0.615695
H211	H	1.134385	0.039073	-0.186661
H212	H	0.852364	0.044594	-0.052996
N213	N	0.563764	1.154078	-0.160625
H214	H	0.509651	1.150435	-0.139434
H215	H	0.562273	1.198298	-0.135701
H216	H	0.784148	0.122933	-0.020663
H217	H	0.679055	0.490462	0.029177
N218	N	0.621886	0.373774	0.056252
H219	H	0.609874	0.346527	0.101491
H220	H	0.588554	0.425431	0.072028
H221	H	0.926520	0.828091	-0.498275
N222	N	0.630631	1.155655	0.176116
H223	H	0.660251	1.154719	0.120291
H224	H	0.574102	1.179838	0.195279
N225	N	0.409225	0.659956	0.401491
H226	H	0.415024	0.607479	0.410466
H227	H	0.402617	0.687890	0.444972
H228	H	0.924614	0.822013	-0.375537
H229	H	0.861180	0.619206	-0.345472
H230	H	0.863092	0.625283	-0.468204
H231	H	0.675676	0.902396	-0.187999
H232	H	0.637259	1.150007	-0.081519
