data_functionalizedCrystal
_audit_creation_method	'MofGen! by Chris Wilmer'
_symmetry_space_group_name_H-M	'P1'
_symmetry_Int_Tables_number	1
_symmetry_cell_setting	triclinic
loop_
_symmetry_equiv_pos_as_xyz
  x,y,z
_cell_length_a	15.944557
_cell_length_b	14.421503
_cell_length_c	17.699083
_cell_angle_alpha	89.996606
_cell_angle_beta	96.607808
_cell_angle_gamma	89.994217
loop_
_atom_site_label
_atom_site_type_symbol
_atom_site_fract_x
_atom_site_fract_y
_atom_site_fract_z
O1	O	-1.114321	0.077074	0.097627
O2	O	-0.869746	0.077084	0.109657
O3	O	-0.998943	0.077071	-0.006536
O4	O	-0.985124	0.077088	0.213819
O5	O	-0.998922	-0.077153	-0.006518
O6	O	-0.869725	-0.077139	0.109674
O7	O	-1.114299	-0.077150	0.097644
Cu8	Cu	-0.992010	-0.091226	0.103661
Cu9	Cu	-0.992035	0.091161	0.103640
O10	O	-0.985102	-0.077136	0.213836
C11	C	-0.838443	-0.000026	0.109165
C12	C	-0.745200	-0.000022	0.107665
C13	C	-0.474730	-0.000043	0.031159
C14	C	-0.525223	-0.076081	0.068050
C15	C	-0.409570	-0.000044	0.102316
C16	C	-0.525225	0.075971	0.068052
C17	C	-0.574477	-0.000032	0.104941
C18	C	-0.458835	-0.076146	0.139188
C19	C	-0.458833	0.075975	0.139179
C20	C	-0.509293	-0.000083	0.176121
C21	C	-0.314571	-0.000052	0.100803
C22	C	-0.669472	-0.000031	0.106460
N23	N	-0.991998	-0.219507	0.103674
C24	C	-0.932247	-0.469155	0.157378
C25	C	-1.008116	-0.530959	0.172073
C26	C	-0.992019	-0.408669	0.103656
C27	C	-0.916170	-0.530958	0.088979
C28	C	-0.992032	-0.591390	0.103641
C29	C	-1.067926	-0.469113	0.118386
C30	C	-0.975930	-0.469106	0.035262
C31	C	-1.051853	-0.530883	0.049928
C32	C	-0.992010	-0.303408	0.103667
C33	C	-0.992049	-0.696649	0.103629
C34	C	-0.145604	-0.000042	0.098125
C35	C	-0.238851	-0.000053	0.099594
C36	C	-0.998437	-0.000041	-0.034725
C37	C	-0.996952	-0.000042	-0.118745
N38	N	-0.992054	0.219442	0.103620
C39	C	-1.072788	-0.000046	-0.167235
C40	C	-1.071387	-0.000038	-0.246181
C41	C	-0.994149	-0.000032	-0.276635
C42	C	-0.918308	-0.000024	-0.228139
C43	C	-0.919709	-0.000026	-0.149195
C44	C	-0.912653	-0.000016	-0.546512
C45	C	-0.911257	-0.000018	-0.625462
C46	C	-1.064330	-0.000029	-0.643498
C47	C	-1.065732	-0.000030	-0.564554
C48	C	-0.989891	-0.000018	-0.516065
C49	C	-0.991411	-0.000025	-0.430463
C50	C	-0.992628	-0.000031	-0.362236
C51	C	-0.985608	-0.000022	0.242025
C52	C	-0.987094	-0.000016	0.326046
H53	H	-0.554214	0.140253	0.037981
O54	O	-0.827943	-0.000005	-0.658307
H55	H	-0.823629	-0.062870	-0.693830
O56	O	-1.152923	-0.433291	0.134909
H57	H	-1.166353	-0.458677	0.191487
O58	O	-1.153180	-0.000058	-0.298484
H59	H	-1.207123	-0.000080	-0.264044
O60	O	-0.420410	0.161139	0.178934
H61	H	-0.434974	0.161732	0.238765
H62	H	-0.554208	-0.140371	0.038005
H63	H	-0.962285	-0.441916	-0.022553
O64	O	-1.149041	-0.000023	-0.531710
H65	H	-1.185475	-0.062876	-0.551188
O66	O	-0.837912	-0.000030	-0.096895
H67	H	-0.834892	0.062832	-0.060504
H68	H	-0.459206	-0.000122	-0.030125
O69	O	-0.529660	-0.000134	0.257357
H70	H	-0.470078	-0.000767	0.296543
H71	H	-0.852020	-0.558126	0.076571
O72	O	-1.146136	-0.000034	-0.695796
H73	H	-1.132191	-0.000022	-0.755808
H74	H	-0.850898	-0.000007	-0.507041
O75	O	-0.420583	-0.161403	0.178958
H76	H	-0.374606	-0.140113	0.227756
H77	H	-1.021737	-0.558128	0.229906
H78	H	-0.881752	-0.442051	0.202844
H79	H	-1.102461	-0.557816	0.004489
O80	O	-0.834997	-0.000027	-0.260980
H81	H	-0.846761	-0.000040	-0.324022
H82	H	-1.135684	-0.000057	-0.142446
