data_functionalizedCrystal
_audit_creation_method	'MofGen! by Chris Wilmer'
_symmetry_space_group_name_H-M	'P1'
_symmetry_Int_Tables_number	1
_symmetry_cell_setting	triclinic
loop_
_symmetry_equiv_pos_as_xyz
  x,y,z
_cell_length_a	17.699083
_cell_length_b	10.654550
_cell_length_c	9.730223
_cell_angle_alpha	90.002556
_cell_angle_beta	90.000912
_cell_angle_gamma	83.883959
loop_
_atom_site_label
_atom_site_type_symbol
_atom_site_fract_x
_atom_site_fract_y
_atom_site_fract_z
O1	O	0.106297	1.665978	0.114284
O2	O	0.606297	2.165978	0.614284
O3	O	0.116425	1.300323	0.114289
O4	O	0.616425	1.800323	0.614289
O5	O	0.001238	1.493481	0.114274
O6	O	0.501238	1.993481	0.614274
O7	O	0.221485	1.472820	0.114299
O8	O	0.721485	1.972820	0.614299
O9	O	0.001244	1.493469	-0.114306
O10	O	0.501244	1.993469	0.385694
O11	O	0.116432	1.300310	-0.114291
O12	O	0.616432	1.800310	0.385709
O13	O	0.106304	1.665966	-0.114296
O14	O	0.606304	2.165966	0.385704
Zn15	Zn	0.111369	1.483136	-0.150585
Zn16	Zn	0.611369	1.983136	0.349415
Zn17	Zn	0.111360	1.483152	0.150579
Zn18	Zn	0.611360	1.983152	0.650579
O19	O	0.221491	1.472807	-0.114281
O20	O	0.721491	1.972807	0.385719
C21	C	-0.026961	1.492735	-0.000016
C22	C	0.473039	1.992735	0.499984
C23	C	-0.110993	1.490514	-0.000016
C24	C	0.389007	1.990514	0.499984
C25	C	0.115685	1.253531	-0.000000
C26	C	0.615685	1.753531	0.500000
C27	C	0.113460	1.114127	0.000001
C28	C	0.613460	1.614127	0.500001
C29	C	0.107044	1.712757	-0.000003
C30	C	0.607044	2.212757	0.499997
C31	C	0.109269	1.852161	0.000004
C32	C	0.609269	2.352161	0.500004
C33	C	-0.158893	1.603894	-0.000020
C34	C	0.341107	2.103894	0.499980
C35	C	-0.237850	1.601799	-0.000008
C36	C	0.262150	2.101799	0.499992
C37	C	-0.268905	1.486324	-0.000002
C38	C	0.231095	1.986324	0.499998
C39	C	-0.220998	1.372935	0.000006
C40	C	0.279002	1.872935	0.500006
C41	C	-0.142043	1.375031	0.000004
C42	C	0.357957	1.875031	0.500004
C43	C	-0.539415	1.364481	0.000017
C44	C	-0.039415	1.864481	0.500017
C45	C	-0.618376	1.362394	0.000015
C46	C	-0.118376	1.862394	0.500015
C47	C	-0.635222	1.591249	0.000006
C48	C	-0.135222	2.091249	0.500006
C49	C	-0.556266	1.593345	0.000004
C50	C	-0.056266	2.093345	0.500004
C51	C	-0.508367	1.479957	0.000019
C52	C	-0.008367	1.979957	0.500019
C53	C	-0.422753	1.482229	0.000008
C54	C	0.077247	1.982229	0.500008
C55	C	-0.354517	1.484050	-0.000001
C56	C	0.145483	1.984050	0.499999
C57	C	0.249690	1.473554	0.000012
C58	C	0.749690	1.973554	0.500012
C59	C	0.333722	1.475775	0.000022
C60	C	0.833722	1.975775	0.500022
N61	N	0.111374	1.483134	-0.356122
N62	N	0.611374	1.983134	0.143878
C63	C	0.041449	1.932834	0.000002
C64	C	0.541449	2.432834	0.500002
C65	C	0.043544	2.063818	-0.000004
C66	C	0.543544	2.563818	0.499996
C67	C	0.181286	2.033444	-0.000001
C68	C	0.681286	2.533444	0.499999
C69	C	0.179190	1.902462	-0.000004
C70	C	0.679190	2.402462	0.499996
C71	C	-0.038076	1.950372	0.000006
C72	C	0.461924	2.450372	0.500006
C73	C	-0.035981	2.081356	-0.000001
C74	C	0.464019	2.581356	0.499999
C75	C	0.157701	1.559153	-0.428057
C76	C	0.657701	2.059153	0.071943
C77	C	0.157687	1.559172	-0.571939
C78	C	0.657687	2.059172	-0.071939
C79	C	0.065017	1.407143	-0.571940
C80	C	0.565017	1.907143	-0.071940
C81	C	0.065028	1.407131	-0.428060
C82	C	0.565028	1.907131	0.071940
C83	C	0.211205	1.646922	-0.428057
C84	C	0.711205	2.146922	0.071943
C85	C	0.211191	1.646941	-0.571940
C86	C	0.711191	2.146941	-0.071940
N87	N	0.111349	1.483165	0.356115
N88	N	0.611349	1.983165	0.856115
H89	H	-0.133615	1.697927	-0.000033
H90	H	0.366385	2.197927	0.499967
H91	H	0.268195	1.606394	-0.383447
H92	H	0.768195	2.106394	0.116553
Cl93	Cl	0.269181	2.096689	-0.000009
Cl94	Cl	0.769181	2.596689	0.499991
H95	H	0.027296	1.345243	-0.369496
H96	H	0.527296	1.845243	0.130504
Cl97	Cl	0.303329	1.597573	-0.632267
Cl98	Cl	0.803329	2.097573	-0.132267
Cl99	Cl	0.174478	1.793628	-0.640821
Cl100	Cl	0.674478	2.293628	-0.140821
H101	H	-0.276847	1.694125	-0.000013
H102	H	0.223153	2.194125	0.499987
H103	H	-0.063402	1.915189	0.098699
H104	H	0.436598	2.415189	0.598699
H105	H	0.192610	1.746298	-0.388995
H106	H	0.692610	2.246298	0.111005
H107	H	-0.530986	1.687377	-0.000008
H108	H	-0.030986	2.187377	0.499992
Cl109	Cl	-0.081825	1.232489	0.000013
Cl110	Cl	0.418175	1.732489	0.500013
H111	H	-0.069178	1.921558	-0.095653
H112	H	0.430822	2.421558	0.404347
Cl113	Cl	-0.073073	2.152483	-0.152380
Cl114	Cl	0.426927	2.652483	0.347620
H115	H	-0.674231	1.683575	0.000001
H116	H	-0.174231	2.183575	0.500001
Cl117	Cl	-0.082226	2.146646	0.147697
Cl118	Cl	0.417774	2.646646	0.647697
H119	H	0.234416	1.836782	-0.000018
H120	H	0.734416	2.336782	0.499982
H121	H	-0.643658	1.268354	0.000017
H122	H	-0.143658	1.768354	0.500017
H123	H	-0.500424	1.272153	0.000029
H124	H	-0.000424	1.772153	0.500029
H125	H	0.027284	1.345264	-0.630529
H126	H	0.527284	1.845264	-0.130529
H127	H	-0.246289	1.278912	0.000019
H128	H	0.253711	1.778912	0.500019
