data_functionalizedCrystal
_audit_creation_method	'MofGen! by Chris Wilmer'
_symmetry_space_group_name_H-M	'P1'
_symmetry_Int_Tables_number	1
_symmetry_cell_setting	triclinic
loop_
_symmetry_equiv_pos_as_xyz
  x,y,z
_cell_length_a	15.944551
_cell_length_b	13.339070
_cell_length_c	12.376457
_cell_angle_alpha	75.601917
_cell_angle_beta	101.289556
_cell_angle_gamma	99.564016
loop_
_atom_site_label
_atom_site_type_symbol
_atom_site_fract_x
_atom_site_fract_y
_atom_site_fract_z
O1	O	-1.156500	-0.111110	-0.093879
O2	O	-0.656500	0.388890	0.406121
O3	O	-0.915702	-0.127190	-0.093907
O4	O	-0.415702	0.372810	0.406093
O5	O	-1.008465	0.028116	-0.093893
O6	O	-0.508465	0.528116	0.406107
O7	O	-1.063737	-0.266415	-0.093893
O8	O	-0.563737	0.233585	0.406107
O9	O	-0.985273	-0.010658	0.094116
O10	O	-0.485273	0.489342	0.594116
O11	O	-0.892510	-0.165963	0.094102
O12	O	-0.392510	0.334037	0.594102
O13	O	-1.133308	-0.149883	0.094129
O14	O	-0.633308	0.350117	0.594129
Zn15	Zn	-1.009227	-0.164079	0.123966
Zn16	Zn	-0.509227	0.335921	0.623966
Zn17	Zn	-1.039783	-0.112994	-0.123743
Zn18	Zn	-0.539783	0.387006	0.376257
O19	O	-1.040546	-0.305189	0.094115
O20	O	-0.540546	0.194811	0.594115
C21	C	-0.872657	-0.145908	0.000094
C22	C	-0.372657	0.354092	0.500094
C23	C	-0.778946	-0.143904	0.000083
C24	C	-0.278946	0.356096	0.500083
C25	C	-0.987533	0.046419	0.000109
C26	C	-0.487533	0.546419	0.500109
C27	C	-0.959703	0.158724	0.000101
C28	C	-0.459703	0.658724	0.500101
C29	C	-1.176354	-0.131164	0.000126
C30	C	-0.676354	0.368836	0.500126
C31	C	-1.270066	-0.133167	0.000129
C32	C	-0.770066	0.366833	0.500129
C33	C	-0.540540	-0.042856	0.000106
C34	C	-0.040540	0.457144	0.500106
C35	C	-0.501889	-0.070664	-0.092593
C36	C	-0.001889	0.429336	0.407407
C37	C	-0.607374	-0.140285	0.000097
C38	C	-0.107374	0.359715	0.500097
C39	C	-0.479051	-0.108915	0.092769
C40	C	0.020949	0.391085	0.592769
C41	C	-0.441643	-0.136783	0.000115
C42	C	0.058357	0.363217	0.500115
C43	C	-0.569967	-0.168104	-0.092678
C44	C	-0.069967	0.331896	0.407322
C45	C	-0.547122	-0.206358	0.092767
C46	C	-0.047122	0.293642	0.592767
C47	C	-0.508508	-0.234232	0.000046
C48	C	-0.008508	0.265768	0.500046
C49	C	-0.702848	-0.142299	0.000086
C50	C	-0.202848	0.357701	0.500086
C51	C	-0.346173	-0.134774	0.000118
C52	C	0.153827	0.365226	0.500118
C53	C	-1.061478	-0.323492	0.000111
C54	C	-0.561478	0.176508	0.500111
C55	C	-1.089308	-0.435796	0.000112
C56	C	-0.589308	0.064204	0.500112
N57	N	-0.988380	-0.198943	0.293021
N58	N	-0.488380	0.301057	0.793021
C59	C	-1.176093	0.523498	0.000126
C60	C	-0.676093	1.023498	0.500126
C61	C	-1.202242	0.417980	0.000140
C62	C	-0.702242	0.917980	0.500140
C63	C	-1.141609	0.353161	0.000130
C64	C	-0.641609	0.853161	0.500130
C65	C	-1.054824	0.393870	0.000107
C66	C	-0.554824	0.893870	0.500107
C67	C	-1.028671	0.499395	0.000102
C68	C	-0.528671	0.999395	0.500102
C69	C	-0.994188	0.329059	0.000106
C70	C	-0.494188	0.829059	0.500106
C71	C	-0.907402	0.369768	0.000083
C72	C	-0.407402	0.869768	0.500083
C73	C	-0.881254	0.475283	0.000077
C74	C	-0.381254	0.975283	0.500077
C75	C	-0.941886	0.540102	0.000087
C76	C	-0.441886	1.040102	0.500087
C77	C	-1.020340	0.223533	0.000111
C78	C	-0.520340	0.723533	0.500111
C79	C	-0.872918	0.199431	0.000086
C80	C	-0.372918	0.699431	0.500086
C81	C	-0.846770	0.304949	0.000073
C82	C	-0.346770	0.804949	0.500073
N83	N	-1.060635	-0.078122	-0.292799
N84	N	-0.560635	0.421878	0.207201
C85	C	-1.109025	0.002829	0.648024
C86	C	-0.609025	0.502829	1.148024
C87	C	-1.123611	0.027230	0.529687
C88	C	-0.623611	0.527230	1.029687
C89	C	-1.089804	-0.029311	0.470515
C90	C	-0.589804	0.470689	0.970515
C91	C	-1.041409	-0.110258	0.529692
C92	C	-0.541409	0.389742	1.029692
C93	C	-1.026827	-0.134667	0.648041
C94	C	-0.526827	0.365333	1.148041
C95	C	-1.007606	-0.166807	0.470531
C96	C	-0.507606	0.333193	0.970531
C97	C	-0.959211	-0.247754	0.529708
C98	C	-0.459211	0.252246	1.029708
C99	C	-0.944630	-0.272159	0.648046
C100	C	-0.444630	0.227841	1.148046
C101	C	-0.978437	-0.215618	0.707218
C102	C	-0.478437	0.284382	1.207218
C103	C	-1.022188	-0.142398	0.352182
C104	C	-0.522188	0.357602	0.852182
C105	C	-0.939990	-0.279894	0.352198
C106	C	-0.439990	0.220106	0.852198
C107	C	-0.925404	-0.304296	0.470536
C108	C	-0.425404	0.195704	0.970536
H109	H	-0.555046	0.038028	-0.000009
H110	H	-0.055046	0.538028	0.499991
H111	H	-0.439692	-0.083849	0.171135
H112	H	0.060308	0.416151	0.671135
Br113	Br	-0.958632	-0.248730	0.867826
Br114	Br	-0.458632	0.251270	1.367826
H115	H	-1.136551	0.048852	0.696210
H116	H	-0.636551	0.548852	1.196210
Br117	Br	-0.580557	-0.301929	0.223396
Br118	Br	-0.080557	0.198071	0.723396
H119	H	-1.272902	0.384843	0.000160
H120	H	-0.772902	0.884843	0.500160
Br121	Br	-1.258366	0.611462	0.000167
Br122	Br	-0.758366	1.111462	0.500167
H123	H	-1.091001	0.190399	0.000130
H124	H	-0.591001	0.690399	0.500130
H125	H	-1.061592	-0.076490	0.304010
H126	H	-0.561592	0.423510	0.804010
H127	H	-0.823546	0.146654	0.000084
H128	H	-0.323546	0.646654	0.500084
Br129	Br	-0.906420	0.683343	-0.000084
Br130	Br	-0.406420	1.183343	0.499916
H131	H	-1.163015	0.093136	0.481509
H132	H	-0.663015	0.593136	0.981509
Br133	Br	-0.878967	-0.382030	0.728361
Br134	Br	-0.378967	0.117970	1.228361
Br135	Br	-0.894114	-0.356640	0.271902
Br136	Br	-0.394114	0.143360	0.771902
Br137	Br	-0.635397	-0.209772	-0.223442
Br138	Br	-0.135397	0.290228	0.276558
Br139	Br	-0.468484	0.024954	-0.223219
Br140	Br	0.031516	0.524954	0.276781
Br141	Br	-1.177099	0.209958	0.000145
Br142	Br	-0.677099	0.709958	0.500145
Br143	Br	-0.763471	0.530525	0.000068
Br144	Br	-0.263471	1.030525	0.500068
Br145	Br	-0.484682	-0.369124	-0.000033
Br146	Br	0.015318	0.130876	0.499967
H147	H	-0.776107	0.338108	0.000055
H148	H	-0.276107	0.838108	0.500055
H149	H	-1.101683	-0.009439	0.374159
H150	H	-0.601683	0.490561	0.874159
Br151	Br	-0.859724	-0.414149	0.550859
Br152	Br	-0.359724	0.085851	1.050859
