data_functionalizedCrystal
_audit_creation_method	'MofGen! by Chris Wilmer'
_symmetry_space_group_name_H-M	'P1'
_symmetry_Int_Tables_number	1
_symmetry_cell_setting	triclinic
loop_
_symmetry_equiv_pos_as_xyz
  x,y,z
_cell_length_a	14.853567
_cell_length_b	10.489741
_cell_length_c	13.330367
_cell_angle_alpha	89.995673
_cell_angle_beta	89.995418
_cell_angle_gamma	84.087052
loop_
_atom_site_label
_atom_site_type_symbol
_atom_site_fract_x
_atom_site_fract_y
_atom_site_fract_z
O1	O	1.197303	0.166528	-0.083354
O2	O	0.934954	0.186366	-0.083371
O3	O	1.072098	-0.009218	-0.083356
O4	O	1.060159	0.362112	-0.083369
O5	O	1.072078	-0.009223	0.083491
O6	O	0.934934	0.186361	0.083476
O7	O	1.197282	0.166524	0.083493
Cu8	Cu	1.066107	0.176442	0.098719
Cu9	Cu	1.066130	0.176447	-0.098597
O10	O	1.060139	0.362107	0.083479
C11	C	0.901351	0.185464	0.000051
C12	C	0.801252	0.182771	0.000044
C13	C	0.388003	0.055204	0.000071
C14	C	0.368025	0.287562	0.000062
C15	C	0.462072	0.290094	0.000059
C16	C	0.519090	0.175180	0.000060
C17	C	0.482060	0.057733	0.000065
C18	C	0.499110	0.407539	0.000044
C19	C	0.593163	0.410077	0.000040
C20	C	0.650183	0.295161	0.000048
C21	C	0.613147	0.177709	0.000054
C22	C	0.670164	0.062795	0.000055
C23	C	0.633130	-0.054658	0.000068
C24	C	0.539079	-0.057183	0.000073
C25	C	0.744234	0.297685	0.000043
C26	C	0.764221	0.065324	0.000049
C27	C	1.071186	-0.056742	0.000067
C28	C	1.068488	-0.198341	0.000065
C29	C	0.981228	-0.265502	0.000052
C30	C	1.022439	-0.358089	0.082319
C31	C	1.022479	-0.358060	-0.082179
C32	C	1.109735	-0.289063	0.082400
C33	C	1.109764	-0.289024	-0.082172
C34	C	1.151038	-0.381585	0.000115
C35	C	1.230886	0.167425	0.000070
C36	C	1.330985	0.170118	0.000070
C37	C	1.061051	0.409631	0.000053
C38	C	1.063748	0.551230	0.000049
N39	N	1.066096	0.176437	0.237501
N40	N	1.066147	0.176441	-0.237378
C41	C	1.005400	0.263017	0.710117
C42	C	1.126885	0.089867	0.710098
C43	C	1.126874	0.089863	0.605080
C44	C	1.066127	0.176439	0.552575
C45	C	1.005390	0.263019	0.605089
C46	C	1.187617	0.003293	0.552558
C47	C	1.187610	0.003287	0.447534
C48	C	1.126857	0.089858	0.395027
C49	C	1.066117	0.176440	0.447547
C50	C	1.005369	0.263016	0.395043
C51	C	0.944624	0.349594	0.447561
C52	C	0.944637	0.349590	0.552582
C53	C	1.126844	0.089861	0.290005
C54	C	1.005359	0.263017	0.290015
H55	H	0.810640	-0.028255	0.000054
N56	N	0.350194	-0.064777	0.000073
N57	N	0.401116	-0.167366	0.000070
H58	H	0.374415	-0.252105	0.000071
N59	N	1.241118	-0.444613	0.000151
N60	N	1.294117	-0.425433	-0.069810
H61	H	1.357735	-0.469950	-0.069783
N62	N	1.156072	-0.250595	-0.169409
N63	N	1.236412	-0.294076	-0.184878
H64	H	1.269114	-0.266935	-0.246496
H65	H	1.237080	-0.067188	0.595311
N66	N	0.891223	-0.202215	0.000152
N67	N	0.838549	-0.220311	0.070677
H68	H	0.774984	-0.175615	0.070752
H69	H	0.985555	-0.388607	-0.151736
N70	N	0.943293	0.351455	0.236402
N71	N	0.889065	0.428739	0.283307
H72	H	0.845229	0.491199	0.245444
N73	N	1.155989	-0.250896	0.169753
N74	N	1.115886	-0.174701	0.231012
H75	H	1.148548	-0.147740	0.292707
H76	H	0.895167	0.420090	0.404799
N77	N	0.782065	0.417644	0.000050
N78	N	0.832311	0.444979	0.070381
H79	H	0.859029	0.529706	0.070390
H80	H	0.985509	-0.388688	0.151865
H81	H	0.679566	-0.148221	0.000062
N82	N	0.882598	0.438009	0.606244
N83	N	0.882621	0.437996	0.700013
H84	H	0.838807	0.500443	0.737916
H85	H	1.176348	0.019385	0.752851
N86	N	0.501248	-0.177147	0.000097
N87	N	0.450990	-0.204480	0.070429
H88	H	0.424268	-0.289205	0.070445
H89	H	0.955940	0.333504	0.752880
H90	H	1.237070	-0.067210	0.404780
N91	N	0.309774	0.404925	0.000039
N92	N	0.225802	0.402649	0.000032
H93	H	0.184657	0.485542	0.000013
N94	N	1.188808	0.001311	0.236376
N95	N	1.242987	-0.076057	0.283266
H96	H	1.286719	-0.138650	0.245392
H97	H	0.623308	0.505714	0.000029
N98	N	0.440851	0.524895	0.000037
N99	N	0.386132	0.549403	0.070365
H100	H	0.344979	0.632287	0.070358
