data_functionalizedCrystal
_audit_creation_method	'MofGen! by Chris Wilmer'
_symmetry_space_group_name_H-M	'P1'
_symmetry_Int_Tables_number	1
_symmetry_cell_setting	triclinic
loop_
_symmetry_equiv_pos_as_xyz
  x,y,z
_cell_length_a	14.044220
_cell_length_b	14.044220
_cell_length_c	10.868271
_cell_angle_alpha	89.993930
_cell_angle_beta	90.000690
_cell_angle_gamma	93.188878
loop_
_atom_site_label
_atom_site_type_symbol
_atom_site_fract_x
_atom_site_fract_y
_atom_site_fract_z
O1	O	1.277168	0.230168	-0.102196
O2	O	1.527168	0.480168	0.147804
O3	O	1.777168	0.730168	0.397804
O4	O	2.027168	0.980168	0.647804
O5	O	1.000496	0.221862	-0.102227
O6	O	1.250496	0.471862	0.147773
O7	O	1.500496	0.721862	0.397773
O8	O	1.750496	0.971862	0.647773
O9	O	1.134679	0.087679	-0.102200
O10	O	1.384679	0.337679	0.147800
O11	O	1.634679	0.587679	0.397800
O12	O	1.884679	0.837679	0.647800
O13	O	1.142985	0.364351	-0.102223
O14	O	1.392985	0.614351	0.147777
O15	O	1.642985	0.864351	0.397777
O16	O	1.892985	1.114351	0.647777
O17	O	1.134667	0.087673	0.102445
O18	O	1.384667	0.337673	0.352445
O19	O	1.634667	0.587673	0.602445
O20	O	1.884667	0.837673	0.852445
O21	O	1.000484	0.221856	0.102417
O22	O	1.250484	0.471856	0.352417
O23	O	1.500484	0.721856	0.602417
O24	O	1.750484	0.971856	0.852417
O25	O	1.277155	0.230161	0.102448
O26	O	1.527155	0.480161	0.352448
O27	O	1.777155	0.730161	0.602448
O28	O	2.027155	0.980161	0.852448
Zn29	Zn	1.138817	0.226007	0.134925
Zn30	Zn	1.388817	0.476007	0.384925
Zn31	Zn	1.638817	0.726007	0.634925
Zn32	Zn	1.888817	0.976007	0.884925
Zn33	Zn	1.138834	0.226016	-0.134704
Zn34	Zn	1.388834	0.476016	0.115296
Zn35	Zn	1.638834	0.726016	0.365296
Zn36	Zn	1.888834	0.976016	0.615296
O37	O	1.142972	0.364344	0.102421
O38	O	1.392972	0.614344	0.352421
O39	O	1.642972	0.864344	0.602421
O40	O	1.892972	1.114344	0.852421
C41	C	0.964868	0.218223	0.000091
C42	C	1.214868	0.468223	0.250091
C43	C	1.464868	0.718223	0.500091
C44	C	1.714868	0.968223	0.750091
C45	C	0.858725	0.207379	0.000080
C46	C	1.108725	0.457379	0.250080
C47	C	1.358725	0.707379	0.500080
C48	C	1.608725	0.957379	0.750080
C49	C	0.664388	0.187553	0.000106
C50	C	0.914388	0.437553	0.250106
C51	C	1.164388	0.687553	0.500106
C52	C	1.414388	0.937553	0.750106
C53	C	0.613258	0.264467	0.000105
C54	C	0.863258	0.514467	0.250105
C55	C	1.113258	0.764467	0.500105
C56	C	1.363258	1.014467	0.750105
C57	C	0.505122	0.253435	0.000119
C58	C	0.755122	0.503435	0.250119
C59	C	1.005122	0.753435	0.500119
C60	C	1.255122	1.003435	0.750119
C61	C	0.772534	0.198583	0.000091
C62	C	1.022534	0.448583	0.250091
C63	C	1.272534	0.698583	0.500091
C64	C	1.522534	0.948583	0.750091
C65	C	1.131037	0.052054	0.000122
C66	C	1.381037	0.302054	0.250122
C67	C	1.631037	0.552054	0.500122
C68	C	1.881037	0.802054	0.750122
C69	C	1.120193	-0.054088	0.000123
C70	C	1.370193	0.195912	0.250123
C71	C	1.620193	0.445912	0.500123
C72	C	1.870193	0.695912	0.750123
C73	C	1.100366	-0.248426	0.000103
C74	C	1.350366	0.001574	0.250103
C75	C	1.600366	0.251574	0.500103
C76	C	1.850366	0.501574	0.750103
C77	C	1.177281	-0.299556	0.000108
C78	C	1.427281	-0.049556	0.250108
C79	C	1.677281	0.200444	0.500108
C80	C	1.927281	0.450444	0.750108
C81	C	1.166249	-0.407692	0.000097
C82	C	1.416249	-0.157692	0.250097
C83	C	1.666249	0.092308	0.500097
C84	C	1.916249	0.342308	0.750097
C85	C	1.111397	-0.140280	0.000114
C86	C	1.361397	0.109720	0.250114
C87	C	1.611397	0.359720	0.500114
C88	C	1.861397	0.609720	0.750114
C89	C	1.312783	0.233800	0.000127
C90	C	1.562783	0.483800	0.250127
C91	C	1.812783	0.733800	0.500127
C92	C	2.062783	0.983800	0.750127
C93	C	1.418926	0.244645	0.000131
C94	C	1.668926	0.494645	0.250131
C95	C	1.918926	0.744645	0.500131
C96	C	2.168926	0.994645	0.750131
C97	C	1.146614	0.399969	0.000096
C98	C	1.396614	0.649969	0.250096
C99	C	1.646614	0.899969	0.500096
C100	C	1.896614	1.149969	0.750096
C101	C	1.157459	0.506112	0.000088
C102	C	1.407459	0.756112	0.250088
C103	C	1.657459	1.006112	0.500088
C104	C	1.907459	1.256112	0.750088
N105	N	1.138813	0.226001	0.318939
N106	N	1.388813	0.476001	0.568939
N107	N	1.638813	0.726001	0.818939
N108	N	1.888813	0.976001	1.068939
N109	N	1.138845	0.226015	-0.318718
N110	N	1.388845	0.476015	-0.068718
N111	N	1.638845	0.726015	0.181282
N112	N	1.888845	0.976015	0.431282
C113	C	1.138829	0.226014	0.569945
C114	C	1.388829	0.476014	0.819945
C115	C	1.638829	0.726014	1.069945
C116	C	1.888829	0.976014	1.319945
C117	C	1.138817	0.226010	0.430267
C118	C	1.388817	0.476010	0.680267
C119	C	1.638817	0.726010	0.930267
C120	C	1.888817	0.976010	1.180267
H121	H	0.626951	0.113425	0.000119
H122	H	0.876951	0.363425	0.250119
H123	H	1.126951	0.613425	0.500119
H124	H	1.376951	0.863425	0.750119
C125	C	1.277433	-0.248979	0.000136
C126	C	1.527433	0.001021	0.250136
C127	C	1.777433	0.251021	0.500136
C128	C	2.027433	0.501021	0.750136
N129	N	1.352864	-0.210881	0.000164
N130	N	1.602864	0.039119	0.250164
N131	N	1.852864	0.289119	0.500164
N132	N	2.102864	0.539119	0.750164
H133	H	1.026239	-0.285863	0.000091
H134	H	1.276239	-0.035863	0.250091
H135	H	1.526239	0.214137	0.500091
H136	H	1.776239	0.464137	0.750091
H137	H	0.650697	0.338600	0.000092
H138	H	0.900697	0.588600	0.250092
H139	H	1.150697	0.838600	0.500092
H140	H	1.400697	1.088600	0.750092
