data_functionalizedCrystal
_audit_creation_method	'MofGen! by Chris Wilmer'
_symmetry_space_group_name_H-M	'P1'
_symmetry_Int_Tables_number	1
_symmetry_cell_setting	triclinic
loop_
_symmetry_equiv_pos_as_xyz
  x,y,z
_cell_length_a	17.077404
_cell_length_b	16.625546
_cell_length_c	17.077396
_cell_angle_alpha	89.969785
_cell_angle_beta	89.980499
_cell_angle_gamma	90.022693
loop_
_atom_site_label
_atom_site_type_symbol
_atom_site_fract_x
_atom_site_fract_y
_atom_site_fract_z
Zn1	Zn	1.200057	-0.320997	-0.443833
Zn2	Zn	1.700057	0.179003	0.056167
Zn3	Zn	1.199965	-0.455839	-0.312563
Zn4	Zn	1.699965	0.044161	0.187437
Zn5	Zn	1.068789	-0.321025	-0.312581
Zn6	Zn	1.568789	0.178975	0.187419
Zn7	Zn	1.068758	-0.455792	-0.443787
Zn8	Zn	1.568758	0.044208	0.056213
O9	O	1.134392	-0.388413	-0.378191
O10	O	1.634392	0.111587	0.121809
O11	O	1.309892	-0.338892	-0.426432
O12	O	1.809892	0.161108	0.073568
O13	O	1.182539	-0.437988	-0.202719
O14	O	1.682539	0.062012	0.297281
O15	O	1.086253	-0.208189	-0.330019
O16	O	1.586253	0.291811	0.169981
O17	O	1.309824	-0.437960	-0.329988
O18	O	1.809824	0.062040	0.170012
O19	O	1.182695	-0.208168	-0.426449
O20	O	1.682695	0.291832	0.073551
O21	O	1.086164	-0.338940	-0.202732
O22	O	1.586164	0.161060	0.297268
O23	O	0.958938	-0.338894	-0.329974
O24	O	1.458938	0.161106	0.170026
O25	O	1.086200	-0.437879	-0.553640
O26	O	1.586200	0.062121	-0.053640
O27	O	0.958915	-0.437906	-0.426370
O28	O	1.458915	0.062094	0.073630
O29	O	1.182665	-0.338846	-0.553674
O30	O	1.682665	0.161154	-0.053674
O31	O	1.182509	-0.568666	-0.329943
O32	O	1.682509	-0.068666	0.170057
O33	O	1.086111	-0.568630	-0.426353
O34	O	1.586111	-0.068630	0.073647
C35	C	0.930444	-0.388399	-0.378169
C36	C	1.430444	0.111601	0.121831
C37	C	0.843194	-0.388412	-0.378179
C38	C	1.343194	0.111588	0.121821
C39	C	0.802213	-0.440045	-0.428292
C40	C	1.302213	0.059955	0.071708
C41	C	0.720232	-0.440047	-0.428304
C42	C	1.220232	0.059953	0.071696
C43	C	0.679235	-0.388419	-0.378199
C44	C	1.179235	0.111581	0.121801
C45	C	0.720222	-0.336780	-0.328084
C46	C	1.220222	0.163220	0.171916
C47	C	0.802201	-0.336774	-0.328076
C48	C	1.302201	0.163226	0.171924
C49	C	0.549352	-0.336795	-0.328103
C50	C	1.049352	0.163205	0.171897
C51	C	0.467368	-0.336801	-0.328110
C52	C	0.967368	0.163199	0.171890
C53	C	0.467383	-0.440068	-0.428331
C54	C	0.967383	0.059932	0.071669
C55	C	0.549362	-0.440063	-0.428323
C56	C	1.049362	0.059937	0.071677
C57	C	0.590344	-0.388425	-0.378207
C58	C	1.090344	0.111575	0.121793
C59	C	1.134318	-0.597904	-0.378158
C60	C	1.634318	-0.097904	0.121842
C61	C	1.134358	-0.687525	-0.378170
C62	C	1.634358	-0.187525	0.121830
C63	C	1.134495	-1.015701	-0.378252
C64	C	1.634495	-0.515701	0.121748
C65	C	1.134454	-0.924392	-0.378232
C66	C	1.634454	-0.424392	0.121768
C67	C	1.134426	-0.851616	-0.378211
C68	C	1.634426	-0.351616	0.121789
C69	C	1.134386	-0.760302	-0.378191
C70	C	1.634386	-0.260302	0.121809
C71	C	1.339136	-0.388428	-0.378213
C72	C	1.839136	0.111572	0.121787
C73	C	1.426386	-0.388435	-0.378223
C74	C	1.926386	0.111565	0.121777
C75	C	1.134440	-0.388354	-0.582936
C76	C	1.634440	0.111646	-0.082936
C77	C	1.134460	-0.388329	-0.670185
C78	C	1.634460	0.111671	-0.170185
C79	C	1.134488	-0.178104	-0.378241
C80	C	1.634488	0.321896	0.121759
C81	C	1.134529	-0.088483	-0.378263
C82	C	1.634529	0.411517	0.121737
C83	C	1.184691	-0.336758	-0.711195
C84	C	1.684691	0.163242	-0.211195
C85	C	1.184700	-0.336731	-0.793175
C86	C	1.684700	0.163269	-0.293175
C87	C	1.134482	-0.388280	-0.834145
C88	C	1.634482	0.111720	-0.334145
C89	C	1.084245	-0.439853	-0.793130
C90	C	1.584245	0.060147	-0.293130
C91	C	1.084233	-0.439875	-0.711151
C92	C	1.584233	0.060125	-0.211151
C93	C	1.084277	-0.439804	-0.964000
C94	C	1.584277	0.060196	-0.464000
C95	C	1.084291	-0.439783	-1.045985
C96	C	1.584291	0.060217	-0.545985
C97	C	1.184745	-0.336660	-1.046024
C98	C	1.684745	0.163340	-0.546024
C99	C	1.184732	-0.336682	-0.964045
C100	C	1.684732	0.163318	-0.464045
C101	C	1.134496	-0.388257	-0.923036
C102	C	1.634496	0.111743	-0.423036
C103	C	1.134390	-0.388414	-0.174243
C104	C	1.634390	0.111586	0.325757
C105	C	1.134522	-0.388212	-0.086994
C106	C	1.634522	0.111788	0.413006
H107	H	0.686836	-0.294739	-0.287291
H108	H	1.186836	0.205261	0.212709
C109	C	0.422259	-0.280006	-0.273008
C110	C	0.922259	0.219994	0.226992
C111	C	0.365931	-0.216769	-0.307162
C112	C	0.865931	0.283231	0.192838
C113	C	0.320817	-0.159972	-0.252064
C114	C	0.820817	0.340028	0.247936
C115	C	0.332031	-0.166412	-0.162811
C116	C	0.832031	0.333588	0.337189
C117	C	0.388362	-0.229651	-0.128652
C118	C	0.888362	0.270349	0.371348
C119	C	0.433476	-0.286448	-0.183750
C120	C	0.933476	0.213552	0.316250
H121	H	0.357627	-0.212000	-0.373237
H122	H	0.857627	0.288000	0.126763
H123	H	0.279117	-0.113158	-0.277351
H124	H	0.779117	0.386842	0.222649
H125	H	0.298636	-0.124367	-0.122024
H126	H	0.798636	0.375633	0.377976
H127	H	0.396666	-0.234420	-0.062577
H128	H	0.896666	0.265580	0.437423
H129	H	0.475176	-0.333262	-0.158463
H130	H	0.975176	0.166738	0.341537
H131	H	0.582740	-0.482108	-0.469119
H132	H	1.082740	0.017892	0.030881
H133	H	1.225647	-0.294665	-1.079418
H134	H	1.725647	0.205335	-0.579418
C135	C	1.029045	-0.496480	-1.091054
C136	C	1.529045	0.003520	-0.591054
C137	C	1.029064	-0.496456	-1.181228
C138	C	1.529064	0.003544	-0.681228
C139	C	0.973818	-0.553153	-1.226297
C140	C	1.473818	-0.053153	-0.726297
C141	C	0.918552	-0.609874	-1.181192
C142	C	1.418552	-0.109874	-0.681192
C143	C	0.918531	-0.609901	-1.091014
C144	C	1.418531	-0.109901	-0.591014
C145	C	0.973777	-0.553204	-1.045944
C146	C	1.473777	-0.053204	-0.545944
H147	H	1.069977	-0.454465	-1.214621
H148	H	1.569977	0.045535	-0.714621
H149	H	0.973834	-0.553132	-1.293053
H150	H	1.473834	-0.053132	-0.793053
H151	H	0.877655	-0.651844	-1.214555
H152	H	1.377655	-0.151844	-0.714555
H153	H	0.877618	-0.651891	-1.057620
H154	H	1.377618	-0.151891	-0.557620
H155	H	0.973761	-0.553224	-0.979188
H156	H	1.473761	-0.053224	-0.479188
H157	H	0.835587	-0.482090	-0.469091
H158	H	1.335587	0.017910	0.030909
H159	H	0.582717	-0.294739	-0.287300
H160	H	1.082717	0.205261	0.212700
H161	H	1.043357	-0.481789	-0.930613
H162	H	1.543357	0.018211	-0.430613
H163	H	1.043354	-0.481822	-0.826494
H164	H	1.543354	0.018178	-0.326494
H165	H	1.043321	-0.481861	-0.677762
H166	H	1.543321	0.018139	-0.177762
C167	C	1.239972	-0.279978	-0.918978
C168	C	1.739972	0.220022	-0.418978
C169	C	1.205973	-0.216690	-0.862629
C170	C	1.705973	0.283310	-0.362629
C171	C	1.261211	-0.159982	-0.817562
C172	C	1.761211	0.340018	-0.317562
C173	C	1.350447	-0.166561	-0.828845
C174	C	1.850447	0.333439	-0.328845
C175	C	1.384450	-0.229851	-0.885197
C176	C	1.884450	0.270149	-0.385197
C177	C	1.329212	-0.286559	-0.930264
C178	C	1.829212	0.213441	-0.430264
H179	H	1.139911	-0.211818	-0.854274
H180	H	1.639911	0.288182	-0.354274
H181	H	1.236039	-0.113131	-0.775847
H182	H	1.736039	0.386869	-0.275847
H183	H	1.391338	-0.124582	-0.795485
H184	H	1.891338	0.375418	-0.295485
H185	H	1.450512	-0.234724	-0.893552
H186	H	1.950512	0.265276	-0.393552
H187	H	1.354384	-0.333411	-0.971979
H188	H	1.854384	0.166589	-0.471979
H189	H	0.686869	-0.482093	-0.469111
H190	H	1.186869	0.017907	0.030889
H191	H	0.835567	-0.294725	-0.287273
H192	H	1.335567	0.205275	0.212727
H193	H	1.225587	-0.294783	-0.677843
H194	H	1.725587	0.205217	-0.177843
C195	C	0.422308	-0.496871	-0.483461
C196	C	0.922308	0.003129	0.016539
C197	C	0.332134	-0.496880	-0.483477
C198	C	0.832134	0.003120	0.016523
C199	C	0.287055	-0.553685	-0.538600
C200	C	0.787055	-0.053685	-0.038600
C201	C	0.332149	-0.610483	-0.593707
C202	C	0.832149	-0.110483	-0.093707
C203	C	0.422328	-0.610477	-0.593694
C204	C	0.922328	-0.110477	-0.093694
C205	C	0.467407	-0.553671	-0.538571
C206	C	0.967407	-0.053671	-0.038571
H207	H	0.298748	-0.454833	-0.442682
H208	H	0.798748	0.045167	0.057318
H209	H	0.220298	-0.553690	-0.538610
H210	H	0.720298	-0.053690	-0.038610
H211	H	0.298779	-0.652534	-0.634513
H212	H	0.798779	-0.152534	-0.134513
H213	H	0.455714	-0.652523	-0.634489
H214	H	0.955714	-0.152523	-0.134489
H215	H	0.534164	-0.553667	-0.538561
H216	H	1.034164	-0.053667	-0.038561
H217	H	1.225605	-0.294739	-0.826561
H218	H	1.725605	0.205261	-0.326561
