data_functionalizedCrystal
_audit_creation_method	'MofGen! by Chris Wilmer'
_symmetry_space_group_name_H-M	'P1'
_symmetry_Int_Tables_number	1
_symmetry_cell_setting	triclinic
loop_
_symmetry_equiv_pos_as_xyz
  x,y,z
_cell_length_a	15.944551
_cell_length_b	9.065218
_cell_length_c	8.140239
_cell_angle_alpha	90.002802
_cell_angle_beta	89.995530
_cell_angle_gamma	95.742688
loop_
_atom_site_label
_atom_site_type_symbol
_atom_site_fract_x
_atom_site_fract_y
_atom_site_fract_z
O1	O	0.123161	-1.957519	-0.136622
O2	O	0.133263	-1.527998	-0.136625
O3	O	0.006026	-1.754488	-0.136608
O4	O	0.250398	-1.731029	-0.136638
O5	O	0.006024	-1.754475	0.136619
O6	O	0.133261	-1.527986	0.136603
O7	O	0.123159	-1.957507	0.136605
Zn8	Zn	0.128210	-1.742744	0.179985
Zn9	Zn	0.128212	-1.742761	-0.180004
O10	O	0.250396	-1.731017	0.136589
C11	C	0.132291	-1.473028	-0.000011
C12	C	0.129388	-1.309253	-0.000012
C13	C	-0.025276	-1.753508	0.000005
C14	C	-0.118544	-1.750588	0.000006
N15	N	0.128208	-1.742744	0.425667
C16	C	-0.334518	-1.603221	-0.000017
C17	C	-0.395017	-1.671647	0.134701
C18	C	-0.289310	-1.745306	-0.000006
C19	C	-0.394999	-1.671693	-0.134680
C20	C	-0.454262	-1.740194	-0.000026
C21	C	-0.348581	-1.813772	0.134823
C22	C	-0.348557	-1.813798	-0.134679
C23	C	-0.409038	-1.882327	0.000072
C24	C	-0.194286	-1.748247	0.000006
C25	C	-0.549285	-1.737264	-0.000026
C26	C	0.281698	-1.731997	-0.000028
C27	C	0.374966	-1.734917	-0.000040
C28	C	0.124131	-2.012477	-0.000012
C29	C	0.127034	-2.176252	-0.000022
N30	N	0.128207	-1.742773	-0.425687
H31	H	-0.302103	-1.485283	0.000117
H32	H	-0.415531	-1.611583	-0.248581
C33	C	-0.452631	-2.041789	0.000169
C34	C	-0.512517	-2.094637	0.141404
C35	C	-0.556110	-2.254096	0.141510
C36	C	-0.539816	-2.360706	0.000381
C37	C	-0.479927	-2.307859	-0.140864
C38	C	-0.436335	-2.148401	-0.140971
H39	H	-0.524581	-2.015716	0.245886
H40	H	-0.600443	-2.293216	0.246070
H41	H	-0.572086	-2.478747	0.000460
H42	H	-0.467863	-2.386780	-0.245346
H43	H	-0.392001	-2.109281	-0.245531
C44	C	-0.320737	-1.894922	-0.288543
C45	C	-0.386822	-1.957257	-0.415073
C46	C	-0.358999	-2.038367	-0.568954
C47	C	-0.265092	-2.057141	-0.596305
C48	C	-0.199002	-1.994804	-0.469771
C49	C	-0.226825	-1.913694	-0.315891
H50	H	-0.456343	-1.943361	-0.394829
H51	H	-0.407924	-2.084513	-0.662622
H52	H	-0.244497	-2.117184	-0.710216
H53	H	-0.129481	-2.008700	-0.490015
H54	H	-0.177900	-1.867548	-0.222223
H55	H	-0.415581	-1.611545	0.248593
H56	H	-0.328137	-1.873813	0.248841
