data_functionalizedCrystal
_audit_creation_method	'MofGen! by Chris Wilmer'
_symmetry_space_group_name_H-M	'P1'
_symmetry_Int_Tables_number	1
_symmetry_cell_setting	triclinic
loop_
_symmetry_equiv_pos_as_xyz
  x,y,z
_cell_length_a	14.519731
_cell_length_b	10.654550
_cell_length_c	9.730223
_cell_angle_alpha	90.003749
_cell_angle_beta	89.997677
_cell_angle_gamma	95.913122
loop_
_atom_site_label
_atom_site_type_symbol
_atom_site_fract_x
_atom_site_fract_y
_atom_site_fract_z
O1	O	0.129527	-1.666602	-0.114406
O2	O	0.141868	-1.301006	-0.114385
O3	O	0.001510	-1.493483	-0.114384
O4	O	0.269884	-1.474125	-0.114407
O5	O	0.001514	-1.493481	0.114196
O6	O	0.141871	-1.301004	0.114195
O7	O	0.129531	-1.666600	0.114174
Zn8	Zn	0.135702	-1.483802	0.150476
Zn9	Zn	0.135697	-1.483804	-0.150687
O10	O	0.269888	-1.474123	0.114173
C11	C	0.140964	-1.254216	-0.000092
C12	C	0.138253	-1.114798	-0.000083
C13	C	-0.032852	-1.492575	-0.000093
C14	C	-0.135246	-1.489857	-0.000092
C15	C	0.130435	-1.713390	-0.000122
C16	C	0.133146	-1.852808	-0.000140
C17	C	-0.218402	-1.487649	-0.000095
C18	C	-0.322725	-1.484889	-0.000106
C19	C	-0.405875	-1.482699	-0.000114
C20	C	-0.510205	-1.479939	-0.000122
C21	C	0.304250	-1.475031	-0.000121
C22	C	0.406645	-1.477749	-0.000131
N23	N	0.135704	-1.483809	0.356013
C24	C	0.220893	-1.034527	-0.000110
C25	C	0.218340	-0.903530	-0.000134
C26	C	0.050499	-0.933090	-0.000108
C27	C	0.053053	-1.064084	-0.000075
C28	C	0.317794	-1.017459	-0.000131
C29	C	0.315241	-0.886463	-0.000155
N30	N	0.135687	-1.483807	-0.356224
C31	C	0.073575	-1.569059	0.427939
C32	C	0.073564	-1.569056	0.571822
C33	C	0.197819	-1.398547	0.571840
C34	C	0.197825	-1.398546	0.427959
C35	C	0.001840	-1.667505	0.427931
C36	C	0.001829	-1.667502	0.571814
H37	H	-0.018867	-0.891782	-0.000123
O38	O	0.022772	-1.795127	0.623557
H39	H	-0.030866	-1.868666	0.585480
O40	O	0.264825	-1.306587	0.350372
H41	H	0.336831	-1.322744	0.377975
H42	H	-0.069044	-1.646736	0.388884
H43	H	0.024301	-1.758475	0.383297
O44	O	0.264834	-1.306602	0.649431
H45	H	0.225600	-1.245478	0.714995
H46	H	-0.014241	-1.129437	-0.000033
O47	O	0.363594	-0.830710	-0.126878
H48	H	0.422821	-0.762403	-0.095748
O49	O	0.354028	-0.825582	0.130556
H50	H	0.414097	-0.756361	0.105415
H51	H	0.355694	-1.046429	0.095531
O52	O	-0.086897	-1.627927	0.630932
H53	H	-0.083243	-1.629544	0.744850
H54	H	0.348648	-1.052822	-0.098821
