data_functionalizedCrystal
_audit_creation_method	'MofGen! by Chris Wilmer'
_symmetry_space_group_name_H-M	'P1'
_symmetry_Int_Tables_number	1
_symmetry_cell_setting	triclinic
loop_
_symmetry_equiv_pos_as_xyz
  x,y,z
_cell_length_a	18.215407
_cell_length_b	18.215405
_cell_length_c	18.215399
_cell_angle_alpha	90.030551
_cell_angle_beta	90.017813
_cell_angle_gamma	90.019398
loop_
_atom_site_label
_atom_site_type_symbol
_atom_site_fract_x
_atom_site_fract_y
_atom_site_fract_z
Zn1	Zn	1.125072	-0.293100	0.416063
Zn2	Zn	1.124980	-0.416171	0.292991
Zn3	Zn	1.002004	-0.293111	0.293015
Zn4	Zn	1.001970	-0.416117	0.416020
O5	O	1.063507	-0.354625	0.354522
O6	O	1.228044	-0.309443	0.399745
O7	O	1.108643	-0.399874	0.190010
O8	O	1.018382	-0.190125	0.309365
O9	O	1.227977	-0.399863	0.309325
O10	O	1.108799	-0.190117	0.399768
O11	O	1.018293	-0.309462	0.190027
O12	O	0.899016	-0.309410	0.309324
O13	O	1.018324	-0.399771	0.519010
O14	O	0.898991	-0.399782	0.399695
O15	O	1.108766	-0.309391	0.519042
O16	O	1.108610	-0.519148	0.309283
O17	O	1.018235	-0.519109	0.399672
C18	C	0.872300	-0.354592	0.354508
C19	C	0.790502	-0.354596	0.354519
C20	C	0.525473	-0.307634	0.401679
C21	C	0.602332	-0.307622	0.401677
C22	C	0.602281	-0.401639	0.307381
C23	C	0.525424	-0.401654	0.307388
C24	C	0.487022	-0.354647	0.354536
C25	C	0.640738	-0.354620	0.354527
C26	C	0.724072	-0.354608	0.354524
C27	C	0.403683	-0.354661	0.354540
C28	C	1.063429	-0.545831	0.354487
C29	C	1.063463	-0.627630	0.354496
C30	C	1.110632	-0.815820	0.307517
C31	C	1.110665	-0.892679	0.307535
C32	C	1.016476	-0.892677	0.401580
C33	C	1.016447	-0.815820	0.401565
C34	C	1.063524	-0.777393	0.354530
C35	C	1.063586	-0.931109	0.354562
C36	C	1.063621	-1.014443	0.354582
C37	C	1.063490	-0.694054	0.354511
C38	C	1.255460	-0.354658	0.354537
C39	C	1.337259	-0.354672	0.354543
C40	C	1.063552	-0.354574	0.546475
C41	C	1.063571	-0.354552	0.628274
C42	C	1.063605	-0.162672	0.354574
C43	C	1.063647	-0.080873	0.354596
C44	C	1.063504	-0.354622	0.163316
C45	C	1.063628	-0.354436	0.081517
C46	C	1.110681	-0.307447	0.816486
C47	C	1.110690	-0.307426	0.893344
C48	C	1.016513	-0.401544	0.893301
C49	C	1.016501	-0.401561	0.816443
C50	C	1.063589	-0.354514	0.778038
C51	C	1.063610	-0.354475	0.931754
C52	C	1.063619	-0.354452	1.015088
C53	C	1.063579	-0.354535	0.694699
H54	H	0.633558	-0.439909	0.268994
O55	O	0.488088	-0.262081	0.447518
C56	C	0.443657	-0.304050	0.494991
H57	H	0.432124	-0.359790	0.468936
H58	H	0.389620	-0.274096	0.504913
H59	H	0.473299	-0.312200	0.549511
H60	H	0.494116	-0.439943	0.268998
H61	H	1.148966	-0.784535	0.269219
H62	H	1.149026	-0.923962	0.269254
O63	O	0.970777	-0.447216	0.778976
C64	C	0.980877	-0.437152	0.702905
H65	H	1.005005	-0.380363	0.692433
H66	H	0.925747	-0.442141	0.673683
H67	H	1.020044	-0.480814	0.681086
O68	O	0.970766	-0.930120	0.447193
C69	C	0.980903	-1.006197	0.437138
H70	H	1.005046	-1.016718	0.380369
H71	H	0.925785	-1.035441	0.442081
H72	H	1.020072	-1.027950	0.480831
O73	O	0.970788	-0.778455	0.447314
C74	C	1.012644	-0.733921	0.494863
H75	H	1.070611	-0.757041	0.499467
H76	H	0.985993	-0.733023	0.551474
H77	H	1.015175	-0.675687	0.472098
O78	O	1.156439	-0.261673	0.779292
C79	C	1.198017	-0.220139	0.829712
H80	H	1.167882	-0.217577	0.884494
H81	H	1.205889	-0.162161	0.807526
H82	H	1.253899	-0.247093	0.837887
H83	H	1.149035	-0.269098	0.924645
H84	H	0.633636	-0.269339	0.440066
O85	O	0.970846	-0.447223	0.930723
C86	C	0.980941	-0.437104	1.006804
H87	H	1.037749	-0.413008	1.017318
H88	H	0.975928	-0.492222	1.035996
H89	H	0.937312	-0.397903	1.028621
