data_functionalizedCrystal
_audit_creation_method	'MofGen! by Chris Wilmer'
_symmetry_space_group_name_H-M	'P1'
_symmetry_Int_Tables_number	1
_symmetry_cell_setting	triclinic
loop_
_symmetry_equiv_pos_as_xyz
  x,y,z
_cell_length_a	10.723022
_cell_length_b	12.811451
_cell_length_c	9.198806
_cell_angle_alpha	84.566226
_cell_angle_beta	90.003383
_cell_angle_gamma	95.743515
loop_
_atom_site_label
_atom_site_type_symbol
_atom_site_fract_x
_atom_site_fract_y
_atom_site_fract_z
O1	O	1.656462	-0.147207	0.140286
O2	O	1.293239	-0.161300	0.142149
O3	O	1.483981	-0.001528	0.121077
O4	O	1.465720	-0.306979	0.161358
O5	O	1.483967	-0.001527	-0.120708
O6	O	1.293225	-0.161299	-0.099636
O7	O	1.656447	-0.147206	-0.101499
Cu8	Cu	1.474835	-0.154253	-0.122645
Cu9	Cu	1.474852	-0.154253	0.163294
O10	O	1.465706	-0.306978	-0.080427
C11	C	1.246738	-0.160275	0.021122
C12	C	1.108198	-0.157207	0.020719
C13	C	1.060092	-0.065072	0.008570
C14	C	0.916905	-0.061900	0.008153
C15	C	1.482948	0.037584	-0.004970
C16	C	1.479876	0.154123	-0.020329
C17	C	1.475544	0.318383	-0.173771
C18	C	1.478425	0.208884	-0.159343
C19	C	1.478441	0.208869	0.104267
C20	C	1.475559	0.318368	0.089839
C21	C	1.474112	0.373122	-0.049185
C22	C	1.471240	0.482624	-0.063611
C23	C	1.471246	0.482606	0.199997
C24	C	1.474127	0.373107	0.214425
C25	C	1.702949	-0.148232	0.019531
C26	C	1.841488	-0.151299	0.019944
N27	N	1.474832	-0.154252	-0.323759
C28	C	1.466737	0.653910	0.045621
C29	C	1.469804	0.537370	0.060984
C30	C	1.402383	-0.093386	-0.404016
C31	C	1.402400	-0.093383	-0.571428
N32	N	1.474864	-0.154246	0.364407
H33	H	0.882902	-0.230189	0.030338
Br34	Br	1.299024	-0.006516	-0.686405
H35	H	1.043378	-0.233738	0.030818
Br36	Br	1.578266	-0.241097	-0.520628
H37	H	1.470064	0.527203	-0.176811
H38	H	1.474374	0.362966	-0.286969
H39	H	0.875483	0.016986	-0.002212
Br40	Br	1.480358	0.134597	-0.328431
Br41	Br	1.480489	0.134551	0.292924
Br42	Br	1.298964	-0.006543	-0.311978
Br43	Br	1.168118	0.062494	-0.008244
Br44	Br	1.476123	0.298792	0.403089
H45	H	1.470083	0.527186	0.301444
H46	H	1.536864	-0.206364	-0.378987
