data_functionalizedCrystal
_audit_creation_method	'MofGen! by Chris Wilmer'
_symmetry_space_group_name_H-M	'P1'
_symmetry_Int_Tables_number	1
_symmetry_cell_setting	triclinic
loop_
_symmetry_equiv_pos_as_xyz
  x,y,z
_cell_length_a	25.639240
_cell_length_b	16.120530
_cell_length_c	16.120297
_cell_angle_alpha	89.871860
_cell_angle_beta	87.138170
_cell_angle_gamma	87.127770
loop_
_atom_site_label
_atom_site_type_symbol
_atom_site_fract_x
_atom_site_fract_y
_atom_site_fract_z
Zn1	Zn	-0.264883	1.247376	0.534485
Zn2	Zn	0.235117	1.747376	1.034485
Zn3	Zn	-0.348114	1.254307	0.395403
Zn4	Zn	0.151886	1.754307	0.895403
Zn5	Zn	-0.256048	1.115369	0.388406
Zn6	Zn	0.243952	1.615369	0.888406
Zn7	Zn	-0.347633	1.108263	0.527372
Zn8	Zn	0.152367	1.608263	1.027372
O9	O	-0.304169	1.181329	0.461417
O10	O	0.195831	1.681329	0.961417
O11	O	-0.279823	1.364661	0.521941
O12	O	0.220177	1.864661	1.021941
O13	O	-0.332405	1.241750	0.278110
O14	O	0.167595	1.741750	0.778110
O15	O	-0.184058	1.132953	0.407832
O16	O	0.315942	1.632953	0.907832
O17	O	-0.340972	1.369753	0.419757
O18	O	0.159028	1.869753	0.919757
O19	O	-0.190549	1.229938	0.515156
O20	O	0.309451	1.729938	1.015156
O21	O	-0.264765	1.139673	0.272970
O22	O	0.235235	1.639673	0.772970
O23	O	-0.264298	0.998061	0.400935
O24	O	0.235702	1.498061	0.900935
O25	O	-0.340152	1.120843	0.644680
O26	O	0.159848	1.620843	1.144680
O27	O	-0.331585	0.992840	0.503033
O28	O	0.168415	1.492840	1.003033
O29	O	-0.279356	1.223048	0.649906
O30	O	0.220644	1.723048	1.149906
O31	O	-0.421212	1.234860	0.412860
O32	O	0.078788	1.734860	0.912860
O33	O	-0.420858	1.127563	0.509818
O34	O	0.079142	1.627563	1.009818
C35	C	-0.296931	0.965278	0.450453
C36	C	0.203069	1.465278	0.950453
C37	C	-0.293847	0.872850	0.445783
C38	C	0.206153	1.372850	0.945783
C39	C	-0.440006	1.181214	0.461345
C40	C	0.059994	1.681214	0.961345
C41	C	-0.498121	1.181240	0.461347
C42	C	0.001879	1.681240	0.961347
C43	C	-0.288205	0.703622	0.437263
C44	C	0.211795	1.203622	0.937263
C45	C	-0.320174	0.659873	0.485630
C46	C	0.179826	1.159873	0.985630
C47	C	-0.317035	0.565708	0.480890
C48	C	0.182965	1.065708	0.980890
C49	C	-0.291344	0.797795	0.442003
C50	C	0.208656	1.297795	0.942003
C51	C	-0.861834	1.231850	0.517397
C52	C	-0.361834	1.731850	1.017397
C53	C	-0.916440	1.231874	0.517416
C54	C	-0.416440	1.731874	1.017416
O55	O	-0.947518	1.274768	0.564998
O56	O	-0.447518	1.774768	1.064998
N57	N	-0.940415	1.181440	0.461503
N58	N	-0.440415	1.681440	0.961503
C59	C	-0.909781	1.130972	0.405574
C60	C	-0.409781	1.630972	0.905574
O61	O	-0.935187	1.088076	0.358018
O62	O	-0.435187	1.588076	0.858018
C63	C	-0.855176	1.130945	0.405560
C64	C	-0.355176	1.630945	0.905560
C65	C	-0.831204	1.181389	0.461471
C66	C	-0.331204	1.681389	0.961471
C67	C	-0.837862	1.282289	0.573304
C68	C	-0.337862	1.782289	1.073304
C69	C	-0.783260	1.282267	0.573285
C70	C	-0.283260	1.782267	1.073285
C71	C	-0.752630	1.231805	0.517359
C72	C	-0.252630	1.731805	1.017359
C73	C	-0.776603	1.181366	0.461452
C74	C	-0.276603	1.681366	0.961452
C75	C	-0.824543	1.080474	0.349636
C76	C	-0.324543	1.580474	0.849636
C77	C	-0.769935	1.080450	0.349628
C78	C	-0.269935	1.580450	0.849628
C79	C	-0.745964	1.130894	0.405539
C80	C	-0.245964	1.630894	0.905539
C81	C	-0.691371	1.130882	0.405506
C82	C	-0.191371	1.630882	0.905506
N83	N	-0.667396	1.181316	0.461419
N84	N	-0.167396	1.681316	0.961419
C85	C	-0.698026	1.231778	0.517345
C86	C	-0.198026	1.731778	1.017345
C87	C	-1.024454	1.131033	0.405608
C88	C	-0.524454	1.631033	0.905608
C89	C	-1.079058	1.131064	0.405616
C90	C	-0.579058	1.631064	0.905616
C91	C	-1.085713	1.231965	0.517459
C92	C	-0.585713	1.731965	1.017459
C93	C	-1.031109	1.231937	0.517446
C94	C	-0.531109	1.731937	1.017446
C95	C	-1.000480	1.181467	0.461520
C96	C	-0.500480	1.681467	0.961520
C97	C	-0.583358	1.231727	0.517300
C98	C	-0.083358	1.731727	1.017300
C99	C	-0.528751	1.231702	0.517273
C100	C	-0.028751	1.731702	1.017273
C101	C	-0.522100	1.130798	0.405433
C102	C	-0.022100	1.630798	0.905433
C103	C	-0.576703	1.130826	0.405457
C104	C	-0.076703	1.630826	0.905457
C105	C	-0.607330	1.181292	0.461397
C106	C	-0.107330	1.681292	0.961397
O107	O	-0.660259	1.088007	0.357950
O108	O	-0.160259	1.588007	0.857950
O109	O	-0.672612	1.274659	0.564900
O110	O	-0.172612	1.774659	1.064900
C111	C	-0.167804	1.181465	0.461507
C112	C	0.332196	1.681465	0.961507
C113	C	-0.109693	1.181523	0.461546
C114	C	0.390307	1.681523	0.961546
C115	C	-0.310686	1.170380	0.678309
C116	C	0.189314	1.670380	1.178309
C117	C	-0.313462	1.165714	0.770735
C118	C	0.186538	1.665714	1.270735
C119	C	-0.311437	1.398223	0.472423
C120	C	0.188563	1.898223	0.972423
C121	C	-0.314534	1.490650	0.477113
C122	C	0.185466	1.990650	0.977113
C123	C	-0.297642	1.192283	0.245371
C124	C	0.202358	1.692283	0.745371
C125	C	-0.294724	1.197109	0.152953
C126	C	0.205276	1.697109	0.652953
C127	C	-0.318519	1.157165	0.939958
C128	C	0.181481	1.657165	1.439958
C129	C	-0.289668	1.205656	0.983735
C130	C	0.210332	1.705656	1.483735
C131	C	-0.292482	1.200899	1.077896
C132	C	0.207518	1.700899	1.577896
C133	C	-0.315706	1.161921	0.845788
C134	C	0.184294	1.661921	1.345788
H135	H	-0.349899	0.693138	0.530600
H136	H	0.150101	1.193138	1.030600
H137	H	-0.258482	0.670359	0.392298
H138	H	0.241518	1.170359	0.892298
O139	O	-0.257602	1.259360	0.944128
O140	O	0.242398	1.759360	1.444128
C141	C	-0.169242	1.301182	0.919508
C142	C	0.330758	1.801182	1.419508
C143	C	-0.205494	1.240297	0.964395
C144	C	0.294506	1.740297	1.464395
H145	H	-0.127107	1.285802	0.935892
H146	H	0.372893	1.785802	1.435892
H147	H	-0.172592	1.295490	0.849518
H148	H	0.327408	1.795490	1.349518
H149	H	-0.181199	1.367373	0.939931
H150	H	0.318801	1.867373	1.439931
H151	H	-0.193562	1.174080	0.944042
H152	H	0.306438	1.674080	1.444042
H153	H	-0.202139	1.246061	1.034377
H154	H	0.297861	1.746061	1.534377
O155	O	-0.505489	1.280608	0.571704
O156	O	-0.005489	1.780608	1.071704
C157	C	-0.494336	1.313739	0.715224
C158	C	0.005664	1.813739	1.215224
C159	C	-0.520701	1.258289	0.653674
C160	C	-0.020701	1.758289	1.153674
H161	H	-0.506634	1.295726	0.781509
H162	H	-0.006634	1.795726	1.281509
H163	H	-0.450043	1.305053	0.705680
H164	H	0.049957	1.805053	1.205680
H165	H	-0.506843	1.381538	0.704040
H166	H	-0.006843	1.881538	1.204040
H167	H	-0.508236	1.190469	0.664819
H168	H	-0.008236	1.690469	1.164819
H169	H	-0.564990	1.267046	0.663232
H170	H	-0.064990	1.767046	1.163232
O171	O	-0.613128	1.280626	0.571718
O172	O	-0.113128	1.780626	1.071718
C173	C	-0.678494	1.286098	0.684553
C174	C	-0.178494	1.786098	1.184553
C175	C	-0.644800	1.230619	0.622991
C176	C	-0.144800	1.730619	1.122991
H177	H	-0.704117	1.245692	0.726011
H178	H	-0.204117	1.745692	1.226011
H179	H	-0.652001	1.322125	0.724565
H180	H	-0.152001	1.822125	1.224565
H181	H	-0.704335	1.331565	0.648611
H182	H	-0.204335	1.831565	1.148611
H183	H	-0.618955	1.185105	0.658866
H184	H	-0.118955	1.685105	1.158866
H185	H	-0.671324	1.194651	0.582980
H186	H	-0.171324	1.694651	1.082980
O187	O	-0.760062	1.331286	0.627681
O188	O	-0.260062	1.831286	1.127681
C189	C	-0.772447	1.431402	0.738582
C190	C	-0.272447	1.931402	1.238582
C191	C	-0.798781	1.375912	0.677031
C192	C	-0.298781	1.875912	1.177031
H193	H	-0.803739	1.467510	0.778486
H194	H	-0.303739	1.967510	1.278486
H195	H	-0.746933	1.391024	0.780147
H196	H	-0.246933	1.891024	1.280147
H197	H	-0.747166	1.476798	0.702633
H198	H	-0.247166	1.976798	1.202633
H199	H	-0.824088	1.330508	0.712913
H200	H	-0.324088	1.830508	1.212913
H201	H	-0.824263	1.416342	0.635467
H202	H	-0.324263	1.916342	1.135467
H203	H	-0.345331	1.112083	0.973196
H204	H	0.154669	1.612083	1.473196
H205	H	-1.011594	1.273013	0.562973
H206	H	-0.511594	1.773013	1.062973
H207	H	-0.862796	1.323381	0.618851
H208	H	-0.362796	1.823381	1.118851
H209	H	-1.110662	1.273052	0.562999
H210	H	-0.610662	1.773052	1.062999
H211	H	-0.999518	1.089937	0.360059
H212	H	-0.499518	1.589937	0.860059
O213	O	-1.102315	1.081945	0.351381
O214	O	-0.602315	1.581945	0.851381
C215	C	-1.113126	0.942580	0.303695
C216	C	-0.613126	1.442580	0.803695
C217	C	-1.086767	0.998116	0.365174
C218	C	-0.586767	1.498116	0.865174
H219	H	-1.100557	0.874795	0.314813
H220	H	-0.600557	1.374795	0.814813
H221	H	-1.157420	0.951183	0.313305
H222	H	-0.657420	1.451183	0.813305
H223	H	-1.100888	0.960661	0.237405
H224	H	-0.600888	1.460661	0.737405
H225	H	-1.098964	0.980070	0.431488
H226	H	-0.598964	1.480070	0.931488
H227	H	-1.042478	0.989506	0.355491
H228	H	-0.542478	1.489506	0.855491
O229	O	-0.847737	1.031391	0.295297
O230	O	-0.347737	1.531391	0.795297
C231	C	-0.835349	0.931330	0.184346
C232	C	-0.335349	1.431330	0.684346
C233	C	-0.809017	0.986867	0.245856
C234	C	-0.309017	1.486867	0.745856
H235	H	-0.804056	0.895331	0.144346
H236	H	-0.304056	1.395331	0.644346
H237	H	-0.860594	0.885849	0.220246
H238	H	-0.360594	1.385849	0.720246
H239	H	-0.860897	0.971747	0.142869
H240	H	-0.360897	1.471747	0.642869
H241	H	-0.783443	0.946517	0.287348
H242	H	-0.283443	1.446517	0.787348
H243	H	-0.783803	1.032353	0.209905
H244	H	-0.283803	1.532353	0.709905
O245	O	-0.600015	1.081956	0.351056
O246	O	-0.100015	1.581956	0.851056
C247	C	-0.657991	1.076543	0.238268
C248	C	-0.157991	1.576543	0.738268
C249	C	-0.631621	1.131993	0.299812
C250	C	-0.131621	1.631993	0.799812
H251	H	-0.683558	1.116974	0.196832
H252	H	-0.183558	1.616974	0.696832
H253	H	-0.626737	1.040497	0.198231
H254	H	-0.126737	1.540497	0.698231
H255	H	-0.683228	1.031094	0.274225
H256	H	-0.183228	1.531094	0.774225
H257	H	-0.606386	1.177490	0.263921
H258	H	-0.106386	1.677490	0.763921
H259	H	-0.662900	1.167981	0.339848
H260	H	-0.162900	1.667981	0.839848
H261	H	-0.744999	1.039348	0.304087
H262	H	-0.244999	1.539348	0.804087
O263	O	-0.492264	1.081803	0.351190
O264	O	0.007736	1.581803	0.851190
C265	C	-0.405187	1.037087	0.301585
C266	C	0.094813	1.537087	0.801585
C267	C	-0.438915	1.092605	0.363067
C268	C	0.061085	1.592605	0.863067
H269	H	-0.362048	1.045815	0.311154
H270	H	0.137952	1.545815	0.811154
H271	H	-0.414106	0.969276	0.312739
H272	H	0.085894	1.469276	0.812739
H273	H	-0.414442	1.055116	0.235297
H274	H	0.085558	1.555116	0.735297
H275	H	-0.429680	1.074651	0.429378
H276	H	0.070320	1.574651	0.929378
H277	H	-0.429991	1.160403	0.351841
H278	H	0.070009	1.660403	0.851841
