data_functionalizedCrystal
_audit_creation_method	'MofGen! by Chris Wilmer'
_symmetry_space_group_name_H-M	'P1'
_symmetry_Int_Tables_number	1
_symmetry_cell_setting	triclinic
loop_
_symmetry_equiv_pos_as_xyz
  x,y,z
_cell_length_a	11.792254
_cell_length_b	10.868271
_cell_length_c	15.538191
_cell_angle_alpha	89.998631
_cell_angle_beta	65.735346
_cell_angle_gamma	90.004308
loop_
_atom_site_label
_atom_site_type_symbol
_atom_site_fract_x
_atom_site_fract_y
_atom_site_fract_z
O1	O	1.452844	0.102308	0.128893
O2	O	1.116941	0.102310	0.142159
O3	O	1.350279	0.102315	-0.001267
O4	O	1.219506	0.102303	0.272319
O5	O	1.350261	-0.102330	-0.001263
O6	O	1.116924	-0.102335	0.142163
O7	O	1.452826	-0.102336	0.128897
Zn8	Zn	1.284872	-0.134827	0.135531
Zn9	Zn	1.284895	0.134801	0.135525
O10	O	1.219489	-0.102341	0.272323
C11	C	1.074992	-0.000012	0.141325
C12	C	0.950028	-0.000011	0.138824
N13	N	1.284865	-0.318841	0.135534
C14	C	0.848544	-0.000006	0.136792
C15	C	0.721223	-0.000005	0.134250
C16	C	1.284873	-0.430179	0.135535
C17	C	1.284892	-0.569857	0.135526
C18	C	1.494775	-0.000012	0.129731
C19	C	1.619739	-0.000005	0.132232
C20	C	1.363952	-0.000004	-0.036290
C21	C	1.404707	0.000008	-0.140654
N22	N	1.284915	0.318815	0.135514
C23	C	0.999818	-0.000016	-0.430528
C24	C	1.038142	-0.000019	-0.528597
C25	C	1.253705	-0.000020	-0.549930
C26	C	1.215399	-0.000011	-0.451862
C27	C	1.088454	-0.000010	-0.392168
C28	C	1.304036	-0.000005	-0.413501
C29	C	1.265732	-0.000002	-0.315441
C30	C	1.138793	-0.000006	-0.255741
C31	C	1.050151	-0.000008	-0.294107
C32	C	1.430981	-0.000014	-0.473197
C33	C	1.519617	-0.000008	-0.434837
C34	C	1.481314	0.000003	-0.336775
C35	C	1.354374	-0.000000	-0.277075
C36	C	1.569956	0.000006	-0.298409
C37	C	1.531653	0.000008	-0.200348
C38	C	1.316071	0.000002	-0.179015
C39	C	1.205815	-0.000020	0.307346
C40	C	1.165060	-0.000024	0.411710
H41	H	1.107608	-0.000011	-0.175895
N42	N	1.656531	-0.000020	-0.499222
H43	H	1.667349	-0.000027	-0.567165
H44	H	1.696913	0.075847	-0.486748
H45	H	1.357065	-0.000025	-0.598546
H46	H	1.673315	-0.000007	-0.347026
N47	N	1.179156	0.000006	-0.114606
H48	H	1.138695	0.075868	-0.127000
H49	H	1.138784	-0.075906	-0.127024
N50	N	0.913236	-0.000004	-0.229699
H51	H	0.872775	0.075858	-0.242093
H52	H	0.872864	-0.075916	-0.242117
H53	H	1.462163	-0.000005	-0.553043
N54	N	1.627246	0.000005	-0.158965
H55	H	1.681045	0.075866	-0.180689
H56	H	1.583618	-0.000047	-0.087794
N57	N	0.862898	0.000004	-0.366133
H58	H	0.812553	0.000007	-0.405311
H59	H	0.842300	-0.075859	-0.324977
H60	H	0.965954	-0.000042	-0.559824
