data_functionalizedCrystal
_audit_creation_method	'MofGen! by Chris Wilmer'
_symmetry_space_group_name_H-M	'P1'
_symmetry_Int_Tables_number	1
_symmetry_cell_setting	triclinic
loop_
_symmetry_equiv_pos_as_xyz
  x,y,z
_cell_length_a	16.625547
_cell_length_b	25.639240
_cell_length_c	16.625539
_cell_angle_alpha	90.038438
_cell_angle_beta	90.024822
_cell_angle_gamma	90.032694
loop_
_atom_site_label
_atom_site_type_symbol
_atom_site_fract_x
_atom_site_fract_y
_atom_site_fract_z
Zn1	Zn	1.232623	-0.208151	0.455944
Zn2	Zn	1.232502	-0.295589	0.321087
Zn3	Zn	1.097785	-0.208169	0.321115
Zn4	Zn	1.097731	-0.295557	0.455867
O5	O	1.165160	-0.251866	0.388503
O6	O	1.345439	-0.219755	0.438076
O7	O	1.214603	-0.284013	0.208259
O8	O	1.115744	-0.135001	0.339043
O9	O	1.345350	-0.283995	0.338997
O10	O	1.214809	-0.134988	0.438102
O11	O	1.115627	-0.219786	0.208279
O12	O	0.984945	-0.219755	0.338969
O13	O	1.115653	-0.283941	0.568710
O14	O	0.984906	-0.283959	0.437971
O15	O	1.214757	-0.219724	0.568766
O16	O	1.214551	-0.368750	0.338923
O17	O	1.115535	-0.368726	0.437945
C18	C	0.955669	-0.251856	0.388465
C19	C	0.866048	-0.251864	0.388468
C20	C	0.793266	-0.251865	0.388478
C21	C	0.701957	-0.251868	0.388498
C22	C	0.629181	-0.251873	0.388519
C23	C	0.537866	-0.251877	0.388538
C24	C	1.165046	-0.387709	0.388440
C25	C	1.165071	-0.445823	0.388440
C26	C	1.216769	-0.806140	0.440176
C27	C	1.216793	-0.860745	0.440193
O28	O	1.260612	-0.888943	0.484116
N29	N	1.165272	-0.888105	0.388581
C30	C	1.113718	-0.860859	0.336956
O31	O	1.069898	-0.889145	0.293059
C32	C	1.113691	-0.806255	0.336944
C33	C	1.165221	-0.778898	0.388553
C34	C	1.268294	-0.778783	0.491782
C35	C	1.268271	-0.724182	0.491764
C36	C	1.216723	-0.696939	0.440141
C37	C	1.165198	-0.724297	0.388536
C38	C	1.062134	-0.779010	0.285324
C39	C	1.062111	-0.724403	0.285317
C40	C	1.113641	-0.697045	0.336926
C41	C	1.113627	-0.642454	0.336895
N42	N	1.165148	-0.615093	0.388506
C43	C	1.216696	-0.642336	0.440129
C44	C	1.113778	-0.975529	0.336986
C45	C	1.113809	-1.030132	0.336993
C46	C	1.216883	-1.030014	0.440230
C47	C	1.216855	-0.975411	0.440219
C48	C	1.165299	-0.948169	0.388597
C49	C	1.216644	-0.527671	0.440088
C50	C	1.216619	-0.473066	0.440063
C51	C	1.113543	-0.473188	0.336829
C52	C	1.113571	-0.527789	0.336850
C53	C	1.165124	-0.555029	0.388486
O54	O	1.069827	-0.614221	0.292997
O55	O	1.260502	-0.614043	0.484027
C56	C	1.375469	-0.251877	0.388542
C57	C	1.465090	-0.251881	0.388559
C58	C	1.165212	-0.251827	0.598812
C59	C	1.165235	-0.251811	0.688434
C60	C	1.165296	-0.115493	0.388584
C61	C	1.165354	-0.057379	0.388619
C62	C	1.165154	-0.251867	0.179013
C63	C	1.165288	-0.251737	0.089392
C64	C	1.165272	-0.251752	1.016609
C65	C	1.165259	-0.251770	0.925301
C66	C	1.165254	-0.251782	0.852524
C67	C	1.165240	-0.251799	0.761210
H68	H	1.258584	-0.450793	0.482089
C69	C	1.057073	-0.945565	0.280186
C70	C	0.993723	-0.908046	0.315040
C71	C	0.937018	-0.878085	0.258242
C72	C	0.943663	-0.885644	0.166590
C73	C	1.007015	-0.923165	0.131731
C74	C	1.063720	-0.953126	0.188530
H75	H	0.988802	-0.902449	0.382891
H76	H	0.890120	-0.850309	0.284047
H77	H	0.901686	-0.863465	0.124545
H78	H	1.011936	-0.928762	0.063881
H79	H	1.110618	-0.980901	0.162724
C80	C	1.057132	-1.060222	0.280216
C81	C	0.993822	-1.097775	0.315098
C82	C	0.937139	-1.127863	0.258324
C83	C	0.943767	-1.120399	0.166667
C84	C	1.007080	-1.082845	0.131780
C85	C	1.063763	-1.052756	0.188554
H86	H	0.988913	-1.103302	0.382952
H87	H	0.890270	-1.155663	0.284150
H88	H	0.901807	-1.142672	0.124639
H89	H	1.011988	-1.077318	0.063925
H90	H	1.110631	-1.024956	0.162728
H91	H	1.020173	-0.801275	0.243298
H92	H	1.258854	-1.052205	0.482266
C93	C	1.325008	-0.808743	0.548569
C94	C	1.388357	-0.846257	0.513701
C95	C	1.445083	-0.876212	0.570486
C96	C	1.438459	-0.868653	0.662139
C97	C	1.375107	-0.831137	0.697012
C98	C	1.318382	-0.801182	0.640227
H99	H	1.393263	-0.851855	0.445849
H100	H	1.491980	-0.903984	0.544670
H101	H	1.480450	-0.890827	0.704175
H102	H	1.370201	-0.825539	0.764863
H103	H	1.271484	-0.773410	0.666042
C104	C	1.005399	-0.694437	0.228528
C105	C	1.012031	-0.701994	0.136875
C106	C	0.955322	-0.672029	0.080086
C107	C	0.891981	-0.634507	0.114950
C108	C	0.885346	-0.626949	0.206608
C109	C	0.942055	-0.656914	0.263397
H110	H	1.058922	-0.729771	0.111062
H111	H	0.960233	-0.677625	0.012235
H112	H	0.850001	-0.612326	0.072911
H113	H	0.838455	-0.599172	0.232421
H114	H	0.937143	-0.651318	0.331249
H115	H	1.310228	-0.701911	0.533791
H116	H	1.258815	-0.953139	0.482244
C117	C	1.056835	-0.443214	0.280052
C118	C	1.056808	-0.383153	0.280048
C119	C	1.000093	-0.353178	0.223278
C120	C	0.943405	-0.383264	0.166512
C121	C	0.943431	-0.443329	0.166513
C122	C	1.000146	-0.473304	0.223283
H123	H	1.098773	-0.360878	0.322072
H124	H	1.000074	-0.308713	0.223278
H125	H	0.901422	-0.361074	0.124487
H126	H	0.901466	-0.465603	0.124490
H127	H	1.000165	-0.517768	0.223284
H128	H	1.258618	-0.549843	0.482140
H129	H	1.071617	-0.550065	0.294819
