data_functionalizedCrystal
_audit_creation_method	'MofGen! by Chris Wilmer'
_symmetry_space_group_name_H-M	'P1'
_symmetry_Int_Tables_number	1
_symmetry_cell_setting	triclinic
loop_
_symmetry_equiv_pos_as_xyz
  x,y,z
_cell_length_a	23.532407
_cell_length_b	23.532407
_cell_length_c	22.010155
_cell_angle_alpha	89.999577
_cell_angle_beta	90.003069
_cell_angle_gamma	97.151322
loop_
_atom_site_label
_atom_site_type_symbol
_atom_site_fract_x
_atom_site_fract_y
_atom_site_fract_z
O1	O	0.755264	-0.069127	0.050455
O2	O	1.005264	0.180873	0.300455
O3	O	1.255264	0.430873	0.550455
O4	O	1.505264	0.680873	0.800455
O5	O	0.589400	-0.079130	0.050474
O6	O	0.839400	0.170870	0.300474
O7	O	1.089400	0.420870	0.550474
O8	O	1.339400	0.670870	0.800474
O9	O	0.677334	0.008803	0.050453
O10	O	0.927334	0.258803	0.300453
O11	O	1.177334	0.508803	0.550453
O12	O	1.427334	0.758803	0.800453
O13	O	0.667330	-0.157060	0.050476
O14	O	0.917330	0.092940	0.300476
O15	O	1.167330	0.342940	0.550476
O16	O	1.417330	0.592940	0.800476
O17	O	0.677318	0.008790	-0.050597
O18	O	0.927318	0.258790	0.199403
O19	O	1.177318	0.508790	0.449403
O20	O	1.427318	0.758790	0.699403
O21	O	0.589384	-0.079143	-0.050576
O22	O	0.839384	0.170857	0.199424
O23	O	1.089384	0.420857	0.449424
O24	O	1.339384	0.670857	0.699424
O25	O	0.755248	-0.069140	-0.050595
O26	O	1.005248	0.180860	0.199405
O27	O	1.255248	0.430860	0.449405
O28	O	1.505248	0.680860	0.699405
Cu29	Cu	0.672315	-0.074143	-0.059812
Cu30	Cu	0.922315	0.175857	0.190188
Cu31	Cu	1.172315	0.425857	0.440188
Cu32	Cu	1.422315	0.675857	0.690188
Cu33	Cu	0.672333	-0.074127	0.059691
Cu34	Cu	0.922333	0.175873	0.309691
Cu35	Cu	1.172333	0.425873	0.559691
Cu36	Cu	1.422333	0.675873	0.809691
O37	O	0.667314	-0.157073	-0.050574
O38	O	0.917314	0.092927	0.199426
O39	O	1.167314	0.342927	0.449426
O40	O	1.417314	0.592927	0.699426
C41	C	0.568176	-0.078882	-0.000049
C42	C	0.818176	0.171118	0.249951
C43	C	1.068176	0.421118	0.499951
C44	C	1.318176	0.671118	0.749951
C45	C	0.504959	-0.078116	-0.000042
C46	C	0.754959	0.171884	0.249958
C47	C	1.004959	0.421884	0.499958
C48	C	1.254959	0.671884	0.749958
C49	C	0.105856	-0.125350	-0.000063
C50	C	0.355856	0.124650	0.249937
C51	C	0.605856	0.374650	0.499937
C52	C	0.855856	0.624650	0.749937
C53	C	0.046456	-0.124638	-0.000067
C54	C	0.296456	0.125362	0.249933
C55	C	0.546456	0.375362	0.499933
C56	C	0.796456	0.625362	0.749933
O57	O	0.009711	-0.168424	-0.000083
O58	O	0.259711	0.081576	0.249917
O59	O	0.509711	0.331576	0.499917
O60	O	0.759711	0.581576	0.749917
N61	N	0.023830	-0.072362	-0.000073
N62	N	0.273830	0.177638	0.249927
N63	N	0.523830	0.427638	0.499927
N64	N	0.773830	0.677638	0.749927
C65	C	0.060607	-0.020794	-0.000082
C66	C	0.310607	0.229206	0.249918
C67	C	0.560607	0.479206	0.499918
C68	C	0.810607	0.729206	0.749918
O69	O	0.035908	0.023737	-0.000088
O70	O	0.285908	0.273737	0.249912
O71	O	0.535908	0.523737	0.499912
O72	O	0.785908	0.773737	0.749912
C73	C	0.120006	-0.021506	-0.000082
C74	C	0.370006	0.228494	0.249918
C75	C	0.620006	0.478494	0.499918
C76	C	0.870006	0.728494	0.749918
C77	C	0.142629	-0.073785	-0.000070
C78	C	0.392629	0.176215	0.249930
C79	C	0.642629	0.426215	0.499930
C80	C	0.892629	0.676215	0.749930
C81	C	0.128479	-0.177625	-0.000051
C82	C	0.378479	0.072375	0.249949
C83	C	0.628479	0.322375	0.499949
C84	C	0.878479	0.572375	0.749949
C85	C	0.187876	-0.178336	-0.000046
C86	C	0.437876	0.071664	0.249954
C87	C	0.687876	0.321664	0.499954
C88	C	0.937876	0.571664	0.749954
C89	C	0.224649	-0.126772	-0.000053
C90	C	0.474649	0.123228	0.249947
C91	C	0.724649	0.373228	0.499947
C92	C	0.974649	0.623228	0.749947
C93	C	0.202025	-0.074497	-0.000065
C94	C	0.452025	0.175503	0.249935
C95	C	0.702025	0.425503	0.499935
C96	C	0.952025	0.675503	0.749935
C97	C	0.156783	0.030062	-0.000096
C98	C	0.406783	0.280062	0.249904
C99	C	0.656783	0.530062	0.499904
C100	C	0.906783	0.780062	0.749904
C101	C	0.216185	0.029345	-0.000097
C102	C	0.466185	0.279345	0.249903
C103	C	0.716185	0.529345	0.499903
C104	C	0.966185	0.779345	0.749903
C105	C	0.238808	-0.022934	-0.000084
C106	C	0.488808	0.227066	0.249916
C107	C	0.738808	0.477066	0.499916
C108	C	0.988808	0.727066	0.749916
C109	C	0.298194	-0.023643	-0.000067
C110	C	0.548194	0.226357	0.249933
C111	C	0.798194	0.476357	0.499933
C112	C	1.048194	0.726357	0.749933
N113	N	0.320820	-0.075920	-0.000061
N114	N	0.570820	0.174080	0.249939
N115	N	0.820820	0.424080	0.499939
N116	N	1.070820	0.674080	0.749939
C117	C	0.284048	-0.127484	-0.000054
C118	C	0.534048	0.122516	0.249946
C119	C	0.784048	0.372516	0.499946
C120	C	1.034048	0.622516	0.749946
C121	C	-0.064135	-0.019302	-0.000082
C122	C	0.185865	0.230698	0.249918
C123	C	0.435865	0.480698	0.499918
C124	C	0.685865	0.730698	0.749918
C125	C	-0.123533	-0.018589	-0.000077
C126	C	0.126467	0.231411	0.249923
C127	C	0.376467	0.481411	0.499923
C128	C	0.626467	0.731411	0.749923
C129	C	-0.137680	-0.122434	-0.000063
C130	C	0.112320	0.127566	0.249937
C131	C	0.362320	0.377566	0.499937
C132	C	0.612320	0.627566	0.749937
C133	C	-0.078281	-0.123146	-0.000064
C134	C	0.171719	0.126854	0.249936
C135	C	0.421719	0.376854	0.499936
C136	C	0.671719	0.626854	0.749936
C137	C	-0.041509	-0.071578	-0.000076
C138	C	0.208491	0.178422	0.249924
C139	C	0.458491	0.428422	0.499924
C140	C	0.708491	0.678422	0.749924
C141	C	0.408784	-0.128974	-0.000043
C142	C	0.658784	0.121026	0.249957
C143	C	0.908784	0.371026	0.499957
C144	C	1.158784	0.621026	0.749957
C145	C	0.468186	-0.129680	-0.000035
C146	C	0.718186	0.120320	0.249965
C147	C	0.968186	0.370320	0.499965
C148	C	1.218186	0.620320	0.749965
C149	C	0.482329	-0.025836	-0.000052
C150	C	0.732329	0.224164	0.249948
C151	C	0.982329	0.474164	0.499948
C152	C	1.232329	0.724164	0.749948
C153	C	0.422932	-0.025129	-0.000057
C154	C	0.672932	0.224871	0.249943
C155	C	0.922932	0.474871	0.499943
C156	C	1.172932	0.724871	0.749943
C157	C	0.386160	-0.076702	-0.000054
C158	C	0.636160	0.173298	0.249946
C159	C	0.886160	0.423298	0.499946
C160	C	1.136160	0.673298	0.749946
O161	O	0.334974	0.020119	-0.000054
O162	O	0.584974	0.270119	0.249946
O163	O	0.834974	0.520119	0.499946
O164	O	1.084974	0.770119	0.749946
O165	O	0.308755	-0.172007	-0.000055
O166	O	0.558755	0.077993	0.249945
O167	O	0.808755	0.327993	0.499945
O168	O	1.058755	0.577993	0.749945
C169	C	0.677071	0.030013	-0.000074
C170	C	0.927071	0.280013	0.249926
C171	C	1.177071	0.530013	0.499926
C172	C	1.427071	0.780013	0.749926
C173	C	0.676305	0.093230	-0.000078
C174	C	0.926305	0.343230	0.249922
C175	C	1.176305	0.593230	0.499922
C176	C	1.426305	0.843230	0.749922
C177	C	0.776472	-0.069388	-0.000071
C178	C	1.026472	0.180612	0.249929
C179	C	1.276472	0.430612	0.499929
C180	C	1.526472	0.680612	0.749929
C181	C	0.839689	-0.070154	-0.000073
C182	C	1.089689	0.179846	0.249927
C183	C	1.339689	0.429846	0.499927
C184	C	1.589689	0.679846	0.749927
C185	C	0.667577	-0.178283	-0.000046
C186	C	0.917577	0.071717	0.249954
C187	C	1.167577	0.321717	0.499954
C188	C	1.417577	0.571717	0.749954
C189	C	0.668343	-0.241500	-0.000037
C190	C	0.918343	0.008500	0.249963
C191	C	1.168343	0.258500	0.499963
C192	C	1.418343	0.508500	0.749963
N193	N	0.672305	-0.074153	-0.143865
N194	N	0.922305	0.175847	0.106135
N195	N	1.172305	0.425847	0.356135
N196	N	1.422305	0.675847	0.606135
C197	C	0.723539	0.492333	-0.000050
C198	C	0.973539	0.742333	0.249950
C199	C	1.223539	0.992333	0.499950
C200	C	1.473539	1.242333	0.749950
C201	C	0.722827	0.551733	-0.000046
C202	C	0.972827	0.801733	0.249954
C203	C	1.222827	1.051733	0.499954
C204	C	1.472827	1.301733	0.749954
O205	O	0.766613	0.588478	-0.000028
O206	O	1.016613	0.838478	0.249972
O207	O	1.266613	1.088478	0.499972
O208	O	1.516613	1.338478	0.749972
N209	N	0.670551	0.574359	-0.000040
N210	N	0.920551	0.824359	0.249960
N211	N	1.170551	1.074359	0.499960
N212	N	1.420551	1.324359	0.749960
C213	C	0.618983	0.537582	-0.000033
C214	C	0.868983	0.787582	0.249967
C215	C	1.118983	1.037582	0.499967
C216	C	1.368983	1.287582	0.749967
O217	O	0.574452	0.562281	-0.000027
O218	O	0.824452	0.812281	0.249973
O219	O	1.074452	1.062281	0.499973
O220	O	1.324452	1.312281	0.749973
C221	C	0.619695	0.478182	-0.000033
C222	C	0.869695	0.728182	0.249967
C223	C	1.119695	0.978182	0.499967
C224	C	1.369695	1.228182	0.749967
C225	C	0.671974	0.455560	-0.000045
C226	C	0.921974	0.705560	0.249955
C227	C	1.171974	0.955560	0.499955
C228	C	1.421974	1.205560	0.749955
C229	C	0.775814	0.469710	-0.000061
C230	C	1.025814	0.719710	0.249939
C231	C	1.275814	0.969710	0.499939
C232	C	1.525814	1.219710	0.749939
C233	C	0.776525	0.410313	-0.000067
C234	C	1.026525	0.660313	0.249933
C235	C	1.276525	0.910313	0.499933
C236	C	1.526525	1.160313	0.749933
C237	C	0.724961	0.373540	-0.000062
C238	C	0.974961	0.623540	0.249938
C239	C	1.224961	0.873540	0.499938
C240	C	1.474961	1.123540	0.749938
C241	C	0.672685	0.396164	-0.000051
C242	C	0.922685	0.646164	0.249949
C243	C	1.172685	0.896164	0.499949
C244	C	1.422685	1.146164	0.749949
C245	C	0.568127	0.441406	-0.000022
C246	C	0.818127	0.691406	0.249978
C247	C	1.068127	0.941406	0.499978
C248	C	1.318127	1.191406	0.749978
C249	C	0.568844	0.382004	-0.000022
C250	C	0.818844	0.632004	0.249978
C251	C	1.068844	0.882004	0.499978
C252	C	1.318844	1.132004	0.749978
C253	C	0.621123	0.359381	-0.000034
C254	C	0.871123	0.609381	0.249966
C255	C	1.121123	0.859381	0.499966
C256	C	1.371123	1.109381	0.749966
C257	C	0.621832	0.299995	-0.000052
C258	C	0.871832	0.549995	0.249948
C259	C	1.121832	0.799995	0.499948
C260	C	1.371832	1.049995	0.749948
N261	N	0.674109	0.277368	-0.000057
N262	N	0.924109	0.527368	0.249943
N263	N	1.174109	0.777368	0.499943
N264	N	1.424109	1.027368	0.749943
C265	C	0.725673	0.314141	-0.000062
C266	C	0.975673	0.564141	0.249938
C267	C	1.225673	0.814141	0.499938
C268	C	1.475673	1.064141	0.749938
C269	C	0.617491	0.662324	-0.000031
C270	C	0.867491	0.912324	0.249969
C271	C	1.117491	1.162324	0.499969
C272	C	1.367491	1.412324	0.749969
C273	C	0.616778	0.721722	-0.000035
C274	C	0.866778	0.971722	0.249965
C275	C	1.116778	1.221722	0.499965
C276	C	1.366778	1.471722	0.749965
C277	C	0.720623	0.735869	-0.000047
C278	C	0.970623	0.985869	0.249953
C279	C	1.220623	1.235869	0.499953
C280	C	1.470623	1.485869	0.749953
C281	C	0.721335	0.676470	-0.000047
C282	C	0.971335	0.926470	0.249953
C283	C	1.221335	1.176470	0.499953
C284	C	1.471335	1.426470	0.749953
C285	C	0.669767	0.639698	-0.000037
C286	C	0.919767	0.889698	0.249963
C287	C	1.169767	1.139698	0.499963
C288	C	1.419767	1.389698	0.749963
C289	C	0.727163	0.189405	-0.000075
C290	C	0.977163	0.439405	0.249925
C291	C	1.227163	0.689405	0.499925
C292	C	1.477163	0.939405	0.749925
C293	C	0.727869	0.130003	-0.000083
C294	C	0.977869	0.380003	0.249917
C295	C	1.227869	0.630003	0.499917
C296	C	1.477869	0.880003	0.749917
C297	C	0.624025	0.115860	-0.000069
C298	C	0.874025	0.365860	0.249931
C299	C	1.124025	0.615860	0.499931
C300	C	1.374025	0.865860	0.749931
C301	C	0.623318	0.175257	-0.000064
C302	C	0.873318	0.425257	0.249936
C303	C	1.123318	0.675257	0.499936
C304	C	1.373318	0.925257	0.749936
C305	C	0.674891	0.212029	-0.000065
C306	C	0.924891	0.462029	0.249935
C307	C	1.174891	0.712029	0.499935
C308	C	1.424891	0.962029	0.749935
O309	O	0.578070	0.263215	-0.000067
O310	O	0.828070	0.513215	0.249933
O311	O	1.078070	0.763215	0.499933
O312	O	1.328070	1.013215	0.749933
O313	O	0.770196	0.289433	-0.000060
O314	O	1.020196	0.539433	0.249940
O315	O	1.270196	0.789433	0.499940
O316	O	1.520196	1.039433	0.749940
C317	C	0.711273	-0.035196	-0.563653
C318	C	0.961273	0.214804	-0.313653
C319	C	1.211273	0.464804	-0.063653
C320	C	1.461273	0.714804	0.186347
C321	C	0.711275	-0.035192	-0.627261
C322	C	0.961275	0.214808	-0.377261
C323	C	1.211275	0.464808	-0.127261
C324	C	1.461275	0.714808	0.122739
O325	O	0.744384	-0.002076	-0.660160
O326	O	0.994384	0.247924	-0.410160
O327	O	1.244384	0.497924	-0.160160
O328	O	1.494384	0.747924	0.089840
N329	N	0.672333	-0.074115	-0.659072
N330	N	0.922333	0.175885	-0.409072
N331	N	1.172333	0.425885	-0.159072
N332	N	1.422333	0.675885	0.090928
C333	C	0.633382	-0.113041	-0.627272
C334	C	0.883382	0.136959	-0.377272
C335	C	1.133382	0.386959	-0.127272
C336	C	1.383382	0.636959	0.122728
O337	O	0.600259	-0.146148	-0.660170
O338	O	0.850259	0.103852	-0.410170
O339	O	1.100259	0.353852	-0.160170
O340	O	1.350259	0.603852	0.089830
C341	C	0.633377	-0.113042	-0.563665
C342	C	0.883377	0.136958	-0.313665
C343	C	1.133377	0.386958	-0.063665
C344	C	1.383377	0.636958	0.186335
C345	C	0.672326	-0.074120	-0.531858
C346	C	0.922326	0.175880	-0.281858
C347	C	1.172326	0.425880	-0.031858
C348	C	1.422326	0.675880	0.218142
C349	C	0.750217	0.003723	-0.531846
C350	C	1.000217	0.253723	-0.281846
C351	C	1.250217	0.503723	-0.031846
C352	C	1.500217	0.753723	0.218154
C353	C	0.750215	0.003719	-0.468243
C354	C	1.000215	0.253719	-0.218243
C355	C	1.250215	0.503719	0.031757
C356	C	1.500215	0.753719	0.281757
C357	C	0.711268	-0.035205	-0.436447
C358	C	0.961268	0.214795	-0.186447
C359	C	1.211268	0.464795	0.063553
C360	C	1.461268	0.714795	0.313553
C361	C	0.672324	-0.074125	-0.468255
C362	C	0.922324	0.175875	-0.218255
C363	C	1.172324	0.425875	0.031745
C364	C	1.422324	0.675875	0.281745
C365	C	0.594424	-0.151965	-0.531866
C366	C	0.844424	0.098035	-0.281866
C367	C	1.094424	0.348035	-0.031866
C368	C	1.344424	0.598035	0.218134
C369	C	0.594422	-0.151962	-0.468256
C370	C	0.844422	0.098038	-0.218256
C371	C	1.094422	0.348038	0.031744
C372	C	1.344422	0.598038	0.281744
C373	C	0.633370	-0.113040	-0.436448
C374	C	0.883370	0.136960	-0.186448
C375	C	1.133370	0.386960	0.063552
C376	C	1.383370	0.636960	0.313552
C377	C	0.633374	-0.113054	-0.372856
C378	C	0.883374	0.136946	-0.122856
C379	C	1.133374	0.386946	0.127144
C380	C	1.383374	0.636946	0.377144
N381	N	0.672317	-0.074130	-0.341045
N382	N	0.922317	0.175870	-0.091045
N383	N	1.172317	0.425870	0.158955
N384	N	1.422317	0.675870	0.408955
C385	C	0.711263	-0.035206	-0.372841
C386	C	0.961263	0.214794	-0.122841
C387	C	1.211263	0.464794	0.127159
C388	C	1.461263	0.714794	0.377159
C389	C	0.633395	-0.113036	-0.760850
C390	C	0.883395	0.136964	-0.510850
C391	C	1.133395	0.386964	-0.260850
C392	C	1.383395	0.636964	-0.010850
C393	C	0.633402	-0.113039	-0.824455
C394	C	0.883402	0.136961	-0.574455
C395	C	1.133402	0.386961	-0.324455
C396	C	1.383402	0.636961	-0.074455
C397	C	0.711294	-0.035188	-0.824440
C398	C	0.961294	0.214812	-0.574440
C399	C	1.211294	0.464812	-0.324440
C400	C	1.461294	0.714812	-0.074440
C401	C	0.711290	-0.035189	-0.760833
C402	C	0.961290	0.214811	-0.510833
C403	C	1.211290	0.464811	-0.260833
C404	C	1.461290	0.714811	-0.010833
C405	C	0.672337	-0.074113	-0.729039
C406	C	0.922337	0.175887	-0.479039
C407	C	1.172337	0.425887	-0.229039
C408	C	1.422337	0.675887	0.020961
C409	C	0.711256	-0.035220	-0.239269
C410	C	0.961256	0.214780	0.010731
C411	C	1.211256	0.464780	0.260731
C412	C	1.461256	0.714780	0.510731
C413	C	0.711252	-0.035229	-0.175660
C414	C	0.961252	0.214771	0.074340
C415	C	1.211252	0.464771	0.324340
C416	C	1.461252	0.714771	0.574340
C417	C	0.633358	-0.113077	-0.175681
C418	C	0.883358	0.136923	0.074319
C419	C	1.133358	0.386923	0.324319
C420	C	1.383358	0.636923	0.574319
C421	C	0.633364	-0.113070	-0.239284
C422	C	0.883364	0.136930	0.010716
C423	C	1.133364	0.386930	0.260716
C424	C	1.383364	0.636930	0.510716
C425	C	0.672315	-0.074136	-0.271077
C426	C	0.922315	0.175864	-0.021077
C427	C	1.172315	0.425864	0.228923
C428	C	1.422315	0.675864	0.478923
O429	O	0.600282	-0.146151	-0.339916
O430	O	0.850282	0.103849	-0.089916
O431	O	1.100282	0.353849	0.160084
O432	O	1.350282	0.603849	0.410084
O433	O	0.744376	-0.002100	-0.339935
O434	O	0.994376	0.247900	-0.089935
O435	O	1.244376	0.497900	0.160065
O436	O	1.494376	0.747900	0.410065
N437	N	0.672347	-0.074112	0.143744
N438	N	0.922347	0.175888	0.393744
N439	N	1.172347	0.425888	0.643744
N440	N	1.422347	0.675888	0.893744
H441	H	0.246123	0.071339	-0.000107
H442	H	0.496123	0.321339	0.249893
H443	H	0.746123	0.571339	0.499893
H444	H	0.996123	0.821339	0.749893
F445	F	0.552969	-0.193390	-0.565707
F446	F	0.802969	0.056610	-0.315707
F447	F	1.052969	0.306610	-0.065707
F448	F	1.302969	0.556610	0.184293
F449	F	0.791673	0.045156	-0.565676
F450	F	1.041673	0.295156	-0.315676
F451	F	1.291673	0.545156	-0.065676
F452	F	1.541673	0.795156	0.184324
H453	H	0.580748	0.193677	-0.000071
H454	H	0.830748	0.443677	0.249929
H455	H	1.080748	0.693677	0.499929
H456	H	1.330748	0.943677	0.749929
H457	H	-0.034198	0.022693	-0.000086
H458	H	0.215802	0.272693	0.249914
H459	H	0.465802	0.522693	0.499914
H460	H	0.715802	0.772693	0.749914
H461	H	-0.167632	-0.164421	-0.000060
H462	H	0.082368	0.085579	0.249940
H463	H	0.332368	0.335579	0.499940
H464	H	0.582368	0.585579	0.749940
H465	H	0.404512	0.017441	-0.000058
H466	H	0.654512	0.267441	0.249942
H467	H	0.904512	0.517441	0.499942
H468	H	1.154512	0.767441	0.749942
F469	F	-0.147603	0.037054	-0.000077
F470	F	0.102397	0.287054	0.249923
F471	F	0.352397	0.537054	0.499923
F472	F	0.602397	0.787054	0.749923
F473	F	0.782053	0.228531	-0.000076
F474	F	1.032053	0.478531	0.249924
F475	F	1.282053	0.728531	0.499924
F476	F	1.532053	0.978531	0.749924
F477	F	0.513956	0.342871	-0.000010
F478	F	0.763956	0.592871	0.249990
F479	F	1.013956	0.842871	0.499990
F480	F	1.263956	1.092871	0.749990
F481	F	0.832169	0.386245	-0.000066
F482	F	1.082169	0.636245	0.249934
F483	F	1.332169	0.886245	0.499934
F484	F	1.582169	1.136245	0.749934
F485	F	0.132720	0.085706	-0.000100
F486	F	0.382720	0.335706	0.249900
F487	F	0.632720	0.585706	0.499900
F488	F	0.882720	0.835706	0.749900
F489	F	0.521475	0.029040	-0.000061
F490	F	0.771475	0.279040	0.249939
F491	F	1.021475	0.529040	0.499939
F492	F	1.271475	0.779040	0.749939
H493	H	0.206289	-0.220908	-0.000036
H494	H	0.456289	0.029092	0.249964
H495	H	0.706289	0.279092	0.499964
H496	H	0.956289	0.529092	0.749964
H497	H	0.762610	0.765821	-0.000048
H498	H	1.012610	1.015821	0.249952
H499	H	1.262610	1.265821	0.499952
H500	H	1.512610	1.515821	0.749952
H501	H	0.770443	0.111587	-0.000094
H502	H	1.020443	0.361587	0.249906
H503	H	1.270443	0.611587	0.499906
H504	H	1.520443	0.861587	0.749906
F505	F	0.591916	-0.154502	-0.273135
F506	F	0.841916	0.095498	-0.023135
F507	F	1.091916	0.345498	0.226865
F508	F	1.341916	0.595498	0.476865
F509	F	0.830701	0.508838	-0.000066
F510	F	1.080701	0.758838	0.249934
F511	F	1.330701	1.008838	0.499934
F512	F	1.580701	1.258838	0.749934
H513	H	0.763906	0.658056	-0.000056
H514	H	1.013906	0.908056	0.249944
H515	H	1.263906	1.158056	0.499944
H516	H	1.513906	1.408056	0.749944
H517	H	0.525555	0.459814	-0.000009
H518	H	0.775555	0.709814	0.249991
H519	H	1.025555	0.959814	0.499991
H520	H	1.275555	1.209814	0.749991
F521	F	0.752713	0.006218	-0.273096
F522	F	1.002713	0.256218	-0.023096
F523	F	1.252713	0.506218	0.226904
F524	F	1.502713	0.756218	0.476904
F525	F	0.561135	0.745792	-0.000034
F526	F	0.811135	0.995792	0.249966
F527	F	1.061135	1.245792	0.499966
F528	F	1.311135	1.495792	0.749966
H529	H	0.742971	-0.003534	-0.149765
H530	H	0.992971	0.246466	0.100235
H531	H	1.242971	0.496466	0.350235
H532	H	1.492971	0.746466	0.600235
F533	F	0.562602	0.623192	-0.000026
F534	F	0.812602	0.873192	0.249974
F535	F	1.062602	1.123192	0.499974
F536	F	1.312602	1.373192	0.749974
F537	F	0.791667	0.045147	-0.434397
F538	F	1.041667	0.295147	-0.184397
F539	F	1.291667	0.545147	0.065603
F540	F	1.541667	0.795147	0.315603
H541	H	0.582043	0.085909	-0.000067
H542	H	0.832043	0.335909	0.249933
H543	H	1.082043	0.585909	0.499933
H544	H	1.332043	0.835909	0.749933
F545	F	0.752743	0.006237	-0.726987
F546	F	1.002743	0.256237	-0.476987
F547	F	1.252743	0.506237	-0.226987
F548	F	1.502743	0.756237	0.023013
F549	F	0.752744	0.006239	-0.858291
F550	F	1.002744	0.256239	-0.608291
F551	F	1.252744	0.506239	-0.358291
F552	F	1.502744	0.756239	-0.108291
H553	H	0.601692	-0.144738	-0.850348
H554	H	0.851692	0.105262	-0.600348
H555	H	1.101692	0.355262	-0.350348
H556	H	1.351692	0.605262	-0.100348
H557	H	0.601676	-0.144737	-0.734966
H558	H	0.851676	0.105263	-0.484966
H559	H	1.101676	0.355263	-0.234966
H560	H	1.351676	0.605263	0.015034
F561	F	0.591911	-0.154503	-0.141832
F562	F	0.841911	0.095497	0.108168
F563	F	1.091911	0.345497	0.358168
F564	F	1.341911	0.595497	0.608168
F565	F	0.492259	-0.185326	-0.000020
F566	F	0.742259	0.064674	0.249980
F567	F	0.992259	0.314674	0.499980
F568	F	1.242259	0.564674	0.749980
F569	F	0.369658	-0.183864	-0.000040
F570	F	0.619658	0.066136	0.249960
F571	F	0.869658	0.316136	0.499960
F572	F	1.119658	0.566136	0.749960
H573	H	0.562700	-0.183658	-0.442372
H574	H	0.812700	0.066342	-0.192372
H575	H	1.062700	0.316342	0.057628
H576	H	1.312700	0.566342	0.307628
H577	H	-0.059867	-0.165717	-0.000057
H578	H	0.190133	0.084283	0.249943
H579	H	0.440133	0.334283	0.499943
H580	H	0.690133	0.584283	0.749943
F581	F	0.089351	-0.232512	-0.000044
F582	F	0.339351	0.017488	0.249956
F583	F	0.589351	0.267488	0.499956
F584	F	0.839351	0.517488	0.749956
