data_functionalizedCrystal
_audit_creation_method	'MofGen! by Chris Wilmer'
_symmetry_space_group_name_H-M	'P1'
_symmetry_Int_Tables_number	1
_symmetry_cell_setting	triclinic
loop_
_symmetry_equiv_pos_as_xyz
  x,y,z
_cell_length_a	11.169417
_cell_length_b	19.805405
_cell_length_c	11.169406
_cell_angle_alpha	89.944216
_cell_angle_beta	89.969044
_cell_angle_gamma	90.027289
loop_
_atom_site_label
_atom_site_type_symbol
_atom_site_fract_x
_atom_site_fract_y
_atom_site_fract_z
Zn1	Zn	1.834960	-0.269286	-0.678480
Zn2	Zn	1.834754	-0.382527	-0.477771
Zn3	Zn	1.634207	-0.269359	-0.477815
Zn4	Zn	1.634197	-0.382440	-0.678416
O5	O	1.734530	-0.325903	-0.578120
O6	O	2.002883	-0.284314	-0.651865
O7	O	1.808069	-0.367582	-0.309827
O8	O	1.660928	-0.174633	-0.504479
O9	O	2.002731	-0.367511	-0.504404
O10	O	1.808420	-0.174579	-0.651907
O11	O	1.660728	-0.284437	-0.309859
O12	O	1.466256	-0.284354	-0.504416
O13	O	1.660911	-0.367363	-0.846374
O14	O	1.466249	-0.367434	-0.651797
O15	O	1.808411	-0.284230	-0.846422
O16	O	1.808060	-0.477232	-0.504341
O17	O	1.660711	-0.477168	-0.651754
C18	C	1.422705	-0.325893	-0.578105
C19	C	1.289305	-0.325905	-0.578127
C20	C	1.734395	-0.501759	-0.578062
C21	C	1.734447	-0.576991	-0.578078
C22	C	1.811246	-0.612346	-0.501400
C23	C	1.811296	-0.683034	-0.501427
C24	C	1.734542	-0.718367	-0.578126
C25	C	1.657739	-0.683007	-0.654812
C26	C	1.657695	-0.612320	-0.654790
C27	C	1.657917	-0.968080	-0.654901
C28	C	1.657964	-1.038772	-0.654913
C29	C	1.811518	-1.038795	-0.501537
C30	C	1.811474	-0.968107	-0.501516
C31	C	1.734676	-0.932754	-0.578205
C32	C	1.734624	-0.856106	-0.578177
C33	C	1.734587	-0.795014	-0.578148
C34	C	2.047572	-0.325914	-0.578137
C35	C	2.180972	-0.325918	-0.578144
C36	C	1.734683	-0.325779	-0.891163
C37	C	1.734748	-0.325726	-1.024563
C38	C	1.734698	-0.149360	-0.578205
C39	C	1.734770	-0.074128	-0.578241
C40	C	1.734446	-0.325978	-0.266295
C41	C	1.734614	-0.325840	-0.132896
H42	H	1.873833	-0.711817	-0.438987
O43	O	1.886147	-0.933891	-0.426973
C44	C	1.953925	-0.980255	-0.359279
H45	H	1.958095	-1.030611	-0.408454
H46	H	1.910012	-0.987850	-0.268090
C47	C	2.076527	-0.890770	-0.281692
C48	C	2.081657	-0.952616	-0.342094
H49	H	2.155316	-0.873721	-0.271085
H50	H	2.030861	-0.859533	-0.327294
H51	H	2.039927	-0.897108	-0.205707
H52	H	2.118242	-0.946276	-0.418082
H53	H	2.127332	-0.983852	-0.296503
O54	O	1.583368	-1.072991	-0.729544
C55	C	1.515556	-1.026630	-0.797210
H56	H	1.564679	-0.976215	-0.801395
H57	H	1.424409	-1.019183	-0.753190
C58	C	1.437917	-1.116070	-0.919797
C59	C	1.498256	-1.054151	-0.924945
H60	H	1.427240	-1.133047	-0.998589
H61	H	1.483600	-1.147305	-0.874207
H62	H	1.361968	-1.109856	-0.883109
H63	H	1.574210	-1.060367	-0.961619
H64	H	1.452586	-1.022918	-0.970545
O65	O	1.583309	-0.717297	-0.729491
C66	C	1.609472	-0.699924	-0.849125
H67	H	1.705338	-0.680444	-0.855261
H68	H	1.545091	-0.658904	-0.880433
C69	C	1.477776	-0.786600	-0.921692
C70	C	1.595524	-0.762679	-0.929229
H71	H	1.469167	-0.825309	-0.971106
H72	H	1.460146	-0.798303	-0.841092
H73	H	1.424138	-0.752410	-0.947779
H74	H	1.649157	-0.796865	-0.903128
H75	H	1.613163	-0.750983	-1.009827
H76	H	1.595160	-0.583535	-0.717230
H77	H	1.874054	-1.067588	-0.439097
O78	O	1.885917	-0.578132	-0.426852
C79	C	1.953690	-0.624498	-0.359160
H80	H	1.957862	-0.674852	-0.408341
H81	H	1.909772	-0.632097	-0.267974
C82	C	2.076288	-0.535017	-0.281554
C83	C	2.081421	-0.596861	-0.341964
H84	H	2.155077	-0.517969	-0.270941
H85	H	2.030626	-0.503778	-0.327155
H86	H	2.039684	-0.541358	-0.205572
H87	H	2.118011	-0.590518	-0.417949
H88	H	2.127093	-0.628098	-0.296374
H89	H	1.595383	-0.939301	-0.717342
