data_functionalizedCrystal
_audit_creation_method	'MofGen! by Chris Wilmer'
_symmetry_space_group_name_H-M	'P1'
_symmetry_Int_Tables_number	1
_symmetry_cell_setting	triclinic
loop_
_symmetry_equiv_pos_as_xyz
  x,y,z
_cell_length_a	14.908571
_cell_length_b	16.959454
_cell_length_c	14.908308
_cell_angle_alpha	93.269679
_cell_angle_beta	90.175053
_cell_angle_gamma	86.716421
loop_
_atom_site_label
_atom_site_type_symbol
_atom_site_fract_x
_atom_site_fract_y
_atom_site_fract_z
Zn1	Zn	1.345297	-0.412496	-0.587603
Zn2	Zn	1.353878	-0.537521	-0.437249
Zn3	Zn	1.203612	-0.397314	-0.428600
Zn4	Zn	1.194906	-0.536582	-0.578901
O5	O	1.274423	-0.470978	-0.508088
O6	O	1.472261	-0.435828	-0.574920
O7	O	1.341180	-0.512961	-0.310277
O8	O	1.222460	-0.288721	-0.449714
O9	O	1.478566	-0.527683	-0.464456
O10	O	1.326555	-0.299875	-0.566532
O11	O	1.230780	-0.409952	-0.303922
O12	O	1.076631	-0.409042	-0.441276
O13	O	1.207621	-0.526082	-0.705880
O14	O	1.070235	-0.511361	-0.551701
O15	O	1.318113	-0.434917	-0.712273
O16	O	1.332737	-0.648003	-0.456018
O17	O	1.215941	-0.647313	-0.560089
C18	C	1.040808	-0.458452	-0.494606
C19	C	0.940865	-0.453114	-0.488860
C20	C	0.746458	-0.549777	-0.592894
C21	C	0.652552	-0.544763	-0.587498
C22	C	0.659146	-0.438070	-0.472677
C23	C	0.753052	-0.443084	-0.478073
C24	C	0.796704	-0.498940	-0.538183
C25	C	0.890612	-0.503956	-0.543574
C26	C	0.897204	-0.397260	-0.428758
C27	C	0.803298	-0.392247	-0.423362
C28	C	1.274349	-0.676340	-0.508068
C29	C	1.274398	-0.764200	-0.508095
C30	C	1.213691	-1.135352	-0.562276
C31	C	1.335401	-1.136020	-0.454006
C32	C	1.335370	-1.053472	-0.453996
C33	C	1.274498	-1.011860	-0.508126
C34	C	1.213657	-1.052796	-0.562266
C35	C	1.396203	-1.012529	-0.399850
C36	C	1.396174	-0.929976	-0.399837
C37	C	1.335306	-0.888363	-0.453972
C38	C	1.274463	-0.929304	-0.508115
C39	C	1.213591	-0.887692	-0.562245
C40	C	1.152752	-0.928632	-0.616394
C41	C	1.152788	-1.011183	-0.616402
C42	C	1.335269	-0.805812	-0.453965
C43	C	1.213557	-0.805136	-0.562235
C44	C	1.508951	-0.483554	-0.521623
C45	C	1.608893	-0.488913	-0.527391
C46	C	1.260938	-0.482089	-0.742614
C47	C	1.255192	-0.486823	-0.842555
C48	C	1.274521	-0.264817	-0.508129
C49	C	1.274563	-0.176963	-0.508146
C50	C	1.359446	-0.400771	-1.037013
C51	C	1.354049	-0.405217	-1.130917
C52	C	1.238998	-0.500156	-1.124267
C53	C	1.244395	-0.495710	-1.030364
C54	C	1.304622	-0.446017	-0.986740
C55	C	1.310022	-0.441576	-0.892835
C56	C	1.194967	-0.536510	-0.886187
C57	C	1.189570	-0.540956	-0.980090
C58	C	1.287908	-0.459857	-0.274478
C59	C	1.293828	-0.454909	-0.174547
H60	H	0.938125	-0.355866	-0.384206
H61	H	1.163990	-0.771261	-0.606318
C62	C	1.135587	-0.585687	-0.831501
C63	C	1.189575	-0.636512	-0.780506
C64	C	1.134909	-0.681819	-0.730111
H65	H	1.098934	-0.615985	-0.870832
H66	H	1.098543	-0.551641	-0.792560
H67	H	1.226603	-0.670555	-0.819442
H68	H	1.226226	-0.606235	-0.741157
H69	H	1.097865	-0.647773	-0.691171
H70	H	1.098259	-0.712113	-0.769449
H71	H	1.171531	-0.716304	-0.695499
H72	H	1.140534	-0.581413	-1.015621
C73	C	0.611906	-0.377349	-0.407399
C74	C	0.676005	-0.333884	-0.360651
C75	C	0.632521	-0.277934	-0.300519
H76	H	0.577510	-0.403626	-0.365984
H77	H	0.573332	-0.342591	-0.439743
H78	H	0.714564	-0.368638	-0.328310
H79	H	0.710405	-0.307591	-0.402044
H80	H	0.593947	-0.243175	-0.332862
H81	H	0.598126	-0.304217	-0.259109
H82	H	0.676005	-0.248431	-0.268799
H83	H	0.926152	-0.549438	-0.592516
H84	H	1.164160	-1.168689	-0.606365
H85	H	0.782000	-0.595261	-0.641833
H86	H	0.611645	-0.586159	-0.632051
H87	H	1.384955	-1.169904	-0.409930
H88	H	0.767743	-0.346769	-0.374425
C89	C	1.086763	-0.883310	-0.675133
C90	C	1.099771	-0.802255	-0.663541
C91	C	1.039009	-0.760478	-0.717643
H92	H	1.027083	-0.892925	-0.658500
H93	H	1.096414	-0.900331	-0.736338
H94	H	1.090113	-0.785240	-0.602350
H95	H	1.159438	-0.792617	-0.680180
H96	H	1.048659	-0.777499	-0.778848
H97	H	0.979333	-0.770099	-0.701006
H98	H	1.047832	-0.705479	-0.709792
C99	C	1.462161	-1.057842	-0.341081
C100	C	1.449148	-1.138897	-0.352658
C101	C	1.509864	-1.180664	-0.298499
H102	H	1.452487	-1.040824	-0.279890
H103	H	1.521856	-1.048220	-0.357693
H104	H	1.389467	-1.148514	-0.336040
H105	H	1.458829	-1.155938	-0.413837
H106	H	1.569559	-1.171042	-0.315111
H107	H	1.500184	-1.163640	-0.237312
H108	H	1.501048	-1.235664	-0.306353
H109	H	1.103256	-1.044524	-0.660485
H110	H	1.445713	-0.896647	-0.355747
H111	H	1.384800	-0.772482	-0.409873
C112	C	1.173458	-0.553993	-1.171576
C113	C	1.085816	-0.530918	-1.143614
C114	C	1.025413	-0.580487	-1.187181
H115	H	1.187355	-0.607102	-1.156974
H116	H	1.178029	-0.550150	-1.234707
H117	H	1.081248	-0.534769	-1.080497
H118	H	1.071891	-0.477817	-1.158217
H119	H	1.029984	-0.576644	-1.250313
H120	H	1.039319	-0.633593	-1.172576
H121	H	0.965941	-0.564833	-1.168221
C122	C	1.375431	-0.387546	-0.845633
C123	C	1.422269	-0.348857	-0.909763
C124	C	1.482522	-0.299068	-0.866317
H125	H	1.416784	-0.418059	-0.811258
H126	H	1.343171	-0.349491	-0.807044
H127	H	1.454528	-0.386907	-0.948338
H128	H	1.380940	-0.318329	-0.944142
H129	H	1.450262	-0.261012	-0.827728
H130	H	1.523869	-0.329587	-0.831943
H131	H	1.514303	-0.272805	-0.909822
H132	H	1.408490	-0.360313	-1.001495
C133	C	1.413531	-0.355958	-1.185381
C134	C	1.395311	-0.275625	-1.161404
C135	C	1.450098	-0.230220	-1.211548
H136	H	1.401751	-0.365616	-1.247572
H137	H	1.474841	-0.369985	-1.173454
H138	H	1.334016	-0.261602	-1.173337
H139	H	1.407096	-0.265942	-1.099221
H140	H	1.511408	-0.244248	-1.199621
H141	H	1.438313	-0.239885	-1.273736
H142	H	1.437749	-0.175710	-1.195280
