data_functionalizedCrystal
_audit_creation_method	'MofGen! by Chris Wilmer'
_symmetry_space_group_name_H-M	'P1'
_symmetry_Int_Tables_number	1
_symmetry_cell_setting	triclinic
loop_
_symmetry_equiv_pos_as_xyz
  x,y,z
_cell_length_a	10.540539
_cell_length_b	10.654550
_cell_length_c	9.130313
_cell_angle_alpha	89.996220
_cell_angle_beta	89.998343
_cell_angle_gamma	95.494803
loop_
_atom_site_label
_atom_site_type_symbol
_atom_site_fract_x
_atom_site_fract_y
_atom_site_fract_z
O1	O	-0.178295	1.667897	-0.121909
O2	O	-0.195282	1.302424	-0.121885
O3	O	-0.002079	1.493499	-0.121899
O4	O	-0.371498	1.476823	-0.121896
O5	O	-0.002084	1.493496	0.121700
O6	O	-0.195287	1.302422	0.121714
O7	O	-0.178300	1.667894	0.121689
Cu8	Cu	-0.186794	1.485158	0.143944
Cu9	Cu	-0.186788	1.485161	-0.144140
O10	O	-0.371503	1.476820	0.121703
C11	C	-0.194038	1.255625	-0.000083
C12	C	-0.190306	1.116180	-0.000074
C13	C	-0.304061	1.036734	-0.000094
C14	C	-0.300547	0.905712	-0.000119
C15	C	-0.069513	0.933595	-0.000110
C16	C	-0.073028	1.064614	-0.000074
C17	C	-0.437446	1.020636	-0.000106
C18	C	-0.433932	0.889614	-0.000131
C19	C	-0.418803	1.478072	-0.000096
C20	C	-0.559750	1.481813	-0.000096
C21	C	-0.743125	1.625185	-0.000669
C22	C	-0.596508	1.621392	-0.000108
C23	C	-0.621443	1.414641	0.139011
C24	C	-0.767986	1.419405	0.139116
C25	C	-0.768483	1.416568	-0.137901
C26	C	-0.621501	1.415282	-0.139728
C27	C	0.045221	1.492247	-0.000103
C28	C	0.186168	1.488505	-0.000113
C29	C	-0.179545	1.714694	-0.000116
C30	C	-0.183276	1.854139	-0.000135
N31	N	-0.186798	1.485165	0.346567
N32	N	-0.186774	1.485163	-0.346762
C33	C	-0.101277	1.569795	0.423213
C34	C	-0.101262	1.569791	0.576549
C35	C	-0.272300	1.400525	0.576581
C36	C	-0.272308	1.400523	0.423247
C37	C	-0.002533	1.667523	0.423195
C38	C	-0.002518	1.667520	0.576532
H39	H	-0.553877	1.674254	-0.099821
H40	H	-0.580540	1.464368	-0.242639
Br41	Br	0.089642	0.863603	-0.000106
Br42	Br	-0.581043	1.245721	-0.153833
Br43	Br	0.081359	1.172432	-0.000005
H44	H	-0.484188	0.847900	-0.102084
H45	H	-0.771682	1.680316	-0.100444
Br46	Br	0.160090	1.631730	0.353812
H47	H	-0.341919	1.331611	0.639031
H48	H	0.089688	1.636975	0.624081
H49	H	-0.773438	1.680147	0.098425
Br50	Br	-0.526883	1.710095	0.166376
Br51	Br	-0.821048	1.491850	-0.313644
Br52	Br	-0.524406	1.069564	0.169808
Br53	Br	-0.584257	1.243793	0.147655
H54	H	-0.024268	1.764039	0.618143
Br55	Br	-0.388352	1.285645	0.319224
H56	H	-0.479916	1.056307	-0.105277
H57	H	-0.815725	1.315744	-0.138817
H58	H	-0.474245	0.843956	0.105038
H59	H	-0.796175	1.469049	0.243093
Br60	Br	-0.848005	1.252101	0.149677
H61	H	-0.033451	1.758718	0.375631
Br62	Br	-0.550444	1.492415	0.311556
