data_functionalizedCrystal
_audit_creation_method	'MofGen! by Chris Wilmer'
_symmetry_space_group_name_H-M	'P1'
_symmetry_Int_Tables_number	1
_symmetry_cell_setting	triclinic
loop_
_symmetry_equiv_pos_as_xyz
  x,y,z
_cell_length_a	6.394989
_cell_length_b	10.723022
_cell_length_c	9.198806
_cell_angle_alpha	89.996352
_cell_angle_beta	89.999906
_cell_angle_gamma	85.482469
loop_
_atom_site_label
_atom_site_type_symbol
_atom_site_fract_x
_atom_site_fract_y
_atom_site_fract_z
O1	O	0.293006	1.660299	-0.120872
O2	O	0.321057	1.297444	-0.120876
O3	O	0.003041	1.484022	-0.120876
O4	O	0.611022	1.473721	-0.120873
O5	O	0.003040	1.484006	0.120909
O6	O	0.321057	1.297429	0.120909
O7	O	0.293005	1.660283	0.120913
Cu8	Cu	0.307031	1.478855	0.142988
Cu9	Cu	0.307032	1.478873	-0.142951
O10	O	0.611021	1.473706	0.120912
C11	C	0.319016	1.250915	0.000016
C12	C	0.312911	1.112296	0.000014
C13	C	0.484541	0.895939	0.000011
C14	C	0.490855	1.039209	0.000013
C15	C	0.688872	1.475750	0.000013
C16	C	0.925196	1.481974	0.000009
C17	C	0.295046	1.706812	0.000018
C18	C	0.301152	1.845431	0.000010
N19	N	0.307029	1.478851	0.344102
N20	N	0.307017	1.478886	-0.344065
C21	C	0.172914	1.557183	0.416299
C22	C	0.172907	1.557203	0.583711
H23	H	0.155887	1.068826	-0.000026
C24	C	0.095351	0.930286	0.000002
H25	H	-0.020525	0.880020	-0.000011
H26	H	0.089789	0.981589	0.084314
H27	H	0.089805	0.981586	-0.084328
C28	C	0.017800	1.647762	0.332382
H29	H	0.038162	1.635871	0.230870
H30	H	-0.121774	1.631809	0.357258
H31	H	0.041346	1.731499	0.357232
H32	H	0.058093	1.624271	0.645798
C33	C	0.702984	1.097928	0.000015
H34	H	0.813804	1.033488	0.000024
H35	H	0.713019	1.148263	-0.084297
H36	H	0.713016	1.148245	0.084345
C37	C	0.462150	1.388282	0.572087
H38	H	0.546298	1.339156	0.639117
H39	H	0.386393	1.335053	0.512716
H40	H	0.549501	1.434750	0.512707
C41	C	0.690336	0.811078	0.000015
H42	H	0.659094	0.725917	0.000025
H43	H	0.769443	0.827482	-0.084296
H44	H	0.769424	0.827473	0.084346
H45	H	0.421837	1.411797	0.406229
