data_functionalizedCrystal
_audit_creation_method	'MofGen! by Chris Wilmer'
_symmetry_space_group_name_H-M	'P1'
_symmetry_Int_Tables_number	1
_symmetry_cell_setting	triclinic
loop_
_symmetry_equiv_pos_as_xyz
  x,y,z
_cell_length_a	16.109301
_cell_length_b	16.109298
_cell_length_c	15.186229
_cell_angle_alpha	89.993420
_cell_angle_beta	89.994804
_cell_angle_gamma	83.460834
loop_
_atom_site_label
_atom_site_type_symbol
_atom_site_fract_x
_atom_site_fract_y
_atom_site_fract_z
O1	O	1.103134	0.106876	-0.073162
O2	O	1.603134	0.606876	0.426838
O3	O	0.861072	0.120175	-0.073175
O4	O	1.361072	0.620175	0.426825
O5	O	0.988754	-0.007506	-0.073174
O6	O	1.488754	0.492494	0.426826
O7	O	0.975452	0.234556	-0.073163
O8	O	1.475452	0.734556	0.426837
O9	O	0.988736	-0.007527	0.073283
O10	O	1.488736	0.492473	0.573283
O11	O	0.861054	0.120154	0.073282
O12	O	1.361054	0.620154	0.573282
O13	O	1.103116	0.106855	0.073295
O14	O	1.603116	0.606855	0.573295
Zn15	Zn	0.982083	0.113501	0.096542
Zn16	Zn	1.482083	0.613501	0.596542
Zn17	Zn	0.982106	0.113529	-0.096422
Zn18	Zn	1.482106	0.613529	0.403578
O19	O	0.975434	0.234536	0.073295
O20	O	1.475434	0.734536	0.573295
C21	C	0.830088	0.119626	0.000052
C22	C	1.330088	0.619626	0.500052
C23	C	0.737793	0.118011	0.000047
C24	C	1.237793	0.618011	0.500047
C25	C	0.988207	-0.038491	0.000051
C26	C	1.488207	0.461509	0.500051
C27	C	0.986593	-0.130787	0.000040
C28	C	1.486593	0.369213	0.500040
C29	C	0.981335	-0.429844	-0.079775
C30	C	1.481335	0.070156	0.420225
C31	C	0.982863	-0.343124	-0.079782
C32	C	1.482863	0.156876	0.420218
C33	C	0.982856	-0.343132	0.079894
C34	C	1.482856	0.156868	0.579894
C35	C	0.981334	-0.429851	0.079899
C36	C	1.481334	0.070149	0.579899
C37	C	0.980569	-0.473205	0.000062
C38	C	1.480569	0.026795	0.500062
C39	C	0.983619	-0.299766	0.000051
C40	C	1.483619	0.200234	0.500051
C41	C	0.985276	-0.205740	0.000044
C42	C	1.485276	0.294260	0.500044
C43	C	0.978914	-0.567236	0.000068
C44	C	1.478914	-0.067236	0.500068
C45	C	0.515520	0.190019	0.000060
C46	C	1.015520	0.690019	0.500060
C47	C	0.428799	0.188495	0.000066
C48	C	0.928799	0.688495	0.500066
C49	C	0.448675	0.037006	0.000055
C50	C	0.948675	0.537006	0.500055
C51	C	0.535394	0.038531	0.000056
C52	C	1.035394	0.538531	0.500056
C53	C	0.568814	0.115039	0.000054
C54	C	1.068814	0.615039	0.500054
C55	C	0.395375	0.111990	0.000059
C56	C	0.895375	0.611990	0.500059
C57	C	0.301349	0.110337	0.000065
C58	C	0.801349	0.610337	0.500065
C59	C	0.662846	0.116693	0.000049
C60	C	1.162846	0.616693	0.500049
C61	C	1.134100	0.107404	0.000066
C62	C	1.634100	0.607404	0.500066
C63	C	1.226395	0.109019	0.000066
C64	C	1.726395	0.609019	0.500066
C65	C	0.975981	0.265521	0.000068
C66	C	1.475981	0.765521	0.500068
C67	C	0.977595	0.357817	0.000072
C68	C	1.477595	0.857817	0.500072
N69	N	0.982073	0.113482	0.228235
N70	N	1.482073	0.613482	0.728235
N71	N	0.982122	0.113541	-0.228114
N72	N	1.482122	0.613541	0.271886
C73	C	0.931693	0.063079	0.546181
C74	C	1.431693	0.563079	1.046181
C75	C	0.931686	0.063067	0.453992
C76	C	1.431686	0.563067	0.953992
C77	C	1.032508	0.163946	0.453945
C78	C	1.532508	0.663946	0.953945
C79	C	1.032519	0.163953	0.546133
C80	C	1.532519	0.663953	1.046133
C81	C	0.982106	0.113521	0.592249
C82	C	1.482106	0.613521	1.092249
C83	C	0.982088	0.113502	0.407871
C84	C	1.482088	0.613502	0.907871
C85	C	0.982081	0.113489	0.307915
C86	C	1.482081	0.613489	0.807915
C87	C	0.982115	0.113533	0.692211
C88	C	1.482115	0.613533	1.192211
H89	H	0.983487	-0.307824	-0.144793
H90	H	1.483487	0.192176	0.355207
H91	H	0.983477	-0.307823	0.144895
H92	H	1.483477	0.192177	0.644895
H93	H	0.542727	0.252317	0.000066
H94	H	1.042727	0.752317	0.500066
C95	C	0.980488	-0.477551	0.167725
C96	C	1.480488	0.022449	0.667725
H97	H	0.981149	-0.439311	0.215272
H98	H	1.481149	0.060689	0.715272
H99	H	1.028348	-0.517737	0.171044
H100	H	1.528348	-0.017737	0.671044
H101	H	0.931434	-0.505022	0.171043
H102	H	1.431434	-0.005022	0.671043
C103	C	1.087973	0.219443	0.596815
C104	C	1.587973	0.719443	1.096815
H105	H	1.080764	0.212216	0.658323
H106	H	1.580764	0.712216	1.158323
H107	H	1.072510	0.276325	0.581700
H108	H	1.572510	0.776325	1.081700
H109	H	1.144862	0.204003	0.581698
H110	H	1.644862	0.704003	1.081698
C111	C	0.594025	-0.043948	0.000047
C112	C	1.094025	0.456052	0.500047
H113	H	0.650457	-0.032081	0.000057
H114	H	1.150457	0.467919	0.500057
H115	H	0.583904	-0.075314	-0.051027
H116	H	1.083904	0.424686	0.448973
H117	H	0.583893	-0.075327	0.051125
H118	H	1.083893	0.424673	0.551125
C119	C	0.876242	0.007607	0.596906
C120	C	1.376242	0.507607	1.096906
H121	H	0.846221	-0.022439	0.556263
H122	H	1.346221	0.477561	1.056263
H123	H	0.837976	0.041674	0.632867
H124	H	1.337976	0.541674	1.132867
H125	H	0.910326	-0.030650	0.632871
H126	H	1.410326	0.469350	1.132871
C127	C	0.370179	0.270972	0.000067
C128	C	0.870179	0.770972	0.500067
H129	H	0.402506	0.316752	0.000059
H130	H	0.902506	0.816752	0.500059
H131	H	0.335933	0.273522	0.051139
H132	H	0.835933	0.773522	0.551139
H133	H	0.335942	0.273531	-0.051013
H134	H	0.835942	0.773531	0.448987
H135	H	0.890635	0.021992	0.416488
H136	H	1.390635	0.521992	0.916488
C137	C	0.411910	-0.047147	0.000045
C138	C	0.911910	0.452853	0.500045
H139	H	0.352631	-0.037318	0.000036
H140	H	0.852631	0.462682	0.500036
H141	H	0.430200	-0.078031	0.051114
H142	H	0.930200	0.421969	0.551114
H143	H	0.430211	-0.078006	-0.051038
H144	H	0.930211	0.421994	0.448962
C145	C	0.980519	-0.477533	-0.167592
C146	C	1.480519	0.022467	0.332408
H147	H	0.981207	-0.439288	-0.215141
H148	H	1.481207	0.060712	0.284859
H149	H	0.931477	-0.505014	-0.170923
H150	H	1.431477	-0.005014	0.329077
H151	H	1.028392	-0.517712	-0.170897
H152	H	1.528392	-0.017712	0.329103
H153	H	1.073551	0.205007	0.416387
H154	H	1.573551	0.705007	0.916387
