data_functionalizedCrystal
_audit_creation_method	'MofGen! by Chris Wilmer'
_symmetry_space_group_name_H-M	'P1'
_symmetry_Int_Tables_number	1
_symmetry_cell_setting	triclinic
loop_
_symmetry_equiv_pos_as_xyz
  x,y,z
_cell_length_a	25.639239
_cell_length_b	17.077404
_cell_length_c	17.077396
_cell_angle_alpha	90.019699
_cell_angle_beta	89.968926
_cell_angle_gamma	89.964245
loop_
_atom_site_label
_atom_site_type_symbol
_atom_site_fract_x
_atom_site_fract_y
_atom_site_fract_z
Zn1	Zn	-0.208192	-1.199968	-0.443833
Zn2	Zn	0.125142	-0.866635	-0.110499
Zn3	Zn	0.458475	-0.533302	0.222834
Zn4	Zn	-0.295629	-1.199839	-0.312561
Zn5	Zn	0.037704	-0.866506	0.020773
Zn6	Zn	0.371037	-0.533173	0.354106
Zn7	Zn	-0.208205	-1.068700	-0.312580
Zn8	Zn	0.125128	-0.735367	0.020753
Zn9	Zn	0.458461	-0.402034	0.354087
Zn10	Zn	-0.295593	-1.068632	-0.443784
Zn11	Zn	0.037740	-0.735299	-0.110450
Zn12	Zn	0.371073	-0.401965	0.222883
O13	O	-0.251905	-1.134285	-0.378189
O14	O	0.081428	-0.800952	-0.044856
O15	O	0.414762	-0.467618	0.288477
O16	O	-0.219800	-1.309798	-0.426431
O17	O	0.113534	-0.976465	-0.093098
O18	O	0.446867	-0.643132	0.240235
O19	O	-0.284053	-1.182418	-0.202716
O20	O	0.049280	-0.849085	0.130617
O21	O	0.382614	-0.515751	0.463950
O22	O	-0.135038	-1.086196	-0.330020
O23	O	0.198295	-0.752862	0.003314
O24	O	0.531628	-0.419529	0.336647
O25	O	-0.284040	-1.309703	-0.329986
O26	O	0.049293	-0.976370	0.003347
O27	O	0.382627	-0.643037	0.336680
O28	O	-0.135028	-1.182638	-0.426450
O29	O	0.198305	-0.849305	-0.093117
O30	O	0.531638	-0.515971	0.240216
O31	O	-0.219823	-1.086071	-0.202731
O32	O	0.113510	-0.752737	0.130603
O33	O	0.446844	-0.419404	0.463936
O34	O	-0.219788	-0.958844	-0.329972
O35	O	0.113545	-0.625511	0.003361
O36	O	0.446879	-0.292178	0.336694
O37	O	-0.283979	-1.086080	-0.553637
O38	O	0.049355	-0.752746	-0.220304
O39	O	0.382688	-0.419413	0.113029
O40	O	-0.283992	-0.958794	-0.426367
O41	O	0.049341	-0.625461	-0.093034
O42	O	0.382675	-0.292127	0.240300
O43	O	-0.219765	-1.182572	-0.553673
O44	O	0.113568	-0.849239	-0.220340
O45	O	0.446902	-0.515905	0.112994
O46	O	-0.368790	-1.182352	-0.329939
O47	O	-0.035456	-0.849018	0.003394
O48	O	0.297877	-0.515685	0.336728
O49	O	-0.368763	-1.085954	-0.426348
O50	O	-0.035430	-0.752621	-0.093015
O51	O	0.297903	-0.419288	0.240318
C52	C	-0.251888	-0.930337	-0.378167
C53	C	0.081445	-0.597004	-0.044834
C54	C	0.414779	-0.263670	0.288500
C55	C	-0.251893	-0.843087	-0.378176
C56	C	0.081440	-0.509754	-0.044843
C57	C	0.414773	-0.176421	0.288491
C58	C	-0.218503	-0.802147	-0.428471
C59	C	0.114831	-0.468814	-0.095137
C60	C	0.448164	-0.135481	0.238196
C61	C	-0.218505	-0.720167	-0.428472
C62	C	0.114828	-0.386834	-0.095139
C63	C	0.448162	-0.053500	0.238194
C64	C	-0.251901	-0.679128	-0.378183
C65	C	0.081432	-0.345795	-0.044849
C66	C	0.414765	-0.012461	0.288484
C67	C	-0.285294	-0.720074	-0.327883
C68	C	0.048040	-0.386740	0.005451
C69	C	0.381373	-0.053407	0.338784
C70	C	-0.285288	-0.802053	-0.327878
C71	C	0.048045	-0.468719	0.005456
C72	C	0.381379	-0.135386	0.338789
C73	C	-0.285304	-0.549204	-0.327898
C74	C	0.048030	-0.215870	0.005435
C75	C	0.381363	0.117463	0.338768
C76	C	-0.285310	-0.467219	-0.327904
C77	C	0.048023	-0.133886	0.005429
C78	C	0.381357	0.199448	0.338763
C79	C	-0.218521	-0.467318	-0.428493
C80	C	0.114813	-0.133985	-0.095160
C81	C	0.448146	0.199349	0.238174
C82	C	-0.218515	-0.549297	-0.428488
C83	C	0.114818	-0.215963	-0.095154
C84	C	0.448152	0.117370	0.238179
C85	C	-0.251908	-0.590237	-0.378189
C86	C	0.081425	-0.256904	-0.044855
C87	C	0.414758	0.076430	0.288478
C88	C	-0.387748	-1.134153	-0.378153
C89	C	-0.054414	-0.800820	-0.044820
C90	C	0.278919	-0.467486	0.288513
C91	C	-0.445862	-1.134168	-0.378164
C92	C	-0.112528	-0.800835	-0.044831
C93	C	0.220805	-0.467502	0.288502
C94	C	-0.806226	-1.184610	-0.328075
C95	C	-0.472892	-0.851277	0.005259
C96	C	-0.139559	-0.517943	0.338592
C97	C	-0.860830	-1.184641	-0.328085
C98	C	-0.527497	-0.851307	0.005248
C99	C	-0.194163	-0.517974	0.338581
O100	O	-0.889068	-1.227391	-0.285458
O101	O	-0.555734	-0.894058	0.047876
O102	O	-0.222401	-0.560724	0.381209
N103	N	-0.888144	-1.134423	-0.378241
N104	N	-0.554811	-0.801090	-0.044908
N105	N	-0.221477	-0.467756	0.288425
C106	C	-0.860851	-1.084177	-0.428396
C107	C	-0.527517	-0.750844	-0.095063
C108	C	-0.194184	-0.417511	0.238271
O109	O	-0.889097	-1.041467	-0.471059
O110	O	-0.555764	-0.708133	-0.137726
O111	O	-0.222431	-0.374800	0.195608
C112	C	-0.806247	-1.084151	-0.428389
C113	C	-0.472914	-0.750818	-0.095055
C114	C	-0.139581	-0.417485	0.238278
C115	C	-0.778936	-1.134367	-0.378224
C116	C	-0.445603	-0.801033	-0.044890
C117	C	-0.112270	-0.467700	0.288443
C118	C	-0.778915	-1.234822	-0.277914
C119	C	-0.445581	-0.901489	0.055419
C120	C	-0.112248	-0.568155	0.388752
C121	C	-0.724314	-1.234790	-0.277903
C122	C	-0.390981	-0.901457	0.055430
C123	C	-0.057647	-0.568124	0.388764
C124	C	-0.697025	-1.184547	-0.328052
C125	C	-0.363691	-0.851213	0.005281
C126	C	-0.030358	-0.517880	0.338615
C127	C	-0.724336	-1.134335	-0.378212
C128	C	-0.391002	-0.801002	-0.044879
C129	C	-0.057669	-0.467668	0.288454
C130	C	-0.778955	-1.033910	-0.478547
C131	C	-0.445622	-0.700577	-0.145213
C132	C	-0.112289	-0.367244	0.188120
C133	C	-0.724348	-1.033889	-0.478536
C134	C	-0.391015	-0.700556	-0.145202
C135	C	-0.057682	-0.367223	0.188131
C136	C	-0.697037	-1.084104	-0.428371
C137	C	-0.363704	-0.750771	-0.095037
C138	C	-0.030370	-0.417438	0.238296
C139	C	-0.642446	-1.084060	-0.428350
C140	C	-0.309113	-0.750727	-0.095017
C141	C	0.024221	-0.417393	0.238317
N142	N	-0.615132	-1.134277	-0.378194
N143	N	-0.281799	-0.800944	-0.044861
N144	N	0.051535	-0.467611	0.288473
C145	C	-0.642421	-1.184521	-0.328045
C146	C	-0.309088	-0.851188	0.005288
C147	C	0.024245	-0.517854	0.338622
C148	C	-0.975521	-1.084236	-0.428408
C149	C	-0.642188	-0.750903	-0.095075
C150	C	-0.308855	-0.417570	0.238259
C151	C	-1.030124	-1.084258	-0.428412
C152	C	-0.696790	-0.750924	-0.095078
C153	C	-0.363457	-0.417591	0.238255
C154	C	-1.030099	-1.184722	-0.328102
C155	C	-0.696766	-0.851389	0.005231
C156	C	-0.363432	-0.518056	0.338565
C157	C	-0.975496	-1.184696	-0.328095
C158	C	-0.642162	-0.851363	0.005239
C159	C	-0.308829	-0.518030	0.338572
C160	C	-0.948207	-1.134454	-0.378252
C161	C	-0.614874	-0.801121	-0.044919
C162	C	-0.281541	-0.467787	0.288415
C163	C	-0.527756	-1.184450	-0.328024
C164	C	-0.194423	-0.851117	0.005309
C165	C	0.138910	-0.517783	0.338642
C166	C	-0.473151	-1.184412	-0.328015
C167	C	-0.139818	-0.851078	0.005318
C168	C	0.193516	-0.517745	0.338651
C169	C	-0.473180	-1.083951	-0.428328
C170	C	-0.139847	-0.750617	-0.094994
C171	C	0.193486	-0.417284	0.238339
C172	C	-0.527781	-1.083986	-0.428334
C173	C	-0.194447	-0.750652	-0.095001
C174	C	0.138886	-0.417319	0.238332
C175	C	-0.555067	-1.134242	-0.378180
C176	C	-0.221734	-0.800909	-0.044847
C177	C	0.111599	-0.467575	0.288487
O178	O	-0.614174	-1.041333	-0.470958
O179	O	-0.280840	-0.708000	-0.137625
O180	O	0.052493	-0.374667	0.195709
O181	O	-0.614168	-1.227232	-0.285396
O182	O	-0.280835	-0.893898	0.047937
O183	O	0.052499	-0.560565	0.381271
C184	C	-0.115532	-1.134439	-0.378243
C185	C	0.217801	-0.801106	-0.044909
C186	C	0.551135	-0.467772	0.288424
C187	C	-0.057418	-1.134504	-0.378265
C188	C	0.275916	-0.801171	-0.044932
C189	C	0.609249	-0.467838	0.288401
C190	C	-0.251866	-1.134332	-0.582934
C191	C	0.081467	-0.800999	-0.249600
C192	C	0.414800	-0.467666	0.083733
C193	C	-0.251850	-1.134353	-0.670184
C194	C	0.081483	-0.801019	-0.336850
C195	C	0.414817	-0.467686	-0.003517
C196	C	-0.251920	-0.339029	-0.378206
C197	C	0.081414	-0.005696	-0.044873
C198	C	0.414747	0.327637	0.288460
C199	C	-0.251919	-0.426279	-0.378199
C200	C	0.081414	-0.092946	-0.044865
C201	C	0.414747	0.240388	0.288468
C202	C	-0.218411	-1.184598	-0.711194
C203	C	0.114922	-0.851265	-0.377860
C204	C	0.448256	-0.517931	-0.044527
C205	C	-0.218394	-1.184608	-0.793174
C206	C	0.114940	-0.851274	-0.459841
C207	C	0.448273	-0.517941	-0.126507
C208	C	-0.251818	-1.134375	-0.834143
C209	C	0.081515	-0.801042	-0.500810
C210	C	0.414848	-0.467708	-0.167476
C211	C	-0.285259	-1.084124	-0.793127
C212	C	0.048075	-0.750791	-0.459794
C213	C	0.381408	-0.417457	-0.126461
C214	C	-0.285273	-1.084111	-0.711148
C215	C	0.048060	-0.750778	-0.377815
C216	C	0.381394	-0.417445	-0.044482
C217	C	-0.285227	-1.084156	-0.963997
C218	C	0.048106	-0.750822	-0.630664
C219	C	0.381440	-0.417489	-0.297331
C220	C	-0.285214	-1.084169	-1.045982
C221	C	0.048120	-0.750836	-0.712649
C222	C	0.381453	-0.417503	-0.379315
C223	C	-0.218348	-1.184652	-1.046023
C224	C	0.114985	-0.851319	-0.712690
C225	C	0.448319	-0.517985	-0.379357
C226	C	-0.218362	-1.184639	-0.964044
C227	C	0.114971	-0.851306	-0.630711
C228	C	0.448304	-0.517973	-0.297378
C229	C	-0.251803	-1.134389	-0.923034
C230	C	0.081530	-0.801056	-0.589701
C231	C	0.414863	-0.467722	-0.256367
C232	C	-0.251906	-1.134283	-0.174241
C233	C	0.081428	-0.800950	0.159092
C234	C	0.414761	-0.467616	0.492425
C235	C	-0.251775	-1.134415	-0.086992
C236	C	0.081559	-0.801081	0.246341
C237	C	0.414892	-0.467748	0.579675
H238	H	-0.312478	-0.835385	-0.286922
H239	H	0.020855	-0.502052	0.046411
H240	H	0.354189	-0.168718	0.379745
H241	H	-0.191316	-0.686837	-0.469429
H242	H	0.142017	-0.353504	-0.136095
H243	H	0.475351	-0.020170	0.197238
N244	N	-0.321313	-1.029950	-0.837313
N245	N	0.012021	-0.696616	-0.503980
N246	N	0.345354	-0.363283	-0.170647
H247	H	-0.342498	-0.998117	-0.798892
H248	H	-0.009165	-0.664783	-0.465558
H249	H	0.324169	-0.331450	-0.132225
H250	H	-0.300023	-0.993653	-0.871332
H251	H	0.033311	-0.660319	-0.537999
H252	H	0.366644	-0.326986	-0.204665
N253	N	-0.321334	-1.029911	-0.666912
N254	N	0.011999	-0.696578	-0.333578
N255	N	0.345333	-0.363244	-0.000245
H256	H	-0.342506	-0.998090	-0.705303
H257	H	-0.009173	-0.664756	-0.371970
H258	H	0.324161	-0.331423	-0.038637
H259	H	-0.345540	-1.061824	-0.632889
H260	H	-0.012207	-0.728491	-0.299556
H261	H	0.321127	-0.395157	0.033777
H262	H	-0.191309	-0.835555	-0.469424
H263	H	0.142025	-0.502222	-0.136091
H264	H	0.475358	-0.168889	0.197242
N265	N	-0.182500	-0.593563	-0.482733
N266	N	0.150833	-0.260230	-0.149400
N267	N	0.484166	0.073103	0.183934
H268	H	-0.161346	-0.555190	-0.514598
H269	H	0.171987	-0.221857	-0.181264
H270	H	0.505321	0.111477	0.152069
H271	H	-0.158276	-0.627584	-0.450844
H272	H	0.175058	-0.294251	-0.117511
H273	H	0.508391	0.039082	0.215823
H274	H	-0.801128	-1.275740	-0.237077
H275	H	-0.467794	-0.942407	0.096257
H276	H	-0.134461	-0.609074	0.429590
H277	H	-1.052356	-1.043360	-0.469254
H278	H	-0.719022	-0.710027	-0.135921
H279	H	-0.385689	-0.376693	0.197413
H280	H	-0.191330	-0.433980	-0.469447
H281	H	0.142003	-0.100647	-0.136114
H282	H	0.475337	0.232686	0.197220
N283	N	-0.557238	-1.029820	-0.482435
N284	N	-0.223905	-0.696486	-0.149102
N285	N	0.109428	-0.363153	0.184231
H286	H	-0.579854	-1.061713	-0.518849
H287	H	-0.246520	-0.728379	-0.185515
H288	H	0.086813	-0.395046	0.147818
H289	H	-0.579904	-0.993485	-0.450452
H290	H	-0.246571	-0.660152	-0.117119
H291	H	0.086763	-0.326819	0.216214
H292	H	-0.953306	-1.043317	-0.469250
H293	H	-0.619972	-0.709983	-0.135916
H294	H	-0.286639	-0.376650	0.197417
H295	H	-0.953262	-1.225586	-0.287247
H296	H	-0.619929	-0.892253	0.046087
H297	H	-0.286596	-0.558920	0.379420
H298	H	-0.702133	-0.992977	-0.519382
H299	H	-0.368799	-0.659643	-0.186049
H300	H	-0.035466	-0.326310	0.147284
N301	N	-0.443694	-1.238576	-0.273909
N302	N	-0.110361	-0.905243	0.059425
N303	N	0.222973	-0.571910	0.392758
H304	H	-0.469271	-1.270412	-0.242146
H305	H	-0.135937	-0.937078	0.091188
H306	H	0.197396	-0.603745	0.424521
H307	H	-0.421001	-1.274871	-0.305893
H308	H	-0.087668	-0.941538	0.027440
H309	H	0.245665	-0.608205	0.360774
H310	H	-0.549967	-1.225375	-0.287186
H311	H	-0.216633	-0.892042	0.046148
H312	H	0.116700	-0.558709	0.379481
H313	H	-0.191166	-1.225524	-0.826561
H314	H	0.142168	-0.892191	-0.493228
H315	H	0.475501	-0.558858	-0.159894
H316	H	-0.312483	-0.686653	-0.286932
H317	H	0.020850	-0.353320	0.046401
H318	H	0.354184	-0.019987	0.379734
H319	H	-0.312505	-0.433807	-0.286954
H320	H	0.020829	-0.100474	0.046379
H321	H	0.354162	0.232859	0.379712
H322	H	-0.702080	-1.275682	-0.237057
H323	H	-0.368747	-0.942349	0.096277
H324	H	-0.035414	-0.609015	0.429610
N325	N	-0.321321	-0.593364	-0.273651
N326	N	0.012013	-0.260031	0.059682
N327	N	0.345346	0.073302	0.393016
H328	H	-0.300040	-0.627378	-0.237329
H329	H	0.033293	-0.294045	0.096004
H330	H	0.366627	0.039288	0.429338
H331	H	-0.342473	-0.554880	-0.241847
H332	H	-0.009139	-0.221547	0.091486
H333	H	0.324194	0.111787	0.424819
N334	N	-1.059538	-1.238915	-0.274010
N335	N	-0.726205	-0.905582	0.059323
N336	N	-0.392871	-0.572249	0.392657
H337	H	-1.098272	-1.231309	-0.281632
H338	H	-0.764939	-0.897976	0.051701
H339	H	-0.431606	-0.564643	0.385034
H340	H	-1.049954	-1.294966	-0.286278
H341	H	-0.716621	-0.961633	0.047055
H342	H	-0.383288	-0.628299	0.380388
N343	N	-0.808403	-0.979745	-0.532650
N344	N	-0.475070	-0.646412	-0.199317
N345	N	-0.141737	-0.313078	0.134017
H346	H	-0.782822	-0.947919	-0.564415
H347	H	-0.449489	-0.614586	-0.231082
H348	H	-0.116156	-0.281253	0.102252
H349	H	-0.831022	-1.011685	-0.569013
H350	H	-0.497689	-0.678352	-0.235680
H351	H	-0.164356	-0.345018	0.097653
H352	H	-0.191195	-1.225506	-0.677843
H353	H	0.142139	-0.892172	-0.344509
H354	H	0.475472	-0.558839	-0.011176
H355	H	-0.450953	-1.043040	-0.469156
H356	H	-0.117619	-0.709707	-0.135823
H357	H	0.215714	-0.376374	0.197510
N358	N	-0.321252	-1.029990	-1.090190
N359	N	0.012081	-0.696656	-0.756857
N360	N	0.345415	-0.363323	-0.423524
H361	H	-0.358617	-1.042119	-1.075923
H362	H	-0.025284	-0.708786	-0.742589
H363	H	0.308049	-0.375452	-0.409256
H364	H	-0.313079	-0.973931	-1.075910
H365	H	0.020255	-0.640598	-0.742576
H366	H	0.353588	-0.307265	-0.409243
N367	N	-0.182317	-1.238823	-0.919853
N368	N	0.151016	-0.905490	-0.586520
N369	N	0.484350	-0.572156	-0.253187
H370	H	-0.161129	-1.270657	-0.958271
H371	H	0.172204	-0.937324	-0.624938
H372	H	0.505537	-0.603991	-0.291604
H373	H	-0.158125	-1.206892	-0.885843
H374	H	0.175208	-0.873559	-0.552509
H375	H	0.508542	-0.540225	-0.219176
N376	N	-0.182273	-1.238852	-1.090239
N377	N	0.151060	-0.905519	-0.756906
N378	N	0.484394	-0.572185	-0.423573
H379	H	-0.203515	-1.275211	-1.124254
H380	H	0.129819	-0.941877	-0.790921
H381	H	0.463152	-0.608544	-0.457587
H382	H	-0.158037	-1.206932	-1.124207
H383	H	0.175297	-0.873599	-0.790874
H384	H	0.508630	-0.540266	-0.457540
N385	N	-0.321292	-1.029955	-0.919762
N386	N	0.012041	-0.696622	-0.586429
N387	N	0.345374	-0.363288	-0.253096
H388	H	-0.342466	-0.998136	-0.958154
H389	H	-0.009133	-0.664803	-0.624821
H390	H	0.324201	-0.331469	-0.291487
H391	H	-0.345497	-1.061876	-0.885744
H392	H	-0.012163	-0.728542	-0.552411
H393	H	0.321170	-0.395209	-0.219077
