data_functionalizedCrystal
_audit_creation_method	'MofGen! by Chris Wilmer'
_symmetry_space_group_name_H-M	'P1'
_symmetry_Int_Tables_number	1
_symmetry_cell_setting	triclinic
loop_
_symmetry_equiv_pos_as_xyz
  x,y,z
_cell_length_a	17.640112
_cell_length_b	25.639239
_cell_length_c	17.639514
_cell_angle_alpha	78.798436
_cell_angle_beta	92.187121
_cell_angle_gamma	101.263838
loop_
_atom_site_label
_atom_site_type_symbol
_atom_site_fract_x
_atom_site_fract_y
_atom_site_fract_z
Zn1	Zn	1.247671	-0.067251	0.195076
Zn2	Zn	1.221921	-0.141131	0.068097
Zn3	Zn	1.095041	-0.074129	0.093725
Zn4	Zn	1.120586	-0.175098	0.220676
O5	O	1.171305	-0.114402	0.144393
O6	O	1.350540	-0.059958	0.156793
O7	O	1.183624	-0.120906	-0.034774
O8	O	1.115373	-0.000041	0.107181
O9	O	1.331622	-0.114237	0.063502
O10	O	1.227509	0.005012	0.181643
O11	O	1.090405	-0.071680	-0.015946
O12	O	0.992144	-0.104616	0.132004
O13	O	1.158911	-0.172129	0.323551
O14	O	1.010912	-0.178798	0.225274
O15	O	1.252279	-0.092895	0.304743
O16	O	1.208394	-0.218812	0.088326
O17	O	1.133943	-0.243768	0.200425
C18	C	0.973970	-0.146140	0.184198
C19	C	0.889553	-0.159732	0.201245
C20	C	1.171170	-0.250262	0.144384
C21	C	1.171187	-0.308375	0.144392
C22	C	0.563028	-0.011137	0.014898
C23	C	0.483708	-0.023921	0.030926
C24	C	0.503271	-0.101240	0.127881
C25	C	0.582596	-0.088462	0.111864
C26	C	0.612467	-0.043410	0.055371
C27	C	0.632035	-0.120735	0.152337
C28	C	0.711352	-0.107959	0.136317
C29	C	0.741229	-0.062910	0.079825
C30	C	0.691784	-0.030634	0.039351
C31	C	0.602160	-0.165789	0.208826
C32	C	0.651600	-0.198062	0.249299
C33	C	0.730919	-0.185284	0.233284
C34	C	0.760797	-0.140235	0.176791
C35	C	0.780364	-0.217560	0.273757
C36	C	0.859681	-0.204784	0.257738
C37	C	0.840114	-0.127459	0.160772
C38	C	1.210215	-0.655703	0.086081
C39	C	1.210246	-0.710304	0.086085
O40	O	1.243289	-0.727476	0.036495
N41	N	1.171448	-0.750625	0.144417
C42	C	1.132623	-0.736344	0.202753
O43	O	1.099626	-0.775653	0.252369
C44	C	1.132597	-0.681744	0.202751
C45	C	1.171391	-0.641425	0.144411
C46	C	1.249006	-0.615386	0.027746
C47	C	1.248973	-0.560789	0.027741
C48	C	1.210149	-0.546510	0.086071
C49	C	1.171358	-0.586828	0.144406
C50	C	1.093777	-0.667462	0.261089
C51	C	1.093754	-0.612858	0.261083
C52	C	1.132548	-0.572539	0.202743
C53	C	1.132501	-0.517952	0.202731
N54	N	1.171298	-0.477631	0.144399
C55	C	1.210123	-0.491910	0.086069
C56	C	1.132683	-0.851006	0.202753
C57	C	1.132704	-0.905606	0.202752
C58	C	1.210328	-0.879562	0.086085
C59	C	1.210302	-0.824962	0.086083
C60	C	1.171481	-0.810685	0.144421
C61	C	1.210050	-0.377254	0.086063
C62	C	1.210011	-0.322653	0.086062
C63	C	1.132391	-0.348701	0.202731
C64	C	1.132426	-0.403297	0.202731
C65	C	1.171261	-0.417571	0.144393
O66	O	1.099478	-0.500740	0.252298
O67	O	1.243122	-0.452595	0.036467
C68	C	1.369410	-0.082541	0.104434
C69	C	1.453831	-0.068964	0.087405
C70	C	1.211317	-0.135534	0.342472
C71	C	1.228368	-0.144539	0.426882
C72	C	1.171464	0.021989	0.144415
C73	C	1.171532	0.080111	0.144424
C74	C	1.041800	-0.046027	0.753527
C75	C	1.057839	-0.054496	0.832838
C76	C	1.154898	-0.105750	0.813215
C77	C	1.138869	-0.097283	0.733899
C78	C	1.082319	-0.067421	0.704062
C79	C	1.179388	-0.118677	0.684434
C80	C	1.163359	-0.110212	0.605126
C81	C	1.106810	-0.080353	0.575282
C82	C	1.066289	-0.058956	0.624753
C83	C	1.235934	-0.148542	0.714274
C84	C	1.276453	-0.169936	0.664809
C85	C	1.260428	-0.161468	0.585498
C86	C	1.203879	-0.131609	0.555655
C87	C	1.300948	-0.182865	0.536027
C88	C	1.284918	-0.174401	0.456719
C89	C	1.187849	-0.123144	0.476346
C90	C	1.131438	-0.093364	0.947087
C91	C	1.114375	-0.084354	0.862680
H92	H	0.805815	-0.052510	0.066782
H93	H	1.241892	-0.792137	0.038578
H94	H	1.241944	-0.891197	0.038592
H95	H	0.716110	0.006058	-0.006640
O96	O	1.251863	-0.279168	0.023138
H97	H	1.297332	-0.251673	0.049372
H98	H	0.587354	0.025555	-0.031093
O99	O	0.430380	0.010893	-0.012724
H100	H	0.464482	0.044367	-0.054692
H101	H	1.093754	-0.073466	0.510705
O102	O	1.014142	-0.031400	0.886177
H103	H	1.055482	-0.003185	0.915447
O104	O	1.290831	-0.517306	-0.035175
H105	H	1.265827	-0.523542	-0.092172
H106	H	1.280625	-0.627003	-0.019755
H107	H	1.101106	-0.938430	0.250253
H108	H	0.899936	-0.231063	0.290696
O109	O	1.215892	-0.137955	0.845396
H110	H	1.220237	-0.140245	0.908854
H111	H	0.627266	-0.234744	0.295293
O112	O	0.471052	-0.149828	0.188816
H113	H	0.407593	-0.153289	0.193161
H114	H	0.537575	-0.176190	0.221867
H115	H	0.756029	-0.254244	0.319749
H116	H	1.062182	-0.700282	0.308593
H117	H	1.020249	-0.034633	0.600457
O118	O	1.328618	-0.197474	0.403361
H119	H	1.359975	-0.163997	0.359432
O120	O	1.361937	-0.215074	0.568211
H121	H	1.366277	-0.217365	0.631670
O122	O	1.337445	-0.202144	0.696989
H123	H	1.383419	-0.176381	0.725325
H124	H	1.241676	-0.388868	0.038561
O125	O	1.253343	-0.157672	0.799790
H126	H	1.200332	-0.179691	0.832360
H127	H	1.101063	-0.839387	0.250257
O128	O	0.980815	-0.013811	0.721334
H129	H	0.934845	-0.039571	0.692986
H130	H	0.864439	-0.090767	0.114781
O131	O	1.051870	-0.597458	0.323998
H132	H	1.024895	-0.634670	0.364555
H133	H	1.100840	-0.436127	0.250238
H134	H	1.141808	-0.098821	0.452050
O135	O	1.090521	-0.333296	0.265646
H136	H	1.097028	-0.288555	0.255842
