data_functionalizedCrystal
_audit_creation_method	'MofGen! by Chris Wilmer'
_symmetry_space_group_name_H-M	'P1'
_symmetry_Int_Tables_number	1
_symmetry_cell_setting	triclinic
loop_
_symmetry_equiv_pos_as_xyz
  x,y,z
_cell_length_a	27.440280
_cell_length_b	27.440280
_cell_length_c	27.440280
_cell_angle_alpha	59.992699
_cell_angle_beta	89.999974
_cell_angle_gamma	60.002656
loop_
_atom_site_label
_atom_site_type_symbol
_atom_site_fract_x
_atom_site_fract_y
_atom_site_fract_z
Zr1	Zr	0.469566	0.533372	-0.064020
O2	O	0.391752	0.635054	-0.141845
O3	O	0.493410	0.431702	-0.040157
O4	O	0.493411	0.533378	-0.141840
O5	O	0.391762	0.533370	0.040040
O6	O	0.573613	0.533370	-0.141843
O7	O	0.391751	0.533378	-0.040162
O8	O	0.573611	0.351490	0.040049
O9	O	0.391764	0.715249	-0.141852
O10	O	0.563445	0.473511	-0.029989
O11	O	0.503599	0.473510	0.029867
O12	O	0.503601	0.593221	-0.089851
O13	O	0.443755	0.593221	-0.029995
Zr14	Zr	0.597496	0.533347	0.063888
Zr15	Zr	0.597479	0.533360	-0.064025
Zr16	Zr	0.469583	0.533360	0.063893
Zr17	Zr	0.469585	0.661275	-0.064032
Zr18	Zr	0.597478	0.405444	0.063899
O19	O	0.573652	0.635018	0.040024
O20	O	0.573628	0.635036	-0.141852
O21	O	0.391777	0.635035	0.040031
O22	O	0.675310	0.431666	0.141712
O23	O	0.675286	0.431684	-0.040163
O24	O	0.493434	0.431684	0.141719
O25	O	0.675300	0.533350	-0.040172
O26	O	0.573651	0.533342	0.141707
O27	O	0.493449	0.533349	0.141710
O28	O	0.675311	0.533342	0.040030
O29	O	0.493438	0.715239	-0.141856
O30	O	0.573625	0.351480	0.141723
O31	O	0.675298	0.351470	0.141720
O32	O	0.675285	0.351480	0.040046
O33	O	0.391778	0.715239	-0.040178
O34	O	0.493451	0.715229	-0.040182
O35	O	0.563461	0.473499	0.089719
O36	O	0.623307	0.473499	0.029863
O37	O	0.563463	0.593209	-0.030000
O38	O	0.503617	0.593209	0.029857
C39	C	0.533508	0.373373	-0.000052
C40	C	0.533500	0.319074	-0.000047
C41	C	0.577720	0.040182	0.044123
C42	C	0.577715	0.091204	0.044125
O43	O	0.615299	0.080020	0.081692
N44	N	0.533525	0.160904	-0.000059
C45	C	0.489342	0.179582	-0.044252
O46	O	0.451755	0.243552	-0.081835
C47	C	0.489350	0.128561	-0.044257
C48	C	0.533539	0.058861	-0.000066
C49	C	0.621906	-0.029514	0.088309
C50	C	0.621911	-0.080532	0.088307
C51	C	0.577730	-0.061854	0.044119
C52	C	0.533544	0.007842	-0.000068
C53	C	0.445170	0.147239	-0.088451
C54	C	0.445182	0.096210	-0.088452
C55	C	0.489371	0.026510	-0.044262
C56	C	0.489367	-0.024498	-0.044258
N57	N	0.533557	-0.094197	-0.000074
C58	C	0.577738	-0.112876	0.044115
C59	C	0.489328	0.286727	-0.044241
C60	C	0.489316	0.337749	-0.044234
C61	C	0.577691	0.249367	0.044142
C62	C	0.577699	0.198346	0.044138
C63	C	0.533518	0.217028	-0.000056
C64	C	0.577744	-0.220014	0.044108
C65	C	0.577744	-0.271033	0.044104
C66	C	0.489372	-0.182648	-0.044275
C67	C	0.489370	-0.131633	-0.044269
C68	C	0.533562	-0.150321	-0.000075
O69	O	0.451804	-0.013365	-0.081807
O70	O	0.615323	-0.176846	0.081686
C71	C	0.373532	0.533375	-0.000060
C72	C	0.319229	0.533381	-0.000058
C73	C	-0.017475	0.533349	-0.044251
C74	C	-0.068492	0.533344	-0.044251
O75	O	-0.094872	0.533322	-0.081816
N76	N	-0.094004	0.533341	-0.000068
C77	C	-0.068492	0.533335	0.044122
O78	O	-0.094876	0.533332	0.081704
C79	C	-0.017473	0.533335	0.044124
C80	C	0.008033	0.533346	-0.000066
C81	C	0.008032	0.533358	-0.088437
C82	C	0.059045	0.533364	-0.088437
C83	C	0.084553	0.533361	-0.044251
C84	C	0.059047	0.533352	-0.000066
C85	C	0.008041	0.533325	0.088316
C86	C	0.059064	0.533325	0.088315
C87	C	0.084570	0.533335	0.044125
C88	C	0.135568	0.533355	0.044120
N89	N	0.161080	0.533358	-0.000064
C90	C	0.135572	0.533361	-0.044249
C91	C	-0.175636	0.533334	0.044114
C92	C	-0.226657	0.533339	0.044110
C93	C	-0.226653	0.533346	-0.044263
C94	C	-0.175633	0.533346	-0.044261
C95	C	-0.150124	0.533338	-0.000069
C96	C	0.242705	0.533375	-0.044246
C97	C	0.293722	0.533384	-0.044244
C98	C	0.293715	0.533373	0.044130
C99	C	0.242701	0.533368	0.044127
C100	C	0.217198	0.533366	-0.000065
O101	O	0.161982	0.533374	0.081666
O102	O	0.161967	0.533356	-0.081820
C103	C	0.693531	0.533344	-0.000072
C104	C	0.747833	0.533339	-0.000074
C105	C	0.533509	0.533376	-0.160066
C106	C	0.533502	0.533381	-0.214368
C107	C	0.533554	0.693347	-0.000080
C108	C	0.533562	0.747645	-0.000085
C109	C	0.577731	0.533340	-0.551067
C110	C	0.577737	0.533335	-0.602085
O111	O	0.615327	0.533305	-0.628461
N112	N	0.533552	0.533340	-0.627601
C113	C	0.489363	0.533344	-0.602094
O114	O	0.451781	0.533348	-0.628481
C115	C	0.489361	0.533344	-0.551074
C116	C	0.533545	0.533346	-0.525564
C117	C	0.621912	0.533341	-0.525557
C118	C	0.621906	0.533347	-0.474543
C119	C	0.577719	0.533353	-0.449040
C120	C	0.533538	0.533352	-0.474550
C121	C	0.445175	0.533343	-0.525565
C122	C	0.445176	0.533342	-0.474542
C123	C	0.489360	0.533344	-0.449032
C124	C	0.489346	0.533364	-0.398034
N125	N	0.533530	0.533358	-0.372517
C126	C	0.577717	0.533353	-0.398021
C127	C	0.489372	0.533343	-0.709237
C128	C	0.489371	0.533347	-0.760258
C129	C	0.577746	0.533337	-0.760246
C130	C	0.577743	0.533337	-0.709226
C131	C	0.533556	0.533337	-0.683721
C132	C	0.577700	0.533367	-0.290888
C133	C	0.577689	0.533376	-0.239872
C134	C	0.489317	0.533382	-0.239887
C135	C	0.489326	0.533377	-0.290901
C136	C	0.533523	0.533367	-0.316399
O137	O	0.451776	0.533390	-0.371624
O138	O	0.615297	0.533340	-0.371622
C139	C	0.533553	0.533344	0.159934
C140	C	0.533560	0.533338	0.214236
C141	C	0.693507	0.373357	-0.000058
C142	C	0.747802	0.319054	-0.000055
C143	C	0.533529	0.373357	0.159948
C144	C	0.533529	0.319053	0.214255
C145	C	0.693529	0.373341	0.159942
C146	C	0.747831	0.319032	0.214247
C147	C	0.373533	0.693379	-0.160074
C148	C	0.319232	0.747687	-0.214380
C149	C	0.373555	0.693362	-0.000074
C150	C	0.319260	0.747666	-0.000077
C151	C	0.533533	0.693363	-0.160080
C152	C	0.533533	0.747667	-0.214387
C153	C	0.742052	0.293558	-0.031301
C154	C	0.793062	0.242542	-0.031311
C155	C	0.849822	0.217017	-0.000070
C156	C	0.855571	0.242518	0.031177
C157	C	0.804561	0.293537	0.031182
C158	C	0.564776	0.293545	0.271006
C159	C	0.564773	0.242528	0.322038
C160	C	0.533526	0.217017	0.316318
C161	C	0.502275	0.242529	0.259562
C162	C	0.502275	0.293549	0.208531
C163	C	0.804576	0.293528	0.208505
C164	C	0.855603	0.242506	0.259526
C165	C	0.849884	0.216986	0.316288
C166	C	0.793133	0.242495	0.322029
C167	C	0.742107	0.293519	0.271009
C168	C	0.262487	0.773198	-0.208638
C169	C	0.211459	0.824235	-0.259658
C170	C	0.217178	0.849759	-0.316420
C171	C	0.273929	0.824246	-0.322161
C172	C	0.324955	0.773213	-0.271141
C173	C	0.325010	0.773167	0.031164
C174	C	0.274000	0.824197	0.031159
C175	C	0.217240	0.849723	-0.000084
C176	C	0.211491	0.824221	-0.031328
C177	C	0.262501	0.773194	-0.031327
C178	C	0.564786	0.773162	-0.208649
C179	C	0.564798	0.824179	-0.259671
C180	C	0.533554	0.849704	-0.316432
C181	C	0.502300	0.824203	-0.322169
C182	C	0.502292	0.773183	-0.271147
H183	H	0.613728	-0.327788	0.080091
H184	H	0.453385	0.533348	-0.688476
C185	C	0.161042	0.905891	-0.372539
N186	N	0.118758	0.948168	-0.414805
H187	H	0.476862	0.844993	-0.368391
H188	H	0.476832	0.314311	0.162324
H189	H	0.533566	0.891248	-0.357972
C190	C	0.918023	0.214449	0.253198
N191	N	0.965037	0.193317	0.248429
C192	C	0.906020	0.160852	0.372406
N193	N	0.948304	0.118569	0.414672
C194	C	0.599148	0.321602	0.277312
N195	N	0.625036	0.342735	0.282067
C196	C	0.440713	0.307289	-0.092853
N197	N	0.404095	0.322779	-0.129466
H198	H	0.278579	0.845034	-0.368383
C199	C	0.256181	0.745136	-0.146204
N200	N	0.251427	0.724007	-0.099180
C201	C	0.810881	0.321595	0.146071
N202	N	0.815636	0.342735	0.099048
C203	C	0.387374	0.745149	-0.277467
N204	N	0.434387	0.724013	-0.282237
H205	H	0.901792	0.221729	0.056612
C206	C	0.467909	0.214455	0.253280
N207	N	0.442029	0.193305	0.248550
C208	C	0.387442	0.745101	0.065532
N209	N	0.434464	0.723969	0.091417
C210	C	0.280337	0.852235	0.065537
N211	N	0.285112	0.873351	0.091432
C212	C	0.161133	0.905851	-0.000076
N213	N	0.118875	0.948124	-0.000067
C214	C	0.149039	0.852288	-0.253330
N215	N	0.102026	0.873416	-0.248562
C216	C	0.599159	0.214467	0.384464
N217	N	0.625061	0.193331	0.431483
H218	H	0.314486	0.533394	-0.080231
H219	H	0.533531	0.175473	0.357876
H220	H	0.788485	0.221708	0.368251
H221	H	0.613729	-0.235241	0.080095
C222	C	0.149049	0.852297	-0.065683
N223	N	0.102016	0.873440	-0.091553
H224	H	0.476840	0.752431	-0.275828
C225	C	0.626298	0.533374	-0.211812
N226	N	0.662912	0.533370	-0.190678
C227	C	0.599164	0.745091	-0.146216
N228	N	0.625062	0.723948	-0.099194
H229	H	0.695905	0.314278	0.275692
H230	H	0.453399	-0.167450	-0.080250
C231	C	0.599178	0.852224	-0.253346
N232	N	0.625072	0.873346	-0.248581
C233	C	0.679620	0.321629	-0.065675
N234	N	0.632598	0.342772	-0.091570
H235	H	0.657896	-0.137282	0.124291
H236	H	0.613726	0.533331	-0.781019
C237	C	0.626352	0.533332	-0.681167
N238	N	0.662967	0.533325	-0.660033
C239	C	0.670512	-0.050076	0.136926
N240	N	0.707122	-0.065570	0.173550
H241	H	0.613682	0.141595	0.080122
H242	H	0.613665	0.234166	0.080123
H243	H	0.453327	0.394498	-0.080212
H244	H	0.409205	0.111430	-0.124443
C245	C	0.396561	0.223902	-0.137070
N246	N	0.359948	0.281647	-0.173694
C247	C	0.440757	-0.054960	-0.092877
N248	N	0.404144	0.002787	-0.129494
C249	C	0.396560	0.533353	-0.446494
N250	N	0.359940	0.533366	-0.425373
H251	H	0.257811	0.752433	-0.056765
H252	H	0.453387	0.533357	-0.781030
H253	H	0.221947	0.533372	-0.080230
H254	H	0.079811	0.533370	-0.124418
H255	H	-0.154869	0.533354	-0.080243
C256	C	-0.020016	0.533357	-0.137046
N257	N	-0.041140	0.533358	-0.173664
C258	C	-0.254718	0.533343	-0.092865
N259	N	-0.275857	0.533339	-0.129469
C260	C	-0.254711	0.533336	0.092718
N261	N	-0.275837	0.533328	0.129335
H262	H	0.409196	0.533341	-0.546328
H263	H	-0.154871	0.533333	0.080099
H264	H	-0.012718	0.533316	0.124300
H265	H	0.079833	0.533315	0.124303
H266	H	0.221929	0.533369	0.080105
H267	H	0.314490	0.533373	0.080104
H268	H	0.613690	0.533357	-0.311643
C269	C	0.670518	0.533338	-0.446483
N270	N	0.707137	0.533326	-0.425350
H271	H	0.657897	0.533334	-0.546316
H272	H	0.809251	0.314289	0.056630
C273	C	0.440715	0.533385	-0.211822
N274	N	0.404111	0.533381	-0.190679
C275	C	0.440719	0.533381	-0.318966
N276	N	0.404110	0.533378	-0.340098
H277	H	0.788370	0.221785	-0.056755
H278	H	0.891353	0.175474	-0.000079
