data_functionalizedCrystal
_audit_creation_method	'MofGen! by Chris Wilmer'
_symmetry_space_group_name_H-M	'P1'
_symmetry_Int_Tables_number	1
_symmetry_cell_setting	triclinic
loop_
_symmetry_equiv_pos_as_xyz
  x,y,z
_cell_length_a	19.188930
_cell_length_b	14.853567
_cell_length_c	13.330367
_cell_angle_alpha	90.008763
_cell_angle_beta	89.979247
_cell_angle_gamma	83.389856
loop_
_atom_site_label
_atom_site_type_symbol
_atom_site_fract_x
_atom_site_fract_y
_atom_site_fract_z
O1	O	-0.926524	-0.112539	0.083738
O2	O	-0.426524	0.387461	0.583738
O3	O	-0.723263	-0.127691	0.083668
O4	O	-0.223263	0.372309	0.583668
O5	O	-0.830323	0.011145	0.083708
O6	O	-0.330323	0.511145	0.583708
O7	O	-0.819464	-0.251375	0.083698
O8	O	-0.319464	0.248625	0.583698
O9	O	-0.830306	0.011123	-0.083139
O10	O	-0.330306	0.511123	0.416861
O11	O	-0.723247	-0.127713	-0.083179
O12	O	-0.223247	0.372287	0.416821
O13	O	-0.926507	-0.112562	-0.083109
O14	O	-0.426507	0.387438	0.416891
Cu15	Cu	-0.824875	-0.120139	-0.098379
Cu16	Cu	-0.324875	0.379861	0.401621
Cu17	Cu	-0.824895	-0.120113	0.098937
Cu18	Cu	-0.324895	0.379887	0.598937
O19	O	-0.819448	-0.251397	-0.083149
O20	O	-0.319448	0.248603	0.416851
C21	C	-0.697242	-0.127211	0.000236
C22	C	-0.197242	0.372789	0.500236
C23	C	-0.619733	-0.125738	0.000209
C24	C	-0.119733	0.374262	0.500209
C25	C	-0.829823	0.044720	0.000287
C26	C	-0.329823	0.544720	0.500287
C27	C	-0.828348	0.144795	0.000295
C28	C	-0.328348	0.644795	0.500295
C29	C	-0.952528	-0.113041	0.000325
C30	C	-0.452528	0.386959	0.500325
C31	C	-1.030038	-0.114514	0.000358
C32	C	-0.530038	0.385486	0.500358
C33	C	-0.575080	-0.207203	0.000222
C34	C	-0.075080	0.292797	0.500222
C35	C	-0.502252	-0.205819	0.000233
C36	C	-0.002252	0.294181	0.500233
C37	C	-0.474079	-0.122966	0.000252
C38	C	0.025921	0.377034	0.500252
C39	C	-0.518741	-0.041491	0.000233
C40	C	-0.018741	0.458509	0.500233
C41	C	-0.591568	-0.042877	0.000212
C42	C	-0.091568	0.457123	0.500212
N43	N	-0.365893	-0.059628	0.057080
N44	N	0.134107	0.440372	0.557080
N45	N	-0.296710	-0.058317	0.057102
N46	N	0.203290	0.441683	0.557102
C47	C	-0.254657	-0.118785	0.000313
C48	C	0.245343	0.381215	0.500313
N49	N	-0.284398	-0.180628	-0.056486
N50	N	0.215602	0.319372	0.443514
N51	N	-0.353587	-0.181942	-0.056504
N52	N	0.146413	0.318058	0.443496
C53	C	-0.395112	-0.121454	0.000274
C54	C	0.104888	0.378546	0.500274
C55	C	-0.131035	-0.198755	0.000336
C56	C	0.368965	0.301245	0.500336
C57	C	-0.058205	-0.197367	0.000341
C58	C	0.441795	0.302633	0.500341
C59	C	-0.074696	-0.033038	0.000352
C60	C	0.425304	0.466962	0.500352
C61	C	-0.147524	-0.034427	0.000337
C62	C	0.352476	0.465573	0.500337
C63	C	-0.175689	-0.117288	0.000334
C64	C	0.324311	0.382712	0.500334
N65	N	-0.824867	-0.120157	-0.237160
N66	N	-0.324867	0.379843	0.262840
C67	C	-0.819948	-0.284972	0.000274
C68	C	-0.319948	0.215028	0.500274
C69	C	-0.821422	-0.385048	0.000272
C70	C	-0.321422	0.114952	0.500272
C71	C	-0.758520	0.556941	0.000252
C72	C	-0.258520	1.056941	0.500252
C73	C	-0.885709	0.578929	0.000296
C74	C	-0.385709	1.078929	0.500296
C75	C	-0.887095	0.484903	0.000302
C76	C	-0.387095	0.984903	0.500302
C77	C	-0.824193	0.426891	0.000282
C78	C	-0.324193	0.926891	0.500282
C79	C	-0.759904	0.462906	0.000255
C80	C	-0.259904	0.962906	0.500255
C81	C	-0.951383	0.448881	0.000319
C82	C	-0.451383	0.948881	0.500319
C83	C	-0.952772	0.354850	0.000324
C84	C	-0.452772	0.854850	0.500324
C85	C	-0.889869	0.296836	0.000311
C86	C	-0.389869	0.796836	0.500311
C87	C	-0.825577	0.332856	0.000285
C88	C	-0.325577	0.832856	0.500285
C89	C	-0.762675	0.274845	0.000265
C90	C	-0.262675	0.774845	0.500265
C91	C	-0.698383	0.310863	0.000247
C92	C	-0.198383	0.810863	0.500247
C93	C	-0.697001	0.404892	0.000242
C94	C	-0.197001	0.904892	0.500242
C95	C	-0.891251	0.202807	0.000315
C96	C	-0.391251	0.702807	0.500315
C97	C	-0.764059	0.180810	0.000269
C98	C	-0.264059	0.680810	0.500269
C99	C	-0.867300	-0.174641	-0.709759
C100	C	-0.367300	0.325359	-0.209759
C101	C	-0.782511	-0.065549	-0.709775
C102	C	-0.282511	0.434451	-0.209775
C103	C	-0.782501	-0.065563	-0.604757
C104	C	-0.282501	0.434437	-0.104757
C105	C	-0.824892	-0.120116	-0.552235
C106	C	-0.324892	0.379884	-0.052235
C107	C	-0.867293	-0.174654	-0.604731
C108	C	-0.367293	0.325346	-0.104731
C109	C	-0.740106	-0.011019	-0.552252
C110	C	-0.240106	0.488981	-0.052252
C111	C	-0.740094	-0.011030	-0.447227
C112	C	-0.240094	0.488970	0.052773
C113	C	-0.782482	-0.065588	-0.394704
C114	C	-0.282482	0.434412	0.105296
C115	C	-0.824884	-0.120130	-0.447207
C116	C	-0.324884	0.379870	0.052793
C117	C	-0.867275	-0.174682	-0.394685
C118	C	-0.367275	0.325318	0.105315
C119	C	-0.909674	-0.229229	-0.447186
C120	C	-0.409674	0.270771	0.052814
C121	C	-0.909680	-0.229212	-0.552207
C122	C	-0.409680	0.270788	-0.052207
C123	C	-0.782476	-0.065605	-0.289682
C124	C	-0.282476	0.434395	0.210318
C125	C	-0.867268	-0.174696	-0.289657
C126	C	-0.367268	0.325304	0.210343
N127	N	-0.824909	-0.120088	0.237719
N128	N	-0.324909	0.379912	0.737719
H129	H	-0.598007	-0.274675	0.000222
H130	H	-0.098007	0.225325	0.500222
H131	H	-0.183881	0.031910	0.000332
H132	H	0.316119	0.531910	0.500332
H133	H	-0.465889	-0.272159	0.000241
H134	H	0.034111	0.227841	0.500241
Cl135	Cl	-0.616184	0.450178	0.000222
Cl136	Cl	-0.116184	0.950178	0.500222
Cl137	Cl	-0.920594	-0.243217	-0.775757
Cl138	Cl	-0.420594	0.256783	-0.275757
H139	H	-0.495798	0.025968	0.000262
H140	H	0.004202	0.525968	0.500262
H141	H	-0.706174	0.586271	0.000241
H142	H	-0.206174	1.086271	0.500241
Cl143	Cl	-0.619309	0.237923	0.000213
Cl144	Cl	-0.119309	0.737923	0.500213
H145	H	-0.627925	0.023463	0.000202
H146	H	-0.127925	0.523463	0.500202
Cl147	Cl	-0.166445	-0.302920	0.000323
Cl148	Cl	0.333555	0.197080	0.500323
H149	H	-0.747957	-0.021191	-0.246940
H150	H	-0.247957	0.478809	0.253060
Cl151	Cl	-0.002069	-0.299790	0.000352
Cl152	Cl	0.497931	0.200210	0.500352
H153	H	-1.002595	0.496121	0.000326
H154	H	-0.502595	0.996121	0.500326
Cl155	Cl	-0.039286	0.071121	0.000363
Cl156	Cl	0.460714	0.571121	0.500363
Cl157	Cl	-0.686816	0.057555	-0.618283
Cl158	Cl	-0.186816	0.557555	-0.118283
Cl159	Cl	-0.686781	0.057525	-0.381236
Cl160	Cl	-0.186781	0.557525	0.118764
H161	H	-0.936921	0.626167	0.000304
H162	H	-0.436921	1.126167	0.500304
H163	H	-0.943596	0.173485	0.000324
H164	H	-0.443596	0.673485	0.500324
H165	H	-1.005123	0.325533	0.000340
H166	H	-0.505123	0.825533	0.500340
H167	H	-0.712835	0.133582	0.000256
H168	H	-0.212835	0.633582	0.500256
Cl169	Cl	-0.920559	-0.243286	-0.223638
Cl170	Cl	-0.420559	0.256714	0.276362
H171	H	-0.944192	-0.273642	-0.404409
H172	H	-0.444192	0.226358	0.095591
Cl173	Cl	-0.962976	-0.297780	-0.618214
Cl174	Cl	-0.462976	0.202220	-0.118214
H175	H	-0.748003	-0.021129	-0.752544
H176	H	-0.248003	0.478871	-0.252544
