data_functionalizedCrystal
_audit_creation_method	'MofGen! by Chris Wilmer'
_symmetry_space_group_name_H-M	'P1'
_symmetry_Int_Tables_number	1
_symmetry_cell_setting	triclinic
loop_
_symmetry_equiv_pos_as_xyz
  x,y,z
_cell_length_a	6.817900
_cell_length_b	9.652871
_cell_length_c	10.773890
_cell_angle_alpha	85.222564
_cell_angle_beta	96.645716
_cell_angle_gamma	67.746829
loop_
_atom_site_label
_atom_site_type_symbol
_atom_site_fract_x
_atom_site_fract_y
_atom_site_fract_z
V1	V	-4.094636	0.464169	-0.172058
O2	O	-4.116863	0.457842	0.008823
O3	O	-4.011061	0.458582	-0.341696
O4	O	-4.091637	0.667710	-0.169169
O5	O	-4.035729	0.247266	-0.164900
V6	V	-4.576939	0.438519	-0.150452
O7	O	-4.358571	0.520435	-0.219455
O8	O	-4.763202	0.382253	-0.103056
O9	O	-4.437308	0.444106	0.019186
O10	O	-4.672110	0.444846	-0.331333
O11	O	-4.753244	0.655422	-0.157611
O12	O	-4.356732	0.234978	-0.153342
C13	C	-3.846035	0.450637	-0.383058
C14	C	-3.859292	0.447425	-0.521738
C15	C	-3.948817	0.717398	-0.162980
C16	C	-4.027415	0.883778	-0.161740
C17	C	-4.038612	0.453006	-0.589594
C18	C	-4.052317	0.449687	-0.732927
C19	C	-4.169857	1.185280	-0.159527
C20	C	-4.091253	1.018896	-0.160741
C21	C	-4.265674	0.452047	0.060541
C22	C	-4.231657	0.455268	0.199219
H23	H	-4.181991	0.460249	-0.541576
Cl24	Cl	-3.830935	0.438528	-0.807049
H25	H	-4.375051	0.462509	-0.752769
Cl26	Cl	-3.637923	0.436267	-0.595866
