data_functionalizedCrystal
_audit_creation_method	'MofGen! by Chris Wilmer'
_symmetry_space_group_name_H-M	'P1'
_symmetry_Int_Tables_number	1
_symmetry_cell_setting	triclinic
loop_
_symmetry_equiv_pos_as_xyz
  x,y,z
_cell_length_a	12.759401
_cell_length_b	21.295416
_cell_length_c	12.759393
_cell_angle_alpha	89.963303
_cell_angle_beta	90.018496
_cell_angle_gamma	89.969508
loop_
_atom_site_label
_atom_site_type_symbol
_atom_site_fract_x
_atom_site_fract_y
_atom_site_fract_z
Zn1	Zn	1.606141	0.250569	0.593944
Zn2	Zn	2.106141	0.750569	1.093944
Zn3	Zn	1.605988	0.355853	0.418248
Zn4	Zn	2.105988	0.855853	0.918248
Zn5	Zn	1.430443	0.250602	0.418283
Zn6	Zn	1.930443	0.750602	0.918283
Zn7	Zn	1.430384	0.355805	0.593890
Zn8	Zn	1.930384	0.855805	1.093890
O9	O	1.518239	0.303208	0.506091
O10	O	2.018239	0.803208	1.006091
O11	O	1.753142	0.264542	0.570645
O12	O	2.253142	0.764542	1.070645
O13	O	1.582662	0.341926	0.271232
O14	O	2.082662	0.841926	0.771232
O15	O	1.453839	0.162509	0.441622
O16	O	1.953839	0.662509	0.941622
O17	O	1.753029	0.341894	0.441563
O18	O	2.253029	0.841894	0.941563
O19	O	1.582924	0.162484	0.570679
O20	O	2.082924	0.662484	1.070679
O21	O	1.453690	0.264598	0.271257
O22	O	1.953690	0.764598	0.771257
O23	O	1.283414	0.264551	0.441570
O24	O	1.783414	0.764551	0.941570
O25	O	1.453738	0.341811	0.740918
O26	O	1.953738	0.841811	1.240918
O27	O	1.283371	0.341843	0.570587
O28	O	1.783371	0.841843	1.070587
O29	O	1.582866	0.264495	0.740958
O30	O	2.082866	0.764495	1.240958
O31	O	1.582604	0.443936	0.441510
O32	O	2.082604	0.943936	0.941510
O33	O	1.453589	0.443901	0.570553
O34	O	1.953589	0.943901	1.070553
C35	C	1.245272	0.303196	0.506077
C36	C	1.745272	0.803196	1.006077
C37	C	1.128495	0.303206	0.506096
C38	C	1.628495	0.803206	1.006096
C39	C	1.518102	0.466759	0.506045
C40	C	2.018102	0.966759	1.006045
C41	C	1.518140	0.536727	0.506060
C42	C	2.018140	1.036727	1.006060
C43	C	1.073638	0.343516	0.573164
C44	C	1.573638	0.843516	1.073164
C45	C	0.963914	0.343524	0.573175
C46	C	1.463914	0.843524	1.073175
C47	C	0.963914	0.262910	0.439041
C48	C	1.463914	0.762910	0.939041
C49	C	1.073636	0.262899	0.439036
C50	C	1.573636	0.762899	0.939036
C51	C	1.073637	0.390061	0.650602
C52	C	1.573637	0.890061	1.150602
C53	C	0.963913	0.390069	0.650613
C54	C	1.463913	0.890069	1.150613
C55	C	1.585378	0.569592	0.438939
C56	C	2.085378	1.069592	0.938939
C57	C	1.585427	0.635334	0.438967
C58	C	2.085427	1.135334	0.938967
C59	C	1.518220	0.668210	0.506106
C60	C	2.018220	1.168210	1.006106
C61	C	1.450977	0.635338	0.573240
C62	C	1.950977	1.135338	1.073240
C63	C	1.450937	0.569596	0.573218
C64	C	1.950937	1.069596	1.073218
N65	N	1.426313	0.771475	0.514118
N66	N	1.926313	1.271475	1.014118
N67	N	1.426355	0.833927	0.514133
N68	N	1.926355	1.333927	1.014133
C69	C	1.518339	0.866284	0.506180
C70	C	2.018339	1.366284	1.006180
N71	N	1.610282	0.833832	0.498191
N72	N	2.110282	1.333832	0.998191
N73	N	1.610240	0.771375	0.498170
N74	N	2.110240	1.271375	0.998170
C75	C	1.518257	0.739495	0.506139
C76	C	2.018257	1.239495	1.006139
C77	C	1.585636	0.970434	0.439086
C78	C	2.085636	1.470434	0.939086
C79	C	1.585688	1.036178	0.439122
C80	C	2.085688	1.536178	0.939122
C81	C	1.451228	1.036180	0.573390
C82	C	1.951228	1.536180	1.073390
C83	C	1.451186	0.970438	0.573359
C84	C	1.951186	1.470438	1.073359
C85	C	1.518389	0.937569	0.506202
C86	C	2.018389	1.437569	1.006202
C87	C	1.792272	0.303220	0.506106
C88	C	2.292272	0.803220	1.006106
C89	C	1.909049	0.303225	0.506113
C90	C	2.409049	0.803225	1.006113
C91	C	1.518313	0.303144	0.780125
C92	C	2.018313	0.803144	1.280125
C93	C	1.518344	0.303117	0.896901
C94	C	2.018344	0.803117	1.396901
C95	C	1.518406	1.139017	0.506179
C96	C	2.018406	1.639017	1.006179
C97	C	1.518481	1.069049	0.506263
C98	C	2.018481	1.569049	1.006263
C99	C	1.518226	0.303225	0.233124
C100	C	2.018226	0.803225	0.733124
C101	C	1.518398	0.303075	0.116348
C102	C	2.018398	0.803075	0.616348
C103	C	1.585590	0.262855	0.951786
C104	C	2.085590	0.762855	1.451786
C105	C	1.585615	0.262832	1.061510
C106	C	2.085615	0.762832	1.561510
C107	C	1.451145	0.343339	1.061456
C108	C	1.951145	0.843339	1.561456
C109	C	1.451115	0.343358	0.951733
C110	C	1.951115	0.843358	1.451733
C111	C	1.663229	0.216376	0.951818
C112	C	2.163229	0.716376	1.451818
C113	C	1.663254	0.216353	1.061542
C114	C	2.163254	0.716353	1.561542
H115	H	1.118297	0.230071	0.384430
H116	H	1.618297	0.730071	0.884430
H117	H	1.634161	0.170033	1.095597
H118	H	2.134161	0.670033	1.595597
H119	H	1.107630	0.436347	0.621311
H120	H	1.607630	0.936347	1.121311
H121	H	0.934095	0.438810	0.628674
H122	H	1.434095	0.938810	1.128674
H123	H	1.640184	0.662097	0.384309
H124	H	2.140184	1.162097	0.884309
H125	H	1.740493	0.233853	0.917780
H126	H	2.240493	0.733853	1.417780
H127	H	1.641483	0.167626	0.922070
H128	H	2.141483	0.667626	1.422070
C129	C	0.917987	0.366561	0.755106
C130	C	1.417987	0.866561	1.255106
H131	H	0.973461	0.356091	0.801635
H132	H	1.473461	0.856091	1.301635
H133	H	0.876102	0.330452	0.742737
H134	H	1.376102	0.830452	1.242737
H135	H	0.876075	0.398646	0.785419
H136	H	1.376075	0.898646	1.285419
H137	H	1.640360	0.943671	0.384406
H138	H	2.140360	1.443671	0.884406
H139	H	0.919234	0.230093	0.384445
H140	H	1.419234	0.730093	0.884445
C141	C	1.659309	0.533439	0.365080
C142	C	2.159309	1.033439	0.865080
H143	H	1.699368	0.562432	0.325116
H144	H	2.199368	1.062432	0.825116
H145	H	1.619135	0.507835	0.319260
H146	H	2.119135	1.007835	0.819260
H147	H	1.705054	0.507752	0.405310
H148	H	2.205054	1.007752	0.905310
H149	H	1.396259	0.662109	0.627907
H150	H	1.896259	1.162109	1.127907
C151	C	1.773160	0.233996	1.101781
C152	C	2.273160	0.733996	1.601781
H153	H	1.773174	0.233973	1.176239
H154	H	2.273174	0.733973	1.676239
H155	H	1.791286	0.274625	1.076954
H156	H	2.291286	0.774625	1.576954
H157	H	1.822822	0.204262	1.076987
H158	H	2.322822	0.704262	1.576987
C159	C	1.113922	0.372493	0.760570
C160	C	1.613922	0.872493	1.260570
H161	H	1.056031	0.365269	0.805798
H162	H	1.556031	0.865269	1.305798
H163	H	1.155272	0.405874	0.787501
H164	H	1.655272	0.905874	1.287501
H165	H	1.155303	0.335487	0.756250
H166	H	1.655303	0.835487	1.256250
H167	H	1.396183	0.542838	0.627877
H168	H	1.896183	1.042838	1.127877
C169	C	1.659653	1.072329	0.365283
C170	C	2.159653	1.572329	0.865283
H171	H	1.699660	1.043335	0.325280
H172	H	2.199660	1.543335	0.825280
H173	H	1.705429	1.097929	0.405516
H174	H	2.205429	1.597929	0.905516
H175	H	1.619493	1.098020	0.319483
H176	H	2.119493	1.598020	0.819483
H177	H	1.396511	1.062947	0.628060
H178	H	1.896511	1.562947	1.128060
H179	H	1.396430	0.943678	0.628012
H180	H	1.896430	1.443678	1.128012
H181	H	1.396353	0.376142	0.907051
H182	H	1.896353	0.876142	1.407051
C183	C	1.377208	0.387606	1.121774
C184	C	1.877208	0.887606	1.621774
H185	H	1.386859	0.381831	1.194982
H186	H	1.886859	0.881831	1.694982
H187	H	1.306622	0.378395	1.103792
H188	H	1.806622	0.878395	1.603792
H189	H	1.392545	0.429907	1.103769
H190	H	1.892545	0.929907	1.603769
