data_functionalizedCrystal
_audit_creation_method	'MofGen! by Chris Wilmer'
_symmetry_space_group_name_H-M	'P1'
_symmetry_Int_Tables_number	1
_symmetry_cell_setting	triclinic
loop_
_symmetry_equiv_pos_as_xyz
  x,y,z
_cell_length_a	10.654545
_cell_length_b	17.038272
_cell_length_c	9.130313
_cell_angle_alpha	89.995195
_cell_angle_beta	89.996934
_cell_angle_gamma	87.797317
loop_
_atom_site_label
_atom_site_type_symbol
_atom_site_fract_x
_atom_site_fract_y
_atom_site_fract_z
O1	O	1.678044	0.109861	-0.121787
O2	O	1.313537	0.120333	-0.121793
O3	O	1.493624	0.001270	-0.121778
O4	O	1.497957	0.228925	-0.121801
O5	O	1.493611	0.001266	0.121821
O6	O	1.313524	0.120330	0.121806
O7	O	1.678030	0.109858	0.121812
Cu8	Cu	1.495776	0.115093	0.144052
Cu9	Cu	1.495792	0.115097	-0.144032
O10	O	1.497943	0.228921	0.121798
C11	C	1.266661	0.119563	0.000006
C12	C	1.127004	0.117265	0.000004
C13	C	1.061392	0.116181	0.132790
C14	C	0.930170	0.114009	0.132791
C15	C	0.930185	0.114007	-0.132794
C16	C	1.061405	0.116174	-0.132793
C17	C	1.489677	-0.027882	0.000021
C18	C	1.477919	-0.114741	0.000020
C19	C	1.585864	-0.164253	0.000024
C20	C	1.574809	-0.245865	0.000010
C21	C	1.455809	-0.277964	0.000003
C22	C	1.347857	-0.228445	-0.000005
C23	C	1.358913	-0.146834	-0.000001
C24	C	1.416751	-0.523939	-0.000018
C25	C	1.405704	-0.605556	-0.000017
C26	C	1.632657	-0.622971	-0.000005
C27	C	1.643703	-0.541358	0.000007
C28	C	1.535750	-0.491847	-0.000008
C29	C	1.444507	-0.361384	-0.000007
C30	C	1.547054	-0.408428	-0.000009
C31	C	1.724907	0.110627	0.000010
C32	C	1.864563	0.112926	0.000003
C33	C	1.501891	0.258073	-0.000005
C34	C	1.513648	0.344931	-0.000014
N35	N	1.495774	0.115090	0.346674
N36	N	1.495803	0.115095	-0.346655
C37	C	1.575547	0.062391	0.423333
C38	C	1.575559	0.062391	0.576670
C39	C	1.416021	0.167796	0.576676
C40	C	1.416003	0.167792	0.423342
H41	H	1.114799	0.117069	0.240922
H42	H	1.640499	0.019477	0.360913
H43	H	0.876755	0.113126	0.240919
F44	F	1.689699	-0.298557	0.000016
H45	H	1.250964	-0.254586	-0.000020
H46	H	1.640516	0.019478	0.639081
F47	F	1.331131	0.223884	0.658281
F48	F	1.331088	0.223881	0.341750
F49	F	1.317861	-0.395553	-0.000021
H50	H	0.876758	0.113120	-0.240912
F51	F	1.747539	-0.675670	0.000009
F52	F	1.131239	0.117323	-0.274130
H53	H	1.682766	-0.138126	0.000039
H54	H	1.308795	-0.631687	0.000001
F55	F	1.770358	-0.507203	-0.000022
H56	H	1.328848	-0.483636	-0.000030
H57	H	1.271012	-0.106521	-0.000004
H58	H	1.643943	-0.382290	-0.000036
