data_functionalizedCrystal
_audit_creation_method	'MofGen! by Chris Wilmer'
_symmetry_space_group_name_H-M	'P1'
_symmetry_Int_Tables_number	1
_symmetry_cell_setting	triclinic
loop_
_symmetry_equiv_pos_as_xyz
  x,y,z
_cell_length_a	14.044191
_cell_length_b	14.044220
_cell_length_c	13.101039
_cell_angle_alpha	93.667477
_cell_angle_beta	86.339405
_cell_angle_gamma	93.190327
loop_
_atom_site_label
_atom_site_type_symbol
_atom_site_fract_x
_atom_site_fract_y
_atom_site_fract_z
O1	O	1.281974	0.225380	-0.085125
O2	O	1.781974	0.725380	0.414875
O3	O	1.005303	0.217066	-0.085147
O4	O	1.505303	0.717066	0.414853
O5	O	1.139485	0.082888	-0.085126
O6	O	1.639485	0.582888	0.414874
O7	O	1.147792	0.359558	-0.085146
O8	O	1.647792	0.859558	0.414854
O9	O	1.129859	0.092532	0.085302
O10	O	1.629859	0.592532	0.585302
O11	O	0.995677	0.226710	0.085281
O12	O	1.495677	0.726710	0.585281
O13	O	1.272348	0.235024	0.085304
O14	O	1.772348	0.735024	0.585304
Zn15	Zn	1.132484	0.232399	0.112352
Zn16	Zn	1.632484	0.732399	0.612352
Zn17	Zn	1.145167	0.219692	-0.112195
Zn18	Zn	1.645167	0.719692	0.387805
O19	O	1.138166	0.369203	0.085283
O20	O	1.638166	0.869203	0.585283
C21	C	1.131036	0.052088	0.000088
C22	C	1.631036	0.552088	0.500088
C23	C	1.120192	-0.054055	0.000089
C24	C	1.620192	0.445945	0.500089
C25	C	0.964868	0.218251	0.000064
C26	C	1.464868	0.718251	0.500064
C27	C	0.858725	0.207404	0.000056
C28	C	1.358725	0.707404	0.500056
C29	C	1.312783	0.233839	0.000090
C30	C	1.812783	0.733839	0.500090
C31	C	1.418926	0.244686	0.000092
C32	C	1.918926	0.744686	0.500092
C33	C	1.100366	-0.248394	0.000072
C34	C	1.600366	0.251606	0.500072
C35	C	1.177281	-0.299522	0.000075
C36	C	1.677281	0.200478	0.500075
C37	C	1.166250	-0.407659	0.000066
C38	C	1.666250	0.092341	0.500066
C39	C	1.111396	-0.140247	0.000081
C40	C	1.611396	0.359753	0.500081
C41	C	1.664385	0.187585	0.000075
C42	C	2.164385	0.687585	0.500075
C43	C	1.613260	0.264501	0.000073
C44	C	2.113260	0.764501	0.500073
C45	C	1.505122	0.253473	0.000083
C46	C	2.005122	0.753473	0.500083
C47	C	1.772533	0.198611	0.000064
C48	C	2.272533	0.698611	0.500064
N49	N	1.123835	0.241071	0.265599
N50	N	1.623835	0.741071	0.765599
C51	C	1.146615	0.400002	0.000066
C52	C	1.646615	0.900002	0.500066
C53	C	1.157460	0.506145	0.000059
C54	C	1.657460	1.006145	0.500059
N55	N	1.153822	0.211012	-0.265442
N56	N	1.653822	0.711012	0.234558
C57	C	1.112069	0.252879	0.474640
C58	C	1.612069	0.752879	0.974640
C59	C	1.165585	0.199208	0.525524
C60	C	1.665585	0.699208	1.025524
C61	C	1.159039	0.205778	0.641841
C62	C	1.659039	0.705778	1.141841
C63	C	1.118615	0.246310	0.358312
C64	C	1.618615	0.746310	0.858312
H65	H	1.251418	-0.262084	0.000013
H66	H	1.751418	0.237916	0.500013
N67	N	1.229237	0.135367	0.470611
N68	N	1.729237	0.635367	0.970611
N69	N	1.197181	0.070236	0.410722
N70	N	1.697181	0.570236	0.910722
H71	H	1.242140	0.025151	0.371943
H72	H	1.742140	0.525151	0.871943
H73	H	1.626943	0.113459	0.000085
H74	H	2.126943	0.613459	0.500085
N75	N	1.007378	-0.295371	0.000058
N76	N	1.507378	0.204629	0.500058
N77	N	0.998438	-0.384423	0.000051
N78	N	1.498438	0.115577	0.500051
H79	H	0.932766	-0.417611	0.000043
H80	H	1.432766	0.082389	0.500043
N81	N	1.048431	0.316702	0.529585
N82	N	1.548431	0.816702	1.029585
N83	N	1.043140	0.322014	0.625366
N84	N	1.543140	0.822014	1.125366
H85	H	0.998198	0.367090	0.664184
H86	H	1.498198	0.867090	1.164184
H87	H	1.650704	0.338633	0.000063
H88	H	2.150704	0.838633	0.500063
