data_functionalizedCrystal
_audit_creation_method	'MofGen! by Chris Wilmer'
_symmetry_space_group_name_H-M	'P1'
_symmetry_Int_Tables_number	1
_symmetry_cell_setting	triclinic
loop_
_symmetry_equiv_pos_as_xyz
  x,y,z
_cell_length_a	8.497365
_cell_length_b	21.395362
_cell_length_c	21.395361
_cell_angle_alpha	89.953415
_cell_angle_beta	90.058682
_cell_angle_gamma	89.946225
loop_
_atom_site_label
_atom_site_type_symbol
_atom_site_fract_x
_atom_site_fract_y
_atom_site_fract_z
Zn1	Zn	-0.892772	0.957921	0.249015
Zn2	Zn	-0.392772	1.457921	0.749015
Zn3	Zn	-0.628941	0.957805	0.353843
Zn4	Zn	-0.128941	1.457805	0.853843
Zn5	Zn	-0.628901	0.853117	0.249113
Zn6	Zn	-0.128901	1.353117	0.749113
Zn7	Zn	-0.892575	0.853105	0.353788
Zn8	Zn	-0.392575	1.353105	0.853788
O9	O	-0.760797	0.905487	0.301440
O10	O	-0.260797	1.405487	0.801440
O11	O	-0.857873	1.045583	0.262903
O12	O	-0.357873	1.545583	0.762903
O13	O	-0.408173	0.943875	0.340014
O14	O	0.091827	1.443875	0.840014
O15	O	-0.663970	0.867074	0.161422
O16	O	-0.163970	1.367074	0.661422
O17	O	-0.664038	1.045498	0.339920
O18	O	-0.164038	1.545498	0.839920
O19	O	-0.857835	0.944072	0.161350
O20	O	-0.357835	1.444072	0.661350
O21	O	-0.408144	0.866961	0.263069
O22	O	0.091856	1.366961	0.763069
O23	O	-0.663779	0.765438	0.263016
O24	O	-0.163779	1.265438	0.763016
O25	O	-1.113364	0.867052	0.339826
O26	O	-0.613364	1.367052	0.839826
O27	O	-0.857499	0.765428	0.339920
O28	O	-0.357499	1.265428	0.839920
O29	O	-1.113509	0.944059	0.262850
O30	O	-0.613509	1.444059	0.762850
O31	O	-0.663847	0.943863	0.441514
O32	O	-0.163847	1.443863	0.941514
O33	O	-0.857538	0.866940	0.441474
O34	O	-0.357538	1.366940	0.941474
C35	C	-0.760614	0.742699	0.301473
C36	C	-0.260614	1.242699	0.801473
C37	C	-0.760573	0.673058	0.301502
C38	C	-0.260573	1.173058	0.801502
C39	C	-0.760709	0.905404	0.464228
C40	C	-0.260709	1.405404	0.964228
C41	C	-0.760725	0.905426	0.533869
C42	C	-0.260725	1.405426	1.033869
C43	C	-0.861292	0.640356	0.341600
C44	C	-0.361292	1.140356	0.841600
C45	C	-0.861363	0.574921	0.341584
C46	C	-0.361363	1.074921	0.841584
C47	C	-0.760686	0.542190	0.301478
C48	C	-0.260686	1.042190	0.801478
C49	C	-0.659960	0.574899	0.261373
C50	C	-0.159960	1.074899	0.761373
C51	C	-0.659904	0.640333	0.261385
C52	C	-0.159904	1.140333	0.761385
C53	C	-0.618665	0.438455	0.296467
C54	C	-0.118665	0.938455	0.796467
C55	C	-0.618718	0.373022	0.296460
C56	C	-0.118718	0.873022	0.796460
C57	C	-0.760860	0.340369	0.301437
C58	C	-0.260860	0.840369	0.801437
C59	C	-0.902953	0.373157	0.306436
C60	C	-0.402953	0.873157	0.806436
C61	C	-0.902896	0.438591	0.306448
C62	C	-0.402896	0.938591	0.806448
C63	C	-0.760736	0.471237	0.301460
C64	C	-0.260736	0.971237	0.801460
C65	C	-0.861664	0.236715	0.341520
C66	C	-0.361664	0.736715	0.841520
C67	C	-0.861737	0.171278	0.341500
C68	C	-0.361737	0.671278	0.841500
C69	C	-0.660320	0.171258	0.261292
C70	C	-0.160320	0.671258	0.761292
C71	C	-0.660261	0.236693	0.261309
C72	C	-0.160261	0.736693	0.761309
C73	C	-0.760931	0.269418	0.301426
C74	C	-0.260931	0.769418	0.801426
C75	C	-0.350917	0.905442	0.301508
C76	C	0.149083	1.405442	0.801508
C77	C	-0.172274	0.905531	0.301380
C78	C	0.327726	1.405531	0.801380
C79	C	-0.760982	1.068910	0.301407
C80	C	-0.260982	1.568910	0.801407
C81	C	-0.761061	1.138552	0.301393
C82	C	-0.261061	1.638552	0.801393
C83	C	-0.760920	0.905587	0.138017
C84	C	-0.260920	1.405587	0.638017
C85	C	-0.760972	0.905630	0.068375
C86	C	-0.260972	1.405630	0.568375
C87	C	-0.659973	0.945515	0.566582
C88	C	-0.159973	1.445515	1.066582
C89	C	-0.660008	0.945545	0.632018
C90	C	-0.160008	1.445545	1.132018
C91	C	-0.760779	0.905473	0.664737
C92	C	-0.260779	1.405473	1.164737
C93	C	-0.861550	0.865381	0.632016
C94	C	-0.361550	1.365381	1.132016
C95	C	-0.861523	0.865358	0.566582
C96	C	-0.361523	1.365358	1.066582
C97	C	-0.773093	0.849059	0.768465
C98	C	-0.273093	1.349059	1.268465
C99	C	-0.773109	0.849082	0.833898
C100	C	-0.273109	1.349082	1.333898
C101	C	-0.760871	0.905546	0.866558
C102	C	-0.260871	1.405546	1.366558
C103	C	-0.748584	0.961990	0.833777
C104	C	-0.248584	1.461990	1.333777
C105	C	-0.748557	0.961966	0.768343
C106	C	-0.248557	1.461966	1.268343
C107	C	-0.760820	0.905495	0.735689
C108	C	-0.260820	1.405495	1.235689
C109	C	-0.660153	0.945670	0.970224
C110	C	-0.160153	1.445670	1.470224
C111	C	-0.660199	0.945701	1.035660
C112	C	-0.160199	1.445701	1.535660
C113	C	-0.861732	0.865532	1.035657
C114	C	-0.361732	1.365532	1.535657
C115	C	-0.861694	0.865507	0.970222
C116	C	-0.361694	1.365507	1.470222
C117	C	-0.760896	0.905576	0.937509
C118	C	-0.260896	1.405576	1.437509
H119	H	-0.943268	0.666997	0.374266
H120	H	-0.443268	1.166997	0.874266
H121	H	-1.018698	0.346572	0.310488
H122	H	-0.518698	0.846572	0.810488
H123	H	-0.577991	0.548245	0.228717
H124	H	-0.077991	1.048245	0.728717
Br125	Br	-0.425740	0.482764	0.289712
Br126	Br	0.074260	0.982764	0.789712
H127	H	-0.503018	0.346332	0.292393
H128	H	-0.003018	0.846332	0.792393
H129	H	-0.578081	0.978299	0.943588
H130	H	-0.078081	1.478299	1.443588
H131	H	-0.578158	0.978350	1.062294
H132	H	-0.078158	1.478350	1.562294
H133	H	-0.578236	0.263319	0.228660
H134	H	-0.078236	0.763319	0.728660
H135	H	-0.577886	0.666959	0.228731
H136	H	-0.077886	1.166959	0.728731
Br137	Br	-0.523265	0.999955	0.676424
Br138	Br	-0.023265	1.499955	1.176424
H139	H	-0.783099	0.803122	0.860583
H140	H	-0.283099	1.303122	1.360583
H141	H	-0.943601	0.832756	0.658660
H142	H	-0.443601	1.332756	1.158660
H143	H	-0.943643	0.263361	0.374183
H144	H	-0.443643	0.763361	0.874183
H145	H	-0.738557	1.007924	0.741654
H146	H	-0.238557	1.507924	1.241654
H147	H	-1.018593	0.465284	0.310516
H148	H	-0.518593	0.965284	0.810516
H149	H	-0.577901	0.978143	0.539949
H150	H	-0.077901	1.478143	1.039949
Br151	Br	-0.998453	0.126896	0.395918
Br152	Br	-0.498453	0.626896	0.895918
Br153	Br	-0.731950	1.038625	0.878093
Br154	Br	-0.231950	1.538625	1.378093
H155	H	-0.578354	0.144609	0.228634
H156	H	-0.078354	0.644609	0.728634
Br157	Br	-0.998511	0.811154	1.080055
Br158	Br	-0.498511	1.311154	1.580055
Br159	Br	-0.998433	0.811096	0.925822
Br160	Br	-0.498433	1.311096	1.425822
Br161	Br	-0.998270	0.810947	0.522182
Br162	Br	-0.498270	1.310947	1.022182
Br163	Br	-0.789709	0.772422	0.724147
Br164	Br	-0.289709	1.272422	1.224147
H165	H	-0.943386	0.548290	0.374236
H166	H	-0.443386	1.048290	0.874236
