data_functionalizedCrystal
_audit_creation_method	'MofGen! by Chris Wilmer'
_symmetry_space_group_name_H-M	'P1'
_symmetry_Int_Tables_number	1
_symmetry_cell_setting	triclinic
loop_
_symmetry_equiv_pos_as_xyz
  x,y,z
_cell_length_a	23.532407
_cell_length_b	23.532407
_cell_length_c	7.088929
_cell_angle_alpha	83.810936
_cell_angle_beta	96.167054
_cell_angle_gamma	82.848712
loop_
_atom_site_label
_atom_site_type_symbol
_atom_site_fract_x
_atom_site_fract_y
_atom_site_fract_z
O1	O	0.749384	0.075019	-0.158890
O2	O	1.249384	0.575019	0.341110
O3	O	0.583519	0.085024	-0.158923
O4	O	1.083519	0.585024	0.341077
O5	O	0.671454	-0.002912	-0.158870
O6	O	1.171454	0.497088	0.341130
O7	O	0.661448	0.162954	-0.158942
O8	O	1.161448	0.662954	0.341058
O9	O	0.683206	-0.014690	0.159112
O10	O	1.183206	0.485310	0.659112
O11	O	0.595271	0.073245	0.159060
O12	O	1.095271	0.573245	0.659060
O13	O	0.761135	0.063241	0.159093
O14	O	1.261135	0.563241	0.659093
Cu15	Cu	0.679276	0.067168	0.188110
Cu16	Cu	1.179276	0.567168	0.688110
Cu17	Cu	0.665378	0.081097	-0.187940
Cu18	Cu	1.165378	0.581097	0.312060
O19	O	0.673200	0.151176	0.159040
O20	O	1.173200	0.651176	0.659040
C21	C	0.568179	0.078880	0.000065
C22	C	1.068179	0.578880	0.500065
C23	C	0.504961	0.078114	0.000054
C24	C	1.004961	0.578114	0.500054
C25	C	0.238797	0.022916	0.000130
C26	C	0.738797	0.522916	0.500130
C27	C	0.298197	0.023628	0.000129
C28	C	0.798197	0.523628	0.500129
O29	O	0.334944	-0.020161	0.000214
O30	O	0.834944	0.479839	0.500214
N31	N	0.320822	0.075905	0.000093
N32	N	0.820822	0.575905	0.500093
C33	C	0.284044	0.127474	0.000078
C34	C	0.784044	0.627474	0.500078
O35	O	0.308742	0.172006	0.000049
O36	O	0.808742	0.672006	0.500049
C37	C	0.224645	0.126761	0.000092
C38	C	0.724645	0.626761	0.500092
C39	C	0.202023	0.074481	0.000109
C40	C	0.702023	0.574481	0.500109
C41	C	0.216174	-0.029360	0.000148
C42	C	0.716174	0.470640	0.500148
C43	C	0.156778	-0.030071	0.000145
C44	C	0.656778	0.469929	0.500145
C45	C	0.120004	0.021494	0.000124
C46	C	0.620004	0.521494	0.500124
C47	C	0.142627	0.073770	0.000106
C48	C	0.642627	0.573770	0.500106
C49	C	0.187869	0.178329	0.000091
C50	C	0.687869	0.678329	0.500091
C51	C	0.128467	0.177612	0.000107
C52	C	0.628467	0.677612	0.500107
C53	C	0.105845	0.125332	0.000123
C54	C	0.605845	0.625332	0.500123
C55	C	0.046457	0.124624	0.000082
C56	C	0.546457	0.624624	0.500082
N57	N	0.023832	0.072346	0.000118
N58	N	0.523832	0.572346	0.500118
C59	C	0.060606	0.020781	0.000139
C60	C	0.560606	0.520781	0.500139
C61	C	0.408785	0.128966	0.000051
C62	C	0.908785	0.628966	0.500051
C63	C	0.468182	0.129680	0.000023
C64	C	0.968182	0.629680	0.500023
C65	C	0.482331	0.025833	0.000077
C66	C	0.982331	0.525833	0.500077
C67	C	0.422933	0.025121	0.000092
C68	C	0.922933	0.525121	0.500092
C69	C	0.386160	0.076689	0.000086
C70	C	0.886160	0.576689	0.500086
C71	C	-0.064131	0.019292	0.000131
C72	C	0.435869	0.519292	0.500131
C73	C	-0.123534	0.018586	0.000121
C74	C	0.376466	0.518586	0.500121
C75	C	-0.137678	0.122432	0.000076
C76	C	0.362322	0.622432	0.500076
C77	C	-0.078281	0.123139	0.000077
C78	C	0.421719	0.623139	0.500077
C79	C	-0.041508	0.071564	0.000111
C80	C	0.458492	0.571564	0.500111
O81	O	0.009675	0.168390	0.000004
O82	O	0.509675	0.668390	0.500004
O83	O	0.035900	-0.023744	0.000193
O84	O	0.535900	0.476256	0.500193
C85	C	0.677076	-0.030017	0.000126
C86	C	1.177076	0.469983	0.500126
C87	C	0.676310	-0.093234	0.000140
C88	C	1.176310	0.406766	0.500140
C89	C	0.723540	-0.492334	0.000045
C90	C	1.223540	0.007666	0.500045
C91	C	0.722828	-0.551734	0.000030
C92	C	1.222828	-0.051734	0.500030
O93	O	0.766612	-0.588476	-0.000032
O94	O	1.266612	-0.088476	0.499968
N95	N	0.670551	-0.574360	0.000021
N96	N	1.170551	-0.074360	0.500021
C97	C	0.618983	-0.537581	0.000008
C98	C	1.118983	-0.037581	0.500008
O99	O	0.574452	-0.562281	-0.000003
O100	O	1.074452	-0.062281	0.499997
C101	C	0.619695	-0.478182	0.000009
C102	C	1.119695	0.021818	0.500009
C103	C	0.671976	-0.455561	0.000037
C104	C	1.171976	0.044439	0.500037
C105	C	0.775817	-0.469712	0.000071
C106	C	1.275817	0.030288	0.500071
C107	C	0.776528	-0.410316	0.000089
C108	C	1.276528	0.089684	0.500089
C109	C	0.724964	-0.373543	0.000081
C110	C	1.224964	0.126457	0.500081
C111	C	0.672687	-0.396165	0.000055
C112	C	1.172687	0.103835	0.500055
C113	C	0.568126	-0.441405	-0.000019
C114	C	1.068126	0.058595	0.499981
C115	C	0.568843	-0.382002	-0.000019
C116	C	1.068843	0.117998	0.499981
C117	C	0.621124	-0.359381	0.000009
C118	C	1.121124	0.140619	0.500009
C119	C	0.621835	-0.299997	0.000065
C120	C	1.121835	0.200003	0.500065
N121	N	0.674111	-0.277371	0.000074
N122	N	1.174111	0.222629	0.500074
C123	C	0.725676	-0.314144	0.000082
C124	C	1.225676	0.185856	0.500082
C125	C	0.617491	-0.662324	0.000002
C126	C	1.117491	-0.162324	0.500002
C127	C	0.616779	-0.721722	0.000015
C128	C	1.116779	-0.221722	0.500015
C129	C	0.720624	-0.735870	0.000034
C130	C	1.220624	-0.235870	0.500034
C131	C	0.721337	-0.676471	0.000035
C132	C	1.221337	-0.176471	0.500035
C133	C	0.669768	-0.639698	0.000011
C134	C	1.169768	-0.139698	0.500011
C135	C	0.727167	-0.189409	0.000122
C136	C	1.227167	0.310591	0.500122
C137	C	0.727875	-0.130008	0.000148
C138	C	1.227875	0.369992	0.500148
C139	C	0.624029	-0.115864	0.000119
C140	C	1.124029	0.384136	0.500119
C141	C	0.623322	-0.175261	0.000103
C142	C	1.123322	0.324739	0.500103
C143	C	0.674895	-0.212032	0.000098
C144	C	1.174895	0.287968	0.500098
O145	O	0.578074	-0.263220	0.000119
O146	O	1.078074	0.236780	0.500119
O147	O	0.770199	-0.289436	0.000068
O148	O	1.270199	0.210564	0.500068
C149	C	0.776475	0.069385	0.000101
C150	C	1.276475	0.569385	0.500101
C151	C	0.839692	0.070151	0.000099
C152	C	1.339692	0.570151	0.500099
C153	C	0.667579	0.178282	0.000040
C154	C	1.167579	0.678282	0.500040
C155	C	0.668343	0.241500	0.000013
C156	C	1.168343	0.741500	0.500013
N157	N	0.689055	0.057371	0.452604
N158	N	1.189055	0.557371	0.952604
N159	N	0.655604	0.090890	-0.452434
N160	N	1.155604	0.590890	0.047566
H161	H	-0.034198	-0.022705	0.000158
H162	H	0.465802	0.477295	0.500158
F163	F	0.132709	-0.085715	0.000148
F164	F	0.632709	0.414285	0.500148
H165	H	0.526848	-0.352064	-0.000042
H166	H	1.026848	0.147936	0.499958
F167	F	-0.147606	-0.037060	0.000126
F168	F	0.352394	0.462940	0.500126
F169	F	0.610288	0.136292	0.440823
F170	F	1.110288	0.636292	0.940823
H171	H	0.206276	0.220902	0.000069
H172	H	0.706276	0.720902	0.500069
H173	H	0.723730	0.022637	0.534281
H174	H	1.223730	0.522637	1.034281
F175	F	0.775504	-0.775017	0.000033
F176	F	1.275504	-0.275017	0.500033
F177	F	0.492250	0.185325	-0.000031
F178	F	0.992250	0.685325	0.499969
F179	F	0.089334	0.232499	0.000109
F180	F	0.589334	0.732499	0.500109
F181	F	0.255304	-0.084248	0.000176
F182	F	0.755304	0.415752	0.500176
H183	H	0.404518	-0.017450	0.000106
H184	H	0.904518	0.482550	0.500106
F185	F	0.561136	-0.745792	0.000019
F186	F	1.061136	-0.245792	0.500019
H187	H	-0.059861	0.165710	0.000061
H188	H	0.440139	0.665710	0.500061
H189	H	0.512284	-0.016154	0.000095
H190	H	1.012284	0.483846	0.500095
H191	H	0.378847	0.170963	0.000032
H192	H	0.878847	0.670963	0.500032
H193	H	-0.167630	0.164415	0.000049
H194	H	0.332370	0.664415	0.500049
H195	H	0.763908	-0.658057	0.000057
H196	H	1.263908	-0.158057	0.500057
H197	H	0.770450	-0.111593	0.000177
H198	H	1.270450	0.388407	0.500177
H199	H	0.819100	-0.391903	0.000105
H200	H	1.319100	0.108097	0.500105
H201	H	0.769163	-0.219341	0.000111
H202	H	1.269163	0.280659	0.500111
H203	H	0.582047	-0.085913	0.000119
H204	H	1.082047	0.414087	0.500119
F205	F	0.830704	-0.508841	0.000079
F206	F	1.330704	-0.008841	0.500079
H207	H	0.575496	-0.632386	-0.000001
H208	H	1.075496	-0.132386	0.499999
F209	F	0.512481	-0.465467	-0.000057
F210	F	1.012481	0.034533	0.499943
H211	H	0.580752	-0.193682	0.000133
H212	H	1.080752	0.306318	0.500133
