data_functionalizedCrystal
_audit_creation_method	'MofGen! by Chris Wilmer'
_symmetry_space_group_name_H-M	'P1'
_symmetry_Int_Tables_number	1
_symmetry_cell_setting	triclinic
loop_
_symmetry_equiv_pos_as_xyz
  x,y,z
_cell_length_a	10.540510
_cell_length_b	19.288840
_cell_length_c	18.366186
_cell_angle_alpha	89.983729
_cell_angle_beta	90.006732
_cell_angle_gamma	96.180337
loop_
_atom_site_label
_atom_site_type_symbol
_atom_site_fract_x
_atom_site_fract_y
_atom_site_fract_z
O1	O	-0.158196	0.922410	-0.060672
O2	O	-0.179590	0.720289	-0.060647
O3	O	0.015920	0.825971	-0.060654
O4	O	-0.353705	0.816727	-0.060665
O5	O	0.015930	0.825953	0.060445
O6	O	-0.179580	0.720270	0.060452
O7	O	-0.158186	0.922392	0.060427
Zn8	Zn	-0.168882	0.821328	0.079667
Zn9	Zn	-0.168894	0.821352	-0.079887
O10	O	-0.353696	0.816709	0.060434
C11	C	-0.178902	0.694398	-0.000094
C12	C	-0.176851	0.617280	-0.000085
C13	C	-0.175871	0.581080	-0.066098
C14	C	-0.173931	0.508620	-0.066106
C15	C	-0.172944	0.472365	-0.000098
C16	C	-0.173931	0.508574	0.065923
C17	C	-0.175885	0.581031	0.065930
C18	C	-0.095496	0.362518	0.050465
C19	C	-0.093535	0.290062	0.050455
C20	C	-0.166924	0.248882	-0.000117
C21	C	-0.242259	0.280167	-0.050692
C22	C	-0.244212	0.352625	-0.050685
C23	C	-0.170826	0.393797	-0.000099
C24	C	-0.163842	0.134112	-0.066145
C25	C	-0.161909	0.061651	-0.066151
C26	C	-0.161897	0.061606	0.065881
C27	C	-0.163842	0.134066	0.065885
C28	C	-0.164809	0.170315	-0.000130
C29	C	-0.400989	0.817407	-0.000117
C30	C	-0.541892	0.819468	-0.000122
C31	C	-0.760996	0.746051	0.000174
C32	C	-0.614450	0.743852	-0.000109
C33	C	-0.585805	0.858187	-0.069276
C34	C	-0.732529	0.859850	-0.069323
C35	C	-0.732256	0.861403	0.068390
C36	C	-0.585995	0.857816	0.069293
C37	C	0.063213	0.825273	-0.000105
C38	C	0.204117	0.823212	-0.000105
C39	C	-0.158874	0.948282	-0.000127
C40	C	-0.160924	1.025400	-0.000142
N41	N	-0.168872	0.821317	0.188558
N42	N	-0.168893	0.821369	-0.188778
C43	C	-0.082343	0.868129	0.226655
C44	C	-0.082337	0.868133	0.302883
C45	C	-0.168883	0.821332	0.341011
C46	C	-0.255419	0.774512	0.302904
C47	C	-0.255413	0.774504	0.226678
C48	C	-0.284540	0.812799	0.461768
C49	C	-0.284547	0.812812	0.537993
C50	C	-0.168899	0.821352	0.576118
C51	C	-0.053238	0.829895	0.538009
C52	C	-0.053233	0.829887	0.461782
C53	C	-0.168897	0.821335	0.423665
C54	C	-0.082356	0.868172	0.696870
C55	C	-0.082349	0.868171	0.773099
C56	C	-0.255441	0.774553	0.773119
C57	C	-0.255437	0.774550	0.696892
C58	C	-0.168896	0.821363	0.658772
H59	H	-0.161119	0.032177	-0.119909
H60	H	-0.325883	0.736404	0.333952
O61	O	0.071521	0.839111	0.579107
H62	H	0.079464	0.792682	0.613848
O63	O	-0.325398	0.386421	-0.105222
H64	H	-0.426970	0.365752	-0.097779
O65	O	-0.819536	0.707270	-0.065137
H66	H	-0.742842	0.688700	-0.099034
H67	H	-0.176684	0.610505	0.119688
O68	O	-0.817438	0.707011	0.065866
H69	H	-0.739603	0.688738	0.099103
H70	H	-0.378725	0.805860	0.569016
O71	O	-0.012279	0.256320	0.104997
H72	H	-0.074094	0.219102	0.139128
O73	O	-0.409283	0.803592	0.420649
H74	H	-0.489706	0.797666	0.459953
O75	O	-0.348772	0.724058	0.655799
H76	H	-0.334220	0.731910	0.596389
H77	H	-0.555571	0.831312	-0.120738
H78	H	-0.537166	0.913854	-0.071856
O79	O	0.010994	0.918650	0.655746
H80	H	0.071182	0.951195	0.695048
O81	O	-0.576445	0.703725	0.065552
H82	H	-0.625014	0.649768	0.063511
H83	H	-0.775220	0.837497	0.120809
O84	O	-0.172848	0.469564	-0.137308
H85	H	-0.173835	0.506944	-0.183210
H86	H	-0.176658	0.610590	-0.119852
O87	O	0.010991	0.918628	0.343986
H88	H	-0.042301	0.952638	0.378697
H89	H	-0.161101	0.032087	0.119626
O90	O	-0.761327	0.934761	-0.073494
H91	H	-0.817862	0.942269	-0.123322
O92	O	-0.164877	0.173213	-0.137344
H93	H	-0.166373	0.229681	-0.126250
O94	O	-0.548825	0.820537	0.137067
H95	H	-0.499150	0.774884	0.121388
O96	O	-0.016343	0.406932	0.105018
H97	H	0.052574	0.444621	0.075715
H98	H	-0.011879	0.906289	0.804119
H99	H	-0.753139	0.918175	0.068853
O100	O	-0.164918	0.173116	0.137085
H101	H	-0.163909	0.135735	0.182985
O102	O	-0.519362	0.930943	0.074814
H103	H	-0.552658	0.956498	0.124367
H104	H	-0.011873	0.906245	0.195620
O105	O	0.071503	0.839088	0.420675
H106	H	0.151926	0.845023	0.459985
H107	H	-0.325877	0.736383	0.195658
H108	H	-0.302025	0.246639	-0.091871
O109	O	-0.348794	0.724073	0.814230
H110	H	-0.334268	0.731945	0.873637
H111	H	-0.173131	0.479050	0.119667
H112	H	-0.586744	0.713400	-0.049766
H113	H	-0.773355	0.833404	-0.121010
