data_functionalizedCrystal
_audit_creation_method	'MofGen! by Chris Wilmer'
_symmetry_space_group_name_H-M	'P1'
_symmetry_Int_Tables_number	1
_symmetry_cell_setting	triclinic
loop_
_symmetry_equiv_pos_as_xyz
  x,y,z
_cell_length_a	26.210047
_cell_length_b	27.732048
_cell_length_c	27.732048
_cell_angle_alpha	97.357345
_cell_angle_beta	90.000479
_cell_angle_gamma	89.996535
loop_
_atom_site_label
_atom_site_type_symbol
_atom_site_fract_x
_atom_site_fract_y
_atom_site_fract_z
O1	O	0.042369	-0.640931	0.057510
O2	O	0.375702	-0.307598	0.390843
O3	O	0.709035	0.025736	0.724177
O4	O	0.042385	-0.500138	0.066256
O5	O	0.375718	-0.166804	0.399589
O6	O	0.709052	0.166529	0.732922
O7	O	0.042367	-0.574907	-0.008514
O8	O	0.375700	-0.241574	0.324819
O9	O	0.709033	0.091760	0.658153
O10	O	0.042387	-0.566162	0.132279
O11	O	0.375720	-0.232828	0.465613
O12	O	0.709054	0.100505	0.798946
O13	O	-0.042491	-0.574893	-0.008502
O14	O	0.290842	-0.241559	0.324831
O15	O	0.624175	0.091774	0.658164
O16	O	-0.042473	-0.500123	0.066267
O17	O	0.290860	-0.166790	0.399601
O18	O	0.624194	0.166543	0.732934
O19	O	-0.042489	-0.640917	0.057522
O20	O	0.290844	-0.307583	0.390855
O21	O	0.624177	0.025750	0.724188
Cu22	Cu	-0.050229	-0.570519	0.061896
Cu23	Cu	0.283104	-0.237185	0.395229
Cu24	Cu	0.616437	0.096148	0.728562
Cu25	Cu	0.050125	-0.570536	0.061882
Cu26	Cu	0.383458	-0.237202	0.395215
Cu27	Cu	0.716792	0.096131	0.728548
O28	O	-0.042471	-0.566147	0.132291
O29	O	0.290862	-0.232814	0.465625
O30	O	0.624196	0.100519	0.798958
C31	C	-0.000042	-0.482124	0.066078
C32	C	0.333291	-0.148790	0.399411
C33	C	0.666624	0.184543	0.732744
C34	C	-0.000036	-0.428469	0.065525
C35	C	0.333297	-0.095135	0.398858
C36	C	0.666630	0.238198	0.732192
N37	N	-0.120813	-0.570510	0.061905
N38	N	0.212520	-0.237177	0.395238
N39	N	0.545853	0.096156	0.728572
C40	C	-0.000064	-0.574716	-0.026515
C41	C	0.333269	-0.241383	0.306818
C42	C	0.666603	0.091950	0.640152
C43	C	-0.000068	-0.574164	-0.080170
C44	C	0.333265	-0.240830	0.253163
C45	C	0.666599	0.092503	0.586497
C46	C	-0.473336	-0.603640	0.028781
C47	C	-0.140002	-0.270307	0.362115
C48	C	0.193331	0.063026	0.695448
C49	C	-0.686994	-0.603651	0.028774
C50	C	-0.353661	-0.270318	0.362108
C51	C	-0.020327	0.063016	0.695441
O52	O	-0.714623	-0.631801	0.000614
O53	O	-0.381290	-0.298467	0.333947
O54	O	-0.047956	0.034866	0.667280
N55	N	-0.713707	-0.570538	0.061871
N56	N	-0.380374	-0.237205	0.395204
N57	N	-0.047041	0.096128	0.728538
C58	C	-0.687003	-0.537419	0.094970
C59	C	-0.353669	-0.204085	0.428303
C60	C	-0.020336	0.129248	0.761636
O61	O	-0.714626	-0.509251	0.123117
O62	O	-0.381293	-0.175918	0.456450
O63	O	-0.047960	0.157415	0.789784
C64	C	-0.473345	-0.537406	0.094974
C65	C	-0.140012	-0.204073	0.428307
C66	C	0.193322	0.129261	0.761640
C67	C	-0.446635	-0.570524	0.061878
C68	C	-0.113301	-0.237191	0.395212
C69	C	0.220032	0.096143	0.728545
C70	C	-0.446625	-0.636755	-0.004312
C71	C	-0.113292	-0.303422	0.329021
C72	C	0.220042	0.029912	0.662355
C73	C	-0.393214	-0.636754	-0.004308
C74	C	-0.059880	-0.303421	0.329025
C75	C	0.273453	0.029913	0.662358
C76	C	-0.366513	-0.603638	0.028789
C77	C	-0.033179	-0.270304	0.362122
C78	C	0.300154	0.063029	0.695455
C79	C	-0.393223	-0.570523	0.061882
C80	C	-0.059890	-0.237189	0.395215
C81	C	0.273444	0.096144	0.728549
C82	C	-0.446641	-0.504284	0.128070
C83	C	-0.113308	-0.170951	0.461403
C84	C	0.220025	0.162382	0.794736
C85	C	-0.393223	-0.504283	0.128067
C86	C	-0.059890	-0.170950	0.461400
C87	C	0.273443	0.162383	0.794734
C88	C	-0.366513	-0.537401	0.094971
C89	C	-0.033180	-0.204068	0.428305
C90	C	0.300154	0.129265	0.761638
C91	C	-0.313111	-0.537405	0.094983
C92	C	0.020223	-0.204072	0.428316
C93	C	0.353556	0.129261	0.761649
N94	N	-0.286397	-0.570518	0.061886
N95	N	0.046936	-0.237185	0.395219
N96	N	0.380269	0.096149	0.728553
C97	C	-0.313098	-0.603634	0.028789
C98	C	0.020235	-0.270301	0.362122
C99	C	0.353568	0.063033	0.695456
C100	C	-0.799176	-0.537428	0.094966
C101	C	-0.465843	-0.204095	0.428299
C102	C	-0.132509	0.129238	0.761632
C103	C	-0.852590	-0.537432	0.094965
C104	C	-0.519257	-0.204099	0.428299
C105	C	-0.185923	0.129235	0.761632
C106	C	-0.852578	-0.603664	0.028769
C107	C	-0.519245	-0.270330	0.362103
C108	C	-0.185911	0.063003	0.695436
C109	C	-0.799163	-0.603662	0.028773
C110	C	-0.465829	-0.270329	0.362106
C111	C	-0.132496	0.063005	0.695439
C112	C	-0.772463	-0.570541	0.061869
C113	C	-0.439129	-0.237207	0.395202
C114	C	-0.105796	0.096126	0.728536
C115	C	-0.200931	-0.603629	0.028800
C116	C	0.132403	-0.270296	0.362133
C117	C	0.465736	0.063037	0.695467
C118	C	-0.147514	-0.603626	0.028808
C119	C	0.185819	-0.270293	0.362141
C120	C	0.519152	0.063040	0.695475
C121	C	-0.147531	-0.537393	0.095002
C122	C	0.185802	-0.204060	0.428335
C123	C	0.519135	0.129274	0.761669
C124	C	-0.200943	-0.537397	0.094996
C125	C	0.132391	-0.204064	0.428329
C126	C	0.465724	0.129269	0.761662
C127	C	-0.227641	-0.570517	0.061891
C128	C	0.105692	-0.237184	0.395224
C129	C	0.439026	0.096149	0.728557
O130	O	-0.285449	-0.509267	0.123125
O131	O	0.047884	-0.175933	0.456458
O132	O	0.381218	0.157400	0.789792
O133	O	-0.285466	-0.631790	0.000639
O134	O	0.047868	-0.298457	0.333972
O135	O	0.381201	0.034877	0.667306
C136	C	-0.526747	-0.603641	0.028777
C137	C	-0.193414	-0.270308	0.362111
C138	C	0.139920	0.063025	0.695444
C139	C	-0.553457	-0.570527	0.061871
C140	C	-0.220124	-0.237193	0.395204
C141	C	0.113209	0.096140	0.728537
C142	C	-0.526756	-0.537410	0.094968
C143	C	-0.193423	-0.204077	0.428301
C144	C	0.139910	0.129256	0.761634
C145	C	-0.606872	-0.570530	0.061870
C146	C	-0.273538	-0.237197	0.395204
C147	C	0.059795	0.096136	0.728537
C148	C	-0.633573	-0.603646	0.028773
C149	C	-0.300239	-0.270313	0.362107
C150	C	0.033094	0.063020	0.695440
C151	C	-0.606859	-0.636759	-0.004323
C152	C	-0.273526	-0.303426	0.329010
C153	C	0.059807	0.029908	0.662343
C154	C	-0.553448	-0.636758	-0.004320
C155	C	-0.220115	-0.303424	0.329014
C156	C	0.113219	0.029909	0.662347
C157	C	-0.553470	-0.504298	0.128064
C158	C	-0.220136	-0.170965	0.461398
C159	C	0.113197	0.162369	0.794731
C160	C	-0.606881	-0.504302	0.128058
C161	C	-0.273548	-0.170969	0.461391
C162	C	0.059786	0.162365	0.794725
C163	C	-0.633582	-0.537418	0.094961
C164	C	-0.300249	-0.204085	0.428294
C165	C	0.033085	0.129248	0.761628
N166	N	0.120709	-0.570548	0.061868
N167	N	0.454042	-0.237215	0.395202
N168	N	0.787376	0.096119	0.728535
C169	C	-0.000061	-0.658931	0.057699
C170	C	0.333272	-0.325598	0.391033
C171	C	0.666606	0.007736	0.724366
C172	C	-0.000064	-0.712586	0.058252
C173	C	0.333270	-0.379252	0.391586
C174	C	0.666603	-0.045919	0.724919
C175	C	-0.000053	-0.089654	0.106229
C176	C	0.333281	0.243680	0.439562
C177	C	0.666614	0.577013	0.772895
C178	C	-0.000057	0.112006	0.104178
C179	C	0.333276	0.445339	0.437511
C180	C	0.666609	0.778673	0.770844
O181	O	-0.000074	0.143262	0.141398
O182	O	0.333259	0.476595	0.474732
O183	O	0.666592	0.809928	0.808065
N184	N	-0.000063	0.131130	0.059843
N185	N	0.333270	0.464463	0.393176
N186	N	0.666604	0.797796	0.726509
C187	C	-0.000071	0.099835	0.016017
C188	C	0.333263	0.433168	0.349350
C189	C	0.666596	0.766502	0.682684
O190	O	-0.000081	0.120728	-0.021740
O191	O	0.333253	0.454062	0.311593
O192	O	0.666586	0.787395	0.644927
C193	C	-0.000069	-0.101824	0.018068
C194	C	0.333264	0.231510	0.351402
C195	C	0.666597	0.564843	0.684735
C196	C	-0.000059	-0.120944	0.062407
C197	C	0.333275	0.212389	0.395740
C198	C	0.666608	0.545722	0.729073
C199	C	-0.000043	-0.108775	0.150563
C200	C	0.333291	0.224558	0.483897
C201	C	0.666624	0.557892	0.817230
C202	C	-0.000039	-0.159187	0.151076
C203	C	0.333295	0.174147	0.484409
C204	C	0.666628	0.507480	0.817742
C205	C	-0.000045	-0.190477	0.107253
C206	C	0.333289	0.142856	0.440587
C207	C	0.666622	0.476189	0.773920
C208	C	-0.000055	-0.171356	0.062919
C209	C	0.333279	0.161977	0.396252
C210	C	0.666612	0.495310	0.729585
C211	C	-0.000081	-0.133117	-0.025757
C212	C	0.333253	0.200216	0.307577
C213	C	0.666586	0.533549	0.640910
C214	C	-0.000082	-0.183535	-0.025240
C215	C	0.333252	0.149799	0.308094
C216	C	0.666585	0.483132	0.641427
C217	C	-0.000071	-0.202655	0.019098
C218	C	0.333262	0.130678	0.352432
C219	C	0.666596	0.464011	0.685765
C220	C	-0.000057	-0.253059	0.019609
C221	C	0.333276	0.080275	0.352942
C222	C	0.666610	0.413608	0.686276
N223	N	-0.000051	-0.272183	0.063944
N224	N	0.333282	0.061151	0.397277
N225	N	0.666615	0.394484	0.730611
C226	C	-0.000045	-0.240892	0.107766
C227	C	0.333288	0.092441	0.441100
C228	C	0.666621	0.425775	0.774433
C229	C	-0.000070	0.205709	0.014943
C230	C	0.333263	0.539043	0.348276
C231	C	0.666596	0.872376	0.681610
C232	C	-0.000070	0.256124	0.014430
C233	C	0.333264	0.589457	0.347763
C234	C	0.666597	0.922790	0.681097
C235	C	-0.000057	0.268291	0.102591
C236	C	0.333276	0.601624	0.435924
C237	C	0.666609	0.934958	0.769258
C238	C	-0.000054	0.217876	0.103104
C239	C	0.333279	0.551209	0.436437
C240	C	0.666612	0.884542	0.769770
C241	C	-0.000065	0.186585	0.059278
C242	C	0.333269	0.519919	0.392612
C243	C	0.666602	0.853252	0.725945
C244	C	-0.000036	-0.346761	0.108839
C245	C	0.333297	-0.013428	0.442172
C246	C	0.666630	0.319906	0.775505
C247	C	-0.000030	-0.397178	0.109347
C248	C	0.333303	-0.063845	0.442681
C249	C	0.666636	0.269489	0.776014
C250	C	-0.000045	-0.409341	0.021186
C251	C	0.333288	-0.076008	0.354520
C252	C	0.666621	0.257326	0.687853
C253	C	-0.000049	-0.358929	0.020678
C254	C	0.333285	-0.025595	0.354011
C255	C	0.666618	0.307738	0.687344
C256	C	-0.000046	-0.327639	0.064508
C257	C	0.333287	0.005694	0.397841
C258	C	0.666621	0.339027	0.731175
O259	O	-0.000046	-0.284343	-0.017592
O260	O	0.333287	0.048991	0.315741
O261	O	0.666621	0.382324	0.649075
O262	O	-0.000047	-0.261794	0.145518
O263	O	0.333287	0.071539	0.478851
O264	O	0.666620	0.404872	0.812184
C265	C	-0.000057	-0.039242	0.105716
C266	C	0.333277	0.294092	0.439050
C267	C	0.666610	0.627425	0.772383
C268	C	-0.000067	-0.020120	0.061382
C269	C	0.333267	0.313213	0.394715
C270	C	0.666600	0.646546	0.728049
C271	C	-0.000073	-0.051411	0.017560
C272	C	0.333260	0.281922	0.350893
C273	C	0.666594	0.615256	0.684226
C274	C	-0.000066	0.030294	0.060869
C275	C	0.333267	0.363627	0.394202
C276	C	0.666601	0.696961	0.727536
C277	C	-0.000060	0.061585	0.104691
C278	C	0.333273	0.394918	0.438025
C279	C	0.666607	0.728251	0.771358
C280	C	-0.000054	0.042461	0.149026
C281	C	0.333279	0.375794	0.482360
C282	C	0.666612	0.709128	0.815693
C283	C	-0.000050	-0.007951	0.149539
C284	C	0.333283	0.325382	0.482872
C285	C	0.666616	0.658716	0.816205
C286	C	-0.000078	-0.032287	-0.026775
C287	C	0.333255	0.301046	0.306558
C288	C	0.666588	0.634379	0.639891
C289	C	-0.000082	0.018125	-0.027284
C290	C	0.333251	0.351459	0.306049
C291	C	0.666585	0.684792	0.639383
C292	C	-0.000076	0.049416	0.016538
C293	C	0.333258	0.382749	0.349871
C294	C	0.666591	0.716083	0.683205
C295	C	-0.000046	-0.614867	-0.418985
C296	C	0.333287	-0.281534	-0.085652
C297	C	0.666620	0.051799	0.247682
C298	C	-0.000039	-0.612816	-0.620645
C299	C	0.333294	-0.279483	-0.287311
C300	C	0.666628	0.053850	0.046022
O301	O	-0.000021	-0.650037	-0.651900
O302	O	0.333312	-0.316704	-0.318567
O303	O	0.666646	0.016630	0.014766
N304	N	-0.000034	-0.568481	-0.639768
N305	N	0.333299	-0.235148	-0.306435
N306	N	0.666632	0.098186	0.026898
C307	C	-0.000028	-0.524656	-0.608474
C308	C	0.333305	-0.191322	-0.275140
C309	C	0.666638	0.142011	0.058193
O310	O	-0.000019	-0.486899	-0.629367
O311	O	0.333314	-0.153565	-0.296033
O312	O	0.666648	0.179768	0.037300
C313	C	-0.000032	-0.526707	-0.406815
C314	C	0.333301	-0.193374	-0.073482
C315	C	0.666635	0.139960	0.259852
C316	C	-0.000042	-0.571045	-0.387694
C317	C	0.333291	-0.237712	-0.054361
C318	C	0.666625	0.095622	0.278972
C319	C	-0.000056	-0.659202	-0.399864
C320	C	0.333278	-0.325868	-0.066530
C321	C	0.666611	0.007465	0.266803
C322	C	-0.000060	-0.659714	-0.349452
C323	C	0.333273	-0.326381	-0.016118
C324	C	0.666606	0.006953	0.317215
C325	C	-0.000056	-0.615892	-0.318161
C326	C	0.333278	-0.282559	0.015172
C327	C	0.666611	0.050775	0.348506
C328	C	-0.000046	-0.571557	-0.337282
C329	C	0.333287	-0.238224	-0.003949
C330	C	0.666620	0.095109	0.329384
C331	C	-0.000022	-0.482882	-0.375521
C332	C	0.333311	-0.149549	-0.042188
C333	C	0.666644	0.183785	0.291145
C334	C	-0.000022	-0.483399	-0.325104
C335	C	0.333311	-0.150066	0.008229
C336	C	0.666645	0.183268	0.341563
C337	C	-0.000032	-0.527737	-0.305983
C338	C	0.333302	-0.194404	0.027350
C339	C	0.666635	0.138930	0.360683
C340	C	-0.000046	-0.528247	-0.255580
C341	C	0.333287	-0.194914	0.077754
C342	C	0.666620	0.138419	0.411087
N343	N	-0.000051	-0.572583	-0.236456
N344	N	0.333282	-0.239249	0.096877
N345	N	0.666616	0.094084	0.430211
C346	C	-0.000056	-0.616405	-0.267747
C347	C	0.333278	-0.283072	0.065587
C348	C	0.666611	0.050262	0.398920
C349	C	-0.000027	-0.523582	-0.714348
C350	C	0.333306	-0.190248	-0.381014
C351	C	0.666639	0.143085	-0.047681
C352	C	-0.000027	-0.523069	-0.764762
C353	C	0.333306	-0.189735	-0.431429
C354	C	0.666639	0.143598	-0.098096
C355	C	-0.000037	-0.611230	-0.776930
C356	C	0.333296	-0.277896	-0.443596
C357	C	0.666629	0.055437	-0.110263
C358	C	-0.000041	-0.611742	-0.726514
C359	C	0.333292	-0.278409	-0.393181
C360	C	0.666626	0.054925	-0.059848
C361	C	-0.000032	-0.567917	-0.695224
C362	C	0.333301	-0.234583	-0.361891
C363	C	0.666635	0.098750	-0.028557
C364	C	-0.000066	-0.617477	-0.161878
C365	C	0.333267	-0.284144	0.171456
C366	C	0.666601	0.049189	0.504789
C367	C	-0.000073	-0.617986	-0.111461
C368	C	0.333261	-0.284652	0.221873
C369	C	0.666594	0.048681	0.555206
C370	C	-0.000060	-0.529825	-0.099298
C371	C	0.333273	-0.196492	0.234036
C372	C	0.666607	0.136842	0.567369
C373	C	-0.000056	-0.529316	-0.149710
C374	C	0.333277	-0.195983	0.183623
C375	C	0.666611	0.137350	0.516957
C376	C	-0.000057	-0.573147	-0.180999
C377	C	0.333276	-0.239813	0.152334
C378	C	0.666609	0.093520	0.485667
O379	O	-0.000059	-0.491047	-0.224296
O380	O	0.333275	-0.157713	0.109038
O381	O	0.666608	0.175620	0.442371
O382	O	-0.000054	-0.654156	-0.246844
O383	O	0.333280	-0.320823	0.086489
O384	O	0.666613	0.012510	0.419823
C385	C	-0.000042	-0.614355	-0.469397
C386	C	0.333291	-0.281022	-0.136064
C387	C	0.666625	0.052312	0.197270
C388	C	-0.000033	-0.570021	-0.488518
C389	C	0.333301	-0.236687	-0.155185
C390	C	0.666634	0.096646	0.178148
C391	C	-0.000028	-0.526198	-0.457228
C392	C	0.333305	-0.192865	-0.123894
C393	C	0.666639	0.140468	0.209439
C394	C	-0.000033	-0.569508	-0.538933
C395	C	0.333301	-0.236174	-0.205599
C396	C	0.666634	0.097159	0.127734
C397	C	-0.000037	-0.613330	-0.570223
C398	C	0.333296	-0.279996	-0.236890
C399	C	0.666629	0.053337	0.096443
C400	C	-0.000042	-0.657665	-0.551100
C401	C	0.333291	-0.324332	-0.217766
C402	C	0.666625	0.009002	0.115567
C403	C	-0.000046	-0.658177	-0.500688
C404	C	0.333287	-0.324844	-0.167354
C405	C	0.666620	0.008489	0.165979
C406	C	-0.000023	-0.481863	-0.476351
C407	C	0.333310	-0.148530	-0.143018
C408	C	0.666643	0.184803	0.190315
C409	C	-0.000019	-0.481355	-0.526764
C410	C	0.333314	-0.148021	-0.193430
C411	C	0.666647	0.185312	0.139903
C412	C	-0.000024	-0.525177	-0.558054
C413	C	0.333309	-0.191843	-0.224721
C414	C	0.666643	0.141490	0.108612
C415	C	-0.000040	-0.566338	0.150292
C416	C	0.333294	-0.233005	0.483626
C417	C	0.666627	0.100329	0.816959
C418	C	-0.000032	-0.566891	0.203947
C419	C	0.333301	-0.233557	0.537280
C420	C	0.666635	0.099776	0.870614
H421	H	-0.125768	-0.630597	0.001858
H422	H	0.207565	-0.297263	0.335191
H423	H	0.540898	0.036070	0.668524
H424	H	-0.371469	-0.663720	-0.031259
H425	H	-0.038136	-0.330387	0.302075
H426	H	0.295198	0.002947	0.635408
H427	H	-0.000028	-0.486964	-0.780325
H428	H	0.333305	-0.153631	-0.446992
H429	H	0.666638	0.179703	-0.113659
H430	H	-0.000090	-0.117558	-0.061861
H431	H	0.333243	0.215775	0.271472
H432	H	0.666577	0.549108	0.604805
H433	H	-0.000016	-0.445246	-0.542327
H434	H	0.333318	-0.111913	-0.208993
H435	H	0.666651	0.221420	0.124340
H436	H	-0.000070	0.271687	-0.021674
H437	H	0.333263	0.605020	0.311659
H438	H	0.666596	0.938354	0.644992
H439	H	-0.000054	-0.694282	-0.485125
H440	H	0.333279	-0.360949	-0.151791
H441	H	0.666612	-0.027615	0.181542
H442	H	-0.000042	-0.023514	0.185643
H443	H	0.333291	0.309819	0.518977
H444	H	0.666624	0.643153	0.852310
H445	H	-0.000036	-0.321291	0.144530
H446	H	0.333297	0.012043	0.477863
H447	H	0.666631	0.345376	0.811196
H448	H	-0.222691	-0.510434	0.121950
H449	H	0.110643	-0.177101	0.455283
H450	H	0.443976	0.156232	0.788616
H451	H	-0.000048	-0.693347	-0.576585
H452	H	0.333285	-0.360013	-0.243252
H453	H	0.666619	-0.026680	0.090081
H454	H	-0.000091	-0.209009	-0.060929
H455	H	0.333243	0.124324	0.272405
H456	H	0.666576	0.457657	0.605738
H457	H	-0.222662	-0.630598	0.001842
H458	H	0.110671	-0.297265	0.335175
H459	H	0.444004	0.036069	0.668509
H460	H	-0.125783	-0.510432	0.121951
H461	H	0.207550	-0.177098	0.455284
H462	H	0.540884	0.156235	0.788617
H463	H	-0.371487	-0.477311	0.155018
H464	H	-0.038153	-0.143977	0.488351
H465	H	0.295180	0.189356	0.821684
H466	H	-0.000014	-0.447710	-0.299629
H467	H	0.333319	-0.114377	0.033704
H468	H	0.666653	0.218957	0.367037
H469	H	-0.000041	-0.646911	-0.802415
H470	H	0.333292	-0.313578	-0.469082
H471	H	0.666625	0.019755	-0.135749
H472	H	-0.000020	-0.487892	-0.688875
H473	H	0.333313	-0.154558	-0.355542
H474	H	0.666646	0.178775	-0.022208
H475	H	-0.468360	-0.663722	-0.031266
H476	H	-0.135027	-0.330389	0.302068
H477	H	0.198306	0.002944	0.635401
H478	H	-0.777418	-0.630629	0.001823
H479	H	-0.444085	-0.297296	0.335156
H480	H	-0.110752	0.036038	0.668490
H481	H	-0.000047	0.067947	0.184708
H482	H	0.333286	0.401280	0.518041
H483	H	0.666619	0.734614	0.851375
H484	H	-0.874327	-0.630629	0.001821
H485	H	-0.540994	-0.297296	0.335155
H486	H	-0.207660	0.036038	0.668488
H487	H	-0.777440	-0.510456	0.121918
H488	H	-0.444107	-0.177123	0.455252
H489	H	-0.110774	0.156210	0.788585
H490	H	-0.000030	-0.174750	0.187180
H491	H	0.333304	0.158583	0.520513
H492	H	0.666637	0.491917	0.853847
H493	H	-0.874334	-0.510469	0.121920
H494	H	-0.541001	-0.177136	0.455253
H495	H	-0.207667	0.156197	0.788587
H496	H	-0.000079	0.180236	-0.020747
H497	H	0.333255	0.513570	0.312586
H498	H	0.666588	0.846903	0.645920
H499	H	-0.000048	-0.434827	-0.014492
H500	H	0.333285	-0.101494	0.318841
H501	H	0.666618	0.231840	0.652174
H502	H	-0.000039	-0.083302	0.186251
H503	H	0.333294	0.250031	0.519584
H504	H	0.666627	0.583364	0.852917
H505	H	-0.468381	-0.477317	0.155019
H506	H	-0.135048	-0.143983	0.488352
H507	H	0.198285	0.189350	0.821685
H508	H	-0.000018	-0.446177	-0.450879
H509	H	0.333315	-0.112844	-0.117545
H510	H	0.666648	0.220490	0.215788
H511	H	-0.628608	-0.663725	-0.031271
H512	H	-0.295275	-0.330392	0.302063
H513	H	0.038059	0.002941	0.635396
H514	H	-0.000086	0.033688	-0.063392
H515	H	0.333247	0.367021	0.269941
H516	H	0.666580	0.700355	0.603275
H517	H	-0.000062	-0.493213	-0.165279
H518	H	0.333271	-0.159879	0.168055
H519	H	0.666604	0.173454	0.501388
H520	H	-0.531704	-0.663725	-0.031269
H521	H	-0.198371	-0.330392	0.302064
H522	H	0.134962	0.002941	0.635398
H523	H	-0.628625	-0.477334	0.155013
H524	H	-0.295292	-0.144001	0.488346
H525	H	0.038042	0.189332	0.821679
H526	H	-0.000058	-0.694889	-0.425336
H527	H	0.333276	-0.361556	-0.092003
H528	H	0.666609	-0.028223	0.241330
H529	H	-0.000048	-0.647846	-0.710950
H530	H	0.333285	-0.314513	-0.377617
H531	H	0.666618	0.018821	-0.044283
H532	H	-0.531734	-0.477330	0.155015
H533	H	-0.198400	-0.143997	0.488349
H534	H	0.134933	0.189337	0.821682
H535	H	-0.000065	-0.653168	-0.187348
H536	H	0.333269	-0.319835	0.145985
H537	H	0.666602	0.013499	0.479319
H538	H	-0.000021	-0.412743	0.145454
H539	H	0.333312	-0.079410	0.478787
H540	H	0.666645	0.253924	0.812121
H541	H	-0.000085	-0.057760	-0.062462
H542	H	0.333249	0.275573	0.270872
H543	H	0.666582	0.608907	0.604205
H544	H	-0.000049	0.202311	0.139207
H545	H	0.333285	0.535645	0.472541
H546	H	0.666618	0.868978	0.805874
H547	H	-0.000053	0.293777	0.138273
H548	H	0.333281	0.627110	0.471606
H549	H	0.666614	0.960443	0.804939
H550	H	-0.000050	-0.343360	-0.015426
H551	H	0.333283	-0.010027	0.317907
H552	H	0.666617	0.323307	0.651241
H553	H	-0.000011	-0.446777	-0.391080
H554	H	0.333322	-0.113444	-0.057747
H555	H	0.666655	0.219889	0.275586
H556	H	-0.000082	-0.654093	-0.095896
H557	H	0.333251	-0.320759	0.237438
H558	H	0.666585	0.012574	0.570771
H559	H	-0.000066	-0.695819	-0.333889
H560	H	0.333267	-0.362485	-0.000555
H561	H	0.666600	-0.029152	0.332778
H562	H	-0.000058	-0.494146	-0.073812
H563	H	0.333275	-0.160813	0.259522
H564	H	0.666609	0.172520	0.592855
