data_functionalizedCrystal
_audit_creation_method	'MofGen! by Chris Wilmer'
_symmetry_space_group_name_H-M	'P1'
_symmetry_Int_Tables_number	1
_symmetry_cell_setting	triclinic
loop_
_symmetry_equiv_pos_as_xyz
  x,y,z
_cell_length_a	26.455835
_cell_length_b	26.455273
_cell_length_c	26.451828
_cell_angle_alpha	60.005170
_cell_angle_beta	60.010757
_cell_angle_gamma	59.993435
loop_
_atom_site_label
_atom_site_type_symbol
_atom_site_fract_x
_atom_site_fract_y
_atom_site_fract_z
O1	O	0.069940	-0.738516	0.617604
O2	O	0.026299	-0.574986	0.497618
O3	O	0.129847	-0.678463	0.497546
O4	O	-0.033607	-0.635040	0.617676
O5	O	0.164197	-0.644116	0.531822
O6	O	0.060649	-0.540639	0.531894
O7	O	0.104290	-0.704170	0.651880
Cu8	Cu	0.085606	-0.619268	0.595016
Cu9	Cu	0.044984	-0.659887	0.554481
O10	O	0.000742	-0.600693	0.651952
N11	N	0.114179	-0.590703	0.623530
N12	N	0.016416	-0.688458	0.525968
C13	C	0.157553	-0.547535	0.933368
C14	C	0.424104	-0.547506	0.666656
C15	C	0.157413	-0.547503	0.666729
C16	C	0.157397	-0.280846	0.666749
C17	C	0.200330	-0.409550	0.709625
C18	C	0.200339	-0.504608	0.709615
C19	C	0.224118	-0.480848	0.733375
C20	C	0.327800	-0.462984	0.678792
C21	C	0.392611	-0.484588	0.657175
C22	C	0.392630	-0.589450	0.697162
C23	C	0.327821	-0.567844	0.718781
C24	C	0.215955	-0.377135	0.645910
C25	C	0.194327	-0.312320	0.624323
C26	C	0.141457	-0.312339	0.730169
C27	C	0.163084	-0.377154	0.751756
C28	C	0.136618	-0.488954	0.725292
C29	C	0.115007	-0.510553	0.703686
C30	C	0.220833	-0.563461	0.650740
C31	C	0.242447	-0.541861	0.672339
C32	C	0.136680	-0.488971	0.837094
C33	C	0.115112	-0.510589	0.901907
C34	C	0.220969	-0.563508	0.901868
C35	C	0.242535	-0.541892	0.837053
C36	C	0.200389	-0.504622	0.804668
C37	C	0.295409	-0.504610	0.709593
C38	C	0.132990	-0.570876	1.004655
C39	C	0.495389	-0.570440	0.642547
C40	C	0.132802	-0.570856	0.643399
C41	C	0.133212	-0.209553	0.643833
C42	C	-0.097217	-0.706972	0.506986
C43	C	-0.002040	-0.707108	0.412067
C44	C	-0.002230	-0.802124	0.507163
C45	C	-0.002214	-0.707101	0.507221
C46	C	-0.025925	-0.730827	0.483360
N47	N	0.553723	-0.590712	0.623415
O48	O	0.751638	-0.596429	0.475603
O49	O	0.751819	-0.716773	0.638980
O50	O	0.751753	-0.716500	0.535361
O51	O	0.751705	-0.596703	0.579222
O52	O	0.648791	-0.682239	0.569747
O53	O	0.648858	-0.682512	0.673366
O54	O	0.648676	-0.562169	0.509989
Cu55	Cu	0.639366	-0.619212	0.594817
Cu56	Cu	0.761130	-0.659729	0.554152
O57	O	0.648743	-0.562442	0.613609
N58	N	0.846773	-0.688230	0.525548
N59	N	0.114157	-0.151217	0.623565
O60	O	-0.033591	0.046803	0.617717
O61	O	0.129795	0.046806	0.497390
O62	O	0.026157	0.046789	0.497680
O63	O	0.070046	0.046819	0.617427
O64	O	0.060509	-0.056181	0.532004
O65	O	0.164146	-0.056164	0.531714
O66	O	0.000760	-0.056167	0.652041
Cu67	Cu	0.085590	-0.065568	0.595012
Cu68	Cu	0.044965	0.056206	0.554419
O69	O	0.104397	-0.056151	0.651751
N70	N	0.016390	0.141855	0.525867
N71	N	0.114410	-0.590756	1.062992
O72	O	0.108565	-0.738494	1.260998
O73	O	-0.011747	-0.575059	1.261012
O74	O	-0.011470	-0.678679	1.260970
O75	O	0.108287	-0.634874	1.261040
O76	O	0.022849	-0.644347	1.158004
O77	O	0.022572	-0.540726	1.158046
O78	O	0.142884	-0.704162	1.158033
Cu79	Cu	0.085861	-0.619309	1.148638
Cu80	Cu	0.045275	-0.659911	1.270406
O81	O	0.142606	-0.600541	1.158074
N82	N	0.016726	-0.688471	1.356052
C83	C	0.039385	-0.537207	0.498225
C84	C	0.167616	-0.665350	0.498136
C85	C	0.091204	-0.741950	0.651272
C86	C	-0.037027	-0.613806	0.651361
C87	C	0.700360	-0.716215	0.676756
C88	C	0.700279	-0.715877	0.548436
C89	C	0.700133	-0.562725	0.472214
C90	C	0.700218	-0.563065	0.600533
C91	C	0.167511	-0.004552	0.497940
C92	C	0.039211	-0.004699	0.498341
C93	C	-0.036999	-0.004682	0.651449
C94	C	0.091344	-0.004663	0.651090
C95	C	-0.011156	-0.537302	1.209530
C96	C	-0.010806	-0.665617	1.209458
C97	C	0.142293	-0.741918	1.209514
C98	C	0.141950	-0.613596	1.209563
H99	H	0.102355	-0.458618	0.810728
O100	O	0.700230	-0.518108	0.611614
C101	C	0.700148	-0.464665	0.558469
H102	H	0.719617	-0.478174	0.515898
H103	H	0.650735	-0.431015	0.563500
C104	C	0.716598	-0.416899	0.603416
C105	C	0.740514	-0.433492	0.551128
H106	H	0.741495	-0.397668	0.598888
H107	H	0.716651	-0.452904	0.639221
H108	H	0.675420	-0.388860	0.607602
H109	H	0.781687	-0.461536	0.546947
H110	H	0.740469	-0.397491	0.515322
O111	O	0.095631	-0.452748	0.761470
C112	C	0.034756	-0.443574	0.770680
H113	H	0.034852	-0.450806	0.731605
H114	H	0.016210	-0.478077	0.816848
C115	C	-0.006938	-0.368293	0.819152
C116	C	-0.006820	-0.377171	0.771157
H117	H	-0.032585	-0.327334	0.819449
H118	H	0.034075	-0.374475	0.812950
H119	H	-0.022391	-0.397050	0.857621
H120	H	0.008641	-0.348420	0.732689
H121	H	-0.047831	-0.370982	0.777353
O122	O	0.187339	-0.797911	1.209426
C123	C	0.201732	-0.809009	1.156076
H124	H	0.160812	-0.780113	1.138288
H125	H	0.244178	-0.795684	1.118749
C126	C	0.265650	-0.913654	1.194102
C127	C	0.215390	-0.878168	1.172256
H128	H	0.274077	-0.956315	1.204081
H129	H	0.255955	-0.906177	1.230043
H130	H	0.301015	-0.902543	1.162991
H131	H	0.180023	-0.889274	1.203369
H132	H	0.225079	-0.885649	1.136320
H133	H	0.207047	-0.285927	0.572438
O134	O	0.053124	-0.495461	0.718935
C135	C	0.037487	-0.549924	0.751566
H136	H	0.080203	-0.590643	0.739857
H137	H	0.019719	-0.559041	0.803440
C138	C	-0.065763	-0.492083	0.747334
C139	C	-0.013298	-0.542095	0.732948
H140	H	-0.097091	-0.487254	0.735852
H141	H	-0.055229	-0.455390	0.725352
H142	H	-0.080561	-0.499687	0.790562
H143	H	0.001503	-0.534487	0.689720
H144	H	-0.023831	-0.578787	0.754922
H145	H	-0.083922	-0.004684	0.689225
O146	O	0.028117	-0.004795	0.453434
C147	C	0.070552	-0.058138	0.436797
H148	H	0.113463	-0.075907	0.449138
H149	H	0.048119	-0.095484	0.462935
C150	C	0.036541	-0.020128	0.351487
C151	C	0.089247	-0.041950	0.366639
H152	H	0.048071	-0.010144	0.308211
H153	H	0.007950	0.015809	0.362697
H154	H	0.017852	-0.051254	0.373273
H155	H	0.107930	-0.010822	0.344859
H156	H	0.117842	-0.077881	0.355424
O157	O	-0.056280	-0.481331	1.209505
C158	C	-0.109567	-0.481338	1.209497
H159	H	-0.095838	-0.518001	1.189992
H160	H	-0.143220	-0.492145	1.258890
C161	C	-0.157721	-0.372191	1.193074
C162	C	-0.140858	-0.417218	1.169112
H163	H	-0.177026	-0.332638	1.168165
H164	H	-0.121822	-0.372186	1.193081
H165	H	-0.185763	-0.381205	1.234234
H166	H	-0.112811	-0.408208	1.127956
H167	H	-0.176754	-0.417219	1.169097
H168	H	0.700298	-0.753510	0.539047
H169	H	0.100739	-0.004653	0.688708
H170	H	-0.048413	-0.674973	1.209396
H171	H	0.255291	-0.593843	0.928229
H172	H	0.179573	-0.604224	1.209577
H173	H	0.294416	-0.554643	0.810656
O174	O	0.053241	-0.495457	0.933495
C175	C	0.043237	-0.522511	0.997645
H176	H	0.085776	-0.564122	1.006482
H177	H	0.034609	-0.487059	1.016041
C178	C	-0.065746	-0.492637	1.020078
C179	C	-0.013501	-0.543748	1.030932
H180	H	-0.100746	-0.505735	1.040613
H181	H	-0.059007	-0.474408	0.976860
H182	H	-0.072928	-0.463099	1.035409
H183	H	-0.006315	-0.573282	1.015595
H184	H	-0.020240	-0.561983	1.074149
O185	O	0.261822	-0.599623	0.614519
C186	C	0.322696	-0.608820	0.605336
H187	H	0.322579	-0.569748	0.612582
H188	H	0.341286	-0.654996	0.639821
C189	C	0.364380	-0.657261	0.530030
C190	C	0.364238	-0.609268	0.538925
H191	H	0.390007	-0.657540	0.489066
H192	H	0.323369	-0.651067	0.536218
H193	H	0.379870	-0.695735	0.558772
H194	H	0.348741	-0.570794	0.510188
H195	H	0.405248	-0.615456	0.532731
H196	H	0.030065	-0.490230	0.460543
O197	O	0.296450	-0.608363	0.748664
C198	C	0.338959	-0.668808	0.752145
H199	H	0.385146	-0.666343	0.713858
H200	H	0.345878	-0.693552	0.799109
C201	C	0.256930	-0.707770	0.791250
C202	C	0.313656	-0.704741	0.744221
H203	H	0.241321	-0.729937	0.786365
H204	H	0.228290	-0.667047	0.788907
H205	H	0.262703	-0.728388	0.830382
H206	H	0.307880	-0.684116	0.705091
H207	H	0.342294	-0.745461	0.746557
H208	H	0.294333	-0.554601	0.659567
H209	H	0.100526	-0.788925	0.688956
O210	O	0.424217	-0.650853	0.706007
C211	C	0.488365	-0.660997	0.680335
H212	H	0.497198	-0.616392	0.643185
H213	H	0.506778	-0.675934	0.718265
C214	C	0.510786	-0.766937	0.696868
C215	C	0.521634	-0.712154	0.651236
H216	H	0.531309	-0.798495	0.678921
H217	H	0.467568	-0.760104	0.714166
H218	H	0.526130	-0.779376	0.728472
H219	H	0.506283	-0.699711	0.619637
H220	H	0.564851	-0.718986	0.633932
O221	O	0.423982	-0.444065	0.627241
C222	C	0.381475	-0.383622	0.623781
H223	H	0.335271	-0.381094	0.628036
H224	H	0.374600	-0.371523	0.663048
C225	C	0.463494	-0.340457	0.555981
C226	C	0.406746	-0.337352	0.561203
H227	H	0.479082	-0.311914	0.517382
H228	H	0.492132	-0.381179	0.558314
H229	H	0.457757	-0.330376	0.588707
H230	H	0.412485	-0.347440	0.528482
H231	H	0.378109	-0.296630	0.558863
H232	H	0.214562	-0.674609	0.460411
H233	H	0.301415	-0.411495	0.671309
O234	O	0.223320	-0.004133	0.452680
C235	C	0.214849	0.049312	0.400683
H236	H	0.165424	0.066890	0.401524
H237	H	0.223539	0.086720	0.401888
C238	C	0.321324	0.011824	0.340088
C239	C	0.260621	0.033411	0.341118
H240	H	0.349560	0.002018	0.303345
H241	H	0.327033	-0.024182	0.375120
H242	H	0.328557	0.043001	0.341095
H243	H	0.253387	0.002232	0.340120
H244	H	0.254912	0.069412	0.306085
O245	O	0.252041	-0.408580	0.604965
C246	C	0.219293	-0.392727	0.567500
H247	H	0.167446	-0.374915	0.592542
H248	H	0.233066	-0.355100	0.521965
C249	C	0.298631	-0.472178	0.523502
C250	C	0.234952	-0.450305	0.554261
H251	H	0.308291	-0.507693	0.515333
H252	H	0.320695	-0.482856	0.548741
H253	H	0.310101	-0.440816	0.485560
H254	H	0.223484	-0.481664	0.592206
H255	H	0.212886	-0.439633	0.529029
O256	O	0.105266	-0.280961	0.771176
C257	C	0.096137	-0.323470	0.832044
H258	H	0.103382	-0.369672	0.831928
H259	H	0.130652	-0.330360	0.850592
C260	C	0.020855	-0.241439	0.873776
C261	C	0.029749	-0.298184	0.873635
H262	H	-0.020095	-0.225841	0.899433
H263	H	0.027006	-0.212799	0.832768
H264	H	0.049622	-0.247188	0.889231
H265	H	0.000987	-0.292432	0.858173
H266	H	0.023591	-0.326822	0.914642
O267	O	-0.093058	-0.602656	0.696310
C268	C	-0.131531	-0.541826	0.673919
H269	H	-0.101715	-0.512429	0.634160
H270	H	-0.162796	-0.542765	0.656723
C271	C	-0.208218	-0.549924	0.775230
C272	C	-0.171597	-0.513817	0.726401
H273	H	-0.232935	-0.532647	0.807603
H274	H	-0.182299	-0.590907	0.790315
H275	H	-0.234267	-0.550703	0.760892
H276	H	-0.145543	-0.513044	0.740737
H277	H	-0.197512	-0.472832	0.711319
H278	H	0.700405	-0.753994	0.723681
H279	H	0.700073	-0.524942	0.425295
H280	H	0.150353	-0.403547	0.803641
