data_functionalizedCrystal
_audit_creation_method	'MofGen! by Chris Wilmer'
_symmetry_space_group_name_H-M	'P1'
_symmetry_Int_Tables_number	1
_symmetry_cell_setting	triclinic
loop_
_symmetry_equiv_pos_as_xyz
  x,y,z
_cell_length_a	27.732064
_cell_length_b	27.732048
_cell_length_c	26.809956
_cell_angle_alpha	89.999364
_cell_angle_beta	89.998878
_cell_angle_gamma	82.646040
loop_
_atom_site_label
_atom_site_type_symbol
_atom_site_fract_x
_atom_site_fract_y
_atom_site_fract_z
O1	O	0.640926	0.057548	-0.041396
O2	O	1.140926	0.557548	0.458604
O3	O	0.500133	0.066285	-0.041417
O4	O	1.000133	0.566285	0.458583
O5	O	0.574902	-0.008480	-0.041396
O6	O	1.074902	0.491520	0.458604
O7	O	0.566157	0.132313	-0.041417
O8	O	1.066157	0.632313	0.458583
O9	O	0.574888	-0.008468	0.041563
O10	O	1.074888	0.491532	0.541563
O11	O	0.500119	0.066297	0.041542
O12	O	1.000119	0.566297	0.541542
O13	O	0.640912	0.057560	0.041563
O14	O	1.140912	0.557560	0.541563
Zn15	Zn	0.570513	0.061930	0.054724
Zn16	Zn	1.070513	0.561930	0.554724
Zn17	Zn	0.570532	0.061915	-0.054578
Zn18	Zn	1.070532	0.561915	0.445422
O19	O	0.566143	0.132325	0.041543
O20	O	1.066143	0.632325	0.541543
C21	C	0.482120	0.066106	0.000060
C22	C	0.982120	0.566106	0.500060
C23	C	0.428465	0.065551	0.000052
C24	C	0.928465	0.565551	0.500052
C25	C	0.574712	-0.026481	0.000085
C26	C	1.074712	0.473519	0.500085
C27	C	0.574159	-0.080136	0.000089
C28	C	1.074159	0.419864	0.500089
C29	C	0.051392	0.017583	0.000087
C30	C	0.551392	0.517583	0.500087
C31	C	0.253053	0.019630	0.000074
C32	C	0.753053	0.519630	0.500074
O33	O	0.284305	-0.017591	0.000098
O34	O	0.784305	0.482409	0.500098
N35	N	0.272180	0.063964	0.000066
N36	N	0.772180	0.563964	0.500066
C37	C	0.240889	0.107790	0.000064
C38	C	0.740889	0.607790	0.500064
O39	O	0.261785	0.145546	0.000061
O40	O	0.761785	0.645546	0.500061
C41	C	0.039230	0.105743	0.000080
C42	C	0.539230	0.605743	0.500080
C43	C	0.020105	0.061406	0.000084
C44	C	0.520105	0.561406	0.500084
C45	C	0.032267	-0.026750	0.000092
C46	C	0.532267	0.473250	0.500092
C47	C	-0.018145	-0.027261	0.000092
C48	C	0.481855	0.472739	0.500092
C49	C	-0.049432	0.016561	0.000089
C50	C	0.450568	0.516561	0.500089
C51	C	-0.030307	0.060895	0.000085
C52	C	0.469693	0.560895	0.500085
C53	C	0.007940	0.149568	0.000082
C54	C	0.507940	0.649568	0.500082
C55	C	-0.042478	0.149053	0.000087
C56	C	0.457522	0.649053	0.500087
C57	C	-0.061602	0.104716	0.000091
C58	C	0.438398	0.604716	0.500091
C59	C	-0.112006	0.104206	0.000082
C60	C	0.387994	0.604206	0.500082
N61	N	-0.131134	0.059872	0.000090
N62	N	0.368866	0.559872	0.500090
C63	C	-0.099846	0.016049	0.000094
C64	C	0.400154	0.516049	0.500094
C65	C	0.346763	0.108861	0.000054
C66	C	0.846763	0.608861	0.500054
C67	C	0.397178	0.109373	0.000049
C68	C	0.897178	0.609373	0.500049
C69	C	0.409338	0.021213	0.000060
C70	C	0.909338	0.521213	0.500060
C71	C	0.358923	0.020701	0.000062
C72	C	0.858923	0.520701	0.500062
C73	C	0.327636	0.064527	0.000062
C74	C	0.827636	0.564527	0.500062
C75	C	-0.205716	0.014979	0.000095
C76	C	0.294284	0.514979	0.500095
C77	C	-0.256133	0.014472	0.000093
C78	C	0.243867	0.514472	0.500093
C79	C	-0.268289	0.102632	0.000084
C80	C	0.231711	0.602632	0.500084
C81	C	-0.217876	0.103140	0.000083
C82	C	0.282124	0.603140	0.500083
C83	C	-0.186590	0.059309	0.000090
C84	C	0.313410	0.559309	0.500090
O85	O	-0.143287	0.141407	0.000063
O86	O	0.356713	0.641407	0.500063
O87	O	-0.120752	-0.021701	0.000107
O88	O	0.379248	0.478299	0.500107
C89	C	0.101804	0.018094	0.000087
C90	C	0.601804	0.518094	0.500087
C91	C	0.120930	0.062428	0.000083
C92	C	0.620930	0.562428	0.500083
C93	C	0.089642	0.106250	0.000079
C94	C	0.589642	0.606250	0.500079
C95	C	0.171344	0.062940	0.000078
C96	C	0.671344	0.562940	0.500078
C97	C	0.202631	0.019117	0.000081
C98	C	0.702631	0.519117	0.500081
C99	C	0.183504	-0.025217	0.000090
C100	C	0.683504	0.474783	0.500090
C101	C	0.133092	-0.025728	0.000090
C102	C	0.633092	0.474272	0.500090
C103	C	0.108770	0.150585	0.000071
C104	C	0.608770	0.650585	0.500071
C105	C	0.159183	0.151092	0.000069
C106	C	0.659183	0.651092	0.500069
C107	C	0.190470	0.107270	0.000073
C108	C	0.690470	0.607270	0.500073
C109	C	0.614862	-0.418948	0.000069
C110	C	1.114862	0.081052	0.500069
C111	C	0.612811	-0.620608	0.000062
C112	C	1.112811	-0.120608	0.500062
O113	O	0.650032	-0.651862	0.000046
O114	O	1.150032	-0.151862	0.500046
N115	N	0.568476	-0.639735	0.000056
N116	N	1.068476	-0.139735	0.500056
C117	C	0.524651	-0.608442	0.000048
C118	C	1.024651	-0.108442	0.500048
O119	O	0.486895	-0.629338	0.000037
O120	O	0.986895	-0.129338	0.500037
C121	C	0.526703	-0.406784	0.000052
C122	C	1.026703	0.093216	0.500052
C123	C	0.571040	-0.387660	0.000063
C124	C	1.071040	0.112340	0.500063
C125	C	0.659196	-0.399824	0.000080
C126	C	1.159196	0.100176	0.500080
C127	C	0.659709	-0.349412	0.000084
C128	C	1.159709	0.150588	0.500084
C129	C	0.615887	-0.318124	0.000078
C130	C	1.115887	0.181876	0.500078
C131	C	0.571553	-0.337248	0.000067
C132	C	1.071553	0.162752	0.500067
C133	C	0.482878	-0.375493	0.000040
C134	C	0.982878	0.124507	0.500040
C135	C	0.483395	-0.325075	0.000040
C136	C	0.983395	0.174925	0.500040
C137	C	0.527733	-0.305952	0.000051
C138	C	1.027733	0.194048	0.500051
C139	C	0.528243	-0.255548	0.000066
C140	C	1.028243	0.244452	0.500066
N141	N	0.572578	-0.236422	0.000072
N142	N	1.072578	0.263578	0.500072
C143	C	0.616400	-0.267710	0.000078
C144	C	1.116400	0.232290	0.500078
C145	C	0.523577	-0.714317	0.000047
C146	C	1.023577	-0.214317	0.500047
C147	C	0.523064	-0.764731	0.000047
C148	C	1.023064	-0.264731	0.500047
C149	C	0.611225	-0.776893	0.000060
C150	C	1.111225	-0.276893	0.500060
C151	C	0.611737	-0.726478	0.000064
C152	C	1.111737	-0.226478	0.500064
C153	C	0.567912	-0.695190	0.000053
C154	C	1.067912	-0.195190	0.500053
C155	C	0.617472	-0.161841	0.000088
C156	C	1.117472	0.338159	0.500088
C157	C	0.617981	-0.111424	0.000095
C158	C	1.117981	0.388576	0.500095
C159	C	0.529821	-0.099266	0.000079
C160	C	1.029821	0.400734	0.500079
C161	C	0.529312	-0.149679	0.000075
C162	C	1.029312	0.350321	0.500075
C163	C	0.573142	-0.180965	0.000078
C164	C	1.073142	0.319035	0.500078
O165	O	0.491043	-0.224267	0.000076
O166	O	0.991043	0.275733	0.500076
O167	O	0.654151	-0.246805	0.000078
O168	O	1.154151	0.253195	0.500078
C169	C	0.614350	-0.469360	0.000065
C170	C	1.114350	0.030640	0.500065
C171	C	0.570016	-0.488484	0.000054
C172	C	1.070016	0.011516	0.500054
C173	C	0.526194	-0.457196	0.000048
C174	C	1.026194	0.042804	0.500048
C175	C	0.569503	-0.538899	0.000054
C176	C	1.069503	-0.038899	0.500054
C177	C	0.613325	-0.570187	0.000060
C178	C	1.113325	-0.070187	0.500060
C179	C	0.657660	-0.551060	0.000066
C180	C	1.157660	-0.051060	0.500066
C181	C	0.658172	-0.500648	0.000071
C182	C	1.158172	-0.000648	0.500071
C183	C	0.481859	-0.476323	0.000041
C184	C	0.981859	0.023677	0.500041
C185	C	0.481351	-0.526735	0.000037
C186	C	0.981351	-0.026735	0.500037
C187	C	0.525172	-0.558023	0.000044
C188	C	1.025172	-0.058023	0.500044
C189	C	0.658925	0.057739	0.000085
C190	C	1.158925	0.557739	0.500085
C191	C	0.712580	0.058295	0.000090
C192	C	1.212580	0.558295	0.500090
C193	C	0.566333	0.150326	0.000060
C194	C	1.066333	0.650326	0.500060
C195	C	0.566886	0.203981	0.000053
C196	C	1.066886	0.703981	0.500053
N197	N	0.570504	0.061940	0.129320
N198	N	1.070504	0.561940	0.629320
N199	N	0.570545	0.061901	-0.129174
N200	N	1.070545	0.561901	0.370826
C201	C	0.603635	0.028817	0.473955
C202	C	1.103635	0.528817	0.973955
C203	C	0.603647	0.028810	0.682833
C204	C	1.103647	0.528810	1.182833
O205	O	0.631796	0.000651	0.709845
O206	O	1.131796	0.500651	1.209845
N207	N	0.570534	0.061904	0.708947
N208	N	1.070534	0.561904	1.208947
C209	C	0.537415	0.095001	0.682839
C210	C	1.037415	0.595001	1.182839
O211	O	0.509248	0.123147	0.709843
O212	O	1.009248	0.623147	1.209843
C213	C	0.537402	0.095006	0.473962
C214	C	1.037402	0.595006	0.973962
C215	C	0.570519	0.061912	0.447851
C216	C	1.070519	0.561912	0.947851
C217	C	0.636750	-0.004274	0.447844
C218	C	1.136750	0.495726	0.947844
C219	C	0.636748	-0.004270	0.395628
C220	C	1.136748	0.495730	0.895628
C221	C	0.603632	0.028825	0.369523
C222	C	1.103632	0.528825	0.869523
C223	C	0.570518	0.061916	0.395634
C224	C	1.070518	0.561916	0.895634
C225	C	0.504280	0.128100	0.447855
C226	C	1.004280	0.628100	0.947855
C227	C	0.504279	0.128097	0.395632
C228	C	1.004279	0.628097	0.895632
C229	C	0.537397	0.095004	0.369521
C230	C	1.037397	0.595004	0.869521
C231	C	0.537400	0.095015	0.317313
C232	C	1.037400	0.595015	0.817313
N233	N	0.570512	0.061921	0.291199
N234	N	1.070512	0.561921	0.791199
C235	C	0.603628	0.028826	0.317304
C236	C	1.103628	0.528826	0.817304
C237	C	0.537425	0.094997	0.792502
C238	C	1.037425	0.594997	1.292502
C239	C	0.537429	0.094996	0.844721
C240	C	1.037429	0.594996	1.344721
C241	C	0.603660	0.028804	0.844712
C242	C	1.103660	0.528804	1.344712
C243	C	0.603658	0.028808	0.792492
C244	C	1.103658	0.528808	1.292492
C245	C	0.570537	0.061902	0.766388
C246	C	1.070537	0.561902	1.266388
C247	C	0.603623	0.028837	0.207646
C248	C	1.103623	0.528837	0.707646
C249	C	0.603620	0.028845	0.155425
C250	C	1.103620	0.528845	0.655425
C251	C	0.537387	0.095035	0.155439
C252	C	1.037387	0.595035	0.655439
C253	C	0.537392	0.095029	0.207655
C254	C	1.037392	0.595029	0.707655
C255	C	0.570512	0.061926	0.233757
C256	C	1.070512	0.561926	0.733757
O257	O	0.509262	0.123156	0.290269
O258	O	1.009262	0.623156	0.790269
O259	O	0.631784	0.000677	0.290290
O260	O	1.131784	0.500677	0.790290
C261	C	0.603637	0.028813	0.526172
C262	C	1.103637	0.528813	1.026172
C263	C	0.570522	0.061904	0.552283
C264	C	1.070522	0.561904	1.052283
C265	C	0.537406	0.095000	0.526178
C266	C	1.037406	0.595000	1.026178
C267	C	0.570526	0.061904	0.604502
C268	C	1.070526	0.561904	1.104502
C269	C	0.603642	0.028809	0.630607
C270	C	1.103642	0.528809	1.130607
C271	C	0.636754	-0.004286	0.604493
C272	C	1.136754	0.495714	1.104493
C273	C	0.636753	-0.004282	0.552277
C274	C	1.136753	0.495718	1.052277
C275	C	0.504294	0.128094	0.552293
C276	C	1.004294	0.628094	1.052293
C277	C	0.504298	0.128088	0.604509
C278	C	1.004298	0.628088	1.104509
C279	C	0.537414	0.094993	0.630614
C280	C	1.037414	0.594993	1.130614
H281	H	-0.271701	-0.021634	0.000095
H282	H	0.228299	0.478366	0.500095
C283	C	0.660511	-0.705447	0.000072
C284	C	1.160511	-0.205447	0.500072
N285	N	0.697250	-0.689610	0.000076
N286	N	1.197250	-0.189610	0.500076
H287	H	0.630592	0.001881	0.228893
H288	H	1.130592	0.501881	0.728893
C289	C	0.474289	-0.785761	0.000041
C290	C	0.974289	-0.285761	0.500041
N291	N	0.437550	-0.801598	0.000033
N292	N	0.937550	-0.301598	0.500033
C293	C	0.467863	0.164495	0.633226
C294	C	0.967863	0.664495	1.133226
N295	N	0.440418	0.191914	0.654853
N296	N	0.940418	0.691914	1.154853
C297	C	0.640087	-0.007601	0.763774
C298	C	1.140087	0.492399	1.263774
N299	N	0.667525	-0.035026	0.742147
N300	N	1.167525	0.464974	1.242147
H301	H	-0.180248	-0.020712	0.000100
H302	H	0.319752	0.479288	0.500100
H303	H	0.630590	0.001896	0.134167
H304	H	1.130590	0.501896	0.634167
H305	H	0.487888	-0.688846	0.000039
H306	H	0.987888	-0.188846	0.500039
H307	H	0.653163	-0.187309	0.000089
H308	H	1.153163	0.312691	0.500089
C309	C	0.312354	0.157076	0.000056
C310	C	0.812354	0.657076	0.500056
N311	N	0.286438	0.193392	0.000057
N312	N	0.786438	0.693392	0.500057
H313	H	0.510426	0.121982	0.134176
H314	H	1.010426	0.621982	0.634176
C315	C	0.467847	0.164510	0.366921
C316	C	0.967847	0.664510	0.866921
N317	N	0.440409	0.191939	0.345297
N318	N	0.940409	0.691939	0.845297
C319	C	0.673180	-0.040688	0.476551
C320	C	1.173180	0.459312	0.976551
N321	N	0.700622	-0.068117	0.498170
N322	N	1.200622	0.431883	0.998170
C323	C	0.640085	-0.007603	0.873437
C324	C	1.140085	0.492397	1.373437
N325	N	0.667517	-0.035026	0.895075
N326	N	1.167517	0.464974	1.395075
H327	H	0.446173	-0.450852	0.000035
H328	H	0.946173	0.049148	0.500035
H329	H	-0.067950	0.184742	0.000090
H330	H	0.432050	0.684742	0.500090
C331	C	0.673175	-0.040681	0.366912
C332	C	1.173175	0.459319	0.866912
N333	N	0.700612	-0.068110	0.345286
N334	N	1.200612	0.431890	0.845286
H335	H	0.057737	-0.062438	0.000096
H336	H	0.557737	0.437562	0.500096
H337	H	0.694883	-0.425295	0.000083
H338	H	1.194883	0.074705	0.500083
H339	H	-0.293772	0.138311	0.000079
H340	H	0.206228	0.638311	0.500079
H341	H	0.646906	-0.802377	0.000065
H342	H	1.146906	-0.302377	0.500065
H343	H	0.493209	-0.165249	0.000080
H344	H	0.993209	0.334751	0.500080
C345	C	0.028965	0.198344	0.000086
C346	C	0.528965	0.698344	0.500086
N347	N	0.044800	0.235084	0.000093
N348	N	0.544800	0.735084	0.500093
C349	C	0.112062	-0.074503	0.000101
C350	C	0.612062	0.425497	0.500101
N351	N	0.096226	-0.111243	0.000112
N352	N	0.596226	0.388757	0.500112
H353	H	0.693341	-0.576544	0.000074
H354	H	1.193341	-0.076544	0.500074
C355	C	-0.196839	0.151912	0.000074
C356	C	0.303161	0.651912	0.500074
N357	N	-0.180997	0.188649	0.000071
N358	N	0.319003	0.688649	0.500071
H359	H	0.446774	-0.391054	0.000028
H360	H	0.946774	0.108946	0.500028
H361	H	0.447706	-0.299603	0.000031
H362	H	0.947706	0.200397	0.500031
H363	H	-0.033711	-0.063365	0.000097
H364	H	0.466289	0.436635	0.500097
H365	H	0.510466	0.121949	0.865977
H366	H	1.010466	0.621949	1.365977
H367	H	0.412744	0.145477	0.000039
H368	H	0.912744	0.645477	0.500039
C369	C	0.337891	-0.028072	0.000071
C370	C	0.837891	0.471928	0.500071
N371	N	0.322053	-0.064811	0.000081
N372	N	0.822053	0.435189	0.500081
H373	H	0.494142	-0.073782	0.000076
H374	H	0.994142	0.426218	0.500076
C375	C	0.217929	-0.073422	0.000097
C376	C	0.717929	0.426578	0.500097
N377	N	0.243861	-0.109727	0.000106
N378	N	0.743861	0.390273	0.500106
H379	H	0.694276	-0.485083	0.000080
H380	H	1.194276	0.014917	0.500080
H381	H	0.445243	-0.542300	0.000033
H382	H	0.945243	-0.042300	0.500033
H383	H	0.510453	0.121948	0.771252
H384	H	1.010453	0.621948	1.271252
H385	H	0.510429	0.121981	0.228916
H386	H	1.010429	0.621981	0.728916
H387	H	0.434821	-0.014469	0.000061
H388	H	0.934821	0.485531	0.500061
C389	C	0.467895	0.164537	0.523585
C390	C	0.967895	0.664537	1.023585
N391	N	0.440491	0.192002	0.501964
N392	N	0.940491	0.692002	1.001964
C393	C	0.180213	0.199870	0.000068
C394	C	0.680213	0.699870	0.500068
N395	N	0.196051	0.236609	0.000072
N396	N	0.696051	0.736609	0.500072
C397	C	0.673181	-0.040692	0.633218
C398	C	1.173181	0.459308	1.133218
N399	N	0.700613	-0.068113	0.654857
N400	N	1.200613	0.431887	1.154857
H401	H	0.083300	0.186271	0.000068
H402	H	0.583300	0.686271	0.500068
C403	C	0.666758	-0.090392	0.000106
C404	C	1.166758	0.409608	0.500106
N405	N	0.703495	-0.074552	0.000113
N406	N	1.203495	0.425448	0.500113
H407	H	0.477313	0.155047	0.469107
H408	H	0.977313	0.655047	0.969107
H409	H	0.695813	-0.333847	0.000092
H410	H	1.195813	0.166153	0.500092
H411	H	0.663720	-0.031230	0.531020
H412	H	1.163720	0.468770	1.031020
