data_functionalizedCrystal
_audit_creation_method	'MofGen! by Chris Wilmer'
_symmetry_space_group_name_H-M	'P1'
_symmetry_Int_Tables_number	1
_symmetry_cell_setting	triclinic
loop_
_symmetry_equiv_pos_as_xyz
  x,y,z
_cell_length_a	9.065215
_cell_length_b	10.489746
_cell_length_c	8.140239
_cell_angle_alpha	89.996166
_cell_angle_beta	89.997810
_cell_angle_gamma	84.777999
loop_
_atom_site_label
_atom_site_type_symbol
_atom_site_fract_x
_atom_site_fract_y
_atom_site_fract_z
O1	O	1.959501	0.187025	-0.136596
O2	O	2.459501	0.687025	0.363404
O3	O	1.530141	0.202371	-0.136604
O4	O	2.030141	0.702371	0.363396
O5	O	1.754587	0.009135	-0.136587
O6	O	2.254587	0.509135	0.363413
O7	O	1.735055	0.380260	-0.136612
O8	O	2.235055	0.880260	0.363388
O9	O	1.754574	0.009133	0.136640
O10	O	2.254574	0.509133	0.636640
O11	O	1.530129	0.202368	0.136624
O12	O	2.030129	0.702368	0.636624
O13	O	1.959488	0.187022	0.136631
O14	O	2.459488	0.687022	0.636631
Zn15	Zn	1.744807	0.194695	0.180008
Zn16	Zn	2.244807	0.694695	0.680008
Zn17	Zn	1.744823	0.194698	-0.179980
Zn18	Zn	2.244823	0.694698	0.320020
O19	O	1.735043	0.380258	0.136615
O20	O	2.235043	0.880258	0.636615
C21	C	1.475156	0.200896	0.000009
C22	C	1.975156	0.700896	0.500009
C23	C	1.311334	0.196488	0.000007
C24	C	1.811334	0.696488	0.500007
C25	C	1.753104	-0.038403	0.000026
C26	C	2.253104	0.461597	0.500026
C27	C	1.748686	-0.180048	0.000025
C28	C	2.248686	0.319952	0.500025
C29	C	1.603262	-0.333429	0.000002
C30	C	2.103262	0.166571	0.500002
C31	C	1.675974	-0.255774	-0.134709
C32	C	2.175974	0.244226	0.365291
C33	C	1.675996	-0.255817	0.134672
C34	C	2.175996	0.244183	0.634672
C35	C	1.813599	-0.354770	-0.134834
C36	C	2.313599	0.145230	0.365166
C37	C	1.813601	-0.354819	0.134668
C38	C	2.313601	0.145181	0.634668
C39	C	1.886414	-0.277212	-0.000076
C40	C	2.386414	0.222788	0.499924
C41	C	2.014474	0.188498	0.000015
C42	C	2.514474	0.688498	0.500015
C43	C	2.178296	0.192905	0.000007
C44	C	2.678296	0.692905	0.500007
C45	C	1.736526	0.427796	-0.000002
C46	C	2.236526	0.927796	0.499998
C47	C	1.740944	0.569441	-0.000012
C48	C	2.240944	1.069441	0.499988
N49	N	1.744806	0.194692	0.425691
N50	N	2.244806	0.694692	0.925691
N51	N	1.744835	0.194691	-0.425663
N52	N	2.244835	0.694691	0.074337
H53	H	1.483542	-0.358580	-0.000135
H54	H	1.983542	0.141420	0.499865
Cl55	Cl	2.071386	-0.238747	-0.000182
Cl56	Cl	2.571386	0.261253	0.499818
H57	H	1.871666	-0.398109	0.248565
H58	H	2.371666	0.101891	0.748565
H59	H	1.871687	-0.397841	-0.248851
H60	H	2.371687	0.102159	0.251149
H61	H	1.617857	-0.212507	-0.248602
H62	H	2.117857	0.287493	0.251398
Cl63	Cl	1.586215	-0.189065	0.310506
Cl64	Cl	2.086215	0.310935	0.810506
