data_functionalizedCrystal
_audit_creation_method	'MofGen! by Chris Wilmer'
_symmetry_space_group_name_H-M	'P1'
_symmetry_Int_Tables_number	1
_symmetry_cell_setting	triclinic
loop_
_symmetry_equiv_pos_as_xyz
  x,y,z
_cell_length_a	19.077105
_cell_length_b	18.101397
_cell_length_c	18.101390
_cell_angle_alpha	89.964547
_cell_angle_beta	87.685241
_cell_angle_gamma	87.716700
loop_
_atom_site_label
_atom_site_type_symbol
_atom_site_fract_x
_atom_site_fract_y
_atom_site_fract_z
Zn1	Zn	1.075991	-0.340357	-0.464148
Zn2	Zn	1.409324	-0.007024	-0.130815
Zn3	Zn	1.742658	0.326310	0.202519
Zn4	Zn	1.075917	-0.464211	-0.340298
Zn5	Zn	1.409251	-0.130877	-0.006964
Zn6	Zn	1.742584	0.202456	0.326369
Zn7	Zn	0.958298	-0.335408	-0.335352
Zn8	Zn	1.291631	-0.002074	-0.002018
Zn9	Zn	1.624964	0.331259	0.331315
Zn10	Zn	0.958270	-0.459177	-0.459131
Zn11	Zn	1.291603	-0.125844	-0.125797
Zn12	Zn	1.624936	0.207489	0.207536
O13	O	1.017119	-0.399788	-0.399732
O14	O	1.350452	-0.066455	-0.066399
O15	O	1.683786	0.266878	0.266935
O16	O	1.174472	-0.360964	-0.451889
O17	O	1.507806	-0.027631	-0.118555
O18	O	1.841139	0.305702	0.214778
O19	O	1.060296	-0.447160	-0.236008
O20	O	1.393629	-0.113827	0.097326
O21	O	1.726962	0.219507	0.430659
O22	O	0.973953	-0.232433	-0.352467
O23	O	1.307286	0.100900	-0.019133
O24	O	1.640619	0.434233	0.314200
O25	O	1.174418	-0.451959	-0.360896
O26	O	1.507751	-0.118626	-0.027563
O27	O	1.841085	0.214708	0.305770
O28	O	1.060422	-0.236069	-0.447093
O29	O	1.393755	0.097264	-0.113759
O30	O	1.727088	0.430597	0.219574
O31	O	0.973881	-0.352529	-0.232374
O32	O	1.307214	-0.019196	0.100959
O33	O	1.640548	0.314138	0.434293
O34	O	0.859803	-0.347648	-0.347602
O35	O	1.193136	-0.014315	-0.014268
O36	O	1.526470	0.319018	0.319065
O37	O	0.973905	-0.443380	-0.563430
O38	O	1.307238	-0.110047	-0.230097
O39	O	1.640571	0.223287	0.103237
O40	O	0.859782	-0.438581	-0.438541
O41	O	1.193116	-0.105248	-0.105208
O42	O	1.526449	0.228086	0.228125
O43	O	1.060394	-0.356083	-0.567116
O44	O	1.393728	-0.022750	-0.233783
O45	O	1.727061	0.310583	0.099551
O46	O	1.060268	-0.567174	-0.356031
O47	O	1.393602	-0.233841	-0.022698
O48	O	1.726935	0.099493	0.310635
O49	O	0.973833	-0.563476	-0.443337
O50	O	1.307166	-0.230143	-0.110004
O51	O	1.640500	0.103191	0.223329
C52	C	0.834255	-0.392032	-0.391991
C53	C	1.167588	-0.058699	-0.058657
C54	C	1.500922	0.274635	0.274676
C55	C	0.756025	-0.388732	-0.388697
C56	C	1.089358	-0.055398	-0.055363
C57	C	1.422692	0.277935	0.277970
C58	C	0.719280	-0.434596	-0.434422
C59	C	1.052613	-0.101263	-0.101089
C60	C	1.385947	0.232070	0.232245
C61	C	0.645775	-0.431486	-0.431330
C62	C	0.979108	-0.098152	-0.097997
C63	C	1.312441	0.235181	0.235336
C64	C	0.609016	-0.382513	-0.382509
C65	C	0.942349	-0.049180	-0.049176
C66	C	1.275682	0.284153	0.284158
C67	C	0.645766	-0.336644	-0.336782
C68	C	0.979099	-0.003310	-0.003448
C69	C	1.312432	0.330023	0.329885
C70	C	0.719270	-0.339751	-0.339878
C71	C	1.052603	-0.006418	-0.006544
C72	C	1.385936	0.326916	0.326789
C73	C	0.389181	-0.368131	-0.368184
C74	C	0.722514	-0.034798	-0.034851
C75	C	1.055848	0.298535	0.298482
C76	C	0.315672	-0.365029	-0.365090
C77	C	0.649005	-0.031696	-0.031757
C78	C	0.982339	0.301638	0.301576
C79	C	0.315686	-0.459870	-0.459640
C80	C	0.649019	-0.126537	-0.126307
C81	C	0.982353	0.206796	0.207026
C82	C	0.389191	-0.462977	-0.462729
C83	C	0.722525	-0.129643	-0.129395
C84	C	1.055858	0.203690	0.203938
C85	C	0.425935	-0.417104	-0.417004
C86	C	0.759268	-0.083771	-0.083671
C87	C	1.092602	0.249562	0.249662
N88	N	0.533881	-0.379334	-0.379346
N89	N	0.867215	-0.046001	-0.046013
N90	N	1.200548	0.287333	0.287321
N91	N	0.501068	-0.420280	-0.420171
N92	N	0.834401	-0.086947	-0.086838
N93	N	1.167735	0.246386	0.246495
C94	C	1.017059	-0.592196	-0.399694
C95	C	1.350392	-0.258863	-0.066360
C96	C	1.683725	0.074470	0.266973
C97	C	1.017097	-0.674512	-0.399705
C98	C	1.350431	-0.341179	-0.066371
C99	C	1.683764	-0.007845	0.266962
C100	C	1.017187	-0.973607	-0.399776
C101	C	1.350521	-0.640273	-0.066443
C102	C	1.683854	-0.306940	0.266891
C103	C	1.071418	-0.944571	-0.344686
C104	C	1.404751	-0.611238	-0.011352
C105	C	1.738085	-0.277904	0.321981
C106	C	1.071606	-0.858960	-0.344842
C107	C	1.404939	-0.525627	-0.011509
C108	C	1.738273	-0.192294	0.321824
C109	C	1.017143	-0.825222	-0.399740
C110	C	1.350476	-0.491889	-0.066407
C111	C	1.683809	-0.158556	0.266927
C112	C	1.037247	-0.857074	-0.478649
C113	C	1.370580	-0.523741	-0.145316
C114	C	1.703914	-0.190407	0.188017
C115	C	1.037667	-0.942737	-0.478355
C116	C	1.371000	-0.609403	-0.145021
C117	C	1.704333	-0.276070	0.188312
C118	C	0.942707	-0.938964	-0.376626
C119	C	1.276041	-0.605631	-0.043293
C120	C	1.609374	-0.272297	0.290040
C121	C	0.943075	-0.853330	-0.374899
C122	C	1.276408	-0.519997	-0.041566
C123	C	1.609742	-0.186664	0.291767
C124	C	1.017116	-0.741362	-0.399724
C125	C	1.350450	-0.408028	-0.066391
C126	C	1.683783	-0.074695	0.266942
C127	C	1.017215	-1.057467	-0.399797
C128	C	1.350549	-0.724134	-0.066464
C129	C	1.683882	-0.390801	0.266870
C130	C	1.200697	-0.407575	-0.407504
C131	C	1.534030	-0.074242	-0.074170
C132	C	1.867364	0.259091	0.259163
C133	C	1.278927	-0.410894	-0.410816
C134	C	1.612260	-0.077560	-0.077482
C135	C	1.945594	0.255773	0.255851
C136	C	1.017155	-0.399722	-0.592895
C137	C	1.350488	-0.066389	-0.259562
C138	C	1.683821	0.266944	0.073771
C139	C	1.017170	-0.399694	-0.675210
C140	C	1.350503	-0.066361	-0.341877
C141	C	1.683837	0.266972	-0.008544
C142	C	1.017199	-0.206630	-0.399788
C143	C	1.350532	0.126704	-0.066454
C144	C	1.683865	0.460037	0.266879
C145	C	1.017232	-0.124317	-0.399811
C146	C	1.350566	0.209016	-0.066478
C147	C	1.683899	0.542350	0.266855
C148	C	1.017195	-0.399672	-0.825920
C149	C	1.350528	-0.066339	-0.492586
C150	C	1.683862	0.266994	-0.159253
C151	C	1.071614	-0.344742	-0.859593
C152	C	1.404947	-0.011409	-0.526260
C153	C	1.738281	0.321924	-0.192926
C154	C	1.071841	-0.344907	-0.945221
C155	C	1.405175	-0.011574	-0.611887
C156	C	1.738508	0.321760	-0.278554
C157	C	1.017220	-0.399649	-0.974304
C158	C	1.350553	-0.066316	-0.640970
C159	C	1.683887	0.267017	-0.307637
C160	C	1.037074	-0.478601	-0.944028
C161	C	1.370407	-0.145268	-0.610694
C162	C	1.703740	0.188065	-0.277361
C163	C	1.037454	-0.478300	-0.858399
C164	C	1.370787	-0.144967	-0.525066
C165	C	1.704121	0.188367	-0.191732
C166	C	0.942791	-0.376322	-0.854337
C167	C	1.276124	-0.042989	-0.521003
C168	C	1.609457	0.290345	-0.187670
C169	C	0.943204	-0.374604	-0.940006
C170	C	1.276537	-0.041271	-0.606672
C171	C	1.609870	0.292063	-0.273339
C172	C	1.017233	-0.399641	-1.058164
C173	C	1.350566	-0.066308	-0.724830
C174	C	1.683899	0.267026	-0.391497
C175	C	1.017184	-0.399686	-0.742060
C176	C	1.350517	-0.066353	-0.408727
C177	C	1.683851	0.266981	-0.075393
C178	C	1.017124	-0.399802	-0.207322
C179	C	1.350457	-0.066469	0.126012
C180	C	1.683791	0.266865	0.459345
C181	C	1.017245	-0.399627	-0.125013
C182	C	1.350578	-0.066294	0.208320
C183	C	1.683912	0.267039	0.541654
H184	H	1.058993	-0.964693	-0.286107
H185	H	1.392326	-0.631360	0.047227
H186	H	1.725659	-0.298026	0.380560
O187	O	0.986192	-0.534471	-0.968807
O188	O	1.319526	-0.201137	-0.635474
O189	O	1.652859	0.132196	-0.302140
H190	H	0.960007	-0.559629	-0.919600
H191	H	1.293340	-0.226295	-0.586267
H192	H	1.626673	0.107038	-0.252934
O193	O	1.109779	-0.972176	-0.503846
O194	O	1.443113	-0.638843	-0.170513
O195	O	1.776446	-0.305509	0.162821
H196	H	1.110793	-1.033527	-0.503894
H197	H	1.444126	-0.700194	-0.170561
H198	H	1.777460	-0.366861	0.162772
H199	H	1.059029	-0.837471	-0.286430
H200	H	1.392362	-0.504138	0.046903
H201	H	1.725695	-0.170805	0.380236
H202	H	0.928227	-0.316486	-0.959713
H203	H	1.261560	0.016848	-0.626379
H204	H	1.594893	0.350181	-0.293046
H205	H	0.900517	-0.411416	-0.959568
H206	H	1.233850	-0.078083	-0.626234
H207	H	1.567184	0.255251	-0.292901
H208	H	1.059436	-0.286472	-0.965737
H209	H	1.392769	0.046861	-0.632403
H210	H	1.726102	0.380194	-0.299070
O211	O	0.987225	-0.534604	-0.828766
O212	O	1.320559	-0.201271	-0.495433
O213	O	1.653892	0.132063	-0.162100
H214	H	1.004147	-0.590241	-0.850091
H215	H	1.337480	-0.256907	-0.516757
H216	H	1.670814	0.076426	-0.183424
H217	H	1.090854	-0.498264	-0.967770
H218	H	1.424188	-0.164930	-0.634437
H219	H	1.757521	0.168403	-0.301104
H220	H	1.126981	-0.360626	-0.968044
H221	H	1.460314	-0.027293	-0.634711
H222	H	1.793648	0.306041	-0.301378
H223	H	0.924655	-0.319575	-0.831980
H224	H	1.257988	0.013759	-0.498647
H225	H	1.591322	0.347092	-0.165314
H226	H	1.126777	-0.840752	-0.360408
H227	H	1.460110	-0.507418	-0.027074
H228	H	1.793443	-0.174085	0.306259
O229	O	1.109488	-0.503973	-0.834976
O230	O	1.442821	-0.170640	-0.501643
O231	O	1.776154	0.162693	-0.168310
H232	H	1.143724	-0.516483	-0.884795
H233	H	1.477057	-0.183150	-0.551462
H234	H	1.810391	0.150183	-0.218129
O235	O	0.922988	-0.825650	-0.297959
O236	O	1.256321	-0.492317	0.035374
O237	O	1.589655	-0.158984	0.368707
H238	H	0.873637	-0.791158	-0.299385
H239	H	1.206970	-0.457824	0.033948
H240	H	1.540304	-0.124491	0.367282
O241	O	1.055392	-0.267107	-0.831663
O242	O	1.388725	0.066226	-0.498329
O243	O	1.722058	0.399560	-0.164996
H244	H	1.100888	-0.247554	-0.801868
H245	H	1.434221	0.085780	-0.468535
H246	H	1.767554	0.419113	-0.135202
H247	H	0.285745	-0.325141	-0.325338
H248	H	0.619078	0.008192	0.007995
H249	H	0.952411	0.341526	0.341328
H250	H	0.902249	-0.416289	-0.832331
H251	H	1.235582	-0.082955	-0.498997
H252	H	1.568915	0.250378	-0.165664
H253	H	0.615831	-0.296766	-0.297033
H254	H	0.949164	0.036567	0.036300
H255	H	1.282497	0.369901	0.369633
O256	O	0.428814	-0.318666	-0.318867
O257	O	0.762148	0.014667	0.014467
O258	O	1.095481	0.348001	0.347800
H259	H	0.462283	-0.353188	-0.282548
H260	H	0.795617	-0.019854	0.050786
H261	H	1.128950	0.313479	0.384119
H262	H	0.285761	-0.497216	-0.496868
H263	H	0.619095	-0.163883	-0.163534
H264	H	0.952428	0.169451	0.169799
O265	O	0.758902	-0.290289	-0.290549
O266	O	1.092235	0.043044	0.042784
O267	O	1.425568	0.376377	0.376118
H268	H	0.744810	-0.231586	-0.302755
H269	H	1.078144	0.101747	0.030578
H270	H	1.411477	0.435081	0.363912
O271	O	0.758927	-0.487414	-0.487083
O272	O	1.092260	-0.154080	-0.153749
O273	O	1.425593	0.179253	0.179584
H274	H	0.721024	-0.518777	-0.518365
H275	H	1.054357	-0.185444	-0.185031
H276	H	1.387690	0.147890	0.148302
O277	O	0.606216	-0.481027	-0.480646
O278	O	0.939549	-0.147694	-0.147312
O279	O	1.272882	0.185640	0.186021
H280	H	0.572742	-0.446591	-0.517035
H281	H	0.906075	-0.113257	-0.183702
H282	H	1.239408	0.220076	0.149632
H283	H	0.998955	-0.835090	-0.520935
H284	H	1.332289	-0.501756	-0.187602
H285	H	1.665622	-0.168423	0.145732
H286	H	1.126287	-0.968361	-0.360086
H287	H	1.459621	-0.635028	-0.026753
H288	H	1.792954	-0.301694	0.306580
O289	O	0.428839	-0.515790	-0.515393
O290	O	0.762173	-0.182457	-0.182059
O291	O	1.095506	0.150877	0.151274
H292	H	0.390939	-0.547155	-0.546676
H293	H	0.724272	-0.213822	-0.213342
H294	H	1.057605	0.119511	0.119991
H295	H	0.999897	-0.961861	-0.520986
H296	H	1.333230	-0.628527	-0.187652
H297	H	1.666564	-0.295194	0.145681
O298	O	1.108557	-0.831617	-0.504490
O299	O	1.441891	-0.498284	-0.171157
O300	O	1.775224	-0.164950	0.162176
H301	H	1.129794	-0.796293	-0.461268
H302	H	1.463128	-0.462960	-0.127934
H303	H	1.796461	-0.129627	0.205399
H304	H	0.924417	-0.959855	-0.319919
H305	H	1.257751	-0.626522	0.013414
H306	H	1.591084	-0.293188	0.346747
H307	H	0.900496	-0.830139	-0.411834
H308	H	1.233829	-0.496806	-0.078501
H309	H	1.567162	-0.163472	0.254833
O310	O	0.889147	-0.963683	-0.429610
O311	O	1.222480	-0.630350	-0.096277
O312	O	1.555814	-0.297017	0.237056
H313	H	0.915404	-1.000443	-0.472239
H314	H	1.248738	-0.667110	-0.138906
H315	H	1.582071	-0.333777	0.194427
O316	O	1.144235	-0.365342	-0.834181
O317	O	1.477569	-0.032009	-0.500847
O318	O	1.810902	0.301325	-0.167514
H319	H	1.141739	-0.414534	-0.797672
H320	H	1.475073	-0.081200	-0.464339
H321	H	1.808406	0.252133	-0.131006
