data_functionalizedCrystal
_audit_creation_method	'MofGen! by Chris Wilmer'
_symmetry_space_group_name_H-M	'P1'
_symmetry_Int_Tables_number	1
_symmetry_cell_setting	triclinic
loop_
_symmetry_equiv_pos_as_xyz
  x,y,z
_cell_length_a	10.654545
_cell_length_b	10.654550
_cell_length_c	9.730223
_cell_angle_alpha	90.004253
_cell_angle_beta	89.997167
_cell_angle_gamma	95.515995
loop_
_atom_site_label
_atom_site_type_symbol
_atom_site_fract_x
_atom_site_fract_y
_atom_site_fract_z
O1	O	1.667842	-0.176372	-0.114276
O2	O	2.167842	0.323628	0.385724
O3	O	1.302363	-0.193184	-0.114282
O4	O	1.802363	0.306816	0.385718
O5	O	1.493506	-0.002038	-0.114270
O6	O	1.993506	0.497962	0.385730
O7	O	1.476700	-0.367517	-0.114287
O8	O	1.976700	0.132483	0.385713
O9	O	1.493493	-0.002033	0.114310
O10	O	1.993493	0.497967	0.614310
O11	O	1.302351	-0.193178	0.114298
O12	O	1.802351	0.306822	0.614298
O13	O	1.667830	-0.176366	0.114304
O14	O	2.167830	0.323634	0.614304
Zn15	Zn	1.485088	-0.184771	0.150593
Zn16	Zn	1.985088	0.315229	0.650593
Zn17	Zn	1.485105	-0.184778	-0.150571
Zn18	Zn	1.985105	0.315222	0.349429
O19	O	1.476687	-0.367512	0.114292
O20	O	1.976687	0.132488	0.614292
C21	C	1.255559	-0.191948	0.000008
C22	C	1.755559	0.308052	0.500008
C23	C	1.116115	-0.188258	0.000006
C24	C	1.616115	0.311742	0.500006
C25	C	1.050604	-0.186518	0.124606
C26	C	1.550604	0.313482	0.624606
C27	C	0.919585	-0.183031	0.124606
C28	C	1.419585	0.316969	0.624606
C29	C	0.919599	-0.183028	-0.124605
C30	C	1.419599	0.316972	0.375395
C31	C	1.050617	-0.186507	-0.124603
C32	C	1.550617	0.313493	0.375397
C33	C	1.492266	0.044762	0.000019
C34	C	1.992266	0.544762	0.500019
C35	C	1.488574	0.184206	0.000017
C36	C	1.988574	0.684206	0.500017
C37	C	1.714634	-0.177602	0.000012
C38	C	2.214634	0.322398	0.500012
C39	C	1.854078	-0.181292	0.000005
C40	C	2.354078	0.318708	0.500005
N41	N	1.485086	-0.184766	0.356130
N42	N	1.985086	0.315234	0.856130
C43	C	1.477927	-0.414312	0.000000
C44	C	1.977927	0.085688	0.500000
C45	C	1.481619	-0.553755	-0.000007
C46	C	1.981619	-0.053755	0.499993
C47	C	1.601115	0.263693	0.000018
C48	C	2.101115	0.763693	0.500018
C49	C	1.597639	0.394714	0.000002
C50	C	2.097639	0.894714	0.500002
C51	C	1.369069	0.366747	-0.000012
C52	C	1.869069	0.866747	0.499988
C53	C	1.372547	0.235729	-0.000005
C54	C	1.872547	0.735729	0.499995
N55	N	1.485117	-0.184774	-0.356107
N56	N	1.985117	0.315226	0.143893
C57	C	1.569753	-0.100163	0.428061
C58	C	2.069753	0.399837	0.928061
C59	C	1.569766	-0.100163	0.571944
C60	C	2.069766	0.399837	1.071944
C61	C	1.400440	-0.269381	0.571952
C62	C	1.900440	0.230619	1.071952
C63	C	1.400423	-0.269374	0.428071
C64	C	1.900423	0.230626	0.928071
H65	H	1.103958	-0.187920	-0.226074
H66	H	1.603958	0.312080	0.273926
H67	H	1.103929	-0.187944	0.226070
H68	H	1.603929	0.312056	0.726070
H69	H	1.280896	0.171006	-0.000010
H70	H	1.780896	0.671006	0.499990
Br71	Br	1.211612	0.436680	-0.000046
Br72	Br	1.711612	0.936680	0.499954
Br73	Br	0.830705	-0.180613	-0.293709
Br74	Br	1.330705	0.319387	0.206291
Br75	Br	1.758579	0.193772	0.000049
Br76	Br	2.258579	0.693772	0.500049
Br77	Br	1.285500	-0.384190	0.330439
Br78	Br	1.785500	0.115810	0.830439
Br79	Br	1.750381	0.502586	-0.000005
Br80	Br	2.250381	1.002586	0.499995
Br81	Br	1.684651	0.014664	0.330430
Br82	Br	2.184651	0.514664	0.830430
Br83	Br	0.830681	-0.180667	0.293713
Br84	Br	1.330681	0.319333	0.793713
H85	H	1.638708	-0.031270	0.630506
H86	H	2.138708	0.468730	1.130506
Br87	Br	1.285546	-0.384204	0.669592
Br88	Br	1.785546	0.115796	1.169592
