data_functionalizedCrystal
_audit_creation_method	'MofGen! by Chris Wilmer'
_symmetry_space_group_name_H-M	'P1'
_symmetry_Int_Tables_number	1
_symmetry_cell_setting	triclinic
loop_
_symmetry_equiv_pos_as_xyz
  x,y,z
_cell_length_a	13.897449
_cell_length_b	16.959453
_cell_length_c	16.959447
_cell_angle_alpha	89.968936
_cell_angle_beta	89.985709
_cell_angle_gamma	90.021267
loop_
_atom_site_label
_atom_site_type_symbol
_atom_site_fract_x
_atom_site_fract_y
_atom_site_fract_z
Zn1	Zn	1.474626	-0.314639	-0.446904
Zn2	Zn	1.474532	-0.446831	-0.314724
Zn3	Zn	1.313333	-0.314674	-0.314742
Zn4	Zn	1.313290	-0.446782	-0.446862
O5	O	1.393945	-0.380732	-0.380808
O6	O	1.609595	-0.332181	-0.429380
O7	O	1.453127	-0.429336	-0.204115
O8	O	1.334786	-0.204058	-0.332298
O9	O	1.609526	-0.429302	-0.332268
O10	O	1.453287	-0.204033	-0.429397
O11	O	1.334695	-0.332240	-0.204128
O12	O	1.178346	-0.332192	-0.332258
O13	O	1.334713	-0.429218	-0.557479
O14	O	1.178314	-0.429252	-0.429326
O15	O	1.453246	-0.332133	-0.557509
O16	O	1.453085	-0.557436	-0.332227
O17	O	1.334622	-0.557400	-0.429309
C18	C	1.143331	-0.380721	-0.380790
C19	C	1.036117	-0.380736	-0.380801
C20	C	0.839822	-0.380738	-0.380822
C21	C	0.949054	-0.380734	-0.380808
C22	C	1.393865	-0.586098	-0.380779
C23	C	1.393919	-0.673954	-0.380793
C24	C	1.455728	-1.045358	-0.431463
C25	C	1.332432	-1.045502	-0.330270
C26	C	1.332396	-0.962956	-0.330252
C27	C	1.394026	-0.921607	-0.380841
C28	C	1.455692	-0.962805	-0.431448
C29	C	1.270725	-0.921752	-0.279652
C30	C	1.270686	-0.839202	-0.279632
C31	C	1.332321	-0.797851	-0.330218
C32	C	1.393990	-0.839054	-0.380826
C33	C	1.455620	-0.797705	-0.431415
C34	C	1.517295	-0.838906	-0.482020
C35	C	1.517327	-0.921455	-0.482033
C36	C	1.332289	-0.715303	-0.330204
C37	C	1.455584	-0.715152	-0.431400
C38	C	1.645538	-0.380743	-0.380826
C39	C	1.752752	-0.380748	-0.380834
C40	C	1.393985	-0.380666	-0.586976
C41	C	1.394002	-0.380638	-0.674833
C42	C	1.394052	-0.174563	-0.380854
C43	C	1.394098	-0.086707	-0.380874
C44	C	1.332403	-0.431103	-1.046295
C45	C	1.455832	-0.330007	-1.046322
C46	C	1.455807	-0.330024	-0.963776
C47	C	1.394079	-0.380582	-0.922486
C48	C	1.332378	-0.431123	-0.963742
C49	C	1.517514	-0.279490	-0.922514
C50	C	1.517492	-0.279505	-0.839963
C51	C	1.455759	-0.330059	-0.798672
C52	C	1.394054	-0.380602	-0.839932
C53	C	1.332326	-0.431159	-0.798642
C54	C	1.270616	-0.481698	-0.839901
C55	C	1.270645	-0.481677	-0.922450
C56	C	1.455730	-0.330081	-0.716123
C57	C	1.332301	-0.431179	-0.716089
C58	C	1.393961	-0.380740	-0.175442
C59	C	1.394131	-0.380545	-0.087585
H60	H	1.505775	-0.681491	-0.472593
Cl61	Cl	1.254826	-0.494632	-1.098161
Cl62	Cl	1.595116	-0.215942	-0.974425
H63	H	1.567538	-0.955008	-0.523234
Cl64	Cl	1.193079	-0.545210	-0.974323
Cl65	Cl	1.254945	-1.097484	-0.266688
Cl66	Cl	1.193152	-0.787414	-0.216017
Cl67	Cl	1.533435	-0.266458	-1.098231
Cl68	Cl	1.595065	-0.215969	-0.788102
Cl69	Cl	1.533308	-0.266557	-0.664258
H70	H	1.220547	-0.955425	-0.238467
Cl71	Cl	1.254760	-0.663511	-0.266594
H72	H	1.505944	-1.078908	-0.472662
Cl73	Cl	1.254691	-0.494737	-0.664188
Cl74	Cl	1.594760	-0.786915	-0.545622
H75	H	1.220362	-0.522866	-0.806272
