data_functionalizedCrystal
_audit_creation_method	'MofGen! by Chris Wilmer'
_symmetry_space_group_name_H-M	'P1'
_symmetry_Int_Tables_number	1
_symmetry_cell_setting	triclinic
loop_
_symmetry_equiv_pos_as_xyz
  x,y,z
_cell_length_a	19.077105
_cell_length_b	16.959454
_cell_length_c	19.076919
_cell_angle_alpha	92.275489
_cell_angle_beta	90.076224
_cell_angle_gamma	87.716588
loop_
_atom_site_label
_atom_site_type_symbol
_atom_site_fract_x
_atom_site_fract_y
_atom_site_fract_z
Zn1	Zn	1.058295	-0.382399	-0.440440
Zn2	Zn	1.062944	-0.509490	-0.322940
Zn3	Zn	0.945513	-0.371810	-0.318233
Zn4	Zn	0.940765	-0.509013	-0.435693
O5	O	1.001879	-0.443178	-0.379326
O6	O	1.157244	-0.403889	-0.428810
O7	O	1.051298	-0.486995	-0.223984
O8	O	0.960515	-0.262606	-0.334460
O9	O	1.160659	-0.497262	-0.342484
O10	O	1.043376	-0.270386	-0.424245
O11	O	0.965022	-0.385842	-0.220526
O12	O	0.846551	-0.385379	-0.329857
O13	O	0.952424	-0.496450	-0.534654
O14	O	0.843063	-0.486182	-0.416155
O15	O	1.038773	-0.403426	-0.538142
O16	O	1.046695	-0.620035	-0.337881
O17	O	0.956931	-0.619685	-0.420720
C18	C	0.819311	-0.434581	-0.371980
C19	C	0.741206	-0.430922	-0.368854
C20	C	0.702718	-0.481759	-0.412246
C21	C	0.629330	-0.478312	-0.409312
C22	C	0.594433	-0.424030	-0.362983
C23	C	0.632926	-0.373188	-0.319590
C24	C	0.706312	-0.376632	-0.322528
C25	C	0.375144	-0.408090	-0.349389
C26	C	0.301753	-0.404651	-0.346453
C27	C	0.298162	-0.509774	-0.436177
C28	C	0.371550	-0.513217	-0.439107
C29	C	0.410037	-0.462372	-0.395717
N30	N	0.519419	-0.420507	-0.359981
N31	N	0.485049	-0.465892	-0.398723
C32	C	1.001821	-0.648541	-0.379312
C33	C	1.001859	-0.736400	-0.379332
C34	C	0.955205	-1.107727	-0.422458
C35	C	1.048747	-1.108038	-0.336274
C36	C	1.048723	-1.025491	-0.336266
C37	C	1.001938	-0.984058	-0.379355
C38	C	0.955178	-1.025172	-0.422451
C39	C	1.095477	-0.984370	-0.293166
C40	C	1.095454	-0.901818	-0.293156
C41	C	1.048672	-0.860383	-0.336249
C42	C	1.001911	-0.901503	-0.379347
C43	C	0.955126	-0.860069	-0.422436
C44	C	0.908367	-0.901187	-0.465538
C45	C	0.908396	-0.983737	-0.465543
C46	C	1.048644	-0.777834	-0.336244
C47	C	0.955099	-0.777514	-0.422428
C48	C	1.185161	-0.451810	-0.386702
C49	C	1.263265	-0.455488	-0.389844
C50	C	0.994550	-0.451066	-0.562607
C51	C	0.991427	-0.454427	-0.640710
C52	C	1.001956	-0.237015	-0.379357
C53	C	1.001989	-0.149160	-0.379370
C54	C	1.034915	-0.407577	-0.679220
C55	C	1.031972	-0.410731	-0.752606
C56	C	0.985544	-0.460742	-0.787481
C57	C	0.942052	-0.507595	-0.748966
C58	C	0.944992	-0.504435	-0.675581
C59	C	0.971927	-0.475381	-1.006763
C60	C	0.968992	-0.478539	-1.080153
C61	C	1.058911	-0.381674	-1.083788
C62	C	1.061850	-0.378523	-1.010402
C63	C	1.018355	-0.425372	-0.971893
N64	N	0.982536	-0.463970	-0.862493
N65	N	1.021360	-0.422140	-0.896882
C66	C	1.009220	-0.435266	-0.196760
C67	C	1.012479	-0.431688	-0.118663
H68	H	0.399959	-0.557420	-0.476832
O69	O	0.267924	-0.351954	-0.301361
C70	C	0.288613	-0.366924	-0.232009
H71	H	0.341954	-0.399728	-0.232622
H72	H	0.292370	-0.308581	-0.200697
H73	H	0.248246	-0.404565	-0.206630
H74	H	1.094322	-0.343531	-1.115150
H75	H	1.086833	-1.141778	-0.301189
O76	O	1.140933	-1.024692	-0.251381
C77	C	1.184695	-1.076311	-0.293201
H78	H	1.186864	-1.053998	-0.348713
H79	H	1.239777	-1.078729	-0.269938
H80	H	1.162832	-1.137945	-0.294770
H81	H	1.099658	-0.337801	-0.982012
O82	O	1.140848	-0.861962	-0.251194
C83	C	1.128346	-0.878412	-0.180531
H84	H	1.101409	-0.937035	-0.177968
H85	H	1.180346	-0.882239	-0.151109
H86	H	1.093176	-0.829266	-0.155377
H87	H	0.597996	-0.519710	-0.444645
O88	O	0.923826	-0.527138	-1.113920
C89	C	0.886078	-0.567826	-1.064197
H90	H	0.885748	-0.533085	-1.011792
H91	H	0.829863	-0.574560	-1.083173
H92	H	0.912098	-0.628734	-1.057417
H93	H	0.904247	-0.548311	-0.777367
O94	O	0.736650	-0.534570	-0.457152
C95	C	0.780694	-0.585809	-0.418772
H96	H	0.760781	-0.587177	-0.362535
H97	H	0.780502	-0.647811	-0.444129
H98	H	0.836413	-0.563875	-0.418616
H99	H	1.086711	-0.744359	-0.301147
H100	H	1.072724	-0.366855	-0.650831
H101	H	0.936521	-0.513541	-0.975418
O102	O	1.074241	-0.365333	-0.790098
C103	C	1.117917	-0.414294	-0.834365
H104	H	1.092674	-0.473502	-0.844347
H105	H	1.125267	-0.384761	-0.886355
H106	H	1.171126	-0.424209	-0.808190
H107	H	0.266818	-0.551169	-0.471504
O108	O	0.863020	-0.860906	-0.507472
C109	C	0.901162	-0.816923	-0.554472
H110	H	0.956334	-0.844548	-0.561088
H111	H	0.873544	-0.817110	-0.607505
H112	H	0.904452	-0.753547	-0.532830
O113	O	0.902730	-0.550035	-0.638278
C114	C	0.861113	-0.594844	-0.684794
H115	H	0.887795	-0.601180	-0.738267
H116	H	0.854454	-0.655858	-0.663281
H117	H	0.807439	-0.563731	-0.690446
O118	O	0.412555	-0.358629	-0.307340
C119	C	0.453435	-0.311377	-0.349122
H120	H	0.429118	-0.307933	-0.403587
H121	H	0.455291	-0.249453	-0.323832
H122	H	0.508952	-0.338532	-0.353734
H123	H	0.870326	-1.017223	-0.500634
H124	H	0.604506	-0.328988	-0.281870
H125	H	0.737648	-0.335231	-0.287197
O126	O	0.909749	-0.737241	-0.464365
C127	C	0.947887	-0.693260	-0.511371
H128	H	1.003061	-0.720879	-0.517984
H129	H	0.920269	-0.693457	-0.564404
H130	H	0.951171	-0.629880	-0.489736
H131	H	0.917137	-1.141209	-0.457553
