data_functionalizedCrystal
_audit_creation_method	'MofGen! by Chris Wilmer'
_symmetry_space_group_name_H-M	'P1'
_symmetry_Int_Tables_number	1
_symmetry_cell_setting	triclinic
loop_
_symmetry_equiv_pos_as_xyz
  x,y,z
_cell_length_a	12.827893
_cell_length_b	15.297327
_cell_length_c	12.827893
_cell_angle_alpha	80.337892
_cell_angle_beta	90.003976
_cell_angle_gamma	99.706564
loop_
_atom_site_label
_atom_site_type_symbol
_atom_site_fract_x
_atom_site_fract_y
_atom_site_fract_z
Zn1	Zn	1.525380	-0.359341	0.662818
Zn2	Zn	1.495042	-0.510177	0.518289
Zn3	Zn	1.350671	-0.359326	0.488089
Zn4	Zn	1.320330	-0.510169	0.692987
O5	O	1.422856	-0.434753	0.590546
O6	O	1.667589	-0.379359	0.643659
O7	O	1.475893	-0.490163	0.368046
O8	O	1.399240	-0.233074	0.486003
O9	O	1.645301	-0.490178	0.537474
O10	O	1.527598	-0.233085	0.614376
O11	O	1.369823	-0.379334	0.345859
O12	O	1.200412	-0.379326	0.515256
O13	O	1.347529	-0.490164	0.835222
O14	O	1.178121	-0.490149	0.665794
O15	O	1.498178	-0.379351	0.813057
O16	O	1.446472	-0.636430	0.566727
O17	O	1.318112	-0.636423	0.695077
C18	C	1.151349	-0.434736	0.590522
C19	C	1.035193	-0.434750	0.590542
C20	C	1.375736	-0.669163	0.637476
C21	C	1.355674	-0.769444	0.657588
C22	C	0.972389	-0.489674	0.664952
C23	C	0.852335	-0.489690	0.664973
C24	C	1.566675	-1.052008	0.447160
C25	C	1.585524	-0.957789	0.428259
C26	C	1.528063	-0.910698	0.485589
C27	C	1.451750	-0.957836	0.561824
C28	C	1.432893	-1.052065	0.580722
C29	C	1.394282	-0.910754	0.619151
C30	C	1.317968	-0.957892	0.695386
C31	C	1.299116	-1.052112	0.714281
C32	C	1.356576	-1.099203	0.656950
C33	C	1.413138	-0.816526	0.600254
C34	C	1.279357	-0.816582	0.733816
C35	C	1.260508	-0.910801	0.752717
C36	C	1.695422	-0.434771	0.590570
C37	C	1.811574	-0.434779	0.590580
C38	C	1.422853	-0.434758	0.863117
C39	C	1.422852	-0.434760	0.979270
C40	C	1.470188	-0.199428	0.543455
C41	C	1.490358	-0.099146	0.523388
C42	C	1.497386	-0.379937	1.140134
C43	C	1.497389	-0.379933	1.020083
C44	C	1.422847	-0.434768	1.319039
C45	C	1.422848	-0.434766	1.202885
H46	H	1.007499	-0.536682	0.728644
H47	H	0.798366	-0.536716	0.728676
Br48	Br	0.901510	-0.356404	0.484383
H49	H	1.543414	-0.833980	0.470194
H50	H	1.000084	-0.387735	0.526856
H51	H	1.359038	-0.481707	1.167733
H52	H	1.359028	-0.481698	1.033186
Br53	Br	1.516701	-0.752564	0.496794
Br54	Br	1.330530	-1.227076	0.682130
Br55	Br	1.689096	-0.893822	0.324811
H56	H	1.561203	-0.333002	1.175288
Br57	Br	1.156945	-0.974785	0.856178
Br58	Br	1.603752	-0.301683	0.930213
H59	H	1.236964	-1.090489	0.776344
H60	H	1.613445	-1.090358	0.400483
Br61	Br	1.201359	-0.752681	0.811617
