data_functionalizedCrystal
_audit_creation_method	'MofGen! by Chris Wilmer'
_symmetry_space_group_name_H-M	'P1'
_symmetry_Int_Tables_number	1
_symmetry_cell_setting	triclinic
loop_
_symmetry_equiv_pos_as_xyz
  x,y,z
_cell_length_a	21.395362
_cell_length_b	18.050589
_cell_length_c	21.395355
_cell_angle_alpha	89.987098
_cell_angle_beta	89.956060
_cell_angle_gamma	90.044101
loop_
_atom_site_label
_atom_site_type_symbol
_atom_site_fract_x
_atom_site_fract_y
_atom_site_fract_z
Zn1	Zn	0.957870	-0.295431	-0.354610
Zn2	Zn	1.291204	0.037903	-0.021277
Zn3	Zn	1.624537	0.371236	0.312057
Zn4	Zn	0.957777	-0.419603	-0.249843
Zn5	Zn	1.291111	-0.086269	0.083491
Zn6	Zn	1.624444	0.247064	0.416824
Zn7	Zn	0.853085	-0.295465	-0.249811
Zn8	Zn	1.186419	0.037868	0.083522
Zn9	Zn	1.519752	0.371201	0.416855
Zn10	Zn	0.853059	-0.419618	-0.354548
Zn11	Zn	1.186392	-0.086285	-0.021214
Zn12	Zn	1.519726	0.247049	0.312119
O13	O	0.905448	-0.357529	-0.302203
O14	O	1.238781	-0.024196	0.031130
O15	O	1.572115	0.309138	0.364464
O16	O	1.045536	-0.311882	-0.340752
O17	O	1.378869	0.021452	-0.007418
O18	O	1.712203	0.354785	0.325915
O19	O	0.943862	-0.403144	-0.162161
O20	O	1.277195	-0.069810	0.171173
O21	O	1.610528	0.263523	0.504506
O22	O	0.867035	-0.191536	-0.263726
O23	O	1.200368	0.141797	0.069607
O24	O	1.533702	0.475131	0.402941
O25	O	1.045468	-0.403110	-0.263780
O26	O	1.378801	-0.069777	0.069554
O27	O	1.712134	0.263557	0.402887
O28	O	0.944020	-0.191511	-0.340721
O29	O	1.277354	0.141823	-0.007388
O30	O	1.610687	0.475156	0.325945
O31	O	0.866945	-0.311940	-0.162138
O32	O	1.200278	0.021393	0.171196
O33	O	1.533612	0.354726	0.504529
O34	O	0.765404	-0.311955	-0.263665
O35	O	1.098737	0.021378	0.069668
O36	O	1.432071	0.354711	0.403001
O37	O	0.866990	-0.403136	-0.442234
O38	O	1.200324	-0.069803	-0.108900
O39	O	1.533657	0.263531	0.224433
O40	O	0.765385	-0.403170	-0.340615
O41	O	1.098718	-0.069836	-0.007281
O42	O	1.432051	0.263497	0.326052
O43	O	0.943995	-0.311896	-0.442280
O44	O	1.277328	0.021437	-0.108946
O45	O	1.610661	0.354770	0.224387
O46	O	0.943836	-0.523529	-0.263719
O47	O	1.277170	-0.190196	0.069614
O48	O	1.610503	0.143137	0.402948
O49	O	0.866900	-0.523540	-0.340645
O50	O	1.200234	-0.190207	-0.007312
O51	O	1.533567	0.143126	0.326021
C52	C	0.742660	-0.357568	-0.302130
C53	C	1.075994	-0.024235	0.031203
C54	C	1.409327	0.309098	0.364536
C55	C	0.673019	-0.357603	-0.302114
C56	C	1.006352	-0.024270	0.031219
C57	C	1.339686	0.309064	0.364553
C58	C	0.640312	-0.405161	-0.342121
C59	C	0.973646	-0.071828	-0.008788
C60	C	1.306979	0.261505	0.324545
C61	C	0.574877	-0.405143	-0.342149
C62	C	0.908210	-0.071810	-0.008816
C63	C	1.241544	0.261524	0.324517
C64	C	0.542151	-0.357574	-0.302159
C65	C	0.875484	-0.024241	0.031175
C66	C	1.208817	0.309092	0.364508
C67	C	0.574865	-0.310007	-0.262148
C68	C	0.908199	0.023326	0.071185
C69	C	1.241532	0.356660	0.404518
C70	C	0.640300	-0.310021	-0.262126
C71	C	0.973633	0.023312	0.071207
C72	C	1.306966	0.356645	0.404541
C73	C	0.438426	-0.351592	-0.245753
C74	C	0.771759	-0.018258	0.087580
C75	C	1.105092	0.315075	0.420914
C76	C	0.372993	-0.351583	-0.245774
C77	C	0.706326	-0.018249	0.087559
C78	C	1.039660	0.315084	0.420893
C79	C	0.340330	-0.357526	-0.302228
C80	C	0.673663	-0.024193	0.031106
C81	C	1.006997	0.309141	0.364439
C82	C	0.373108	-0.363494	-0.358662
C83	C	0.706442	-0.030161	-0.025329
C84	C	1.039775	0.303173	0.308005
C85	C	0.438542	-0.363508	-0.358640
C86	C	0.771876	-0.030175	-0.025306
C87	C	1.105209	0.303158	0.308027
C88	C	0.471198	-0.357553	-0.302179
C89	C	0.804532	-0.024220	0.031155
C90	C	1.137865	0.309113	0.364488
C91	C	0.236671	-0.405067	-0.342269
C92	C	0.570004	-0.071734	-0.008936
C93	C	0.903337	0.261600	0.324398
C94	C	0.171234	-0.405044	-0.342298
C95	C	0.504568	-0.071710	-0.008965
C96	C	0.837901	0.261623	0.324369
C97	C	0.171224	-0.309911	-0.262291
C98	C	0.504557	0.023422	0.071042
C99	C	0.837891	0.356755	0.404375
C100	C	0.236659	-0.309931	-0.262268
C101	C	0.569993	0.023402	0.071065
C102	C	0.903326	0.356736	0.404399
C103	C	0.269379	-0.357513	-0.302256
C104	C	0.602712	-0.024179	0.031077
C105	C	0.936045	0.309154	0.364411
C106	C	0.905372	-0.550481	-0.302192
C107	C	1.238706	-0.217148	0.031141
C108	C	1.572039	0.116185	0.364474
C109	C	0.905397	-0.633027	-0.302209
C110	C	1.238731	-0.299694	0.031124
C111	C	1.572064	0.033640	0.364458
C112	C	0.863601	-0.832511	-0.344027
C113	C	1.196934	-0.499177	-0.010693
C114	C	1.530267	-0.165844	0.322640
C115	C	0.848322	-0.881943	-0.286848
C116	C	1.181656	-0.548610	0.046485
C117	C	1.514989	-0.215277	0.379818
C118	C	0.905459	-0.784157	-0.302217
C119	C	1.238792	-0.450824	0.031116
C120	C	1.572126	-0.117491	0.364449
C121	C	0.920768	-0.881806	-0.359402
C122	C	1.254101	-0.548473	-0.026069
C123	C	1.587435	-0.215140	0.307265
C124	C	0.905517	-0.930142	-0.302230
C125	C	1.238850	-0.596809	0.031103
C126	C	1.572184	-0.263476	0.364437
C127	C	0.890151	-0.832503	-0.245009
C128	C	1.223484	-0.499170	0.088325
C129	C	1.556817	-0.165836	0.421658
C130	C	0.962623	-0.832361	-0.317601
C131	C	1.295956	-0.499028	0.015733
C132	C	1.629289	-0.165695	0.349066
C133	C	0.947366	-0.881772	-0.260383
C134	C	1.280700	-0.548438	0.072950
C135	C	1.614033	-0.215105	0.406284
C136	C	0.905424	-0.700059	-0.302211
C137	C	1.238757	-0.366726	0.031123
C138	C	1.572090	-0.033392	0.364456
C139	C	0.905552	-1.014239	-0.302230
C140	C	1.238886	-0.680906	0.031103
C141	C	1.572219	-0.347572	0.364436
C142	C	1.068871	-0.357490	-0.302276
C143	C	1.402205	-0.024157	0.031057
C144	C	1.735538	0.309176	0.364390
C145	C	1.138513	-0.357474	-0.302307
C146	C	1.471846	-0.024140	0.031026
C147	C	1.805179	0.309193	0.364359
C148	C	0.905500	-0.357514	-0.465626
C149	C	1.238833	-0.024181	-0.132293
C150	C	1.572167	0.309153	0.201040
C151	C	0.905522	-0.357508	-0.535268
C152	C	1.238856	-0.024174	-0.201934
C153	C	1.572189	0.309159	0.131399
C154	C	0.905541	-0.163823	-0.302227
C155	C	1.238874	0.169510	0.031106
C156	C	1.572208	0.502843	0.364440
C157	C	0.905581	-0.081278	-0.302237
C158	C	1.238914	0.252056	0.031096
C159	C	1.572247	0.585389	0.364429
C160	C	0.945617	-0.309997	-0.568006
C161	C	1.278950	0.023336	-0.234672
C162	C	1.612283	0.356670	0.098661
C163	C	0.945616	-0.309965	-0.633441
C164	C	1.278949	0.023368	-0.300108
C165	C	1.612282	0.356701	0.033226
C166	C	0.905527	-0.357457	-0.666136
C167	C	1.238860	-0.024124	-0.332803
C168	C	1.572194	0.309210	0.000531
C169	C	0.865425	-0.404971	-0.633390
C170	C	1.198758	-0.071638	-0.300057
C171	C	1.532091	0.261696	0.033277
C172	C	0.865422	-0.404996	-0.567956
C173	C	1.198756	-0.071663	-0.234622
C174	C	1.532089	0.261670	0.098711
C175	C	0.900554	-0.424328	-0.769805
C176	C	1.233887	-0.090994	-0.436472
C177	C	1.567220	0.242339	-0.103139
C178	C	0.900560	-0.424304	-0.835238
C179	C	1.233894	-0.090970	-0.501905
C180	C	1.567227	0.242363	-0.168572
C181	C	0.905531	-0.357379	-0.867957
C182	C	1.238864	-0.024045	-0.534623
C183	C	1.572198	0.309288	-0.201290
C184	C	0.910508	-0.290475	-0.835234
C185	C	1.243841	0.042858	-0.501901
C186	C	1.577174	0.376191	-0.168568
C187	C	0.910505	-0.290501	-0.769800
C188	C	1.243839	0.042833	-0.436467
C189	C	1.577172	0.376166	-0.103133
C190	C	0.905525	-0.357435	-0.737088
C191	C	1.238858	-0.024101	-0.403755
C192	C	1.572192	0.309232	-0.070422
C193	C	0.945627	-0.309829	-0.971647
C194	C	1.278960	0.023504	-0.638314
C195	C	1.612293	0.356837	-0.304981
C196	C	0.945621	-0.309796	-1.037084
C197	C	1.278955	0.023537	-0.703751
C198	C	1.612288	0.356870	-0.370417
C199	C	0.865434	-0.404809	-1.037032
C200	C	1.198767	-0.071475	-0.703698
C201	C	1.532100	0.261858	-0.370365
C202	C	0.865436	-0.404835	-0.971596
C203	C	1.198769	-0.071502	-0.638263
C204	C	1.532102	0.261832	-0.304930
C205	C	0.905535	-0.357347	-0.938908
C206	C	1.238869	-0.024013	-0.605575
C207	C	1.572202	0.309320	-0.272241
C208	C	0.905432	-0.357490	-0.139415
C209	C	1.238766	-0.024157	0.193918
C210	C	1.572099	0.309176	0.527251
C211	C	0.905531	-0.357288	-0.069774
C212	C	1.238865	-0.023954	0.263559
C213	C	1.572198	0.309379	0.596892
H214	H	0.263312	-0.443807	-0.374833
H215	H	0.596646	-0.110474	-0.041499
H216	H	0.929979	0.222860	0.291834
H217	H	0.914556	-0.235979	-0.861872
H218	H	1.247890	0.097355	-0.528539
H219	H	1.581223	0.430688	-0.195205
C220	C	0.989723	-0.257583	-0.935688
C221	C	1.323056	0.075750	-0.602354
C222	C	1.656390	0.409084	-0.269021
H223	H	1.013595	-0.229272	-0.964560
H224	H	1.346928	0.104061	-0.631226
H225	H	1.680261	0.437395	-0.297893
H226	H	1.017011	-0.285989	-0.910183
H227	H	1.350344	0.047344	-0.576850
H228	H	1.683678	0.380678	-0.243516
H229	H	0.965761	-0.225241	-0.910143
H230	H	1.299095	0.108092	-0.576810
H231	H	1.632428	0.441425	-0.243477
H232	H	0.832782	-0.443637	-0.660014
H233	H	1.166116	-0.110303	-0.326681
H234	H	1.499449	0.223030	0.006652
H235	H	0.978264	-0.271272	-0.660102
H236	H	1.311598	0.062061	-0.326768
H237	H	1.644931	0.395394	0.006565
C238	C	0.989728	-0.257532	-1.073096
C239	C	1.323061	0.075801	-0.739763
C240	C	1.656395	0.409134	-0.406430
H241	H	1.013612	-0.229261	-1.044254
H242	H	1.346945	0.104072	-0.710921
H243	H	1.680279	0.437406	-0.377587
H244	H	0.965781	-0.225166	-1.098601
H245	H	1.299114	0.108167	-0.765268
H246	H	1.632447	0.441501	-0.431934
H247	H	1.017014	-0.285933	-1.098645
H248	H	1.350347	0.047400	-0.765311
H249	H	1.683680	0.380734	-0.431978
H250	H	0.666929	-0.271291	-0.229547
H251	H	1.000262	0.062042	0.103786
H252	H	1.333596	0.395375	0.437120
H253	H	0.832786	-0.443470	-1.063651
H254	H	1.166120	-0.110137	-0.730318
H255	H	1.499453	0.223197	-0.396985
C256	C	0.815717	-0.803283	-0.391725
C257	C	1.149051	-0.469950	-0.058392
C258	C	1.482384	-0.136616	0.274941
H259	H	0.836602	-0.774283	-0.422369
H260	H	1.169935	-0.440949	-0.089035
H261	H	1.503269	-0.107616	0.244298
H262	H	0.785562	-0.773652	-0.370831
H263	H	1.118896	-0.440319	-0.037497
H264	H	1.452229	-0.106986	0.295836
H265	H	0.795454	-0.843888	-0.411411
H266	H	1.128787	-0.510555	-0.078077
H267	H	1.462121	-0.177222	0.255256
C268	C	0.783054	-0.911367	-0.269273
C269	C	1.116387	-0.578034	0.064060
C270	C	1.449720	-0.244701	0.397394
H271	H	0.753339	-0.894506	-0.299015
H272	H	1.086672	-0.561173	0.034319
H273	H	1.420005	-0.227840	0.367652
H274	H	0.771910	-0.893761	-0.228942
H275	H	1.105244	-0.560428	0.104392
H276	H	1.438577	-0.227095	0.437725
H277	H	0.783643	-0.963991	-0.269035
H278	H	1.116977	-0.630658	0.064299
H279	H	1.450310	-0.297325	0.397632
C280	C	0.337191	-0.370025	-0.420767
C281	C	0.670525	-0.036691	-0.087433
C282	C	1.003858	0.296642	0.245900
H283	H	0.366084	-0.373584	-0.454370
H284	H	0.699417	-0.040251	-0.121037
H285	H	1.032750	0.293083	0.212296
H286	H	0.311710	-0.327464	-0.426342
H287	H	0.645043	0.005869	-0.093009
H288	H	0.978376	0.339203	0.240325
H289	H	0.311627	-0.413068	-0.419903
H290	H	0.644960	-0.079735	-0.086569
H291	H	0.978293	0.253598	0.246764
H292	H	0.832790	-0.443528	-0.944941
H293	H	1.166123	-0.110195	-0.611607
H294	H	1.499457	0.223139	-0.278274
H295	H	0.144579	-0.271177	-0.229733
H296	H	0.477912	0.062157	0.103600
H297	H	0.811246	0.395490	0.436934
C298	C	0.989720	-0.257756	-0.532052
C299	C	1.323053	0.075577	-0.198719
C300	C	1.656386	0.408911	0.134615
H301	H	1.013595	-0.229451	-0.560925
H302	H	1.346928	0.103882	-0.227592
H303	H	1.680262	0.437215	0.105741
H304	H	1.017004	-0.286166	-0.506547
H305	H	1.350337	0.047167	-0.173213
H306	H	1.683670	0.380500	0.160120
H307	H	0.965763	-0.225408	-0.506508
H308	H	1.299096	0.107925	-0.173175
H309	H	1.632430	0.441258	0.160158
C310	C	0.872608	-0.803373	-0.179668
C311	C	1.205941	-0.470040	0.153665
C312	C	1.539274	-0.136707	0.486998
H313	H	0.872671	-0.750744	-0.180068
H314	H	1.206004	-0.417410	0.153265
H315	H	1.539338	-0.084077	0.486598
H316	H	0.902174	-0.820633	-0.149948
H317	H	1.235507	-0.487299	0.183385
H318	H	1.568840	-0.153966	0.516719
H319	H	0.832144	-0.820764	-0.168685
H320	H	1.165477	-0.487430	0.164649
H321	H	1.498811	-0.154097	0.497982
C322	C	0.995217	-0.910817	-0.212575
C323	C	1.328551	-0.577484	0.120759
C324	C	1.661884	-0.244151	0.454092
H325	H	0.984261	-0.893845	-0.171994
H326	H	1.317594	-0.560512	0.161339
H327	H	1.650927	-0.227178	0.494673
H328	H	1.035682	-0.893090	-0.223151
H329	H	1.369015	-0.559757	0.110182
H330	H	1.702349	-0.226424	0.443515
H331	H	0.995219	-0.963444	-0.213076
H332	H	1.328552	-0.630110	0.120257
H333	H	1.661885	-0.296777	0.453590
H334	H	0.548242	-0.443870	-0.374731
H335	H	0.881575	-0.110537	-0.041397
H336	H	1.214908	0.222796	0.291936
H337	H	0.896512	-0.478780	-0.861876
H338	H	1.229845	-0.145447	-0.528543
H339	H	1.563178	0.187886	-0.195209
H340	H	0.933693	-0.903463	-0.407758
H341	H	1.267026	-0.570130	-0.074424
H342	H	1.600360	-0.236797	0.258909
C343	C	0.894949	-0.497936	-0.733821
C344	C	1.228282	-0.164602	-0.400488
C345	C	1.561616	0.168731	-0.067155
H346	H	0.891953	-0.537772	-0.762679
H347	H	1.225287	-0.204438	-0.429346
H348	H	1.558620	0.128895	-0.096013
H349	H	0.858597	-0.496883	-0.708319
H350	H	1.191930	-0.163550	-0.374986
H351	H	1.525264	0.169784	-0.041652
H352	H	0.930809	-0.504563	-0.708272
H353	H	1.264142	-0.171230	-0.374939
H354	H	1.597475	0.162104	-0.041606
C355	C	0.821325	-0.457270	-0.531942
C356	C	1.154659	-0.123937	-0.198609
C357	C	1.487992	0.209396	0.134724
H358	H	0.797452	-0.485556	-0.560784
H359	H	1.130785	-0.152223	-0.227450
H360	H	1.464119	0.181111	0.105883
H361	H	0.794039	-0.428886	-0.506388
H362	H	1.127372	-0.095552	-0.173055
H363	H	1.460706	0.237781	0.160278
H364	H	0.845287	-0.489635	-0.506443
H365	H	1.178621	-0.156301	-0.173110
H366	H	1.511954	0.177032	0.160223
H367	H	1.010926	-0.810569	-0.330628
H368	H	1.344259	-0.477235	0.002705
H369	H	1.677593	-0.143902	0.336039
H370	H	0.914556	-0.236026	-0.743160
H371	H	1.247889	0.097307	-0.409827
H372	H	1.581223	0.430641	-0.076493
H373	H	0.666948	-0.443905	-0.374684
H374	H	1.000282	-0.110572	-0.041350
H375	H	1.333615	0.222762	0.291983
H376	H	0.144605	-0.443770	-0.374881
H377	H	0.477939	-0.110437	-0.041547
H378	H	0.811272	0.222897	0.291786
C379	C	0.474599	-0.370070	-0.420710
C380	C	0.807933	-0.036736	-0.087376
C381	C	1.141266	0.296597	0.245957
H382	H	0.518246	-0.369233	-0.412608
H383	H	0.851579	-0.035900	-0.079274
H384	H	1.184913	0.297434	0.254059
H385	H	0.463940	-0.329716	-0.447129
H386	H	0.797274	0.003617	-0.113796
H387	H	1.130607	0.336950	0.219537
H388	H	0.463862	-0.415320	-0.440680
H389	H	0.797196	-0.081986	-0.107347
H390	H	1.130529	0.251347	0.225986
C391	C	0.272642	-0.257623	-0.218256
C392	C	0.605975	0.075710	0.115077
C393	C	0.939308	0.409044	0.448411
H394	H	0.316298	-0.264440	-0.223973
H395	H	0.649632	0.068893	0.109360
H396	H	0.982965	0.402227	0.442693
H397	H	0.261863	-0.268413	-0.176146
H398	H	0.595196	0.064920	0.157187
H399	H	0.928530	0.398254	0.490521
H400	H	0.261968	-0.207736	-0.227506
H401	H	0.595301	0.125597	0.105827
H402	H	0.928635	0.458931	0.439161
C403	C	0.336943	-0.345017	-0.183701
C404	C	0.670276	-0.011683	0.149633
C405	C	1.003609	0.321650	0.482966
H406	H	0.365766	-0.341465	-0.150077
H407	H	0.699099	-0.008131	0.183256
H408	H	1.032432	0.325202	0.516590
H409	H	0.311376	-0.387562	-0.178135
H410	H	0.644710	-0.054228	0.155198
H411	H	0.978043	0.279105	0.488531
H412	H	0.311453	-0.301959	-0.184591
H413	H	0.644787	0.031374	0.148743
H414	H	0.978120	0.364708	0.482076
H415	H	0.548216	-0.271275	-0.229589
H416	H	0.881549	0.062058	0.103745
H417	H	1.214882	0.395392	0.437078
C418	C	0.474349	-0.345013	-0.183653
C419	C	0.807682	-0.011679	0.149680
C420	C	1.141015	0.321654	0.483014
H421	H	0.445457	-0.341455	-0.150048
H422	H	0.778791	-0.008122	0.183285
H423	H	1.112124	0.325212	0.516619
H424	H	0.499898	-0.301962	-0.184541
H425	H	0.833231	0.031371	0.148792
H426	H	1.166565	0.364705	0.482126
H427	H	0.499846	-0.387561	-0.178056
H428	H	0.833179	-0.054228	0.155277
H429	H	1.166512	0.279105	0.488610
