data_functionalizedCrystal
_audit_creation_method	'MofGen! by Chris Wilmer'
_symmetry_space_group_name_H-M	'P1'
_symmetry_Int_Tables_number	1
_symmetry_cell_setting	triclinic
loop_
_symmetry_equiv_pos_as_xyz
  x,y,z
_cell_length_a	11.026607
_cell_length_b	10.065875
_cell_length_c	10.967829
_cell_angle_alpha	86.921207
_cell_angle_beta	83.619437
_cell_angle_gamma	100.697662
loop_
_atom_site_label
_atom_site_type_symbol
_atom_site_fract_x
_atom_site_fract_y
_atom_site_fract_z
O1	O	-1.650232	-0.229769	0.494401
O2	O	-1.294313	-0.216157	0.436514
O3	O	-1.474049	-0.181891	0.290844
O4	O	-1.470496	-0.264035	0.640071
O5	O	-1.439782	0.038531	0.318764
O6	O	-1.260047	0.004264	0.464434
O7	O	-1.615965	-0.009348	0.522321
Zn8	Zn	-1.432565	0.032455	0.497810
Zn9	Zn	-1.477713	-0.257959	0.461025
O10	O	-1.436230	-0.043614	0.667991
C11	C	-1.231487	-0.103435	0.439794
C12	C	-1.095337	-0.095948	0.407959
C13	C	-1.454068	-0.061003	0.259400
C14	C	-1.445569	-0.029189	0.124107
C15	C	-1.678792	-0.122073	0.519040
C16	C	-1.814944	-0.129568	0.550874
N17	N	-1.401762	0.230655	0.522917
C18	C	-1.025499	-0.116625	0.495861
C19	C	-0.884780	-0.108888	0.462960
N20	N	-1.508526	-0.456158	0.435911
C21	C	-1.466988	0.310940	0.469751
C22	C	-1.443291	0.463559	0.489085
C23	C	-1.459531	-0.129191	0.049332
C24	C	-1.450747	-0.096311	-0.090500
C25	C	-1.456211	-0.164505	0.699435
C26	C	-1.464712	-0.196328	0.834726
H27	H	-0.840403	-0.085490	0.363336
O28	O	-1.595789	0.491139	0.364195
C29	C	-1.538714	0.432037	0.265089
H30	H	-1.448447	0.404673	0.290515
H31	H	-1.517547	0.507185	0.180428
C32	C	-1.737766	0.336538	0.205620
C33	C	-1.626903	0.302918	0.236853
H34	H	-1.792166	0.256895	0.188197
H35	H	-1.776220	0.376360	0.272386
H36	H	-1.720110	0.399164	0.135073
H37	H	-1.644559	0.240307	0.307407
H38	H	-1.588455	0.263083	0.170097
H39	H	-1.069885	-0.140049	0.595475
O40	O	-0.867966	-0.157771	0.669676
C41	C	-0.959166	-0.277475	0.678840
H42	H	-0.938392	-0.340793	0.598767
H43	H	-1.054667	-0.250184	0.675804
C44	C	-0.983359	-0.281803	0.899463
C45	C	-0.957838	-0.359575	0.801122
H46	H	-0.982545	-0.332444	0.974894
H47	H	-0.921919	-0.201153	0.893290
H48	H	-1.062941	-0.259065	0.896917
H49	H	-0.878251	-0.382297	0.803660
H50	H	-1.019265	-0.440231	0.807298
O51	O	-1.554422	0.257993	0.398314
C52	C	-1.497632	0.198648	0.299204
H53	H	-1.407192	0.171511	0.324377
H54	H	-1.476827	0.273541	0.214368
C55	C	-1.696950	0.102645	0.240617
C56	C	-1.585875	0.069304	0.271540
H57	H	-1.751383	0.022863	0.223547
H58	H	-1.735211	0.142631	0.307386
H59	H	-1.679595	0.165058	0.169924
H60	H	-1.603229	0.006906	0.342240
H61	H	-1.547619	0.029305	0.204781
H62	H	-1.427104	0.080768	0.084602
H63	H	-1.050954	-0.072551	0.308341
O64	O	-1.428882	0.034926	-0.137456
C65	C	-1.524919	0.098618	-0.088047
H66	H	-1.571170	0.042157	0.003053
H67	H	-1.596867	0.097161	-0.155250
C68	C	-1.413350	0.315779	-0.178243
C69	C	-1.470149	0.246438	-0.066348
H70	H	-1.379568	0.406963	-0.164863
H71	H	-1.348650	0.272869	-0.211536
H72	H	-1.473316	0.314551	-0.234235
H73	H	-1.410180	0.247653	-0.010364
H74	H	-1.534838	0.289353	-0.033045
O75	O	-1.486477	-0.327477	-0.118091
C76	C	-1.386675	-0.349630	-0.054743
H77	H	-1.336566	-0.248996	-0.025626
H78	H	-1.318946	-0.395844	-0.117693
C79	C	-1.498381	-0.570942	0.024396
C80	C	-1.436843	-0.447343	0.060167
H81	H	-1.529325	-0.631220	0.095275
H82	H	-1.565619	-0.556020	-0.018287
H83	H	-1.441931	-0.609436	-0.028064
H84	H	-1.493297	-0.408843	0.112613
H85	H	-1.369616	-0.462261	0.102861
O86	O	-1.355653	0.516522	0.560308
C87	C	-1.264509	0.615896	0.489179
H88	H	-1.305587	0.656429	0.407212
H89	H	-1.181770	0.569015	0.454800
C90	C	-1.170770	0.683239	0.669321
C91	C	-1.221227	0.733031	0.568653
H92	H	-1.144066	0.755491	0.718344
H93	H	-1.232172	0.616286	0.717242
H94	H	-1.101827	0.644172	0.640656
H95	H	-1.290177	0.772081	0.597319
H96	H	-1.159835	0.799994	0.520738
O97	O	-1.314129	0.283624	0.594137
C98	C	-1.222985	0.382998	0.523007
H99	H	-1.264064	0.423531	0.441040
H100	H	-1.140246	0.336117	0.488628
C101	C	-1.129246	0.450341	0.703149
C102	C	-1.179703	0.500133	0.602481
H103	H	-1.102542	0.522593	0.752172
H104	H	-1.190648	0.383387	0.751071
H105	H	-1.060304	0.411273	0.674484
H106	H	-1.248653	0.539183	0.631147
H107	H	-1.118311	0.567096	0.554566
H108	H	-1.477982	-0.239147	0.088836
