data_functionalizedCrystal
_audit_creation_method	'MofGen! by Chris Wilmer'
_symmetry_space_group_name_H-M	'P1'
_symmetry_Int_Tables_number	1
_symmetry_cell_setting	triclinic
loop_
_symmetry_equiv_pos_as_xyz
  x,y,z
_cell_length_a	15.297327
_cell_length_b	15.298068
_cell_length_c	15.298259
_cell_angle_alpha	91.587309
_cell_angle_beta	88.343348
_cell_angle_gamma	110.796215
loop_
_atom_site_label
_atom_site_type_symbol
_atom_site_fract_x
_atom_site_fract_y
_atom_site_fract_z
Zn1	Zn	-0.016726	1.250186	-0.729757
Zn2	Zn	-0.190346	1.241196	-0.607365
Zn3	Zn	-0.067966	1.118939	-0.565017
Zn4	Zn	-0.199110	1.067715	-0.729617
O5	O	-0.118537	1.169509	-0.657939
O6	O	-0.014645	1.376523	-0.731303
O7	O	-0.191888	1.242653	-0.481640
O8	O	0.066375	1.161548	-0.569206
O9	O	-0.142203	1.369919	-0.641382
O10	O	0.104021	1.257975	-0.690240
O11	O	-0.101976	1.152831	-0.450527
O12	O	-0.110475	0.984614	-0.569070
O13	O	-0.157140	1.074245	-0.849743
O14	O	-0.206826	0.946980	-0.690001
O15	O	-0.023144	1.208306	-0.849846
O16	O	-0.319053	1.192984	-0.641246
O17	O	-0.325492	1.065528	-0.731064
C18	C	-0.165162	0.932729	-0.624925
C19	C	-0.185127	0.831427	-0.610825
C20	C	0.023930	0.559506	-0.758747
C21	C	0.042686	0.654683	-0.772000
C22	C	-0.014265	0.698874	-0.731708
C23	C	-0.089977	0.647877	-0.678160
C24	C	-0.108740	0.552689	-0.664911
C25	C	-0.146935	0.692057	-0.637871
C26	C	-0.222647	0.641060	-0.584324
C27	C	-0.241405	0.545881	-0.571077
C28	C	-0.184454	0.501691	-0.611370
C29	C	-0.128172	0.787246	-0.651120
C30	C	-0.260841	0.780429	-0.557284
C31	C	-0.279598	0.685251	-0.544031
C32	C	-0.355335	1.122744	-0.690758
C33	C	-0.456618	1.102817	-0.704838
C34	C	-0.728520	1.312264	-0.557651
C35	C	-0.633360	1.330986	-0.544417
C36	C	-0.589170	1.273946	-0.584521
C37	C	-0.640149	1.198179	-0.637861
C38	C	-0.735319	1.179450	-0.651090
C39	C	-0.595969	1.141132	-0.677961
C40	C	-0.646948	1.065365	-0.731301
C41	C	-0.742109	1.046640	-0.744528
C42	C	-0.786299	1.103680	-0.704424
C43	C	-0.500799	1.159861	-0.664732
C44	C	-0.507598	1.027047	-0.758171
C45	C	-0.602757	1.008325	-0.771405
C46	C	0.119194	1.216478	-0.625015
C47	C	0.220500	1.236494	-0.610984
C48	C	-0.085404	1.136564	-0.881807
C49	C	-0.071285	1.122525	-0.977207
C50	C	-0.071731	1.407213	-0.691082
C51	C	-0.051785	1.508508	-0.705206
C52	C	-0.218742	1.270016	-1.310911
C53	C	-0.232014	1.283200	-1.221279
C54	C	-0.191833	1.243033	-1.160257
C55	C	-0.138377	1.189678	-1.188875
C56	C	-0.125109	1.176486	-1.278516
C57	C	-0.098200	1.149504	-1.127862
C58	C	-0.044745	1.096149	-1.156480
C59	C	-0.031479	1.082960	-1.246112
C60	C	-0.071660	1.123127	-1.307135
C61	C	-0.111468	1.162695	-1.038220
C62	C	-0.017836	1.069166	-1.005825
C63	C	-0.004563	1.055982	-1.095458
C64	C	-0.151465	1.202391	-0.434940
C65	C	-0.165293	1.216657	-0.339530
H66	H	-0.066526	0.828758	-0.694718
Cl67	Cl	-0.666855	0.913077	-0.838457
H68	H	0.001014	0.776373	-0.742498
Cl69	Cl	-0.452054	0.955330	-0.808585
H70	H	0.104328	0.696197	-0.815602
Cl71	Cl	0.035679	1.015841	-1.282088
H72	H	-0.511687	1.289194	-0.573742
H73	H	-0.307220	0.816407	-0.524479
Cl74	Cl	-0.336584	0.481774	-0.503757
H75	H	-0.199727	0.424187	-0.600589
H76	H	-0.764510	1.358693	-0.524998
H77	H	-0.863785	1.088442	-0.715198
Cl78	Cl	0.062635	0.988908	-1.131446
Cl79	Cl	0.032667	1.018653	-0.929117
Cl80	Cl	0.095506	0.503944	-0.809406
H81	H	-0.341244	0.643716	-0.500433
H82	H	-0.591857	1.392674	-0.500988
Cl83	Cl	-0.806195	0.951386	-0.811579
H84	H	-0.459300	1.221551	-0.621302
H85	H	-0.275548	1.326631	-1.197985
H86	H	-0.154986	1.206144	-1.014929
Cl87	Cl	-0.208514	1.259614	-1.047575
H88	H	-0.251460	1.302706	-1.360602
H89	H	-0.060854	1.112398	-1.380122
