data_functionalizedCrystal
_audit_creation_method	'MofGen! by Chris Wilmer'
_symmetry_space_group_name_H-M	'P1'
_symmetry_Int_Tables_number	1
_symmetry_cell_setting	triclinic
loop_
_symmetry_equiv_pos_as_xyz
  x,y,z
_cell_length_a	29.839131
_cell_length_b	12.759401
_cell_length_c	29.839126
_cell_angle_alpha	90.022893
_cell_angle_beta	90.021998
_cell_angle_gamma	90.040464
loop_
_atom_site_label
_atom_site_type_symbol
_atom_site_fract_x
_atom_site_fract_y
_atom_site_fract_z
Zn1	Zn	-0.178909	1.606105	0.253971
Zn2	Zn	-0.254026	1.605904	0.178841
Zn3	Zn	-0.178910	1.430394	0.178857
Zn4	Zn	-0.254011	1.430314	0.253946
O5	O	-0.216464	1.518179	0.216404
O6	O	-0.188879	1.753099	0.244008
O7	O	-0.244069	1.582572	0.115976
O8	O	-0.116043	1.453820	0.188839
O9	O	-0.244068	1.752952	0.188811
O10	O	-0.116042	1.582914	0.244024
O11	O	-0.188881	1.453625	0.115988
O12	O	-0.188866	1.283362	0.188815
O13	O	-0.244042	1.453683	0.316817
O14	O	-0.244043	1.283303	0.243982
O15	O	-0.188864	1.582837	0.316835
O16	O	-0.316892	1.582494	0.188787
O17	O	-0.316880	1.453489	0.243966
C18	C	-0.216454	1.245212	0.216398
C19	C	-0.216460	1.128435	0.216406
C20	C	-0.187777	1.073643	0.245192
C21	C	-0.187786	0.963919	0.245195
C22	C	-0.245163	0.963789	0.187624
C23	C	-0.245152	1.073511	0.187619
C24	C	-0.159085	1.128567	0.273978
C25	C	-0.130401	1.073775	0.302767
C26	C	-0.130409	0.964051	0.302770
C27	C	-0.159102	0.909119	0.273984
C28	C	-0.333187	1.517989	0.216382
C29	C	-0.383121	1.518004	0.216387
C30	C	-0.692758	1.585475	0.187714
C31	C	-0.880431	1.585604	0.187731
O32	O	-0.904690	1.642819	0.163335
N33	N	-0.903906	1.518397	0.216438
C34	C	-0.880460	1.451158	0.245144
O35	O	-0.904734	1.394004	0.269564
C36	C	-0.692788	1.451034	0.245129
C37	C	-0.669315	1.518238	0.216417
C38	C	-0.669285	1.652674	0.159005
C39	C	-0.622369	1.652637	0.158999
C40	C	-0.598927	1.585400	0.187702
C41	C	-0.622400	1.518201	0.216411
C42	C	-0.669343	1.383800	0.273837
C43	C	-0.622422	1.383777	0.273831
C44	C	-0.598949	1.450981	0.245120
C45	C	-0.552042	1.450927	0.245108
N46	N	-0.528567	1.518134	0.216402
C47	C	-0.552009	1.585371	0.187699
C48	C	-0.978991	1.451226	0.245150
C49	C	-1.025909	1.451255	0.245153
C50	C	-1.025876	1.585703	0.187741
C51	C	-0.978957	1.585668	0.187735
C52	C	-0.955516	1.518433	0.216443
C53	C	-0.453483	1.585287	0.187689
C54	C	-0.406563	1.585241	0.187684
C55	C	-0.406601	1.450797	0.245098
C56	C	-0.453516	1.450839	0.245101
C57	C	-0.476956	1.518092	0.216395
O58	O	-0.527754	1.393750	0.269495
O59	O	-0.527727	1.642532	0.163289
C60	C	-0.739673	1.585512	0.187720
C61	C	-0.763146	1.518312	0.216429
C62	C	-0.739704	1.451076	0.245132
C63	C	-0.810064	1.518342	0.216432
C64	C	-0.833506	1.585578	0.187729
C65	C	-0.810031	1.652785	0.159023
C66	C	-0.763115	1.652748	0.159017
C67	C	-0.763179	1.383869	0.273838
C68	C	-0.810095	1.383910	0.273841
C69	C	-0.833537	1.451147	0.245138
C70	C	-0.099286	1.518398	0.216436
C71	C	-0.049351	1.518492	0.216450
C72	C	-0.216451	1.518273	0.333582
C73	C	-0.216446	1.518314	0.383517
C74	C	-0.216475	1.792212	0.216410
C75	C	-0.216480	1.908989	0.216413
C76	C	-0.216444	1.518146	0.099681
C77	C	-0.216323	1.518309	0.049747
C78	C	-0.245122	1.585442	0.740101
C79	C	-0.245153	1.585444	0.552428
O80	O	-0.269606	1.642508	0.528160
N81	N	-0.216424	1.518309	0.528962
C82	C	-0.187687	1.451164	0.552417
O83	O	-0.163255	1.394054	0.528152
C84	C	-0.187658	1.451158	0.740090
C85	C	-0.216386	1.518304	0.763553
C86	C	-0.273848	1.652582	0.763564
C87	C	-0.273838	1.652585	0.810480
C88	C	-0.245102	1.585448	0.833932
C89	C	-0.216376	1.518307	0.810468
C90	C	-0.158924	1.384008	0.763544
C91	C	-0.158920	1.384011	0.810465
C92	C	-0.187648	1.451157	0.833929
C93	C	-0.187631	1.451173	0.880836
N94	N	-0.216360	1.518308	0.904302
C95	C	-0.245096	1.585445	0.880850
C96	C	-0.187703	1.451173	0.453887
C97	C	-0.187710	1.451176	0.406969
C98	C	-0.245177	1.585455	0.406982
C99	C	-0.245168	1.585457	0.453901
C100	C	-0.216433	1.518308	0.477352
C101	C	-0.245073	1.585447	0.979375
C102	C	-0.245059	1.585447	1.026295
C103	C	-0.187594	1.451165	1.026278
C104	C	-0.187606	1.451168	0.979362
C105	C	-0.216349	1.518313	0.955912
O106	O	-0.163195	1.394130	0.905132
O107	O	-0.269531	1.642530	0.905123
C108	C	-0.245132	1.585439	0.693185
C109	C	-0.216406	1.518299	0.669722
C110	C	-0.187670	1.451161	0.693174
C111	C	-0.216412	1.518301	0.622804
C112	C	-0.245148	1.585439	0.599352
C113	C	-0.273878	1.652574	0.622818
C114	C	-0.273868	1.652577	0.669733
C115	C	-0.158941	1.384026	0.669709
C116	C	-0.158953	1.384029	0.622793
C117	C	-0.187689	1.451167	0.599341
H118	H	-0.472562	1.640054	0.164315
H119	H	-0.959908	1.396472	0.268527
O120	O	-0.273085	0.910384	0.159731
C121	C	-0.302136	0.846898	0.185259
H122	H	-0.304958	0.880006	0.220635
H123	H	-0.336687	0.845594	0.168949
H124	H	-0.288257	0.763759	0.186837
O125	O	-0.692116	1.717879	0.131124
C126	C	-0.719303	1.658168	0.102075
H127	H	-0.726352	1.578508	0.117868
H128	H	-0.752283	1.701006	0.096106
H129	H	-0.701261	1.646708	0.068763
O130	O	-0.131029	1.318700	0.600073
C131	C	-0.105659	1.259465	0.630839
H132	H	-0.124055	1.255812	0.664280
H133	H	-0.100871	1.176690	0.617276
H134	H	-0.071538	1.297993	0.635841
O135	O	-0.272951	1.126787	0.159610
C136	C	-0.247325	1.190269	0.130646
H137	H	-0.211942	1.157237	0.127938
H138	H	-0.263523	1.191457	0.096043
H139	H	-0.245789	1.273442	0.144536
H140	H	-0.297250	1.707255	0.744474
H141	H	-0.268561	1.640133	0.473002
O142	O	-0.273055	1.650619	0.956649
C143	C	-0.317827	1.627564	0.968097
H144	H	-0.318748	1.587167	1.002154
H145	H	-0.337972	1.703354	0.969716
H146	H	-0.332966	1.573529	0.941678
O147	O	-0.102593	1.127178	0.330774
C148	C	-0.128208	1.190665	0.359734
H149	H	-0.163598	1.157559	0.362444
H150	H	-0.112011	1.191968	0.394338
H151	H	-0.129729	1.273805	0.345839
O152	O	-0.599722	1.318366	0.301734
C153	C	-0.630504	1.259087	0.327083
H154	H	-0.663958	1.255490	0.308682
H155	H	-0.616984	1.176294	0.331849
H156	H	-0.635463	1.297538	0.361215
H157	H	-0.159097	0.819774	0.273979
H158	H	-0.164303	1.396490	0.472977
H159	H	-0.107050	0.919442	0.326207
H160	H	-0.387453	1.639966	0.164302
H161	H	-1.045017	1.396521	0.268529
O162	O	-0.599640	1.718030	0.131099
C163	C	-0.630400	1.777359	0.105764
H164	H	-0.663833	1.780980	0.124172
H165	H	-0.616817	1.860139	0.101005
H166	H	-0.635422	1.738935	0.071628
H167	H	-0.959848	1.640392	0.164356
O168	O	-0.273079	1.650570	0.384127
C169	C	-0.266913	1.636183	0.337686
H170	H	-0.252192	1.555134	0.331273
H171	H	-0.300566	1.643231	0.319845
H172	H	-0.242996	1.698549	0.324387
O173	O	-0.131006	1.318950	0.692538
C174	C	-0.101976	1.378812	0.719685
H175	H	-0.117819	1.458404	0.726726
H176	H	-0.095948	1.336024	0.752670
H177	H	-0.068688	1.390413	0.701610
O178	O	-0.740392	1.318697	0.301768
C179	C	-0.713201	1.378441	0.330801
H180	H	-0.727297	1.461200	0.333611
H181	H	-0.712674	1.340395	0.365359
H182	H	-0.677647	1.382036	0.316911
H183	H	-0.135520	1.329329	0.829557
H184	H	-1.044971	1.640450	0.164370
H185	H	-0.472629	1.396119	0.268482
H186	H	-0.164312	1.396510	0.387869
H187	H	-0.164207	1.396506	0.960257
O188	O	-0.159075	1.235152	0.273893
C189	C	-0.147459	1.271781	0.230861
H190	H	-0.155097	1.208513	0.204970
H191	H	-0.167707	1.345150	0.222835
H192	H	-0.110180	1.291300	0.229981
H193	H	-0.164197	1.396506	1.045381
O194	O	-0.692159	1.318415	0.301666
C195	C	-0.719351	1.250606	0.276078
H196	H	-0.705238	1.244129	0.240689
H197	H	-0.719906	1.169743	0.292304
H198	H	-0.754897	1.283111	0.274550
O199	O	-0.383802	1.385642	0.273028
C200	C	-0.356616	1.445427	0.302049
H201	H	-0.370724	1.528176	0.304852
H202	H	-0.356076	1.407403	0.336611
H203	H	-0.321065	1.449047	0.288152
O204	O	-0.740387	1.718135	0.131114
C205	C	-0.771146	1.777460	0.105777
H206	H	-0.804579	1.781090	0.124187
H207	H	-0.757562	1.860238	0.101013
H208	H	-0.776171	1.739028	0.071643
H209	H	-0.829126	1.707529	0.135650
O210	O	-0.832824	1.318588	0.301776
C211	C	-0.802066	1.259224	0.327099
H212	H	-0.768602	1.302233	0.328660
H213	H	-0.815604	1.247996	0.362495
H214	H	-0.797121	1.179442	0.310620
H215	H	-0.268453	1.640130	1.045397
O216	O	-0.301791	1.717837	0.833199
C217	C	-0.327146	1.777101	0.802431
H218	H	-0.328699	1.734058	0.768980
H219	H	-0.362543	1.788240	0.815975
H220	H	-0.310699	1.856926	0.797458
H221	H	-0.297261	1.707254	0.688833
O222	O	-0.131004	1.318679	0.740829
C223	C	-0.105638	1.259445	0.771599
H224	H	-0.124038	1.255792	0.805037
H225	H	-0.100848	1.176669	0.758036
H226	H	-0.071517	1.297973	0.776604
O227	O	-0.301841	1.717639	0.600011
C228	C	-0.330848	1.657757	0.572849
H229	H	-0.333617	1.575011	0.586979
H230	H	-0.365424	1.695688	0.572309
H231	H	-0.316960	1.654152	0.537294
