data_functionalizedCrystal
_audit_creation_method	'MofGen! by Chris Wilmer'
_symmetry_space_group_name_H-M	'P1'
_symmetry_Int_Tables_number	1
_symmetry_cell_setting	triclinic
loop_
_symmetry_equiv_pos_as_xyz
  x,y,z
_cell_length_a	17.640112
_cell_length_b	25.639239
_cell_length_c	17.640968
_cell_angle_alpha	78.768889
_cell_angle_beta	92.139080
_cell_angle_gamma	101.263838
loop_
_atom_site_label
_atom_site_type_symbol
_atom_site_fract_x
_atom_site_fract_y
_atom_site_fract_z
Zn1	Zn	1.247772	-0.015023	-0.195080
Zn2	Zn	1.221957	-0.122899	-0.068099
Zn3	Zn	1.095090	-0.049036	-0.093726
Zn4	Zn	1.120701	-0.116017	-0.220680
O5	O	1.171380	-0.075744	-0.144396
O6	O	1.350622	-0.017980	-0.156797
O7	O	1.183606	-0.130216	0.034775
O8	O	1.115429	0.028654	-0.107183
O9	O	1.331655	-0.097236	-0.063504
O10	O	1.227604	0.053643	-0.181647
O11	O	1.090397	-0.075949	0.015946
O12	O	0.992213	-0.069275	-0.132006
O13	O	1.159079	-0.085505	-0.323557
O14	O	1.011029	-0.118485	-0.225279
O15	O	1.252438	-0.011306	-0.304749
O16	O	1.208439	-0.195165	-0.088327
O17	O	1.134047	-0.190108	-0.200429
C18	C	0.974065	-0.096824	-0.184202
C19	C	0.889657	-0.105852	-0.201249
C20	C	1.171245	-0.211606	-0.144387
C21	C	1.171262	-0.269716	-0.144395
C22	C	0.563036	-0.007149	-0.014898
C23	C	0.483724	-0.015641	-0.030927
C24	C	0.503337	-0.067003	-0.127884
C25	C	0.582654	-0.058513	-0.111866
C26	C	0.612496	-0.028586	-0.055372
C27	C	0.632114	-0.079950	-0.152340
C28	C	0.711422	-0.071463	-0.136320
C29	C	0.741271	-0.041538	-0.079827
C30	C	0.691805	-0.020099	-0.039352
C31	C	0.602269	-0.109880	-0.208830
C32	C	0.651729	-0.131317	-0.249304
C33	C	0.731040	-0.122827	-0.233288
C34	C	0.760888	-0.092902	-0.176795
C35	C	0.780506	-0.144266	-0.273763
C36	C	0.859815	-0.135779	-0.257743
C37	C	0.840197	-0.084415	-0.160775
C38	C	1.210259	-0.632657	-0.086082
C39	C	1.210291	-0.687257	-0.086087
O40	O	1.243308	-0.717705	-0.036496
N41	N	1.171523	-0.711960	-0.144420
C42	C	1.132728	-0.682060	-0.202757
O43	O	1.099757	-0.708086	-0.252374
C44	C	1.132702	-0.627461	-0.202755
C45	C	1.171465	-0.602761	-0.144414
C46	C	1.249020	-0.607957	-0.027746
C47	C	1.248988	-0.553362	-0.027742
C48	C	1.210194	-0.523466	-0.086073
C49	C	1.171433	-0.548166	-0.144409
C50	C	1.093912	-0.597561	-0.261094
C51	C	1.093890	-0.542958	-0.261088
C52	C	1.132653	-0.518258	-0.202747
C53	C	1.132606	-0.463675	-0.202735
N54	N	1.171373	-0.438971	-0.144402
C55	C	1.210167	-0.468867	-0.086071
C56	C	1.132788	-0.796723	-0.202757
C57	C	1.132809	-0.851323	-0.202756
C58	C	1.210373	-0.856515	-0.086087
C59	C	1.210347	-0.801915	-0.086085
C60	C	1.171556	-0.772019	-0.144424
C61	C	1.210095	-0.354212	-0.086065
C62	C	1.210056	-0.299612	-0.086064
C63	C	1.132496	-0.294424	-0.202735
C64	C	1.132531	-0.349020	-0.202735
C65	C	1.171336	-0.378912	-0.144396
O66	O	1.099609	-0.433192	-0.252303
O67	O	1.243141	-0.442832	-0.036467
C68	C	1.369465	-0.054581	-0.104436
C69	C	1.453877	-0.045563	-0.087407
C70	C	1.211495	-0.043844	-0.342479
C71	C	1.228589	-0.030250	-0.426890
C72	C	1.171539	0.060653	-0.144418
C73	C	1.171607	0.118778	-0.144427
C74	C	1.041806	-0.178700	-0.753464
C75	C	1.057885	-0.165918	-0.832778
C76	C	1.155091	-0.088661	-0.813184
C77	C	1.139017	-0.101435	-0.733867
C78	C	1.082375	-0.146456	-0.704014
C79	C	1.179586	-0.069190	-0.684417
C80	C	1.163517	-0.081965	-0.605107
C81	C	1.106878	-0.126985	-0.575247
C82	C	1.066305	-0.159230	-0.624704
C83	C	1.236233	-0.024172	-0.714271
C84	C	1.276802	0.008072	-0.664821
C85	C	1.260728	-0.004700	-0.585510
C86	C	1.204090	-0.049719	-0.555650
C87	C	1.301302	0.027546	-0.536054
C88	C	1.285232	0.014771	-0.456743
C89	C	1.188020	-0.062494	-0.476340
C90	C	1.131465	-0.107478	0.052925
C91	C	1.114517	-0.120908	0.137365
H92	H	0.864498	-0.060036	-0.114783
Cl93	Cl	1.086679	-0.143048	-0.475541
Cl94	Cl	1.372515	0.084136	-0.573592
H95	H	1.020163	-0.195880	-0.600400
H96	H	1.241696	-0.378544	-0.038561
Cl97	Cl	0.502563	-0.120557	-0.228959
Cl98	Cl	0.970590	-0.235295	-0.715930
Cl99	Cl	0.600559	0.030479	0.056120
Cl100	Cl	0.921997	-0.162731	-0.308623
Cl101	Cl	1.258791	-0.268565	-0.012715
H102	H	1.024844	-0.192179	-0.873039
Cl103	Cl	1.045121	-0.505377	-0.334434
Cl104	Cl	1.226298	-0.032067	-0.850722
Cl105	Cl	1.084065	-0.882369	-0.276096
H106	H	0.627419	-0.155685	-0.295299
Cl107	Cl	1.336236	0.055306	-0.394573
Cl108	Cl	1.256437	-0.008114	-0.813977
Cl109	Cl	1.297736	-0.522316	0.045597
H110	H	1.322922	0.044727	-0.689139
Cl111	Cl	1.045188	-0.628596	-0.334450
Cl112	Cl	0.840974	-0.030871	-0.059683
Cl113	Cl	1.259142	-0.894108	-0.012754
H114	H	0.756195	-0.168637	-0.319755
Cl115	Cl	0.729328	0.017529	0.031665
H116	H	1.280615	-0.632292	0.019755
H117	H	0.443456	0.001823	0.002031
Cl118	Cl	1.084009	-0.759146	-0.276100
Cl119	Cl	0.465811	-0.104631	-0.198894
H120	H	1.241912	-0.781808	-0.038579
Cl121	Cl	1.083781	-0.380076	-0.276066
H122	H	1.141878	-0.099144	-0.452036
Cl123	Cl	1.083734	-0.256830	-0.276065
