data_functionalizedCrystal
_audit_creation_method	'MofGen! by Chris Wilmer'
_symmetry_space_group_name_H-M	'P1'
_symmetry_Int_Tables_number	1
_symmetry_cell_setting	triclinic
loop_
_symmetry_equiv_pos_as_xyz
  x,y,z
_cell_length_a	17.699083
_cell_length_b	27.732048
_cell_length_c	16.176319
_cell_angle_alpha	89.988239
_cell_angle_beta	89.998611
_cell_angle_gamma	82.962835
loop_
_atom_site_label
_atom_site_type_symbol
_atom_site_fract_x
_atom_site_fract_y
_atom_site_fract_z
O1	O	1.003540	0.061127	-0.068640
O2	O	0.783091	0.069080	-0.068668
O3	O	0.900162	-0.005269	-0.068637
O4	O	0.886469	0.135475	-0.068670
O5	O	0.900146	-0.005273	0.068856
O6	O	0.783075	0.069075	0.068825
O7	O	1.003524	0.061122	0.068853
Cu8	Cu	0.893298	0.065098	0.081394
Cu9	Cu	0.893317	0.065104	-0.081208
O10	O	0.886453	0.135471	0.068823
C11	C	0.754889	0.068792	0.000075
C12	C	0.670878	0.067938	0.000065
C13	C	0.621873	0.111579	0.000055
C14	C	0.542936	0.110772	0.000066
C15	C	0.513007	0.066325	0.000081
C16	C	0.562019	0.022680	0.000094
C17	C	0.640954	0.023487	0.000089
C18	C	0.243685	0.019426	0.000115
C19	C	0.164744	0.018623	0.000117
C20	C	0.145667	0.106712	0.000092
C21	C	0.224602	0.107518	0.000087
C22	C	0.273607	0.063874	0.000104
C23	C	0.359199	0.064749	0.000094
C24	C	0.427418	0.065450	0.000085
C25	C	0.899867	-0.023279	0.000112
C26	C	0.899001	-0.076937	0.000118
C27	C	0.962734	-0.415523	0.000084
C28	C	0.959522	-0.617194	0.000072
O29	O	1.017801	-0.648240	0.000043
N30	N	0.890104	-0.636567	0.000064
C31	C	0.821484	-0.605520	0.000053
O32	O	0.762366	-0.626625	0.000038
C33	C	0.824696	-0.403849	0.000059
C34	C	0.894119	-0.384479	0.000076
C35	C	1.032151	-0.396152	0.000100
C36	C	1.032953	-0.345737	0.000107
C37	C	0.964338	-0.314693	0.000099
C38	C	0.894921	-0.334064	0.000083
C39	C	0.756076	-0.372802	0.000043
C40	C	0.756886	-0.322382	0.000042
C41	C	0.826308	-0.303012	0.000059
C42	C	0.827108	-0.252605	0.000083
N43	N	0.896526	-0.233232	0.000091
C44	C	0.965141	-0.264276	0.000099
C45	C	0.819802	-0.711400	0.000052
C46	C	0.818999	-0.761817	0.000052
C47	C	0.957038	-0.773488	0.000069
C48	C	0.957840	-0.723070	0.000075
C49	C	0.889220	-0.692026	0.000060
C50	C	0.966820	-0.158401	0.000115
C51	C	0.967616	-0.107981	0.000126
C52	C	0.829578	-0.096314	0.000105
C53	C	0.828781	-0.146730	0.000098
C54	C	0.897409	-0.177772	0.000101
O55	O	0.768860	-0.221531	0.000102
O56	O	1.024251	-0.243161	0.000096
C57	C	0.961931	-0.465938	0.000077
C58	C	0.892514	-0.485309	0.000061
C59	C	0.823899	-0.454265	0.000053
C60	C	0.891711	-0.535726	0.000061
C61	C	0.960326	-0.566770	0.000069
C62	C	1.029744	-0.547397	0.000077
C63	C	1.030546	-0.496982	0.000085
C64	C	0.754481	-0.473638	0.000045
C65	C	0.753685	-0.524053	0.000038
C66	C	0.822300	-0.555097	0.000046
C67	C	1.031726	0.061410	0.000108
C68	C	1.115737	0.062264	0.000113
C69	C	0.886748	0.153481	0.000072
C70	C	0.887614	0.207139	0.000060
N71	N	0.893290	0.065094	0.195759
N72	N	0.893331	0.065104	-0.195573
C73	C	0.945145	0.032186	0.239037
C74	C	0.945149	0.032185	0.325584
C75	C	0.893301	0.065096	0.368851
C76	C	0.841441	0.098005	0.325568
C77	C	0.841434	0.098003	0.239022
C78	C	0.841467	0.098014	0.674596
C79	C	0.841479	0.098015	0.761147
C80	C	0.945181	0.032197	0.761157
C81	C	0.945174	0.032194	0.674612
C82	C	0.893312	0.065102	0.631336
C83	C	0.893308	0.065102	0.537491
C84	C	0.893309	0.065099	0.462694
H85	H	0.248965	0.143712	0.000071
H86	H	0.105758	0.142249	0.000083
O87	O	0.791149	0.129956	0.367723
C88	C	0.802262	0.122896	0.453391
H89	H	0.862647	0.104782	0.465212
H90	H	0.793414	0.159510	0.486267
H91	H	0.759713	0.098687	0.477970
O92	O	1.035038	-0.089142	0.000285
C93	C	1.039622	-0.060330	0.071487
H94	H	1.000208	-0.072217	0.121252
H95	H	1.100672	-0.064926	0.095395
H96	H	1.021693	-0.020548	0.055390
O97	O	0.533075	-0.020539	0.000142
C98	C	0.593259	-0.058885	0.000129
H99	H	0.646728	-0.045399	0.026157
H100	H	0.577125	-0.089925	0.040052
H101	H	0.604588	-0.072338	-0.065831
H102	H	1.087078	-0.481215	0.000098
H103	H	0.772252	-0.162502	0.000108
O104	O	0.291248	-0.022982	-0.000021
C105	C	0.277745	-0.049975	-0.071212
H106	H	0.250469	-0.024422	-0.120990
H107	H	0.333980	-0.069428	-0.095110
H108	H	0.237868	-0.077903	-0.055105
H109	H	0.680855	-0.012050	0.000096
H110	H	0.987368	0.005389	0.203814
H111	H	0.773714	-0.071029	0.000101
O112	O	0.791139	0.130038	0.197016
C113	C	0.802866	0.177879	0.218155
H114	H	0.863459	0.178069	0.241938
H115	H	0.793869	0.202143	0.161229
H116	H	0.760753	0.192112	0.268390
O117	O	0.650816	0.154798	0.000076
C118	C	0.590631	0.193143	0.000050
H119	H	0.537163	0.179654	0.026087
H120	H	0.606765	0.224180	0.039959
H121	H	0.579299	0.206603	-0.065915
O122	O	0.135634	-0.024544	-0.000009
C123	C	0.090531	-0.027641	-0.071206
H124	H	0.108909	-0.002406	-0.120988
H125	H	0.098070	-0.066606	-0.095092
H126	H	0.028145	-0.016415	-0.055111
O127	O	1.033553	-0.188482	0.000158
C128	C	1.094986	-0.160564	0.000153
H129	H	1.075310	-0.122919	0.026182
H130	H	1.143023	-0.179214	0.040079
H131	H	1.116303	-0.156985	-0.065805
H132	H	0.987408	0.005400	0.796402
H133	H	1.089484	-0.329971	0.000117
O134	O	1.096378	-0.577577	-0.000064
C135	C	1.100031	-0.607086	-0.071266
H136	H	1.061114	-0.588568	-0.121037
H137	H	1.161066	-0.612823	-0.095165
H138	H	1.080870	-0.643728	-0.055174
H139	H	0.699545	-0.388565	0.000024
O140	O	1.098878	-0.426235	0.000147
C141	C	1.160310	-0.398316	0.000139
H142	H	1.140630	-0.360669	0.026161
H143	H	1.208346	-0.416962	0.040070
H144	H	1.181628	-0.394741	-0.065819
H145	H	0.698605	-0.448366	0.000036
O146	O	1.025296	-0.704278	-0.000064
C147	C	1.067099	-0.720156	-0.071256
H148	H	1.026498	-0.730594	-0.121030
H149	H	1.098942	-0.689648	-0.095158
H150	H	1.109662	-0.753064	-0.055149
O151	O	0.495259	0.153135	-0.000062
C152	C	0.449041	0.155309	-0.071280
H153	H	0.445493	0.116946	-0.095000
H154	H	0.389498	0.173387	-0.055270
H155	H	0.474756	0.177351	-0.121156
O156	O	1.023622	-0.803718	0.000033
C157	C	1.008018	-0.852369	0.000049
H158	H	0.948590	-0.854228	-0.025978
H159	H	1.051784	-0.875255	-0.039875
H160	H	1.011062	-0.866964	0.066009
O161	O	0.995464	0.000124	0.632688
C162	C	0.983664	-0.047689	0.653972
H163	H	0.923051	-0.047827	0.677730
H164	H	0.992664	-0.072005	0.597126
H165	H	1.025734	-0.061897	0.704270
H166	H	0.762468	-0.777584	0.000053
O167	O	0.753071	-0.681316	0.000081
C168	C	0.691637	-0.709233	0.000056
H169	H	0.711307	-0.746886	0.026086
H170	H	0.643592	-0.690594	0.039973
H171	H	0.670334	-0.712794	-0.065907
H172	H	0.701006	-0.297108	0.000029
O173	O	0.686175	-0.542786	-0.000013
C174	C	0.625792	-0.504569	-0.000000
H175	H	0.646610	-0.470338	-0.026016
H176	H	0.577295	-0.515042	-0.039934
H177	H	0.604642	-0.497423	0.065958
H178	H	0.987372	0.005389	0.360820
H179	H	0.799256	0.124815	0.796374
O180	O	0.791065	0.130029	0.632693
C181	C	0.745297	0.159068	0.689443
H182	H	0.776330	0.159590	0.751129
H183	H	0.733292	0.197680	0.664425
H184	H	0.689262	0.143418	0.698666
