data_functionalizedCrystal
_audit_creation_method	'MofGen! by Chris Wilmer'
_symmetry_space_group_name_H-M	'P1'
_symmetry_Int_Tables_number	1
_symmetry_cell_setting	triclinic
loop_
_symmetry_equiv_pos_as_xyz
  x,y,z
_cell_length_a	12.837943
_cell_length_b	11.792241
_cell_length_c	11.892095
_cell_angle_alpha	93.915739
_cell_angle_beta	85.689438
_cell_angle_gamma	89.511178
loop_
_atom_site_label
_atom_site_type_symbol
_atom_site_fract_x
_atom_site_fract_y
_atom_site_fract_z
O1	O	1.383703	0.288690	-0.093984
O2	O	1.081816	0.274106	-0.093991
O3	O	1.240085	0.116971	-0.093980
O4	O	1.225434	0.445825	-0.093996
O5	O	1.226889	0.130050	0.094027
O6	O	1.068620	0.287185	0.094016
O7	O	1.370507	0.301770	0.094022
Zn8	Zn	1.217468	0.296554	0.123869
Zn9	Zn	1.234855	0.279322	-0.123838
O10	O	1.212238	0.458904	0.094011
C11	C	1.036570	0.275719	0.000012
C12	C	0.921410	0.261025	0.000009
C13	C	0.681444	0.437671	0.000017
C14	C	0.573241	0.423870	0.000015
C15	C	0.596797	0.219624	0.000013
C16	C	0.705001	0.233425	0.000015
C17	C	0.747320	0.342452	0.000015
C18	C	0.855526	0.356251	0.000008
C19	C	0.879080	0.152006	0.000014
C20	C	0.770877	0.138205	0.000013
C21	C	1.232566	0.081126	0.000023
C22	C	1.229812	-0.045167	0.000022
C23	C	1.224748	-0.276394	0.000003
C24	C	1.227561	-0.147723	0.000014
C25	C	1.415753	0.300157	0.000017
C26	C	1.530913	0.314850	0.000012
C27	C	1.219756	0.494749	0.000005
C28	C	1.222512	0.621042	-0.000001
N29	N	1.205610	0.308315	0.292922
N30	N	1.246721	0.267553	-0.292891
C31	C	1.329237	0.185651	0.529579
C32	C	1.320956	0.193880	0.647920
C33	C	1.180761	0.332997	0.647948
C34	C	1.189043	0.324768	0.529607
C35	C	1.263284	0.251093	0.470427
C36	C	1.271570	0.242870	0.352083
C37	C	1.131371	0.381980	0.352113
C38	C	1.123090	0.390210	0.470454
H39	H	0.932729	0.074471	0.000005
C40	C	1.352200	0.162773	0.288031
C41	C	1.408165	0.107199	0.365170
C42	C	1.482439	0.033389	0.306210
H43	H	1.398939	0.204983	0.241850
H44	H	1.317875	0.108174	0.241900
H45	H	1.442489	0.161790	0.411281
H46	H	1.361454	0.064967	0.411353
H47	H	1.448114	-0.021209	0.260080
H48	H	1.529171	0.075609	0.260032
H49	H	1.520414	-0.004334	0.358540
C50	C	0.727475	0.555992	-0.000221
C51	C	0.795676	0.563159	-0.096960
C52	C	0.838086	0.672144	-0.097225
H53	H	0.764671	0.570296	0.065264
H54	H	0.672777	0.610761	-0.000286
H55	H	0.850365	0.508407	-0.096885
H56	H	0.758504	0.548877	-0.162461
H57	H	0.783389	0.726913	-0.097290
H58	H	0.875278	0.686439	-0.031736
H59	H	0.884358	0.677025	-0.162866
H60	H	1.389694	0.125670	0.481393
C61	C	0.501895	0.527389	-0.000045
C62	C	0.562123	0.625817	-0.000073
C63	C	0.496436	0.721202	-0.000143
H64	H	0.454571	0.530968	0.065497
H65	H	0.463815	0.521755	-0.065635
H66	H	0.600185	0.631450	0.065510
H67	H	0.609444	0.622276	-0.065611
H68	H	0.458356	0.715568	-0.065733
H69	H	0.449115	0.724770	0.065400
H70	H	0.537292	0.787995	-0.000173
H71	H	0.562315	0.130865	0.000107
H72	H	1.374660	0.140589	0.696079
H73	H	1.120309	0.392973	0.696148
H74	H	1.062641	0.450192	0.518653
H75	H	1.077670	0.435272	0.303938
H76	H	0.736404	0.049439	0.000026
C77	C	0.901549	0.474576	-0.000225
C78	C	0.969745	0.481757	-0.096966
C79	C	1.012145	0.590748	-0.097224
H80	H	0.938748	0.488879	0.065259
H81	H	0.846846	0.529339	-0.000283
H82	H	1.024439	0.427011	-0.096898
H83	H	0.932571	0.467476	-0.162466
H84	H	0.957442	0.645511	-0.097282
H85	H	1.049338	0.605041	-0.031735
H86	H	1.058413	0.595638	-0.162866
