data_functionalizedCrystal
_audit_creation_method	'MofGen! by Chris Wilmer'
_symmetry_space_group_name_H-M	'P1'
_symmetry_Int_Tables_number	1
_symmetry_cell_setting	triclinic
loop_
_symmetry_equiv_pos_as_xyz
  x,y,z
_cell_length_a	16.120530
_cell_length_b	18.101395
_cell_length_c	18.101389
_cell_angle_alpha	90.020787
_cell_angle_beta	92.913729
_cell_angle_gamma	87.126665
loop_
_atom_site_label
_atom_site_type_symbol
_atom_site_fract_x
_atom_site_fract_y
_atom_site_fract_z
Zn1	Zn	1.274469	-0.352368	0.476079
Zn2	Zn	1.774469	0.147632	0.976079
Zn3	Zn	1.274356	-0.476197	0.352235
Zn4	Zn	1.774356	0.023803	0.852235
Zn5	Zn	1.135060	-0.346090	0.345979
Zn6	Zn	1.635060	0.153910	0.845979
Zn7	Zn	1.134999	-0.469881	0.469766
Zn8	Zn	1.634999	0.030119	0.969766
O9	O	1.204721	-0.411134	0.411015
O10	O	1.704721	0.088866	0.911015
O11	O	1.391119	-0.374064	0.464911
O12	O	1.891119	0.125936	0.964911
O13	O	1.255857	-0.458954	0.247772
O14	O	1.755857	0.041046	0.747772
O15	O	1.153625	-0.243293	0.363261
O16	O	1.653625	0.256707	0.863261
O17	O	1.391036	-0.465041	0.373923
O18	O	1.891036	0.034959	0.873923
O19	O	1.256048	-0.247905	0.458844
O20	O	1.756048	0.252095	0.958844
O21	O	1.153516	-0.363365	0.243175
O22	O	1.653516	0.136635	0.743175
O23	O	1.018387	-0.357241	0.357140
O24	O	1.518387	0.142759	0.857140
O25	O	1.153522	-0.454276	0.574237
O26	O	1.653522	0.045724	1.074237
O27	O	1.018343	-0.448189	0.448085
O28	O	1.518343	0.051811	0.948085
O29	O	1.255990	-0.367940	0.578875
O30	O	1.755990	0.132060	1.078875
O31	O	1.255798	-0.578989	0.367802
O32	O	1.755798	-0.078989	0.867802
O33	O	1.153413	-0.574348	0.454152
O34	O	1.653413	-0.074348	0.954152
C35	C	0.988115	-0.401349	0.401249
C36	C	1.488115	0.098651	0.901249
C37	C	0.895450	-0.397181	0.397089
C38	C	1.395450	0.102819	0.897089
C39	C	0.725790	-0.389553	0.389500
C40	C	1.225790	0.110447	0.889500
C41	C	0.684493	-0.432769	0.432584
C42	C	1.184493	0.067231	0.932584
C43	C	0.590088	-0.428525	0.428361
C44	C	1.090088	0.071475	0.928361
C45	C	0.820203	-0.393796	0.393722
C46	C	1.320203	0.106204	0.893722
C47	C	1.204610	-0.603539	0.410988
C48	C	1.704610	-0.103539	0.910988
C49	C	1.204638	-0.685855	0.411005
C50	C	1.704638	-0.185855	0.911005
C51	C	1.204821	-0.984954	0.411053
C52	C	1.704821	-0.484954	0.911053
C53	C	1.140553	-0.950747	0.465530
C54	C	1.640553	-0.450747	0.965530
C55	C	1.140247	-0.865115	0.465337
C56	C	1.640247	-0.365115	0.965337
C57	C	1.204730	-0.836567	0.411030
C58	C	1.704730	-0.336567	0.911030
C59	C	1.180947	-0.866637	0.331910
C60	C	1.680947	-0.366637	0.831910
C61	C	1.180533	-0.952264	0.332235
C62	C	1.680533	-0.452264	0.832235
C63	C	1.293013	-0.957278	0.435014
C64	C	1.793013	-0.457278	0.935014
C65	C	1.292495	-0.871604	0.436703
C66	C	1.792495	-0.371604	0.936703
C67	C	1.204680	-0.752706	0.411012
C68	C	1.704680	-0.252706	0.911012
C69	C	1.204869	-1.068816	0.411065
C70	C	1.704869	-0.568816	0.911065
C71	C	1.422173	-0.420958	0.420819
C72	C	1.922173	0.079042	0.920819
C73	C	1.514838	-0.425144	0.424997
C74	C	2.014838	0.074856	0.924997
C75	C	1.204762	-0.411104	0.604179
C76	C	1.704762	0.088896	1.104179
C77	C	1.204779	-0.411091	0.686494
C78	C	1.704779	0.088909	1.186494
C79	C	1.204856	-0.217978	0.411059
C80	C	1.704856	0.282022	0.911059
C81	C	1.204913	-0.135667	0.411078
C82	C	1.704913	0.364333	0.911078
C83	C	1.204728	-0.411113	0.218605
C84	C	1.704728	0.088887	0.718605
C85	C	1.204873	-0.410924	0.136297
C86	C	1.704873	0.089076	0.636297
C87	C	1.204811	-0.411035	0.837203
C88	C	1.704811	0.088965	1.337203
C89	C	1.140351	-0.465344	0.865640
C90	C	1.640351	0.034656	1.365640
C91	C	1.140116	-0.465132	0.951247
C92	C	1.640116	0.034868	1.451247
C93	C	1.204841	-0.410980	0.985588
C94	C	1.704841	0.089020	1.485588
C95	C	1.181328	-0.331825	0.953445
C96	C	1.681328	0.168175	1.453445
C97	C	1.180842	-0.332166	0.867778
C98	C	1.680842	0.167834	1.367778
C99	C	1.292953	-0.435194	0.872737
C100	C	1.792953	0.064806	1.372737
C101	C	1.292498	-0.436863	0.958367
C102	C	1.792498	0.063137	1.458367
C103	C	1.204860	-0.410945	1.069448
C104	C	1.704860	0.089055	1.569448
C105	C	1.204790	-0.411065	0.753343
C106	C	1.704790	0.088935	1.253343
H107	H	0.720038	-0.472953	0.472641
H108	H	1.220038	0.027047	0.972641
Br109	Br	1.032108	-0.438434	0.824904
Br110	Br	1.532108	0.061566	1.324904
H111	H	0.690247	-0.349372	0.349446
H112	H	1.190247	0.150628	0.849446
Br113	Br	1.164575	-0.562742	0.987382
Br114	Br	1.664575	-0.062742	1.487382
H115	H	1.155127	-0.844729	0.523879
H116	H	1.655127	-0.344729	1.023879
Br117	Br	1.376532	-0.839692	0.375923
Br118	Br	1.876532	-0.339692	0.875923
H119	H	1.155284	-0.971966	0.524253
H120	H	1.655284	-0.471966	1.024253
Br121	Br	1.074632	-0.826201	0.298389
Br122	Br	1.574632	-0.326201	0.798389
Br123	Br	1.032262	-0.981857	0.438883
Br124	Br	1.532262	-0.481857	0.938883
Br125	Br	1.031290	-0.826151	0.438367
Br126	Br	1.531290	-0.326151	0.938367
Br127	Br	1.073083	-0.980824	0.299171
Br128	Br	1.573083	-0.480824	0.799171
Br129	Br	1.255158	-0.990156	0.261916
Br130	Br	1.755158	-0.490156	0.761916
Br131	Br	1.256511	-0.836091	0.262120
Br132	Br	1.756511	-0.336091	0.762120
H133	H	1.225767	-0.290092	0.849070
H134	H	1.725767	0.209908	1.349070
H135	H	1.314698	-0.979811	0.491934
H136	H	1.814698	-0.479811	0.991934
H137	H	1.310430	-0.852056	0.494950
H138	H	1.810430	-0.352056	0.994950
H139	H	1.226849	-0.290066	0.975850
H140	H	1.726849	0.209934	1.475850
H141	H	1.340896	-0.979683	0.395385
H142	H	1.840896	-0.479683	0.895385
H143	H	1.154846	-0.524096	0.845697
H144	H	1.654846	-0.024096	1.345697
Br145	Br	1.031264	-0.437930	0.980505
Br146	Br	1.531264	0.062070	1.480505
Br147	Br	1.073473	-0.298860	0.829647
Br148	Br	1.573473	0.201140	1.329647
Br149	Br	1.075152	-0.298051	0.984415
Br150	Br	1.575152	0.201949	1.484415
Br151	Br	1.328711	-0.530142	0.838350
Br152	Br	1.828711	-0.030142	1.338350
Br153	Br	1.322063	-0.533991	0.993555
Br154	Br	1.822063	-0.033991	1.493555
H155	H	1.343079	-0.400517	0.982039
H156	H	1.843079	0.099483	1.482039
H157	H	1.340975	-0.395684	0.854638
H158	H	1.840975	0.104316	1.354638
