data_functionalizedCrystal
_audit_creation_method	'MofGen! by Chris Wilmer'
_symmetry_space_group_name_H-M	'P1'
_symmetry_Int_Tables_number	1
_symmetry_cell_setting	triclinic
loop_
_symmetry_equiv_pos_as_xyz
  x,y,z
_cell_length_a	19.077236
_cell_length_b	16.959453
_cell_length_c	19.076919
_cell_angle_alpha	92.271168
_cell_angle_beta	89.887323
_cell_angle_gamma	92.312753
loop_
_atom_site_label
_atom_site_type_symbol
_atom_site_fract_x
_atom_site_fract_y
_atom_site_fract_z
Zn1	Zn	1.058311	-0.286927	-0.440540
Zn2	Zn	1.062960	-0.413599	-0.323032
Zn3	Zn	0.945527	-0.286513	-0.318320
Zn4	Zn	0.940780	-0.424144	-0.435771
O5	O	1.001895	-0.352796	-0.379416
O6	O	1.157261	-0.299491	-0.428921
O7	O	1.051314	-0.392154	-0.224077
O8	O	0.960529	-0.175956	-0.334557
O9	O	1.160677	-0.392556	-0.342588
O10	O	1.043391	-0.176261	-0.424351
O11	O	0.965037	-0.298785	-0.220614
O12	O	0.846564	-0.309010	-0.329932
O13	O	0.952439	-0.410529	-0.534734
O14	O	0.843076	-0.410127	-0.416222
O15	O	1.038789	-0.309716	-0.538238
O16	O	1.046712	-0.525610	-0.337964
O17	O	0.956947	-0.533357	-0.420792
C18	C	0.819323	-0.360668	-0.372049
C19	C	0.741218	-0.364056	-0.368914
C20	C	0.702743	-0.317277	-0.412458
C21	C	0.629355	-0.320456	-0.409506
C22	C	0.594443	-0.370418	-0.363013
C23	C	0.632923	-0.417199	-0.319464
C24	C	0.706310	-0.414016	-0.322413
C25	C	0.375150	-0.385123	-0.349364
C26	C	0.301758	-0.388305	-0.346420
C27	C	0.298196	-0.291560	-0.436461
C28	C	0.371584	-0.288384	-0.439409
C29	C	0.410058	-0.335162	-0.395857
N30	N	0.519428	-0.373671	-0.359996
N31	N	0.485071	-0.331905	-0.398871
C32	C	1.001837	-0.558164	-0.379388
C33	C	1.001876	-0.646019	-0.379402
C34	C	1.045095	-1.017596	-0.426259
C35	C	0.958886	-1.017389	-0.332685
C36	C	0.958861	-0.934844	-0.332668
C37	C	1.001952	-0.893670	-0.379448
C38	C	1.045070	-0.935043	-0.426245
C39	C	0.915739	-0.893466	-0.285876
C40	C	0.915712	-0.810915	-0.285858
C41	C	0.958807	-0.769740	-0.332635
C42	C	1.001927	-0.811117	-0.379433
C43	C	1.045019	-0.769944	-0.426213
C44	C	1.088142	-0.811320	-0.473009
C45	C	1.088165	-0.893868	-0.473022
C46	C	0.958784	-0.687192	-0.332622
C47	C	1.044993	-0.687391	-0.426199
C48	C	1.185179	-0.344893	-0.386812
C49	C	1.263284	-0.341526	-0.389964
C50	C	0.994566	-0.361345	-0.562695
C51	C	0.991443	-0.364988	-0.640798
C52	C	1.001971	-0.146626	-0.379460
C53	C	1.002004	-0.058769	-0.379479
C54	C	1.034931	-0.314214	-0.679316
C55	C	1.031987	-0.317635	-0.752701
C56	C	0.985559	-0.371833	-0.787567
C57	C	0.942067	-0.422609	-0.749044
C58	C	0.945007	-0.419184	-0.675660
C59	C	0.971942	-0.387701	-1.006847
C60	C	0.969007	-0.391123	-1.080236
C61	C	1.058927	-0.286147	-1.083889
C62	C	1.061866	-0.282731	-1.010503
C63	C	1.018371	-0.333504	-0.971986
N64	N	0.982551	-0.375333	-0.862579
N65	N	1.021376	-0.330000	-0.896975
C66	C	1.009236	-0.344221	-0.196851
C67	C	1.012495	-0.340350	-0.118754
H68	H	0.731164	-0.276594	-0.450319
O69	O	1.074203	-0.268199	-0.790034
C70	C	1.107442	-0.133319	-0.813909
C71	C	1.059600	-0.189220	-0.771576
H72	H	1.095641	-0.069453	-0.799012
H73	H	1.164687	-0.144022	-0.801752
H74	H	1.097381	-0.145105	-0.872346
H75	H	1.069598	-0.177468	-0.713127
H76	H	1.002370	-0.178505	-0.783791
H77	H	1.080086	-0.653873	-0.464290
O78	O	1.129918	-0.771363	-0.518549
C79	C	1.159165	-0.750154	-0.639470
C80	C	1.111799	-0.795450	-0.587976
H81	H	1.144543	-0.769624	-0.695612
H82	H	1.151725	-0.684043	-0.631481
H83	H	1.216333	-0.763301	-0.629432
H84	H	1.054614	-0.782369	-0.597983
H85	H	1.119299	-0.861548	-0.595977
H86	H	0.598032	-0.282365	-0.444966
H87	H	1.099675	-0.238598	-0.982120
O88	O	1.129983	-0.934184	-0.518454
C89	C	1.168249	-1.061446	-0.559921
C90	C	1.120849	-1.015884	-0.508443
H91	H	1.160892	-1.127508	-0.551835
H92	H	1.153590	-1.048435	-0.616083
H93	H	1.225401	-1.042113	-0.549921
H94	H	1.063683	-1.035190	-0.518378
H95	H	1.135568	-1.028897	-0.452298
O96	O	1.079936	-0.261524	-0.645370
C97	C	1.092739	-0.150495	-0.562963
C98	C	1.041697	-0.210135	-0.601343
H99	H	1.061842	-0.108921	-0.527369
H100	H	1.130839	-0.183546	-0.530035
H101	H	1.123327	-0.114829	-0.603117
H102	H	1.011061	-0.245817	-0.561237
H103	H	1.003643	-0.177037	-0.634284
O104	O	0.917096	-1.057502	-0.287270
C105	C	0.878900	-1.184586	-0.245851
C106	C	0.926274	-1.139253	-0.297313
H107	H	0.886293	-1.250691	-0.253962
H108	H	0.893552	-1.165255	-0.189683
H109	H	0.821739	-1.171368	-0.255842
H110	H	0.983449	-1.152449	-0.287386
H111	H	0.911561	-1.158591	-0.353464
O112	O	0.743760	-0.459499	-0.280217
C113	C	0.826951	-0.562188	-0.273923
C114	C	0.784592	-0.510719	-0.321794
H115	H	0.859963	-0.603623	-0.307519
H116	H	0.862822	-0.522672	-0.238632
H117	H	0.789382	-0.598410	-0.240170
H118	H	0.822109	-0.474489	-0.355590
H119	H	0.748713	-0.550278	-0.357038
H120	H	1.080207	-1.051287	-0.464357
H121	H	0.880599	-0.777232	-0.247754
O122	O	0.412554	-0.430449	-0.306993
C123	C	0.499216	-0.432908	-0.215464
C124	C	0.456885	-0.381478	-0.263395
H125	H	0.535078	-0.393337	-0.180214
H126	H	0.461691	-0.469151	-0.181681
H127	H	0.532253	-0.474321	-0.249056
H128	H	0.423845	-0.340020	-0.229858
H129	H	0.494447	-0.345289	-0.297182
H130	H	1.094338	-0.244810	-1.115257
H131	H	0.880654	-0.926995	-0.247793
H132	H	0.400005	-0.247702	-0.477271
O133	O	0.598975	-0.465823	-0.274400
C134	C	0.516452	-0.575641	-0.261447
C135	C	0.554861	-0.520639	-0.312560
H136	H	0.480766	-0.619962	-0.292279
H137	H	0.556526	-0.608589	-0.230841
H138	H	0.483591	-0.539049	-0.223371
H139	H	0.587722	-0.557173	-0.350679
H140	H	0.514751	-0.487688	-0.343116
O141	O	0.897064	-0.475338	-0.782947
C142	C	0.884249	-0.586301	-0.865424
C143	C	0.935292	-0.526643	-0.827066
H144	H	0.915134	-0.627785	-0.901115
H145	H	0.853680	-0.622060	-0.825320
H146	H	0.846132	-0.553179	-0.898273
H147	H	0.973451	-0.559701	-0.794218
H148	H	0.965809	-0.490884	-0.867207
O149	O	0.902690	-0.468401	-0.638210
C150	C	0.811158	-0.479268	-0.551495
C151	C	0.859031	-0.423440	-0.593869
H152	H	0.775858	-0.442939	-0.515624
H153	H	0.777423	-0.518580	-0.588990
H154	H	0.844793	-0.517623	-0.518466
H155	H	0.825450	-0.385035	-0.626902
H156	H	0.892770	-0.384182	-0.556336
O157	O	0.923841	-0.443797	-1.113995
C158	C	0.834989	-0.547587	-1.102634
C159	C	0.886090	-0.487963	-1.064313
H160	H	0.804465	-0.583323	-1.062483
H161	H	0.796842	-0.514522	-1.135496
H162	H	0.865872	-0.589098	-1.138301
H163	H	0.855265	-0.446437	-1.028609
H164	H	0.924237	-0.521080	-1.031495
H165	H	0.936535	-0.429055	-0.975495
O166	O	0.260849	-0.246207	-0.478862
C167	C	0.233676	-0.214561	-0.597547
C168	C	0.275998	-0.265991	-0.549610
H169	H	0.245919	-0.230526	-0.654756
H170	H	0.175216	-0.225422	-0.587516
H171	H	0.248597	-0.149610	-0.585850
H172	H	0.261136	-0.330959	-0.561278
H173	H	0.334447	-0.255062	-0.559650
H174	H	0.273335	-0.428994	-0.308559
H175	H	0.923670	-0.653508	-0.294525
