data_functionalizedCrystal
_audit_creation_method	'MofGen! by Chris Wilmer'
_symmetry_space_group_name_H-M	'P1'
_symmetry_Int_Tables_number	1
_symmetry_cell_setting	triclinic
loop_
_symmetry_equiv_pos_as_xyz
  x,y,z
_cell_length_a	8.597340
_cell_length_b	19.288865
_cell_length_c	18.366186
_cell_angle_alpha	89.988521
_cell_angle_beta	82.306915
_cell_angle_gamma	95.757043
loop_
_atom_site_label
_atom_site_type_symbol
_atom_site_fract_x
_atom_site_fract_y
_atom_site_fract_z
O1	O	2.081656	-0.103663	-0.070036
O2	O	1.624679	-0.111617	-0.041365
O3	O	1.866372	-0.006617	-0.056543
O4	O	1.839963	-0.208662	-0.054858
O5	O	1.866331	-0.006612	-0.177640
O6	O	1.624638	-0.111611	-0.162462
O7	O	2.081615	-0.103657	-0.191133
Zn8	Zn	1.853120	-0.107633	-0.196024
Zn9	Zn	1.853174	-0.107641	-0.036474
O10	O	1.839922	-0.208657	-0.175954
C11	C	1.566194	-0.110760	-0.098245
C12	C	1.391990	-0.108207	-0.087316
C13	C	1.865501	0.019269	-0.117041
C14	C	1.862950	0.096393	-0.116887
C15	C	2.140099	-0.104514	-0.134251
C16	C	2.314303	-0.107067	-0.145175
C17	C	1.840792	-0.234543	-0.115456
C18	C	1.843343	-0.311667	-0.115604
N19	N	1.853094	-0.107628	-0.304914
C20	C	2.004765	0.139930	-0.125788
C21	C	2.002368	0.212397	-0.125626
C22	C	1.858149	0.241323	-0.116577
C23	C	1.716316	0.197777	-0.107671
C24	C	1.718717	0.125311	-0.107826
C25	C	1.744762	0.350539	-0.151882
C26	C	1.742368	0.423003	-0.151732
C27	C	1.850740	0.464830	-0.116096
C28	C	1.961533	0.434184	-0.080622
C29	C	1.963933	0.361719	-0.080776
C30	C	1.855531	0.319899	-0.116408
C31	C	1.989965	0.586944	-0.124821
C32	C	1.987563	0.659412	-0.124655
C33	C	1.701507	0.644789	-0.106706
C34	C	1.703913	0.572323	-0.106866
C35	C	1.848147	0.543405	-0.115927
C36	C	1.960151	-0.061158	-0.349737
C37	C	1.960161	-0.061155	-0.425966
C38	C	1.853129	-0.107634	-0.457369
C39	C	1.746052	-0.154108	-0.412534
C40	C	1.746035	-0.154105	-0.336307
C41	C	1.832121	-0.170750	-0.576802
C42	C	1.832150	-0.170754	-0.653029
C43	C	1.853174	-0.107643	-0.692479
C44	C	1.874203	-0.044525	-0.655695
C45	C	1.874185	-0.044522	-0.579468
C46	C	1.853135	-0.107642	-0.540024
C47	C	1.960247	-0.061166	-0.819959
C48	C	1.960246	-0.061162	-0.896188
C49	C	1.746145	-0.154121	-0.882755
C50	C	1.746139	-0.154119	-0.806527
C51	C	1.853198	-0.107642	-0.775134
N52	N	1.853211	-0.107641	0.072415
H53	H	1.381063	-0.108039	-0.203075
H54	H	1.658969	-0.191962	-0.770029
H55	H	2.049779	0.468238	-0.051603
H56	H	1.658992	-0.191962	-0.908323
H57	H	1.325223	-0.107230	-0.029413
H58	H	2.122211	0.116390	-0.133164
C59	C	2.158373	0.260300	-0.135426
C60	C	2.317020	0.228491	-0.145394
C61	C	2.473023	0.276392	-0.155196
C62	C	2.470379	0.356100	-0.155029
C63	C	2.311725	0.387913	-0.145060
C64	C	2.155722	0.340012	-0.135259
H65	H	2.318983	0.169483	-0.145518
H66	H	2.590469	0.252841	-0.162575
H67	H	2.585861	0.391559	-0.162285
H68	H	2.309762	0.446921	-0.144937
H69	H	2.038276	0.363563	-0.127879
C70	C	2.143568	0.707308	-0.134447
C71	C	2.181291	0.759119	-0.073926
C72	C	2.337297	0.807017	-0.083720
C73	C	2.455581	0.803103	-0.154034
C74	C	2.417861	0.751290	-0.214559
C75	C	2.261855	0.703392	-0.204766
H76	H	2.093728	0.762018	-0.021871
H77	H	2.365219	0.845373	-0.038915
H78	H	2.571066	0.838560	-0.161284
H79	H	2.505425	0.748391	-0.266615
H80	H	2.233933	0.665036	-0.249571
C81	C	2.085781	0.328007	-0.041748
C82	C	2.204992	0.374004	-0.002545
C83	C	2.326834	0.340291	0.036488
C84	C	2.329465	0.260582	0.036318
C85	C	2.210249	0.214581	-0.002886
C86	C	2.088407	0.248293	-0.041919
H87	H	2.203048	0.433014	-0.002418
H88	H	2.415085	0.374345	0.065509
H89	H	2.419659	0.235626	0.065213
H90	H	2.212193	0.155571	-0.003013
H91	H	2.000156	0.214239	-0.070941
H92	H	2.107409	0.563398	-0.132196
C93	C	1.547913	0.524427	-0.097088
C94	C	1.389270	0.556240	-0.087136
C95	C	1.233262	0.508344	-0.077356
C96	C	1.235896	0.428635	-0.077528
C97	C	1.394544	0.396818	-0.087480
C98	C	1.550552	0.444714	-0.097260
H99	H	1.387315	0.615249	-0.087008
H100	H	1.115820	0.531897	-0.069989
H101	H	1.120409	0.393179	-0.070288
H102	H	1.396499	0.337808	-0.087608
H103	H	1.667994	0.421161	-0.104627
H104	H	1.584081	0.668340	-0.099335
H105	H	2.047321	-0.023312	-0.324179
C106	C	1.620496	0.456710	-0.190749
C107	C	1.501263	0.410706	-0.229933
C108	C	1.379385	0.444410	-0.268949
C109	C	1.376740	0.524118	-0.268783
C110	C	1.495977	0.570127	-0.229598
C111	C	1.617855	0.536423	-0.190582
H112	H	1.503217	0.351696	-0.230057
H113	H	1.291118	0.410351	-0.297957
H114	H	1.286519	0.549068	-0.297666
H115	H	1.494023	0.629137	-0.229474
H116	H	1.706123	0.570482	-0.161574
H117	H	1.656509	0.316490	-0.180904
C118	C	1.562711	0.077416	-0.098040
C119	C	1.444407	0.081330	-0.027733
C120	C	1.288399	0.033433	-0.017950
C121	C	1.250695	-0.018378	-0.078474
C122	C	1.369002	-0.022294	-0.148786
C123	C	1.525010	0.025603	-0.158569
H124	H	1.472315	0.119686	0.017074
H125	H	1.200821	0.036333	0.034100
H126	H	1.135209	-0.053834	-0.071232
H127	H	1.341095	-0.060650	-0.193593
H128	H	1.612589	0.022703	-0.210619
C129	C	2.077939	-0.010038	-0.475283
C130	C	2.195741	0.041062	-0.440752
C131	C	2.313521	0.092178	-0.490066
C132	C	2.313500	0.092194	-0.573911
C133	C	2.195693	0.041093	-0.608446
C134	C	2.077913	-0.010023	-0.559132
H135	H	2.195761	0.041051	-0.378682
H136	H	2.400729	0.130006	-0.464501
H137	H	2.400688	0.130033	-0.610416
H138	H	2.195673	0.041104	-0.670517
H139	H	1.990705	-0.047852	-0.584698
H140	H	1.598892	0.221333	-0.100302
H141	H	1.891304	0.006870	-0.549521
C142	C	1.897449	0.024901	-0.699087
C143	C	1.897544	0.024902	-0.782939
C144	C	1.920854	0.094325	-0.826338
C145	C	1.944069	0.163746	-0.785886
C146	C	1.943976	0.163748	-0.702029
C147	C	1.920666	0.094325	-0.658630
H148	H	1.880357	-0.026490	-0.812889
H149	H	1.920923	0.094323	-0.888415
H150	H	1.961325	0.215137	-0.818012
H151	H	1.961162	0.215140	-0.672079
H152	H	1.920597	0.094327	-0.596553
C153	C	2.078014	-0.010041	-0.945499
C154	C	2.195804	0.041064	-0.910968
C155	C	2.313573	0.092185	-0.960282
C156	C	2.313553	0.092200	-1.044126
C157	C	2.195758	0.041093	-1.078662
C158	C	2.077989	-0.010027	-1.029348
H159	H	2.195823	0.041054	-0.848897
H160	H	2.400772	0.130018	-0.934716
H161	H	2.400732	0.130043	-1.080631
H162	H	2.195739	0.041103	-1.140733
H163	H	1.990790	-0.047860	-1.054914
C164	C	1.809016	-0.240180	-0.693487
C165	C	1.785855	-0.309601	-0.650095
C166	C	1.762719	-0.379029	-0.690551
C167	C	1.762744	-0.379036	-0.774399
C168	C	1.785906	-0.309613	-0.817795
C169	C	1.809042	-0.240185	-0.777339
H170	H	1.785835	-0.309598	-0.588022
H171	H	1.745572	-0.430421	-0.658426
H172	H	1.745617	-0.430431	-0.804347
H173	H	1.785926	-0.309617	-0.879868
H174	H	1.826189	-0.188794	-0.809464
H175	H	1.658903	-0.191951	-0.438106
C176	C	1.808988	-0.240176	-0.533407
C177	C	1.937967	-0.260302	-0.489070
C178	C	1.914829	-0.329724	-0.445674
C179	C	1.762713	-0.379021	-0.446616
C180	C	1.633723	-0.358896	-0.490955
C181	C	1.656861	-0.289474	-0.534351
H182	H	2.050583	-0.223808	-0.488371
H183	H	2.010317	-0.344621	-0.412852
H184	H	1.745585	-0.430411	-0.414492
H185	H	1.521108	-0.395390	-0.491654
H186	H	1.561374	-0.274577	-0.567173
C187	C	1.628275	-0.205228	-0.286996
C188	C	1.510579	-0.256377	-0.321533
C189	C	1.392821	-0.307502	-0.272219
C190	C	1.392758	-0.307479	-0.188369
C191	C	1.510458	-0.256329	-0.153828
C192	C	1.628216	-0.205204	-0.203141
H193	H	1.510622	-0.256395	-0.383607
H194	H	1.305692	-0.345367	-0.297790
H195	H	1.305586	-0.345326	-0.151865
H196	H	1.510415	-0.256311	-0.091753
H197	H	1.715345	-0.167339	-0.177571
H198	H	2.047416	-0.023319	-0.794397
