data_functionalizedCrystal
_audit_creation_method	'MofGen! by Chris Wilmer'
_symmetry_space_group_name_H-M	'P1'
_symmetry_Int_Tables_number	1
_symmetry_cell_setting	triclinic
loop_
_symmetry_equiv_pos_as_xyz
  x,y,z
_cell_length_a	17.699083
_cell_length_b	10.723023
_cell_length_c	16.776229
_cell_angle_alpha	89.994384
_cell_angle_beta	89.998886
_cell_angle_gamma	83.875281
loop_
_atom_site_label
_atom_site_type_symbol
_atom_site_fract_x
_atom_site_fract_y
_atom_site_fract_z
O1	O	1.005074	0.157797	-0.066175
O2	O	0.784825	0.178327	-0.066201
O3	O	0.900030	-0.013601	-0.066184
O4	O	0.889868	0.349725	-0.066191
O5	O	0.900014	-0.013613	0.066393
O6	O	0.784809	0.178315	0.066376
O7	O	1.005058	0.157785	0.066402
Zn8	Zn	0.894931	0.168048	0.087438
Zn9	Zn	0.894952	0.168064	-0.087237
O10	O	0.889853	0.349714	0.066385
C11	C	0.756615	0.177585	0.000084
C12	C	0.672583	0.175379	0.000075
C13	C	0.899283	-0.060094	0.000104
C14	C	0.897071	-0.198611	0.000101
C15	C	0.624673	0.288036	0.000072
C16	C	0.545716	0.285955	0.000083
C17	C	0.514672	0.171215	0.000090
C18	C	0.562589	0.058549	0.000094
C19	C	0.641544	0.060631	0.000089
C20	C	0.244173	0.050148	0.000114
C21	C	0.165212	0.048075	0.000116
C22	C	0.148345	0.275473	0.000107
C23	C	0.227300	0.277555	0.000103
C24	C	0.275210	0.164889	0.000111
C25	C	0.360823	0.167147	0.000102
C26	C	0.429060	0.168956	0.000094
C27	C	0.896093	-0.260353	-0.068579
C28	C	0.893806	-0.403517	-0.068584
C29	C	1.033267	0.158527	0.000115
C30	C	1.117299	0.160734	0.000120
C31	C	0.890600	0.396206	0.000096
C32	C	0.892812	0.534723	0.000094
N33	N	0.894923	0.168037	0.206650
N34	N	0.894966	0.168065	-0.206448
C35	C	0.945951	0.083086	0.248374
C36	C	0.945956	0.083085	0.331826
C37	C	0.894934	0.168042	0.373552
C38	C	0.843900	0.252997	0.331822
C39	C	0.843893	0.252991	0.248371
C40	C	0.843928	0.253021	0.668369
C41	C	0.843940	0.253023	0.751826
C42	C	0.945990	0.083115	0.751824
C43	C	0.945983	0.083109	0.668373
C44	C	0.894947	0.168060	0.626650
C45	C	0.894942	0.168058	0.536162
C46	C	0.894942	0.168050	0.464039
H47	H	0.649942	0.381471	0.000066
H48	H	0.139939	-0.045366	0.000123
O49	O	0.494042	0.407468	0.000076
H50	H	0.457676	0.411964	0.054120
H51	H	0.252572	0.370988	0.000093
H52	H	0.802339	0.322165	0.214400
O53	O	1.001037	-0.008512	0.796830
H54	H	1.036521	-0.067573	0.753794
H55	H	0.892969	-0.456615	-0.127383
H56	H	0.109327	0.367211	0.000104
H57	H	0.802373	0.322193	0.634405
H58	H	0.896211	-0.251738	0.058897
H59	H	0.987502	0.013910	0.214406
H60	H	0.987506	0.013911	0.365798
O61	O	1.001008	-0.008528	0.623366
H62	H	1.036488	-0.067612	0.666401
H63	H	0.680552	-0.031107	0.000091
O64	O	0.295843	-0.071363	0.000123
H65	H	0.260988	-0.151494	0.000122
H66	H	0.802390	0.322208	0.785798
O67	O	0.897223	-0.189997	-0.146468
H68	H	0.898845	-0.088592	-0.134242
H69	H	0.537306	-0.034875	0.000111
H70	H	0.802354	0.322166	0.365800
H71	H	0.893657	-0.412189	0.058896
