data_functionalizedCrystal
_audit_creation_method	'MofGen! by Chris Wilmer'
_symmetry_space_group_name_H-M	'P1'
_symmetry_Int_Tables_number	1
_symmetry_cell_setting	triclinic
loop_
_symmetry_equiv_pos_as_xyz
  x,y,z
_cell_length_a	10.723022
_cell_length_b	17.019294
_cell_length_c	9.798715
_cell_angle_alpha	86.117884
_cell_angle_beta	89.996609
_cell_angle_gamma	83.929508
loop_
_atom_site_label
_atom_site_type_symbol
_atom_site_fract_x
_atom_site_fract_y
_atom_site_fract_z
O1	O	1.655493	0.110630	-0.126481
O2	O	2.155493	0.610630	0.373519
O3	O	1.292178	0.121222	-0.127730
O4	O	1.792178	0.621222	0.372270
O5	O	1.483971	0.001148	-0.113610
O6	O	1.983971	0.501148	0.386390
O7	O	1.463701	0.230704	-0.140601
O8	O	1.963701	0.730704	0.359399
O9	O	1.483957	0.001148	0.113372
O10	O	1.983957	0.501148	0.613372
O11	O	1.292164	0.121221	0.099252
O12	O	1.792164	0.621221	0.599252
O13	O	1.655479	0.110630	0.100501
O14	O	2.155479	0.610630	0.600501
Zn15	Zn	1.473819	0.115926	0.135915
Zn16	Zn	1.973819	0.615926	0.635915
Zn17	Zn	1.473838	0.115926	-0.163144
Zn18	Zn	1.973838	0.615926	0.336856
O19	O	1.463686	0.230704	0.086381
O20	O	1.963686	0.730704	0.586381
C21	C	1.245683	0.120451	-0.014149
C22	C	1.745683	0.620451	0.485851
C23	C	1.107164	0.118146	-0.013880
C24	C	1.607164	0.618146	0.486120
C25	C	0.887993	0.182948	-0.021502
C26	C	1.387993	0.682948	0.478498
C27	C	1.031160	0.185332	-0.021781
C28	C	1.531160	0.685332	0.478219
C29	C	1.483195	-0.028245	0.003334
C30	C	1.983195	0.471755	0.503334
C31	C	1.480890	-0.115828	0.013623
C32	C	1.980890	0.384172	0.513623
C33	C	1.479817	-0.156970	-0.105270
C34	C	1.979817	0.343030	0.394730
C35	C	1.477642	-0.239263	-0.095599
C36	C	1.977642	0.260737	0.404401
C37	C	1.476550	-0.280412	0.032968
C38	C	1.976550	0.219588	0.532968
C39	C	1.477619	-0.239265	0.151870
C40	C	1.977619	0.260735	0.651870
C41	C	1.479784	-0.156973	0.142197
C42	C	1.979784	0.343027	0.642197
C43	C	1.470002	-0.528880	0.068365
C44	C	1.970002	-0.028880	0.568365
C45	C	1.467841	-0.611178	0.078029
C46	C	1.967841	-0.111178	0.578029
C47	C	1.467862	-0.611170	-0.169441
C48	C	1.967862	-0.111170	0.330559
C49	C	1.470035	-0.528878	-0.179103
C50	C	1.970035	-0.028878	0.320897
C51	C	1.471098	-0.487736	-0.060201
C52	C	1.971098	0.012264	0.439799
C53	C	1.474331	-0.364529	0.042857
C54	C	1.974331	0.135471	0.542857
C55	C	1.473307	-0.403620	-0.070091
C56	C	1.973307	0.096380	0.429909
C57	C	1.701974	0.111401	-0.013083
C58	C	2.201974	0.611401	0.486917
C59	C	1.840493	0.113706	-0.013361
C60	C	2.340493	0.613706	0.486639
C61	C	1.464462	0.260097	-0.030566
C62	C	1.964462	0.760097	0.469434
C63	C	1.466768	0.347680	-0.040864
C64	C	1.966768	0.847680	0.459136
N65	N	1.473816	0.115925	0.340015
N66	N	1.973816	0.615925	0.840015
N67	N	1.473852	0.115921	-0.367243
N68	N	1.973852	0.615921	0.132757
C69	C	1.554348	0.065287	0.413746
C70	C	2.054348	0.565287	0.913746
C71	C	1.554368	0.065285	0.570909
C72	C	2.054368	0.565285	1.070909
H73	H	1.066269	0.058858	-0.006945
H74	H	1.566269	0.558858	0.493055
C75	C	0.799749	0.260653	-0.030637
C76	C	1.299749	0.760653	0.469363
N77	N	0.733285	0.319182	-0.037515
N78	N	1.233285	0.819182	0.462485
H79	H	1.623276	0.021933	0.360522
H80	H	2.123276	0.521933	0.860522
C81	C	1.480968	-0.111717	0.272989
C82	C	1.980968	0.388283	0.772989
N83	N	1.481856	-0.077632	0.371507
N84	N	1.981856	0.422368	0.871507
H85	H	0.905817	0.056190	-0.006607
H86	H	1.405817	0.556190	0.493393
H87	H	1.072063	0.244617	-0.028743
H88	H	1.572063	0.744617	0.471257
C89	C	1.473128	-0.409802	0.184278
C90	C	1.973128	0.090198	0.684278
N91	N	1.472218	-0.443905	0.290795
N92	N	1.972218	0.056095	0.790795
H93	H	1.474189	-0.370112	-0.174769
H94	H	1.974189	0.129888	0.325231
H95	H	1.480714	-0.123472	-0.209963
H96	H	1.980714	0.376528	0.290037
C97	C	1.380701	0.174493	0.547140
C98	C	1.880701	0.674493	1.047140
N99	N	1.310538	0.218608	0.482643
N100	N	1.810538	0.718608	0.982643
H101	H	1.476774	-0.272757	-0.192414
H102	H	1.976774	0.227243	0.307586
C103	C	1.466634	-0.656441	0.219468
C104	C	1.966634	-0.156441	0.719468
N105	N	1.465727	-0.690534	0.325995
N106	N	1.965727	-0.190534	0.825995
H107	H	1.404879	0.159273	0.393242
H108	H	1.904879	0.659273	0.893242
H109	H	1.470927	-0.495379	-0.283795
H110	H	1.970927	0.004621	0.216205
C111	C	1.466680	-0.656431	-0.300224
C112	C	1.966680	-0.156431	0.199776
N113	N	1.465782	-0.690522	-0.398735
N114	N	1.965782	-0.190522	0.101265
H115	H	1.470892	-0.495395	0.165184
H116	H	1.970892	0.004605	0.665184
H117	H	1.476721	-0.272775	0.256552
H118	H	1.976721	0.227225	0.756552
H119	H	1.623319	0.021934	0.634292
H120	H	2.123319	0.521934	1.134292
