data_functionalizedCrystal
_audit_creation_method	'MofGen! by Chris Wilmer'
_symmetry_space_group_name_H-M	'P1'
_symmetry_Int_Tables_number	1
_symmetry_cell_setting	triclinic
loop_
_symmetry_equiv_pos_as_xyz
  x,y,z
_cell_length_a	19.077105
_cell_length_b	17.640280
_cell_length_c	19.077569
_cell_angle_alpha	76.074772
_cell_angle_beta	85.299277
_cell_angle_gamma	76.093206
loop_
_atom_site_label
_atom_site_type_symbol
_atom_site_fract_x
_atom_site_fract_y
_atom_site_fract_z
Zn1	Zn	1.154299	-0.349637	-0.381418
Zn2	Zn	1.173645	-0.489090	-0.239424
Zn3	Zn	1.031683	-0.349648	-0.258811
Zn4	Zn	1.058736	-0.478671	-0.354345
O5	O	1.104591	-0.416762	-0.308499
O6	O	1.256270	-0.372491	-0.365798
O7	O	1.151588	-0.474958	-0.142590
O8	O	1.028530	-0.237289	-0.294519
O9	O	1.270484	-0.474947	-0.261476
O10	O	1.118616	-0.237280	-0.384597
O11	O	1.047289	-0.372511	-0.156833
O12	O	0.935867	-0.362408	-0.268267
O13	O	1.074638	-0.457190	-0.457342
O14	O	0.955743	-0.457201	-0.338455
O15	O	1.144848	-0.362388	-0.477232
O16	O	1.177820	-0.600067	-0.235225
O17	O	1.093397	-0.592412	-0.319656
C18	C	0.920030	-0.408676	-0.302528
C19	C	0.841078	-0.405235	-0.299986
C20	C	0.814364	-0.453053	-0.335251
C21	C	0.740179	-0.449809	-0.332868
C22	C	0.692709	-0.398751	-0.295217
C23	C	0.719428	-0.350929	-0.259951
C24	C	0.793611	-0.354168	-0.262338
C25	C	0.469730	-0.383757	-0.284172
C26	C	0.395542	-0.380522	-0.281785
C27	C	0.416298	-0.479402	-0.354704
C28	C	0.490483	-0.482641	-0.357084
C29	C	0.517194	-0.434815	-0.321822
N30	N	0.616880	-0.395437	-0.292778
N31	N	0.593022	-0.438126	-0.324265
C32	C	1.140663	-0.625373	-0.272415
C33	C	1.156161	-0.714619	-0.257004
C34	C	0.987156	-0.988353	-0.425844
C35	C	1.001719	-1.072215	-0.411340
C36	C	1.089688	-1.080119	-0.323515
C37	C	1.075135	-0.996256	-0.338014
C38	C	1.023868	-0.950380	-0.389178
C39	C	1.111847	-0.958282	-0.301348
C40	C	1.097292	-0.874427	-0.315844
C41	C	1.046025	-0.828545	-0.367004
C42	C	1.009313	-0.866524	-0.403673
C43	C	1.163110	-1.004160	-0.250181
C44	C	1.199822	-0.966187	-0.213515
C45	C	1.185271	-0.882330	-0.228014
C46	C	1.134004	-0.836448	-0.279174
C47	C	1.221983	-0.844351	-0.191344
C48	C	1.207428	-0.760496	-0.205840
C49	C	1.119449	-0.752593	-0.293669
C50	C	1.289872	-0.424880	-0.314495
C51	C	1.368828	-0.428340	-0.317050
C52	C	1.110603	-0.408625	-0.493783
C53	C	1.113165	-0.405158	-0.572739
C54	C	1.068397	-0.207336	-0.344741
C55	C	1.052974	-0.118092	-0.360184
C56	C	1.077814	-0.452883	-0.599479
C57	C	1.080227	-0.449626	-0.673667
C58	C	1.117987	-0.398638	-0.721115
C59	C	1.153342	-0.350911	-0.694371
C60	C	1.150933	-0.354174	-0.620183
C61	C	1.129116	-0.383593	-0.944103
C62	C	1.131520	-0.380332	-1.018296
C63	C	1.058406	-0.479048	-0.997587
C64	C	1.055997	-0.482302	-0.923400
C65	C	1.091355	-0.434579	-0.896661
N66	N	1.120452	-0.395305	-0.796948
N67	N	1.088894	-0.437916	-0.820829
C68	C	1.098633	-0.424810	-0.123948
C69	C	1.096170	-0.428057	-0.045036
H70	H	0.356892	-0.338935	-0.251131
H71	H	1.077708	-0.715238	-0.335338
H72	H	1.241562	-1.003551	-0.171855
H73	H	0.491470	-0.344820	-0.255452
N74	N	1.015236	-0.537262	-0.872230
H75	H	0.993196	-0.566992	-0.900429
H76	H	1.049546	-0.577050	-0.835935
N77	N	1.037084	-0.507881	-0.548314
H78	H	1.071381	-0.547710	-0.512028
H79	H	0.997524	-0.475107	-0.522166
H80	H	1.179719	-0.315311	-0.598413
N81	N	0.387490	-0.530976	-0.392744
H82	H	0.409956	-0.589376	-0.372124
H83	H	0.333293	-0.521112	-0.385512
N84	N	1.194065	-0.295917	-0.745549
H85	H	1.172699	-0.238634	-0.742204
H86	H	1.246548	-0.311247	-0.732096
N87	N	1.020262	-0.530510	-1.026428
H88	H	1.027513	-0.520705	-1.080625
H89	H	1.040800	-0.588911	-1.003900
H90	H	0.971829	-1.103129	-0.441210
N91	N	0.865562	-0.508128	-0.375855
H92	H	0.837379	-0.537927	-0.397834
H93	H	0.891775	-0.475403	-0.415411
N94	N	0.668234	-0.295874	-0.219325
H95	H	0.617186	-0.301085	-0.223154
H96	H	0.681705	-0.311096	-0.166848
H97	H	0.718433	-0.488748	-0.361584
H98	H	1.157907	-0.344733	-0.922342
H99	H	0.815359	-0.315226	-0.233627
N100	N	0.541682	-0.537714	-0.397689
H101	H	0.513501	-0.567516	-0.419668
H102	H	0.567897	-0.504991	-0.437244
H103	H	1.034171	-0.760265	-0.378800
N104	N	0.931856	-0.938866	-0.481024
H105	H	0.928207	-0.879982	-0.484639
H106	H	0.947055	-0.951751	-0.529596
N107	N	1.172252	-0.325338	-1.069472
H108	H	1.224744	-0.340606	-1.056048
H109	H	1.168352	-0.330537	-1.120507
N110	N	0.954023	-0.817027	-0.458861
H111	H	0.969192	-0.829848	-0.507464
H112	H	0.905478	-0.829950	-0.443557
H113	H	1.263720	-0.881716	-0.149681
H114	H	1.131428	-1.117482	-0.281855
N115	N	1.178806	-1.094605	-0.234544
H116	H	1.196911	-1.113212	-0.280217
H117	H	1.216831	-1.117842	-0.196544
H118	H	1.237322	-0.729578	-0.175982
H119	H	1.051442	-0.488490	-0.695435
