data_functionalizedCrystal
_audit_creation_method	'MofGen! by Chris Wilmer'
_symmetry_space_group_name_H-M	'P1'
_symmetry_Int_Tables_number	1
_symmetry_cell_setting	triclinic
loop_
_symmetry_equiv_pos_as_xyz
  x,y,z
_cell_length_a	19.077105
_cell_length_b	25.639239
_cell_length_c	25.639243
_cell_angle_alpha	90.014050
_cell_angle_beta	92.307449
_cell_angle_gamma	87.734929
loop_
_atom_site_label
_atom_site_type_symbol
_atom_site_fract_x
_atom_site_fract_y
_atom_site_fract_z
Zn1	Zn	1.075838	-0.240408	0.327688
Zn2	Zn	1.075740	-0.327816	0.240249
Zn3	Zn	0.958160	-0.236881	0.236758
Zn4	Zn	0.958081	-0.324293	0.324145
O5	O	1.016955	-0.282350	0.282210
O6	O	1.174315	-0.254953	0.319033
O7	O	1.060135	-0.315752	0.166621
O8	O	0.973845	-0.164186	0.248841
O9	O	1.174243	-0.319172	0.254792
O10	O	1.060302	-0.166777	0.315647
O11	O	0.973749	-0.248943	0.164055
O12	O	0.859660	-0.245526	0.245406
O13	O	0.973710	-0.313167	0.397781
O14	O	0.859603	-0.309747	0.309609
O15	O	1.060226	-0.251537	0.400383
O16	O	1.060059	-0.400512	0.251357
O17	O	0.973615	-0.397923	0.312995
C18	C	0.834094	-0.276872	0.276745
C19	C	0.755866	-0.274541	0.274419
C20	C	0.719102	-0.306933	0.306701
C21	C	0.645598	-0.304736	0.304519
C22	C	0.608859	-0.270149	0.270051
C23	C	0.645628	-0.237754	0.237767
C24	C	0.719130	-0.239949	0.239953
C25	C	0.389030	-0.259992	0.259937
C26	C	0.315522	-0.257801	0.257753
C27	C	0.315497	-0.324782	0.324505
C28	C	0.389002	-0.326976	0.326686
C29	C	0.425764	-0.294579	0.294404
N30	N	0.533726	-0.267904	0.267818
N31	N	0.500896	-0.296822	0.296640
C32	C	1.016837	-0.418189	0.282183
C33	C	1.016850	-0.476303	0.282190
C34	C	1.062084	-0.838008	0.250176
C35	C	1.062111	-0.892613	0.250183
O36	O	1.100447	-0.921987	0.222933
N37	N	1.017079	-0.918592	0.282248
C38	C	0.972021	-0.889963	0.314312
O39	O	0.933721	-0.917075	0.341586
C40	C	0.971998	-0.835359	0.314306
C41	C	1.017028	-0.809383	0.282235
C42	C	1.107111	-0.812032	0.218108
C43	C	1.107082	-0.757430	0.218099
C44	C	1.062027	-0.728805	0.250159
C45	C	1.017000	-0.754782	0.282227
C46	C	0.926945	-0.806732	0.346372
C47	C	0.926926	-0.752124	0.346364
C48	C	0.971956	-0.726148	0.314293
C49	C	0.971916	-0.671555	0.314278
N50	N	1.016948	-0.645576	0.282213
C51	C	1.062004	-0.674201	0.250153
C52	C	0.972074	-1.004636	0.314321
C53	C	0.972094	-1.059239	0.314324
C54	C	1.062184	-1.061885	0.250197
C55	C	1.062161	-1.007281	0.250191
C56	C	1.017107	-0.978657	0.282256
C57	C	1.061940	-0.559534	0.250138
C58	C	1.061906	-0.504928	0.250131
C59	C	0.971818	-0.502287	0.314260
C60	C	0.971850	-0.556888	0.314265
C61	C	1.016916	-0.585511	0.282203
O62	O	0.933602	-0.642147	0.341516
O63	O	1.100304	-0.647083	0.222888
C64	C	1.200530	-0.287849	0.287697
C65	C	1.278758	-0.290193	0.290035
C66	C	1.016970	-0.282352	0.418584
C67	C	1.016976	-0.282353	0.476698
C68	C	1.017093	-0.145981	0.282250
C69	C	1.017152	-0.087868	0.282267
C70	C	1.061933	-0.317143	0.729219
C71	C	1.061935	-0.317144	0.674614
O72	O	1.100167	-0.346738	0.647507
N73	N	1.016963	-0.282358	0.645971
C74	C	0.971981	-0.247573	0.671935
O75	O	0.933728	-0.217985	0.642558
C76	C	0.971976	-0.247575	0.726538
C77	C	1.016956	-0.282360	0.755179
C78	C	1.106909	-0.351926	0.757859
C79	C	1.106908	-0.351924	0.812460
C80	C	1.061931	-0.317140	0.838420
C81	C	1.016955	-0.282358	0.809779
C82	C	0.926991	-0.212792	0.752501
C83	C	0.926989	-0.212797	0.807108
C84	C	0.971969	-0.247582	0.835748
C85	C	0.971977	-0.247572	0.890340
N86	N	1.016949	-0.282358	0.918983
C87	C	1.061926	-0.317142	0.893023
C88	C	0.971994	-0.247572	0.557265
C89	C	0.972002	-0.247567	0.502663
C90	C	1.061955	-0.317139	0.505346
C91	C	1.061950	-0.317141	0.559949
C92	C	1.016966	-0.282358	0.585908
C93	C	1.061920	-0.317135	1.007688
C94	C	1.061917	-0.317129	1.062293
C95	C	0.971962	-0.247559	1.059605
C96	C	0.971967	-0.247563	1.005005
C97	C	1.016949	-0.282356	0.979047
O98	O	0.933762	-0.217995	0.917483
O99	O	1.100165	-0.346729	0.922406
C100	C	1.016938	-0.282356	1.146367
C101	C	1.016940	-0.282345	1.088253
H102	H	0.418953	-0.233616	0.233648
H103	H	0.418910	-0.355141	0.354752
C104	C	0.877505	-0.174537	0.835662
H105	H	0.883937	-0.179519	0.872284
H106	H	0.887835	-0.139716	0.827030
H107	H	0.830209	-0.180780	0.825291
H108	H	0.615709	-0.209591	0.209705
C109	C	0.922556	-1.087807	0.349599
H110	H	0.895725	-1.062933	0.368692
H111	H	0.891919	-1.108224	0.328671
H112	H	0.949471	-1.109880	0.373207
H113	H	1.098548	-0.345455	1.085610
H114	H	0.935185	-0.578039	0.340382
C115	C	0.275107	-0.219759	0.219833
H116	H	0.226067	-0.223100	0.223150
H117	H	0.287176	-0.185000	0.227903
H118	H	0.287138	-0.227721	0.185047
H119	H	0.749063	-0.213569	0.213668
H120	H	1.098575	-0.483780	0.224013
C121	C	1.156624	-0.728863	0.182827
H122	H	1.183463	-0.753738	0.163742
H123	H	1.129724	-0.706784	0.159220
H124	H	1.187265	-0.708452	0.203765
H125	H	1.098639	-0.582833	0.224031
C126	C	1.156672	-0.843511	0.182836
H127	H	1.183476	-0.820212	0.163737
H128	H	1.187333	-0.865702	0.203765
H129	H	1.129775	-0.864031	0.159232
C130	C	0.922531	-0.209300	0.471162
H131	H	0.928973	-0.214276	0.434923
H132	H	0.875236	-0.215534	0.478694
H133	H	0.932875	-0.174480	0.480431
C134	C	0.922264	-0.470793	0.349525
H135	H	0.928707	-0.434553	0.344929
H136	H	0.874985	-0.478362	0.340440
H137	H	0.932545	-0.480027	0.384971
H138	H	1.098577	-0.345463	0.484199
H139	H	0.935380	-0.981332	0.340431
H140	H	0.285558	-0.351158	0.350788
C141	C	1.111699	-0.978712	0.214918
H142	H	1.138536	-1.003585	0.195829
H143	H	1.084795	-0.956632	0.191314
H144	H	1.142342	-0.958301	0.235854
H145	H	1.098873	-1.085201	0.224094
H146	H	1.143535	-0.380253	0.736728
C147	C	0.877416	-0.835294	0.381654
H148	H	0.850591	-0.810419	0.400749
H149	H	0.846773	-0.855711	0.360731
H150	H	0.904334	-0.857368	0.405261
C151	C	0.877365	-0.720641	0.381637
H152	H	0.850551	-0.743935	0.400733
H153	H	0.904256	-0.700115	0.405234
H154	H	0.846702	-0.698455	0.360699
C155	C	1.111401	-0.355404	0.979142
H156	H	1.138188	-0.376113	1.004026
H157	H	1.084462	-0.377382	0.957029
H158	H	1.142094	-0.336322	0.958768
C159	C	1.156375	-0.390195	0.843957
H160	H	1.183152	-0.410913	0.820669
H161	H	1.187066	-0.371124	0.866187
H162	H	1.129419	-0.412171	0.864439
C163	C	1.111425	-0.355406	0.591449
H164	H	1.138208	-0.376121	0.568163
H165	H	1.142110	-0.336328	0.613677
H166	H	1.084475	-0.377385	0.611932
H167	H	0.935364	-0.219242	0.578397
H168	H	0.890362	-0.184468	0.729191
H169	H	0.935350	-0.219232	0.981684
C170	C	0.922488	-0.209300	1.088166
H171	H	0.895701	-0.188580	1.063291
H172	H	0.891806	-0.228385	1.108542
H173	H	0.949437	-0.187324	1.110280
C174	C	0.759512	-0.344981	0.344612
H175	H	0.808553	-0.341654	0.341287
H176	H	0.747488	-0.337029	0.379399
H177	H	0.747430	-0.379738	0.336531
C178	C	0.605160	-0.340399	0.339997
H179	H	0.637568	-0.361325	0.360823
H180	H	0.576492	-0.319609	0.361974
H181	H	0.576482	-0.362282	0.319070
