data_functionalizedCrystal
_audit_creation_method	'MofGen! by Chris Wilmer'
_symmetry_space_group_name_H-M	'P1'
_symmetry_Int_Tables_number	1
_symmetry_cell_setting	triclinic
loop_
_symmetry_equiv_pos_as_xyz
  x,y,z
_cell_length_a	13.033293
_cell_length_b	15.297510
_cell_length_c	15.299447
_cell_angle_alpha	91.595384
_cell_angle_beta	105.446818
_cell_angle_gamma	72.046559
loop_
_atom_site_label
_atom_site_type_symbol
_atom_site_fract_x
_atom_site_fract_y
_atom_site_fract_z
Zn1	Zn	1.730384	0.047022	0.708308
Zn2	Zn	1.668861	0.226545	0.581742
Zn3	Zn	1.511803	0.099687	0.542561
Zn4	Zn	1.522380	0.219424	0.715241
O5	O	1.608357	0.148169	0.636963
O6	O	1.875002	0.051776	0.705015
O7	O	1.617853	0.234737	0.451309
O8	O	1.562119	-0.032541	0.545249
O9	O	1.829801	0.183670	0.612028
O10	O	1.722709	-0.071234	0.667023
O11	O	1.502464	0.141535	0.422523
O12	O	1.360427	0.134631	0.551971
O13	O	1.580146	0.171534	0.839557
O14	O	1.368198	0.222601	0.678838
O15	O	1.732965	0.044871	0.834464
O16	O	1.628109	0.350842	0.618750
O17	O	1.520491	0.345610	0.716831
C18	C	1.324699	0.183558	0.611906
C19	C	1.203350	0.198715	0.601211
C20	C	1.171619	0.140281	0.642548
C21	C	1.046199	0.155945	0.631496
C22	C	1.568806	0.380692	0.672817
C23	C	1.551993	0.480148	0.688194
C24	C	1.729004	0.771206	0.527453
C25	C	1.744799	0.677763	0.513001
C26	C	1.696599	0.628355	0.556798
C27	C	1.632601	0.672398	0.615049
C28	C	1.616797	0.765852	0.629497
C29	C	1.584392	0.623001	0.658842
C30	C	1.520394	0.667044	0.717094
C31	C	1.504594	0.760488	0.731540
C32	C	1.552793	0.809897	0.687743
C33	C	1.600196	0.529547	0.644394
C34	C	1.487989	0.524193	0.746439
C35	C	1.472194	0.617635	0.760891
C36	C	1.893123	0.112643	0.662119
C37	C	2.014473	0.097503	0.672839
C38	C	1.648089	0.914730	0.601001
C39	C	1.665000	0.815251	0.585698
C40	C	1.664599	0.101533	0.870390
C41	C	1.688565	0.081660	0.969863
C42	C	1.552408	0.194552	0.404440
C43	C	1.528696	0.214146	0.304947
C44	C	1.437866	0.289429	1.260869
C45	C	1.415339	0.308098	1.167407
C46	C	1.483643	0.251490	1.118017
C47	C	1.574480	0.176210	1.162097
C48	C	1.597005	0.157535	1.255566
C49	C	1.642782	0.119596	1.112714
C50	C	1.733618	0.044316	1.156794
C51	C	1.756139	0.025645	1.250254
C52	C	1.687834	0.082253	1.299644
C53	C	1.620257	0.138271	1.019245
C54	C	1.779395	0.006377	1.013942
C55	C	1.801923	-0.012292	1.107403
H56	H	1.080155	0.035871	0.716410
F57	F	1.257470	0.059730	0.699500
H58	H	1.341387	0.369397	1.131526
H59	H	1.875882	-0.073586	1.143306
F60	F	1.780291	0.823795	0.480846
F61	F	1.365177	0.349661	1.313437
H62	H	1.137664	0.260338	0.557636
F63	F	1.668306	0.482683	0.582401
H64	H	1.546291	0.199560	0.983363
H65	H	1.420086	0.653509	0.808319
H66	H	1.452467	0.796349	0.778960
H67	H	1.706175	0.067059	1.375749
H68	H	1.830098	-0.035658	1.286139
F69	F	1.852098	-0.053870	0.961382
H70	H	1.539940	0.885985	0.699509
H71	H	1.709462	0.552270	0.545027
H72	H	1.796905	0.641907	0.465572
H73	H	1.465297	0.266696	1.041917
F74	F	0.960350	0.236495	0.574532
F75	F	1.436681	0.471615	0.793049
