data_functionalizedCrystal
_audit_creation_method	'MofGen! by Chris Wilmer'
_symmetry_space_group_name_H-M	'P1'
_symmetry_Int_Tables_number	1
_symmetry_cell_setting	triclinic
loop_
_symmetry_equiv_pos_as_xyz
  x,y,z
_cell_length_a	12.645331
_cell_length_b	25.639239
_cell_length_c	12.645323
_cell_angle_alpha	89.968126
_cell_angle_beta	89.984262
_cell_angle_gamma	90.037922
loop_
_atom_site_label
_atom_site_type_symbol
_atom_site_fract_x
_atom_site_fract_y
_atom_site_fract_z
Zn1	Zn	1.620577	-0.208157	-0.599198
Zn2	Zn	2.120577	0.291843	-0.099198
Zn3	Zn	1.620393	-0.295596	-0.421917
Zn4	Zn	2.120393	0.204404	0.078083
Zn5	Zn	1.443291	-0.208175	-0.421964
Zn6	Zn	1.943291	0.291825	0.078036
Zn7	Zn	1.443208	-0.295562	-0.599154
Zn8	Zn	1.943208	0.204438	-0.099154
O9	O	1.531867	-0.251873	-0.510558
O10	O	2.031867	0.248127	-0.010558
O11	O	1.768899	-0.219763	-0.575680
O12	O	2.268899	0.280237	-0.075680
O13	O	1.596858	-0.284021	-0.273576
O14	O	2.096858	0.215979	0.226424
O15	O	1.466920	-0.135008	-0.445513
O16	O	1.966920	0.364992	0.054487
O17	O	1.768765	-0.284004	-0.445432
O18	O	2.268765	0.215996	0.054568
O19	O	1.597171	-0.134995	-0.575726
O20	O	2.097171	0.365005	-0.075726
O21	O	1.466742	-0.219794	-0.273611
O22	O	1.966742	0.280206	0.226389
O23	O	1.294933	-0.219761	-0.445470
O24	O	1.794933	0.280239	0.054530
O25	O	1.466778	-0.283946	-0.747507
O26	O	1.966778	0.216054	-0.247507
O27	O	1.294872	-0.283964	-0.575650
O28	O	1.794872	0.216036	-0.075650
O29	O	1.597090	-0.219730	-0.747540
O30	O	2.097090	0.280270	-0.247540
O31	O	1.596778	-0.368757	-0.445389
O32	O	2.096778	0.131243	0.054611
O33	O	1.466600	-0.368732	-0.575604
O34	O	1.966600	0.131268	-0.075604
C35	C	1.256437	-0.251861	-0.510561
C36	C	1.756437	0.248139	-0.010561
C37	C	1.138607	-0.251869	-0.510587
C38	C	1.638607	0.248131	-0.010587
C39	C	0.971040	-0.292480	-0.592057
C40	C	1.471040	0.207520	-0.092057
C41	C	1.093600	-0.292349	-0.592397
C42	C	1.593600	0.207651	-0.092397
C43	C	1.094170	-0.196800	-0.541122
C44	C	1.594170	0.303200	-0.041122
C45	C	0.971572	-0.197048	-0.541696
C46	C	1.471572	0.302952	-0.041696
C47	C	0.971351	-0.265882	-0.398324
C48	C	1.471351	0.234118	0.101676
C49	C	1.093956	-0.267086	-0.398930
C50	C	1.593956	0.232914	0.101070
C51	C	1.531689	-0.387715	-0.510510
C52	C	2.031689	0.112285	-0.010510
C53	C	1.531710	-0.445829	-0.510524
C54	C	2.031710	0.054171	-0.010524
C55	C	1.599827	-0.806193	-0.442871
C56	C	2.099827	-0.306193	0.057129
C57	C	1.599868	-0.860797	-0.442885
C58	C	2.099868	-0.360797	0.057115
O59	O	1.657600	-0.889034	-0.385310
O60	O	2.157600	-0.389034	0.114690
N61	N	1.532053	-0.888112	-0.510629
N62	N	2.032053	-0.388112	-0.010629
C63	C	1.464201	-0.860819	-0.578370
C64	C	1.964201	-0.360819	-0.078370
O65	O	1.406523	-0.889067	-0.635993
O66	O	1.906523	-0.389067	-0.135993
C67	C	1.464166	-0.806216	-0.578360
C68	C	1.964166	-0.306216	-0.078360
C69	C	1.531977	-0.778904	-0.510605
C70	C	2.031977	-0.278904	-0.010605
C71	C	1.667634	-0.778881	-0.375122
C72	C	2.167634	-0.278881	0.124878
C73	C	1.667592	-0.724280	-0.375106
C74	C	2.167592	-0.224280	0.124894
C75	C	1.599742	-0.696992	-0.442840
C76	C	2.099742	-0.196992	0.057160
C77	C	1.531935	-0.724304	-0.510589
C78	C	2.031935	-0.224304	-0.010589
C79	C	1.396319	-0.778925	-0.646106
C80	C	1.896319	-0.278925	-0.146106
C81	C	1.396290	-0.724318	-0.646091
C82	C	1.896290	-0.224318	-0.146091
C83	C	1.464102	-0.697006	-0.578336
C84	C	1.964102	-0.197006	-0.078336
C85	C	1.464042	-0.642415	-0.578308
C86	C	1.964042	-0.142415	-0.078308
N87	N	1.531857	-0.615100	-0.510564
N88	N	2.031857	-0.115100	-0.010564
C89	C	1.599707	-0.642388	-0.442831
C90	C	2.099707	-0.142388	0.057169
C91	C	1.464281	-0.975490	-0.578386
C92	C	1.964281	-0.475490	-0.078386
C93	C	1.464309	-1.030092	-0.578391
C94	C	1.964309	-0.530092	-0.078391
C95	C	1.599979	-1.030066	-0.442907
C96	C	2.099979	-0.530066	0.057093
C97	C	1.599944	-0.975463	-0.442898
C98	C	2.099944	-0.475463	0.057102
C99	C	1.532095	-0.948175	-0.510643
C100	C	2.032095	-0.448175	-0.010643
C101	C	1.599611	-0.527723	-0.442803
C102	C	2.099611	-0.027723	0.057197
C103	C	1.599559	-0.473118	-0.442790
C104	C	2.099559	0.026882	0.057210
C105	C	1.463894	-0.473149	-0.578278
C106	C	1.963894	0.026851	-0.078278
C107	C	1.463942	-0.527750	-0.578287
C108	C	1.963942	-0.027750	-0.078287
C109	C	1.531809	-0.555035	-0.510546
C110	C	2.031809	-0.055035	-0.010546
O111	O	1.406343	-0.614143	-0.635857
O112	O	1.906343	-0.114143	-0.135857
O113	O	1.657384	-0.614135	-0.385227
O114	O	2.157384	-0.114135	0.114773
C115	C	1.808372	-0.251885	-0.510556
C116	C	2.308372	0.248115	-0.010556
C117	C	1.926202	-0.251890	-0.510555
C118	C	2.426202	0.248110	-0.010555
C119	C	1.531945	-0.251832	-0.787064
C120	C	2.031945	0.248168	-0.287064
C121	C	1.531979	-0.251815	-0.904894
C122	C	2.031979	0.248185	-0.404894
C123	C	1.532075	-0.115500	-0.510630
C124	C	2.032075	0.384500	-0.010630
C125	C	1.532164	-0.057386	-0.510661
C126	C	2.032164	0.442614	-0.010661
C127	C	1.449747	-0.292023	-1.072437
C128	C	1.949747	0.207977	-0.572437
C129	C	1.449962	-0.292222	-0.949877
C130	C	1.949962	0.207778	-0.449877
C131	C	1.643667	-0.266769	-0.949396
C132	C	2.143667	0.233231	-0.449396
C133	C	1.643216	-0.267021	-1.071995
C134	C	2.143216	0.232979	-0.571995
C135	C	1.503578	-0.196429	-1.072109
C136	C	2.003578	0.303571	-0.572109
C137	C	1.501086	-0.196760	-0.949503
C138	C	2.001086	0.303240	-0.449503
C139	C	1.531850	-0.251875	-0.235129
C140	C	2.031850	0.248125	0.264871
C141	C	1.532023	-0.251745	-0.117299
C142	C	2.032023	0.248255	0.382701
H143	H	0.941914	-0.165722	-0.485057
H144	H	1.441914	0.334278	0.014943
H145	H	1.654780	-0.450882	-0.387612
H146	H	2.154780	0.049118	0.112388
H147	H	0.941518	-0.333452	-0.573129
H148	H	1.441518	0.166548	-0.073129
F149	F	1.324077	-0.695280	-0.718199
F150	F	1.824077	-0.195280	-0.218199
F151	F	0.930882	-0.317469	-0.362042
F152	F	1.430882	0.182531	0.137958
H153	H	1.124594	-0.239667	-0.334946
H154	H	1.624594	0.260333	0.165054
H155	H	1.468736	-0.333231	-0.920551
H156	H	1.968736	0.166769	-0.420551
F157	F	1.391750	-0.556818	-0.650380
F158	F	1.891750	-0.056818	-0.150380
H159	H	1.341094	-0.801153	-0.701275
H160	H	1.841094	-0.301153	-0.201275
F161	F	1.675731	-0.319070	-0.909269
F162	F	2.175731	0.180930	-0.409269
F163	F	1.398981	-0.178612	-1.112516
F164	F	1.898981	0.321388	-0.612516
H165	H	1.409021	-0.953275	-0.633549
H166	H	1.909021	-0.453275	-0.133549
H167	H	1.468338	-0.332776	-1.103244
H168	H	1.968338	0.167224	-0.603244
F169	F	1.134338	-0.181004	-0.647201
F170	F	1.634338	0.318996	-0.147201
F171	F	1.671843	-0.556755	-0.370705
F172	F	2.171843	-0.056755	0.129295
H173	H	1.408648	-0.450922	-0.633423
H174	H	1.908648	0.049078	-0.133423
H175	H	1.722813	-0.702046	-0.319937
H176	H	2.222813	-0.202046	0.180063
H177	H	1.367140	-0.282864	-0.919788
H178	H	1.867140	0.217136	-0.419788
F179	F	1.132280	-0.156195	-0.465962
F180	F	1.632280	0.343805	0.034038
H181	H	1.366679	-0.282755	-1.101923
H182	H	1.866679	0.217245	-0.601923
H183	H	0.942356	-0.236317	-0.337599
H184	H	1.442356	0.263683	0.162401
F185	F	1.131914	-0.320056	-0.368833
F186	F	1.631914	0.179944	0.131167
F187	F	1.739858	-0.807915	-0.303025
F188	F	2.239858	-0.307915	0.196975
F189	F	0.930785	-0.280542	-0.700116
F190	F	1.430785	0.219458	-0.200116
H191	H	1.655230	-1.052295	-0.387758
H192	H	2.155230	-0.552295	0.112242
F193	F	1.581905	-0.157205	-1.110030
F194	F	2.081905	0.342795	-0.610030
H195	H	1.667331	-0.307459	-1.100593
H196	H	2.167331	0.192541	-0.600593
H197	H	1.655163	-0.953229	-0.387726
H198	H	2.155163	-0.453229	0.112274
H199	H	1.706594	-0.238958	-1.101672
H200	H	2.206594	0.261042	-0.601672
H201	H	1.409080	-1.052325	-0.633555
H202	H	1.909080	-0.552325	-0.133555
H203	H	1.122956	-0.283089	-0.675556
H204	H	1.622956	0.216911	-0.175556
F205	F	1.725942	-0.229638	-0.911317
F206	F	2.225942	0.270362	-0.411317
F207	F	1.393649	-0.182021	-0.911497
F208	F	1.893649	0.317979	-0.411497
F209	F	1.573703	-0.155462	-0.909493
F210	F	2.073703	0.344538	-0.409493
H211	H	1.123642	-0.333185	-0.573259
H212	H	1.623642	0.166815	-0.073259
F213	F	0.934231	-0.181537	-0.648936
F214	F	1.434231	0.318463	-0.148936
