data_functionalizedCrystal
_audit_creation_method	'MofGen! by Chris Wilmer'
_symmetry_space_group_name_H-M	'P1'
_symmetry_Int_Tables_number	1
_symmetry_cell_setting	triclinic
loop_
_symmetry_equiv_pos_as_xyz
  x,y,z
_cell_length_a	10.723022
_cell_length_b	10.723023
_cell_length_c	9.198806
_cell_angle_alpha	89.997827
_cell_angle_beta	89.996352
_cell_angle_gamma	84.467387
loop_
_atom_site_label
_atom_site_type_symbol
_atom_site_fract_x
_atom_site_fract_y
_atom_site_fract_z
O1	O	1.657188	0.175015	-0.120880
O2	O	2.157188	0.675015	0.379120
O3	O	1.294036	0.191771	-0.120884
O4	O	1.794036	0.691771	0.379116
O5	O	1.483989	0.001817	-0.120876
O6	O	1.983989	0.501817	0.379124
O7	O	1.467235	0.364969	-0.120888
O8	O	1.967235	0.864969	0.379112
O9	O	1.483974	0.001816	0.120909
O10	O	1.983974	0.501816	0.620909
O11	O	1.294021	0.191770	0.120901
O12	O	1.794021	0.691770	0.620901
O13	O	1.657173	0.175015	0.120905
O14	O	2.157173	0.675015	0.620905
Cu15	Cu	1.475596	0.183392	0.142980
Cu16	Cu	1.975596	0.683392	0.642980
Cu17	Cu	1.475613	0.183393	-0.142959
Cu18	Cu	1.975613	0.683393	0.357041
O19	O	1.467220	0.364969	0.120897
O20	O	1.967220	0.864969	0.620897
C21	C	1.247529	0.190551	0.000008
C22	C	1.747529	0.690551	0.500008
C23	C	1.108974	0.186904	0.000006
C24	C	1.608974	0.686904	0.500006
C25	C	1.482763	-0.044683	0.000015
C26	C	1.982763	0.455317	0.500015
C27	C	1.479115	-0.183238	0.000010
C28	C	1.979115	0.316762	0.500010
C29	C	1.060414	0.077365	0.000009
C30	C	1.560414	0.577365	0.500009
C31	C	0.917211	0.073593	0.000007
C32	C	1.417211	0.573593	0.500007
C33	C	1.477497	-0.245003	-0.125243
C34	C	1.977497	0.254997	0.374757
C35	C	1.473728	-0.388206	-0.125251
C36	C	1.973728	0.111794	0.374749
C37	C	1.703681	0.176234	0.000010
C38	C	2.203681	0.676234	0.500010
C39	C	1.842235	0.179881	0.000003
C40	C	2.342235	0.679881	0.500003
C41	C	1.468446	0.411469	0.000003
C42	C	1.968446	0.911469	0.500003
C43	C	1.472094	0.550023	-0.000002
C44	C	1.972094	1.050023	0.499998
N45	N	1.475592	0.183391	0.344094
N46	N	1.975592	0.683391	0.844094
N47	N	1.475627	0.183384	-0.344073
N48	N	1.975627	0.683384	0.155927
C49	C	1.555348	0.103283	0.416295
C50	C	2.055348	0.603283	0.916295
C51	C	1.555367	0.103279	0.583707
C52	C	2.055367	0.603279	1.083707
H53	H	1.124856	-0.013624	0.000005
H54	H	1.624856	0.486376	0.500005
O55	O	1.479350	-0.174623	-0.267286
O56	O	1.979350	0.325377	0.232714
H57	H	1.477581	-0.241650	-0.359040
H58	H	1.977581	0.258350	0.140960
H59	H	0.875399	-0.020195	-0.000027
H60	H	1.375399	0.479805	0.499973
O61	O	1.385184	0.274261	0.426378
O62	O	1.885184	0.774261	0.926378
H63	H	1.326761	0.332947	0.348024
H64	H	1.826761	0.832947	0.848024
O65	O	1.473950	-0.379641	0.142059
O66	O	1.973950	0.120359	0.642059
H67	H	1.388391	-0.394173	0.205305
H68	H	1.888391	0.105827	0.705305
O69	O	1.471858	-0.458556	-0.267302
O70	O	1.971858	0.041444	0.232698
H71	H	1.473627	-0.391516	-0.359048
H72	H	1.973627	0.108484	0.140952
O73	O	1.645821	0.012422	0.665934
O74	O	2.145821	0.512422	1.165934
H75	H	1.631636	0.026670	0.784521
H76	H	2.131636	0.526670	1.284521
O77	O	1.385157	0.274221	0.573693
O78	O	1.885157	0.774221	1.073693
H79	H	1.438426	0.335129	0.504315
H80	H	1.938426	0.835129	1.004315
O81	O	1.023627	0.307439	-0.000002
O82	O	1.523627	0.807439	0.499998
H83	H	1.041875	0.362581	0.098540
H84	H	1.541875	0.862581	0.598540
H85	H	1.623612	0.034698	0.354171
H86	H	2.123612	0.534698	0.854171
H87	H	0.884038	0.273673	0.000008
H88	H	1.384038	0.773673	0.500008
O89	O	1.477271	-0.253618	0.142053
O90	O	1.977271	0.246382	0.642053
H91	H	1.390811	-0.302556	0.148267
H92	H	1.890811	0.197444	0.648267
