data_functionalizedCrystal
_audit_creation_method	'MofGen! by Chris Wilmer'
_symmetry_space_group_name_H-M	'P1'
_symmetry_Int_Tables_number	1
_symmetry_cell_setting	triclinic
loop_
_symmetry_equiv_pos_as_xyz
  x,y,z
_cell_length_a	10.654558
_cell_length_b	10.654551
_cell_length_c	9.130313
_cell_angle_alpha	90.000169
_cell_angle_beta	90.003106
_cell_angle_gamma	84.486839
loop_
_atom_site_label
_atom_site_type_symbol
_atom_site_fract_x
_atom_site_fract_y
_atom_site_fract_z
O1	O	1.667835	0.176445	0.121769
O2	O	1.302358	0.193241	0.121775
O3	O	1.493498	0.002104	0.121773
O4	O	1.476694	0.367582	0.121772
O5	O	1.493484	0.002104	-0.121826
O6	O	1.302343	0.193241	-0.121823
O7	O	1.667820	0.176445	-0.121830
Cu8	Cu	1.485080	0.184843	-0.144069
Cu9	Cu	1.485097	0.184843	0.144015
O10	O	1.476679	0.367582	-0.121827
C11	C	1.255553	0.192005	-0.000023
C12	C	1.116110	0.188309	-0.000020
C13	C	0.919579	0.183114	0.132766
C14	C	1.050602	0.186575	0.132767
C15	C	1.050590	0.186568	-0.132818
C16	C	0.919571	0.183098	-0.132818
C17	C	0.854076	0.181393	0.265562
C18	C	0.919588	0.183131	0.398360
C19	C	1.050610	0.186592	0.398361
C20	C	1.116122	0.188316	0.265565
C21	C	1.492257	-0.044694	-0.000023
C22	C	1.488565	-0.184137	-0.000013
C23	C	1.486840	-0.249649	0.132770
C24	C	1.483360	-0.380670	0.132763
C25	C	1.483334	-0.380655	-0.132822
C26	C	1.486805	-0.249636	-0.132814
C27	C	1.488600	-0.184150	0.265570
C28	C	1.486877	-0.249663	0.398364
C29	C	1.483397	-0.380683	0.398357
C30	C	1.481639	-0.446191	0.265557
C31	C	1.714625	0.177681	-0.000028
C32	C	1.854068	0.181377	-0.000021
C33	C	1.477921	0.414380	-0.000028
C34	C	1.481613	0.553823	-0.000028
N35	N	1.485077	0.184842	-0.346692
C36	C	1.561909	0.261727	-0.423340
C37	C	1.561929	0.261720	-0.576677
C38	C	1.408276	0.107941	-0.576704
C39	C	1.408263	0.107942	-0.423370
N40	N	1.485110	0.184834	0.346637
H41	H	0.866227	0.181707	-0.240945
O42	O	1.481463	-0.444402	-0.261723
C43	C	1.368883	-0.578978	-0.415900
C44	C	1.370853	-0.506871	-0.269850
H45	H	1.279451	-0.629481	-0.422531
H46	H	1.454933	-0.651121	-0.422569
H47	H	1.370772	-0.509629	-0.510779
H48	H	1.368922	-0.576125	-0.174887
H49	H	1.284812	-0.434711	-0.263308
H50	H	1.345735	0.045333	-0.639154
H51	H	1.624494	0.324325	-0.639077
H52	H	1.491437	-0.077467	0.265590
O53	O	1.114367	0.188448	0.527260
C54	C	1.248956	0.301020	0.681429
C55	C	1.176840	0.299055	0.535380
H56	H	1.299463	0.390449	0.688056
H57	H	1.321097	0.214968	0.688101
H58	H	1.179613	0.299132	0.776309
H59	H	1.246088	0.300985	0.440417
H60	H	1.104682	0.385099	0.528836
O61	O	1.333507	0.033218	-0.349131
C62	C	1.181163	-0.119368	-0.365326
C63	C	1.265730	-0.034784	-0.449583
H64	H	1.126363	-0.174389	-0.446504
H65	H	1.112249	-0.058302	-0.293588
H66	H	1.242347	-0.188099	-0.293490
H67	H	1.204647	0.033961	-0.521498
H68	H	1.334651	-0.095928	-0.521229
H69	H	1.624456	0.324344	-0.360913
O70	O	1.488649	-0.185882	-0.261711
C71	C	1.601184	-0.051295	-0.415907
C72	C	1.599253	-0.123407	-0.269858
H73	H	1.690611	-0.000787	-0.422555
H74	H	1.515129	0.020844	-0.422558
H75	H	1.599276	-0.120641	-0.510787
H76	H	1.601203	-0.054156	-0.174895
H77	H	1.685299	-0.195564	-0.263335
H78	H	0.747391	0.178578	0.265576
H79	H	1.488296	-0.196316	0.506485
H80	H	1.222810	0.191128	0.265576
H81	H	1.103940	0.187974	-0.240934
H82	H	1.481981	-0.434018	0.506484
H83	H	0.866241	0.181719	0.506478
H84	H	1.478787	-0.552875	0.265562
