data_functionalizedCrystal
_audit_creation_method	'MofGen! by Chris Wilmer'
_symmetry_space_group_name_H-M	'P1'
_symmetry_Int_Tables_number	1
_symmetry_cell_setting	triclinic
loop_
_symmetry_equiv_pos_as_xyz
  x,y,z
_cell_length_a	12.759401
_cell_length_b	21.295417
_cell_length_c	12.759393
_cell_angle_alpha	90.039170
_cell_angle_beta	90.018567
_cell_angle_gamma	90.029551
loop_
_atom_site_label
_atom_site_type_symbol
_atom_site_fract_x
_atom_site_fract_y
_atom_site_fract_z
Zn1	Zn	1.606140	-0.250588	0.593928
Zn2	Zn	1.605986	-0.355872	0.418225
Zn3	Zn	1.430442	-0.250619	0.418267
Zn4	Zn	1.430382	-0.355822	0.593866
O5	O	1.518237	-0.303225	0.506071
O6	O	1.753141	-0.264563	0.570629
O7	O	1.582660	-0.341944	0.271209
O8	O	1.453838	-0.162526	0.441612
O9	O	1.753027	-0.341914	0.441540
O10	O	1.582923	-0.162503	0.570670
O11	O	1.453689	-0.264615	0.271240
O12	O	1.283413	-0.264566	0.441552
O13	O	1.453736	-0.341828	0.740895
O14	O	1.283369	-0.341858	0.570564
O15	O	1.582865	-0.264514	0.740941
O16	O	1.582602	-0.443955	0.441480
O17	O	1.453587	-0.443918	0.570523
C18	C	1.245270	-0.303210	0.506057
C19	C	1.128493	-0.303219	0.506075
C20	C	1.073683	-0.263018	0.573396
C21	C	0.963959	-0.263030	0.573402
C22	C	0.963865	-0.343450	0.438765
C23	C	1.073587	-0.343434	0.438754
C24	C	1.128590	-0.222803	0.640717
C25	C	1.073780	-0.182600	0.708044
C26	C	0.964056	-0.182612	0.708050
C27	C	0.909142	-0.222828	0.640730
C28	C	1.518100	-0.466777	0.506013
C29	C	1.518137	-0.536745	0.506023
C30	C	1.585375	-0.569610	0.438900
C31	C	1.585424	-0.635353	0.438923
C32	C	1.518217	-0.668227	0.506060
C33	C	1.450974	-0.635355	0.573196
C34	C	1.450934	-0.569613	0.573178
N35	N	1.426309	-0.771492	0.514064
N36	N	1.426350	-0.833943	0.514075
C37	C	1.518334	-0.866302	0.506120
N38	N	1.610278	-0.833850	0.498132
N39	N	1.610236	-0.771393	0.498116
C40	C	1.518253	-0.739513	0.506087
C41	C	1.585631	-0.970453	0.439018
C42	C	1.585682	-1.036196	0.439049
C43	C	1.451223	-1.036197	0.573317
C44	C	1.451181	-0.970455	0.573291
C45	C	1.518384	-0.937586	0.506136
C46	C	1.792271	-0.303241	0.506087
C47	C	1.909047	-0.303247	0.506093
C48	C	1.518311	-0.303162	0.780105
C49	C	1.518342	-0.303135	0.896881
C50	C	1.518404	-0.139035	0.506153
C51	C	1.518475	-0.069067	0.506187
C52	C	1.518225	-0.303243	0.233104
C53	C	1.518397	-0.303093	0.116328
C54	C	1.585589	-0.262873	0.951769
C55	C	1.585614	-0.262850	1.061493
C56	C	1.451143	-0.343356	1.061433
C57	C	1.451113	-0.343375	0.951711
C58	C	1.652818	-0.222633	0.896940
C59	C	1.720071	-0.182368	0.951827
C60	C	1.720096	-0.182345	1.061552
C61	C	1.652868	-0.222587	1.116388
H62	H	0.919432	-0.149871	0.762863
H63	H	1.396339	-0.376150	0.907020
C64	C	1.133882	-0.387661	0.364715
H65	H	1.085469	-0.411622	0.324637
H66	H	1.176682	-0.363547	0.319009
H67	H	1.176683	-0.415111	0.404832
C68	C	0.903462	-0.387689	0.364731
H69	H	0.830266	-0.381945	0.374388
H70	H	0.921414	-0.378428	0.294165
H71	H	0.921433	-0.429994	0.379985
C72	C	1.659306	-0.533458	0.365044
H73	H	1.699366	-0.562451	0.325078
H74	H	1.619132	-0.507854	0.319225
H75	H	1.705052	-0.507772	0.405276
H76	H	1.774848	-0.149556	1.106238
H77	H	1.217933	-0.222789	0.640719
C78	C	1.652898	-0.222562	1.237082
H79	H	1.702580	-0.192822	1.261921
H80	H	1.585118	-0.211670	1.261910
H81	H	1.671039	-0.263184	1.261875
H82	H	1.640355	-0.943690	0.384340
H83	H	1.396409	-0.376119	1.106089
H84	H	1.396255	-0.662125	0.627861
C85	C	1.134175	-0.138363	0.782088
H86	H	1.085814	-0.114418	0.822175
H87	H	1.176983	-0.162470	0.827787
H88	H	1.176975	-0.110899	0.741976
C89	C	0.788448	-0.222842	0.640741
H90	H	0.763667	-0.193142	0.690481
H91	H	0.763598	-0.211914	0.572980
H92	H	0.763619	-0.263483	0.658794
C93	C	1.376968	-0.533457	0.647012
H94	H	1.386573	-0.489596	0.637388
H95	H	1.306392	-0.544277	0.631584
H96	H	1.392323	-0.544185	0.717623
C97	C	1.659380	-0.671512	0.365076
H98	H	1.699392	-0.642521	0.325074
H99	H	1.705153	-0.697117	0.405303
H100	H	1.619212	-0.697198	0.319274
H101	H	1.640442	-1.062954	0.384391
H102	H	1.396506	-1.062963	0.627985
C103	C	1.377205	-0.934301	0.647115
H104	H	1.337178	-0.963294	0.687097
H105	H	1.417349	-0.908609	0.692920
H106	H	1.331432	-0.908703	0.606867
H107	H	1.774798	-0.149601	0.907172
C108	C	1.652790	-0.222654	0.776248
H109	H	1.702452	-0.192919	0.751453
H110	H	1.670901	-0.263282	0.751402
H111	H	1.584994	-0.211760	0.751430
