data_functionalizedCrystal
_audit_creation_method	'MofGen! by Chris Wilmer'
_symmetry_space_group_name_H-M	'P1'
_symmetry_Int_Tables_number	1
_symmetry_cell_setting	triclinic
loop_
_symmetry_equiv_pos_as_xyz
  x,y,z
_cell_length_a	15.297327
_cell_length_b	12.759401
_cell_length_c	12.759393
_cell_angle_alpha	89.981756
_cell_angle_beta	99.642489
_cell_angle_gamma	99.705457
loop_
_atom_site_label
_atom_site_type_symbol
_atom_site_fract_x
_atom_site_fract_y
_atom_site_fract_z
Zn1	Zn	-0.359136	1.533788	-0.666305
Zn2	Zn	-0.510021	1.503239	-0.521010
Zn3	Zn	-0.359178	1.358083	-0.490653
Zn4	Zn	-0.509951	1.327649	-0.696637
O5	O	-0.434572	1.430690	-0.593651
O6	O	-0.379163	1.676755	-0.647042
O7	O	-0.490059	1.483936	-0.369972
O8	O	-0.232928	1.406912	-0.488555
O9	O	-0.490018	1.654310	-0.540295
O10	O	-0.232897	1.536002	-0.617606
O11	O	-0.379235	1.377290	-0.347668
O12	O	-0.379167	1.207027	-0.517967
O13	O	-0.489898	1.355042	-0.839625
O14	O	-0.489939	1.184667	-0.669303
O15	O	-0.379095	1.506492	-0.817341
O16	O	-0.636257	1.454425	-0.569706
O17	O	-0.636205	1.325420	-0.698739
C18	C	-0.434551	1.157727	-0.593633
C19	C	-0.434563	1.040948	-0.593654
C20	C	-0.376950	0.997743	-0.649363
C21	C	-0.376968	0.888016	-0.649373
C22	C	-0.492219	0.864705	-0.537963
C23	C	-0.492196	0.974431	-0.537947
C24	C	-0.319317	1.064259	-0.705070
C25	C	-0.261700	1.021056	-0.760785
C26	C	-0.261718	0.911328	-0.760795
C27	C	-0.319352	0.844804	-0.705090
C28	C	-0.668965	1.383333	-0.640831
C29	C	-0.769239	1.363170	-0.661050
C30	C	-1.051878	1.575232	-0.449503
C31	C	-0.957665	1.594176	-0.430501
C32	C	-0.910554	1.536426	-0.488137
C33	C	-0.957665	1.459729	-0.564777
C34	C	-1.051887	1.440778	-0.583775
C35	C	-0.910563	1.401972	-0.622409
C36	C	-0.957674	1.325275	-0.699050
C37	C	-1.051887	1.306328	-0.718044
C38	C	-1.098998	1.364077	-0.660409
C39	C	-0.816341	1.420924	-0.603411
C40	C	-0.816350	1.286469	-0.737683
C41	C	-0.910563	1.267526	-0.756685
C42	C	-0.199263	1.478260	-0.546311
C43	C	-0.098989	1.498531	-0.526137
C44	C	-0.434484	1.430779	-0.867667
C45	C	-0.434447	1.430818	-0.984436
C46	C	-0.434594	1.704719	-0.593671
C47	C	-0.434603	1.821493	-0.593680
C48	C	-0.492085	1.352023	-1.160617
C49	C	-0.492118	1.351984	-1.050900
C50	C	-0.376733	1.509689	-1.027694
C51	C	-0.376696	1.509723	-1.137409
C52	C	-0.549766	1.273191	-1.227077
C53	C	-0.607480	1.194318	-1.183827
C54	C	-0.607513	1.194279	-1.074109
C55	C	-0.549832	1.273113	-1.007642
C56	C	-0.434594	1.430674	-0.320689
C57	C	-0.434377	1.430891	-0.203869
H58	H	-0.214771	1.075228	-0.806130
H59	H	-0.549748	1.273215	-1.316416
H60	H	-0.549861	1.273072	-0.918303
Cl61	Cl	-0.189280	0.857019	-0.830826
Cl62	Cl	-0.679980	1.095211	-1.267381
Cl63	Cl	-0.564671	0.781074	-0.467943
Cl64	Cl	-0.304123	1.608849	-1.191782
Cl65	Cl	-0.757128	1.517340	-0.507067
H66	H	-0.539110	1.009608	-0.492584
H67	H	-1.090242	1.243863	-0.780438
H68	H	-0.329773	1.573873	-0.973569
H69	H	-0.654498	1.130049	-1.038897
Cl70	Cl	-1.111107	1.647819	-0.377055
Cl71	Cl	-0.969799	1.171109	-0.853029
H72	H	-0.777993	1.239443	-0.784613
H73	H	-1.175714	1.348660	-0.675879
Cl74	Cl	-0.792114	1.560531	-0.464536
H75	H	-0.319297	1.153606	-0.705067
H76	H	-0.319342	0.755462	-0.705076
H77	H	-0.919311	1.656621	-0.368101
