data_functionalizedCrystal
_audit_creation_method	'MofGen! by Chris Wilmer'
_symmetry_space_group_name_H-M	'P1'
_symmetry_Int_Tables_number	1
_symmetry_cell_setting	triclinic
loop_
_symmetry_equiv_pos_as_xyz
  x,y,z
_cell_length_a	19.077115
_cell_length_b	16.120444
_cell_length_c	19.077569
_cell_angle_alpha	89.308793
_cell_angle_beta	94.700051
_cell_angle_gamma	90.739546
loop_
_atom_site_label
_atom_site_type_symbol
_atom_site_fract_x
_atom_site_fract_y
_atom_site_fract_z
Zn1	Zn	1.078821	-0.361622	0.456709
Zn2	Zn	1.412154	-0.028289	0.790042
Zn3	Zn	1.745487	0.305045	1.123375
Zn4	Zn	1.068063	-0.505856	0.344750
Zn5	Zn	1.401396	-0.172522	0.678084
Zn6	Zn	1.734729	0.160811	1.011417
Zn7	Zn	0.956203	-0.361634	0.334106
Zn8	Zn	1.289536	-0.028301	0.667440
Zn9	Zn	1.622869	0.305033	1.000773
Zn10	Zn	0.955403	-0.495080	0.457428
Zn11	Zn	1.288736	-0.161746	0.790762
Zn12	Zn	1.622070	0.171587	1.124095
O13	O	1.014622	-0.431048	0.398248
O14	O	1.347956	-0.097715	0.731582
O15	O	1.681289	0.235619	1.064915
O16	O	1.175858	-0.385260	0.446011
O17	O	1.509191	-0.051927	0.779344
O18	O	1.842525	0.281407	1.112677
O19	O	1.049056	-0.491239	0.244873
O20	O	1.382390	-0.157906	0.578206
O21	O	1.715723	0.175427	0.911539
O22	O	0.977305	-0.245423	0.345614
O23	O	1.310638	0.087911	0.678947
O24	O	1.643972	0.421244	1.012281
O25	O	1.167954	-0.491228	0.363755
O26	O	1.501288	-0.157894	0.697089
O27	O	1.834621	0.175439	1.030422
O28	O	1.067392	-0.245414	0.435689
O29	O	1.400725	0.087919	0.769023
O30	O	1.734059	0.421253	1.102356
O31	O	0.966873	-0.385280	0.237052
O32	O	1.300207	-0.051947	0.570386
O33	O	1.633540	0.281386	0.903719
O34	O	0.857632	-0.374831	0.346312
O35	O	1.190965	-0.041498	0.679645
O36	O	1.524299	0.291836	1.012978
O37	O	0.975942	-0.472861	0.555798
O38	O	1.309276	-0.139528	0.889132
O39	O	1.642609	0.193805	1.222465
O40	O	0.857045	-0.472873	0.436916
O41	O	1.190378	-0.139540	0.770249
O42	O	1.523711	0.193794	1.103582
O43	O	1.066617	-0.374811	0.555270
O44	O	1.399950	-0.041477	0.888603
O45	O	1.733283	0.291856	1.221937
O46	O	1.048281	-0.620636	0.364453
O47	O	1.381614	-0.287303	0.697786
O48	O	1.714948	0.046031	1.031120
O49	O	0.965511	-0.612719	0.447237
O50	O	1.298844	-0.279385	0.780570
O51	O	1.632177	0.053948	1.113904
C52	C	0.831808	-0.422684	0.390537
C53	C	1.165141	-0.089351	0.723871
C54	C	1.498474	0.243982	1.057204
C55	C	0.753598	-0.419126	0.387256
C56	C	1.086932	-0.085792	0.720589
C57	C	1.420265	0.247541	1.053922
C58	C	0.313397	-0.393566	0.363727
C59	C	0.646731	-0.060233	0.697060
C60	C	0.980064	0.273101	1.030393
C61	C	0.386883	-0.396914	0.366814
C62	C	0.720216	-0.063581	0.700147
C63	C	1.053550	0.269753	1.033480
C64	C	0.423329	-0.449724	0.415461
C65	C	0.756663	-0.116391	0.748794
C66	C	1.089996	0.216943	1.082127
C67	C	0.386287	-0.499183	0.461028
C68	C	0.719620	-0.165849	0.794361
C69	C	1.052953	0.167484	1.127695
C70	C	0.312803	-0.495830	0.457944
C71	C	0.646136	-0.162496	0.791277
C72	C	0.979469	0.170837	1.124610
C73	C	0.643072	-0.465231	0.429739
C74	C	0.976405	-0.131898	0.763072
C75	C	1.309738	0.201435	1.096406
C76	C	0.716561	-0.468583	0.432818
C77	C	1.049894	-0.135249	0.766152
C78	C	1.383228	0.198084	1.099485
C79	C	0.717152	-0.366312	0.338605
C80	C	1.050485	-0.032979	0.671938
C81	C	1.383819	0.300354	1.005271
C82	C	0.643666	-0.362968	0.335522
C83	C	0.977000	-0.029634	0.668855
C84	C	1.310333	0.303699	1.002188
C85	C	0.606630	-0.412423	0.381092
C86	C	0.939964	-0.079090	0.714425
C87	C	1.273297	0.254244	1.047758
N88	N	0.498443	-0.453150	0.418616
N89	N	0.831777	-0.119816	0.751949
N90	N	1.165110	0.213517	1.085282
N91	N	0.531518	-0.408993	0.377939
N92	N	0.864851	-0.075659	0.711273
N93	N	1.198185	0.257674	1.044606
C94	C	1.005661	-0.646809	0.407094
C95	C	1.338995	-0.313476	0.740428
C96	C	1.672328	0.019857	1.073761
C97	C	1.001893	-0.739115	0.410905
C98	C	1.335227	-0.405782	0.744238
C99	C	1.668560	-0.072448	1.077572
C100	C	1.034348	-0.953137	0.378639
C101	C	1.367681	-0.619803	0.711973
C102	C	1.701015	-0.286470	1.045306
C103	C	0.995027	-0.908114	0.417870
C104	C	1.328360	-0.574780	0.751203
C105	C	1.661694	-0.241447	1.084537
C106	C	0.998849	-0.814074	0.413994
C107	C	1.332182	-0.480741	0.747327
C108	C	1.665515	-0.147407	1.080660
C109	C	1.030527	-1.047185	0.382515
C110	C	1.363861	-0.713851	0.715848
C111	C	1.697194	-0.380518	1.049182
C112	C	1.198151	-0.439445	0.405990
C113	C	1.531484	-0.106111	0.739323
C114	C	1.864817	0.227222	1.072657
C115	C	1.276360	-0.443023	0.409289
C116	C	1.609693	-0.109689	0.742623
C117	C	1.943026	0.223644	1.075956
C118	C	1.022390	-0.422633	0.581779
C119	C	1.355724	-0.089299	0.915112
C120	C	1.689057	0.244034	1.248446
C121	C	1.025701	-0.419047	0.659989
C122	C	1.359034	-0.085713	0.993322
C123	C	1.692367	0.247620	1.326656
C124	C	1.023638	-0.214444	0.389384
C125	C	1.356971	0.118889	0.722717
C126	C	1.690304	0.452223	1.056051
C127	C	1.027480	-0.122140	0.385607
C128	C	1.360813	0.211193	0.718940
C129	C	1.694146	0.544526	1.052273
C130	C	1.006927	-0.439372	0.215431
C131	C	1.340261	-0.106039	0.548764
C132	C	1.673594	0.227294	0.882098
C133	C	1.003763	-0.442731	0.137218
C134	C	1.337096	-0.109397	0.470551
C135	C	1.670430	0.223936	0.803884
C136	C	0.980048	-0.468408	0.697008
C137	C	1.313381	-0.135074	1.030342
C138	C	1.646714	0.198259	1.363675
C139	C	0.983164	-0.465038	0.770495
C140	C	1.316497	-0.131705	1.103828
C141	C	1.649831	0.201628	1.437162
C142	C	1.031930	-0.412303	0.806961
C143	C	1.365264	-0.078970	1.140294
C144	C	1.698597	0.254363	1.473627
C145	C	1.077588	-0.362940	0.769936
C146	C	1.410922	-0.029607	1.103270
C147	C	1.744255	0.303726	1.436603
C148	C	1.074475	-0.366314	0.696451
C149	C	1.407808	-0.032981	1.029785
C150	C	1.741142	0.300352	1.363118
C151	C	1.046307	-0.396742	1.026708
C152	C	1.379641	-0.063409	1.360041
C153	C	1.712974	0.269925	1.693375
C154	C	1.049416	-0.393370	1.100198
C155	C	1.382749	-0.060036	1.433532
C156	C	1.716083	0.273297	1.766865
C157	C	0.954992	-0.495469	1.100752
C158	C	1.288325	-0.162136	1.434085
C159	C	1.621659	0.171197	1.767419
C160	C	0.951880	-0.498835	1.027265
C161	C	1.285214	-0.165502	1.360599
C162	C	1.618547	0.167832	1.693932
C163	C	0.997540	-0.449475	0.990247
C164	C	1.330874	-0.116142	1.323581
C165	C	1.664207	0.217191	1.656914
N166	N	1.035115	-0.408856	0.882076
N167	N	1.368449	-0.075523	1.215409
N168	N	1.701782	0.257811	1.548742
N169	N	0.994358	-0.452927	0.915134
N170	N	1.327692	-0.119594	1.248467
N171	N	1.661025	0.213739	1.581801
H172	H	0.958493	-0.940194	0.454368
H173	H	1.291827	-0.606861	0.787701
H174	H	1.625160	-0.273527	1.121034
O175	O	1.082749	-0.910653	0.330304
O176	O	1.416082	-0.577320	0.663637
O177	O	1.749416	-0.243987	0.996970
H178	H	1.078191	-0.842387	0.334810
H179	H	1.411525	-0.509054	0.668144
H180	H	1.744858	-0.175721	1.001477
H181	H	0.940329	-0.511340	0.667323
H182	H	1.273662	-0.178007	1.000656
H183	H	1.606996	0.155327	1.333989
O184	O	0.933917	-0.518268	0.810425
O185	O	1.267251	-0.184934	1.143759
O186	O	1.600584	0.148399	1.477092
H187	H	0.899476	-0.555493	0.772722
H188	H	1.232809	-0.222160	1.106055
H189	H	1.566143	0.111173	1.439389
H190	H	0.912180	-0.541791	0.997581
H191	H	1.245513	-0.208458	1.330914
H192	H	1.578847	0.124875	1.664248
O193	O	0.905747	-0.548708	1.140676
O194	O	1.239081	-0.215375	1.474010
O195	O	1.572414	0.117958	1.807343
H196	H	0.916105	-0.537509	1.197902
H197	H	1.249439	-0.204176	1.531235
H198	H	1.582772	0.129158	1.864568
O199	O	1.102021	-0.336495	1.139534
O200	O	1.435354	-0.003162	1.472867
O201	O	1.768688	0.330172	1.806201
H202	H	1.133254	-0.302745	1.101449
H203	H	1.466587	0.030588	1.434782
H204	H	1.799921	0.363922	1.768116
H205	H	0.417036	-0.356645	0.329709
H206	H	0.750369	-0.023312	0.663042
H207	H	1.083702	0.310022	0.996375
H208	H	1.083487	-0.356550	0.996577
H209	H	1.416821	-0.023217	1.329910
H210	H	1.750154	0.310117	1.663244
H211	H	0.613996	-0.319970	0.295904
H212	H	0.947330	0.013363	0.629237
H213	H	1.280663	0.346696	0.962570
O214	O	1.130171	-0.306037	0.809260
O215	O	1.463505	0.027296	1.142593
O216	O	1.796838	0.360629	1.475927
H217	H	1.124656	-0.311968	0.866578
H218	H	1.457990	0.021365	1.199911
H219	H	1.791323	0.354699	1.533244
H220	H	0.747315	-0.326048	0.301505
H221	H	1.080648	0.007286	0.634838
H222	H	1.413981	0.340619	0.968172
O223	O	1.123713	-0.313074	0.656517
O224	O	1.457046	0.020259	0.989851
O225	O	1.790379	0.353593	1.323184
H226	H	1.158142	-0.275831	0.694218
H227	H	1.491475	0.057502	1.027551
H228	H	1.824809	0.390836	1.360884
H229	H	0.283728	-0.350563	0.324112
H230	H	0.617061	-0.017230	0.657446
H231	H	0.950395	0.316104	0.990779
H232	H	0.612926	-0.505505	0.466843
H233	H	0.946259	-0.172171	0.800176
H234	H	1.279592	0.161162	1.133509
O235	O	0.755876	-0.525538	0.485294
O236	O	1.089209	-0.192205	0.818628
O237	O	1.422543	0.141129	1.151961
H238	H	0.717778	-0.559358	0.516470
H239	H	1.051112	-0.226025	0.849803
H240	H	1.384445	0.107308	1.183136
H241	H	0.415968	-0.542178	0.500640
H242	H	0.749301	-0.208845	0.833973
H243	H	1.082634	0.124489	1.167307
H244	H	0.282648	-0.536100	0.495047
H245	H	0.615981	-0.202767	0.828381
H246	H	0.949314	0.130566	1.161714
