data_functionalizedCrystal
_audit_creation_method	'MofGen! by Chris Wilmer'
_symmetry_space_group_name_H-M	'P1'
_symmetry_Int_Tables_number	1
_symmetry_cell_setting	triclinic
loop_
_symmetry_equiv_pos_as_xyz
  x,y,z
_cell_length_a	14.044220
_cell_length_b	14.519709
_cell_length_c	12.996460
_cell_angle_alpha	89.999966
_cell_angle_beta	89.993022
_cell_angle_gamma	91.565489
loop_
_atom_site_label
_atom_site_type_symbol
_atom_site_fract_x
_atom_site_fract_y
_atom_site_fract_z
O1	O	0.124273	-1.233893	-0.085435
O2	O	0.457606	-0.900559	0.247899
O3	O	0.790939	-0.567226	0.581232
O4	O	0.138907	-0.966596	-0.085466
O5	O	0.472241	-0.633263	0.247867
O6	O	0.805574	-0.299929	0.581200
O7	O	-0.006401	-1.096232	-0.085441
O8	O	0.326932	-0.762899	0.247892
O9	O	0.660265	-0.429566	0.581226
O10	O	0.269581	-1.104256	-0.085460
O11	O	0.602915	-0.770923	0.247873
O12	O	0.936248	-0.437590	0.581206
O13	O	-0.006409	-1.096217	0.085693
O14	O	0.326924	-0.762884	0.419026
O15	O	0.660257	-0.429550	0.752360
O16	O	0.138899	-0.966581	0.085667
O17	O	0.472233	-0.633247	0.419001
O18	O	0.805566	-0.299914	0.752334
O19	O	0.124265	-1.233877	0.085699
O20	O	0.457598	-0.900544	0.419032
O21	O	0.790931	-0.567211	0.752366
Cu22	Cu	0.131581	-1.100228	0.101309
Cu23	Cu	0.464915	-0.766894	0.434642
Cu24	Cu	0.798248	-0.433561	0.767976
Cu25	Cu	0.131591	-1.100246	-0.101076
Cu26	Cu	0.464924	-0.766912	0.232257
Cu27	Cu	0.798257	-0.433579	0.565590
O28	O	0.269573	-1.104241	0.085674
O29	O	0.602907	-0.770908	0.419007
O30	O	0.936240	-0.437574	0.752340
C31	C	0.138221	-0.932174	0.000097
C32	C	0.471555	-0.598840	0.333430
C33	C	0.804888	-0.265507	0.666763
C34	C	0.136177	-0.829628	0.000085
C35	C	0.469511	-0.496294	0.333418
C36	C	0.802844	-0.162961	0.666751
C37	C	-0.041726	-1.092712	0.000126
C38	C	0.291608	-0.759379	0.333459
C39	C	0.624941	-0.426045	0.666793
C40	C	-0.146969	-1.082235	0.000126
C41	C	0.186364	-0.748902	0.333459
C42	C	0.519697	-0.415568	0.666793
C43	C	0.124951	-1.268300	0.000134
C44	C	0.458284	-0.934966	0.333467
C45	C	0.791617	-0.601633	0.666801
C46	C	0.126995	-1.370846	0.000139
C47	C	0.460328	-1.037512	0.333472
C48	C	0.793661	-0.704179	0.666806
C49	C	-0.339663	-1.063081	0.000109
C50	C	-0.006330	-0.729747	0.333442
C51	C	0.327004	-0.396414	0.666776
C52	C	-0.397170	-1.137389	0.000115
C53	C	-0.063837	-0.804055	0.333448
C54	C	0.269496	-0.470722	0.666781
C55	C	-0.504392	-1.126731	0.000105
C56	C	-0.171059	-0.793398	0.333438
C57	C	0.162275	-0.460064	0.666772
C58	C	-0.232432	-1.073737	0.000118
C59	C	0.100902	-0.740404	0.333452
C60	C	0.434235	-0.407070	0.666785
C61	C	0.304898	-1.107761	0.000104
C62	C	0.638231	-0.774428	0.333438
C63	C	0.971564	-0.441095	0.666771
C64	C	0.410141	-1.118238	0.000098
C65	C	0.743475	-0.784905	0.333431
C66	C	1.076808	-0.451572	0.666764
N67	N	0.131574	-1.100221	0.243656
N68	N	0.464907	-0.766888	0.576990
N69	N	0.798241	-0.433555	0.910323
C70	C	0.128653	-0.454125	0.000132
C71	C	0.461987	-0.120791	0.333465
C72	C	0.795320	0.212542	0.666799
C73	C	0.130743	-0.558601	0.000119
C74	C	0.464076	-0.225268	0.333452
C75	C	0.797409	0.108065	0.666785
C76	C	0.132415	-0.641873	0.000107
C77	C	0.465749	-0.308540	0.333441
C78	C	0.799082	0.024794	0.666774
C79	C	0.134505	-0.746356	0.000096
C80	C	0.467838	-0.413023	0.333429
C81	C	0.801172	-0.079689	0.666763
N82	N	0.131591	-1.100259	-0.243424
N83	N	0.464924	-0.766925	0.089910
N84	N	0.798257	-0.433592	0.423243
C85	C	0.131592	-1.100245	0.663470
C86	C	0.464925	-0.766911	0.996804
C87	C	0.798258	-0.433578	1.330137
C88	C	0.131590	-1.100236	0.546665
C89	C	0.464923	-0.766902	0.879999
C90	C	0.798257	-0.433569	1.213332
C91	C	0.131584	-1.100233	0.453567
C92	C	0.464917	-0.766900	0.786900
C93	C	0.798250	-0.433567	1.120234
C94	C	0.131580	-1.100224	0.336754
C95	C	0.464914	-0.766890	0.670088
C96	C	0.798247	-0.433557	1.003421
H97	H	-0.370954	-0.991465	0.000098
H98	H	-0.037620	-0.658131	0.333431
H99	H	0.295713	-0.324798	0.666765
H100	H	-0.365878	-1.209010	0.000054
H101	H	-0.032545	-0.875677	0.333387
H102	H	0.300789	-0.542343	0.666721
