data_functionalizedCrystal
_audit_creation_method	'MofGen! by Chris Wilmer'
_symmetry_space_group_name_H-M	'P1'
_symmetry_Int_Tables_number	1
_symmetry_cell_setting	triclinic
loop_
_symmetry_equiv_pos_as_xyz
  x,y,z
_cell_length_a	12.827893
_cell_length_b	12.827885
_cell_length_c	12.827892
_cell_angle_alpha	89.970024
_cell_angle_beta	90.015362
_cell_angle_gamma	89.980728
loop_
_atom_site_label
_atom_site_type_symbol
_atom_site_fract_x
_atom_site_fract_y
_atom_site_fract_z
Zn1	Zn	1.597670	-0.590849	-0.415981
Zn2	Zn	2.097670	-0.090849	0.084019
Zn3	Zn	1.597564	-0.416109	-0.590759
Zn4	Zn	2.097564	0.083891	-0.090759
Zn5	Zn	1.422911	-0.416122	-0.416033
Zn6	Zn	1.922911	0.083878	0.083967
Zn7	Zn	1.422896	-0.590809	-0.590681
Zn8	Zn	1.922896	-0.090809	-0.090681
O9	O	1.510260	-0.503472	-0.503364
O10	O	2.010260	-0.003472	-0.003364
O11	O	1.743892	-0.567680	-0.439177
O12	O	2.243892	-0.067680	0.060823
O13	O	1.574357	-0.269875	-0.567636
O14	O	2.074357	0.230125	-0.067636
O15	O	1.446144	-0.439322	-0.269790
O16	O	1.946144	0.060678	0.230210
O17	O	1.743814	-0.439300	-0.567586
O18	O	2.243814	0.060700	-0.067586
O19	O	1.574538	-0.567693	-0.269752
O20	O	2.074538	-0.067693	0.230248
O21	O	1.446041	-0.269884	-0.439265
O22	O	1.946041	0.230116	0.060735
O23	O	1.276673	-0.439284	-0.439189
O24	O	1.776673	0.060716	0.060811
O25	O	1.446118	-0.737050	-0.567452
O26	O	1.946118	-0.237050	-0.067452
O27	O	1.276662	-0.567625	-0.567502
O28	O	1.776662	-0.067625	-0.067502
O29	O	1.574524	-0.737080	-0.439101
O30	O	2.074524	-0.237080	0.060899
O31	O	1.574343	-0.439261	-0.736985
O32	O	2.074343	0.060739	-0.236985
O33	O	1.446016	-0.567612	-0.736927
O34	O	1.946016	-0.067612	-0.236927
C35	C	1.238750	-0.503452	-0.503343
C36	C	1.738750	-0.003452	-0.003343
C37	C	1.122597	-0.503469	-0.503360
C38	C	1.622597	-0.003469	-0.003360
C39	C	1.070835	-0.566878	-0.566953
C40	C	1.570835	-0.066878	-0.066953
C41	C	0.950784	-0.566896	-0.566971
C42	C	1.450784	-0.066896	-0.066971
C43	C	1.510331	-0.776043	-0.503262
C44	C	2.010331	-0.276043	-0.003262
C45	C	1.510362	-0.892196	-0.503219
C46	C	2.010362	-0.392196	-0.003219
C47	C	1.573864	-0.943976	-0.566715
C48	C	2.073864	-0.443976	-0.066715
C49	C	1.573896	-1.064026	-0.566672
C50	C	2.073896	-0.564026	-0.066672
C51	C	1.782830	-0.503493	-0.503385
C52	C	2.282830	-0.003493	-0.003385
C53	C	1.898983	-0.503502	-0.503393
C54	C	2.398983	-0.003502	-0.003393
C55	C	1.510195	-0.503454	-0.774873
C56	C	2.010195	-0.003454	-0.274873
C57	C	1.510262	-0.503481	-0.891027
C58	C	2.010262	-0.003481	-0.391027
C59	C	1.510249	-0.231962	-0.503389
C60	C	2.010249	0.268038	-0.003389
C61	C	1.510422	-0.115810	-0.503138
C62	C	2.010422	0.384190	-0.003138
C63	C	1.573838	-0.440039	-0.942805
C64	C	2.073838	0.059961	-0.442805
C65	C	1.573910	-0.440066	-1.062855
C66	C	2.073910	0.059934	-0.562855
C67	C	1.510354	-0.503514	-0.230793
C68	C	2.010354	-0.003514	0.269207
C69	C	1.510394	-0.503531	-0.114640
C70	C	2.010394	-0.003531	0.385360
H71	H	1.078036	-0.449199	-0.448926
H72	H	1.578036	0.050801	0.051074
Cl73	Cl	1.657803	-0.356153	-0.874037
Cl74	Cl	2.157803	0.143847	-0.374037
Cl75	Cl	1.657944	-0.356197	-1.131598
Cl76	Cl	2.157944	0.143803	-0.631598
Cl77	Cl	1.426346	-0.587391	-1.045905
Cl78	Cl	1.926346	-0.087391	-0.545905
H79	H	1.628210	-0.899430	-0.621105
H80	H	2.128210	-0.399430	-0.121105
H81	H	1.456024	-0.936742	-0.448822
H82	H	1.956024	-0.436742	0.051178
H83	H	1.628262	-1.108556	-0.621034
H84	H	2.128262	-0.608556	-0.121034
Cl85	Cl	0.967698	-0.419673	-0.419334
Cl86	Cl	1.467698	0.080327	0.080666
Cl87	Cl	1.426310	-0.587379	-0.959795
Cl88	Cl	1.926310	-0.087379	-0.459795
Cl89	Cl	1.139624	-0.650672	-0.650998
Cl90	Cl	1.639624	-0.150672	-0.150998
Cl91	Cl	0.882063	-0.650711	-0.651039
Cl92	Cl	1.382063	-0.150711	-0.151039
H93	H	1.456049	-1.071287	-0.448777
H94	H	1.956049	-0.571287	0.051223
