data_functionalizedCrystal
_audit_creation_method	'MofGen! by Chris Wilmer'
_symmetry_space_group_name_H-M	'P1'
_symmetry_Int_Tables_number	1
_symmetry_cell_setting	triclinic
loop_
_symmetry_equiv_pos_as_xyz
  x,y,z
_cell_length_a	21.395364
_cell_length_b	29.839132
_cell_length_c	21.395355
_cell_angle_alpha	90.022386
_cell_angle_beta	89.975448
_cell_angle_gamma	89.939785
loop_
_atom_site_label
_atom_site_type_symbol
_atom_site_fract_x
_atom_site_fract_y
_atom_site_fract_z
Zn1	Zn	0.957796	0.178726	-0.354245
Zn2	Zn	0.957672	0.253841	-0.249460
Zn3	Zn	0.853011	0.178746	-0.249481
Zn4	Zn	0.852953	0.253849	-0.354200
O5	O	0.905358	0.216291	-0.301847
O6	O	1.045457	0.188679	-0.340354
O7	O	0.943760	0.243885	-0.161785
O8	O	0.866987	0.115876	-0.263406
O9	O	1.045366	0.243866	-0.263370
O10	O	0.943972	0.115862	-0.340375
O11	O	0.866866	0.188712	-0.161801
O12	O	0.765325	0.188720	-0.263363
O13	O	0.866889	0.243879	-0.441884
O14	O	0.765283	0.243898	-0.340299
O15	O	0.943916	0.188687	-0.441917
O16	O	0.943705	0.316710	-0.263327
O17	O	0.866769	0.316716	-0.340279
C18	C	0.742570	0.216313	-0.301829
C19	C	0.672929	0.216333	-0.301836
C20	C	0.640286	0.187644	-0.341984
C21	C	0.574850	0.187632	-0.341987
C22	C	0.542061	0.216317	-0.301848
C23	C	0.574712	0.245008	-0.261692
C24	C	0.640146	0.245016	-0.261686
C25	C	0.438322	0.256775	-0.296806
C26	C	0.372889	0.256768	-0.296816
C27	C	0.340240	0.216292	-0.301862
C28	C	0.373032	0.175823	-0.306910
C29	C	0.438466	0.175831	-0.306904
C30	C	0.471108	0.216311	-0.301849
C31	C	0.236644	0.187588	-0.342014
C32	C	0.171208	0.187575	-0.342012
C33	C	0.171070	0.244955	-0.261721
C34	C	0.236506	0.244964	-0.261720
C35	C	0.269289	0.216281	-0.301870
C36	C	0.905234	0.333013	-0.301809
C37	C	0.905238	0.382948	-0.301814
C38	C	0.945447	0.692575	-0.261810
C39	C	0.945507	0.880248	-0.261825
O40	O	0.979626	0.904500	-0.227801
N41	N	0.905424	0.903733	-0.301857
C42	C	0.865326	0.880296	-0.341891
O43	O	0.831238	0.904577	-0.375946
C44	C	0.865269	0.692624	-0.341880
C45	C	0.905351	0.669142	-0.301840
C46	C	0.985525	0.669093	-0.221775
C47	C	0.985508	0.622178	-0.221769
C48	C	0.945411	0.598745	-0.261799
C49	C	0.905333	0.622226	-0.301835
C50	C	0.825175	0.669188	-0.381917
C51	C	0.825166	0.622267	-0.381911
C52	C	0.865247	0.598785	-0.341872
C53	C	0.865219	0.551878	-0.341859
N54	N	0.905302	0.528393	-0.301827
C55	C	0.945398	0.551827	-0.261797
C56	C	0.865357	0.978827	-0.341893
C57	C	0.865370	1.025744	-0.341896
C58	C	0.945552	1.025694	-0.261830
C59	C	0.945535	0.978775	-0.261825
C60	C	0.905440	0.955342	-0.301861
C61	C	0.945358	0.453301	-0.261788
C62	C	0.945334	0.406381	-0.261784
C63	C	0.865155	0.406436	-0.341852
C64	C	0.865175	0.453352	-0.341854
C65	C	0.905282	0.476783	-0.301820
O66	O	0.831122	0.527597	-0.375870
O67	O	0.979490	0.527537	-0.227757
C68	C	0.945465	0.739491	-0.261816
C69	C	0.905386	0.762973	-0.301851
C70	C	0.865290	0.739539	-0.341881
C71	C	0.905399	0.809891	-0.301854
C72	C	0.945496	0.833324	-0.261824
C73	C	0.985579	0.809840	-0.221792
C74	C	0.985561	0.762924	-0.221786
C75	C	0.825207	0.763024	-0.381913
C76	C	0.825227	0.809939	-0.381915
C77	C	0.865324	0.833373	-0.341885
C78	C	1.068781	0.216269	-0.301865
C79	C	1.138423	0.216260	-0.301872
C80	C	0.905476	1.099112	-0.301884
C81	C	0.905466	1.049178	-0.301866
C82	C	0.905410	0.216282	-0.465270
C83	C	0.905432	0.216278	-0.534911
C84	C	0.945539	0.187538	-0.567642
C85	C	0.945538	0.187518	-0.633078
C86	C	0.905437	0.216247	-0.665780
C87	C	0.865323	0.244989	-0.633041
C88	C	0.865320	0.245005	-0.567606
C89	C	0.900447	0.256699	-0.769441
C90	C	0.900454	0.256685	-0.834874
C91	C	0.905441	0.216200	-0.867600
C92	C	0.910435	0.175728	-0.834886
C93	C	0.910432	0.175743	-0.769451
C94	C	0.905435	0.216234	-0.736732
C95	C	0.945549	0.187436	-0.971284
C96	C	0.945543	0.187416	-1.036721
C97	C	0.865332	0.244891	-1.036682
C98	C	0.865334	0.244907	-0.971247
C99	C	0.905445	0.216180	-0.938552
C100	C	0.905342	0.216267	-0.139059
C101	C	0.905442	0.216145	-0.069418
H102	H	0.464900	0.289737	-0.292697
Cl103	Cl	0.533492	0.281067	-0.211229
Cl104	Cl	0.814774	0.482873	-0.392176
H105	H	0.263338	0.164230	-0.374703
Cl106	Cl	0.814897	0.281138	-0.526456
H107	H	0.465163	0.142879	-0.311013
H108	H	0.548267	0.164268	-0.374679
Cl109	Cl	0.916707	0.124829	-0.876019
H110	H	0.792534	0.688299	-0.414518
H111	H	0.978173	0.959659	-0.229222
H112	H	1.018147	0.603062	-0.189168
Cl113	Cl	0.814973	1.055259	-0.392225
Cl114	Cl	1.035939	0.698544	-0.171445
H115	H	0.346195	0.289720	-0.292709
Cl116	Cl	0.995958	1.055161	-0.211506
H117	H	0.832705	0.959751	-0.374497
Cl118	Cl	0.995970	0.151321	-0.930179
Cl119	Cl	0.130170	0.151504	-0.392486
Cl120	Cl	0.916705	0.124867	-0.728326
Cl121	Cl	0.129855	0.281013	-0.211255
Cl122	Cl	0.277545	0.281030	-0.211242
Cl123	Cl	0.894195	0.307601	-0.728307
H124	H	0.666724	0.268378	-0.228992
Cl125	Cl	0.774758	0.592812	-0.432247
H126	H	0.832507	0.387349	-0.374442
Cl127	Cl	0.995726	0.376864	-0.211446
Cl128	Cl	0.331995	0.124936	-0.313252
Cl129	Cl	0.774795	0.733572	-0.432242
Cl130	Cl	0.995777	0.482750	-0.211458
Cl131	Cl	1.035954	0.733411	-0.171451
H132	H	0.978200	0.164146	-0.541026
H133	H	0.832675	0.268278	-1.063308
Cl134	Cl	1.035984	0.839308	-0.171468
H135	H	0.832678	0.268313	-0.944597
Cl136	Cl	0.814908	0.281104	-0.674150
H137	H	0.666974	0.164288	-0.374677
H138	H	0.792583	0.829054	-0.414519
H139	H	0.978196	0.164112	-0.659733
Cl140	Cl	0.894182	0.307563	-0.875995
Cl141	Cl	0.995978	0.151289	-1.077869
