data_functionalizedCrystal
_audit_creation_method	'MofGen! by Chris Wilmer'
_symmetry_space_group_name_H-M	'P1'
_symmetry_Int_Tables_number	1
_symmetry_cell_setting	triclinic
loop_
_symmetry_equiv_pos_as_xyz
  x,y,z
_cell_length_a	12.759401
_cell_length_b	29.839131
_cell_length_c	29.839125
_cell_angle_alpha	89.988394
_cell_angle_beta	89.989284
_cell_angle_gamma	90.041581
loop_
_atom_site_label
_atom_site_type_symbol
_atom_site_fract_x
_atom_site_fract_y
_atom_site_fract_z
Zn1	Zn	1.605979	-0.178941	-0.253970
Zn2	Zn	2.105979	0.321059	0.246030
Zn3	Zn	1.605816	-0.254045	-0.178840
Zn4	Zn	2.105816	0.245955	0.321160
Zn5	Zn	1.430305	-0.178931	-0.178857
Zn6	Zn	1.930305	0.321069	0.321143
Zn7	Zn	1.430188	-0.254045	-0.253946
Zn8	Zn	1.930188	0.245955	0.246054
O9	O	1.518072	-0.216491	-0.216403
O10	O	2.018072	0.283509	0.283597
O11	O	1.752979	-0.188909	-0.244008
O12	O	2.252979	0.311091	0.255992
O13	O	1.582514	-0.244077	-0.115975
O14	O	2.082514	0.255923	0.384025
O15	O	1.453726	-0.116065	-0.188838
O16	O	1.953726	0.383935	0.311162
O17	O	1.752858	-0.244087	-0.188810
O18	O	2.252858	0.255913	0.311190
O19	O	1.582793	-0.116073	-0.244024
O20	O	2.082793	0.383927	0.255976
O21	O	1.453568	-0.188890	-0.115987
O22	O	1.953568	0.311110	0.384013
O23	O	1.283269	-0.188890	-0.188814
O24	O	1.783269	0.311110	0.311186
O25	O	1.453527	-0.244087	-0.316816
O26	O	1.953527	0.255913	0.183184
O27	O	1.283183	-0.244077	-0.243981
O28	O	1.783183	0.255923	0.256019
O29	O	1.582680	-0.188909	-0.316834
O30	O	2.082680	0.311091	0.183166
O31	O	1.582401	-0.316913	-0.188786
O32	O	2.082401	0.183087	0.311214
O33	O	1.453368	-0.316913	-0.243965
O34	O	1.953368	0.183087	0.256035
C35	C	1.245105	-0.216482	-0.216397
C36	C	1.745105	0.283518	0.283603
C37	C	1.128328	-0.216490	-0.216405
C38	C	1.628328	0.283510	0.283595
C39	C	1.073449	-0.245271	-0.245083
C40	C	1.573449	0.254729	0.254917
C41	C	0.963725	-0.245277	-0.245088
C42	C	1.463725	0.254723	0.254912
C43	C	0.963769	-0.187718	-0.187733
C44	C	1.463769	0.312282	0.312267
C45	C	1.073491	-0.187711	-0.187731
C46	C	1.573491	0.312289	0.312269
C47	C	1.073422	-0.278504	-0.278196
C48	C	1.573422	0.221496	0.221804
C49	C	0.963698	-0.278510	-0.278200
C50	C	1.463698	0.221490	0.221800
C51	C	1.517882	-0.333213	-0.216381
C52	C	2.017882	0.166787	0.283619
C53	C	1.517897	-0.383148	-0.216386
C54	C	2.017897	0.116852	0.283614
C55	C	1.585382	-0.692778	-0.187713
C56	C	2.085382	-0.192778	0.312287
C57	C	1.585511	-0.880452	-0.187731
C58	C	2.085511	-0.380452	0.312269
O59	O	1.642738	-0.904706	-0.163334
O60	O	2.142738	-0.404706	0.336666
N61	N	1.518290	-0.903933	-0.216437
N62	N	2.018290	-0.403933	0.283563
C63	C	1.451036	-0.880493	-0.245143
C64	C	1.951036	-0.380493	0.254857
O65	O	1.393871	-0.904771	-0.269564
O66	O	1.893871	-0.404771	0.230436
C67	C	1.450913	-0.692821	-0.245128
C68	C	1.950913	-0.192821	0.254872
C69	C	1.518131	-0.669342	-0.216416
C70	C	2.018131	-0.169342	0.283584
C71	C	1.652595	-0.669300	-0.159004
C72	C	2.152595	-0.169300	0.340996
C73	C	1.652558	-0.622384	-0.158998
C74	C	2.152558	-0.122384	0.341002
C75	C	1.585307	-0.598948	-0.187702
C76	C	2.085307	-0.098948	0.312298
C77	C	1.518094	-0.622426	-0.216410
C78	C	2.018094	-0.122426	0.283590
C79	C	1.383665	-0.669382	-0.273836
C80	C	1.883665	-0.169382	0.226164
C81	C	1.383642	-0.622461	-0.273830
C82	C	1.883642	-0.122461	0.226170
C83	C	1.450860	-0.598982	-0.245119
C84	C	1.950860	-0.098982	0.254881
C85	C	1.450806	-0.552074	-0.245108
C86	C	1.950806	-0.052074	0.254892
N87	N	1.518027	-0.528593	-0.216401
N88	N	2.018027	-0.028593	0.283599
C89	C	1.585278	-0.552030	-0.187698
C90	C	2.085278	-0.052030	0.312302
C91	C	1.451105	-0.979023	-0.245149
C92	C	1.951105	-0.479023	0.254851
C93	C	1.451134	-1.025941	-0.245152
C94	C	1.951134	-0.525941	0.254848
C95	C	1.585611	-1.025897	-0.187740
C96	C	2.085611	-0.525897	0.312260
C97	C	1.585575	-0.978978	-0.187735
C98	C	2.085575	-0.478978	0.312265
C99	C	1.518326	-0.955542	-0.216442
C100	C	2.018326	-0.455542	0.283558
C101	C	1.585194	-0.453504	-0.187688
C102	C	2.085194	0.046496	0.312312
C103	C	1.585148	-0.406584	-0.187683
C104	C	2.085148	0.093416	0.312317
C105	C	1.450676	-0.406633	-0.245097
C106	C	1.950676	0.093367	0.254903
C107	C	1.450718	-0.453548	-0.245100
C108	C	1.950718	0.046452	0.254900
C109	C	1.517985	-0.476983	-0.216394
C110	C	2.017985	0.023017	0.283606
O111	O	1.393617	-0.527791	-0.269495
O112	O	1.893617	-0.027791	0.230505
O113	O	1.642451	-0.527743	-0.163289
O114	O	2.142451	-0.027743	0.336711
C115	C	1.585419	-0.739694	-0.187719
C116	C	2.085419	-0.239694	0.312281
C117	C	1.518205	-0.763173	-0.216428
C118	C	2.018205	-0.263173	0.283572
C119	C	1.450955	-0.739736	-0.245131
C120	C	1.950955	-0.239736	0.254869
C121	C	1.518235	-0.810091	-0.216431
C122	C	2.018235	-0.310091	0.283569
C123	C	1.585485	-0.833527	-0.187728
C124	C	2.085485	-0.333527	0.312272
C125	C	1.652707	-0.810046	-0.159022
C126	C	2.152707	-0.310046	0.340978
C127	C	1.652670	-0.763131	-0.159016
C128	C	2.152670	-0.263131	0.340984
C129	C	1.383733	-0.763217	-0.273837
C130	C	1.883733	-0.263217	0.226163
C131	C	1.383775	-0.810133	-0.273840
C132	C	1.883775	-0.310133	0.226160
C133	C	1.451026	-0.833569	-0.245137
C134	C	1.951026	-0.333569	0.254863
C135	C	1.792105	-0.216499	-0.216410
C136	C	2.292105	0.283501	0.283590
C137	C	1.908882	-0.216503	-0.216412
C138	C	2.408882	0.283497	0.283588
C139	C	1.518109	-0.216499	-0.333582
C140	C	2.018109	0.283501	0.166418
C141	C	1.518124	-0.216503	-0.383516
C142	C	2.018124	0.283497	0.116484
C143	C	1.518291	-0.099312	-0.216435
C144	C	2.018291	0.400688	0.283565
C145	C	1.518385	-0.049378	-0.216449
C146	C	2.018385	0.450622	0.283551
C147	C	1.450947	-0.245131	-0.740094
C148	C	1.950947	0.254869	-0.240094
C149	C	1.450909	-0.245183	-0.552421
C150	C	1.950909	0.254817	-0.052421
O151	O	1.393689	-0.269608	-0.528148
O152	O	1.893689	0.230392	-0.028148
N153	N	1.518147	-0.216461	-0.528961
N154	N	2.018147	0.283539	-0.028961
C155	C	1.585395	-0.187722	-0.552423
C156	C	2.085395	0.312278	-0.052423
O157	O	1.642577	-0.163291	-0.528163
O158	O	2.142577	0.336709	-0.028163
C159	C	1.585426	-0.187669	-0.740095
C160	C	2.085426	0.312331	-0.240095
C161	C	1.518191	-0.216395	-0.763552
C162	C	2.018191	0.283605	-0.263552
C163	C	1.383716	-0.273855	-0.763551
C164	C	1.883716	0.226145	-0.263551
C165	C	1.383731	-0.273844	-0.810466
C166	C	1.883731	0.226156	-0.310466
C167	C	1.450975	-0.245108	-0.833925
C168	C	1.950975	0.254892	-0.333925
C169	C	1.518206	-0.216384	-0.810468
C170	C	2.018206	0.283616	-0.310468
C171	C	1.652668	-0.158928	-0.763556
C172	C	2.152668	0.341072	-0.263556
C173	C	1.652668	-0.158916	-0.810477
C174	C	2.152668	0.341084	-0.310477
C175	C	1.585433	-0.187643	-0.833934
C176	C	2.085433	0.312357	-0.333934
C177	C	1.585464	-0.187637	-0.880841
C178	C	2.085464	0.312363	-0.380841
N179	N	1.518226	-0.216359	-0.904301
N180	N	2.018226	0.283641	-0.404301
C181	C	1.450982	-0.245094	-0.880843
C182	C	1.950982	0.254906	-0.380843
C183	C	1.585375	-0.187753	-0.453892
C184	C	2.085375	0.312247	0.046108
C185	C	1.585369	-0.187767	-0.406974
C186	C	2.085369	0.312233	0.093026
C187	C	1.450881	-0.245227	-0.406975
C188	C	1.950881	0.254773	0.093025
C189	C	1.450894	-0.245215	-0.453894
C190	C	1.950894	0.254785	0.046106
C191	C	1.518137	-0.216475	-0.477352
C192	C	2.018137	0.283525	0.022648
C193	C	1.451017	-0.245068	-0.979369
C194	C	1.951017	0.254932	-0.479369
C195	C	1.451040	-0.245055	-1.026288
C196	C	1.951040	0.254945	-0.526288
C197	C	1.585523	-0.187594	-1.026283
C198	C	2.085523	0.312406	-0.526283
C199	C	1.585504	-0.187608	-0.979367
C200	C	2.085504	0.312392	-0.479367
C201	C	1.518243	-0.216347	-0.955911
C202	C	2.018243	0.283653	-0.455911
O203	O	1.642646	-0.163220	-0.905143
O204	O	2.142646	0.336780	-0.405143
O205	O	1.393792	-0.269515	-0.905111
O206	O	1.893792	0.230485	-0.405111
C207	C	1.450933	-0.245143	-0.693178
C208	C	1.950933	0.254857	-0.193178
C209	C	1.518163	-0.216418	-0.669721
C210	C	2.018163	0.283582	-0.169721
C211	C	1.585408	-0.187683	-0.693180
C212	C	2.085408	0.312317	-0.193180
C213	C	1.518157	-0.216432	-0.622803
C214	C	2.018157	0.283568	-0.122803
C215	C	1.450912	-0.245168	-0.599345
C216	C	1.950912	0.254832	-0.099345
C217	C	1.383674	-0.273890	-0.622805
C218	C	1.883674	0.226110	-0.122805
C219	C	1.383688	-0.273878	-0.669720
C220	C	1.883688	0.226122	-0.169720
C221	C	1.652646	-0.158961	-0.669720
C222	C	2.152646	0.341039	-0.169720
C223	C	1.652627	-0.158975	-0.622805
C224	C	2.152627	0.341025	-0.122805
C225	C	1.585382	-0.187711	-0.599346
C226	C	2.085382	0.312289	-0.099346
C227	C	1.518097	-0.216450	-0.099681
C228	C	2.018097	0.283550	0.400319
C229	C	1.518285	-0.216320	-0.049746
C230	C	2.018285	0.283680	0.450254
H231	H	1.118170	-0.164271	-0.164381
H232	H	1.618170	0.335729	0.335619
F233	F	1.724198	-0.128400	-0.597845
F234	F	2.224198	0.371600	-0.097845
F235	F	1.379479	-0.275633	-1.051250
F236	F	1.879479	0.224367	-0.551250
H237	H	0.929704	-0.266105	-0.311278
H238	H	1.429704	0.233895	0.188722
F239	F	1.117845	-0.321685	-0.261857
F240	F	1.617845	0.178315	0.238143
H241	H	0.919107	-0.164287	-0.164387
H242	H	1.419107	0.335713	0.335613
H243	H	1.395918	-0.387544	-0.268465
H244	H	1.895918	0.112456	0.231535
H245	H	1.103230	-0.269241	-0.313007
H246	H	1.603230	0.230759	0.186993
F247	F	0.924702	-0.323967	-0.265926
F248	F	1.424702	0.176033	0.234074
H249	H	1.396237	-0.268466	-0.960276
H250	H	1.896237	0.231534	-0.460276
H251	H	1.639885	-0.387469	-0.164301
H252	H	2.139885	0.112531	0.335699
F253	F	1.312130	-0.694359	-0.304399
F254	F	1.812130	-0.194359	0.195601
H255	H	1.639973	-0.472579	-0.164314
H256	H	2.139973	0.027421	0.335686
H257	H	1.707296	-0.603271	-0.135620
H258	H	2.207296	-0.103271	0.364380
F259	F	1.724228	-0.128351	-0.738601
F260	F	2.224228	0.371649	-0.238601
F261	F	1.312224	-0.835116	-0.304400
F262	F	1.812224	-0.335116	0.195600
H263	H	1.707365	-0.688377	-0.135631
H264	H	2.207365	-0.188377	0.364369
F265	F	1.657118	-0.953994	-0.157176
F266	F	2.157118	-0.453994	0.342824
F267	F	1.656943	-0.157198	-0.382015
F268	F	2.156943	0.342802	0.117985
H269	H	1.640369	-1.044987	-0.164369
H270	H	2.140369	-0.544987	0.335631
H271	H	1.396388	-1.045054	-0.268528
H272	H	1.896388	-0.545054	0.231472
F273	F	1.379522	-0.954087	-0.275705
F274	F	1.879522	-0.454087	0.224295
F275	F	1.312110	-0.304474	-0.597830
F276	F	1.812110	0.195526	-0.097830
H277	H	1.640260	-0.164219	-0.960268
H278	H	2.140260	0.335781	-0.460268
H279	H	1.707405	-0.135560	-0.688815
H280	H	2.207405	0.364440	-0.188815
H281	H	1.328971	-0.744139	-0.297211
H282	H	1.828971	-0.244139	0.202789
H283	H	1.328881	-0.603381	-0.297209
H284	H	1.828881	-0.103381	0.202791
H285	H	1.707405	-0.744017	-0.135636
H286	H	2.207405	-0.244017	0.364364
H287	H	1.328978	-0.297235	-0.829561
H288	H	1.828978	0.202765	-0.329561
F289	F	1.379158	-0.478537	-0.275650
F290	F	1.879158	0.021463	0.224350
F291	F	1.312137	-0.304442	-0.738592
F292	F	1.812137	0.195558	-0.238592
F293	F	1.724277	-0.834997	-0.128472
F294	F	2.224277	-0.334997	0.371528
F295	F	1.379332	-0.275789	-0.478855
F296	F	1.879332	0.224211	0.021145
H297	H	1.396129	-0.268626	-0.387868
H298	H	1.896129	0.231374	0.112132
H299	H	1.640137	-0.164349	-0.472987
H300	H	2.140137	0.335651	0.027013
F301	F	1.724230	-0.128322	-0.835439
F302	F	2.224230	0.371678	-0.335439
F303	F	1.657088	-0.157014	-1.051257
F304	F	2.157088	0.342986	-0.551257
F305	F	1.312127	-0.304454	-0.694679
F306	F	1.812127	0.195546	-0.194679
