data_functionalizedCrystal
_audit_creation_method	'MofGen! by Chris Wilmer'
_symmetry_space_group_name_H-M	'P1'
_symmetry_Int_Tables_number	1
_symmetry_cell_setting	triclinic
loop_
_symmetry_equiv_pos_as_xyz
  x,y,z
_cell_length_a	17.077404
_cell_length_b	18.050589
_cell_length_c	17.077396
_cell_angle_alpha	90.024642
_cell_angle_beta	90.019501
_cell_angle_gamma	90.028446
loop_
_atom_site_label
_atom_site_type_symbol
_atom_site_fract_x
_atom_site_fract_y
_atom_site_fract_z
Zn1	Zn	1.200026	-0.295655	0.443864
Zn2	Zn	1.199920	-0.419852	0.312606
Zn3	Zn	1.068757	-0.295681	0.312612
Zn4	Zn	1.068713	-0.419808	0.443830
O5	O	1.134354	-0.357749	0.378228
O6	O	1.309858	-0.312138	0.426464
O7	O	1.182496	-0.403410	0.202760
O8	O	1.086233	-0.191753	0.330039
O9	O	1.309781	-0.403385	0.330030
O10	O	1.182675	-0.191734	0.426469
O11	O	1.086131	-0.312182	0.202764
O12	O	0.958905	-0.312139	0.330006
O13	O	1.086157	-0.403310	0.553681
O14	O	0.958872	-0.403335	0.426412
O15	O	1.182632	-0.312095	0.553706
O16	O	1.182453	-0.523771	0.329997
O17	O	1.086056	-0.523739	0.426407
C18	C	0.930406	-0.357736	0.378206
C19	C	0.843156	-0.357748	0.378216
C20	C	0.802170	-0.405305	0.428333
C21	C	0.720189	-0.405307	0.428346
C22	C	0.679197	-0.357754	0.378236
C23	C	0.720189	-0.310192	0.328116
C24	C	0.802168	-0.310187	0.328108
C25	C	0.549319	-0.310206	0.328135
C26	C	0.467335	-0.310212	0.328142
C27	C	0.467340	-0.405326	0.428373
C28	C	0.549319	-0.405321	0.428365
C29	C	0.590306	-0.357760	0.378244
C30	C	1.134259	-0.550701	0.378215
C31	C	1.134291	-0.633247	0.378236
C32	C	1.081921	-0.832707	0.430645
C33	C	1.062786	-0.882149	0.359016
C34	C	1.134368	-0.784377	0.378246
C35	C	1.153541	-0.882017	0.449883
C36	C	1.134441	-0.930362	0.378262
C37	C	1.115195	-0.832732	0.306579
C38	C	1.205984	-0.832596	0.397495
C39	C	1.186876	-0.882016	0.325816
C40	C	1.134324	-0.700279	0.378238
C41	C	1.134485	-1.014459	0.378262
C42	C	1.339098	-0.357763	0.378250
C43	C	1.426348	-0.357769	0.378260
C44	C	1.134402	-0.357694	0.582972
C45	C	1.134422	-0.357671	0.670222
C46	C	1.134471	-0.164043	0.378258
C47	C	1.134520	-0.081498	0.378271
C48	C	1.134352	-0.357750	0.174280
C49	C	1.134484	-0.357564	0.087031
C50	C	1.184658	-0.310172	0.711226
C51	C	1.184667	-0.310147	0.793207
C52	C	1.134444	-0.357626	0.834182
C53	C	1.084202	-0.405128	0.793172
C54	C	1.084190	-0.405148	0.711193
C55	C	1.084234	-0.405083	0.964042
C56	C	1.084248	-0.405064	1.046026
C57	C	1.184712	-0.310082	1.046056
C58	C	1.184699	-0.310102	0.964077
C59	C	1.134458	-0.357605	0.923073
H60	H	0.686822	-0.444033	0.469156
O61	O	0.842021	-0.451577	0.476899
C62	C	0.889415	-0.499477	0.432122
H63	H	0.864682	-0.503994	0.370291
H64	H	0.890330	-0.556663	0.460413
H65	H	0.951555	-0.476509	0.429454
O66	O	1.233511	-0.263913	0.924394
C67	C	1.277871	-0.221994	0.978162
H68	H	1.245734	-0.219402	1.036596
H69	H	1.286276	-0.163489	0.954484
H70	H	1.337474	-0.249192	0.986885
O71	O	0.427652	-0.451599	0.477087
C72	C	0.481412	-0.493560	0.521321
H73	H	0.539834	-0.496084	0.489157
H74	H	0.457704	-0.552086	0.529583
H75	H	0.490170	-0.466443	0.580990
H76	H	1.225577	-0.271470	0.826589
H77	H	0.835538	-0.271457	0.287301
O78	O	1.028829	-0.806905	0.483345
C79	C	0.953442	-0.832174	0.462771
H80	H	0.952006	-0.846062	0.397660
H81	H	0.908631	-0.787038	0.475817
H82	H	0.938728	-0.883853	0.498197
O83	O	0.990581	-0.908208	0.339702
C84	C	0.961486	-0.952244	0.401354
H85	H	1.012438	-0.973835	0.437940
H86	H	0.927321	-1.001002	0.376126
H87	H	0.921171	-0.917506	0.439848
H88	H	1.231259	-0.903530	0.281460
O89	O	1.095774	-0.806894	0.234346
C90	C	1.095957	-0.728787	0.235213
H91	H	1.087180	-0.708319	0.297756
H92	H	1.046451	-0.707284	0.196635
H93	H	1.154384	-0.707600	0.211950
H94	H	1.043307	-0.443783	0.826540
H95	H	1.266499	-0.810816	0.413795
O96	O	1.172767	-0.907758	0.522207
C97	C	1.117266	-0.882650	0.577248
H98	H	1.087352	-0.830688	0.553956
H99	H	1.148001	-0.869282	0.634817
H100	H	1.071567	-0.927674	0.587478
O101	O	1.233471	-0.263980	0.671548
C102	C	1.277825	-0.222063	0.725324
H103	H	1.245683	-0.219476	0.783755
H104	H	1.286230	-0.163556	0.701650
H105	H	1.337428	-0.249260	0.734049
H106	H	1.043310	-0.443753	0.930658
H107	H	1.043274	-0.443819	0.677808
O108	O	1.233433	-0.263951	1.086005
C109	C	1.222684	-0.274117	1.167147
H110	H	1.162094	-0.298438	1.178327
H111	H	1.228037	-0.218478	1.198308
H112	H	1.269228	-0.313655	1.190422
O113	O	0.589226	-0.451409	0.477081
C114	C	0.636671	-0.409181	0.527863
H115	H	0.648962	-0.352867	0.500275
H116	H	0.694311	-0.439437	0.538323
H117	H	0.605106	-0.401093	0.586052
O118	O	1.035384	-0.451204	1.085709
C119	C	0.991046	-0.493144	1.031941
H120	H	0.988336	-0.462742	0.973508
H121	H	0.929199	-0.501049	1.055621
H122	H	1.019750	-0.549555	1.023218
H123	H	0.433961	-0.271482	0.287347
O124	O	0.680493	-0.263929	0.279413
C125	C	0.734251	-0.221965	0.235163
H126	H	0.792703	-0.219427	0.267315
H127	H	0.710587	-0.163444	0.226895
H128	H	0.742934	-0.249090	0.175496
O129	O	0.589013	-0.263987	0.279368
C130	C	0.535256	-0.222007	0.235150
H131	H	0.476801	-0.252423	0.232391
H132	H	0.558916	-0.214020	0.173312
H133	H	0.526581	-0.165635	0.263989
