data_functionalizedCrystal
_audit_creation_method	'MofGen! by Chris Wilmer'
_symmetry_space_group_name_H-M	'P1'
_symmetry_Int_Tables_number	1
_symmetry_cell_setting	triclinic
loop_
_symmetry_equiv_pos_as_xyz
  x,y,z
_cell_length_a	14.519709
_cell_length_b	10.967926
_cell_length_c	9.482900
_cell_angle_alpha	92.549900
_cell_angle_beta	99.350820
_cell_angle_gamma	84.207347
loop_
_atom_site_label
_atom_site_type_symbol
_atom_site_fract_x
_atom_site_fract_y
_atom_site_fract_z
O1	O	0.162805	1.610558	0.282598
O2	O	0.164827	1.261349	0.195106
O3	O	0.029903	1.445210	0.241184
O4	O	0.297729	1.426696	0.236520
O5	O	0.057425	1.407864	0.473617
O6	O	0.192349	1.224002	0.427539
O7	O	0.190327	1.573212	0.515031
Cu8	Cu	0.193851	1.395197	0.492508
Cu9	Cu	0.161303	1.439363	0.217629
O10	O	0.325251	1.389350	0.468953
C11	C	0.176361	1.197984	0.300126
C12	C	0.169716	1.064816	0.266762
C13	C	0.181010	0.986099	0.372295
C14	C	0.174141	0.848463	0.337815
C15	C	0.009274	1.425674	0.357185
C16	C	-0.093198	1.423088	0.356538
C17	C	-0.468431	1.413573	0.354116
C18	C	-0.364029	1.416215	0.354789
C19	C	-0.280817	1.418330	0.355328
C20	C	-0.176409	1.420973	0.355999
C21	C	0.345880	1.408887	0.352949
C22	C	0.448350	1.411475	0.353587
C23	C	0.178792	1.636577	0.410008
C24	C	0.185437	1.769746	0.443362
N25	N	0.216743	1.364142	0.685845
N26	N	0.138404	1.470428	0.024294
C27	C	0.168050	1.430195	0.774598
C28	C	0.187104	1.404365	0.935542
H29	H	0.200189	0.804243	0.559248
Cl30	Cl	0.146928	1.011558	0.087851
H31	H	0.195759	1.020603	0.488172
Cl32	Cl	0.081691	1.546761	0.707898
Cl33	Cl	0.273246	1.287517	1.002167
Cl34	Cl	0.052462	1.587527	0.957736
H35	H	0.272533	1.288464	0.729010
H36	H	0.159384	0.813965	0.221930
