data_functionalizedCrystal
_audit_creation_method	'MofGen! by Chris Wilmer'
_symmetry_space_group_name_H-M	'P1'
_symmetry_Int_Tables_number	1
_symmetry_cell_setting	triclinic
loop_
_symmetry_equiv_pos_as_xyz
  x,y,z
_cell_length_a	8.559649
_cell_length_b	19.188930
_cell_length_c	7.088929
_cell_angle_alpha	83.792352
_cell_angle_beta	95.325015
_cell_angle_gamma	76.461723
loop_
_atom_site_label
_atom_site_type_symbol
_atom_site_fract_x
_atom_site_fract_y
_atom_site_fract_z
O1	O	2.103838	-0.015637	-0.158953
O2	O	1.638380	0.020435	-0.158972
O3	O	1.884545	-0.099961	-0.158924
O4	O	1.857673	0.104759	-0.159000
O5	O	1.917443	-0.116083	0.159057
O6	O	1.671278	0.004313	0.159009
O7	O	2.136736	-0.031759	0.159029
Cu8	Cu	1.907011	-0.015195	0.188053
Cu9	Cu	1.868105	0.003871	-0.187997
O10	O	1.890571	0.088637	0.158981
C11	C	1.595280	0.015108	0.000017
C12	C	1.417842	0.023245	0.000011
C13	C	1.900125	-0.133987	0.000072
C14	C	1.897515	-0.211356	0.000088
C15	C	2.041955	-0.263833	0.000103
C16	C	2.039498	-0.336527	0.000073
C17	C	1.892597	-0.356742	0.000065
C18	C	1.748137	-0.304254	0.000039
C19	C	1.750596	-0.231561	0.000050
N20	N	1.791505	-0.464363	0.108275
N21	N	1.789179	-0.533419	0.108268
C22	C	1.885180	-0.575761	0.000026
N23	N	1.983621	-0.546442	-0.108185
N24	N	1.985952	-0.477380	-0.108170
C25	C	1.889915	-0.435564	0.000051
C26	C	2.026966	-0.707062	0.000005
C27	C	2.024502	-0.779756	-0.000037
C28	C	1.733139	-0.747483	-0.000052
C29	C	1.735605	-0.674789	-0.000028
C30	C	1.882524	-0.654585	0.000009
C31	C	2.179836	-0.026431	0.000036
C32	C	2.357272	-0.034568	0.000029
C33	C	1.874991	0.122664	-0.000019
C34	C	1.877599	0.200034	-0.000048
N35	N	1.934386	-0.028606	0.452547
N36	N	1.840742	0.017276	-0.452490
H37	H	1.441159	-0.090289	0.000040
O38	O	1.317797	0.089760	-0.000357
C39	C	1.329557	0.135605	-0.165030
H40	H	1.374990	0.101531	-0.280118
H41	H	1.205291	0.172705	-0.220329
H42	H	1.417895	0.169650	-0.127803
O43	O	1.724921	0.074056	0.450393
C44	C	1.642257	0.114536	0.581449
H45	H	1.722467	0.104605	0.724180
H46	H	1.611687	0.174534	0.523446
H47	H	1.525774	0.097204	0.602695
O48	O	2.184797	-0.244326	0.000043
C49	C	2.311764	-0.306240	0.000100
H50	H	2.261075	-0.350271	-0.060113
H51	H	2.404816	-0.291838	-0.092202
H52	H	2.372069	-0.326677	0.152657
O53	O	2.179736	-0.387525	-0.000238
C54	C	2.169992	-0.422196	-0.164897
H55	H	2.076175	-0.385289	-0.280023
H56	H	2.293097	-0.434493	-0.220145
H57	H	2.132826	-0.474839	-0.127673
O58	O	2.169542	-0.687309	0.000104
C59	C	2.140738	-0.611893	0.000078
H60	H	2.022107	-0.591156	0.060281
H61	H	2.244262	-0.599260	0.092406
H62	H	2.132554	-0.584280	-0.152467
O63	O	1.610419	-0.180485	-0.000039
C64	C	1.644098	-0.111994	0.000034
H65	H	1.763405	-0.112877	-0.060153
H66	H	1.542449	-0.069372	-0.092284
H67	H	1.653671	-0.098349	0.152592
O68	O	2.050092	-0.085416	0.549761
C69	C	2.019333	-0.150680	0.501056
H70	H	1.942766	-0.139951	0.355679
H71	H	2.138944	-0.191220	0.494404
H72	H	1.951419	-0.173643	0.613698
O73	O	2.164976	-0.830648	0.000061
C74	C	2.295162	-0.797220	0.000051
H75	H	2.260431	-0.743728	0.060260
H76	H	2.405881	-0.834196	0.092382
H77	H	2.324448	-0.786703	-0.152490
H78	H	1.628528	-0.320718	0.000029
H79	H	1.613528	-0.763940	-0.000067
H80	H	1.617987	-0.632061	-0.000030
