data_functionalizedCrystal
_audit_creation_method	'MofGen! by Chris Wilmer'
_symmetry_space_group_name_H-M	'P1'
_symmetry_Int_Tables_number	1
_symmetry_cell_setting	triclinic
loop_
_symmetry_equiv_pos_as_xyz
  x,y,z
_cell_length_a	15.995292
_cell_length_b	14.853566
_cell_length_c	13.330367
_cell_angle_alpha	89.995295
_cell_angle_beta	90.007647
_cell_angle_gamma	96.448484
loop_
_atom_site_label
_atom_site_type_symbol
_atom_site_fract_x
_atom_site_fract_y
_atom_site_fract_z
O1	O	-0.109315	1.196198	-0.083364
O2	O	-0.122339	0.933717	-0.083381
O3	O	0.006056	1.072160	-0.083358
O4	O	-0.237709	1.057755	-0.083388
O5	O	0.006059	1.072140	0.083489
O6	O	-0.122336	0.933697	0.083466
O7	O	-0.109312	1.196178	0.083483
Cu8	Cu	-0.115824	1.064936	0.098709
Cu9	Cu	-0.115827	1.064959	-0.098607
O10	O	-0.237706	1.057735	0.083460
C11	C	-0.121747	0.900120	0.000040
C12	C	-0.119979	0.800039	0.000034
C13	C	-0.112504	0.376876	-0.090896
C14	C	-0.112501	0.376876	0.091007
C15	C	-0.114161	0.470907	0.091004
C16	C	-0.114994	0.517928	0.000049
C17	C	-0.114167	0.470916	-0.090902
C18	C	-0.114997	0.517925	0.181954
C19	C	-0.116658	0.611962	0.181954
C20	C	-0.117485	0.658984	0.090998
C21	C	-0.116657	0.611967	0.000043
C22	C	-0.117489	0.658988	-0.090911
C23	C	-0.116655	0.611973	-0.181867
C24	C	-0.114993	0.517939	-0.181858
C25	C	-0.119147	0.753019	0.090989
C26	C	-0.119152	0.753027	-0.090917
C27	C	-0.268904	1.058331	0.000032
C28	C	-0.361859	1.060089	0.000021
C29	C	-0.699605	1.066551	0.000054
C30	C	-0.676177	0.966627	0.000417
C31	C	-0.579499	0.964727	0.000031
C32	C	-0.532045	1.063344	0.000039
C33	C	-0.561217	1.113313	-0.095230
C34	C	-0.658009	1.114516	-0.095300
C35	C	-0.657843	1.116534	0.094437
C36	C	-0.561346	1.112830	0.095686
C37	C	-0.437347	1.061538	0.000026
C38	C	-0.794303	1.068360	0.000060
C39	C	0.037254	1.071564	0.000067
C40	C	0.130209	1.069806	0.000071
C41	C	-0.109903	1.229775	0.000059
C42	C	-0.111671	1.329856	0.000059
N43	N	-0.115821	1.064926	0.237490
N44	N	-0.115823	1.064977	-0.237389
C45	C	-0.172658	1.003654	0.710103
C46	C	-0.058990	1.126289	0.710092
C47	C	-0.058987	1.126278	0.605073
C48	C	-0.115822	1.064956	0.552565
C49	C	-0.172659	1.003644	0.605075
C50	C	-0.002157	1.187595	0.552555
C51	C	-0.002153	1.187588	0.447531
C52	C	-0.058984	1.126261	0.395020
C53	C	-0.115822	1.064946	0.447537
C54	C	-0.172657	1.003624	0.395028
C55	C	-0.229492	0.942303	0.447543
C56	C	-0.229490	0.942317	0.552564
C57	C	-0.058986	1.126248	0.289999
C58	C	-0.172658	1.003613	0.290000
H59	H	-0.560420	0.925586	0.068316
C60	C	-0.292007	0.874855	0.389777
H61	H	-0.283862	0.883634	0.319710
H62	H	-0.347909	0.884625	0.406977
H63	H	-0.282804	0.814689	0.406993
C64	C	-0.676858	1.215893	0.095329
H65	H	-0.651454	1.245745	0.152526
H66	H	-0.735985	1.217804	0.097782
H67	H	-0.654851	1.245431	0.036223
C68	C	0.060369	1.255028	0.389774
H69	H	0.094221	1.291546	0.436089
H70	H	0.030190	1.292543	0.348785
H71	H	0.095284	1.222595	0.348825
C72	C	0.003527	1.193736	0.767843
H73	H	0.037374	1.230252	0.721527
H74	H	0.038434	1.161317	0.808827
H75	H	-0.026661	1.231265	0.808797
H76	H	0.044112	1.237527	0.595311
C77	C	-0.713931	0.914576	0.092709
H78	H	-0.744326	0.953313	0.131847
H79	H	-0.669943	0.894683	0.131936
H80	H	-0.750837	0.863623	0.071280
H81	H	-0.012715	1.176178	0.247246
C82	C	-0.114101	0.466223	-0.281900
H83	H	-0.114833	0.507692	-0.336072
H84	H	-0.162249	0.422662	-0.285668
H85	H	-0.064664	0.436417	-0.285685
C86	C	-0.235174	0.936210	0.767862
H87	H	-0.227040	0.944998	0.837930
H88	H	-0.225980	0.876046	0.750660
H89	H	-0.291077	0.945991	0.750639
C90	C	-0.518279	1.211345	-0.100026
H91	H	-0.536810	1.240308	-0.158187
H92	H	-0.458997	1.210811	-0.102888
H93	H	-0.532554	1.243402	-0.041961
C94	C	-0.235178	0.936162	0.232244
H95	H	-0.227039	0.944934	0.162175
H96	H	-0.291077	0.945937	0.249450
H97	H	-0.225975	0.875997	0.249465
C98	C	-0.715332	0.914889	-0.091361
H99	H	-0.745891	0.953922	-0.129902
H100	H	-0.752284	0.864165	-0.069442
H101	H	-0.671973	0.894675	-0.131371
C102	C	-0.117576	0.663697	-0.281914
H103	H	-0.116846	0.622233	-0.336084
H104	H	-0.069439	0.707273	-0.285688
H105	H	-0.167024	0.693484	-0.285696
C106	C	-0.120071	0.804742	-0.190970
H107	H	-0.119342	0.763272	-0.245133
H108	H	-0.071933	0.848316	-0.194749
H109	H	-0.169518	0.834531	-0.194758
C110	C	-0.292008	0.874881	0.610331
H111	H	-0.283874	0.883679	0.680398
H112	H	-0.282818	0.814714	0.593141
H113	H	-0.347910	0.884663	0.593105
H114	H	-0.561058	0.925383	-0.068392
H115	H	-0.542727	1.076446	0.166165
H116	H	-0.111821	0.338594	-0.164950
H117	H	-0.672645	1.187781	-0.099620
C118	C	-0.111475	0.325172	0.191048
H119	H	-0.110329	0.262441	0.178026
H120	H	-0.160499	0.333658	0.228501
H121	H	-0.062916	0.347516	0.228334
C122	C	-0.694204	1.067788	-0.191509
H123	H	-0.753559	1.068115	-0.192403
H124	H	-0.681009	1.007024	-0.193003
H125	H	-0.670379	1.099413	-0.248482
C126	C	-0.113800	0.466243	0.281993
H127	H	-0.112594	0.403521	0.268968
H128	H	-0.162773	0.474661	0.319575
H129	H	-0.065193	0.488666	0.319151
C130	C	-0.534103	1.066452	-0.191028
H131	H	-0.552047	1.097186	-0.248280
H132	H	-0.558957	1.005291	-0.191875
H133	H	-0.474573	1.067980	-0.192033
H134	H	-0.117336	0.650233	0.256016
H135	H	-0.528455	1.184809	0.101448
H136	H	-0.119834	0.791292	0.165044
H137	H	-0.686056	1.085225	0.166651
