data_functionalizedCrystal
_audit_creation_method	'MofGen! by Chris Wilmer'
_symmetry_space_group_name_H-M	'P1'
_symmetry_Int_Tables_number	1
_symmetry_cell_setting	triclinic
loop_
_symmetry_equiv_pos_as_xyz
  x,y,z
_cell_length_a	19.288864
_cell_length_b	11.295483
_cell_length_c	19.288865
_cell_angle_alpha	94.075585
_cell_angle_beta	96.863755
_cell_angle_gamma	94.104860
loop_
_atom_site_label
_atom_site_type_symbol
_atom_site_fract_x
_atom_site_fract_y
_atom_site_fract_z
O1	O	0.926060	0.099422	-0.081937
O2	O	0.723796	0.099342	-0.093629
O3	O	0.830772	0.099360	0.013346
O4	O	0.819085	0.099403	-0.188912
O5	O	0.821376	-0.098692	0.003965
O6	O	0.714400	-0.098710	-0.103011
O7	O	0.916665	-0.098631	-0.091318
Cu8	Cu	0.814674	-0.116754	-0.098021
Cu9	Cu	0.825786	0.117466	-0.086926
O10	O	0.809689	-0.098649	-0.198294
C11	C	0.693221	0.000305	-0.097944
C12	C	0.616116	0.000274	-0.096817
C13	C	0.571421	0.000306	-0.159583
C14	C	0.498975	0.000319	-0.158522
C15	C	0.471227	0.000324	-0.094689
C16	C	0.515932	0.000285	-0.031915
C17	C	0.588376	0.000260	-0.032979
C18	C	0.366259	0.069740	-0.041222
C19	C	0.293816	0.069772	-0.040161
C20	C	0.247785	0.000395	-0.091406
C21	C	0.274206	-0.068999	-0.143724
C22	C	0.346650	-0.069024	-0.144788
C23	C	0.392675	0.000350	-0.093529
C24	C	0.124535	0.000439	-0.153026
C25	C	0.052087	0.000445	-0.151963
C26	C	0.069046	0.000423	-0.025354
C27	C	0.141492	0.000405	-0.026420
C28	C	0.169232	0.000419	-0.090258
N29	N	0.806864	-0.281492	-0.105824
C30	C	0.889825	-0.530767	-0.022909
C31	C	0.883927	-0.655432	-0.028811
C32	C	0.789169	-0.655488	-0.123525
C33	C	0.795066	-0.530824	-0.117623
C34	C	0.845397	-0.468467	-0.067314
C35	C	0.851297	-0.343801	-0.061417
C36	C	0.756536	-0.343859	-0.156127
C37	C	0.750638	-0.468524	-0.162029
C38	C	0.947240	0.000409	-0.087003
C39	C	1.024345	0.000448	-0.088130
N40	N	0.833602	0.282203	-0.079118
C41	C	0.825697	0.000331	0.034532
C42	C	0.824568	0.000320	0.111635
C43	C	0.814763	0.000383	-0.219479
C44	C	0.815893	0.000402	-0.296582
C45	C	0.887337	0.000339	0.156332
C46	C	0.886277	0.000357	0.228780
C47	C	0.822443	0.000333	0.256527
C48	C	0.759667	0.000320	0.211820
C49	C	0.760729	0.000314	0.139374
C50	C	0.768972	-0.069061	0.361527
C51	C	0.767912	-0.069062	0.433971
C52	C	0.819165	0.000358	0.479973
C53	C	0.871489	0.069763	0.453523
C54	C	0.872551	0.069756	0.381077
C55	C	0.821285	0.000340	0.335081
C56	C	0.880789	0.000398	0.603228
C57	C	0.879727	0.000424	0.675677
C58	C	0.753115	0.000376	0.658714
C59	C	0.754179	0.000362	0.586267
C60	C	0.818018	0.000368	0.558528
H61	H	0.272310	0.126281	0.002437
C62	C	0.227943	-0.101438	0.041011
C63	C	0.190627	0.000387	0.042577
H64	H	0.258273	-0.101453	0.083611
H65	H	0.254831	-0.101434	0.002847
H66	H	0.196029	-0.170486	0.035525
H67	H	0.222541	0.069436	0.048057
H68	H	0.163737	0.000394	0.080752
H69	H	0.727233	-0.125597	0.324076
H70	H	0.892280	-0.293031	-0.020454
C71	C	0.696079	-0.643038	-0.216539
C72	C	0.733838	-0.724043	-0.178810
H73	H	0.661915	-0.685363	-0.250664
H74	H	0.727208	-0.594403	-0.239159
H75	H	0.673497	-0.594423	-0.185381
H76	H	0.756425	-0.772653	-0.209968
H77	H	0.702704	-0.772698	-0.156190
H78	H	0.913224	0.126291	0.490977
H79	H	0.403732	0.126242	0.000510
H80	H	0.932771	0.000409	0.580642
H81	H	0.725304	-0.125568	0.455501
H82	H	0.701140	0.000362	0.681305
C83	C	0.512942	0.102088	0.081148
C84	C	0.485437	0.000294	0.038252
H85	H	0.494119	0.102084	0.124469
H86	H	0.500877	0.171150	0.058585
H87	H	0.562484	0.102052	0.089492
H88	H	0.435895	0.000334	0.029905
H89	H	0.497497	-0.068786	0.060821
C90	C	0.932822	-0.492326	0.099258
C91	C	0.945148	-0.462197	0.032378
H92	H	0.966976	-0.449983	0.133387
H93	H	0.935680	-0.575474	0.102104
H94	H	0.887454	-0.471934	0.107643
H95	H	0.990514	-0.482598	0.023991
H96	H	0.942297	-0.379031	0.029530
C97	C	0.689858	0.102100	0.288270
C98	C	0.689501	0.000292	0.242318
H99	H	0.646540	0.102080	0.307100
H100	H	0.696177	0.171152	0.263625
H101	H	0.727094	0.102100	0.325258
H102	H	0.652267	0.000296	0.205327
H103	H	0.683174	-0.068778	0.266964
C104	C	1.004981	0.000439	0.685160
C105	C	0.948728	0.000442	0.724812
H106	H	1.047579	0.000441	0.715496
H107	H	1.006044	0.069495	0.659816
H108	H	0.999474	-0.068637	0.653286
H109	H	0.954232	0.069522	0.756683
H110	H	0.947666	-0.068621	0.750168
C111	C	0.717192	-0.305499	-0.274667
C112	C	0.707696	-0.275380	-0.204945
H113	H	0.687046	-0.263217	-0.304805
H114	H	0.706475	-0.388660	-0.285372
H115	H	0.764495	-0.285026	-0.281110
H116	H	0.660395	-0.295861	-0.198501
H117	H	0.718408	-0.192201	-0.194237
C118	C	0.002280	0.102258	0.054116
C119	C	0.038559	0.000432	0.044815
H120	H	-0.016539	0.102263	0.097440
H121	H	-0.034708	0.102264	0.016892
H122	H	0.033490	0.171306	0.054338
H123	H	0.007348	-0.068616	0.044589
H124	H	0.075552	0.000416	0.082050
H125	H	0.709613	0.000298	0.102981
C126	C	1.000412	0.102186	0.153303
C127	C	0.957508	0.000360	0.125844
H128	H	1.043731	0.102201	0.134476
H129	H	1.008758	0.102182	0.202840
H130	H	0.977846	0.171233	0.141204
H131	H	0.980072	-0.068688	0.137947
H132	H	0.949164	0.000353	0.076296
C133	C	0.684537	0.102035	0.044092
C134	C	0.637512	0.000236	0.036019
H135	H	0.714874	0.102016	0.086687
H136	H	0.659213	0.171093	0.045150
H137	H	0.711423	0.102021	0.005918
H138	H	0.610622	0.000254	0.074190
H139	H	0.662838	-0.068841	0.034966
H140	H	0.709658	-0.519309	-0.202988
H141	H	0.937392	0.000377	0.265180
C142	C	0.547375	0.000326	-0.284623
C143	C	0.601911	0.000301	-0.229754
H144	H	0.566201	0.000313	-0.327943
H145	H	0.522770	0.069399	-0.278304
H146	H	0.516175	-0.068732	-0.284839
H147	H	0.633109	0.069364	-0.229535
H148	H	0.626528	-0.068779	-0.236075
H149	H	0.915154	0.126271	0.359544
H150	H	0.368159	-0.125530	-0.187385
C151	C	0.651419	0.102119	0.554321
C152	C	0.685178	0.000324	0.537132
H153	H	0.608816	0.102091	0.523990
H154	H	0.680877	0.171180	0.549190
H155	H	0.641657	0.102108	0.601440
H156	H	0.694945	0.000339	0.490015
H157	H	0.655713	-0.068755	0.542257
C158	C	0.412518	0.102190	-0.225935
C159	C	0.449832	0.000362	-0.227517
H160	H	0.382178	0.102212	-0.268527
H161	H	0.444428	0.171229	-0.220449
H162	H	0.385634	0.102174	-0.187760
H163	H	0.476720	0.000382	-0.265689
H164	H	0.417918	-0.068695	-0.233010
H165	H	0.236729	-0.125493	-0.185453
H166	H	0.920104	-0.706153	0.007350
C167	C	0.201022	0.102235	-0.222855
C168	C	0.155033	0.000435	-0.223195
H169	H	0.219845	0.102231	-0.266176
H170	H	0.238006	0.102216	-0.185628
H171	H	0.176397	0.171300	-0.216542
H172	H	0.179659	-0.068631	-0.229503
H173	H	0.118043	0.000443	-0.260433
C174	C	-0.066492	0.000492	-0.206549
C175	C	0.002954	0.000482	-0.220961
H176	H	-0.096824	0.000510	-0.249147
H177	H	-0.071585	0.069546	-0.177094
H178	H	-0.078168	-0.068586	-0.183642
H179	H	0.014631	0.069565	-0.243863
H180	H	0.008050	-0.068578	-0.250428
