data_functionalizedCrystal
_audit_creation_method	'MofGen! by Chris Wilmer'
_symmetry_space_group_name_H-M	'P1'
_symmetry_Int_Tables_number	1
_symmetry_cell_setting	triclinic
loop_
_symmetry_equiv_pos_as_xyz
  x,y,z
_cell_length_a	19.077115
_cell_length_b	19.121063
_cell_length_c	19.077174
_cell_angle_alpha	94.804191
_cell_angle_beta	85.484425
_cell_angle_gamma	90.263014
loop_
_atom_site_label
_atom_site_type_symbol
_atom_site_fract_x
_atom_site_fract_y
_atom_site_fract_z
Zn1	Zn	1.079659	-0.341255	-0.455830
Zn2	Zn	1.579659	0.158745	0.044170
Zn3	Zn	1.070212	-0.453789	-0.342559
Zn4	Zn	1.570212	0.046211	0.157441
Zn5	Zn	0.957448	-0.331437	-0.332827
Zn6	Zn	1.457448	0.168563	0.167173
Zn7	Zn	0.957108	-0.453743	-0.455677
Zn8	Zn	1.457108	0.046257	0.044323
O9	O	1.016107	-0.395056	-0.396723
O10	O	1.516107	0.104944	0.103277
O11	O	1.176886	-0.360311	-0.444942
O12	O	1.676886	0.139689	0.055058
O13	O	1.051443	-0.433469	-0.242451
O14	O	1.551443	0.066531	0.257549
O15	O	0.977756	-0.234459	-0.345134
O16	O	1.477756	0.265541	0.154866
O17	O	1.169946	-0.442989	-0.361723
O18	O	1.669946	0.057011	0.138277
O19	O	1.067543	-0.241672	-0.435505
O20	O	1.567543	0.258328	0.064495
O21	O	0.968596	-0.343578	-0.235300
O22	O	1.468596	0.156422	0.264700
O23	O	0.858923	-0.343533	-0.344985
O24	O	1.358923	0.156467	0.155015
O25	O	0.977176	-0.442910	-0.554515
O26	O	1.477176	0.057090	-0.054515
O27	O	0.858673	-0.433390	-0.435243
O28	O	1.358673	0.066610	0.064757
O29	O	1.067214	-0.360266	-0.554628
O30	O	1.567214	0.139734	-0.054628
O31	O	1.051113	-0.552063	-0.361574
O32	O	1.551113	-0.052063	0.138426
O33	O	0.968016	-0.552030	-0.444680
O34	O	1.468016	-0.052030	0.055320
C35	C	0.833263	-0.387392	-0.389042
C36	C	1.333263	0.112608	0.110958
C37	C	0.755042	-0.384131	-0.385773
C38	C	1.255042	0.115869	0.114227
C39	C	0.314753	-0.360712	-0.362334
C40	C	0.814753	0.139288	0.137666
C41	C	0.388250	-0.363780	-0.365410
C42	C	0.888250	0.136220	0.134590
C43	C	0.424879	-0.412169	-0.413869
C44	C	0.924879	0.087831	0.086131
C45	C	0.388007	-0.457488	-0.459261
C46	C	0.888007	0.042512	0.040739
C47	C	0.314511	-0.454416	-0.456189
C48	C	0.814511	0.045584	0.043811
C49	C	0.644675	-0.426378	-0.428093
C50	C	1.144675	0.073622	0.071907
C51	C	0.718175	-0.429448	-0.431160
C52	C	1.218175	0.070552	0.068840
C53	C	0.718413	-0.335739	-0.337309
C54	C	1.218413	0.164261	0.162691
C55	C	0.644916	-0.332674	-0.334238
C56	C	1.144916	0.167326	0.165762
C57	C	0.608051	-0.377990	-0.379633
C58	C	1.108051	0.122010	0.120367
N59	N	0.500005	-0.415308	-0.417012
N60	N	1.000005	0.084692	0.082988
N61	N	0.532927	-0.374848	-0.376493
N62	N	1.032927	0.125152	0.123507
C63	C	1.008522	-0.577531	-0.404183
C64	C	1.508522	-0.077531	0.095817
C65	C	1.005343	-0.655598	-0.407400
C66	C	1.505343	-0.155598	0.092600
C67	C	1.047150	-0.692272	-0.365681
C68	C	1.547150	-0.192272	0.134319
C69	C	1.044164	-0.765625	-0.368712
C70	C	1.544164	-0.265625	0.131288
C71	C	0.999367	-0.802303	-0.413457
C72	C	1.499367	-0.302303	0.086543
C73	C	0.957558	-0.765624	-0.455181
C74	C	1.457558	-0.265624	0.044819
C75	C	0.960549	-0.692273	-0.452154
C76	C	1.460549	-0.192273	0.047846
C77	C	0.988176	-1.023777	-0.424763
C78	C	1.488176	-0.523777	0.075237
C79	C	0.985187	-1.097133	-0.427786
C80	C	1.485187	-0.597133	0.072214
C81	C	1.071794	-1.097129	-0.341317
C82	C	1.571794	-0.597129	0.158683
C83	C	1.074777	-1.023776	-0.338291
C84	C	1.574777	-0.523776	0.161709
C85	C	1.032971	-0.987104	-0.380017
C86	C	1.532971	-0.487104	0.119983
C87	C	0.996312	-0.877281	-0.416554
C88	C	1.496312	-0.377281	0.083446
C89	C	1.036030	-0.912127	-0.376923
C90	C	1.536030	-0.412127	0.123077
C91	C	1.199665	-0.402750	-0.404435
C92	C	1.699665	0.097250	0.095565
C93	C	1.277886	-0.406029	-0.407722
C94	C	1.777886	0.093971	0.092278
C95	C	1.023211	-0.402678	-0.580910
C96	C	1.523211	0.097322	-0.080910
C97	C	1.026238	-0.405927	-0.659399
C98	C	1.526238	0.094073	-0.159399
C99	C	1.023741	-0.211869	-0.389251
C100	C	1.523741	0.288131	0.110749
C101	C	1.026994	-0.133806	-0.386067
C102	C	1.526994	0.366194	0.113933
C103	C	0.984528	-0.360652	-0.692550
C104	C	1.484528	0.139348	-0.192550
C105	C	0.987369	-0.363710	-0.766299
C106	C	1.487369	0.136290	-0.266299
C107	C	1.031925	-0.412039	-0.806896
C108	C	1.531925	0.087961	-0.306896
C109	C	1.073636	-0.457319	-0.773740
C110	C	1.573636	0.042681	-0.273740
C111	C	1.070791	-0.454264	-0.699992
C112	C	1.570791	0.045736	-0.199992
C113	C	1.045057	-0.426198	-1.027858
C114	C	1.545057	0.073802	-0.527858
C115	C	1.047901	-0.429248	-1.101611
C116	C	1.547901	0.070752	-0.601611
C117	C	0.961632	-0.335640	-1.094165
C118	C	1.461632	0.164360	-0.594165
C119	C	0.958794	-0.332586	-1.020416
C120	C	1.458794	0.167414	-0.520416
C121	C	1.000503	-0.377868	-0.987266
C122	C	1.500503	0.122132	-0.487266
N123	N	1.034832	-0.415165	-0.882280
N124	N	1.534832	0.084835	-0.382280
N125	N	0.997592	-0.374746	-0.911884
N126	N	1.497592	0.125254	-0.411884
C127	C	1.009074	-0.387414	-0.213253
C128	C	1.509074	0.112586	0.286747
C129	C	1.006191	-0.383973	-0.134762
C130	C	1.506191	0.116027	0.365238
H131	H	0.748437	-0.298844	-0.300352
H132	H	1.248437	0.201156	0.199648
H133	H	0.927675	-0.298775	-1.121163
H134	H	1.427675	0.201225	-0.621163
H135	H	1.109911	-0.496673	-0.806800
H136	H	1.609911	0.003327	-0.306800
H137	H	0.954135	-0.993924	-0.458737
H138	H	1.454135	-0.493924	0.041263
H139	H	1.084187	-0.468604	-1.134663
H140	H	1.584187	0.031396	-0.634663
H141	H	1.104761	-0.491126	-0.673002
H142	H	1.604761	0.008874	-0.173002
H143	H	0.615098	-0.293276	-0.294772
H144	H	1.115098	0.206724	0.205228
H145	H	0.948717	-1.126995	-0.464236
H146	H	1.448717	-0.626995	0.035764
H147	H	1.078207	-0.795481	-0.334739
H148	H	1.578207	-0.295481	0.165261
H149	H	0.418263	-0.326882	-0.328448
H150	H	0.918263	0.173118	0.171552
H151	H	0.948250	-0.321293	-0.659501
H152	H	1.448250	0.178707	-0.159501
H153	H	1.079011	-0.463077	-1.000877
H154	H	1.579011	0.036923	-0.500877
H155	H	0.953402	-0.326845	-0.793287
H156	H	1.453402	0.173155	-0.293287
H157	H	0.284935	-0.321309	-0.322873
H158	H	0.784935	0.178691	0.177127
H159	H	0.747997	-0.468852	-0.470625
H160	H	1.247997	0.031148	0.029375
H161	H	0.614668	-0.463280	-0.465054
H162	H	1.114668	0.036720	0.034946
H163	H	0.417836	-0.496884	-0.498721
H164	H	0.917836	0.003116	0.001279
H165	H	1.083625	-0.662413	-0.329241
H166	H	1.583625	-0.162413	0.170759
H167	H	0.284495	-0.491316	-0.493150
H168	H	0.784495	0.008684	0.006850
H169	H	0.922510	-0.293233	-0.987367
H170	H	1.422510	0.206767	-0.487367
H171	H	0.959837	-0.907152	-0.452985
H172	H	1.459837	-0.407152	0.047015
H173	H	1.072507	-0.882262	-0.340494
H174	H	1.572507	-0.382262	0.159506
H175	H	1.111254	-0.993914	-0.301855
H176	H	1.611254	-0.493914	0.198145
H177	H	1.105831	-1.126995	-0.307347
H178	H	1.605831	-0.626995	0.192653
H179	H	0.921087	-0.795493	-0.491617
H180	H	1.421087	-0.295493	0.008383
H181	H	0.926506	-0.662414	-0.486127
H182	H	1.426506	-0.162414	0.013873
