data_functionalizedCrystal
_audit_creation_method	'MofGen! by Chris Wilmer'
_symmetry_space_group_name_H-M	'P1'
_symmetry_Int_Tables_number	1
_symmetry_cell_setting	triclinic
loop_
_symmetry_equiv_pos_as_xyz
  x,y,z
_cell_length_a	9.065215
_cell_length_b	10.489746
_cell_length_c	8.140239
_cell_angle_alpha	89.996166
_cell_angle_beta	89.997810
_cell_angle_gamma	84.777999
loop_
_atom_site_label
_atom_site_type_symbol
_atom_site_fract_x
_atom_site_fract_y
_atom_site_fract_z
O1	O	1.959501	0.187025	-0.136596
O2	O	1.530141	0.202371	-0.136604
O3	O	1.754587	0.009135	-0.136587
O4	O	1.735055	0.380260	-0.136612
O5	O	1.754574	0.009133	0.136640
O6	O	1.530129	0.202368	0.136624
O7	O	1.959488	0.187022	0.136631
Zn8	Zn	1.744807	0.194695	0.180008
Zn9	Zn	1.744823	0.194698	-0.179980
O10	O	1.735043	0.380258	0.136615
C11	C	1.475156	0.200896	0.000009
C12	C	1.311334	0.196488	0.000007
C13	C	1.753104	-0.038403	0.000026
C14	C	1.748686	-0.180048	0.000025
C15	C	1.603262	-0.333429	0.000002
C16	C	1.675974	-0.255774	-0.134709
C17	C	1.675996	-0.255817	0.134672
C18	C	1.813599	-0.354770	-0.134834
C19	C	1.813601	-0.354819	0.134668
C20	C	1.886414	-0.277212	-0.000076
C21	C	2.014474	0.188498	0.000015
C22	C	2.178296	0.192905	0.000007
C23	C	1.736526	0.427796	-0.000002
C24	C	1.740944	0.569441	-0.000012
N25	N	1.744806	0.194692	0.425691
N26	N	1.744835	0.194691	-0.425663
H27	H	1.483542	-0.358580	-0.000135
Cl28	Cl	2.071386	-0.238747	-0.000182
H29	H	1.871666	-0.398109	0.248565
H30	H	1.871687	-0.397841	-0.248851
H31	H	1.617857	-0.212507	-0.248602
Cl32	Cl	1.586215	-0.189065	0.310506
