data_functionalizedCrystal
_audit_creation_method	'MofGen! by Chris Wilmer'
_symmetry_space_group_name_H-M	'P1'
_symmetry_Int_Tables_number	1
_symmetry_cell_setting	triclinic
loop_
_symmetry_equiv_pos_as_xyz
  x,y,z
_cell_length_a	18.266242
_cell_length_b	19.188928
_cell_length_c	19.188924
_cell_angle_alpha	96.857113
_cell_angle_beta	90.009637
_cell_angle_gamma	89.984096
loop_
_atom_site_label
_atom_site_type_symbol
_atom_site_fract_x
_atom_site_fract_y
_atom_site_fract_z
O1	O	0.061167	-0.926138	0.087164
O2	O	0.394501	-0.592805	0.420497
O3	O	0.727834	-0.259471	0.753830
O4	O	0.061107	-0.722826	0.098900
O5	O	0.394441	-0.389493	0.432233
O6	O	0.727774	-0.056159	0.765566
O7	O	0.061130	-0.830352	-0.008624
O8	O	0.394464	-0.497018	0.324709
O9	O	0.727797	-0.163685	0.658042
O10	O	0.061144	-0.818612	0.194688
O11	O	0.394478	-0.485279	0.528021
O12	O	0.727811	-0.151946	0.861354
O13	O	-0.060632	-0.830354	-0.008635
O14	O	0.272702	-0.497021	0.324699
O15	O	0.606035	-0.163687	0.658032
O16	O	-0.060655	-0.722828	0.098889
O17	O	0.272679	-0.389495	0.432223
O18	O	0.606012	-0.056162	0.765556
O19	O	-0.060595	-0.926140	0.087153
O20	O	0.272739	-0.592807	0.420487
O21	O	0.606072	-0.259474	0.753820
Zn22	Zn	-0.079957	-0.824485	0.093020
Zn23	Zn	0.253376	-0.491151	0.426353
Zn24	Zn	0.586710	-0.157818	0.759686
Zn25	Zn	0.080470	-0.824482	0.093033
Zn26	Zn	0.413803	-0.491148	0.426367
Zn27	Zn	0.747136	-0.157815	0.759700
O28	O	-0.060618	-0.818615	0.194677
O29	O	0.272716	-0.485281	0.528011
O30	O	0.606049	-0.151948	0.861344
C31	C	0.000218	-0.696816	0.098515
C32	C	0.333552	-0.363483	0.431848
C33	C	0.666885	-0.030150	0.765181
C34	C	0.000195	-0.619312	0.097375
C35	C	0.333528	-0.285978	0.430708
C36	C	0.666862	0.047355	0.764041
N37	N	-0.189444	-0.824492	0.093010
N38	N	0.143889	-0.491159	0.426343
N39	N	0.477223	-0.157825	0.759676
N40	N	0.189957	-0.824480	0.093037
N41	N	0.523290	-0.491147	0.426371
N42	N	0.856623	-0.157813	0.759704
C43	C	0.000209	-0.574386	0.160466
C44	C	0.333542	-0.241053	0.493799
C45	C	0.666875	0.092281	0.827133
C46	C	0.000213	-0.501562	0.159395
C47	C	0.333546	-0.168229	0.492728
C48	C	0.666880	0.165104	0.826062
C49	C	0.000218	-0.473667	0.095229
C50	C	0.333552	-0.140334	0.428562
C51	C	0.666885	0.192999	0.761896
C52	C	0.000200	-0.518603	0.032129
C53	C	0.333534	-0.185269	0.365463
C54	C	0.666867	0.148064	0.698796
C55	C	0.000189	-0.591425	0.033202
C56	C	0.333522	-0.258092	0.366535
C57	C	0.666856	0.075242	0.699869
N58	N	0.041680	-0.365687	0.046186
N59	N	0.375013	-0.032354	0.379520
N60	N	0.708346	0.300979	0.712853
N61	N	0.041692	-0.296509	0.045171
N62	N	0.375025	0.036825	0.378505
N63	N	0.708359	0.370158	0.711838
C64	C	0.000251	-0.254258	0.091993
C65	C	0.333585	0.079075	0.425326
C66	C	0.666918	0.412408	0.758659
N67	N	-0.041193	-0.283799	0.139878
N68	N	0.292140	0.049535	0.473211
N69	N	0.625474	0.382868	0.806544
N70	N	-0.041202	-0.352984	0.140895
N71	N	0.292131	-0.019650	0.474228
N72	N	0.625464	0.313683	0.807561
C73	C	0.000230	-0.394705	0.094058
C74	C	0.333564	-0.061371	0.427392
C75	C	0.666897	0.271962	0.760725
C76	C	0.000269	-0.130368	0.153927
C77	C	0.333602	0.202965	0.487260
C78	C	0.666935	0.536298	0.820594
C79	C	0.000268	-0.057543	0.152853
C80	C	0.333602	0.275790	0.486187
C81	C	0.666935	0.609123	0.819520
C82	C	0.000263	-0.074586	0.025586
C83	C	0.333596	0.258748	0.358919
C84	C	0.666930	0.592081	0.692252
C85	C	0.000256	-0.147409	0.026661
C86	C	0.333589	0.185925	0.359995
C87	C	0.666923	0.519258	0.693328
C88	C	0.000262	-0.175296	0.090834
C89	C	0.333596	0.158038	0.424167
C90	C	0.666929	0.491371	0.757501
C91	C	0.228276	-0.872177	0.045518
C92	C	0.561609	-0.538844	0.378852
C93	C	0.894942	-0.205510	0.712185
C94	C	0.304921	-0.872183	0.045517
C95	C	0.638254	-0.538850	0.378850
C96	C	0.971587	-0.205517	0.712184
C97	C	0.343244	-0.824481	0.093028
C98	C	0.676577	-0.491147	0.426361
C99	C	1.009910	-0.157814	0.759695
C100	C	0.304915	-0.776780	0.140556
C101	C	0.638248	-0.443447	0.473889
C102	C	0.971582	-0.110113	0.807223
C103	C	0.228272	-0.776780	0.140561
C104	C	0.561605	-0.443446	0.473894
C105	C	0.894938	-0.110113	0.807227
N106	N	0.463565	-0.762673	0.101955
N107	N	0.796898	-0.429340	0.435288
N108	N	1.130231	-0.096007	0.768621
N109	N	0.536373	-0.762676	0.101946
N110	N	0.869706	-0.429342	0.435279
N111	N	1.203039	-0.096009	0.768612
C112	C	0.574166	-0.824479	0.093017
C113	C	0.907499	-0.491146	0.426351
C114	C	1.240833	-0.157813	0.759684
N115	N	0.536400	-0.886283	0.084084
N116	N	0.869734	-0.552949	0.417418
N117	N	1.203067	-0.219616	0.750751
N118	N	0.463586	-0.886280	0.084089
N119	N	0.796919	-0.552946	0.417423
N120	N	1.130252	-0.219613	0.750756
C121	C	0.426350	-0.824476	0.093028
C122	C	0.759684	-0.491142	0.426362
C123	C	1.093017	-0.157809	0.759695
C124	C	0.695592	-0.872187	0.045494
C125	C	1.028926	-0.538854	0.378827
C126	C	1.362259	-0.205520	0.712161
C127	C	0.772239	-0.872194	0.045498
C128	C	1.105572	-0.538861	0.378831
C129	C	1.438905	-0.205528	0.712164
C130	C	0.772231	-0.776785	0.140533
C131	C	1.105565	-0.443452	0.473867
C132	C	1.438898	-0.110118	0.807200
C133	C	0.695587	-0.776784	0.140533
C134	C	1.028920	-0.443450	0.473866
C135	C	1.362253	-0.110117	0.807200
C136	C	0.657272	-0.824484	0.093010
C137	C	0.990605	-0.491151	0.426343
C138	C	1.323938	-0.157817	0.759677
C139	C	0.000249	-0.829973	-0.034641
C140	C	0.333582	-0.496640	0.298693
C141	C	0.666915	-0.163307	0.632026
C142	C	0.000246	-0.828835	-0.112145
C143	C	0.333580	-0.495501	0.221188
C144	C	0.666913	-0.162168	0.554521
C145	C	0.000283	0.047850	0.087540
C146	C	0.333616	0.381184	0.420874
C147	C	0.666950	0.714517	0.754207
C148	C	0.000272	-0.029654	0.088687
C149	C	0.333606	0.303680	0.422020
C150	C	0.666939	0.637013	0.755353
C151	C	0.066619	-0.828302	-0.148539
C152	C	0.399952	-0.494969	0.184795
C153	C	0.733286	-0.161635	0.518128
C154	C	0.066624	-0.827222	-0.221361
C155	C	0.399957	-0.493889	0.111972
C156	C	0.733291	-0.160555	0.445305
C157	C	0.000253	-0.826689	-0.257790
C158	C	0.333586	-0.493356	0.075543
C159	C	0.666920	-0.160022	0.408877
C160	C	-0.066128	-0.827218	-0.221387
C161	C	0.267205	-0.493884	0.111946
C162	C	0.600539	-0.160551	0.445279
C163	C	-0.066131	-0.828291	-0.148565
C164	C	0.267202	-0.494957	0.184768
C165	C	0.600535	-0.161624	0.518101
N166	N	-0.049134	-0.864738	-0.377458
N167	N	0.284199	-0.531404	-0.044124
N168	N	0.617533	-0.198071	0.289209
N169	N	-0.049126	-0.863720	-0.446636
N170	N	0.284207	-0.530387	-0.113303
N171	N	0.617540	-0.197053	0.220031
C172	C	0.000259	-0.823455	-0.477199
C173	C	0.333593	-0.490122	-0.143866
C174	C	0.666926	-0.156788	0.189468
N175	N	0.049648	-0.784255	-0.435972
N176	N	0.382981	-0.450921	-0.102638
N177	N	0.716314	-0.117588	0.230695
N178	N	0.049642	-0.785276	-0.366787
N179	N	0.382975	-0.451942	-0.033454
N180	N	0.716309	-0.118609	0.299879
C181	C	0.000249	-0.825525	-0.336753
C182	C	0.333583	-0.492192	-0.003420
C183	C	0.666916	-0.158858	0.329913
C184	C	0.066642	-0.821750	-0.592555
C185	C	0.399975	-0.488417	-0.259222
C186	C	0.733309	-0.155083	0.074112
C187	C	0.066644	-0.820666	-0.665378
C188	C	0.399978	-0.487333	-0.332045
C189	C	0.733311	-0.153999	0.001288
C190	C	-0.066110	-0.820669	-0.665404
C191	C	0.267224	-0.487335	-0.332071
C192	C	0.600557	-0.154002	0.001263
C193	C	-0.066110	-0.821746	-0.592581
C194	C	0.267223	-0.488413	-0.259248
C195	C	0.600556	-0.155079	0.074086
C196	C	0.000268	-0.822290	-0.556161
C197	C	0.333601	-0.488957	-0.222828
C198	C	0.666934	-0.155623	0.110505
C199	C	0.000266	-0.818993	0.220694
C200	C	0.333599	-0.485660	0.554027
C201	C	0.666932	-0.152326	0.887360
C202	C	0.000273	-0.820132	0.298198
C203	C	0.333606	-0.486798	0.631532
C204	C	0.666939	-0.153465	0.964865
H205	H	0.000215	-0.597086	0.212720
H206	H	0.333549	-0.263753	0.546054
H207	H	0.666882	0.069580	0.879387
F208	F	0.000245	-0.195224	-0.040490
F209	F	0.333579	0.138109	0.292843
F210	F	0.666912	0.471443	0.626176
H211	H	0.000222	-0.464977	0.210773
H212	H	0.333555	-0.131644	0.544107
H213	H	0.666889	0.201690	0.877440
F214	F	0.345701	-0.726013	0.191123
F215	F	0.679035	-0.392680	0.524456
F216	F	1.012368	-0.059347	0.857790
H217	H	0.197082	-0.911019	0.006824
H218	H	0.530415	-0.577686	0.340157
H219	H	0.863749	-0.244352	0.673491
F220	F	0.187488	-0.726012	0.191139
F221	F	0.520821	-0.392678	0.524472
F222	F	0.854154	-0.059345	0.857805
F223	F	0.654801	-0.726015	0.191106
F224	F	0.988135	-0.392682	0.524440
F225	F	1.321468	-0.059348	0.857773
H226	H	0.664395	-0.911030	0.006800
H227	H	0.997728	-0.577697	0.340133
H228	H	1.331062	-0.244363	0.673467
F229	F	-0.136777	-0.828856	-0.109831
F230	F	0.196556	-0.495523	0.223502
F231	F	0.529889	-0.162190	0.556835
H232	H	0.120691	-0.822189	-0.562900
H233	H	0.454024	-0.488856	-0.229566
H234	H	0.787357	-0.155522	0.103767
F235	F	0.345710	-0.922952	-0.005062
F236	F	0.679043	-0.589618	0.328271
F237	F	1.012376	-0.256285	0.661605
F238	F	0.813022	-0.922966	-0.005077
F239	F	1.146356	-0.589633	0.328256
F240	F	1.479689	-0.256299	0.661590
F241	F	0.813014	-0.726020	0.191102
F242	F	1.146347	-0.392687	0.524435
F243	F	1.479680	-0.059354	0.857769
H244	H	0.120695	-0.820229	-0.695008
H245	H	0.454028	-0.486895	-0.361675
H246	H	0.787362	-0.153562	-0.028341
H247	H	0.120669	-0.828743	-0.118890
H248	H	0.454002	-0.495410	0.214443
H249	H	0.787336	-0.162076	0.547777
F250	F	-0.136747	-0.820098	-0.704169
F251	F	0.196586	-0.486764	-0.370835
F252	F	0.529919	-0.153431	-0.037502
F253	F	0.137270	-0.826654	-0.260102
F254	F	0.470603	-0.493321	0.073232
F255	F	0.803936	-0.159988	0.406565
F256	F	-0.136754	-0.822313	-0.553847
F257	F	0.196579	-0.488980	-0.220514
F258	F	0.529913	-0.155646	0.112820
H259	H	-0.120168	-0.826782	-0.251052
H260	H	0.213165	-0.493448	0.082281
H261	H	0.546499	-0.160115	0.415615
F262	F	0.000262	-0.044902	-0.042705
F263	F	0.333595	0.288431	0.290628
F264	F	0.666928	0.621764	0.623961
F265	F	0.000203	-0.488914	-0.036161
F266	F	0.333536	-0.155581	0.297172
F267	F	0.666869	0.177753	0.630506
H268	H	0.000178	-0.628004	-0.018176
H269	H	0.333512	-0.294671	0.315157
H270	H	0.666845	0.038663	0.648490
F271	F	0.000270	-0.160050	0.222224
F272	F	0.333603	0.173283	0.555557
F273	F	0.666936	0.506617	0.888891
H274	H	0.000275	-0.020965	0.204232
H275	H	0.333608	0.312368	0.537566
H276	H	0.666942	0.645702	0.870899
