data_functionalizedCrystal
_audit_creation_method	'MofGen! by Chris Wilmer'
_symmetry_space_group_name_H-M	'P1'
_symmetry_Int_Tables_number	1
_symmetry_cell_setting	triclinic
loop_
_symmetry_equiv_pos_as_xyz
  x,y,z
_cell_length_a	15.538191
_cell_length_b	12.811468
_cell_length_c	14.750135
_cell_angle_alpha	72.066017
_cell_angle_beta	82.389686
_cell_angle_gamma	114.251496
loop_
_atom_site_label
_atom_site_type_symbol
_atom_site_fract_x
_atom_site_fract_y
_atom_site_fract_z
O1	O	-1.235311	-0.320532	-0.051950
O2	O	-0.958749	-0.195360	-0.062843
O3	O	-1.107486	-0.418708	-0.043400
O4	O	-1.086574	-0.097184	-0.071393
O5	O	-1.149625	-0.481818	0.121760
O6	O	-1.000888	-0.258469	0.102317
O7	O	-1.277450	-0.383642	0.113210
Zn8	Zn	-1.145859	-0.331076	0.133986
Zn9	Zn	-1.090340	-0.247926	-0.083619
O10	O	-1.128713	-0.160293	0.093767
C11	C	-0.944482	-0.213818	0.018598
C12	C	-0.839191	-0.174808	0.015203
C13	C	-1.128674	-0.490407	0.042673
C14	C	-1.129016	-0.610020	0.053081
C15	C	-1.291716	-0.365183	0.031767
C16	C	-1.397006	-0.404190	0.035155
C17	C	-0.558530	-0.562360	0.048930
C18	C	-0.459589	-0.525677	0.045735
C19	C	-0.433348	-0.319340	0.027771
C20	C	-0.532290	-0.356009	0.030969
C21	C	-0.594874	-0.477520	0.041547
C22	C	-0.568634	-0.271168	0.023587
C23	C	-0.667566	-0.307832	0.026779
C24	C	-0.730155	-0.429337	0.037354
C25	C	-0.693806	-0.514184	0.044740
C26	C	-0.506047	-0.149655	0.013001
C27	C	-0.542391	-0.064814	0.005619
C28	C	-0.641326	-0.101481	0.008818
C29	C	-0.703915	-0.222985	0.019393
C30	C	-0.677675	-0.016633	0.001432
C31	C	-0.776608	-0.053297	0.004625
C32	C	-0.802847	-0.259649	0.022585
C33	C	-1.107524	-0.088594	0.007692
C34	C	-1.107181	0.031021	-0.002723
C35	C	-1.152462	0.186994	0.157783
C36	C	-1.152140	0.299381	0.148002
C37	C	-1.106209	0.368189	-0.032065
C38	C	-1.106531	0.255801	-0.022284
C39	C	-1.129660	0.165206	0.072643
C40	C	-1.129988	0.052813	0.082423
C41	C	-1.084050	0.121626	-0.097643
C42	C	-1.083728	0.234013	-0.107424
N43	N	-1.052449	-0.191187	-0.232128
C44	C	-1.289529	-0.546195	-0.552954
C45	C	-1.262988	-0.506464	-0.656921
C46	C	-1.131032	-0.308876	-0.674134
C47	C	-1.157558	-0.348594	-0.570165
C48	C	-1.236808	-0.467254	-0.509583
C49	C	-1.104837	-0.269652	-0.526795
C50	C	-1.131365	-0.309364	-0.422835
C51	C	-1.210613	-0.428018	-0.362247
C52	C	-1.263335	-0.506966	-0.405624
C53	C	-1.025592	-0.150989	-0.587379
C54	C	-0.972871	-0.072047	-0.544008
C55	C	-0.999394	-0.111762	-0.440047
C56	C	-1.078643	-0.230416	-0.379458
C57	C	-0.946672	-0.032815	-0.396669
C58	C	-0.973200	-0.072527	-0.292710
C59	C	-1.105170	-0.270128	-0.275499
N60	N	-1.183757	-0.387826	0.282496
H61	H	-0.853809	-0.358598	0.031205
F62	F	-0.835447	-0.468356	0.040746
F63	F	-1.154608	-0.043606	0.183452
H64	H	-0.491421	0.034122	-0.002998
F65	F	-1.189509	-0.396428	-0.211019
F66	F	-0.611054	0.112688	-0.009841
H67	H	-1.170700	0.317118	0.217331
F68	F	-1.059132	0.330431	-0.208445
H69	H	-1.087375	0.441970	-0.109350
F70	F	-1.059780	0.098432	-0.188260
H71	H	-1.066508	-0.212260	-0.723471
H72	H	-0.806201	0.015785	-0.001378
H73	H	-1.232214	-0.460348	-0.277597
F74	F	-0.888532	0.054238	-0.608492
H75	H	-1.004000	-0.118658	-0.672029
H76	H	-0.744767	-0.613132	0.053360
F77	F	-0.366732	-0.190021	0.016507
F78	F	-1.347675	-0.633266	-0.341144
H79	H	-0.609491	-0.661309	0.057550
F80	F	-1.177091	0.090566	0.258810
F81	F	-0.917089	0.011496	-0.246552
F82	F	-1.373868	-0.672495	-0.488474
F83	F	-0.862339	0.093475	-0.461156
F84	F	-0.420918	-0.615991	0.053606
F85	F	-0.400753	-0.110636	0.009603
H86	H	-1.305928	-0.570758	-0.692227
