data_functionalizedCrystal
_audit_creation_method	'MofGen! by Chris Wilmer'
_symmetry_space_group_name_H-M	'P1'
_symmetry_Int_Tables_number	1
_symmetry_cell_setting	triclinic
loop_
_symmetry_equiv_pos_as_xyz
  x,y,z
_cell_length_a	19.077105
_cell_length_b	29.839131
_cell_length_c	19.077174
_cell_angle_alpha	92.270061
_cell_angle_beta	85.483752
_cell_angle_gamma	87.737628
loop_
_atom_site_label
_atom_site_type_symbol
_atom_site_fract_x
_atom_site_fract_y
_atom_site_fract_z
Zn1	Zn	1.093604	-0.218280	-0.441818
Zn2	Zn	1.088756	-0.290261	-0.323922
Zn3	Zn	0.970992	-0.212000	-0.319217
Zn4	Zn	0.975650	-0.290232	-0.437040
O5	O	1.032251	-0.252693	-0.380499
O6	O	1.191610	-0.230469	-0.430148
O7	O	1.069156	-0.277264	-0.224649
O8	O	0.987337	-0.149969	-0.335510
O9	O	1.188048	-0.283353	-0.343531
O10	O	1.077420	-0.154583	-0.425585
O11	O	0.982636	-0.219766	-0.221191
O12	O	0.872961	-0.219737	-0.330877
O13	O	0.995275	-0.283303	-0.536324
O14	O	0.876383	-0.277214	-0.417442
O15	O	1.081936	-0.230441	-0.539834
O16	O	1.073672	-0.353121	-0.338898
O17	O	0.990574	-0.353100	-0.422005
C18	C	0.849094	-0.247791	-0.373131
C19	C	0.770739	-0.245705	-0.369995
C20	C	0.735725	-0.274692	-0.413521
C21	C	0.662102	-0.272726	-0.410578
C22	C	0.623495	-0.241776	-0.364105
C23	C	0.658514	-0.212786	-0.320578
C24	C	0.732136	-0.214750	-0.323525
C25	C	0.403119	-0.232687	-0.350470
C26	C	0.329492	-0.230726	-0.347525
C27	C	0.333085	-0.290665	-0.437525
C28	C	0.406708	-0.292628	-0.440465
C29	C	0.441721	-0.263637	-0.396941
N30	N	0.548241	-0.239767	-0.361094
N31	N	0.516973	-0.265644	-0.399956
C32	C	1.032122	-0.369412	-0.380459
C33	C	1.032132	-0.419346	-0.380468
C34	C	1.075605	-0.728996	-0.337295
C35	C	1.075693	-0.916672	-0.337326
O36	O	1.112552	-0.940939	-0.300587
N37	N	1.032399	-0.940141	-0.380559
C38	C	0.989083	-0.916687	-0.423790
O39	O	0.952267	-0.940955	-0.460568
C40	C	0.988999	-0.729012	-0.423763
C41	C	1.032291	-0.705546	-0.380522
C42	C	1.118893	-0.705530	-0.294058
C43	C	1.118868	-0.658614	-0.294048
C44	C	1.075554	-0.635163	-0.337275
C45	C	1.032266	-0.658630	-0.380511
C46	C	0.945688	-0.705560	-0.466997
C47	C	0.945672	-0.658638	-0.466988
C48	C	0.988964	-0.635172	-0.423747
C49	C	0.988926	-0.588263	-0.423728
N50	N	1.032220	-0.564795	-0.380495
C51	C	1.075534	-0.588245	-0.337268
C52	C	0.989129	-1.015219	-0.423801
C53	C	0.989149	-1.062138	-0.423807
C54	C	1.075760	-1.062120	-0.337343
C55	C	1.075736	-1.015200	-0.337334
C56	C	1.032423	-0.991751	-0.380568
C57	C	1.075477	-0.489717	-0.337250
C58	C	1.075446	-0.442797	-0.337242
C59	C	0.988839	-0.442819	-0.423708
C60	C	0.988867	-0.489735	-0.423714
C61	C	1.032192	-0.513183	-0.380483
O62	O	0.952092	-0.563968	-0.460453
O63	O	1.112357	-0.563970	-0.300507
C64	C	1.075630	-0.775913	-0.337305
C65	C	1.032341	-0.799379	-0.380542
C66	C	0.989028	-0.775929	-0.423769
C67	C	1.032361	-0.846297	-0.380548
C68	C	1.075675	-0.869747	-0.337321
C69	C	1.118969	-0.846279	-0.294088
C70	C	1.118944	-0.799363	-0.294078
C71	C	0.945734	-0.799397	-0.467001
C72	C	0.945762	-0.846313	-0.467007
C73	C	0.989076	-0.869763	-0.423781
C74	C	1.216123	-0.257615	-0.387897
C75	C	1.294478	-0.259712	-0.391050
C76	C	1.039666	-0.257569	-0.564373
C77	C	1.042826	-0.259647	-0.642729
C78	C	1.032400	-0.135520	-0.380556
C79	C	1.032463	-0.085588	-0.380580
C80	C	0.999266	-0.230687	-0.677740
C81	C	1.002232	-0.232643	-0.751363
C82	C	1.048762	-0.263557	-0.789974
C83	C	1.092324	-0.292519	-0.754958
C84	C	1.089354	-0.290565	-0.681336
C85	C	1.062473	-0.272613	-1.010355
C86	C	1.065442	-0.274564	-1.083982
C87	C	0.975348	-0.214688	-1.080382
C88	C	0.972385	-0.212735	-1.006759
C89	C	1.015944	-0.241699	-0.971749
N90	N	1.051797	-0.265556	-0.865230
N91	N	1.012905	-0.239702	-0.896495
C92	C	1.024905	-0.247805	-0.197343
C93	C	1.021882	-0.245605	-0.118993
H94	H	0.304570	-0.314267	-0.472962
H95	H	1.130207	-0.317692	-0.786401
H96	H	0.438137	-0.317832	-0.478307
Cl97	Cl	0.947435	-0.196256	-0.795373
Cl98	Cl	0.609980	-0.173874	-0.262160
H99	H	1.154196	-0.780260	-0.258867
H100	H	0.910503	-0.865415	-0.502219
Cl101	Cl	1.144114	-0.326975	-0.637321
Cl102	Cl	0.913888	-0.173870	-0.958224
Cl103	Cl	0.940770	-0.191821	-0.629207
H104	H	0.767154	-0.299896	-0.451361
Cl105	Cl	0.920589	-0.178281	-1.124399
Cl106	Cl	0.934428	-0.519236	-0.478059
H107	H	1.097934	-0.296202	-0.981858
H108	H	0.633597	-0.296330	-0.446020
H109	H	1.103335	-0.299738	-1.115418
Cl110	Cl	1.130162	-0.985705	-0.282973
Cl111	Cl	0.280958	-0.191817	-0.289092
H112	H	0.431617	-0.209083	-0.315023
H113	H	1.110699	-0.423692	-0.302027
Cl114	Cl	0.776154	-0.178308	-0.268807
Cl115	Cl	0.891276	-0.769924	-0.521349
Cl116	Cl	1.129942	-0.519187	-0.282900
Cl117	Cl	1.173352	-0.735002	-0.239708
Cl118	Cl	1.173306	-0.629121	-0.239696
H119	H	1.111028	-1.081221	-0.302146
Cl120	Cl	0.934715	-1.091632	-0.478161
H121	H	0.910432	-0.724658	-0.502205
Cl122	Cl	0.891220	-0.629162	-0.521344
Cl123	Cl	0.934672	-0.985747	-0.478156
H124	H	0.953571	-0.423718	-0.458901
H125	H	1.154235	-0.865380	-0.258889
