data_functionalizedCrystal
_audit_creation_method	'MofGen! by Chris Wilmer'
_symmetry_space_group_name_H-M	'P1'
_symmetry_Int_Tables_number	1
_symmetry_cell_setting	triclinic
loop_
_symmetry_equiv_pos_as_xyz
  x,y,z
_cell_length_a	17.699083
_cell_length_b	14.971486
_cell_length_c	14.048226
_cell_angle_alpha	90.001501
_cell_angle_beta	89.992674
_cell_angle_gamma	96.551428
loop_
_atom_site_label
_atom_site_type_symbol
_atom_site_fract_x
_atom_site_fract_y
_atom_site_fract_z
O1	O	0.098633	-1.186608	-0.079053
O2	O	0.598633	-0.686608	0.420947
O3	O	0.110445	-0.926167	-0.079079
O4	O	0.610445	-0.426167	0.420921
O5	O	-0.005632	-1.063746	-0.079057
O6	O	0.494368	-0.563746	0.420943
O7	O	0.214710	-1.049030	-0.079075
O8	O	0.714710	-0.549030	0.420925
O9	O	-0.005639	-1.063729	0.079264
O10	O	0.494361	-0.563729	0.579264
O11	O	0.110438	-0.926151	0.079242
O12	O	0.610438	-0.426151	0.579242
O13	O	0.098626	-1.186591	0.079268
O14	O	0.598626	-0.686591	0.579268
Zn15	Zn	0.104531	-1.056368	0.104392
Zn16	Zn	0.604531	-0.556368	0.604392
Zn17	Zn	0.104540	-1.056390	-0.104203
Zn18	Zn	0.604540	-0.556390	0.395797
O19	O	0.214703	-1.049013	0.079246
O20	O	0.714703	-0.549013	0.579246
C21	C	0.109913	-0.892836	0.000078
C22	C	0.609913	-0.392836	0.500078
C23	C	0.108330	-0.793544	0.000068
C24	C	0.608330	-0.293544	0.500068
C25	C	-0.033834	-1.063210	0.000104
C26	C	0.466166	-0.563210	0.500104
C27	C	-0.117856	-1.061628	0.000104
C28	C	0.382144	-0.561628	0.500104
N29	N	0.104524	-1.056360	0.246753
N30	N	0.604524	-0.556360	0.746753
C31	C	-0.166278	-1.142384	0.000113
C32	C	0.333722	-0.642384	0.500113
C33	C	-0.245225	-1.140892	0.000105
C34	C	0.254775	-0.640892	0.500105
C35	C	-0.275748	-1.058644	0.000094
C36	C	0.224252	-0.558644	0.500094
C37	C	-0.227320	-0.977882	0.000081
C38	C	0.272680	-0.477882	0.500081
C39	C	-0.148374	-0.979375	0.000083
C40	C	0.351626	-0.479375	0.500083
C41	C	-0.545698	-0.971860	0.000073
C42	C	-0.045698	-0.471860	0.500073
C43	C	-0.624649	-0.970374	0.000074
C44	C	-0.124649	-0.470374	0.500074
C45	C	-0.642548	-1.133378	0.000095
C46	C	-0.142548	-0.633378	0.500095
C47	C	-0.563603	-1.134871	0.000096
C48	C	-0.063603	-0.634871	0.500096
C49	C	-0.515181	-1.054109	0.000079
C50	C	-0.015181	-0.554109	0.500079
C51	C	-0.429578	-1.055728	0.000087
C52	C	0.070422	-0.555728	0.500087
C53	C	-0.361350	-1.057024	0.000093
C54	C	0.138650	-0.557024	0.500093
C55	C	0.242905	-1.049549	0.000083
C56	C	0.742905	-0.549549	0.500083
C57	C	0.326927	-1.051131	0.000077
C58	C	0.826927	-0.551131	0.500077
C59	C	0.099158	-1.219923	0.000109
C60	C	0.599158	-0.719923	0.500109
C61	C	0.100741	-1.319214	0.000112
C62	C	0.600741	-0.819214	0.500112
C63	C	0.176522	-0.736085	0.000064
C64	C	0.676522	-0.236085	0.500064
C65	C	0.175030	-0.642790	0.000078
C66	C	0.675030	-0.142790	0.500078
C67	C	0.105346	-0.606958	0.000090
C68	C	0.605346	-0.106958	0.500090
C69	C	0.037148	-0.664425	0.000097
C70	C	0.537148	-0.164425	0.500097
C71	C	0.038641	-0.757717	0.000090
C72	C	0.538641	-0.257717	0.500090
C73	C	0.034042	-0.469973	0.000111
C74	C	0.534042	0.030027	0.500111
C75	C	0.032549	-0.376674	0.000117
C76	C	0.532549	0.123326	0.500117
C77	C	0.170431	-0.355046	0.000099
C78	C	0.670431	0.144954	0.500099
C79	C	0.171924	-0.448339	0.000092
C80	C	0.671924	0.051661	0.500092
C81	C	0.103726	-0.505799	0.000097
C82	C	0.603726	-0.005799	0.500097
N83	N	0.104541	-1.056406	-0.246564
N84	N	0.604541	-0.556406	0.253436
C85	C	0.053147	-1.117299	0.296581
C86	C	0.553147	-0.617299	0.796581
C87	C	0.053146	-1.117305	0.396238
C88	C	0.553146	-0.617305	0.896238
C89	C	0.104528	-1.056376	0.446066
C90	C	0.604528	-0.556376	0.946066
C91	C	0.155908	-0.995431	0.396231
C92	C	0.655908	-0.495431	0.896231
C93	C	0.155904	-0.995421	0.296576
C94	C	0.655904	-0.495421	0.796576
C95	C	0.155913	-0.995456	0.603946
C96	C	0.655913	-0.495456	1.103946
C97	C	0.155918	-0.995467	0.703608
C98	C	0.655918	-0.495467	1.203608
C99	C	0.053156	-1.117340	0.703608
C100	C	0.553156	-0.617340	1.203608
C101	C	0.053152	-1.117331	0.603953
C102	C	0.553152	-0.617331	1.103953
C103	C	0.104533	-1.056386	0.554125
C104	C	0.604533	-0.556386	1.054125
H105	H	-0.141433	-1.209360	0.000128
H106	H	0.358567	-0.709360	0.500128
H107	H	-0.506282	-0.906099	0.000059
H108	H	-0.006282	-0.406099	0.500059
H109	H	-0.021492	-0.516756	0.000117
H110	H	0.478508	-0.016756	0.500117
O111	O	-0.297446	-1.227999	0.000122
O112	O	0.202554	-0.727999	0.500122
H113	H	-0.333829	-1.231238	-0.064414
H114	H	0.166171	-0.731238	0.435586
O115	O	-0.260236	-0.889168	0.000066
O116	O	0.239764	-0.389168	0.500066
H117	H	-0.240789	-0.850364	0.064587
H118	H	0.259211	-0.350364	0.564587
H119	H	0.011317	-1.166948	0.563383
H120	H	0.511317	-0.666948	1.063383
H121	H	-0.649498	-0.903394	0.000067
H122	H	-0.149498	-0.403394	0.500067
H123	H	0.197751	-0.945826	0.563379
H124	H	0.697751	-0.445826	1.063379
O125	O	-0.694779	-1.220487	0.000104
O126	O	-0.194779	-0.720487	0.500104
H127	H	-0.683929	-1.259838	0.064646
H128	H	-0.183929	-0.759838	0.564646
H129	H	-0.024194	-0.347502	0.000127
H130	H	0.475806	0.152498	0.500127
O131	O	-0.002268	-1.183079	0.757336
O132	O	0.497732	-0.683079	1.257336
H133	H	-0.039117	-1.145524	0.802744
H134	H	0.460883	-0.645524	1.302744
H135	H	0.197741	-0.945816	0.436807
H136	H	0.697741	-0.445816	0.936807
O137	O	-0.096145	-0.892273	0.000086
O138	O	0.403855	-0.392273	0.500086
H139	H	-0.107001	-0.852905	-0.064443
H140	H	0.392999	-0.352905	0.435557
O141	O	-0.530679	-1.223580	0.000095
O142	O	-0.030679	-0.723580	0.500095
H143	H	-0.577614	-1.279486	0.000087
H144	H	-0.077614	-0.779486	0.500087
O145	O	0.251682	-0.774732	0.000061
O146	O	0.751682	-0.274732	0.500061
H147	H	0.298849	-0.719099	0.000073
H148	H	0.798849	-0.219099	0.500073
O149	O	0.248579	-0.580812	0.000074
O150	O	0.748579	-0.080812	0.500074
H151	H	0.297286	-0.621403	0.000053
H152	H	0.797286	-0.121403	0.500053
H153	H	-0.019590	-0.635242	0.000121
H154	H	0.480410	-0.135242	0.500121
H155	H	0.197757	-0.945851	0.744173
H156	H	0.697757	-0.445851	1.244173
O157	O	0.247081	-0.486993	0.000091
O158	O	0.747081	0.013007	0.500091
H159	H	0.294253	-0.431366	0.000103
H160	H	0.794253	0.068634	0.500103
O161	O	-0.034909	-0.819696	0.000102
O162	O	0.465091	-0.319696	0.500102
H163	H	-0.037526	-0.862725	-0.064423
H164	H	0.462474	-0.362725	0.435577
H165	H	0.011309	-1.166918	0.256017
H166	H	0.511309	-0.666918	0.756017
H167	H	0.225960	-0.308257	0.000099
H168	H	0.725960	0.191743	0.500099
O169	O	-0.002254	-1.183047	0.449985
O170	O	0.497746	-0.683047	0.949985
H171	H	-0.037972	-1.225426	0.398594
H172	H	0.462028	-0.725426	0.898594
O173	O	0.211321	-0.929699	0.242825
O174	O	0.711321	-0.429699	0.742825
H175	H	0.247057	-0.887339	0.294214
H176	H	0.747057	-0.387339	0.794214
