data_functionalizedCrystal
_audit_creation_method	'MofGen! by Chris Wilmer'
_symmetry_space_group_name_H-M	'P1'
_symmetry_Int_Tables_number	1
_symmetry_cell_setting	triclinic
loop_
_symmetry_equiv_pos_as_xyz
  x,y,z
_cell_length_a	18.101398
_cell_length_b	14.908520
_cell_length_c	14.908858
_cell_angle_alpha	90.221996
_cell_angle_beta	93.272135
_cell_angle_gamma	86.683700
loop_
_atom_site_label
_atom_site_type_symbol
_atom_site_fract_x
_atom_site_fract_y
_atom_site_fract_z
Zn1	Zn	1.091540	0.328709	-0.529182
Zn2	Zn	1.090628	0.487763	-0.387495
Zn3	Zn	0.974406	0.337411	-0.378826
Zn4	Zn	0.960141	0.479016	-0.537788
O5	O	1.029179	0.408225	-0.458323
O6	O	1.195050	0.349826	-0.510414
O7	O	1.080800	0.475121	-0.260523
O8	O	0.996295	0.210430	-0.391541
O9	O	1.194380	0.466683	-0.406317
O10	O	1.082353	0.204037	-0.502008
O11	O	0.995411	0.364658	-0.254154
O12	O	0.868883	0.356177	-0.399886
O13	O	0.971983	0.451775	-0.662469
O14	O	0.858402	0.460214	-0.516674
O15	O	1.068522	0.341345	-0.656146
O16	O	1.066968	0.612429	-0.414662
O17	O	0.971099	0.606003	-0.525081
C18	C	0.836772	0.408191	-0.458274
C19	C	0.754458	0.408197	-0.458275
C20	C	1.017406	0.641841	-0.471765
C21	C	1.012436	0.741781	-0.477546
C22	C	1.018763	0.394614	-0.692844
C23	C	1.014324	0.388814	-0.792783
C24	C	0.455361	0.408249	-0.458354
C25	C	0.493257	0.342425	-0.385193
C26	C	0.578879	0.342629	-0.384909
C27	C	0.603746	0.408222	-0.458315
C28	C	0.569049	0.504435	-0.437888
C29	C	0.483445	0.504075	-0.437385
C30	C	0.483932	0.378674	-0.552153
C31	C	0.569712	0.376595	-0.551512
C32	C	0.687607	0.408213	-0.458295
C33	C	0.371499	0.408265	-0.458373
C34	C	1.222337	0.408259	-0.458373
C35	C	1.304649	0.408274	-0.458394
C36	C	1.041017	0.173696	-0.444848
C37	C	1.046062	0.073753	-0.439105
C38	C	1.103018	0.936204	-0.373522
C39	C	1.098350	1.030107	-0.378951
C40	C	0.998438	1.023491	-0.493836
C41	C	1.003105	0.929588	-0.488408
C42	C	1.055396	0.885948	-0.428248
C43	C	1.060059	0.792044	-0.422815
C44	C	0.960151	0.785429	-0.537704
C45	C	0.955484	0.879332	-0.543133
C46	C	0.963616	0.323129	-0.930326
C47	C	0.967784	0.328577	-0.836424
C48	C	1.056702	0.443604	-0.843050
C49	C	1.052534	0.438156	-0.936952
C50	C	1.005989	0.377917	-0.980586
C51	C	1.001817	0.372474	-1.074490
C52	C	1.090739	0.487497	-1.081114
C53	C	1.094906	0.492945	-0.987213
C54	C	1.039600	0.421718	-0.224710
C55	C	1.044195	0.427265	-0.124757
H56	H	0.602706	0.271455	-0.397086
O57	O	0.609090	0.369113	-0.292697
H58	H	0.670421	0.369342	-0.292169
H59	H	0.955870	1.059038	-0.542821
O60	O	1.145104	0.557912	-0.940140
H61	H	1.203205	0.541453	-0.957285
O62	O	0.899086	0.926414	-0.608008
H63	H	0.909496	0.904266	-0.677552
H64	H	0.457887	0.555074	-0.488645
O65	O	0.908784	0.731227	-0.596739
H66	H	0.920815	0.658598	-0.582863
O67	O	0.951623	0.307501	-1.121559
H68	H	0.922867	0.270311	-1.070829
H69	H	0.592497	0.529184	-0.370251
H70	H	0.465517	0.528513	-0.368976
O71	O	0.458470	0.286974	-0.578154
H72	H	0.425162	0.261453	-0.524505
H73	H	0.584568	0.555031	-0.489747
H74	H	1.145590	0.900672	-0.324531
H75	H	0.458836	0.426551	-0.606598
H76	H	1.137130	1.071022	-0.334390
H77	H	0.933281	0.283961	-0.795505
O78	O	0.913417	0.258163	-0.977399
H79	H	0.884654	0.220976	-0.926672
O80	O	0.600118	0.282775	-0.572060
H81	H	0.639311	0.258764	-0.516138
O82	O	1.136448	0.546594	-1.135321
H83	H	1.125735	0.532684	-1.207948
O84	O	0.467823	0.368613	-0.293500
H85	H	0.516466	0.384863	-0.248941
O86	O	1.106907	0.508565	-0.795980
H87	H	1.073354	0.556790	-0.755818
O88	O	0.469675	0.247893	-0.401051
H89	H	0.485995	0.224648	-0.468304
O90	O	1.116460	0.744968	-0.357938
H91	H	1.148796	0.795694	-0.320805
H92	H	0.586340	0.420605	-0.608502
