data_functionalizedCrystal
_audit_creation_method	'MofGen! by Chris Wilmer'
_symmetry_space_group_name_H-M	'P1'
_symmetry_Int_Tables_number	1
_symmetry_cell_setting	triclinic
loop_
_symmetry_equiv_pos_as_xyz
  x,y,z
_cell_length_a	16.120530
_cell_length_b	16.120484
_cell_length_c	10.686551
_cell_angle_alpha	91.292191
_cell_angle_beta	97.503409
_cell_angle_gamma	90.167327
loop_
_atom_site_label
_atom_site_type_symbol
_atom_site_fract_x
_atom_site_fract_y
_atom_site_fract_z
Zn1	Zn	1.299168	-0.355207	0.840318
Zn2	Zn	1.281321	-0.503929	0.639338
Zn3	Zn	1.148285	-0.358860	0.618040
Zn4	Zn	1.152958	-0.487215	0.839163
O5	O	1.220433	-0.426303	0.734215
O6	O	1.413665	-0.380401	0.823054
O7	O	1.254249	-0.493209	0.459862
O8	O	1.173813	-0.242418	0.639095
O9	O	1.400554	-0.489666	0.675396
O10	O	1.284665	-0.239733	0.802402
O11	O	1.156508	-0.386628	0.444214
O12	O	1.032039	-0.370421	0.637975
O13	O	1.181778	-0.461180	1.015967
O14	O	1.035473	-0.464723	0.800433
O15	O	1.289197	-0.364194	1.016816
O16	O	1.258781	-0.617670	0.674276
O17	O	1.164473	-0.605390	0.821086
C18	C	1.003454	-0.416155	0.716769
C19	C	0.910631	-0.411833	0.709336
C20	C	0.740682	-0.403921	0.695777
C21	C	0.701026	-0.448741	0.772749
C22	C	0.606461	-0.444339	0.765205
C23	C	0.835256	-0.408322	0.703320
C24	C	1.210222	-0.641596	0.749896
C25	C	1.205932	-0.733701	0.756653
C26	C	1.198106	-0.902338	0.769015
C27	C	1.242911	-0.949433	0.699447
C28	C	1.238556	-1.043268	0.706325
C29	C	1.202459	-0.808494	0.762138
C30	C	1.438259	-0.436490	0.751730
C31	C	1.531083	-0.440832	0.759194
C32	C	1.238000	-0.410415	1.063476
C33	C	1.245485	-0.403645	1.203788
C34	C	1.230708	-0.210168	0.718502
C35	C	1.235087	-0.118065	0.711806
C36	C	1.202986	-0.442071	0.406234
C37	C	1.195673	-0.448615	0.265919
H38	H	1.284539	-0.919280	0.634720
H39	H	0.738096	-0.490417	0.844315
N40	N	1.309572	-0.345778	1.275498
H41	H	1.349560	-0.378652	1.335761
H42	H	1.280283	-0.303191	1.324605
N43	N	1.142963	-0.942270	0.854744
H44	H	1.147630	-1.004614	0.847559
H45	H	1.082961	-0.925420	0.829139
H46	H	1.147301	-0.492298	1.211770
N47	N	0.691581	-0.348738	0.600961
H48	H	0.659948	-0.306258	0.646713
H49	H	0.650718	-0.383614	0.542042
