data_functionalizedCrystal
_audit_creation_method	'MofGen! by Chris Wilmer'
_symmetry_space_group_name_H-M	'P1'
_symmetry_Int_Tables_number	1
_symmetry_cell_setting	triclinic
loop_
_symmetry_equiv_pos_as_xyz
  x,y,z
_cell_length_a	17.699083
_cell_length_b	13.262508
_cell_length_c	16.776229
_cell_angle_alpha	105.911687
_cell_angle_beta	89.998886
_cell_angle_gamma	83.879892
loop_
_atom_site_label
_atom_site_type_symbol
_atom_site_fract_x
_atom_site_fract_y
_atom_site_fract_z
O1	O	1.004670	0.132726	-0.037398
O2	O	1.504670	0.632726	0.462602
O3	O	0.784368	0.149994	-0.033680
O4	O	1.284368	0.649994	0.466320
O5	O	0.900065	-0.011440	-0.068664
O6	O	1.400065	0.488560	0.431336
O7	O	0.888973	0.294161	-0.002415
O8	O	1.388973	0.794161	0.497585
O9	O	0.900049	-0.011450	0.063910
O10	O	1.400049	0.488550	0.563910
O11	O	0.784353	0.149984	0.098894
O12	O	1.284353	0.649984	0.598894
O13	O	1.004654	0.132716	0.095176
O14	O	1.504654	0.632716	0.595176
Zn15	Zn	0.894501	0.141349	0.118084
Zn16	Zn	1.394501	0.641349	0.618084
Zn17	Zn	0.894521	0.141362	-0.056588
Zn18	Zn	1.394521	0.641362	0.443412
O19	O	0.888958	0.294151	0.130160
O20	O	1.388958	0.794151	0.630160
C21	C	0.756161	0.149371	0.032469
C22	C	1.256161	0.649371	0.532469
C23	C	0.672134	0.147514	0.032057
C24	C	1.172134	0.647514	0.532057
C25	C	0.623936	0.242273	0.052599
C26	C	1.123936	0.742273	0.552599
C27	C	0.544984	0.240523	0.052230
C28	C	1.044984	0.740523	0.552230
C29	C	0.514234	0.144012	0.031313
C30	C	1.014234	0.644012	0.531313
C31	C	0.562439	0.049246	0.010771
C32	C	1.062439	0.549246	0.510771
C33	C	0.641388	0.050998	0.011146
C34	C	1.141388	0.550998	0.511146
C35	C	0.244044	0.042181	0.009259
C36	C	0.744044	0.542181	0.509259
C37	C	0.165088	0.040437	0.008883
C38	C	0.665088	0.540437	0.508883
C39	C	0.147640	0.231706	0.050343
C40	C	0.647640	0.731706	0.550343
C41	C	0.226590	0.233457	0.050718
C42	C	0.726590	0.733457	0.550718
C43	C	0.274788	0.138692	0.030181
C44	C	0.774788	0.638692	0.530181
C45	C	0.360396	0.140591	0.030583
C46	C	0.860396	0.640591	0.530583
C47	C	0.428628	0.142112	0.030905
C48	C	0.928628	0.642112	0.530905
C49	C	0.899436	-0.050546	-0.010855
C50	C	1.399436	0.449454	0.489145
C51	C	0.897579	-0.167055	-0.036118
C52	C	1.397579	0.332945	0.463882
C53	C	0.892305	-0.495509	0.181744
C54	C	1.392305	0.004491	0.681744
C55	C	0.894044	-0.386042	0.205481
C56	C	1.394044	0.113958	0.705481
C57	C	0.894928	-0.331290	0.145083
C58	C	1.394928	0.168710	0.645083
C59	C	0.894072	-0.386016	0.060944
C60	C	1.394072	0.113984	0.560944
C61	C	0.892327	-0.495492	0.037205
C62	C	1.392327	0.004508	0.537205
C63	C	0.894950	-0.331273	0.000544
C64	C	1.394950	0.168727	0.500544
C65	C	0.894094	-0.385999	-0.083594
C66	C	1.394094	0.114001	0.416406
C67	C	0.892349	-0.495465	-0.107329
C68	C	1.392349	0.004535	0.392671
C69	C	0.891465	-0.550217	-0.046932
C70	C	1.391465	-0.050217	0.453068
C71	C	0.896696	-0.221797	0.024283
C72	C	1.396696	0.278203	0.524283
C73	C	0.896717	-0.221780	-0.120255
C74	C	1.396717	0.278220	0.379745
C75	C	0.894978	-0.331247	-0.143992
C76	C	1.394978	0.168753	0.356008
C77	C	1.032862	0.133340	0.029025
C78	C	1.532862	0.633340	0.529025
C79	C	1.116888	0.135196	0.029432
C80	C	1.616888	0.635196	0.529432
C81	C	0.889586	0.333257	0.072349
C82	C	1.389586	0.833257	0.572349
C83	C	0.891444	0.449766	0.097607
C84	C	1.391444	0.949766	0.597607
N85	N	0.894493	0.141339	0.237293
N86	N	1.394493	0.641339	0.737293
N87	N	0.894536	0.141363	-0.175799
N88	N	1.394536	0.641363	0.324201
C89	C	0.945739	0.069885	0.263526
C90	C	1.445739	0.569885	0.763526
C91	C	0.945743	0.069884	0.346978
C92	C	1.445743	0.569884	0.846978
C93	C	0.894504	0.141343	0.404197
C94	C	1.394504	0.641343	0.904197
C95	C	0.843253	0.212801	0.377959
C96	C	1.343253	0.712801	0.877959
C97	C	0.843245	0.212796	0.294507
C98	C	1.343245	0.712796	0.794507
C99	C	0.843280	0.212821	0.714511
C100	C	1.343280	0.712821	1.214511
C101	C	0.843293	0.212823	0.797968
C102	C	1.343293	0.712823	1.297968
C103	C	0.945778	0.069910	0.766981
C104	C	1.445778	0.569910	1.266981
C105	C	0.945770	0.069905	0.683529
C106	C	1.445770	0.569905	1.183529
C107	C	0.894517	0.141358	0.657298
C108	C	1.394517	0.641358	1.157298
C109	C	0.894512	0.141357	0.566810
C110	C	1.394512	0.641357	1.066810
C111	C	0.894512	0.141350	0.494685
C112	C	1.394512	0.641350	0.994685
H113	H	0.108388	0.308868	0.067070
H114	H	0.608388	0.808868	0.567070
Cl115	Cl	0.304626	-0.076954	-0.016560
Cl116	Cl	0.804626	0.423046	0.483440
H117	H	0.987471	0.011701	0.368335
H118	H	1.487471	0.511701	0.868335
H119	H	0.987509	0.011725	0.788346
H120	H	1.487509	0.511725	1.288346
H121	H	0.891645	-0.540018	-0.175840
H122	H	1.391645	-0.040018	0.324160
Cl123	Cl	0.126432	-0.080900	-0.017414
Cl124	Cl	0.626432	0.419100	0.482586
Cl125	Cl	0.778851	0.302650	0.681540
Cl126	Cl	1.278851	0.802650	1.181540
H127	H	0.801565	0.271016	0.844556
H128	H	1.301565	0.771016	1.344556
Cl129	Cl	0.523781	-0.072082	-0.015520
Cl130	Cl	1.023781	0.427918	0.484480
Cl131	Cl	0.778833	0.302632	0.449889
Cl132	Cl	1.278833	0.802632	0.949889
H133	H	0.897432	-0.177200	-0.169436
H134	H	1.397432	0.322800	0.330564
H135	H	0.680632	-0.026165	-0.005582
H136	H	1.180632	0.473835	0.494418
Cl137	Cl	0.662585	0.363608	0.078892
Cl138	Cl	1.162585	0.863608	0.578892
H139	H	0.894280	-0.375820	-0.212499
H140	H	1.394280	0.124180	0.287501
Cl141	Cl	1.010189	-0.019929	0.611600
Cl142	Cl	1.510189	0.480071	1.111600
Cl143	Cl	1.010161	-0.019950	0.191602
Cl144	Cl	1.510161	0.480050	0.691602
Cl145	Cl	0.778816	0.302625	0.261530
Cl146	Cl	1.278816	0.802625	0.761530
Cl147	Cl	0.891179	-0.564342	0.257662
Cl148	Cl	1.391179	-0.064342	0.757662
H149	H	0.505744	0.317685	0.068957
H150	H	1.005744	0.817685	0.568957
Cl151	Cl	0.897773	-0.153013	0.130054
Cl152	Cl	1.397773	0.346987	0.630054
H153	H	0.251622	0.312046	0.067748
H154	H	0.751622	0.812046	0.567748
H155	H	0.896343	-0.242157	0.164415
H156	H	1.396343	0.257843	0.664415
Cl157	Cl	0.895108	-0.317250	0.311250
Cl158	Cl	1.395108	0.182750	0.811250
Cl159	Cl	0.889278	-0.687839	-0.076769
Cl160	Cl	1.389278	-0.187839	0.423231
