data_functionalizedCrystal
_audit_creation_method	'MofGen! by Chris Wilmer'
_symmetry_space_group_name_H-M	'P1'
_symmetry_Int_Tables_number	1
_symmetry_cell_setting	triclinic
loop_
_symmetry_equiv_pos_as_xyz
  x,y,z
_cell_length_a	17.699083
_cell_length_b	16.176319
_cell_length_c	17.699092
_cell_angle_alpha	90.001763
_cell_angle_beta	83.284691
_cell_angle_gamma	90.004302
loop_
_atom_site_label
_atom_site_type_symbol
_atom_site_fract_x
_atom_site_fract_y
_atom_site_fract_z
O1	O	1.004080	0.068711	0.095709
O2	O	1.504080	0.568711	0.595709
O3	O	0.783702	0.068719	0.108162
O4	O	1.283702	0.568719	0.608162
O5	O	0.900114	0.068713	-0.008253
O6	O	1.400114	0.568713	0.491747
O7	O	0.887668	0.068717	0.212124
O8	O	1.387668	0.568717	0.712124
O9	O	0.900101	-0.068780	-0.008254
O10	O	1.400101	0.431220	0.491746
O11	O	0.783689	-0.068774	0.108161
O12	O	1.283689	0.431226	0.608161
O13	O	1.004067	-0.068782	0.095709
O14	O	1.504067	0.431218	0.595709
Cu15	Cu	0.893877	-0.081332	0.101935
Cu16	Cu	1.393877	0.418668	0.601935
Cu17	Cu	0.893893	0.081269	0.101935
Cu18	Cu	1.393893	0.581269	0.601935
O19	O	0.887655	-0.068776	0.212124
O20	O	1.387655	0.431224	0.712124
C21	C	0.755499	-0.000026	0.107715
C22	C	1.255499	0.499974	0.607715
C23	C	0.671480	-0.000023	0.106377
C24	C	1.171480	0.499977	0.606377
N25	N	0.893871	-0.195697	0.101934
N26	N	1.393871	0.304303	0.601934
C27	C	0.899661	-0.000032	-0.036450
C28	C	1.399661	0.499968	0.463550
C29	C	0.898319	-0.000028	-0.120468
C30	C	1.398319	0.499972	0.379532
C31	C	1.032271	-0.000035	0.096155
C32	C	1.532271	0.499965	0.596155
C33	C	1.116289	-0.000033	0.097494
C34	C	1.616289	0.499967	0.597494
C35	C	1.164908	-0.000031	0.029161
C36	C	1.664908	0.499969	0.529161
C37	C	1.243851	-0.000034	0.030423
C38	C	1.743851	0.499966	0.530423
C39	C	1.274174	-0.000032	0.100019
C40	C	1.774174	0.499968	0.600019
C41	C	1.225549	-0.000036	0.168358
C42	C	1.725549	0.499964	0.668358
C43	C	1.146607	-0.000039	0.167094
C44	C	1.646607	0.499961	0.667094
C45	C	1.543912	-0.000024	0.173453
C46	C	2.043912	0.499976	0.673453
C47	C	1.622860	-0.000019	0.174711
C48	C	2.122860	0.499981	0.674711
C49	C	1.641156	-0.000019	0.036781
C50	C	2.141156	0.499981	0.536781
C51	C	1.562214	-0.000022	0.035518
C52	C	2.062214	0.499978	0.535518
C53	C	1.513596	-0.000030	0.103856
C54	C	2.013596	0.499970	0.603856
C55	C	1.427997	-0.000029	0.102487
C56	C	1.927997	0.499971	0.602487
C57	C	1.359772	-0.000028	0.101389
C58	C	1.859772	0.499972	0.601389
C59	C	0.939687	-0.238959	0.147783
C60	C	1.439687	0.261041	0.647783
C61	C	0.939695	-0.325506	0.147780
C62	C	1.439695	0.174494	0.647780
C63	C	0.893882	-0.368790	0.101932
C64	C	1.393882	0.131210	0.601932
C65	C	0.848064	-0.325522	0.056078
C66	C	1.348064	0.174478	0.556078
C67	C	0.848061	-0.238977	0.056078
C68	C	1.348061	0.261023	0.556078
C69	C	0.848078	-0.674551	0.056079
C70	C	1.348078	-0.174551	0.556079
C71	C	0.848084	-0.761102	0.056085
C72	C	1.348084	-0.261102	0.556085
C73	C	0.939713	-0.761080	0.147782
C74	C	1.439713	-0.261080	0.647782
C75	C	0.939709	-0.674534	0.147781
C76	C	1.439709	-0.174534	0.647781
C77	C	0.893894	-0.631274	0.101924
C78	C	1.393894	-0.131274	0.601924
C79	C	0.893887	-0.537430	0.101927
C80	C	1.393887	-0.037430	0.601927
C81	C	0.893885	-0.462633	0.101933
C82	C	1.393885	0.037367	0.601933
N83	N	0.893905	0.195635	0.101930
N84	N	1.393905	0.695635	0.601930
C85	C	0.897699	0.074920	-0.159935
C86	C	1.397699	0.574920	0.340065
C87	C	0.896434	0.074921	-0.238878
C88	C	1.396434	0.574921	0.261122
C89	C	0.895795	-0.000027	-0.278353
C90	C	1.395795	0.499973	0.221647
C91	C	0.896414	-0.074981	-0.238880
C92	C	1.396414	0.425019	0.261120
C93	C	0.897673	-0.074982	-0.159938
C94	C	1.397673	0.425018	0.340062
C95	C	0.891333	-0.074982	-0.557245
C96	C	1.391333	0.425018	-0.057245
C97	C	0.890076	-0.074977	-0.636193
C98	C	1.390076	0.425023	-0.136193
C99	C	0.890094	0.074920	-0.636186
C100	C	1.390094	0.574920	-0.136186
C101	C	0.891353	0.074920	-0.557243
C102	C	1.391353	0.574920	-0.057243
C103	C	0.891968	-0.000034	-0.517777
C104	C	1.391968	0.499966	-0.017777
C105	C	0.893338	-0.000034	-0.432178
C106	C	1.393338	0.499966	0.067822
C107	C	0.894430	-0.000028	-0.363952
C108	C	1.394430	0.499972	0.136048
C109	C	0.888109	-0.000029	0.240321
C110	C	1.388109	0.499971	0.740321
C111	C	0.889450	-0.000027	0.324339
C112	C	1.389450	0.499973	0.824339
H113	H	1.140226	-0.000027	-0.027513
H114	H	1.640226	0.499973	0.472487
H115	H	1.107021	-0.000044	0.222738
H116	H	1.607021	0.499956	0.722738
C117	C	0.797687	-0.808713	0.005643
C118	C	1.297687	-0.308713	0.505643
N119	N	0.759730	-0.844573	-0.032348
N120	N	1.259730	-0.344573	0.467652
H121	H	0.810752	-0.203755	0.018743
H122	H	1.310752	0.296245	0.518743
H123	H	1.283434	-0.000036	-0.025221
H124	H	1.783434	0.499964	0.474779
C125	C	1.656212	-0.000026	0.251275
C126	C	2.156212	0.499974	0.751275
N127	N	1.681334	-0.000033	0.308941
N128	N	2.181334	0.499967	0.808941
H129	H	0.810767	-0.360771	0.018744
H130	H	1.310767	0.139229	0.518744
C131	C	0.895820	0.157371	-0.282298
C132	C	1.395820	0.657371	0.217702
N133	N	0.895383	0.219475	-0.315004
N134	N	1.395383	0.719475	0.184996
H135	H	1.537530	-0.000019	-0.021154
H136	H	2.037530	0.499981	0.478846
H137	H	0.977005	-0.360726	0.185113
H138	H	1.477005	0.139274	0.685113
H139	H	1.504336	-0.000027	0.229098
H140	H	2.004336	0.499973	0.729098
H141	H	1.680751	-0.000015	-0.018863
H142	H	2.180751	0.499985	0.481137
H143	H	1.250244	-0.000040	0.225024
H144	H	1.750244	0.499960	0.725024
C145	C	0.898358	-0.157431	-0.116525
C146	C	1.398358	0.342569	0.383475
N147	N	0.898872	-0.219534	-0.083827
N148	N	1.398872	0.280466	0.416173
H149	H	0.976988	-0.203723	0.185122
H150	H	1.476988	0.296277	0.685122
H151	H	0.977012	-0.639297	0.185118
H152	H	1.477012	-0.139297	0.685118
H153	H	0.977019	-0.796312	0.185118
H154	H	1.477019	-0.296312	0.685118
H155	H	0.810773	-0.639339	0.018740
H156	H	1.310773	-0.139339	0.518740
C157	C	0.898401	0.157371	-0.116520
C158	C	1.398401	0.657371	0.383480
N159	N	0.898927	0.219475	-0.083822
N160	N	1.398927	0.719475	0.416178
H161	H	0.891877	0.135951	-0.525107
H162	H	1.391877	0.635951	-0.025107
C163	C	0.889408	0.157372	-0.679605
C164	C	1.389408	0.657372	-0.179605
N165	N	0.888893	0.219473	-0.712307
N166	N	1.388893	0.719473	-0.212307
C167	C	0.889366	-0.157430	-0.679613
C168	C	1.389366	0.342570	-0.179613
N169	N	0.888830	-0.219530	-0.712317
N170	N	1.388830	0.280470	-0.212317
H171	H	0.895889	-0.136006	-0.271026
H172	H	1.395889	0.363994	0.228974
H173	H	0.891849	-0.136014	-0.525123
H174	H	1.391849	0.363986	-0.025123
