data_functionalizedCrystal
_audit_creation_method	'MofGen! by Chris Wilmer'
_symmetry_space_group_name_H-M	'P1'
_symmetry_Int_Tables_number	1
_symmetry_cell_setting	triclinic
loop_
_symmetry_equiv_pos_as_xyz
  x,y,z
_cell_length_a	10.654550
_cell_length_b	17.038272
_cell_length_c	9.130313
_cell_angle_alpha	89.997520
_cell_angle_beta	89.992736
_cell_angle_gamma	87.798229
loop_
_atom_site_label
_atom_site_type_symbol
_atom_site_fract_x
_atom_site_fract_y
_atom_site_fract_z
O1	O	1.678043	0.109875	-0.121922
O2	O	1.313536	0.120344	-0.121899
O3	O	1.493623	0.001282	-0.121899
O4	O	1.497956	0.228937	-0.121923
O5	O	1.493608	0.001284	0.121700
O6	O	1.313522	0.120345	0.121700
O7	O	1.678028	0.109877	0.121676
Cu8	Cu	1.495774	0.115111	0.143931
Cu9	Cu	1.495791	0.115109	-0.144153
O10	O	1.497941	0.228939	0.121676
C11	C	1.266660	0.119576	-0.000097
C12	C	1.127003	0.117276	-0.000087
C13	C	1.489675	-0.027867	-0.000100
C14	C	1.477918	-0.114726	-0.000099
C15	C	1.054026	0.187378	-0.000116
C16	C	0.922804	0.185212	-0.000141
C17	C	0.937548	0.042837	-0.000115
C18	C	1.068767	0.045004	-0.000080
C19	C	1.045513	0.269577	-0.000137
C20	C	0.914292	0.267411	-0.000162
C21	C	1.585862	-0.164237	-0.000105
C22	C	1.574808	-0.245850	-0.000118
C23	C	1.455808	-0.277949	-0.000115
C24	C	1.347856	-0.228431	-0.000114
C25	C	1.358911	-0.146821	-0.000111
C26	C	1.416750	-0.523925	-0.000133
C27	C	1.405702	-0.605542	-0.000131
C28	C	1.632656	-0.622955	-0.000137
C29	C	1.643701	-0.541342	-0.000126
C30	C	1.535749	-0.491831	-0.000133
C31	C	1.444505	-0.361370	-0.000124
C32	C	1.547052	-0.408412	-0.000134
C33	C	1.724905	0.110645	-0.000129
C34	C	1.864562	0.112944	-0.000148
C35	C	1.501889	0.258088	-0.000126
C36	C	1.513646	0.344947	-0.000136
N37	N	1.495770	0.115112	0.346553
C38	C	1.575549	0.062406	0.576543
C39	C	1.575540	0.062410	0.423206
C40	C	1.416013	0.167820	0.423245
C41	C	1.416029	0.167819	0.576579
C42	C	1.667647	0.001546	0.576520
C43	C	1.667638	0.001550	0.423183
N44	N	1.495795	0.115108	0.653224
H45	H	1.128180	-0.012080	-0.000035
H46	H	1.083606	0.295750	-0.105312
Cl47	Cl	1.696647	-0.368057	-0.000145
H48	H	1.720544	-0.663275	-0.000135
Cl49	Cl	1.294910	-0.401730	-0.000128
Cl50	Cl	1.315783	0.234085	0.672979
Cl51	Cl	1.735470	-0.123892	-0.000093
Cl52	Cl	1.315741	0.234082	0.326882
Cl53	Cl	1.095408	0.319214	0.157253
H54	H	1.271011	-0.106509	-0.000107
Cl55	Cl	1.818580	0.022230	0.640731
Cl56	Cl	1.612378	-0.086167	0.649983
H57	H	1.760596	0.020596	0.375599
H58	H	1.640598	-0.058579	0.381579
Cl59	Cl	0.847319	0.305767	0.162197
Cl60	Cl	0.854300	0.315224	-0.157570
H61	H	1.308794	-0.631674	-0.000105
Cl62	Cl	1.710516	-0.308089	-0.000120
H63	H	0.890116	-0.016005	-0.000131
Cl64	Cl	1.281036	-0.461694	-0.000145
Cl65	Cl	1.793307	-0.500995	-0.000177
H66	H	1.250963	-0.254573	-0.000121
