data_functionalizedCrystal
_audit_creation_method	'MofGen! by Chris Wilmer'
_symmetry_space_group_name_H-M	'P1'
_symmetry_Int_Tables_number	1
_symmetry_cell_setting	triclinic
loop_
_symmetry_equiv_pos_as_xyz
  x,y,z
_cell_length_a	13.635800
_cell_length_b	11.102244
_cell_length_c	11.102300
_cell_angle_alpha	88.053517
_cell_angle_beta	108.605850
_cell_angle_gamma	71.395130
loop_
_atom_site_label
_atom_site_type_symbol
_atom_site_fract_x
_atom_site_fract_y
_atom_site_fract_z
V1	V	2.055762	-0.175838	0.396253
O2	O	2.035282	0.008450	0.388713
O3	O	2.044147	-0.348658	0.393540
O4	O	2.044153	-0.173133	0.569074
O5	O	2.035276	-0.168290	0.211964
V6	V	2.294314	-0.153795	0.374211
O7	O	2.193432	-0.224191	0.444604
O8	O	2.381742	-0.105442	0.325860
O9	O	2.194325	0.019024	0.376924
O10	O	2.373493	-0.338083	0.381751
O11	O	2.373498	-0.161344	0.558500
O12	O	2.194320	-0.156500	0.201390
V13	V	2.555762	-0.175838	0.396253
O14	O	2.535282	0.008450	0.388713
O15	O	2.544147	-0.348658	0.393540
O16	O	2.544153	-0.173133	0.569074
O17	O	2.535276	-0.168290	0.211964
V18	V	2.794314	-0.153795	0.374211
O19	O	2.693432	-0.224191	0.444604
O20	O	2.881742	-0.105442	0.325860
O21	O	2.694325	0.019024	0.376924
O22	O	2.873493	-0.338083	0.381751
O23	O	2.873498	-0.161344	0.558500
O24	O	2.694320	-0.156500	0.201390
C25	C	1.969302	-0.390787	0.387288
C26	C	2.000533	-0.532070	0.386221
C27	C	1.985120	-0.580305	0.269341
C28	C	2.014472	-0.713057	0.268354
C29	C	2.074647	-0.749329	0.501137
C30	C	2.045302	-0.616579	0.502124
C31	C	1.940351	-0.495795	0.153439
C32	C	1.924934	-0.544028	0.036549
C33	C	1.954286	-0.676781	0.035561
C34	C	1.999056	-0.761299	0.151464
C35	C	1.969308	-0.166887	0.611198
C36	C	2.000541	-0.165819	0.752480
C37	C	2.100842	0.061148	0.383173
C38	C	2.059230	0.202429	0.384248
C39	C	2.100835	-0.162751	0.159260
C40	C	2.059221	-0.163812	0.017976
C41	C	2.469302	-0.390787	0.387288
C42	C	2.500533	-0.532070	0.386221
C43	C	2.469308	-0.166887	0.611198
C44	C	2.500541	-0.165819	0.752480
C45	C	2.107220	-0.171664	0.825329
C46	C	2.136559	-0.170656	0.958077
C47	C	1.952532	-0.157962	0.945117
C48	C	1.923192	-0.158961	0.812370
C49	C	2.600842	0.061148	0.383173
C50	C	2.559230	0.202429	0.384248
C51	C	2.600835	-0.162751	0.159260
C52	C	2.559221	-0.163812	0.017976
C53	C	2.607209	-0.604918	0.392061
C54	C	2.636551	-0.737669	0.391069
C55	C	2.452528	-0.724710	0.378392
C56	C	2.423190	-0.591964	0.379393
C57	C	2.607220	-0.171664	0.825329
C58	C	2.636559	-0.170656	0.958077
C59	C	2.452532	-0.157962	0.945117
C60	C	2.423192	-0.158961	0.812370
H61	H	1.888490	-0.475206	-0.057814
O62	O	2.319642	-0.153509	0.741518
C63	C	2.208351	-0.258031	0.601515
C64	C	2.325673	-0.264328	0.681658
H65	H	2.213187	-0.347629	0.553118
H66	H	2.166853	-0.168904	0.525011
H67	H	2.158147	-0.252929	0.667169
H68	H	2.375966	-0.269478	0.616106
H69	H	2.367084	-0.353441	0.758174
H70	H	1.916441	-0.387699	0.154229
H71	H	2.022961	-0.869394	0.150651
O72	O	2.240261	-0.176570	1.028824
C73	C	2.435115	-0.297697	1.097700
C74	C	2.317729	-0.291179	1.017554
H75	H	2.497781	-0.390338	1.088595
H76	H	2.442888	-0.295888	1.202899
H77	H	2.451580	-0.211629	1.060866
H78	H	2.301186	-0.377229	1.054277
H79	H	2.310015	-0.292926	0.912369
O80	O	1.877456	-0.151145	1.003419
C81	C	1.775148	-0.032004	1.128469
C82	C	1.860204	-0.039577	1.062528
H83	H	1.761155	0.058205	1.176252
H84	H	1.807368	-0.120513	1.204298
H85	H	1.693887	-0.028058	1.053585
H86	H	1.941491	-0.043482	1.137318
H87	H	1.827892	0.048930	0.986674
H88	H	2.723415	-0.796977	0.395826
H89	H	2.111096	-0.818154	0.595499
O90	O	1.939200	-0.723420	-0.078094
C91	C	1.876472	-0.673429	-0.308875
C92	C	1.893482	-0.620441	-0.180249
H93	H	1.839529	-0.590198	-0.391500
H94	H	1.818025	-0.729656	-0.320110
H95	H	1.959352	-0.739683	-0.310226
H96	H	1.810657	-0.554135	-0.178809
H97	H	1.951980	-0.564289	-0.169066
H98	H	1.836315	-0.154191	0.753052
O99	O	2.060299	-0.569927	0.615769
C100	C	2.123143	-0.619906	0.846560
C101	C	2.106187	-0.672910	0.717945
H102	H	2.160267	-0.703143	0.929204
H103	H	2.040287	-0.553736	0.848062
H104	H	2.181504	-0.563588	0.857629
H105	H	2.047867	-0.729286	0.706792
H106	H	2.189087	-0.739011	0.716501
H107	H	2.170204	-0.177246	0.776571
O108	O	2.319484	-0.521211	0.373488
C109	C	2.124624	-0.452325	0.252382
C110	C	2.242004	-0.532477	0.258886
H111	H	2.061948	-0.461428	0.159747
H112	H	2.116858	-0.347128	0.254189
H113	H	2.108168	-0.489158	0.338457
H114	H	2.258539	-0.495757	0.172829
H115	H	2.249712	-0.637661	0.257141
O116	O	2.682369	-0.178540	0.767126
C117	C	2.784589	-0.297604	0.641955
C118	C	2.699487	-0.289995	0.707833
H119	H	2.798437	-0.387693	0.593977
H120	H	2.865924	-0.301692	0.716788
H121	H	2.752346	-0.208993	0.566247
H122	H	2.731627	-0.378584	0.783533
H123	H	2.618168	-0.285844	0.632924
H124	H	2.670188	-0.556156	0.397619
H125	H	2.389562	-0.773492	0.372830
O126	O	2.740261	-0.176570	1.028824
C127	C	2.935115	-0.297697	1.097700
C128	C	2.817729	-0.291179	1.017554
H129	H	2.997781	-0.390338	1.088595
H130	H	2.942888	-0.295888	1.202899
H131	H	2.951580	-0.211629	1.060866
H132	H	2.801186	-0.377229	1.054277
H133	H	2.810015	-0.292926	0.912369
O134	O	2.377456	-0.151145	1.003419
C135	C	2.275148	-0.032004	1.128469
C136	C	2.360204	-0.039577	1.062528
H137	H	2.261155	0.058205	1.176252
H138	H	2.307368	-0.120513	1.204298
H139	H	2.193887	-0.028058	1.053585
H140	H	2.441491	-0.043482	1.137318
H141	H	2.327892	0.048930	0.986674
