data_functionalizedCrystal
_audit_creation_method	'MofGen! by Chris Wilmer'
_symmetry_space_group_name_H-M	'P1'
_symmetry_Int_Tables_number	1
_symmetry_cell_setting	triclinic
loop_
_symmetry_equiv_pos_as_xyz
  x,y,z
_cell_length_a	17.699083
_cell_length_b	15.072220
_cell_length_c	17.699083
_cell_angle_alpha	90.002035
_cell_angle_beta	83.283015
_cell_angle_gamma	90.006459
loop_
_atom_site_label
_atom_site_type_symbol
_atom_site_fract_x
_atom_site_fract_y
_atom_site_fract_z
O1	O	1.004085	0.073660	0.095706
O2	O	0.783707	0.073689	0.108159
O3	O	0.900122	0.073666	-0.008257
O4	O	0.887670	0.073683	0.212122
O5	O	0.900093	-0.073899	-0.008250
O6	O	0.783678	-0.073876	0.108165
O7	O	1.004056	-0.073905	0.095713
Zn8	Zn	0.893863	-0.097320	0.101940
Zn9	Zn	0.893901	0.097104	0.101931
O10	O	0.887641	-0.073882	0.212128
C11	C	0.755495	-0.000090	0.107716
C12	C	0.671477	-0.000079	0.106377
N13	N	0.893842	-0.230009	0.101945
C14	C	0.622856	-0.000074	0.174710
C15	C	0.543913	-0.000085	0.173448
C16	C	0.513592	-0.000096	0.103852
C17	C	0.562219	-0.000103	0.035513
C18	C	0.641161	-0.000098	0.036776
C19	C	0.243856	-0.000126	0.030418
C20	C	0.164908	-0.000128	0.029160
C21	C	0.146608	-0.000113	0.167090
C22	C	0.225550	-0.000108	0.168353
C23	C	0.274170	-0.000120	0.100015
C24	C	0.359769	-0.000109	0.101384
C25	C	0.427995	-0.000100	0.102481
C26	C	0.893899	-0.589210	0.101928
C27	C	0.831399	-0.551591	0.164012
C28	C	0.831542	-0.448765	0.164238
C29	C	0.893870	-0.411006	0.101937
C30	C	0.972810	-0.448306	0.119040
C31	C	0.972460	-0.551164	0.119481
C32	C	0.878163	-0.551314	0.022557
C33	C	0.876350	-0.448450	0.023090
C34	C	0.893859	-0.310293	0.101940
C35	C	0.893915	-0.689923	0.101927
C36	C	1.032268	-0.000124	0.096156
C37	C	1.116286	-0.000130	0.097494
C38	C	0.899662	-0.000117	-0.036451
C39	C	0.898323	-0.000117	-0.120469
N40	N	0.893927	0.229792	0.101920
C41	C	0.966656	-0.000127	-0.169090
C42	C	0.965394	-0.000119	-0.248033
C43	C	0.895798	-0.000107	-0.278354
C44	C	0.827459	-0.000094	-0.229727
C45	C	0.828722	-0.000096	-0.150785
C46	C	0.822364	-0.000086	-0.548090
C47	C	0.821106	-0.000087	-0.627038
C48	C	0.959036	-0.000110	-0.645338
C49	C	0.960299	-0.000111	-0.566396
C50	C	0.891961	-0.000094	-0.517776
C51	C	0.893330	-0.000101	-0.432177
C52	C	0.894427	-0.000107	-0.363951
C53	C	0.888102	-0.000097	0.240322
C54	C	0.889440	-0.000091	0.324340
H55	H	0.504328	-0.000080	0.229092
O56	O	0.753515	-0.000224	-0.656528
C57	C	0.748645	-0.076637	-0.701659
H58	H	0.788143	-0.130066	-0.683059
H59	H	0.687625	-0.102272	-0.694464
H60	H	0.766227	-0.059364	-0.763946
H61	H	1.020413	-0.576048	0.076038
O62	O	1.031722	-0.000247	-0.295343
C63	C	1.035110	-0.076678	-0.341547
H64	H	0.975036	-0.102148	-0.345426
H65	H	1.063411	-0.059487	-0.400932
H66	H	1.069621	-0.130203	-0.315647
O67	O	0.135418	0.000013	-0.038431
C68	C	0.090294	0.076426	-0.043287
H69	H	0.108899	0.129851	-0.003779
H70	H	0.097492	0.102066	-0.104302
H71	H	0.028006	0.059150	-0.025709
O72	O	0.290971	-0.000095	-0.036033
C73	C	0.247278	-0.000125	-0.097728
H74	H	0.188326	0.027816	-0.078408
H75	H	0.276489	0.042711	-0.145603
H76	H	0.241687	-0.070922	-0.119062
O77	O	0.652216	0.000056	0.242365
C78	C	0.627374	0.076494	0.284001
H79	H	0.572663	0.101968	0.263470
H80	H	0.616296	0.059310	0.347050
H81	H	0.673075	0.130013	0.275151
H82	H	0.821858	-0.577298	0.006074
O83	O	1.034245	-0.000295	-0.139604
C84	C	1.039085	-0.076710	-0.094475
H85	H	0.999558	-0.130123	-0.113070
H86	H	1.100092	-0.102368	-0.101678
H87	H	1.021519	-0.059430	-0.032187
H88	H	0.923743	-0.575641	-0.023642
O89	O	1.027971	-0.000083	-0.537069
C90	C	1.088015	-0.000111	-0.596913
H91	H	1.066903	0.027828	-0.650502
H92	H	1.136621	0.042726	-0.580503
H93	H	1.109075	-0.070908	-0.608123
H94	H	0.818282	-0.424072	0.010107
H95	H	0.772859	-0.423547	0.154069
O96	O	0.532642	-0.000076	-0.032027
C97	C	0.452540	-0.000099	-0.018491
H98	H	0.433894	0.027844	0.040605
H99	H	0.428387	0.042737	-0.063020
H100	H	0.430566	-0.070895	-0.022115
O101	O	0.759804	-0.000198	-0.259087
C102	C	0.718148	-0.076627	-0.234243
H103	H	0.738671	-0.102110	-0.179530
H104	H	0.655103	-0.059426	-0.223167
H105	H	0.726984	-0.130144	-0.279942
O106	O	1.025352	-0.000077	-0.692677
C107	C	1.009320	-0.000091	-0.768856
H108	H	0.949884	0.027858	-0.771773
H109	H	1.052897	0.042744	-0.804699
H110	H	1.012215	-0.070885	-0.791695
H111	H	0.250232	-0.000095	0.225025
H112	H	1.020424	-0.423846	0.075019
O113	O	0.099408	0.000048	0.233496
C114	C	0.113148	0.076470	0.275761
H115	H	0.140205	0.129883	0.235749
H116	H	0.057083	0.102123	0.306214
H117	H	0.153265	0.059203	0.319496
H118	H	0.772527	-0.576345	0.154012
O119	O	0.688286	-0.000059	-0.029673
C120	C	0.644599	-0.000089	-0.091372
H121	H	0.585645	0.027847	-0.072056
H122	H	0.673812	0.042750	-0.139244
H123	H	0.639014	-0.070886	-0.112709
H124	H	0.841293	-0.577426	0.222584
O125	O	0.762364	0.000069	-0.103520
C126	C	0.758994	0.076484	-0.057297
H127	H	0.797761	0.129894	-0.086282
H128	H	0.698017	0.102149	-0.048305
H129	H	0.778477	0.059203	0.000072
O130	O	0.989650	-0.417522	0.187336
C131	C	0.930268	-0.362235	0.219793
H132	H	0.875586	-0.379523	0.194839
H133	H	0.921551	-0.372531	0.284034
H134	H	0.945648	-0.289948	0.206754
H135	H	0.766718	-0.000072	-0.508512
H136	H	0.986348	-0.575143	0.177362
H137	H	0.918926	-0.422751	-0.025263
O138	O	0.843420	-0.419498	0.234565
C139	C	0.784849	-0.451019	0.288766
H140	H	0.758286	-0.512828	0.265748
H141	H	0.809405	-0.468200	0.343684
H142	H	0.739493	-0.397518	0.300694
