data_functionalizedCrystal
_audit_creation_method	'MofGen! by Chris Wilmer'
_symmetry_space_group_name_H-M	'P1'
_symmetry_Int_Tables_number	1
_symmetry_cell_setting	triclinic
loop_
_symmetry_equiv_pos_as_xyz
  x,y,z
_cell_length_a	14.519709
_cell_length_b	16.109301
_cell_length_c	15.186229
_cell_angle_alpha	89.997109
_cell_angle_beta	90.001226
_cell_angle_gamma	96.429187
loop_
_atom_site_label
_atom_site_type_symbol
_atom_site_fract_x
_atom_site_fract_y
_atom_site_fract_z
O1	O	0.118535	-1.103339	0.073175
O2	O	0.133287	-0.861303	0.073189
O3	O	-0.008341	-0.988738	0.073174
O4	O	0.260163	-0.975904	0.073190
O5	O	-0.008333	-0.988723	-0.073284
O6	O	0.133295	-0.861288	-0.073268
O7	O	0.118543	-1.103324	-0.073282
Zn8	Zn	0.125920	-0.982303	-0.096529
Zn9	Zn	0.125910	-0.982323	0.096435
O10	O	0.260171	-0.975889	-0.073267
C11	C	0.132693	-0.830319	-0.000038
C12	C	0.130902	-0.738021	-0.000033
C13	C	-0.042696	-0.988132	-0.000055
C14	C	-0.145073	-0.986340	-0.000056
C15	C	0.119136	-1.134307	-0.000054
C16	C	0.120928	-1.226606	-0.000053
C17	C	-0.519955	-0.979741	-0.000032
C18	C	-0.415651	-0.981574	-0.000039
C19	C	-0.332517	-0.983041	-0.000045
C20	C	-0.228207	-0.984873	-0.000050
C21	C	0.294526	-0.976494	-0.000036
C22	C	0.396903	-0.978287	-0.000030
N23	N	0.125927	-0.982296	-0.228221
C24	C	0.210775	-0.515887	-0.000038
C25	C	0.209085	-0.429163	-0.000044
C26	C	0.041048	-0.448747	-0.000050
C27	C	0.042739	-0.535468	-0.000051
C28	C	0.127606	-0.569036	-0.000040
C29	C	0.124224	-0.395591	-0.000045
C30	C	0.122390	-0.301562	-0.000052
C31	C	0.129440	-0.663071	-0.000036
C32	C	0.181864	-1.032817	-0.453944
C33	C	0.181857	-1.032826	-0.546133
C34	C	0.069952	-0.931815	-0.546143
C35	C	0.069955	-0.931810	-0.453956
C36	C	0.125916	-0.982310	-0.407858
C37	C	0.125907	-0.982323	-0.592236
C38	C	0.125899	-0.982333	-0.692192
C39	C	0.125922	-0.982302	-0.307895
N40	N	0.125896	-0.982337	0.228128
H41	H	0.279879	-0.543214	-0.000036
H42	H	0.227414	-1.073954	-0.583652
Cl43	Cl	0.252207	-1.096309	-0.395995
Cl44	Cl	-0.061825	-0.602290	-0.000061
H45	H	0.024392	-0.890699	-0.583687
Cl46	Cl	-0.000384	-0.868309	-0.396015
H47	H	0.276810	-0.385892	-0.000044
Cl48	Cl	-0.065635	-0.406541	-0.000058
