data_functionalizedCrystal
_audit_creation_method	'MofGen! by Chris Wilmer'
_symmetry_space_group_name_H-M	'P1'
_symmetry_Int_Tables_number	1
_symmetry_cell_setting	triclinic
loop_
_symmetry_equiv_pos_as_xyz
  x,y,z
_cell_length_a	16.109301
_cell_length_b	10.489741
_cell_length_c	15.186229
_cell_angle_alpha	89.996534
_cell_angle_beta	89.999362
_cell_angle_gamma	84.000327
loop_
_atom_site_label
_atom_site_type_symbol
_atom_site_fract_x
_atom_site_fract_y
_atom_site_fract_z
O1	O	1.104141	0.163947	-0.073172
O2	O	1.604141	0.663947	0.426828
O3	O	0.862205	0.184350	-0.073186
O4	O	1.362205	0.684350	0.426814
O5	O	0.988678	-0.011529	-0.073174
O6	O	1.488678	0.488471	0.426826
O7	O	0.977668	0.359826	-0.073185
O8	O	1.477668	0.859826	0.426815
O9	O	0.988670	-0.011532	0.073284
O10	O	1.488670	0.488468	0.573284
O11	O	0.862196	0.184347	0.073271
O12	O	1.362196	0.684347	0.573271
O13	O	1.104133	0.163944	0.073285
O14	O	1.604133	0.663944	0.573285
Zn15	Zn	0.983163	0.174145	0.096531
Zn16	Zn	1.483163	0.674145	0.596531
Zn17	Zn	0.983174	0.174149	-0.096433
Zn18	Zn	1.483174	0.674149	0.403567
O19	O	0.977659	0.359823	0.073272
O20	O	1.477659	0.859823	0.573272
C21	C	0.831221	0.183522	0.000041
C22	C	1.331221	0.683522	0.500041
C23	C	0.738910	0.181044	0.000035
C24	C	1.238910	0.681044	0.500035
C25	C	0.517319	0.291514	0.000042
C26	C	1.017319	0.791514	0.500042
C27	C	0.430584	0.289175	0.000048
C28	C	0.930584	0.789175	0.500048
C29	C	0.449026	0.056771	0.000051
C30	C	0.949026	0.556771	0.500051
C31	C	0.535759	0.059111	0.000052
C32	C	1.035759	0.559111	0.500052
C33	C	0.569903	0.176486	0.000043
C34	C	1.069903	0.676486	0.500043
C35	C	0.396435	0.171808	0.000048
C36	C	0.896435	0.671808	0.500048
C37	C	0.302393	0.169272	0.000054
C38	C	0.802393	0.669272	0.500054
C39	C	0.663950	0.179022	0.000038
C40	C	1.163950	0.679022	0.500038
C41	C	0.987842	-0.059050	0.000054
C42	C	1.487842	0.440950	0.500054
C43	C	0.985354	-0.200644	0.000053
C44	C	1.485354	0.299356	0.500053
C45	C	0.904883	-0.267616	0.000042
C46	C	1.404883	0.232384	0.500042
C47	C	0.942893	-0.360292	0.072255
C48	C	1.442893	0.139708	0.572255
C49	C	0.942920	-0.360264	-0.072141
C50	C	1.442920	0.139736	0.427859
C51	C	1.023397	-0.291454	0.072325
C52	C	1.523397	0.208546	0.572325
C53	C	1.023413	-0.291417	-0.072135
C54	C	1.523413	0.208583	0.427865
C55	C	1.061482	-0.384066	0.000096
C56	C	1.561482	0.115934	0.500096
C57	C	1.135117	0.164772	0.000056
C58	C	1.635117	0.664772	0.500056
C59	C	1.227427	0.167250	0.000056
C60	C	1.727427	0.667250	0.500056
C61	C	0.978495	0.407344	0.000042
C62	C	1.478495	0.907344	0.500042
C63	C	0.980983	0.548938	0.000038
C64	C	1.480983	1.048938	0.500038
N65	N	0.983162	0.174142	0.228224
N66	N	1.483162	0.674142	0.728224
N67	N	0.983183	0.174142	-0.228125
N68	N	1.483183	0.674142	0.271875
C69	C	1.039183	0.087436	0.453952
C70	C	1.539183	0.587436	0.953952
C71	C	1.039186	0.087433	0.546142
C72	C	1.539186	0.587433	1.046142
C73	C	0.927155	0.260852	0.546140
C74	C	1.427155	0.760852	1.046140
C75	C	0.927149	0.260848	0.453952
C76	C	1.427149	0.760848	0.953952
C77	C	0.983168	0.174141	0.407860
C78	C	1.483168	0.674141	0.907860
C79	C	0.983176	0.174142	0.592238
C80	C	1.483176	0.674142	1.092238
C81	C	0.983179	0.174140	0.692194
C82	C	1.483179	0.674140	1.192194
C83	C	0.983165	0.174142	0.307898
C84	C	1.483165	0.674142	0.807898
H85	H	0.421215	-0.038791	0.000064
H86	H	0.921215	0.461209	0.500064
H87	H	0.545116	0.387088	0.000042
H88	H	1.045116	0.887088	0.500042
H89	H	1.084798	0.016828	0.583667
H90	H	1.584798	0.516828	1.083667
H91	H	1.057437	-0.260865	-0.133185
H92	H	1.557437	0.239135	0.366815
Cl93	Cl	1.109604	-0.021572	0.396013
Cl94	Cl	1.609604	0.478428	0.896013
H95	H	0.578575	-0.034565	0.000055
H96	H	1.078575	0.465435	0.500055
Cl97	Cl	0.856737	0.369855	0.604087
Cl98	Cl	1.356737	0.869855	1.104087
Cl99	Cl	0.890335	-0.407338	-0.166393
Cl100	Cl	1.390335	0.092662	0.333607
H101	H	0.838720	-0.217005	0.000110
H102	H	1.338720	0.282995	0.500110
H103	H	0.908840	-0.390810	0.133302
H104	H	1.408840	0.109190	0.633302
H105	H	0.881530	0.331455	0.416421
H106	H	1.381530	0.831455	0.916421
H107	H	1.057413	-0.261117	0.133445
H108	H	1.557413	0.238883	0.633445
Cl109	Cl	1.163722	-0.461862	0.000160
Cl110	Cl	1.663722	0.038138	0.500160
Cl111	Cl	0.364481	0.433789	0.000048
Cl112	Cl	0.864481	0.933789	0.500048
