data_functionalizedCrystal
_audit_creation_method	'MofGen! by Chris Wilmer'
_symmetry_space_group_name_H-M	'P1'
_symmetry_Int_Tables_number	1
_symmetry_cell_setting	triclinic
loop_
_symmetry_equiv_pos_as_xyz
  x,y,z
_cell_length_a	13.897448
_cell_length_b	13.897449
_cell_length_c	13.897441
_cell_angle_alpha	89.976068
_cell_angle_beta	90.029627
_cell_angle_gamma	89.982380
loop_
_atom_site_label
_atom_site_type_symbol
_atom_site_fract_x
_atom_site_fract_y
_atom_site_fract_z
Zn1	Zn	-0.383995	-1.474682	0.545519
Zn2	Zn	-0.545314	-1.474582	0.384220
Zn3	Zn	-0.384035	-1.313377	0.384222
Zn4	Zn	-0.545250	-1.313353	0.545457
O5	O	-0.464648	-1.393999	0.464854
O6	O	-0.405405	-1.609651	0.524147
O7	O	-0.523964	-1.453166	0.249238
O8	O	-0.249048	-1.334827	0.405645
O9	O	-0.523925	-1.609577	0.405641
O10	O	-0.249019	-1.453337	0.524149
O11	O	-0.405472	-1.334730	0.249240
O12	O	-0.405410	-1.178393	0.405585
O13	O	-0.523815	-1.334786	0.680447
O14	O	-0.523854	-1.178375	0.524045
O15	O	-0.405342	-1.453313	0.680492
O16	O	-0.680287	-1.453143	0.405582
O17	O	-0.680240	-1.334689	0.524043
C18	C	-0.464630	-1.143384	0.464809
C19	C	-0.464645	-1.036171	0.464813
C20	C	-0.464647	-0.949101	0.464825
C21	C	-0.464652	-0.839868	0.464849
C22	C	-0.715263	-1.393928	0.464827
C23	C	-0.822477	-1.393987	0.464847
C24	C	-1.018772	-1.394088	0.464907
C25	C	-0.909539	-1.394029	0.464877
C26	C	-0.213055	-1.394096	0.464904
C27	C	-0.105841	-1.394137	0.464925
C28	C	-0.464567	-1.394058	0.716448
C29	C	-0.464533	-1.394083	0.823662
C30	C	-0.464664	-0.645592	0.464889
C31	C	-0.464661	-0.752806	0.464873
C32	C	-0.464659	-1.393996	0.214240
C33	C	-0.464422	-1.394157	0.107027
C34	C	-0.464506	-1.394103	0.910731
C35	C	-0.464462	-1.394130	1.019964
