data_functionalizedCrystal
_audit_creation_method	'MofGen! by Chris Wilmer'
_symmetry_space_group_name_H-M	'P1'
_symmetry_Int_Tables_number	1
_symmetry_cell_setting	triclinic
loop_
_symmetry_equiv_pos_as_xyz
  x,y,z
_cell_length_a	10.654562
_cell_length_b	15.538191
_cell_length_c	9.730223
_cell_angle_alpha	90.002740
_cell_angle_beta	89.996961
_cell_angle_gamma	65.881099
loop_
_atom_site_label
_atom_site_type_symbol
_atom_site_fract_x
_atom_site_fract_y
_atom_site_fract_z
O1	O	1.606134	0.131966	-0.114362
O2	O	1.234788	0.144522	-0.114343
O3	O	1.492747	0.001589	-0.114363
O4	O	1.348175	0.274899	-0.114343
O5	O	1.492743	0.001593	0.114217
O6	O	1.234784	0.144525	0.114236
O7	O	1.606130	0.131970	0.114218
Zn8	Zn	1.420456	0.138248	0.150519
Zn9	Zn	1.420462	0.138243	-0.150645
O10	O	1.348172	0.274902	0.114237
C11	C	1.188421	0.143599	-0.000051
C12	C	1.050271	0.140833	-0.000045
C13	C	0.985341	0.139545	0.124543
C14	C	0.855530	0.136954	0.124520
C15	C	0.855588	0.136943	-0.124691
C16	C	0.985401	0.139528	-0.124666
C17	C	1.050211	0.140851	0.249164
C18	C	0.985281	0.139564	0.373762
C19	C	0.855470	0.136973	0.373739
C20	C	0.790590	0.135669	0.249118
C21	C	1.507870	-0.033405	-0.000078
C22	C	1.552926	-0.137683	-0.000094
C23	C	1.105314	-0.428413	-0.000042
C24	C	1.147682	-0.526401	-0.000041
C25	C	1.385991	-0.547279	-0.000054
C26	C	1.343643	-0.449291	-0.000062
C27	C	1.203303	-0.389865	-0.000054
C28	C	1.441632	-0.410743	-0.000074
C29	C	1.399287	-0.312764	-0.000074
C30	C	1.258953	-0.253332	-0.000063
C31	C	1.160958	-0.291886	-0.000055
C32	C	1.581971	-0.470170	-0.000071
C33	C	1.679960	-0.431622	-0.000083
C34	C	1.637616	-0.333642	-0.000093
C35	C	1.497282	-0.274210	-0.000082
C36	C	1.735611	-0.295088	-0.000101
C37	C	1.693266	-0.197108	-0.000102
C38	C	1.454937	-0.176231	-0.000082
C39	C	1.652498	0.132892	-0.000077
C40	C	1.790647	0.135658	-0.000093
C41	C	1.333048	0.309897	-0.000050
C42	C	1.287992	0.414174	-0.000044
N43	N	1.420462	0.138251	0.356055
N44	N	1.420469	0.138233	-0.356181
C45	C	1.534698	0.074982	0.427973
C46	C	1.534700	0.074971	0.571856
C47	C	1.306223	0.201505	0.571891
C48	C	1.306218	0.201511	0.428011
C49	C	1.648943	0.011722	0.356017
C50	C	1.763188	-0.051552	0.427935
C51	C	1.763190	-0.051563	0.571818
C52	C	1.648947	0.011699	0.643783
H53	H	0.802612	0.135918	0.475193
O54	O	1.048519	0.140704	0.494725
C55	C	1.174812	0.060994	0.502206
H56	H	1.211360	0.034309	0.394024
H57	H	1.254562	0.081078	0.554960
H58	H	1.160641	0.003140	0.563684
H59	H	1.648952	0.011678	0.760943
H60	H	1.340658	-0.127843	-0.000087
O61	O	1.176394	0.143232	0.249020
C62	C	1.271005	0.062880	0.180719
H63	H	1.213291	0.034317	0.107945
H64	H	1.346355	0.082861	0.119484
H65	H	1.329874	0.006487	0.259496
O66	O	0.664390	0.133311	0.249156
C67	C	0.569779	0.213628	0.317529
H68	H	0.608775	0.271876	0.315358
H69	H	0.465757	0.239145	0.263820
H70	H	0.558298	0.194810	0.428694
O71	O	0.792399	0.135852	-0.245703
C72	C	0.666079	0.215543	-0.253145
H73	H	0.669394	0.273072	-0.182425
H74	H	0.647432	0.242768	-0.363347
H75	H	0.579269	0.195229	-0.219684
H76	H	1.213211	0.253011	0.630495
H77	H	1.213196	0.253030	0.369455
O78	O	1.874152	-0.112897	0.641832
C79	C	1.928461	-0.062059	0.725043
H80	H	1.845096	0.011082	0.746620
H81	H	1.966142	-0.101129	0.826208
H82	H	2.018059	-0.055020	0.669590
H83	H	1.038265	0.140581	-0.226117
O84	O	1.874098	-0.113149	0.358123
C85	C	1.896128	-0.206257	0.393321
H86	H	1.796102	-0.207402	0.432857
H87	H	1.932034	-0.253307	0.298710
H88	H	1.978062	-0.233351	0.476854
H89	H	1.224478	-0.173552	-0.000055
H90	H	1.046679	-0.243498	-0.000059
O91	O	0.968948	-0.370773	-0.000230
C92	C	0.906816	-0.388348	-0.118634
H93	H	0.971437	-0.462460	-0.158100
H94	H	0.799244	-0.382139	-0.092014
H95	H	0.899524	-0.334659	-0.201531
O96	O	1.052618	-0.563959	-0.000218
C97	C	1.069961	-0.619997	-0.118618
H98	H	1.179765	-0.643737	-0.158096
H99	H	1.049309	-0.684478	-0.091988
H100	H	0.994834	-0.577090	-0.201509
H101	H	1.500256	-0.595676	-0.000054
O102	O	1.623281	-0.565363	-0.000255
C103	C	1.702776	-0.603823	-0.118655
H104	H	1.747951	-0.553453	-0.158122
H105	H	1.789690	-0.674501	-0.092030
H106	H	1.634974	-0.614617	-0.201553
O107	O	1.816297	-0.489311	0.000147
C108	C	1.878458	-0.471697	0.118499
H109	H	1.797100	-0.438652	0.201256
H110	H	1.960363	-0.540864	0.158227
H111	H	1.928174	-0.421332	0.091720
O112	O	1.788316	-0.159544	-0.000303
C113	C	1.770964	-0.103516	-0.118704
H114	H	1.661160	-0.079784	-0.158162
H115	H	1.791608	-0.039028	-0.092084
H116	H	1.846091	-0.146427	-0.201607
O117	O	1.649179	0.011725	0.216251
C118	C	1.759268	0.031684	0.168190
H119	H	1.841790	0.012952	0.251101
H120	H	1.804761	-0.011697	0.071921
H121	H	1.720275	0.109933	0.142683
H122	H	1.849876	-0.343486	-0.000094
