data_functionalizedCrystal
_audit_creation_method	'MofGen! by Chris Wilmer'
_symmetry_space_group_name_H-M	'P1'
_symmetry_Int_Tables_number	1
_symmetry_cell_setting	triclinic
loop_
_symmetry_equiv_pos_as_xyz
  x,y,z
_cell_length_a	13.262522
_cell_length_b	13.262508
_cell_length_c	9.730223
_cell_angle_alpha	105.913923
_cell_angle_beta	74.080960
_cell_angle_gamma	88.759796
loop_
_atom_site_label
_atom_site_type_symbol
_atom_site_fract_x
_atom_site_fract_y
_atom_site_fract_z
O1	O	1.393285	0.141359	-0.582218
O2	O	1.087768	0.156734	-0.462280
O3	O	1.248214	-0.003708	-0.582218
O4	O	1.232839	0.301801	-0.462280
O5	O	1.248204	-0.003712	-0.353636
O6	O	1.087758	0.156729	-0.233697
O7	O	1.393274	0.141355	-0.353636
Zn8	Zn	1.240515	0.149041	-0.257374
Zn9	Zn	1.240528	0.149047	-0.558541
O10	O	1.232828	0.301796	-0.233698
C11	C	1.048655	0.155871	-0.333693
C12	C	0.932127	0.153292	-0.291103
C13	C	0.877383	0.152080	-0.146485
C14	C	0.767900	0.149647	-0.106462
C15	C	0.713148	0.148435	-0.211049
C16	C	0.767891	0.149654	-0.355667
C17	C	0.877386	0.152079	-0.395697
C18	C	0.713152	0.148434	-0.460261
C19	C	0.767894	0.149653	-0.604878
C20	C	0.877379	0.152079	-0.644902
C21	C	0.932130	0.153291	-0.540314
C22	C	0.603657	0.146009	-0.420231
C23	C	0.603660	0.146008	-0.669443
C24	C	0.713143	0.148441	-0.709465
C25	C	1.247348	-0.042817	-0.482225
C26	C	1.244770	-0.159343	-0.524824
C27	C	1.237475	-0.487833	-0.146486
C28	C	1.239889	-0.378350	-0.106457
C29	C	1.241109	-0.323593	-0.211045
C30	C	1.239915	-0.378330	-0.355669
C31	C	1.237493	-0.487822	-0.395699
C32	C	1.241128	-0.323582	-0.460258
C33	C	1.239933	-0.378319	-0.604882
C34	C	1.237512	-0.487801	-0.644905
C35	C	1.236291	-0.542558	-0.540317
C36	C	1.243550	-0.214089	-0.420229
C37	C	1.243568	-0.214079	-0.669442
C38	C	1.241154	-0.323562	-0.709471
C39	C	1.432387	0.142218	-0.482225
C40	C	1.548916	0.144796	-0.524825
C41	C	1.233694	0.340905	-0.333694
C42	C	1.236273	0.457431	-0.291104
N43	N	1.240513	0.149037	-0.051839
N44	N	1.240538	0.149043	-0.764083
C45	C	1.311583	0.078023	-0.033020
C46	C	1.311593	0.078023	0.110860
C47	C	1.169461	0.220060	0.217092
C48	C	1.169446	0.220054	0.073215
H49	H	0.723338	0.148641	0.011279
H50	H	1.243073	-0.234447	-0.178444
H51	H	1.369463	0.020196	0.126174
H52	H	1.240181	-0.368143	-0.827225
H53	H	0.559081	0.145023	-0.754606
H54	H	0.559094	0.145025	-0.302479
H55	H	1.111601	0.277883	0.318924
H56	H	1.236530	-0.532363	-0.762663
H57	H	0.624002	0.146456	-0.178453
H58	H	1.369448	0.020195	-0.134838
O59	O	1.244881	-0.155038	-0.782266
H60	H	1.317443	-0.114205	-0.800091
H61	H	0.921972	0.153059	-0.061350
O62	O	1.244857	-0.155064	-0.264259
H63	H	1.172941	-0.167046	-0.182103
O64	O	1.092793	0.296654	0.052902
H65	H	1.043389	0.346049	0.164029
H66	H	1.234330	-0.631709	-0.572903
H67	H	1.021280	0.155275	-0.572893
H68	H	0.921949	0.153057	-0.762664
H69	H	1.240872	-0.333793	0.011291
O70	O	0.772192	0.149732	-0.865454
H71	H	0.857524	0.151609	-0.875715
H72	H	1.236473	-0.532425	-0.061343
