data_functionalizedCrystal
_audit_creation_method	'MofGen! by Chris Wilmer'
_symmetry_space_group_name_H-M	'P1'
_symmetry_Int_Tables_number	1
_symmetry_cell_setting	triclinic
loop_
_symmetry_equiv_pos_as_xyz
  x,y,z
_cell_length_a	16.959455
_cell_length_b	12.594516
_cell_length_c	16.959447
_cell_angle_alpha	90.026821
_cell_angle_beta	90.014322
_cell_angle_gamma	90.008763
loop_
_atom_site_label
_atom_site_type_symbol
_atom_site_fract_x
_atom_site_fract_y
_atom_site_fract_z
Zn1	Zn	1.208429	-0.423808	0.446928
Zn2	Zn	1.208371	-0.601815	0.314757
Zn3	Zn	1.076258	-0.423841	0.314765
Zn4	Zn	1.076241	-0.601735	0.446896
O5	O	1.142325	-0.512800	0.380837
O6	O	1.319032	-0.447440	0.429405
O7	O	1.190828	-0.578253	0.204148
O8	O	1.093822	-0.274891	0.332314
O9	O	1.318989	-0.578221	0.332300
O10	O	1.190928	-0.274866	0.429413
O11	O	1.093765	-0.447497	0.204153
O12	O	0.965645	-0.447420	0.332283
O13	O	1.093794	-0.578085	0.557511
O14	O	0.965633	-0.578118	0.429359
O15	O	1.190912	-0.447363	0.557535
O16	O	1.190812	-0.750750	0.332269
O17	O	1.093737	-0.750692	0.429351
C18	C	0.936958	-0.512765	0.380819
C19	C	0.849102	-0.512775	0.380830
C20	C	1.142288	-0.789341	0.380823
C21	C	1.142345	-0.907646	0.380844
C22	C	0.477608	-0.444690	0.330395
C23	C	0.477644	-0.580998	0.431324
C24	C	0.560190	-0.580982	0.431319
C25	C	0.601449	-0.512821	0.380850
C26	C	0.560162	-0.444674	0.330387
C27	C	0.601484	-0.649135	0.481776
C28	C	0.684035	-0.649123	0.481773
C29	C	0.725295	-0.580955	0.431307
C30	C	0.684002	-0.512806	0.380842
C31	C	0.725261	-0.444644	0.330374
C32	C	0.683970	-0.376488	0.279912
C33	C	0.601422	-0.376507	0.279922
C34	C	0.807843	-0.580937	0.431298
C35	C	0.807815	-0.444629	0.330366
C36	C	1.195205	-0.976892	0.328097
C37	C	1.214514	-1.047592	0.400242
C38	C	1.123134	-1.047745	0.308744
C39	C	1.161691	-0.976787	0.453026
C40	C	1.070277	-0.976935	0.361480
C41	C	1.089559	-1.047602	0.433675
C42	C	1.348493	-0.512836	0.380855
C43	C	1.436349	-0.512851	0.380863
C44	C	1.142358	-0.512712	0.587005
C45	C	1.142372	-0.512674	0.674862
C46	C	1.142383	-0.235179	0.380868
C47	C	1.142408	-0.116873	0.380881
C48	C	1.142337	-0.512811	0.175470
C49	C	1.142477	-0.512548	0.087614
C50	C	1.091901	-0.580623	1.046328
C51	C	1.193031	-0.444501	1.046347
C52	C	1.193010	-0.444523	0.963801
C53	C	1.142435	-0.512598	0.922515
C54	C	1.091880	-0.580650	0.963774
C55	C	1.243569	-0.376480	0.922536
C56	C	1.243550	-0.376501	0.839985
C57	C	1.192970	-0.444571	0.798697
C58	C	1.142414	-0.512625	0.839961
C59	C	1.091838	-0.580699	0.798675
C60	C	1.041277	-0.648749	0.839938
C61	C	1.041300	-0.648720	0.922486
C62	C	1.192947	-0.444600	0.716148
C63	C	1.091817	-0.580726	0.716121
H64	H	0.841401	-0.389116	0.289273
H65	H	1.234115	-0.389198	0.682556
H66	H	0.717574	-0.320996	0.238817
H67	H	0.841459	-0.636432	0.472381
C68	C	1.183778	-0.934863	0.535443
N69	N	1.200418	-0.903283	0.597517
H70	H	0.443985	-0.389196	0.289312
H71	H	1.106860	-1.078913	0.247755
C72	C	0.555996	-0.301546	0.224416
N73	N	0.521778	-0.245089	0.182607
H74	H	1.000138	-0.704125	0.956090
H75	H	0.444047	-0.636498	0.472408
H76	H	1.050733	-0.636024	1.079928
H77	H	0.567885	-0.704636	0.522859
C78	C	0.729447	-0.724092	0.537284
N79	N	0.763652	-0.780557	0.579097
C80	C	1.296884	-1.089533	0.422394
N81	N	1.358927	-1.121121	0.439073
H82	H	1.239914	-0.945844	0.283531
H83	H	1.044884	-1.078454	0.478348
C84	C	0.987933	-0.934956	0.339292
N85	N	0.925912	-0.903333	0.322570
H86	H	1.050625	-0.636152	0.682511
H87	H	1.000102	-0.704180	0.806311
H88	H	1.234211	-0.389083	1.079968
H89	H	1.284749	-0.321064	0.956157
C90	C	1.299160	-0.301635	0.794603
N91	N	1.341043	-0.245240	0.760421
