data_functionalizedCrystal
_audit_creation_method	'MofGen! by Chris Wilmer'
_symmetry_space_group_name_H-M	'P1'
_symmetry_Int_Tables_number	1
_symmetry_cell_setting	triclinic
loop_
_symmetry_equiv_pos_as_xyz
  x,y,z
_cell_length_a	17.699083
_cell_length_b	17.019294
_cell_length_c	16.776229
_cell_angle_alpha	86.114377
_cell_angle_beta	89.998886
_cell_angle_gamma	83.339169
loop_
_atom_site_label
_atom_site_type_symbol
_atom_site_fract_x
_atom_site_fract_y
_atom_site_fract_z
O1	O	1.004147	0.099757	-0.073023
O2	O	0.783778	0.112736	-0.073940
O3	O	0.900110	-0.008599	-0.065593
O4	O	0.887815	0.221091	-0.081369
O5	O	0.900094	-0.008606	0.066984
O6	O	0.783762	0.112728	0.058637
O7	O	1.004132	0.099750	0.059554
Zn8	Zn	0.893945	0.106238	0.080145
Zn9	Zn	0.893965	0.106247	-0.094531
O10	O	0.887800	0.221084	0.051208
C11	C	0.755573	0.112267	-0.007622
C12	C	0.671554	0.110872	-0.007537
C13	C	0.622982	0.182092	-0.012428
C14	C	0.544037	0.180777	-0.012327
C15	C	0.513667	0.108240	-0.007341
C16	C	0.562245	0.037014	-0.002447
C17	C	0.641188	0.038330	-0.002542
C18	C	0.243878	0.031703	-0.002062
C19	C	0.164929	0.030392	-0.001970
C20	C	0.146728	0.174150	-0.011848
C21	C	0.225671	0.175466	-0.011943
C22	C	0.274242	0.104240	-0.007044
C23	C	0.359842	0.105668	-0.007152
C24	C	0.428068	0.106811	-0.007239
C25	C	0.899635	-0.037991	0.002712
C26	C	0.898237	-0.125559	0.008720
C27	C	0.897590	-0.166690	-0.060724
C28	C	0.896270	-0.248968	-0.055076
C29	C	0.895604	-0.290115	0.020017
C30	C	0.896248	-0.248978	0.089467
C31	C	0.897562	-0.166700	0.083818
C32	C	0.891631	-0.538541	0.040688
C33	C	0.890320	-0.620825	0.046332
C34	C	0.890340	-0.620810	-0.098211
C35	C	0.891659	-0.538531	-0.103854
C36	C	0.892299	-0.497400	-0.034404
C37	C	0.894258	-0.374218	0.025792
C38	C	0.893640	-0.413299	-0.040180
C39	C	1.032337	0.100218	-0.006765
C40	C	1.116356	0.101613	-0.006856
C41	C	0.888274	0.250476	-0.017099
C42	C	0.889673	0.338044	-0.023112
N43	N	0.893936	0.106230	0.199357
N44	N	0.893979	0.106248	-0.213742
C45	C	0.945464	0.052526	0.244768
C46	C	0.945468	0.052525	0.328221
C47	C	0.893948	0.106234	0.366260
C48	C	0.842415	0.159941	0.320843
C49	C	0.842407	0.159937	0.237392
C50	C	0.842442	0.159956	0.657389
C51	C	0.842455	0.159957	0.740845
C52	C	0.945502	0.052544	0.748217
C53	C	0.945495	0.052541	0.664767
C54	C	0.893960	0.106245	0.619357
C55	C	0.893955	0.106244	0.528869
C56	C	0.893956	0.106239	0.456746
H57	H	0.283416	-0.026293	0.001927
C58	C	0.894375	-0.368044	-0.122779
H59	H	0.893799	-0.404320	-0.163334
H60	H	0.939002	-0.342044	-0.127556
H61	H	0.850766	-0.329848	-0.128411
H62	H	0.987425	0.008794	0.365194
H63	H	0.987450	0.008809	0.633798
C64	C	0.259075	0.255256	-0.017424
H65	H	0.218840	0.297485	-0.020315
H66	H	0.289492	0.258763	-0.063897
H67	H	0.289491	0.258751	0.028574
C68	C	0.093298	0.252498	-0.017225
H69	H	0.041932	0.241329	-0.016445
H70	H	0.102493	0.282249	-0.065503
H71	H	0.102500	0.282244	0.026968
H72	H	0.895701	-0.282486	0.150609
H73	H	0.898078	-0.133211	0.140367
C74	C	0.490611	0.259119	-0.017710
H75	H	0.520006	0.302508	-0.020703
H76	H	0.459440	0.261596	0.028355
H77	H	0.459435	0.261594	-0.064116
C78	C	0.785762	0.219035	0.607448
H79	H	0.755088	0.251027	0.642057
H80	H	0.754284	0.190702	0.576847
H81	H	0.812952	0.251839	0.572635
C82	C	0.898323	-0.121435	-0.143328
H83	H	0.897741	-0.157718	-0.183877
H84	H	0.942950	-0.095437	-0.148115
H85	H	0.854714	-0.083240	-0.148959
C86	C	1.002183	-0.006538	0.798170
H87	H	0.994806	0.001147	0.853319
H88	H	1.052683	0.001963	0.783904
H89	H	0.994018	-0.059178	0.788113
H90	H	0.140205	-0.028680	0.002092
C91	C	0.785745	0.219020	0.362683
H92	H	0.793134	0.211338	0.418887
H93	H	0.735242	0.210521	0.349600
H94	H	0.793910	0.271659	0.345382
C95	C	0.694617	-0.040012	0.002831
H96	H	0.665224	-0.083402	0.005805
H97	H	0.725795	-0.042492	0.049230
H98	H	0.725786	-0.042481	-0.043241
C99	C	0.892383	-0.493273	-0.186456
H100	H	0.891800	-0.529553	-0.227007
H101	H	0.937008	-0.467273	-0.191244
H102	H	0.848773	-0.455080	-0.192083
C103	C	0.528839	-0.042776	0.003037
H104	H	0.474867	-0.033361	0.002384
H105	H	0.545517	-0.072099	0.051282
H106	H	0.545517	-0.072089	-0.041189
H107	H	0.889817	-0.654307	-0.154753
H108	H	0.895747	-0.282454	-0.111625
C109	C	0.656386	0.261882	-0.017915
H110	H	0.710358	0.252468	-0.017279
H111	H	0.639710	0.291200	0.026303
H112	H	0.639705	0.291200	-0.066167
H113	H	0.889773	-0.654324	0.107485
H114	H	0.893717	-0.407729	0.086933
C115	C	0.892349	-0.493310	0.117080
H116	H	0.891775	-0.529603	0.162610
H117	H	0.848748	-0.455112	0.117465
H118	H	0.936984	-0.467316	0.118302
C119	C	1.002136	-0.006556	0.202932
H120	H	1.032819	-0.038545	0.241933
H121	H	1.033606	0.021776	0.168424
H122	H	0.974939	-0.039362	0.172641
H123	H	0.800498	0.203695	0.771815
H124	H	0.800448	0.203668	0.200419
