data_functionalizedCrystal
_audit_creation_method	'MofGen! by Chris Wilmer'
_symmetry_space_group_name_H-M	'P1'
_symmetry_Int_Tables_number	1
_symmetry_cell_setting	triclinic
loop_
_symmetry_equiv_pos_as_xyz
  x,y,z
_cell_length_a	10.686220
_cell_length_b	14.908520
_cell_length_c	14.908308
_cell_angle_alpha	96.360765
_cell_angle_beta	97.378149
_cell_angle_gamma	97.432447
loop_
_atom_site_label
_atom_site_type_symbol
_atom_site_fract_x
_atom_site_fract_y
_atom_site_fract_z
Zn1	Zn	1.872173	-0.280779	-0.423725
Zn2	Zn	1.872028	-0.423432	-0.281103
Zn3	Zn	1.672207	-0.283733	-0.284008
Zn4	Zn	1.646075	-0.445272	-0.445549
O5	O	1.765621	-0.358304	-0.358596
O6	O	2.050402	-0.289325	-0.394457
O7	O	1.856397	-0.396998	-0.154196
O8	O	1.709730	-0.156036	-0.294624
O9	O	2.050296	-0.394132	-0.289673
O10	O	1.856644	-0.153865	-0.397273
O11	O	1.709590	-0.294361	-0.156330
O12	O	1.490492	-0.315538	-0.315786
O13	O	1.665191	-0.431355	-0.569946
O14	O	1.471293	-0.434220	-0.434469
O15	O	1.831304	-0.310502	-0.553912
O16	O	1.831058	-0.553635	-0.310835
O17	O	1.665051	-0.569680	-0.431652
C18	C	1.434675	-0.377571	-0.377811
C19	C	1.293091	-0.385836	-0.386054
C20	C	1.745236	-0.594666	-0.373315
C21	C	1.736629	-0.695777	-0.379635
C22	C	1.893478	-0.869004	-0.265789
C23	C	1.885396	-0.964007	-0.271724
C24	C	1.712389	-0.980788	-0.397445
C25	C	1.720471	-0.885785	-0.391509
C26	C	1.811018	-0.829896	-0.325678
C27	C	1.819093	-0.734891	-0.319739
C28	C	1.646093	-0.751674	-0.445463
C29	C	1.638011	-0.846677	-0.451399
C30	C	2.097859	-0.338963	-0.339307
C31	C	2.239439	-0.330721	-0.331087
C32	C	1.745349	-0.373035	-0.595858
C33	C	1.736710	-0.379313	-0.696965
C34	C	1.786118	-0.121019	-0.343838
C35	C	1.794853	-0.019902	-0.337549
C36	C	1.893449	-0.265244	-0.870260
C37	C	1.885336	-0.271139	-0.965258
C38	C	1.712367	-0.396993	-0.981962
C39	C	1.720480	-0.391098	-0.886963
C40	C	1.811025	-0.325222	-0.831115
C41	C	1.819143	-0.319332	-0.736115
C42	C	1.646169	-0.445181	-0.752821
C43	C	1.638056	-0.451076	-0.847819
C44	C	1.785893	-0.343560	-0.122249
C45	C	1.794800	-0.337012	-0.021112
H46	H	1.967196	-0.823498	-0.212181
H47	H	1.638678	-1.026308	-0.451046
H48	H	1.579056	-0.494022	-0.720940
H49	H	1.952546	-0.995844	-0.222957
C50	C	1.538416	-0.908161	-0.523809
C51	C	1.436274	-0.976926	-0.494218
C52	C	1.336676	-1.038409	-0.566629
C53	C	1.339219	-1.031127	-0.668630
C54	C	1.441365	-0.962359	-0.698226
C55	C	1.540963	-0.900876	-0.625815
H56	H	1.434387	-0.982319	-0.418706
H57	H	1.261061	-1.089315	-0.544719
H58	H	1.265491	-1.076640	-0.722233
H59	H	1.443252	-0.956966	-0.773738
H60	H	1.616578	-0.849970	-0.647725
C61	C	1.993051	-0.192790	-0.808822
C62	C	2.095226	-0.222340	-0.740161
C63	C	2.194832	-0.149885	-0.678725
C64	C	2.192262	-0.047879	-0.685951
C65	C	2.090083	-0.018324	-0.754616
C66	C	1.990477	-0.090779	-0.816051
H67	H	2.097132	-0.297855	-0.734809
H68	H	2.270472	-0.171764	-0.627895
H69	H	2.265997	0.005756	-0.640473
H70	H	2.088178	0.057191	-0.759967
H71	H	1.914838	-0.068900	-0.866881
C72	C	1.538474	-0.523550	-0.909249
C73	C	1.395420	-0.523775	-0.904137
C74	C	1.295844	-0.596259	-0.965561
C75	C	1.339320	-0.668518	-1.032096
C76	C	1.482380	-0.668296	-1.037211
C77	C	1.581957	-0.595812	-0.975787
H78	H	1.363230	-0.470281	-0.854881
H79	H	1.189941	-0.596423	-0.961775
H80	H	1.265607	-0.722175	-1.077566
H81	H	1.514570	-0.721790	-1.086466
H82	H	1.687860	-0.595649	-0.979573
H83	H	1.578944	-0.719822	-0.494227
H84	H	1.892871	-0.265694	-0.690645
H85	H	1.892817	-0.689387	-0.266134
C86	C	1.208820	-0.458135	-0.458153
C87	C	1.218806	-0.456242	-0.560076
C88	C	1.134535	-0.528540	-0.632173
C89	C	1.040278	-0.602729	-0.602349
C90	C	1.030288	-0.604625	-0.500422
C91	C	1.114558	-0.532327	-0.428324
H92	H	1.288584	-0.401320	-0.582158
H93	H	1.141931	-0.527136	-0.707626
H94	H	0.977896	-0.656248	-0.655719
H95	H	0.960509	-0.659547	-0.478339
H96	H	1.107162	-0.533731	-0.352871
H97	H	1.952451	-0.222297	-0.997125
C98	C	1.612796	-0.469480	-1.043385
C99	C	1.469739	-0.469724	-1.038275
C100	C	1.370179	-0.542227	-1.099688
C101	C	1.413676	-0.614487	-1.166212
C102	C	1.556740	-0.614247	-1.171324
C103	C	1.656300	-0.541743	-1.109911
H104	H	1.437534	-0.416230	-0.989028
H105	H	1.264274	-0.542405	-1.095903
H106	H	1.339975	-0.668159	-1.211674
H107	H	1.588945	-0.667740	-1.220571
H108	H	1.762205	-0.541565	-1.113695
C109	C	1.323704	-0.258426	-0.258991
C110	C	1.417962	-0.184238	-0.288817
C111	C	1.502237	-0.111942	-0.216721
C112	C	1.492254	-0.113834	-0.114798
C113	C	1.397992	-0.188025	-0.084967
C114	C	1.313717	-0.260321	-0.157064
H115	H	1.425356	-0.182835	-0.364271
H116	H	1.572016	-0.057021	-0.238804
H117	H	1.554639	-0.060316	-0.061428
H118	H	1.390598	-0.189428	-0.009514
H119	H	1.243938	-0.315242	-0.134980
