data_functionalizedCrystal
_audit_creation_method	'MofGen! by Chris Wilmer'
_symmetry_space_group_name_H-M	'P1'
_symmetry_Int_Tables_number	1
_symmetry_cell_setting	triclinic
loop_
_symmetry_equiv_pos_as_xyz
  x,y,z
_cell_length_a	14.971486
_cell_length_b	13.330367
_cell_length_c	14.971494
_cell_angle_alpha	90.002923
_cell_angle_beta	83.615843
_cell_angle_gamma	90.002597
loop_
_atom_site_label
_atom_site_type_symbol
_atom_site_fract_x
_atom_site_fract_y
_atom_site_fract_z
O1	O	1.186952	0.083304	0.116562
O2	O	0.926552	0.083331	0.130520
O3	O	1.063728	0.083315	-0.006659
O4	O	1.049777	0.083321	0.253741
O5	O	1.063708	-0.083532	-0.006662
O6	O	0.926533	-0.083516	0.130517
O7	O	1.186932	-0.083543	0.116559
Cu8	Cu	1.056731	-0.098764	0.123538
Cu9	Cu	1.056754	0.098552	0.123541
O10	O	1.049757	-0.083527	0.253737
C11	C	0.893218	-0.000089	0.129895
C12	C	0.793921	-0.000079	0.128024
C13	C	0.736698	-0.000078	0.208613
C14	C	0.643398	-0.000093	0.206850
C15	C	0.607323	-0.000102	0.124497
C16	C	0.664554	-0.000105	0.043902
C17	C	0.757851	-0.000097	0.045666
C18	C	0.470091	-0.000119	0.040231
C19	C	0.376787	-0.000125	0.038466
C20	C	0.355638	-0.000115	0.201415
C21	C	0.448936	-0.000107	0.203179
C22	C	0.506159	-0.000109	0.122583
N23	N	1.056721	-0.237545	0.123535
C24	C	0.996010	-0.710161	0.184260
C25	C	1.117522	-0.710144	0.062815
C26	C	1.117512	-0.605125	0.062813
C27	C	1.056751	-0.552620	0.123535
C28	C	0.996000	-0.605133	0.184261
C29	C	1.178268	-0.552604	0.002094
C30	C	1.178261	-0.447580	0.002090
C31	C	1.117495	-0.395072	0.062809
C32	C	1.056741	-0.447592	0.123536
C33	C	0.995980	-0.395087	0.184259
C34	C	0.935221	-0.447604	0.244983
C35	C	0.935234	-0.552626	0.244980
C36	C	1.117482	-0.290051	0.062812
C37	C	0.995970	-0.290058	0.184260
C38	C	1.220267	-0.000121	0.117184
C39	C	1.319564	-0.000124	0.119055
C40	C	1.063093	-0.000107	-0.039985
C41	C	1.061219	-0.000102	-0.139281
N42	N	1.056771	0.237334	0.123537
C43	C	1.060352	0.090847	-0.185924
C44	C	1.058585	0.090849	-0.279223
C45	C	1.057693	-0.000101	-0.325879
C46	C	1.058557	-0.091057	-0.279229
C47	C	1.060317	-0.091058	-0.185930
C48	C	1.054892	-0.091050	-0.473692
C49	C	1.053133	-0.091050	-0.566997
C50	C	1.053159	0.090856	-0.566985
C51	C	1.054919	0.090856	-0.473687
C52	C	1.055786	-0.000101	-0.427043
C53	C	1.050392	-0.000102	0.287064
C54	C	1.052266	-0.000101	0.386360
H55	H	0.804442	-0.000097	-0.019958
H56	H	0.766062	-0.000071	0.275674
H57	H	0.946539	-0.752923	0.233698
C58	C	1.245100	-0.610366	-0.064696
N59	N	1.295439	-0.653877	-0.115008
H60	H	1.061083	0.164909	-0.147945
C61	C	0.488616	-0.000102	0.293771
N62	N	0.518502	-0.000104	0.362007
H63	H	1.227733	-0.404826	-0.047355
H64	H	0.946487	-0.247315	0.233705
H65	H	0.635174	-0.000126	-0.023152
H66	H	1.052452	0.164917	-0.604966
H67	H	0.885752	-0.404842	0.294428
H68	H	1.061011	-0.165118	-0.147953
H69	H	1.166955	-0.247296	0.013375
C70	C	1.057713	0.190901	-0.330537
N71	N	1.057086	0.266264	-0.369190
H72	H	1.052399	-0.165109	-0.604980
C73	C	0.868401	-0.610403	0.311766
N74	N	0.818061	-0.653925	0.362068
H75	H	1.166996	-0.752897	0.013381
H76	H	1.055653	0.164915	-0.435703
C77	C	1.055848	-0.191108	-0.422387
N78	N	1.056575	-0.266470	-0.383745
H79	H	0.596810	-0.000092	0.272473
H80	H	0.309041	-0.000118	0.267038
H81	H	0.347418	-0.000133	-0.028593
H82	H	0.516681	-0.000122	-0.025399
H83	H	1.057825	-0.165110	-0.317222
