data_functionalizedCrystal
_audit_creation_method	'MofGen! by Chris Wilmer'
_symmetry_space_group_name_H-M	'P1'
_symmetry_Int_Tables_number	1
_symmetry_cell_setting	triclinic
loop_
_symmetry_equiv_pos_as_xyz
  x,y,z
_cell_length_a	10.489741
_cell_length_b	15.995350
_cell_length_c	15.072220
_cell_angle_alpha	90.001101
_cell_angle_beta	89.990160
_cell_angle_gamma	84.015774
loop_
_atom_site_label
_atom_site_type_symbol
_atom_site_fract_x
_atom_site_fract_y
_atom_site_fract_z
O1	O	1.692416	0.118125	-0.073723
O2	O	1.321066	0.129214	-0.073736
O3	O	1.516892	0.001843	-0.073728
O4	O	1.496590	0.245496	-0.073731
O5	O	1.516844	0.001850	0.073837
O6	O	1.321017	0.129221	0.073829
O7	O	1.692368	0.118132	0.073842
Zn8	Zn	1.506685	0.123678	0.097265
Zn9	Zn	1.506749	0.123669	-0.097159
O10	O	1.496541	0.245503	0.073834
C11	C	1.516029	-0.029353	0.000053
C12	C	1.513512	-0.122319	0.000047
C13	C	1.273521	0.128380	0.000045
C14	C	1.131927	0.125874	0.000039
C15	C	1.504476	-0.460121	0.000050
C16	C	1.365012	-0.413528	-0.000286
C17	C	1.367528	-0.316822	0.000047
C18	C	1.508958	-0.292533	0.000048
C19	C	1.577719	-0.333192	0.084316
C20	C	1.574216	-0.429849	0.084387
C21	C	1.577152	-0.430197	-0.083423
C22	C	1.577119	-0.333252	-0.084536
C23	C	1.511499	-0.197820	0.000050
C24	C	1.501939	-0.554834	0.000054
C25	C	1.064921	0.044832	0.000048
C26	C	0.972282	0.083112	-0.072707
C27	C	0.972268	0.083138	0.072780
C28	C	1.041153	0.164188	-0.072777
C29	C	1.041149	0.164203	0.072776
C30	C	0.948537	0.202542	0.000003
C31	C	1.739912	0.118966	0.000060
C32	C	1.881507	0.121472	0.000059
C33	C	1.497405	0.276699	0.000052
C34	C	1.499921	0.369665	0.000051
N35	N	1.506651	0.123683	0.229954
N36	N	1.506793	0.123656	-0.229847
C37	C	1.506746	0.123665	0.589155
C38	C	1.401611	0.191586	0.551544
C39	C	1.401852	0.191838	0.448718
C40	C	1.506698	0.123674	0.410951
C41	C	1.639783	0.143558	0.448247
C42	C	1.639194	0.144042	0.551105
C43	C	1.479982	0.035664	0.551255
C44	C	1.476928	0.036232	0.448391
C45	C	1.506679	0.123678	0.310238
C46	C	1.506774	0.123664	0.689868
H47	H	1.313476	-0.288729	-0.060360
H48	H	0.941768	0.048819	-0.134218
C49	C	0.931042	0.036799	0.155879
N50	N	0.899996	0.001890	0.218465
C51	C	1.424949	0.280037	0.415462
N52	N	1.442353	0.346472	0.390415
C53	C	1.082177	0.210466	-0.155972
N54	N	1.113080	0.245318	-0.218636
H55	H	1.071695	0.198468	0.134290
H56	H	0.898180	0.269234	-0.000037
H57	H	1.719872	0.096565	0.575983
C58	C	1.672400	0.229318	0.413447
N59	N	1.696957	0.293917	0.387241
H60	H	1.309289	-0.432398	-0.060716
H61	H	1.679978	-0.461338	-0.083988
C62	C	1.133261	-0.045184	-0.000049
N63	N	1.184737	-0.112982	-0.000127
C64	C	1.267536	0.175688	0.585011
N65	N	1.166548	0.163716	0.610230
H66	H	1.302927	0.179872	0.423504
H67	H	1.418466	0.256505	0.577382
H68	H	1.662779	0.208245	0.575087
H69	H	1.526846	-0.306310	-0.146875
C70	C	1.748003	0.078553	0.415194
N71	N	1.829513	0.029589	0.390296
C72	C	1.718080	-0.313246	0.088566
N73	N	1.823798	-0.298215	0.091769
C74	C	1.351695	0.010120	0.586329
N75	N	1.255063	-0.009109	0.612747
H76	H	1.309497	-0.433453	0.059804
H77	H	1.548529	-0.016742	0.422686
C78	C	1.293965	-0.279614	0.081790
N79	N	1.238556	-0.251590	0.143364
C80	C	1.506408	-0.454979	0.169478
N81	N	1.455329	-0.473902	0.233569
C82	C	1.712538	-0.472582	0.089567
N83	N	1.816721	-0.504765	0.093475
C84	C	1.716460	-0.311666	-0.091406
N85	N	1.821419	-0.295411	-0.096572
H86	H	1.379029	0.021161	0.424016
H87	H	1.556652	-0.014889	0.575576
C88	C	1.513141	-0.295242	0.169034
N89	N	1.464491	-0.266661	0.232841
H90	H	1.531575	-0.451015	-0.147292
