data_functionalizedCrystal
_audit_creation_method	'MofGen! by Chris Wilmer'
_symmetry_space_group_name_H-M	'P1'
_symmetry_Int_Tables_number	1
_symmetry_cell_setting	triclinic
loop_
_symmetry_equiv_pos_as_xyz
  x,y,z
_cell_length_a	21.395362
_cell_length_b	19.121747
_cell_length_c	21.395355
_cell_angle_alpha	87.576730
_cell_angle_beta	90.043940
_cell_angle_gamma	87.607996
loop_
_atom_site_label
_atom_site_type_symbol
_atom_site_fract_x
_atom_site_fract_y
_atom_site_fract_z
Zn1	Zn	0.968491	-0.279375	0.365231
Zn2	Zn	0.972862	-0.396799	0.264928
Zn3	Zn	0.863707	-0.279408	0.260434
Zn4	Zn	0.868145	-0.396813	0.369634
O5	O	0.918301	-0.338099	0.315057
O6	O	1.056748	-0.294932	0.351965
O7	O	0.958355	-0.381234	0.176655
O8	O	0.873921	-0.181127	0.270612
O9	O	1.059960	-0.381202	0.278272
O10	O	0.950905	-0.181103	0.347606
O11	O	0.878160	-0.294988	0.173353
O12	O	0.776619	-0.295002	0.274881
O13	O	0.881483	-0.381227	0.456727
O14	O	0.779879	-0.381259	0.355110
O15	O	0.955208	-0.294946	0.453493
O16	O	0.962658	-0.495077	0.282541
O17	O	0.885722	-0.495088	0.359468
C18	C	0.755515	-0.338136	0.314986
C19	C	0.685875	-0.338169	0.314971
C20	C	0.654878	-0.383142	0.356688
C21	C	0.589442	-0.383125	0.356715
C22	C	0.555006	-0.338142	0.315014
C23	C	0.586010	-0.293159	0.273294
C24	C	0.651445	-0.293173	0.273272
C25	C	0.451066	-0.332484	0.258393
C26	C	0.385633	-0.332475	0.258414
C27	C	0.353183	-0.338096	0.315082
C28	C	0.386176	-0.343739	0.371730
C29	C	0.451611	-0.343753	0.371709
C30	C	0.484053	-0.338122	0.315033
C31	C	0.251233	-0.383053	0.356832
C32	C	0.185796	-0.383031	0.356860
C33	C	0.182366	-0.293069	0.273433
C34	C	0.247802	-0.293087	0.273411
C35	C	0.282232	-0.338083	0.315109
C36	C	0.925163	-0.520565	0.321984
C37	C	0.928155	-0.598624	0.324968
C38	C	0.947139	-1.040110	0.343871
C39	C	0.944320	-0.966765	0.341061
C40	C	0.902862	-0.930171	0.299543
C41	C	0.864223	-0.966926	0.260828
C42	C	0.867046	-1.040270	0.263634
C43	C	0.892339	-0.708723	0.289059
C44	C	0.889519	-0.635374	0.286256
C45	C	0.969617	-0.635218	0.366490
C46	C	0.972433	-0.708564	0.369295
C47	C	0.933797	-0.745312	0.330578
C48	C	0.899978	-0.855200	0.296672
C49	C	0.936684	-0.820282	0.333446
C50	C	1.081723	-0.338062	0.315129
C51	C	1.151364	-0.338046	0.315159
C52	C	0.918353	-0.338084	0.478480
C53	C	0.918375	-0.338078	0.548121
C54	C	0.911431	-0.154920	0.308117
C55	C	0.908503	-0.076860	0.305160
C56	C	0.918284	-0.338062	0.152268
C57	C	0.918376	-0.337870	0.082620
C58	C	0.956761	-0.293150	0.579151
C59	C	0.956759	-0.293120	0.644585
C60	C	0.918378	-0.338031	0.678987
C61	C	0.879984	-0.382962	0.647950
C62	C	0.879982	-0.382986	0.582516
C63	C	0.915808	-0.401267	0.785061
C64	C	0.915814	-0.401244	0.850493
C65	C	0.918379	-0.337956	0.880805
C66	C	0.920951	-0.274689	0.845677
C67	C	0.920949	-0.274713	0.780244
C68	C	0.918375	-0.338009	0.749939
C69	C	0.956765	-0.292991	0.982786
C70	C	0.956759	-0.292960	1.048222
C71	C	0.879987	-0.382809	1.051586
C72	C	0.879990	-0.382834	0.986151
C73	C	0.918382	-0.337926	0.951756
H74	H	0.682907	-0.419780	0.390643
C75	C	0.555338	-0.432604	0.402607
N76	N	0.529653	-0.469872	0.437172
H77	H	0.557968	-0.256532	0.239342
H78	H	0.279268	-0.419688	0.390789
C79	C	0.837761	-0.432361	0.685793
N80	N	0.805955	-0.469567	0.714297
H81	H	0.676682	-0.256548	0.239301
C82	C	0.854369	-0.814940	0.251008
N83	N	0.820016	-0.784613	0.216614
C84	C	0.487900	-0.349960	0.434021
N85	N	0.515233	-0.354635	0.480955
C86	C	0.986833	-0.926343	0.383638
N87	N	1.018860	-0.895898	0.415706
C88	C	0.912985	-0.470839	0.889127
N89	N	0.910853	-0.523260	0.918225
H90	H	0.835584	-1.070191	0.232111
C91	C	0.998993	-0.243697	0.678725
N92	N	1.030805	-0.206474	0.704438
C93	C	0.837764	-0.432262	0.952017
N94	N	0.805956	-0.469493	0.926308
C95	C	0.923770	-0.205066	0.879016
N96	N	0.925895	-0.152628	0.904129
C97	C	0.837767	-0.432212	1.089424
N98	N	0.805966	-0.469423	1.117928
H99	H	0.970442	-0.850080	0.367248
C100	C	0.998992	-0.243586	0.944949
N101	N	1.030796	-0.206373	0.916451
H102	H	0.359758	-0.348315	0.417874
C103	C	1.012119	-0.594789	0.409071
N104	N	1.044135	-0.564337	0.441143
C105	C	0.923769	-0.205120	0.741606
N106	N	0.925889	-0.152701	0.712504
H107	H	0.160559	-0.419653	0.390835
H108	H	0.988023	-0.256582	0.551150
C109	C	0.998988	-0.243531	1.082354
N110	N	1.030797	-0.206301	1.108064
C111	C	0.144489	-0.243586	0.227562
N112	N	0.115958	-0.206313	0.193011
C113	C	0.818617	-0.926670	0.215157
N114	N	0.784264	-0.896350	0.180760
H115	H	0.358775	-0.327884	0.212288
C116	C	0.912999	-0.470895	0.751724
N117	N	0.910888	-0.523337	0.726616
C118	C	0.837754	-0.432415	0.548383
N119	N	0.805948	-0.469646	0.522672
H120	H	0.273040	-0.256468	0.239437
C121	C	0.486753	-0.326304	0.196051
N122	N	0.513632	-0.321650	0.149095
C123	C	0.992749	-1.080357	0.389544
N124	N	1.027105	-1.110669	0.423944
C125	C	0.843921	-0.595122	0.240569
N126	N	0.809581	-0.564805	0.206156
H127	H	1.006200	-0.738353	0.403097
H128	H	0.860879	-0.738636	0.257532
