data_functionalizedCrystal
_audit_creation_method	'MofGen! by Chris Wilmer'
_symmetry_space_group_name_H-M	'P1'
_symmetry_Int_Tables_number	1
_symmetry_cell_setting	triclinic
loop_
_symmetry_equiv_pos_as_xyz
  x,y,z
_cell_length_a	10.654550
_cell_length_b	15.944551
_cell_length_c	9.130313
_cell_angle_alpha	89.997799
_cell_angle_beta	89.996220
_cell_angle_gamma	83.991820
loop_
_atom_site_label
_atom_site_type_symbol
_atom_site_fract_x
_atom_site_fract_y
_atom_site_fract_z
O1	O	1.666308	0.117973	-0.121923
O2	O	1.300684	0.129213	-0.121900
O3	O	1.493480	0.001376	-0.121899
O4	O	1.473511	0.245810	-0.121924
O5	O	1.493478	0.001379	0.121700
O6	O	1.300681	0.129216	0.121699
O7	O	1.666305	0.117976	0.121676
Cu8	Cu	1.483493	0.123596	0.143930
Cu9	Cu	1.483496	0.123592	-0.144154
O10	O	1.473509	0.245813	0.121675
C11	C	1.253895	0.128389	-0.000098
C12	C	1.114484	0.125920	-0.000088
C13	C	1.034024	0.201188	-0.000117
C14	C	0.903034	0.198863	-0.000142
C15	C	0.932975	0.045995	-0.000116
C16	C	1.063963	0.048321	-0.000080
C17	C	1.016737	0.289446	-0.000139
C18	C	0.885746	0.287121	-0.000164
C19	C	1.492650	-0.029921	-0.000099
C20	C	1.490165	-0.123182	-0.000098
C21	C	1.364720	-0.338765	-0.000111
C22	C	1.422971	-0.399443	0.119995
C23	C	1.485668	-0.293934	-0.000109
C24	C	1.423002	-0.399430	-0.120175
C25	C	1.481317	-0.458872	-0.000126
C26	C	1.543953	-0.353384	0.120095
C27	C	1.543967	-0.353364	-0.120182
C28	C	1.602306	-0.414024	-0.000048
C29	C	1.488172	-0.198917	-0.000098
C30	C	1.478822	-0.553887	-0.000127
C31	C	1.713094	0.118800	-0.000130
C32	C	1.852505	0.121269	-0.000149
C33	C	1.474339	0.277110	-0.000128
C34	C	1.476824	0.370371	-0.000139
N35	N	1.483500	0.123599	0.346552
N36	N	1.483499	0.123583	-0.346777
C37	C	1.568892	0.067012	0.423205
C38	C	1.568889	0.067002	0.576542
C39	C	1.398098	0.180173	0.576560
C40	C	1.398096	0.180178	0.423226
C41	C	1.667501	0.001676	0.423195
C42	C	1.667498	0.001666	0.576532
H43	H	0.843584	0.320373	-0.102121
N44	N	1.150755	-0.032857	-0.000042
H45	H	1.205743	-0.035290	0.090277
H46	H	1.098790	-0.082323	-0.000101
H47	H	0.839729	0.313795	0.105001
H48	H	1.328563	0.226238	0.639004
N49	N	1.305982	0.241210	0.340566
H50	H	1.353955	0.278709	0.276943
H51	H	1.250404	0.208705	0.277039
N52	N	1.640209	-0.083839	0.368057
H53	H	1.628022	-0.122003	0.454050
H54	H	1.560990	-0.077493	0.306568
H55	H	1.264327	-0.306038	0.000016
N56	N	1.787927	0.028772	0.360170
H57	H	1.846116	0.041859	0.442497
H58	H	1.830633	-0.018193	0.297871
H59	H	1.637774	-0.059344	0.624087
H60	H	1.371814	-0.419846	0.221540
N61	N	1.795085	0.020729	0.631657
H62	H	1.813400	0.077926	0.594827
H63	H	1.795048	0.020680	0.742273
H64	H	1.371831	-0.419804	-0.221721
H65	H	1.045620	0.323965	0.101809
N66	N	0.878484	-0.037698	-0.000095
H67	H	0.783294	-0.027752	-0.000115
H68	H	0.907935	-0.070676	-0.090387
N69	N	1.611673	-0.326309	-0.254698
H70	H	1.552670	-0.285728	-0.313817
H71	H	1.687681	-0.297691	-0.223993
H72	H	1.052030	0.317547	-0.105314
N73	N	1.611664	-0.326521	0.254743
H74	H	1.612887	-0.263269	0.253941
H75	H	1.566285	-0.343727	0.345279
N76	N	1.735399	-0.457182	0.000019
H77	H	1.780906	-0.440444	0.090775
H78	H	1.732900	-0.520325	-0.000898
