data_functionalizedCrystal
_audit_creation_method	'MofGen! by Chris Wilmer'
_symmetry_space_group_name_H-M	'P1'
_symmetry_Int_Tables_number	1
_symmetry_cell_setting	triclinic
loop_
_symmetry_equiv_pos_as_xyz
  x,y,z
_cell_length_a	14.519709
_cell_length_b	9.130313
_cell_length_c	10.654550
_cell_angle_alpha	89.996220
_cell_angle_beta	84.082524
_cell_angle_gamma	89.997798
loop_
_atom_site_label
_atom_site_type_symbol
_atom_site_fract_x
_atom_site_fract_y
_atom_site_fract_z
O1	O	0.129528	-0.121923	1.666589
O2	O	0.141869	-0.121900	1.300991
O3	O	0.001510	-0.121899	1.493483
O4	O	0.269887	-0.121924	1.474097
O5	O	0.001514	0.121700	1.493481
O6	O	0.141873	0.121699	1.300989
O7	O	0.129532	0.121676	1.666586
Cu8	Cu	0.135703	0.143930	1.483787
Cu9	Cu	0.135698	-0.144154	1.483790
O10	O	0.269891	0.121675	1.474094
C11	C	-0.032852	-0.000099	1.492579
C12	C	-0.135247	-0.000098	1.489871
C13	C	0.140965	-0.000098	1.254201
C14	C	0.138254	-0.000088	1.114784
N15	N	0.135705	0.346552	1.483795
C16	C	-0.510195	-0.000136	1.479904
C17	C	-0.405873	-0.000125	1.482672
C18	C	-0.322725	-0.000116	1.484887
C19	C	-0.218396	-0.000108	1.487656
C20	C	0.304253	-0.000128	1.474999
C21	C	0.406648	-0.000139	1.477707
N22	N	0.135688	-0.346777	1.483793
C23	C	0.073576	0.423205	1.569052
C24	C	0.073565	0.576542	1.569048
C25	C	0.197821	0.576560	1.398527
C26	C	0.197827	0.423226	1.398525
C27	C	0.001840	0.423195	1.667505
C28	C	0.001829	0.576532	1.667502
C29	C	0.220895	-0.000117	1.034504
C30	C	0.218342	-0.000143	0.903507
C31	C	0.050500	-0.000116	0.933085
C32	C	0.053054	-0.000080	1.064078
C33	C	0.317797	-0.000139	1.017426
C34	C	0.315244	-0.000164	0.886430
C35	C	0.130436	-0.000130	1.713377
C36	C	0.133147	-0.000149	1.852794
H37	H	0.248409	0.360817	1.329091
H38	H	0.355697	0.101809	1.046392
H39	H	0.248398	0.639004	1.329102
H40	H	0.017630	0.618141	1.763861
C41	C	-0.037848	-0.000034	1.152388
H42	H	-0.024127	-0.000002	1.237666
H43	H	-0.072757	-0.084977	1.137020
H44	H	-0.072738	0.084930	1.136972
C45	C	0.359485	-0.142208	1.065203
H46	H	0.376287	-0.205495	0.995832
H47	H	0.315035	-0.189396	1.123251
H48	H	0.412867	-0.119375	1.105986
C49	C	-0.043215	-0.000115	0.877309
H50	H	-0.092067	-0.000084	0.943886
H51	H	-0.047704	-0.085072	0.826841
H52	H	-0.047696	0.084835	0.826808
H53	H	0.344531	0.105001	0.840476
C54	C	0.364440	-0.138003	0.829592
H55	H	0.386408	-0.194670	0.895110
H56	H	0.415150	-0.109871	0.771058
H57	H	0.322063	-0.194551	0.787567
C58	C	-0.088664	0.640788	1.627175
H59	H	-0.128958	0.563297	1.609224
H60	H	-0.075122	0.699360	1.553906
H61	H	-0.117751	0.699333	1.693538
C62	C	-0.093912	0.366970	1.639448
H63	H	-0.133294	0.447899	1.627898
H64	H	-0.120118	0.309162	1.708195
H65	H	-0.087393	0.309177	1.564919
H66	H	0.024302	0.375629	1.758473
