data_functionalizedCrystal
_audit_creation_method	'MofGen! by Chris Wilmer'
_symmetry_space_group_name_H-M	'P1'
_symmetry_Int_Tables_number	1
_symmetry_cell_setting	triclinic
loop_
_symmetry_equiv_pos_as_xyz
  x,y,z
_cell_length_a	13.185407
_cell_length_b	11.792254
_cell_length_c	10.268362
_cell_angle_alpha	90.005455
_cell_angle_beta	90.004464
_cell_angle_gamma	68.086041
loop_
_atom_site_label
_atom_site_type_symbol
_atom_site_fract_x
_atom_site_fract_y
_atom_site_fract_z
O1	O	1.445210	-0.295139	0.108258
O2	O	1.128397	-0.180304	0.108270
O3	O	1.294484	-0.405287	0.108255
O4	O	1.279122	-0.070157	0.108274
O5	O	1.294470	-0.405289	-0.108346
O6	O	1.128382	-0.180307	-0.108330
O7	O	1.445195	-0.295142	-0.108342
Cu8	Cu	1.286787	-0.237724	-0.128114
Cu9	Cu	1.286805	-0.237721	0.128042
O10	O	1.279108	-0.070159	-0.108327
C11	C	1.087830	-0.168664	-0.000028
C12	C	0.966976	-0.133988	-0.000024
C13	C	0.675750	-0.464920	-0.000048
C14	C	0.789299	-0.497503	-0.000061
C15	C	0.833724	-0.406627	-0.000051
C16	C	0.764589	-0.283162	-0.000030
C17	C	0.651029	-0.250576	-0.000028
C18	C	0.809003	-0.192283	-0.000031
C19	C	0.739868	-0.068819	-0.000009
C20	C	0.626320	-0.036238	-0.000006
C21	C	0.581895	-0.127114	-0.000016
C22	C	0.922563	-0.224870	-0.000033
C23	C	0.897842	-0.010526	-0.000012
C24	C	0.784293	0.022057	0.000000
C25	C	1.293509	-0.447277	-0.000045
C26	C	1.290613	-0.572387	-0.000044
C27	C	1.288259	-0.673989	-0.000039
C28	C	1.285317	-0.801458	-0.000027
C29	C	1.485762	-0.306782	-0.000041
C30	C	1.606616	-0.341458	-0.000036
C31	C	1.280083	-0.028169	-0.000024
C32	C	1.282979	0.096941	-0.000017
N33	N	1.286783	-0.237730	-0.308279
C34	C	1.286799	-0.237722	-0.573950
C35	C	1.286787	-0.237722	-0.426112
N36	N	1.286817	-0.237728	0.308208
H37	H	0.934011	0.063473	-0.000009
H38	H	0.926181	-0.433164	-0.000061
C39	C	0.708231	0.157865	0.000012
N40	N	0.650939	0.260156	0.000017
H41	H	0.978842	-0.325396	-0.000048
H42	H	0.570032	0.064294	-0.000002
H43	H	0.845581	-0.598027	-0.000083
C44	C	0.626874	-0.564867	-0.000067
N45	N	0.590060	-0.640155	-0.000082
C46	C	0.456984	-0.091279	-0.000025
N47	N	0.362901	-0.064291	-0.000041
