data_functionalizedCrystal
_audit_creation_method	'MofGen! by Chris Wilmer'
_symmetry_space_group_name_H-M	'P1'
_symmetry_Int_Tables_number	1
_symmetry_cell_setting	triclinic
loop_
_symmetry_equiv_pos_as_xyz
  x,y,z
_cell_length_a	10.540539
_cell_length_b	26.210047
_cell_length_c	10.540535
_cell_angle_alpha	89.996793
_cell_angle_beta	84.524567
_cell_angle_gamma	90.007062
loop_
_atom_site_label
_atom_site_type_symbol
_atom_site_fract_x
_atom_site_fract_y
_atom_site_fract_z
O1	O	1.685895	0.042407	0.178883
O2	O	1.316481	0.042413	0.195739
O3	O	1.509619	0.042405	0.002604
O4	O	1.492757	0.042415	0.372018
O5	O	1.509582	-0.042453	0.002634
O6	O	1.316444	-0.042445	0.195769
O7	O	1.685857	-0.042451	0.178913
Cu8	Cu	1.501147	-0.050196	0.187343
Cu9	Cu	1.501191	0.050158	0.187308
O10	O	1.492720	-0.042443	0.372048
C11	C	1.269160	-0.000015	0.194490
C12	C	1.128212	-0.000013	0.190708
N13	N	1.501125	-0.120780	0.187368
C14	C	0.944787	-0.000215	0.045790
C15	C	1.091405	-0.000018	0.049624
C16	C	1.066559	0.048445	0.258586
C17	C	0.920015	0.048481	0.253771
C18	C	0.919484	-0.048019	0.256675
C19	C	1.066466	-0.048654	0.257975
C20	C	1.586704	-0.473298	0.101807
C21	C	1.586732	-0.686957	0.101790
O22	O	1.659445	-0.714582	0.029048
N23	N	1.501198	-0.713674	0.187280
C24	C	1.415645	-0.686974	0.272775
O25	O	1.342885	-0.714601	0.345481
C26	C	1.415612	-0.473316	0.272785
C27	C	1.501161	-0.446601	0.187298
C28	C	1.672244	-0.446583	0.016326
C29	C	1.672241	-0.393172	0.016336
C30	C	1.586698	-0.366475	0.101827
C31	C	1.501157	-0.393190	0.187308
C32	C	1.330054	-0.446617	0.358273
C33	C	1.330052	-0.393199	0.358266
C34	C	1.415600	-0.366484	0.272779
C35	C	1.415611	-0.313082	0.272809
N36	N	1.501145	-0.286364	0.187319
C37	C	1.586688	-0.313061	0.101828
C38	C	1.415670	-0.799147	0.272765
C39	C	1.415680	-0.852561	0.272765
C40	C	1.586765	-0.852540	0.101777
C41	C	1.586761	-0.799125	0.101785
C42	C	1.501204	-0.772430	0.187275
C43	C	1.586676	-0.200893	0.101856
C44	C	1.586669	-0.147477	0.101877
C45	C	1.415580	-0.147502	0.272859
C46	C	1.415591	-0.200914	0.272843
C47	C	1.501144	-0.227608	0.187331
O48	O	1.342926	-0.285424	0.345503
O49	O	1.659419	-0.285424	0.029114
C50	C	1.586707	-0.526710	0.101797
C51	C	1.501167	-0.553424	0.187278
C52	C	1.415623	-0.526728	0.272769
C53	C	1.501176	-0.606838	0.187278
C54	C	1.586720	-0.633535	0.101787
C55	C	1.672254	-0.606818	0.016296
C56	C	1.672251	-0.553406	0.016306
C57	C	1.330089	-0.553445	0.358260
C58	C	1.330100	-0.606857	0.358244
C59	C	1.415644	-0.633553	0.272753
C60	C	1.733179	-0.000022	0.180162
C61	C	1.874127	-0.000021	0.183944
C62	C	1.508337	-0.000025	-0.044684
C63	C	1.504557	-0.000025	-0.185633
N64	N	1.501223	0.120742	0.187274
C65	C	1.363543	-0.000019	-0.222303
C66	C	1.359566	0.000183	-0.368904
C67	C	1.568949	0.048349	-0.394975
C68	C	1.571950	0.048381	-0.248209
C69	C	1.573959	-0.048122	-0.248313
C70	C	1.567437	-0.048749	-0.394659
C71	C	1.494002	-0.000012	0.419336
C72	C	1.497781	-0.000008	0.560284
H73	H	0.916187	-0.034967	-0.009933
H74	H	1.523918	0.084669	-0.208042
H75	H	1.515647	-0.084525	-0.423261
H76	H	1.675326	0.050438	-0.225179
H77	H	0.887922	-0.084750	0.211030
H78	H	1.346032	-0.874309	0.342389
O79	O	1.120697	-0.096145	0.192304
H80	H	1.191337	-0.085157	0.112091
H81	H	0.914596	0.034340	-0.009722
H82	H	1.260393	-0.468360	0.427884
O83	O	1.679035	-0.881336	0.009561
H84	H	1.625036	-0.905670	-0.052654
O85	O	1.293002	0.045845	-0.164752
H86	H	1.210048	0.032889	-0.099977
O87	O	1.678996	-0.770311	0.009554
H88	H	1.741183	-0.745968	0.063563
H89	H	1.304218	0.035057	-0.397361
O90	O	0.856450	0.051404	0.388160
H91	H	0.886312	0.086993	0.434031
O92	O	1.703750	0.050559	-0.457703
H93	H	1.721491	0.017135	-0.521591
O94	O	1.504315	0.096212	-0.435890
H95	H	1.421519	0.085681	-0.488077
O96	O	1.237753	-0.364413	0.450476
H97	H	1.175567	-0.340087	0.396434
O98	O	1.515656	-0.096697	-0.192081
H99	H	1.436553	-0.087098	-0.118822
H100	H	1.656340	-0.222621	0.032222
O101	O	0.882655	0.096451	0.187260
H102	H	0.969221	0.119404	0.158827
H103	H	1.109164	0.084506	0.211409
H104	H	1.668315	-0.051816	-0.443694
H105	H	1.656337	-0.125727	0.032263
H106	H	1.677706	-0.048596	-0.226118
H107	H	1.134005	-0.034756	-0.003786
H108	H	1.303898	-0.034472	-0.398236
O109	O	1.323321	-0.118700	0.365061
H110	H	1.263838	-0.146246	0.424516
O111	O	1.146741	0.046072	-0.021641
H112	H	1.068759	0.068310	-0.058969
H113	H	1.088911	0.050251	0.362193
O114	O	1.237816	-0.524654	0.450469
H115	H	1.291801	-0.500315	0.512685
O116	O	1.764493	-0.364360	-0.075885
H117	H	1.823958	-0.391905	-0.135337
O118	O	1.098551	-0.052534	0.394225
H119	H	1.159268	-0.019705	0.416229
O120	O	0.856915	-0.048459	0.391653
H121	H	0.793813	-0.014678	0.406926
H122	H	1.741904	-0.468315	-0.053297
O123	O	1.291779	-0.045949	-0.166710
H124	H	1.290265	-0.045163	-0.061292
H125	H	1.345998	-0.777415	0.342385
H126	H	1.345942	-0.222665	0.342467
H127	H	1.741912	-0.531659	-0.053305
H128	H	1.741912	-0.628563	-0.053310
O129	O	1.237859	-0.635669	0.450488
H130	H	1.178385	-0.608126	0.509936
