data_functionalizedCrystal
_audit_creation_method	'MofGen! by Chris Wilmer'
_symmetry_space_group_name_H-M	'P1'
_symmetry_Int_Tables_number	1
_symmetry_cell_setting	triclinic
loop_
_symmetry_equiv_pos_as_xyz
  x,y,z
_cell_length_a	17.038278
_cell_length_b	17.038272
_cell_length_c	12.503572
_cell_angle_alpha	93.777379
_cell_angle_beta	86.226501
_cell_angle_gamma	91.111028
loop_
_atom_site_label
_atom_site_type_symbol
_atom_site_fract_x
_atom_site_fract_y
_atom_site_fract_z
O1	O	1.052981	0.166285	-0.089331
O2	O	0.825170	0.163579	-0.089331
O3	O	0.937721	0.051026	-0.089323
O4	O	0.940430	0.278837	-0.089340
O5	O	0.929257	0.059506	0.089319
O6	O	0.816706	0.172058	0.089310
O7	O	1.044517	0.174764	0.089310
Cu8	Cu	0.929839	0.174186	0.105621
Cu9	Cu	0.939848	0.164157	-0.105643
O10	O	0.931966	0.287317	0.089302
C11	C	0.791645	0.165356	-0.000011
C12	C	0.704362	0.158009	-0.000011
C13	C	0.931026	0.025973	-0.000002
C14	C	0.923678	-0.061310	-0.000002
C15	C	0.210936	0.112871	-0.000011
C16	C	0.292947	0.119781	-0.000005
C17	C	0.329348	0.194154	-0.000016
C18	C	0.283731	0.261622	-0.000021
C19	C	0.201721	0.254712	-0.000019
C20	C	0.576735	0.218567	-0.000014
C21	C	0.658752	0.225472	-0.000019
C22	C	0.667962	0.083630	-0.000001
C23	C	0.585950	0.076726	-0.000006
C24	C	0.540340	0.144194	-0.000006
C25	C	0.413177	0.201219	-0.000013
C26	C	0.456513	0.137129	-0.000001
C27	C	0.991142	-0.106920	-0.000001
C28	C	0.984233	-0.188932	-0.000011
C29	C	0.909860	-0.225333	-0.000015
C30	C	0.842392	-0.179717	-0.000020
C31	C	0.849301	-0.097707	-0.000017
C32	C	0.885450	-0.472721	-0.000030
C33	C	0.878546	-0.554738	-0.000029
C34	C	1.020388	-0.563947	-0.000023
C35	C	1.027291	-0.481934	-0.000014
C36	C	0.959822	-0.436326	-0.000024
C37	C	0.902797	-0.309162	-0.000022
C38	C	0.966887	-0.352499	-0.000025
C39	C	1.078042	0.172987	-0.000013
C40	C	1.165326	0.180334	-0.000020
C41	C	0.938661	0.312369	-0.000021
C42	C	0.946009	0.399653	-0.000028
N43	N	0.922805	0.181239	0.254213
N44	N	0.946888	0.157098	-0.254234
C45	C	0.912458	0.191621	0.473328
C46	C	0.957233	0.146719	0.526658
C47	C	0.951475	0.152496	0.648581
C48	C	0.918214	0.185845	0.351394
H49	H	0.181305	0.052308	-0.000010
O50	O	1.013738	0.090050	0.465852
H51	H	1.074644	0.105060	0.487357
O52	O	0.452443	0.281432	-0.000028
H53	H	0.406953	0.327189	-0.000031
O54	O	0.322988	0.341841	-0.000022
H55	H	0.308481	0.371068	-0.072831
O56	O	0.822582	-0.348428	-0.000020
H57	H	0.776826	-0.302939	-0.000024
O58	O	0.417255	0.056915	0.000020
H59	H	0.438653	0.020771	-0.072784
O60	O	0.798321	-0.593992	-0.000035
H61	H	0.788326	-0.627672	0.072785
O62	O	0.855963	0.248296	0.534126
H63	H	0.860260	0.244003	0.621734
H64	H	0.330080	0.064845	0.000006
H65	H	0.705105	0.028701	-0.000000
O66	O	0.546687	-0.003490	0.000026
H67	H	0.592181	-0.049241	0.000047
H68	H	0.688385	0.286039	-0.000012
O69	O	0.527549	0.291334	-0.000016
H70	H	0.544524	0.323204	-0.072837
O71	O	0.152521	0.327474	-0.000034
H72	H	0.191609	0.380351	-0.000051
O73	O	0.812684	-0.423532	-0.000013
H74	H	0.759808	-0.462623	0.000003
H75	H	1.051704	-0.077289	0.000008
H76	H	1.039169	-0.226064	-0.000008
H77	H	1.087853	-0.452303	-0.000011
O78	O	1.093156	-0.613137	-0.000019
H79	H	1.075861	-0.676280	-0.000029
O80	O	0.762174	-0.218977	-0.000011
H81	H	0.759082	-0.259581	-0.072815
O82	O	0.776538	-0.048506	-0.000007
H83	H	0.723660	-0.087594	0.000003
H84	H	1.027442	-0.322859	-0.000046
