data_functionalizedCrystal
_audit_creation_method	'MofGen! by Chris Wilmer'
_symmetry_space_group_name_H-M	'P1'
_symmetry_Int_Tables_number	1
_symmetry_cell_setting	triclinic
loop_
_symmetry_equiv_pos_as_xyz
  x,y,z
_cell_length_a	12.759401
_cell_length_b	16.959454
_cell_length_c	12.759393
_cell_angle_alpha	89.970360
_cell_angle_beta	89.979062
_cell_angle_gamma	90.021600
loop_
_atom_site_label
_atom_site_type_symbol
_atom_site_fract_x
_atom_site_fract_y
_atom_site_fract_z
Zn1	Zn	1.606227	-0.314611	-0.594026
Zn2	Zn	1.606102	-0.446810	-0.418349
Zn3	Zn	1.430526	-0.314653	-0.418362
Zn4	Zn	1.430501	-0.446755	-0.593986
O5	O	1.518339	-0.380707	-0.506181
O6	O	1.753232	-0.332153	-0.570734
O7	O	1.582769	-0.429320	-0.271330
O8	O	1.453896	-0.204037	-0.441686
O9	O	1.753139	-0.429279	-0.441665
O10	O	1.582983	-0.204006	-0.570746
O11	O	1.453774	-0.332225	-0.271339
O12	O	1.283502	-0.332171	-0.441647
O13	O	1.453854	-0.429185	-0.741013
O14	O	1.283484	-0.429226	-0.570678
O15	O	1.582959	-0.332100	-0.741042
O16	O	1.582745	-0.557414	-0.441626
O17	O	1.453732	-0.557373	-0.570666
C18	C	1.245372	-0.380698	-0.506160
C19	C	1.128595	-0.380713	-0.506176
C20	C	1.073751	-0.431326	-0.573257
C21	C	0.964027	-0.431329	-0.573277
C22	C	0.964000	-0.330103	-0.439128
C23	C	1.073722	-0.330097	-0.439113
C24	C	1.518251	-0.586074	-0.506163
C25	C	1.518309	-0.673930	-0.506190
C26	C	1.451259	-1.045415	-0.573365
C27	C	1.585711	-1.045397	-0.439104
C28	C	1.585675	-0.962851	-0.439094
C29	C	1.518428	-0.921583	-0.506220
C30	C	1.451218	-0.962861	-0.573355
C31	C	1.652875	-0.921567	-0.371953
C32	C	1.652841	-0.839016	-0.371940
C33	C	1.585599	-0.797747	-0.439071
C34	C	1.518387	-0.839030	-0.506210
C35	C	1.451141	-0.797762	-0.573335
C36	C	1.383934	-0.839043	-0.640480
C37	C	1.383977	-0.921592	-0.640486
C38	C	1.585556	-0.715198	-0.439065
C39	C	1.451100	-0.715208	-0.573326
C40	C	1.792372	-0.380718	-0.506202
C41	C	1.909149	-0.380722	-0.506212
C42	C	1.518418	-0.380632	-0.780214
C43	C	1.518451	-0.380599	-0.896991
C44	C	1.518456	-0.174539	-0.506222
C45	C	1.518506	-0.086683	-0.506239
C46	C	1.585681	-0.330039	-0.951870
C47	C	1.585699	-0.330005	-1.061594
C48	C	1.451254	-0.431098	-1.061551
C49	C	1.451232	-0.431128	-0.951829
C50	C	1.518321	-0.380726	-0.233213
C51	C	1.518491	-0.380536	-0.116437
H52	H	1.118378	-0.288876	-0.384488
H53	H	1.396343	-0.681613	-0.627992
N54	N	1.378695	-0.485647	-0.892628
H55	H	1.336114	-0.517653	-0.944015
H56	H	1.421412	-0.522245	-0.847091
N57	N	0.904807	-0.275530	-0.366783
H58	H	0.923918	-0.219063	-0.383217
H59	H	0.826997	-0.283291	-0.377006
H60	H	1.396544	-1.079030	-0.628035
N61	N	0.904873	-0.485926	-0.645618
H62	H	0.859388	-0.453855	-0.694392
H63	H	0.956354	-0.517978	-0.688024
H64	H	1.640443	-0.288832	-1.106272
N65	N	1.311395	-0.794530	-0.712868
H66	H	1.321567	-0.735973	-0.702664
H67	H	1.327712	-0.808906	-0.787923
H68	H	1.329259	-0.955210	-0.695151
H69	H	1.640454	-1.079002	-0.384447
N70	N	1.378769	-0.485594	-1.120716
H71	H	1.395044	-0.542077	-1.101617
H72	H	1.303733	-0.473251	-1.101597
N73	N	1.132932	-0.485916	-0.645589
H74	H	1.113881	-0.473708	-0.720686
H75	H	1.210744	-0.478211	-0.635312
N76	N	1.725380	-0.966074	-0.299536
H77	H	1.715205	-1.024632	-0.309731
H78	H	1.800405	-0.951601	-0.315934
N79	N	1.725333	-0.794494	-0.299534
H80	H	1.767941	-0.833164	-0.257016
H81	H	1.773912	-0.760204	-0.342352
H82	H	1.640270	-0.681591	-0.384392
H83	H	1.640413	-0.288893	-0.907225
