data_functionalizedCrystal
_audit_creation_method	'MofGen! by Chris Wilmer'
_symmetry_space_group_name_H-M	'P1'
_symmetry_Int_Tables_number	1
_symmetry_cell_setting	triclinic
loop_
_symmetry_equiv_pos_as_xyz
  x,y,z
_cell_length_a	14.853567
_cell_length_b	27.732048
_cell_length_c	13.930277
_cell_angle_alpha	89.990485
_cell_angle_beta	89.995755
_cell_angle_gamma	83.138793
loop_
_atom_site_label
_atom_site_type_symbol
_atom_site_fract_x
_atom_site_fract_y
_atom_site_fract_z
O1	O	1.195342	0.063107	-0.079776
O2	O	0.932760	0.070624	-0.079793
O3	O	1.072206	-0.003493	-0.079766
O4	O	1.055896	0.137224	-0.079803
O5	O	1.072187	-0.003495	0.079896
O6	O	0.932741	0.070622	0.079869
O7	O	1.195323	0.063105	0.079886
Zn8	Zn	1.064029	0.066863	0.105227
Zn9	Zn	1.064054	0.066866	-0.105134
O10	O	1.055877	0.137222	0.079859
C11	C	0.899167	0.070283	0.000036
C12	C	0.799100	0.069262	0.000030
C13	C	0.387353	0.020920	0.000064
C14	C	0.364639	0.108973	0.000040
C15	C	0.458657	0.109933	0.000036
C16	C	0.517028	0.066385	0.000045
C17	C	0.481380	0.021878	0.000058
C18	C	0.494313	0.154439	0.000014
C19	C	0.588336	0.155401	0.000010
C20	C	0.646708	0.111853	0.000026
C21	C	0.611055	0.067344	0.000039
C22	C	0.669425	0.023796	0.000048
C23	C	0.633774	-0.020713	0.000069
C24	C	0.539752	-0.021670	0.000074
C25	C	0.740730	0.112809	0.000021
C26	C	0.763452	0.024755	0.000042
C27	C	1.071854	-0.021503	0.000068
C28	C	1.070823	-0.075162	0.000076
C29	C	1.146736	-0.413622	0.000032
C30	C	1.142911	-0.615300	0.000018
O31	O	1.212328	-0.646231	-0.000019
N32	N	1.060225	-0.634810	0.000013
C33	C	0.978490	-0.603898	0.000006
O34	O	0.908073	-0.625120	-0.000008
C35	C	0.982316	-0.402221	0.000013
C36	C	1.065007	-0.382714	0.000027
C37	C	1.229421	-0.394114	0.000045
C38	C	1.230376	-0.343698	0.000054
C39	C	1.148647	-0.312790	0.000049
C40	C	1.065963	-0.332298	0.000036
C41	C	0.900582	-0.371310	-0.000002
C42	C	0.901546	-0.320888	-0.000003
C43	C	0.984237	-0.301381	0.000012
C44	C	0.985189	-0.250973	0.000040
N45	N	1.067875	-0.231462	0.000044
C46	C	1.149604	-0.262371	0.000049
C47	C	0.976487	-0.709781	0.000004
C48	C	0.975530	-0.760200	0.000004
C49	C	1.139952	-0.771599	0.000015
C50	C	1.140908	-0.721179	0.000021
C51	C	1.059173	-0.690271	0.000009
C52	C	1.151604	-0.156492	0.000068
C53	C	1.152552	-0.106071	0.000081
C54	C	0.988131	-0.094677	0.000065
C55	C	0.987183	-0.145094	0.000057
C56	C	1.068926	-0.176001	0.000056
O57	O	0.915809	-0.220013	0.000066
O58	O	1.220011	-0.241139	0.000042
C59	C	1.145781	-0.464039	0.000023
C60	C	1.063097	-0.483547	0.000010
C61	C	0.981367	-0.452638	0.000005
C62	C	1.062140	-0.533966	0.000010
C63	C	1.143869	-0.564874	0.000014
C64	C	1.226555	-0.545364	0.000019
C65	C	1.227510	-0.494947	0.000028
C66	C	0.898682	-0.472149	0.000000
C67	C	0.897733	-0.522566	-0.000007
C68	C	0.979462	-0.553474	-0.000003
C69	C	1.228915	0.063446	0.000055
C70	C	1.328982	0.064467	0.000055
C71	C	1.056228	0.155232	0.000023
C72	C	1.057259	0.208891	0.000009
N73	N	1.064018	0.066862	0.248793
N74	N	1.064072	0.066863	-0.248700
C75	C	1.002305	0.099672	0.701050
C76	C	1.125828	0.034056	0.701044
C77	C	1.125817	0.034054	0.600549
C78	C	1.064050	0.066862	0.550299
C79	C	1.002294	0.099672	0.600545
C80	C	1.187578	0.001248	0.550295
C81	C	1.187571	0.001246	0.449793
C82	C	1.125799	0.034052	0.399542
C83	C	1.064040	0.066863	0.449794
C84	C	1.002273	0.099671	0.399545
C85	C	0.940508	0.132480	0.449795
C86	C	0.940522	0.132479	0.550294
C87	C	1.125785	0.034053	0.299043
C88	C	1.002262	0.099672	0.299040
H89	H	0.510716	-0.057907	0.000113
H90	H	0.681311	-0.056169	0.000070
O91	O	0.811390	-0.392340	-0.000017
H92	H	0.807028	-0.415033	-0.065092
H93	H	0.358321	-0.015319	0.000085
O94	O	0.431350	0.201402	0.000005
H95	H	0.443934	0.222697	-0.065085
O96	O	1.316704	-0.473915	0.000030
H97	H	1.321083	-0.451227	0.065111
O98	O	1.254197	-0.034136	0.604487
H99	H	1.243820	-0.028627	0.682812
H100	H	0.810972	-0.010707	0.000053
H101	H	0.952015	0.126383	0.741967
H102	H	0.890221	0.159195	0.408870
O103	O	0.301690	0.155941	0.000040
H104	H	0.230322	0.147797	0.000054
H105	H	0.617355	0.191643	-0.000007
H106	H	0.890237	0.159191	0.591214
H107	H	1.237861	-0.025469	0.408885
H108	H	0.769753	0.149048	0.000006
O109	O	1.241749	-0.085035	0.000087
H110	H	1.246122	-0.062349	0.065170
H111	H	1.206499	-0.796773	0.000019
O112	O	1.239767	-0.189824	0.000080
H113	H	1.297416	-0.167782	0.000102
H114	H	1.176121	0.007346	0.741961
O115	O	0.935640	0.135055	0.244834
H116	H	0.946598	0.172749	0.264099
H117	H	1.176076	0.007343	0.258133
O118	O	1.319564	-0.322660	0.000041
H119	H	1.376227	-0.352629	0.000028
H120	H	0.908195	-0.776078	0.000009
O121	O	0.888321	-0.676450	0.000012
H122	H	0.848716	-0.683394	-0.065058
O123	O	1.317578	-0.427448	0.000064
H124	H	1.375225	-0.405404	0.000083
H125	H	1.208242	-0.705300	0.000032
H126	H	0.834986	-0.295725	-0.000014
O127	O	0.897998	-0.166139	0.000045
H128	H	0.841328	-0.136174	0.000039
O129	O	0.899982	-0.061335	0.000064
H130	H	0.896499	-0.038089	-0.065015
O131	O	1.314709	-0.578705	0.000024
H132	H	1.300142	-0.617040	0.000011
H133	H	0.830391	-0.538443	-0.000011
O134	O	0.810527	-0.438814	0.000013
H135	H	0.752877	-0.460856	0.000019
