data_functionalizedCrystal
_audit_creation_method	'MofGen! by Chris Wilmer'
_symmetry_space_group_name_H-M	'P1'
_symmetry_Int_Tables_number	1
_symmetry_cell_setting	triclinic
loop_
_symmetry_equiv_pos_as_xyz
  x,y,z
_cell_length_a	13.033293
_cell_length_b	15.299816
_cell_length_c	13.032268
_cell_angle_alpha	72.095154
_cell_angle_beta	90.920818
_cell_angle_gamma	88.701182
loop_
_atom_site_label
_atom_site_type_symbol
_atom_site_fract_x
_atom_site_fract_y
_atom_site_fract_z
Zn1	Zn	1.547015	-0.282160	0.844279
Zn2	Zn	1.591185	-0.412492	0.701313
Zn3	Zn	1.396051	-0.277371	0.649389
Zn4	Zn	1.403941	-0.450299	0.859767
O5	O	1.484548	-0.355580	0.763687
O6	O	1.694415	-0.285631	0.840563
O7	O	1.580483	-0.376741	0.546549
O8	O	1.394290	-0.151091	0.647030
O9	O	1.726867	-0.381385	0.735526
O10	O	1.505202	-0.154609	0.790215
O11	O	1.437119	-0.277468	0.508401
O12	O	1.255557	-0.314128	0.662048
O13	O	1.407737	-0.445822	1.005588
O14	O	1.261354	-0.441178	0.816611
O15	O	1.512853	-0.322291	0.994210
O16	O	1.588134	-0.544422	0.750544
O17	O	1.450567	-0.572199	0.866959
C18	C	1.221755	-0.381237	0.735376
C19	C	1.109333	-0.392237	0.723295
C20	C	1.043159	-0.349862	0.769997
C21	C	0.926964	-0.361231	0.757512
C22	C	1.525025	-0.591219	0.816092
C23	C	1.542429	-0.692021	0.838557
C24	C	1.360779	-0.969092	0.603559
C25	C	1.344421	-0.874385	0.582455
C26	C	1.393922	-0.828789	0.646478
C27	C	1.459783	-0.877911	0.731610
C28	C	1.476137	-0.972629	0.752722
C29	C	1.509280	-0.832325	0.795641
C30	C	1.575141	-0.881447	0.880774
C31	C	1.591492	-0.976156	0.901881
C32	C	1.541991	-1.021752	0.837858
C33	C	1.492926	-0.737607	0.774529
C34	C	1.608284	-0.741144	0.923692
C35	C	1.624642	-0.835851	0.944797
C36	C	1.748367	-0.329825	0.792109
C37	C	1.860791	-0.318849	0.804221
C38	C	1.456248	-0.388808	1.039314
C39	C	1.444188	-0.402967	1.156769
C40	C	1.443939	-0.119022	0.711103
C41	C	1.426634	-0.018215	0.688695
C42	C	1.512785	-0.322411	0.489124
C43	C	1.524997	-0.307977	0.371633
C44	C	1.490821	-0.348159	1.203505
C45	C	1.478358	-0.362793	1.324901
H46	H	0.897600	-0.405927	0.708279
H47	H	1.574145	-0.250212	1.321775
H48	H	0.890153	-0.274145	0.853445
H49	H	1.395030	-0.460718	1.206629
H50	H	1.079964	-0.436931	0.674065
H51	H	1.439301	-0.697621	0.705214
H52	H	1.380600	-0.751673	0.629288
N53	N	1.273399	-0.821402	0.490635
H54	H	1.202294	-0.846967	0.502881
H55	H	1.299856	-0.827275	0.420565
N56	N	1.082048	-0.290673	0.835229
H57	H	1.159542	-0.290952	0.834914
H58	H	1.058337	-0.315794	0.911867
N59	N	1.307401	-1.018271	0.534512
H60	H	1.263199	-0.972783	0.477374
H61	H	1.262938	-1.067344	0.581210
N62	N	1.559629	-1.123903	0.860609
H63	H	1.492185	-1.155876	0.877588
H64	H	1.608890	-1.148037	0.924236
H65	H	1.645117	-1.016149	0.971206
N66	N	1.695672	-0.888829	1.036623
H67	H	1.753763	-0.918351	1.007524
H68	H	1.656214	-0.938011	1.089857
N69	N	1.661674	-0.691980	0.992760
H70	H	1.641323	-0.624525	0.966467
H71	H	1.738456	-0.699451	0.987838
H72	H	1.539967	-0.290400	1.153642
H73	H	1.429196	-0.420548	1.374757
