data_functionalizedCrystal
_audit_creation_method	'MofGen! by Chris Wilmer'
_symmetry_space_group_name_H-M	'P1'
_symmetry_Int_Tables_number	1
_symmetry_cell_setting	triclinic
loop_
_symmetry_equiv_pos_as_xyz
  x,y,z
_cell_length_a	16.974897
_cell_length_b	14.044220
_cell_length_c	15.455313
_cell_angle_alpha	92.908275
_cell_angle_beta	83.675220
_cell_angle_gamma	88.284917
loop_
_atom_site_label
_atom_site_type_symbol
_atom_site_fract_x
_atom_site_fract_y
_atom_site_fract_z
O1	O	1.064114	0.112426	-0.146752
O2	O	1.564114	0.612426	0.353248
O3	O	0.834286	0.128724	-0.130638
O4	O	1.334286	0.628724	0.369362
O5	O	0.945750	-0.017391	-0.138444
O6	O	1.445750	0.482609	0.361556
O7	O	0.952650	0.258541	-0.138945
O8	O	1.452650	0.758541	0.361055
O9	O	0.939374	-0.009070	0.006264
O10	O	1.439374	0.490930	0.506264
O11	O	0.827910	0.137046	0.014071
O12	O	1.327910	0.637046	0.514071
O13	O	1.057738	0.120747	-0.002043
O14	O	1.557738	0.620747	0.497957
Cu15	Cu	0.942242	0.129656	0.019227
Cu16	Cu	1.442242	0.629656	0.519227
Cu17	Cu	0.949782	0.119815	-0.151908
Cu18	Cu	1.449782	0.619815	0.348092
O19	O	0.946274	0.266862	0.005763
O20	O	1.446274	0.766862	0.505763
C21	C	0.801507	0.132417	-0.056209
C22	C	1.301507	0.632417	0.443791
C23	C	0.713335	0.131012	-0.050026
C24	C	1.213335	0.631012	0.449974
C25	C	0.675380	0.125818	-0.125996
C26	C	1.175380	0.625818	0.374004
C27	C	0.592533	0.124514	-0.120174
C28	C	1.092533	0.624514	0.379826
C29	C	0.547641	0.128396	-0.038382
C30	C	1.047641	0.628396	0.461618
C31	C	0.585602	0.133593	0.037594
C32	C	1.085602	0.633593	0.537594
C33	C	0.668448	0.134904	0.031771
C34	C	1.168448	0.634904	0.531771
C35	C	0.299495	0.124967	-0.012509
C36	C	0.799495	0.624967	0.487491
C37	C	0.216644	0.123652	-0.006693
C38	C	0.716644	0.623652	0.493307
C39	C	0.223580	0.114575	-0.164461
C40	C	0.723580	0.614575	0.335539
C41	C	0.306428	0.115881	-0.170276
C42	C	0.806428	0.615881	0.329724
C43	C	0.344381	0.121083	-0.094301
C44	C	0.844381	0.621083	0.405699
N45	N	0.462958	0.127060	-0.032429
N46	N	0.962958	0.627060	0.467571
N47	N	0.429063	0.122426	-0.100255
N48	N	0.929063	0.622426	0.399745
C49	C	0.939542	-0.048529	-0.065878
C50	C	1.439542	0.451471	0.434122
C51	C	0.930533	-0.153707	-0.065245
C52	C	1.430533	0.346293	0.434755
C53	C	0.914064	-0.346282	-0.064103
C54	C	1.414064	0.153718	0.435897
C55	C	0.977956	-0.404252	-0.068585
C56	C	1.477956	0.095748	0.431415
C57	C	0.968793	-0.511408	-0.067950
C58	C	1.468793	-0.011408	0.432050
C59	C	0.923227	-0.239117	-0.064738
C60	C	1.423227	0.260883	0.435262
C61	C	1.090517	0.117054	-0.076474
C62	C	1.590517	0.617054	0.423526
C63	C	1.178689	0.118459	-0.082662
C64	C	1.678689	0.618459	0.417338
C65	C	0.952482	0.298000	-0.066805
C66	C	1.452482	0.798000	0.433195
C67	C	0.961491	0.403178	-0.067443
C68	C	1.461491	0.903178	0.432557
N69	N	0.936943	0.136577	0.139594
N70	N	1.436943	0.636577	0.639594
N71	N	0.955086	0.112887	-0.272275
N72	N	1.455086	0.612887	0.227725
C73	C	0.984317	0.074525	0.181670
C74	C	1.484317	0.574525	0.681670
C75	C	0.980318	0.079767	0.272758
C76	C	1.480318	0.579767	0.772758
C77	C	0.928949	0.147068	0.321768
C78	C	1.428949	0.647068	0.821768
C79	C	0.881571	0.209123	0.279685
C80	C	1.381571	0.709123	0.779685
C81	C	0.885566	0.203875	0.188599
C82	C	1.385566	0.703875	0.688599
C83	C	0.911703	0.169694	0.594557
C84	C	1.411703	0.669694	1.094557
C85	C	0.907713	0.174939	0.685649
C86	C	1.407713	0.674939	1.185649
C87	C	1.006460	0.045582	0.678715
C88	C	1.506460	0.545582	1.178715
C89	C	1.010454	0.040344	0.587627
C90	C	1.510454	0.540344	1.087627
C91	C	0.963072	0.102396	0.545553
C92	C	1.463072	0.602396	1.045553
N93	N	0.924863	0.152430	0.414874
N94	N	1.424863	0.652430	0.914874
N95	N	0.967155	0.097028	0.452449
N96	N	1.467155	0.597028	0.952449
H97	H	0.180094	0.126841	0.059916
H98	H	0.680094	0.626841	0.559916
H99	H	1.045035	-0.004939	0.712980
H100	H	1.545035	0.495061	1.212980
N101	N	0.832493	-0.387126	-0.058380
N102	N	1.332493	0.112874	0.441620
H103	H	0.828209	-0.430703	-0.111557
H104	H	1.328209	0.069297	0.388443
H105	H	0.823543	-0.424495	-0.004238
H106	H	1.323543	0.075505	0.495762
H107	H	1.052282	-0.014457	0.547725
H108	H	1.552282	0.485543	1.047725
H109	H	0.549044	0.136760	0.104191
H110	H	1.049044	0.636760	0.604191
N111	N	0.723796	0.121621	-0.214216
N112	N	1.223796	0.621621	0.285784
H113	H	0.687177	0.118134	-0.261458
H114	H	1.187177	0.618134	0.238542
H115	H	0.756053	0.180701	-0.219915
H116	H	1.256053	0.680701	0.280085
N117	N	1.059527	-0.363392	-0.074289
N118	N	1.559527	0.136608	0.425711
H119	H	1.086946	-0.382565	-0.022731
H120	H	1.586946	0.117435	0.477269
H121	H	1.091627	-0.388724	-0.130050
H122	H	1.591627	0.111276	0.369950
H123	H	1.026150	0.019726	0.141771
H124	H	1.526150	0.519726	0.641771
H125	H	0.561634	0.120285	-0.182037
H126	H	1.061634	0.620285	0.317963
H127	H	0.699349	0.139137	0.093634
H128	H	1.199349	0.639137	0.593634
H129	H	1.018893	0.029239	0.307016
H130	H	1.518893	0.529239	0.807016
H131	H	0.865880	0.229747	0.725549
H132	H	1.365880	0.729747	1.225549
H133	H	0.873124	0.220221	0.560307
H134	H	1.373124	0.720221	1.060307
N135	N	0.826159	0.281705	0.332541
N136	N	1.326159	0.781705	0.832541
H137	H	0.830817	0.275617	0.396629
H138	H	1.330817	0.775617	0.896629
H139	H	0.840771	0.347966	0.315629
H140	H	1.340771	0.847966	0.815629
H141	H	0.342974	0.112713	-0.236881
H142	H	0.842974	0.612713	0.263119
H143	H	0.192670	0.110343	-0.226316
H144	H	0.692670	0.610343	0.273684
H145	H	0.330387	0.129196	0.049355
H146	H	0.830387	0.629196	0.549355
H147	H	0.846988	0.254403	0.154342
H148	H	1.346988	0.754403	0.654342
