data_functionalizedCrystal
_audit_creation_method	'MofGen! by Chris Wilmer'
_symmetry_space_group_name_H-M	'P1'
_symmetry_Int_Tables_number	1
_symmetry_cell_setting	triclinic
loop_
_symmetry_equiv_pos_as_xyz
  x,y,z
_cell_length_a	23.532355
_cell_length_b	27.732048
_cell_length_c	22.610064
_cell_angle_alpha	89.999096
_cell_angle_beta	89.997644
_cell_angle_gamma	82.735077
loop_
_atom_site_label
_atom_site_type_symbol
_atom_site_fract_x
_atom_site_fract_y
_atom_site_fract_z
O1	O	0.755158	0.058553	-0.049110
O2	O	1.255158	0.558553	0.450890
O3	O	0.589272	0.067069	-0.049130
O4	O	1.089272	0.567069	0.450870
O5	O	0.677367	-0.007579	-0.049108
O6	O	1.177367	0.492421	0.450892
O7	O	0.667063	0.133201	-0.049132
O8	O	1.167063	0.633201	0.450868
O9	O	0.677351	-0.007568	0.049261
O10	O	1.177351	0.492432	0.549261
O11	O	0.589256	0.067080	0.049239
O12	O	1.089256	0.567080	0.549239
O13	O	0.755142	0.058564	0.049259
O14	O	1.255142	0.558564	0.549259
Zn15	Zn	0.672197	0.062824	0.064867
Zn16	Zn	1.172197	0.562824	0.564867
Zn17	Zn	0.672217	0.062809	-0.064739
Zn18	Zn	1.172217	0.562809	0.435261
O19	O	0.667047	0.133211	0.049237
O20	O	1.167047	0.633211	0.549237
C21	C	0.568048	0.066862	0.000052
C22	C	1.068048	0.566862	0.500052
C23	C	0.504831	0.066222	0.000045
C24	C	1.004831	0.566222	0.500045
C25	C	0.112817	0.062206	0.053692
C26	C	0.612817	0.562206	0.553692
C27	C	0.053419	0.061597	0.053694
C28	C	0.553419	0.561597	0.553694
O29	O	0.022694	0.061271	0.099296
O30	O	0.522694	0.561271	0.599296
N31	N	0.023720	0.061289	0.000073
N32	N	0.523720	0.561289	0.500073
C33	C	0.053422	0.061585	-0.053554
C34	C	0.553422	0.561585	0.446446
O35	O	0.022706	0.061267	-0.099162
O36	O	0.522706	0.561267	0.400838
C37	C	0.112820	0.062191	-0.053555
C38	C	0.612820	0.562191	0.446445
C39	C	0.142515	0.062504	0.000069
C40	C	0.642515	0.562504	0.500069
C41	C	0.142513	0.062518	0.107311
C42	C	0.642513	0.562518	0.607311
C43	C	0.201906	0.063128	0.107309
C44	C	0.701906	0.563128	0.607309
C45	C	0.231605	0.063426	0.053686
C46	C	0.731605	0.563426	0.553686
C47	C	0.201909	0.063114	0.000066
C48	C	0.701909	0.563114	0.500066
C49	C	0.142522	0.062484	-0.107181
C50	C	0.642522	0.562484	0.392819
C51	C	0.201924	0.063089	-0.107179
C52	C	0.701924	0.563089	0.392821
C53	C	0.231619	0.063402	-0.053554
C54	C	0.731619	0.563402	0.446446
C55	C	0.291001	0.064021	-0.053559
C56	C	0.791001	0.564021	0.446441
N57	N	0.320701	0.064329	0.000062
N58	N	0.820701	0.564329	0.500062
C59	C	0.291002	0.064031	0.053685
C60	C	0.791002	0.564031	0.553685
C61	C	-0.071317	0.060313	-0.053546
C62	C	0.428683	0.560313	0.446454
C63	C	-0.130714	0.059711	-0.053545
C64	C	0.369286	0.559711	0.446455
C65	C	-0.130713	0.059722	0.053703
C66	C	0.369287	0.559722	0.553703
C67	C	-0.071315	0.060327	0.053701
C68	C	0.428685	0.560327	0.553701
C69	C	-0.041617	0.060621	0.000075
C70	C	0.458383	0.560621	0.500075
C71	C	0.415734	0.065312	0.053675
C72	C	0.915734	0.565312	0.553675
C73	C	0.475132	0.065924	0.053668
C74	C	0.975132	0.565924	0.553668
C75	C	0.475127	0.065911	-0.053580
C76	C	0.975127	0.565911	0.446420
C77	C	0.415733	0.065301	-0.053573
C78	C	0.915733	0.565301	0.446427
C79	C	0.386038	0.065001	0.000059
C80	C	0.886038	0.565001	0.500059
O81	O	0.321764	0.064346	-0.099138
O82	O	0.821764	0.564346	0.400862
O83	O	0.321726	0.064343	0.099285
O84	O	0.821726	0.564343	0.599285
C85	C	0.677143	-0.025580	0.000078
C86	C	1.177143	0.474420	0.500078
C87	C	0.676491	-0.079236	0.000083
C88	C	1.176491	0.420764	0.500083
C89	C	0.724449	-0.417985	0.000058
C90	C	1.224449	0.082015	0.500058
C91	C	0.722033	-0.619648	0.000049
C92	C	1.222033	-0.119648	0.500049
O93	O	0.765887	-0.650843	0.000029
O94	O	1.265887	-0.150843	0.500029
N95	N	0.669796	-0.638844	0.000044
N96	N	1.169796	-0.138844	0.500044
C97	C	0.618160	-0.607621	0.000036
C98	C	1.118160	-0.107621	0.500036
O99	O	0.573674	-0.628575	0.000025
O100	O	1.073674	-0.128575	0.500025
C101	C	0.620577	-0.405959	0.000041
C102	C	1.120577	0.094041	0.500041
C103	C	0.672817	-0.386766	0.000052
C104	C	1.172817	0.113234	0.500052
C105	C	0.776685	-0.398792	0.000069
C106	C	1.276685	0.101208	0.500069
C107	C	0.777289	-0.348379	0.000074
C108	C	1.277289	0.151621	0.500074
C109	C	0.725657	-0.317160	0.000069
C110	C	1.225657	0.182840	0.500069
C111	C	0.673421	-0.336353	0.000058
C112	C	1.173421	0.163647	0.500058
C113	C	0.568942	-0.374736	0.000029
C114	C	1.068942	0.125264	0.500029
C115	C	0.569551	-0.324318	0.000029
C116	C	1.069551	0.175682	0.500029
C117	C	0.621791	-0.305125	0.000040
C118	C	1.121791	0.194875	0.500040
C119	C	0.622392	-0.254721	0.000057
C120	C	1.122392	0.245279	0.500057
N121	N	0.674629	-0.235525	0.000063
N122	N	1.174629	0.264475	0.500063
C123	C	0.726261	-0.266744	0.000069
C124	C	1.226261	0.233256	0.500069
C125	C	0.616895	-0.713496	0.000035
C126	C	1.116895	-0.213496	0.500035
C127	C	0.616290	-0.763912	0.000035
C128	C	1.116290	-0.263912	0.500035
C129	C	0.720163	-0.775936	0.000047
C130	C	1.220163	-0.275936	0.500047
C131	C	0.720767	-0.725520	0.000051
C132	C	1.220767	-0.225520	0.500051
C133	C	0.669131	-0.694301	0.000041
C134	C	1.169131	-0.194301	0.500041
C135	C	0.727525	-0.160873	0.000080
C136	C	1.227525	0.339127	0.500080
C137	C	0.728124	-0.110456	0.000088
C138	C	1.228124	0.389544	0.500088
C139	C	0.624251	-0.098436	0.000073
C140	C	1.124251	0.401564	0.500073
C141	C	0.623652	-0.148849	0.000068
C142	C	1.123652	0.351151	0.500068
C143	C	0.675293	-0.180067	0.000070
C144	C	1.175293	0.319933	0.500070
O145	O	0.578561	-0.223497	0.000071
O146	O	1.078561	0.276503	0.500071
O147	O	0.770740	-0.245780	0.000067
O148	O	1.270740	0.254220	0.500067
C149	C	0.723846	-0.468398	0.000053
C150	C	1.223846	0.031602	0.500053
C151	C	0.671610	-0.487591	0.000042
C152	C	1.171610	0.012409	0.500042
C153	C	0.619978	-0.456372	0.000036
C154	C	1.119978	0.043628	0.500036
C155	C	0.671006	-0.538007	0.000042
C156	C	1.171006	-0.038007	0.500042
C157	C	0.722638	-0.569226	0.000047
C158	C	1.222638	-0.069226	0.500047
C159	C	0.774875	-0.550030	0.000053
C160	C	1.274875	-0.050030	0.500053
C161	C	0.775478	-0.499617	0.000058
C162	C	1.275478	0.000383	0.500058
C163	C	0.567741	-0.475568	0.000030
C164	C	1.067741	0.024432	0.500030
C165	C	0.567142	-0.525981	0.000026
C166	C	1.067142	-0.025981	0.500026
C167	C	0.618774	-0.557200	0.000031
C168	C	1.118774	-0.057200	0.500031
C169	C	0.776366	0.058771	0.000075
C170	C	1.276366	0.558771	0.500075
C171	C	0.839583	0.059411	0.000078
C172	C	1.339583	0.559411	0.500078
C173	C	0.667271	0.151213	0.000050
C174	C	1.167271	0.651213	0.500050
C175	C	0.667923	0.204869	0.000041
C176	C	1.167923	0.704869	0.500041
N177	N	0.672187	0.062833	0.153320
N178	N	1.172187	0.562833	0.653320
N179	N	0.672232	0.062796	-0.153191
N180	N	1.172232	0.562796	0.346809
C181	C	0.711227	0.029760	0.561971
C182	C	1.211227	0.529760	1.061971
C183	C	0.711230	0.029757	0.623891
C184	C	1.211230	0.529757	1.123891
O185	O	0.744400	0.001644	0.655917
O186	O	1.244400	0.501644	1.155917
N187	N	0.672217	0.062799	0.654857
N188	N	1.172217	0.562799	1.154857
C189	C	0.633194	0.095844	0.623900
C190	C	1.133194	0.595844	1.123900
O191	O	0.600010	0.123949	0.655925
O192	O	1.100010	0.623949	1.155925
C193	C	0.633189	0.095845	0.561981
C194	C	1.133189	0.595845	1.061981
C195	C	0.672209	0.062803	0.531018
C196	C	1.172209	0.562803	1.031018
C197	C	0.750244	-0.003279	0.531008
C198	C	1.250244	0.496721	1.031008
C199	C	0.750241	-0.003275	0.469092
C200	C	1.250241	0.496725	0.969092
C201	C	0.711223	0.029769	0.438139
C202	C	1.211223	0.529769	0.938139
C203	C	0.672206	0.062808	0.469102
C204	C	1.172206	0.562808	0.969102
C205	C	0.594164	0.128887	0.531025
C206	C	1.094164	0.628887	1.031025
C207	C	0.594162	0.128885	0.469102
C208	C	1.094162	0.628885	0.969102
C209	C	0.633182	0.095843	0.438139
C210	C	1.133182	0.595843	0.938139
C211	C	0.633185	0.095855	0.376234
C212	C	1.133185	0.595855	0.876234
N213	N	0.672199	0.062813	0.345268
N214	N	1.172199	0.562813	0.845268
C215	C	0.711217	0.029769	0.376221
C216	C	1.211217	0.529769	0.876221
C217	C	0.633207	0.095839	0.753933
C218	C	1.133207	0.595839	1.253933
C219	C	0.633215	0.095841	0.815851
C220	C	1.133215	0.595841	1.315851
C221	C	0.711250	0.029753	0.815837
C222	C	1.211250	0.529753	1.315837
C223	C	0.711245	0.029754	0.753919
C224	C	1.211245	0.529754	1.253919
C225	C	0.672221	0.062797	0.722967
C226	C	1.172221	0.562797	1.222967
C227	C	0.711210	0.029781	0.246193
C228	C	1.211210	0.529781	0.746193
C229	C	0.711206	0.029790	0.184272
C230	C	1.211206	0.529790	0.684272
C231	C	0.633168	0.095876	0.184291
C232	C	1.133168	0.595876	0.684291
C233	C	0.633174	0.095869	0.246207
C234	C	1.133174	0.595869	0.746207
C235	C	0.672197	0.062818	0.277156
C236	C	1.172197	0.562818	0.777156
O237	O	0.600031	0.123952	0.344168
O238	O	1.100031	0.623952	0.844168
O239	O	0.744391	0.001665	0.344188
O240	O	1.244391	0.501665	0.844188
H241	H	0.499317	0.066155	-0.097238
H242	H	0.999317	0.566155	0.402762
C243	C	0.213436	0.104825	-0.198600
C244	C	0.713436	0.604825	0.301400
C245	C	0.234568	0.063416	-0.166127
C246	C	0.734568	0.563416	0.333873
H247	H	0.233592	0.105029	-0.234990
H248	H	0.733592	0.605029	0.265010
H249	H	0.173817	0.104413	-0.206270
H250	H	0.673817	0.604413	0.293730
H251	H	0.218577	0.133116	-0.176567
H252	H	0.718577	0.633116	0.323433
H253	H	0.229423	0.035125	-0.188158
H254	H	0.729423	0.535125	0.311842
H255	H	0.274197	0.063824	-0.158458
H256	H	0.774197	0.563824	0.341542
H257	H	0.391562	0.065072	0.097347
H258	H	0.891562	0.565072	0.597347
C259	C	0.556079	0.161171	0.760176
C260	C	1.056079	0.661171	1.260176
C261	C	0.590315	0.132170	0.719914
C262	C	1.090315	0.632170	1.219914
H263	H	0.529603	0.183601	0.739175
H264	H	1.029603	0.683601	1.239175
H265	H	0.535775	0.141139	0.784326
H266	H	1.035775	0.641139	1.284326
H267	H	0.579644	0.178447	0.784326
H268	H	1.079644	0.678447	1.284326
H269	H	0.566751	0.114892	0.695767
H270	H	1.066751	0.614892	1.195767
H271	H	0.610621	0.152205	0.695754
H272	H	1.110621	0.652205	1.195754
H273	H	0.782013	-0.030181	0.443885
H274	H	1.282013	0.469819	0.943885
C275	C	0.559496	0.158237	0.374193
C276	C	1.059496	0.658237	0.874193
C277	C	0.551265	0.165208	0.435081
C278	C	1.051265	0.665208	0.935081
H279	H	0.533012	0.180660	0.353191
H280	H	1.033012	0.680660	0.853191
H281	H	0.597452	0.163322	0.364044
H282	H	1.097452	0.663322	0.864044
H283	H	0.553598	0.126002	0.364048
H284	H	1.053598	0.626002	0.864048
H285	H	0.557168	0.197442	0.445226
H286	H	1.057168	0.697442	0.945226
H287	H	0.513300	0.160128	0.445233
H288	H	1.013300	0.660128	0.945233
C289	C	0.620270	0.161688	0.885481
C290	C	1.120270	0.661688	1.385481
C291	C	0.590327	0.132165	0.849881
C292	C	1.090327	0.632165	1.349881
H293	H	0.593789	0.184114	0.906484
H294	H	1.093789	0.684114	1.406484
H295	H	0.643499	0.142010	0.912779
H296	H	1.143499	0.642010	1.412779
H297	H	0.643821	0.178969	0.861319
H298	H	1.143821	0.678969	1.361319
H299	H	0.566779	0.114882	0.874043
H300	H	1.066779	0.614882	1.374043
H301	H	0.567088	0.151846	0.822579
H302	H	1.067088	0.651846	1.322579
C303	C	0.836264	-0.462460	0.050644
C304	C	1.336264	0.037540	0.550644
C305	C	0.833445	-0.433105	0.000076
C306	C	1.333445	0.066895	0.500076
H307	H	0.871306	-0.483643	0.050649
H308	H	1.371306	0.016357	0.550649
H309	H	0.834331	-0.442541	0.084940
H310	H	1.334331	0.057459	0.584940
H311	H	0.805069	-0.481110	0.050633
H312	H	1.305069	0.018890	0.550633
H313	H	0.864637	-0.414453	0.000090
H314	H	1.364637	0.085547	0.500090
H315	H	0.835383	-0.453027	-0.034229
H316	H	1.335383	0.046973	0.465771
C317	C	0.562723	-0.198568	-0.050512
C318	C	1.062723	0.301432	0.449488
C319	C	0.566232	-0.169953	0.000061
C320	C	1.066232	0.330047	0.500061
H321	H	0.527276	-0.211596	-0.050517
H322	H	1.027276	0.288404	0.449483
H323	H	0.565120	-0.179145	-0.084805
H324	H	1.065120	0.320855	0.415195
H325	H	0.593391	-0.224375	-0.050506
H326	H	1.093391	0.275625	0.449494
H327	H	0.535566	-0.144143	0.000053
H328	H	1.035566	0.355857	0.500053
H329	H	0.563829	-0.189377	0.034363
H330	H	1.063829	0.310623	0.534363
H331	H	0.743021	0.002846	0.841050
H332	H	1.243021	0.502846	1.341050
H333	H	0.562390	0.155792	0.556227
H334	H	1.062390	0.655792	1.056227
C335	C	0.827381	-0.068595	0.524758
C336	C	1.327381	0.431405	1.024758
C337	C	0.793141	-0.039602	0.565024
C338	C	1.293141	0.460398	1.065024
H339	H	0.853871	-0.091017	0.545756
H340	H	1.353871	0.408983	1.045756
H341	H	0.803825	-0.085877	0.500615
H342	H	1.303825	0.414123	1.000615
H343	H	0.847676	-0.048555	0.500602
H344	H	1.347676	0.451445	1.000602
H345	H	0.772843	-0.059643	0.589177
H346	H	1.272843	0.440357	1.089177
H347	H	0.816700	-0.022319	0.589177
H348	H	1.316700	0.477681	1.089177
C349	C	0.724054	-0.036109	0.114732
C350	C	1.224054	0.463891	0.614732
C351	C	0.754058	-0.006597	0.150282
C352	C	1.254058	0.493403	0.650282
H353	H	0.750497	-0.058590	0.093760
H354	H	1.250497	0.441410	0.593760
H355	H	0.700463	-0.053324	0.138919
H356	H	1.200463	0.446676	0.638919
H357	H	0.700859	-0.016428	0.087399
H358	H	1.200859	0.483572	0.587399
H359	H	0.777250	-0.026278	0.177617
H360	H	1.277250	0.473722	0.677617
H361	H	0.777659	0.010618	0.126093
H362	H	1.277659	0.510618	0.626093
H363	H	-0.154904	0.059479	0.097366
H364	H	0.345096	0.559479	0.597366
C365	C	0.830740	-0.127413	0.000095
C366	C	1.330740	0.372587	0.500095
C367	C	0.785550	-0.089360	0.000096
C368	C	1.285550	0.410640	0.500096
H369	H	0.866190	-0.114390	0.000095
H370	H	1.366190	0.385610	0.500095
H371	H	0.828339	-0.146827	0.034395
H372	H	1.328339	0.353173	0.534395
H373	H	0.828341	-0.146825	-0.034213
H374	H	1.328341	0.353175	0.465787
H375	H	0.787946	-0.069950	0.034406
H376	H	1.287946	0.430050	0.534406
H377	H	0.787952	-0.069938	-0.034207
H378	H	1.287952	0.430062	0.465793
C379	C	0.556033	0.161189	0.239997
C380	C	1.056033	0.661189	0.739997
C381	C	0.590281	0.132186	0.280245
C382	C	1.090281	0.632186	0.780245
H383	H	0.529546	0.183604	0.261009
H384	H	1.029546	0.683604	0.761009
H385	H	0.579583	0.178478	0.215854
H386	H	1.079583	0.678478	0.715854
H387	H	0.535734	0.141154	0.215840
H388	H	1.035734	0.641154	0.715840
H389	H	0.610583	0.152222	0.304400
H390	H	1.110583	0.652222	0.804400
H391	H	0.566728	0.114897	0.304398
H392	H	1.066728	0.614897	0.804398
H393	H	0.525695	-0.450153	0.000024
H394	H	1.025695	0.049847	0.500024
H395	H	-0.154888	0.059464	-0.097211
H396	H	0.345112	0.559464	0.402789
H397	H	0.391552	0.065055	-0.097238
H398	H	0.891552	0.565055	0.402762
C399	C	0.823378	-0.742480	0.000059
C400	C	1.323378	-0.242480	0.500059
C401	C	0.778190	-0.704425	0.000055
C402	C	1.278190	-0.204425	0.500055
H403	H	0.858830	-0.729458	0.000056
H404	H	1.358830	-0.229458	0.500056
H405	H	0.820976	-0.761890	0.034362
H406	H	1.320976	-0.261890	0.534362
H407	H	0.820978	-0.761896	-0.034245
H408	H	1.320978	-0.261896	0.465755
H409	H	0.780588	-0.685012	0.034362
H410	H	1.280588	-0.185012	0.534362
H411	H	0.780594	-0.685008	-0.034252
H412	H	1.280594	-0.185008	0.465748
C413	C	0.579067	-0.015811	0.000065
C414	C	1.079067	0.484189	0.500065
C415	C	0.567498	-0.064113	0.000063
C416	C	1.067498	0.435887	0.500063
H417	H	0.544029	0.005379	0.000052
H418	H	1.044029	0.505379	0.500052
H419	H	0.600492	-0.010024	0.034372
H420	H	1.100492	0.489976	0.534372
H421	H	0.600517	-0.010027	-0.034236
H422	H	1.100517	0.489973	0.465764
H423	H	0.546052	-0.069897	0.034366
H424	H	1.046052	0.430103	0.534366
H425	H	0.546064	-0.069902	-0.034247
H426	H	1.046064	0.430098	0.465753
H427	H	0.769576	-0.186286	0.000079
H428	H	1.269576	0.313714	0.500079
C429	C	0.879899	-0.365344	0.000080
C430	C	1.379899	0.134656	0.500080
C431	C	0.834713	-0.327287	0.000079
C432	C	1.334713	0.172713	0.500079
H433	H	0.915351	-0.352324	0.000078
H434	H	1.415351	0.147676	0.500078
H435	H	0.877496	-0.384755	0.034381
H436	H	1.377496	0.115245	0.534381
H437	H	0.877497	-0.384757	-0.034226
H438	H	1.377497	0.115243	0.465774
H439	H	0.837112	-0.307876	0.034388
H440	H	1.337112	0.192124	0.534388
H441	H	0.837117	-0.307867	-0.034226
H442	H	1.337117	0.192133	0.465774
C443	C	0.620220	0.161714	0.114649
C444	C	1.120220	0.661714	0.614649
C445	C	0.590278	0.132193	0.150258
C446	C	1.090278	0.632193	0.650258
H447	H	0.593738	0.184130	0.093635
H448	H	1.093738	0.684130	0.593635
H449	H	0.643761	0.179001	0.138802
H450	H	1.143761	0.679001	0.638802
H451	H	0.643459	0.142029	0.087354
H452	H	1.143459	0.642029	0.587354
H453	H	0.567042	0.151877	0.177555
H454	H	1.067042	0.651877	0.677555
H455	H	0.566727	0.114905	0.126103
H456	H	1.066727	0.614905	0.626103
C457	C	0.765350	-0.858561	0.000039
C458	C	1.265350	-0.358561	0.500039
C459	C	0.776919	-0.810259	0.000045
C460	C	1.276919	-0.310259	0.500045
H461	H	0.800387	-0.879751	0.000029
H462	H	1.300387	-0.379751	0.500029
H463	H	0.743916	-0.864350	0.034341
H464	H	1.243916	-0.364350	0.534341
H465	H	0.743908	-0.864341	-0.034266
H466	H	1.243908	-0.364341	0.465734
H467	H	0.798358	-0.804477	0.034352
H468	H	1.298358	-0.304477	0.534352
H469	H	0.798362	-0.804467	-0.034262
H470	H	1.298362	-0.304467	0.465738
H471	H	0.573751	-0.779534	0.000036
H472	H	1.073751	-0.279534	0.500036
C473	C	0.834455	-0.613701	-0.050517
C474	C	1.334455	-0.113701	0.449483
C475	C	0.831631	-0.584352	0.000055
C476	C	1.331631	-0.084352	0.500055
H477	H	0.869493	-0.634889	-0.050519
H478	H	1.369493	-0.134889	0.449481
H479	H	0.803258	-0.632342	-0.050516
H480	H	1.303258	-0.132342	0.449484
H481	H	0.832537	-0.593776	-0.084814
H482	H	1.332537	-0.093776	0.415186
H483	H	0.833544	-0.604278	0.034352
H484	H	1.333544	-0.104278	0.534352
H485	H	0.862836	-0.565710	0.000060
H486	H	1.362836	-0.065710	0.500060
C487	C	0.469159	0.065870	0.159680
C488	C	0.969159	0.565870	0.659680
C489	C	0.507773	0.066264	0.112616
C490	C	1.007773	0.566264	0.612616
H491	H	0.489310	0.066076	0.196070
H492	H	0.989310	0.566076	0.696070
H493	H	0.441398	0.093823	0.157446
H494	H	0.941398	0.593823	0.657446
H495	H	0.450587	0.037438	0.157448
H496	H	0.950587	0.537438	0.657448
H497	H	0.526343	0.094698	0.114846
H498	H	1.026343	0.594698	0.614846
H499	H	0.535544	0.038308	0.114851
H500	H	1.035544	0.538308	0.614851
H501	H	0.743018	0.002848	0.728712
H502	H	1.243018	0.502848	1.228712
H503	H	0.526402	-0.390354	0.000016
H504	H	1.026402	0.109646	0.500016
C505	C	0.195924	0.063071	0.213315
C506	C	0.695924	0.563071	0.713315
C507	C	0.234544	0.063465	0.166255
C508	C	0.734544	0.563465	0.666255
H509	H	0.216072	0.063275	0.249707
H510	H	0.716072	0.563275	0.749707
H511	H	0.168166	0.091026	0.211080
H512	H	0.668166	0.591026	0.711080
H513	H	0.177349	0.034641	0.211078
H514	H	0.677349	0.534641	0.711078
H515	H	0.253116	0.091897	0.168489
H516	H	0.753116	0.591897	0.668489
H517	H	0.262312	0.035507	0.168492
H518	H	0.762312	0.535507	0.668492
H519	H	0.574844	-0.688082	0.000027
H520	H	1.074844	-0.188082	0.500027
C521	C	-0.077295	0.060251	-0.159556
C522	C	0.422705	0.560251	0.340444
C523	C	-0.038677	0.060647	-0.112497
C524	C	0.461323	0.560647	0.387503
H525	H	-0.057146	0.060460	-0.195949
H526	H	0.442854	0.560460	0.304051
H527	H	-0.095865	0.031824	-0.157320
H528	H	0.404135	0.531824	0.342680
H529	H	-0.105059	0.088208	-0.157318
H530	H	0.394941	0.588208	0.342682
H531	H	-0.010916	0.032688	-0.114733
H532	H	0.489084	0.532688	0.385267
H533	H	-0.020098	0.089077	-0.114735
H534	H	0.479902	0.589077	0.385265
H535	H	0.527501	-0.298901	0.000019
H536	H	1.027501	0.201099	0.500019
C537	C	0.724168	-0.036076	0.315809
C538	C	1.224168	0.463924	0.815809
C539	C	0.754105	-0.006548	0.280208
C540	C	1.254105	0.493452	0.780208
H541	H	0.750651	-0.058504	0.336805
H542	H	1.250651	0.441496	0.836805
H543	H	0.700940	-0.016402	0.343114
H544	H	1.200940	0.483598	0.843114
H545	H	0.700615	-0.053355	0.291649
H546	H	1.200615	0.446645	0.791649
H547	H	0.777654	0.010734	0.304369
H548	H	1.277654	0.510734	0.804369
H549	H	0.777343	-0.026224	0.252900
H550	H	1.277343	0.473776	0.752900
H551	H	0.118339	0.062275	0.150980
H552	H	0.618339	0.562275	0.650980
C553	C	0.068969	0.103345	-0.169429
C554	C	0.568969	0.603345	0.330571
C555	C	0.109894	0.062137	-0.166130
C556	C	0.609894	0.562137	0.333870
H557	H	0.048831	0.103131	-0.205826
H558	H	0.548831	0.603131	0.294174
H559	H	0.042774	0.103080	-0.137504
H560	H	0.542774	0.603080	0.362496
H561	H	0.087550	0.131772	-0.167203
H562	H	0.587550	0.631772	0.332797
H563	H	0.091312	0.033710	-0.168351
H564	H	0.591312	0.533710	0.331649
H565	H	0.136092	0.062398	-0.198063
H566	H	0.636092	0.562398	0.301937
H567	H	0.818017	-0.483996	0.000067
H568	H	1.318017	0.016004	0.500067
H569	H	0.524599	-0.541602	0.000021
H570	H	1.024599	-0.041602	0.500021
H571	H	-0.047141	0.060583	0.097367
H572	H	0.452859	0.560583	0.597367
