data_functionalizedCrystal
_audit_creation_method	'MofGen! by Chris Wilmer'
_symmetry_space_group_name_H-M	'P1'
_symmetry_Int_Tables_number	1
_symmetry_cell_setting	triclinic
loop_
_symmetry_equiv_pos_as_xyz
  x,y,z
_cell_length_a	11.792241
_cell_length_b	15.944551
_cell_length_c	10.868271
_cell_angle_alpha	89.993912
_cell_angle_beta	89.999893
_cell_angle_gamma	83.846077
loop_
_atom_site_label
_atom_site_type_symbol
_atom_site_fract_x
_atom_site_fract_y
_atom_site_fract_z
O1	O	1.505960	0.115128	-0.102206
O2	O	1.175521	0.126993	-0.102235
O3	O	1.349764	-0.001173	-0.102208
O4	O	1.331717	0.243295	-0.102232
O5	O	1.349750	-0.001178	0.102436
O6	O	1.175507	0.126988	0.102410
O7	O	1.505946	0.115123	0.102439
Zn8	Zn	1.340724	0.121055	0.134916
Zn9	Zn	1.340743	0.121062	-0.134712
O10	O	1.331703	0.243290	0.102413
C11	C	1.133229	0.126245	0.000084
C12	C	1.007234	0.124015	0.000073
C13	C	0.776555	0.119913	0.000109
C14	C	0.904922	0.122192	0.000090
C15	C	1.349008	-0.032473	0.000114
C16	C	1.346761	-0.125729	0.000115
C17	C	1.233389	-0.341098	0.000088
C18	C	1.286028	-0.401880	0.100995
C19	C	1.342698	-0.296474	0.000105
C20	C	1.286068	-0.401858	-0.100769
C21	C	1.338765	-0.461404	0.000090
C22	C	1.395368	-0.356028	0.101095
C23	C	1.395392	-0.356000	-0.100759
C24	C	1.448111	-0.416764	0.000172
C25	C	1.344961	-0.201461	0.000114
C26	C	1.336511	-0.556415	0.000089
C27	C	1.548237	0.115871	0.000118
C28	C	1.674233	0.118102	0.000120
C29	C	1.332459	0.274590	0.000087
C30	C	1.334705	0.367846	0.000079
N31	N	1.340719	0.121050	0.318930
N32	N	1.340756	0.121060	-0.318726
C33	C	1.340737	0.121060	0.569936
C34	C	1.340723	0.121057	0.430259
H35	H	1.239789	-0.422199	0.186295
H36	H	1.441592	-0.335659	-0.186064
C37	C	1.570786	-0.461013	0.000257
C38	C	1.591465	-0.558026	-0.000737
C39	C	1.714138	-0.602277	-0.000644
C40	C	1.816132	-0.549514	0.000442
C41	C	1.795456	-0.452496	0.001436
C42	C	1.672783	-0.408245	0.001344
H43	H	1.515961	-0.597089	-0.001541
H44	H	1.729443	-0.674097	-0.001380
H45	H	1.906942	-0.582271	0.000511
H46	H	1.870961	-0.413433	0.002241
H47	H	1.657478	-0.336425	0.002079
H48	H	1.142657	-0.308200	0.000181
C49	C	1.457761	-0.328751	0.216475
C50	C	1.471365	-0.234880	0.237831
C51	C	1.533752	-0.207601	0.353210
C52	C	1.582537	-0.274194	0.447234
C53	C	1.568935	-0.368071	0.425881
C54	C	1.506547	-0.395350	0.310501
H55	H	1.435250	-0.185578	0.168226
H56	H	1.543821	-0.138106	0.369017
H57	H	1.628720	-0.254001	0.532645
H58	H	1.605049	-0.417373	0.495485
H59	H	1.496478	-0.464845	0.294694
C60	C	1.223601	-0.429275	-0.216015
C61	C	1.097930	-0.395630	-0.238162
C62	C	1.035454	-0.423043	-0.353400
C63	C	1.098648	-0.484102	-0.446491
C64	C	1.224325	-0.517750	-0.424346
C65	C	1.286802	-0.490337	-0.309108
H66	H	1.051144	-0.350428	-0.169248
H67	H	0.942419	-0.398134	-0.369793
H68	H	1.052399	-0.504395	-0.531798
H69	H	1.271112	-0.562953	-0.493260
H70	H	1.379837	-0.515247	-0.292716
