data_functionalizedCrystal
_audit_creation_method	'MofGen! by Chris Wilmer'
_symmetry_space_group_name_H-M	'P1'
_symmetry_Int_Tables_number	1
_symmetry_cell_setting	triclinic
loop_
_symmetry_equiv_pos_as_xyz
  x,y,z
_cell_length_a	19.188930
_cell_length_b	17.666332
_cell_length_c	19.188924
_cell_angle_alpha	90.008552
_cell_angle_beta	83.143372
_cell_angle_gamma	90.023234
loop_
_atom_site_label
_atom_site_type_symbol
_atom_site_fract_x
_atom_site_fract_y
_atom_site_fract_z
O1	O	0.926147	0.063195	0.087169
O2	O	0.722836	0.063144	0.098903
O3	O	0.830361	0.063162	-0.008620
O4	O	0.818622	0.063177	0.194692
O5	O	0.830343	-0.062735	-0.008625
O6	O	0.722817	-0.062753	0.098898
O7	O	0.926129	-0.062702	0.087163
Cu8	Cu	0.824471	-0.074223	0.093030
Cu9	Cu	0.824493	0.074665	0.093037
O10	O	0.818603	-0.062720	0.194687
C11	C	0.696815	0.000189	0.098521
C12	C	0.619311	0.000169	0.097380
N13	N	0.824461	-0.178942	0.093025
C14	C	0.574386	0.000185	0.160471
C15	C	0.501562	0.000193	0.159399
C16	C	0.473667	0.000200	0.095233
C17	C	0.518602	0.000180	0.032134
C18	C	0.591424	0.000164	0.033207
N19	N	0.365694	0.043075	0.046188
N20	N	0.296516	0.043092	0.045172
C21	C	0.254258	0.000246	0.091995
N22	N	0.283791	-0.042607	0.139882
N23	N	0.352976	-0.042620	0.140899
C24	C	0.394704	0.000217	0.094062
C25	C	0.130368	0.000271	0.153928
C26	C	0.057543	0.000274	0.152854
C27	C	0.074585	0.000268	0.025586
C28	C	0.147409	0.000257	0.026663
C29	C	0.175295	0.000262	0.090835
C30	C	0.872088	-0.218544	0.045437
C31	C	0.872092	-0.297791	0.045433
C32	C	0.824475	-0.337434	0.093030
C33	C	0.776839	-0.297823	0.140622
C34	C	0.776831	-0.218577	0.140619
N35	N	0.815398	-0.461850	0.154838
N36	N	0.815409	-0.537130	0.154838
C37	C	0.824494	-0.576198	0.093040
N38	N	0.833581	-0.537142	0.031239
N39	N	0.833573	-0.461855	0.031240
C40	C	0.824478	-0.423363	0.093038
C41	C	0.872128	-0.701729	0.045444
C42	C	0.872128	-0.780978	0.045440
C43	C	0.776878	-0.781009	0.140634
C44	C	0.776875	-0.701761	0.140633
C45	C	0.824504	-0.662126	0.093038
C46	C	0.952149	0.000255	0.087546
C47	C	1.029654	0.000280	0.088687
C48	C	0.829973	0.000213	-0.034634
C49	C	0.828834	0.000210	-0.112138
N50	N	0.824509	0.179384	0.093036
C51	C	0.828313	0.068837	-0.148534
C52	C	0.827233	0.068842	-0.221357
C53	C	0.826688	0.000217	-0.257783
C54	C	0.827205	-0.068418	-0.221378
C55	C	0.828278	-0.068421	-0.148556
N56	N	0.864728	-0.050849	-0.377448
N57	N	0.863710	-0.050841	-0.446627
C58	C	0.823454	0.000224	-0.477192
N59	N	0.784262	0.051292	-0.435967
N60	N	0.785283	0.051286	-0.366783
C61	C	0.825524	0.000214	-0.336746
C62	C	0.821761	0.068861	-0.592550
C63	C	0.820676	0.068864	-0.665374
C64	C	0.820656	-0.068399	-0.665394
C65	C	0.821734	-0.068399	-0.592571
C66	C	0.822289	0.000233	-0.556154
C67	C	0.818992	0.000231	0.220700
C68	C	0.820131	0.000238	0.298205
H69	H	0.464976	0.000205	0.210777
H70	H	0.822209	0.124745	-0.562898
N71	N	0.820135	0.138975	-0.702542
N72	N	0.820629	0.200243	-0.670014
H73	H	0.820246	0.249761	-0.696264
N74	N	0.602867	0.000163	0.226021
N75	N	0.641566	-0.052919	0.240816
H76	H	0.661682	-0.052939	0.287112
N77	N	0.728238	-0.821481	0.189264
N78	N	0.685720	-0.786108	0.231757
H79	H	0.651366	-0.814694	0.266104
H80	H	0.051874	0.000321	-0.026659
H81	H	0.910910	-0.813223	0.006684
N82	N	0.158861	0.000250	0.219475
N83	N	0.197567	-0.052828	0.234264
H84	H	0.217689	-0.052845	0.280557
H85	H	0.628003	0.000151	-0.018171
N86	N	0.011640	0.000287	0.217297
N87	N	-0.053378	0.000291	0.216331
H88	H	-0.085799	0.000297	0.261845
H89	H	0.495885	0.000196	-0.020111
H90	H	0.183988	0.000248	-0.024713
N91	N	0.820093	-0.138506	-0.702580
N92	N	0.771001	-0.184469	-0.687861
H93	H	0.770600	-0.233986	-0.714125
H94	H	0.828700	-0.124307	-0.118922
N95	N	0.920802	-0.178071	-0.003124
N96	N	0.963363	-0.213446	-0.045572
H97	H	0.997789	-0.184861	-0.079847
N98	N	0.920747	-0.338243	-0.003186
N99	N	0.963265	-0.302846	-0.045678
H100	H	0.997629	-0.331412	-0.080015
H101	H	0.738067	-0.330104	0.179375
N102	N	0.728229	-0.661318	0.189260
N103	N	0.728986	-0.670159	0.253794
H104	H	0.694626	-0.641598	0.288139
N105	N	0.728172	-0.178133	0.189235
N106	N	0.685655	-0.213532	0.231725
H107	H	0.651288	-0.184968	0.266062
N108	N	0.822260	-0.138501	-0.555390
N109	N	0.772927	-0.184463	-0.556942
H110	H	0.773296	-0.233976	-0.530682
N111	N	0.920695	-0.661249	-0.003261
N112	N	0.963156	-0.696622	-0.045811
H113	H	0.997424	-0.668036	-0.080243
H114	H	0.828763	0.124722	-0.118888
N115	N	0.826710	0.138939	-0.258557
N116	N	0.825755	0.138929	-0.323576
H117	H	0.825386	0.188434	-0.349849
N118	N	0.826642	-0.138510	-0.258592
N119	N	0.825685	-0.138498	-0.323612
H120	H	0.825284	-0.188003	-0.349895
