data_functionalizedCrystal
_audit_creation_method	'MofGen! by Chris Wilmer'
_symmetry_space_group_name_H-M	'P1'
_symmetry_Int_Tables_number	1
_symmetry_cell_setting	triclinic
loop_
_symmetry_equiv_pos_as_xyz
  x,y,z
_cell_length_a	23.532361
_cell_length_b	23.532357
_cell_length_c	9.565339
_cell_angle_alpha	89.994707
_cell_angle_beta	90.000756
_cell_angle_gamma	82.828980
loop_
_atom_site_label
_atom_site_type_symbol
_atom_site_fract_x
_atom_site_fract_y
_atom_site_fract_z
O1	O	0.755264	0.069006	-0.116136
O2	O	0.589395	0.079037	-0.116172
O3	O	0.677346	-0.008913	-0.116125
O4	O	0.667313	0.156956	-0.116184
O5	O	0.677339	-0.008907	0.116395
O6	O	0.589388	0.079043	0.116348
O7	O	0.755257	0.069012	0.116384
Zn8	Zn	0.672322	0.074028	0.153283
Zn9	Zn	0.672331	0.074021	-0.153072
O10	O	0.667306	0.156962	0.116336
C11	C	0.568175	0.078789	0.000084
C12	C	0.504957	0.078034	0.000071
C13	C	0.231717	0.074727	-0.126666
C14	C	0.291117	0.075442	-0.126670
O15	O	0.321846	0.075790	-0.234461
N16	N	0.320819	0.075806	0.000077
C17	C	0.291119	0.075450	0.126836
O18	O	0.321837	0.075824	0.234644
C19	C	0.231721	0.074730	0.126839
C20	C	0.202021	0.074372	0.000083
C21	C	0.202018	0.074368	-0.253411
C22	C	0.142622	0.073654	-0.253407
C23	C	0.112926	0.073299	-0.126658
C24	C	0.142626	0.073658	0.000088
C25	C	0.202022	0.074370	0.253596
C26	C	0.142620	0.073650	0.253588
C27	C	0.112921	0.073292	0.126832
C28	C	0.053534	0.072590	0.126841
N29	N	0.023832	0.072225	0.000094
C30	C	0.053528	0.072580	-0.126655
C31	C	0.415859	0.076959	0.126822
C32	C	0.475255	0.077682	0.126821
C33	C	0.475249	0.077673	-0.126685
C34	C	0.415851	0.076954	-0.126683
C35	C	0.386157	0.076594	0.000075
C36	C	-0.071207	0.071082	-0.126637
C37	C	-0.130608	0.070370	-0.126621
C38	C	-0.130597	0.070376	0.126884
C39	C	-0.071202	0.071090	0.126870
C40	C	-0.041508	0.071441	0.000098
O41	O	0.022767	0.072239	0.234577
O42	O	0.022804	0.072198	-0.234445
C43	C	0.677092	-0.030127	0.000140
C44	C	0.676337	-0.093345	0.000153
C45	C	0.671604	-0.485359	-0.126670
C46	C	0.670887	-0.544758	-0.126679
O47	O	0.670500	-0.575477	-0.234472
N48	N	0.670527	-0.574466	0.000066
C49	C	0.670879	-0.544771	0.126828
O50	O	0.670507	-0.575494	0.234633
C51	C	0.671593	-0.485372	0.126834
C52	C	0.671958	-0.455668	0.000081
C53	C	0.671969	-0.455654	-0.253413
C54	C	0.672687	-0.396259	-0.253405
C55	C	0.673041	-0.366568	-0.126653
C56	C	0.672676	-0.396273	0.000090
C57	C	0.671941	-0.455678	0.253594
C58	C	0.672653	-0.396275	0.253590
C59	C	0.673019	-0.366570	0.126837
C60	C	0.673748	-0.307187	0.126850
N61	N	0.674108	-0.277479	0.000105
C62	C	0.673754	-0.307170	-0.126646
C63	C	0.669381	-0.669512	0.126804
C64	C	0.668672	-0.728911	0.126799
C65	C	0.668678	-0.728893	-0.126708
C66	C	0.669391	-0.669494	-0.126701
C67	C	0.669740	-0.639804	0.000059
C68	C	0.675263	-0.182436	-0.126619
C69	C	0.675984	-0.123036	-0.126599
C70	C	0.675974	-0.123058	0.126907
C71	C	0.675256	-0.182453	0.126888
C72	C	0.674899	-0.212140	0.000114
O73	O	0.674133	-0.276430	0.234588
O74	O	0.674119	-0.276438	-0.234434
C75	C	0.776477	0.069260	0.000125
C76	C	0.839695	0.070015	0.000128
C77	C	0.667560	0.178176	0.000068
C78	C	0.668315	0.241394	0.000046
N79	N	0.672319	0.074033	0.362363
N80	N	0.672337	0.074012	-0.362151
C81	C	0.631633	0.114693	0.453544
C82	C	0.683034	0.125445	0.546729
C83	C	0.620940	0.063285	0.546733
C84	C	0.723747	0.084810	0.453496
C85	C	0.661619	0.022628	0.453492
C86	C	0.713058	0.033357	0.546635
H87	H	0.391674	0.076662	-0.229899
C88	C	0.649352	-0.036068	0.398110
N89	N	0.640106	-0.080278	0.356393
C90	C	0.676383	-0.090364	-0.266043
N91	N	0.676683	-0.065758	-0.371070
H92	H	0.767214	0.093943	0.412714
H93	H	0.668388	-0.753078	-0.229916
C94	C	0.585195	0.161188	0.398308
N95	N	0.550222	0.196208	0.356699
C96	C	0.507927	0.078058	-0.266113
N97	N	0.532542	0.078347	-0.371124
C98	C	0.669774	-0.636860	0.266260
N99	N	0.670070	-0.612268	0.371298
C100	C	0.674879	-0.215084	-0.266077
N101	N	0.674597	-0.239676	-0.371117
H102	H	0.672982	-0.372079	-0.356620
C103	C	0.234675	0.074757	-0.392858
N104	N	0.259267	0.075054	-0.497899
H105	H	0.391684	0.076673	0.230050
H106	H	-0.154787	0.070080	-0.229845
H107	H	0.577482	0.054205	0.587691
H108	H	0.692097	0.168907	0.587683
C109	C	0.669788	-0.636825	-0.266138
N110	N	0.670084	-0.612220	-0.371168
C111	C	0.759601	-0.013106	0.601532
N112	N	0.794659	-0.048098	0.642889
H113	H	-0.047038	0.071368	-0.229867
H114	H	0.226194	0.074660	0.356814
C115	C	0.507917	0.078082	0.266262
N116	N	0.532516	0.078380	0.371294
C117	C	-0.038532	0.071489	0.266306
N118	N	-0.013928	0.071783	0.371333
H119	H	0.118446	0.073362	0.356812
C120	C	0.109962	0.073248	-0.392849
N121	N	0.085367	0.072937	-0.497885
H122	H	-0.154787	0.070089	0.230080
C123	C	0.668276	-0.761579	0.266237
N124	N	0.667973	-0.786183	0.371267
C125	C	0.671604	-0.488308	-0.392863
N126	N	0.671343	-0.512900	-0.497905
H127	H	0.671644	-0.479853	0.356810
H128	H	0.676265	-0.098873	0.230105
C129	C	0.674860	-0.215129	0.266322
N130	N	0.674556	-0.239737	0.371347
C131	C	0.673039	-0.363619	0.393040
N132	N	0.673333	-0.339025	0.498074
