data_functionalizedCrystal
_audit_creation_method	'MofGen! by Chris Wilmer'
_symmetry_space_group_name_H-M	'P1'
_symmetry_Int_Tables_number	1
_symmetry_cell_setting	triclinic
loop_
_symmetry_equiv_pos_as_xyz
  x,y,z
_cell_length_a	23.096457
_cell_length_b	23.096457
_cell_length_c	23.096457
_cell_angle_alpha	60.007119
_cell_angle_beta	90.011518
_cell_angle_gamma	60.004020
loop_
_atom_site_label
_atom_site_type_symbol
_atom_site_fract_x
_atom_site_fract_y
_atom_site_fract_z
Zr1	Zr	0.557810	0.633718	-0.075980
O2	O	0.465352	0.754500	-0.168422
O3	O	0.586145	0.512937	-0.047644
O4	O	0.586129	0.633720	-0.168431
O5	O	0.465391	0.633715	0.047646
O6	O	0.681409	0.633722	-0.168434
O7	O	0.465368	0.633716	-0.047636
O8	O	0.681439	0.417662	0.047631
O9	O	0.465361	0.849775	-0.168419
O10	O	0.669347	0.562617	-0.035559
O11	O	0.598257	0.562615	0.035552
O12	O	0.598237	0.704822	-0.106659
O13	O	0.527148	0.704820	-0.035548
Zr14	Zr	0.709808	0.633718	0.075978
Zr15	Zr	0.709771	0.633721	-0.075985
Zr16	Zr	0.557846	0.633716	0.075984
Zr17	Zr	0.557825	0.785670	-0.075975
Zr18	Zr	0.709792	0.481766	0.075973
O19	O	0.681472	0.754500	0.047643
O20	O	0.681421	0.754504	-0.168430
O21	O	0.465403	0.754496	0.047651
O22	O	0.802266	0.512937	0.168421
O23	O	0.802214	0.512940	-0.047652
O24	O	0.586197	0.512933	0.168429
O25	O	0.802227	0.633722	-0.047648
O26	O	0.681489	0.633716	0.168429
O27	O	0.586209	0.633715	0.168433
O28	O	0.802249	0.633720	0.047634
O29	O	0.586150	0.849777	-0.168423
O30	O	0.681467	0.417660	0.168422
O31	O	0.802256	0.417662	0.168417
O32	O	0.802228	0.417664	0.047626
O33	O	0.465390	0.849773	-0.047628
O34	O	0.586179	0.849775	-0.047632
O35	O	0.669380	0.562615	0.106657
O36	O	0.740470	0.562617	0.035547
O37	O	0.669361	0.704822	-0.035554
O38	O	0.598271	0.704820	0.035557
C39	C	0.633790	0.443649	-0.000008
C40	C	0.633783	0.379142	-0.000010
C41	C	0.443729	0.633715	0.000006
C42	C	0.379217	0.633714	0.000009
C43	C	0.686287	0.296356	0.052475
C44	C	0.686292	0.235734	0.052482
C45	C	0.633798	0.257903	-0.000007
C46	C	0.581285	0.340703	-0.052497
C47	C	0.581278	0.401322	-0.052498
N48	N	0.617905	0.201794	-0.062253
N49	N	0.617917	0.144205	-0.062250
C50	C	0.633817	0.075264	-0.000006
N51	N	0.649719	0.066080	0.062237
N52	N	0.649711	0.123673	0.062233
C53	C	0.633800	0.192178	-0.000012
C54	C	0.686329	-0.073258	0.052490
C55	C	0.686329	-0.133879	0.052497
C56	C	0.581325	-0.028908	-0.052487
C57	C	0.581322	0.031710	-0.052489
C58	C	0.633828	0.009530	-0.000000
C59	C	0.386030	0.559487	0.037115
C60	C	0.325414	0.559486	0.037118
C61	C	0.257986	0.633716	0.000001
C62	C	0.251176	0.707953	-0.037108
C63	C	0.311792	0.707952	-0.037104
N64	N	0.135182	0.688970	-0.060408
N65	N	0.077602	0.688966	-0.060411
C66	C	0.075354	0.633723	-0.000012
N67	N	0.132866	0.578472	0.060389
N68	N	0.190452	0.578474	0.060390
C69	C	0.192255	0.633725	-0.000007
C70	C	0.016443	0.559490	0.037102
C71	C	-0.044175	0.559491	0.037107
C72	C	-0.118413	0.707961	-0.037126
C73	C	-0.057795	0.707957	-0.037124
C74	C	0.009630	0.633719	-0.000012
C75	C	0.823889	0.633721	-0.000008
C76	C	0.888401	0.633723	-0.000010
C77	C	0.633764	0.633721	-0.190084
C78	C	0.633748	0.633723	-0.254597
C79	C	0.633828	0.823787	0.000006
C80	C	0.633834	0.888295	0.000008
C81	C	0.596634	0.707950	-0.322014
C82	C	0.596652	0.707951	-0.382631
C83	C	0.633775	0.633721	-0.375826
C84	C	0.670898	0.559484	-0.308396
C85	C	0.670885	0.559485	-0.247782
N86	N	0.628647	0.578466	-0.443383
N87	N	0.628656	0.578471	-0.500967
C88	C	0.633818	0.633713	-0.558451
N89	N	0.638958	0.688964	-0.556183
N90	N	0.638946	0.688962	-0.498595
C91	C	0.633794	0.633711	-0.441548
C92	C	0.596722	0.707947	-0.691598
C93	C	0.596745	0.707945	-0.752214
C94	C	0.670986	0.559476	-0.677978
C95	C	0.670968	0.559480	-0.617364
C96	C	0.633832	0.633718	-0.624179
C97	C	0.633854	0.633715	0.190083
C98	C	0.633869	0.633714	0.254595
C99	C	0.823870	0.443652	-0.000014
C100	C	0.888375	0.379146	-0.000019
C101	C	0.633835	0.443646	0.190076
C102	C	0.633844	0.379137	0.254586
C103	C	0.823915	0.443649	0.190069
C104	C	0.888436	0.379142	0.254577
C105	C	0.443702	0.823787	-0.190071
C106	C	0.379182	0.888295	-0.254579
C107	C	0.443748	0.823784	0.000013
C108	C	0.379243	0.888291	0.000018
C109	C	0.633783	0.823790	-0.190078
C110	C	0.633774	0.888299	-0.254588
C111	C	0.881542	0.348853	-0.037144
C112	C	0.942145	0.288250	-0.037162
C113	C	1.009581	0.257938	-0.000052
C114	C	1.016414	0.288237	0.037074
C115	C	0.955811	0.348842	0.037088
C116	C	0.670974	0.348843	0.322004
C117	C	0.670979	0.288239	0.382624
C118	C	0.633859	0.257926	0.375825
C119	C	0.596724	0.288225	0.308401
C120	C	0.596715	0.348833	0.247782
C121	C	0.955850	0.348849	0.247752
C122	C	1.016479	0.288246	0.308358
C123	C	1.009693	0.257932	0.375789
C124	C	0.942272	0.288230	0.382613
C125	C	0.881644	0.348836	0.322007
C126	C	0.311768	0.918595	-0.247753
C127	C	0.251139	0.979217	-0.308360
C128	C	0.257925	1.009534	-0.375790
C129	C	0.325346	0.979232	-0.382614
C130	C	0.385974	0.918615	-0.322009
C131	C	0.386076	0.918590	0.037136
C132	C	0.325473	0.979209	0.037138
C133	C	0.258036	1.009524	0.000025
C134	C	0.251204	0.979222	-0.037098
C135	C	0.311807	0.918608	-0.037104
C136	C	0.670902	0.918593	-0.247766
C137	C	0.670907	0.979198	-0.308375
C138	C	0.633780	1.009512	-0.375804
C139	C	0.596651	0.979212	-0.382624
C140	C	0.596651	0.918604	-0.322017
H141	H	0.729041	0.278289	0.095216
C142	C	0.744054	0.144658	0.110221
N143	N	0.787561	0.076060	0.153709
H144	H	0.961385	0.373499	0.067324
C145	C	1.090635	0.254922	0.300836
N146	N	1.146488	0.229821	0.295168
H147	H	1.058922	0.208588	-0.000068
H148	H	0.826637	0.373533	-0.067373
H149	H	0.566424	1.003902	-0.437533
H150	H	1.071328	0.263548	0.067288
H151	H	1.059066	0.208582	0.425132
H152	H	0.936568	0.263588	-0.067395
C153	C	0.711750	1.012521	-0.300857
N154	N	0.742511	1.037619	-0.295192
H155	H	0.701202	0.373518	0.327553
C156	C	-0.065291	0.789614	-0.077957
N157	N	-0.070939	0.851122	-0.108714
H158	H	0.701221	0.263576	0.437518
H159	H	0.633872	0.208575	0.425190
H160	H	0.633787	1.058863	-0.425149
C161	C	0.523570	0.122781	-0.110234
N162	N	0.480068	0.191377	-0.153730
H163	H	0.566414	0.893945	-0.327581
C164	C	0.460251	0.885259	0.077962
N165	N	0.516118	0.860162	0.108711
C166	C	0.555898	0.254867	0.300934
N167	N	0.525152	0.229736	0.295312
H168	H	0.208695	1.058879	0.000035
C169	C	0.523543	0.365087	-0.110236
N170	N	0.480048	0.383456	-0.153726
C171	C	0.177017	1.012566	-0.077908
N172	N	0.121138	1.037675	-0.108639
C173	C	0.934819	0.254869	0.456794
N174	N	0.929208	0.229734	0.512669
C175	C	0.332798	1.012583	-0.456795
N176	N	0.338410	1.037699	-0.512670
H177	H	0.566482	0.373490	0.192890
H178	H	0.306233	0.893940	-0.067328
H179	H	0.331049	1.003871	0.067370
H180	H	0.538520	0.468733	-0.095237
H181	H	0.961388	0.373522	0.192851
C182	C	0.807490	0.382149	0.329527
N183	N	0.751638	0.407239	0.335196
C184	C	0.523580	-0.004518	-0.110226
N185	N	0.480085	0.013852	-0.153715
H186	H	0.306229	0.893913	-0.192853
H187	H	0.196272	0.768392	-0.067329
C188	C	0.460128	0.885282	-0.329529
N189	N	0.515980	0.860178	-0.335198
H190	H	0.440927	0.499036	0.067331
H191	H	0.729079	-0.091319	0.095233
H192	H	0.701135	0.893921	-0.192868
H193	H	0.208551	1.058892	-0.425134
C194	C	0.744098	-0.224950	0.110231
N195	N	0.787615	-0.293546	0.153713
H196	H	0.196247	1.003878	-0.302790
H197	H	0.330962	0.499039	0.067336
H198	H	0.306239	0.768399	-0.067319
C199	C	0.711731	0.477830	-0.300912
N200	N	0.742489	0.416326	-0.295273
H201	H	0.701214	0.499036	-0.672436
H202	H	0.071344	0.499041	0.067336
H203	H	0.701109	0.499038	-0.192886
C204	C	-0.036676	0.477831	0.077924
N205	N	-0.031028	0.416323	0.108666
H206	H	0.566397	0.768400	-0.327570
C207	C	-0.192581	0.789616	-0.077955
N208	N	-0.248448	0.851120	-0.108706
H209	H	0.566524	0.768392	-0.807110
C210	C	0.555879	0.789609	-0.699093
N211	N	0.525118	0.851118	-0.704740
C212	C	0.711789	0.477823	-0.543200
N213	N	0.742538	0.416315	-0.487338
C214	C	0.555821	0.789610	-0.456801
N215	N	0.525066	0.851116	-0.512664
