data_functionalizedCrystal
_audit_creation_method	'MofGen! by Chris Wilmer'
_symmetry_space_group_name_H-M	'P1'
_symmetry_Int_Tables_number	1
_symmetry_cell_setting	triclinic
loop_
_symmetry_equiv_pos_as_xyz
  x,y,z
_cell_length_a	21.295418
_cell_length_b	29.839131
_cell_length_c	29.839125
_cell_angle_alpha	90.011606
_cell_angle_beta	90.033105
_cell_angle_gamma	90.057233
loop_
_atom_site_label
_atom_site_type_symbol
_atom_site_fract_x
_atom_site_fract_y
_atom_site_fract_z
Zn1	Zn	0.962242	-0.178754	0.254239
Zn2	Zn	1.212242	0.071246	0.504239
Zn3	Zn	1.462242	0.321246	0.754239
Zn4	Zn	1.712242	0.571246	1.004239
Zn5	Zn	0.962144	-0.253858	0.179109
Zn6	Zn	1.212144	-0.003858	0.429109
Zn7	Zn	1.462144	0.246142	0.679109
Zn8	Zn	1.712144	0.496142	0.929109
Zn9	Zn	0.856985	-0.178763	0.179096
Zn10	Zn	1.106985	0.071237	0.429096
Zn11	Zn	1.356985	0.321237	0.679096
Zn12	Zn	1.606985	0.571237	0.929096
Zn13	Zn	0.856914	-0.253878	0.254185
Zn14	Zn	1.106914	-0.003878	0.504185
Zn15	Zn	1.356914	0.246122	0.754185
Zn16	Zn	1.606914	0.496122	1.004185
O17	O	0.909571	-0.216313	0.216657
O18	O	1.159571	0.033687	0.466657
O19	O	1.409571	0.283687	0.716657
O20	O	1.659571	0.533687	0.966657
O21	O	1.050318	-0.188704	0.244300
O22	O	1.300318	0.061296	0.494300
O23	O	1.550318	0.311296	0.744300
O24	O	1.800318	0.561296	0.994300
O25	O	0.948183	-0.243892	0.116240
O26	O	1.198183	0.006108	0.366240
O27	O	1.448183	0.256108	0.616240
O28	O	1.698183	0.506108	0.866240
O29	O	0.871018	-0.115895	0.189081
O30	O	1.121018	0.134105	0.439081
O31	O	1.371018	0.384105	0.689081
O32	O	1.621018	0.634105	0.939081
O33	O	1.050246	-0.243883	0.189103
O34	O	1.300246	0.006117	0.439103
O35	O	1.550246	0.256117	0.689103
O36	O	1.800246	0.506117	0.939103
O37	O	0.948350	-0.115888	0.244288
O38	O	1.198350	0.134112	0.494288
O39	O	1.448350	0.384112	0.744288
O40	O	1.698350	0.634112	0.994288
O41	O	0.870923	-0.188720	0.116230
O42	O	1.120923	0.061280	0.366230
O43	O	1.370923	0.311280	0.616230
O44	O	1.620923	0.561280	0.866230
O45	O	0.768886	-0.188740	0.189028
O46	O	1.018886	0.061260	0.439028
O47	O	1.268886	0.311260	0.689028
O48	O	1.518886	0.561260	0.939028
O49	O	0.870898	-0.243917	0.317059
O50	O	1.120898	0.006083	0.567059
O51	O	1.370898	0.256083	0.817059
O52	O	1.620898	0.506083	1.067059
O53	O	0.768834	-0.243927	0.244196
O54	O	1.018834	0.006073	0.494196
O55	O	1.268834	0.256073	0.744196
O56	O	1.518834	0.506073	0.994196
O57	O	0.948282	-0.188724	0.317099
O58	O	1.198282	0.061276	0.567099
O59	O	1.448282	0.311276	0.817099
O60	O	1.698282	0.561276	1.067099
O61	O	0.948115	-0.316728	0.189050
O62	O	1.198115	-0.066728	0.439050
O63	O	1.448115	0.183272	0.689050
O64	O	1.698115	0.433272	0.939050
O65	O	0.870803	-0.316743	0.244208
O66	O	1.120803	-0.066743	0.494208
O67	O	1.370803	0.183257	0.744208
O68	O	1.620803	0.433257	0.994208
C69	C	0.746020	-0.216337	0.216605
C70	C	0.996020	0.033663	0.466605
C71	C	1.246020	0.283663	0.716605
C72	C	1.496020	0.533663	0.966605
C73	C	0.676051	-0.216358	0.216594
C74	C	0.926051	0.033642	0.466594
C75	C	1.176051	0.283642	0.716594
C76	C	1.426051	0.533642	0.966594
C77	C	0.643174	-0.245132	0.245276
C78	C	0.893174	0.004868	0.495276
C79	C	1.143174	0.254868	0.745276
C80	C	1.393174	0.504868	0.995276
C81	C	0.577432	-0.245120	0.245297
C82	C	0.827432	0.004880	0.495297
C83	C	1.077432	0.254880	0.745297
C84	C	1.327432	0.504880	0.995297
C85	C	0.544569	-0.216340	0.216626
C86	C	0.794569	0.033660	0.466626
C87	C	1.044569	0.283660	0.716626
C88	C	1.294569	0.533660	0.966626
C89	C	0.577454	-0.187561	0.187941
C90	C	0.827454	0.062439	0.437941
C91	C	1.077454	0.312439	0.687941
C92	C	1.327454	0.562439	0.937941
C93	C	0.643195	-0.187570	0.187925
C94	C	0.893195	0.062430	0.437925
C95	C	1.143195	0.312430	0.687925
C96	C	1.393195	0.562430	0.937925
N97	N	0.441304	-0.212818	0.177333
N98	N	0.691304	0.037182	0.427333
N99	N	0.941304	0.287182	0.677333
N100	N	1.191304	0.537182	0.927333
N101	N	0.378853	-0.212812	0.177349
N102	N	0.628853	0.037188	0.427349
N103	N	0.878853	0.287188	0.677349
N104	N	1.128853	0.537188	0.927349
C105	C	0.346494	-0.216312	0.216674
C106	C	0.596494	0.033688	0.466674
C107	C	0.846494	0.283688	0.716674
C108	C	1.096494	0.533688	0.966674
N109	N	0.378947	-0.219826	0.255982
N110	N	0.628947	0.030174	0.505982
N111	N	0.878947	0.280174	0.755982
N112	N	1.128947	0.530174	1.005982
N113	N	0.441404	-0.219834	0.255964
N114	N	0.691404	0.030166	0.505964
N115	N	0.941404	0.280166	0.755964
N116	N	1.191404	0.530166	1.005964
C117	C	0.473284	-0.216328	0.216641
C118	C	0.723284	0.033672	0.466641
C119	C	0.973284	0.283672	0.716641
C120	C	1.223284	0.533672	0.966641
C121	C	0.242332	-0.245075	0.245381
C122	C	0.492332	0.004925	0.495381
C123	C	0.742332	0.254925	0.745381
C124	C	0.992332	0.504925	0.995381
C125	C	0.176588	-0.245061	0.245402
C126	C	0.426588	0.004939	0.495402
C127	C	0.676588	0.254939	0.745402
C128	C	0.926588	0.504939	0.995402
C129	C	0.176611	-0.187504	0.188042
C130	C	0.426611	0.062496	0.438042
C131	C	0.676611	0.312496	0.688042
C132	C	0.926611	0.562496	0.938042
C133	C	0.242354	-0.187516	0.188025
C134	C	0.492354	0.062484	0.438025
C135	C	0.742354	0.312484	0.688025
C136	C	0.992354	0.562484	0.938025
C137	C	0.275210	-0.216304	0.216694
C138	C	0.525210	0.033696	0.466694
C139	C	0.775210	0.283696	0.716694
C140	C	1.025210	0.533696	0.966694
C141	C	0.909458	-0.333036	0.216635
C142	C	1.159458	-0.083036	0.466635
C143	C	1.409458	0.166964	0.716635
C144	C	1.659458	0.416964	0.966635
C145	C	0.909467	-0.382970	0.216640
C146	C	1.159467	-0.132970	0.466640
C147	C	1.409467	0.117030	0.716640
C148	C	1.659467	0.367030	0.966640
C149	C	0.949901	-0.692593	0.187978
C150	C	1.199901	-0.442593	0.437978
C151	C	1.449901	-0.192593	0.687978
C152	C	1.699901	0.057407	0.937978
C153	C	0.949978	-0.880266	0.187996
C154	C	1.199978	-0.630266	0.437996
C155	C	1.449978	-0.380266	0.687996
C156	C	1.699978	-0.130266	0.937996
O157	O	0.984267	-0.904514	0.163609
O158	O	1.234267	-0.654514	0.413609
O159	O	1.484267	-0.404514	0.663609
O160	O	1.734267	-0.154514	0.913609
N161	N	0.909702	-0.903755	0.216691
N162	N	1.159702	-0.653755	0.466691
N163	N	1.409702	-0.403755	0.716691
N164	N	1.659702	-0.153755	0.966691
C165	C	0.869406	-0.880323	0.245386
C166	C	1.119406	-0.630323	0.495386
C167	C	1.369406	-0.380323	0.745386
C168	C	1.619406	-0.130323	0.995386
O169	O	0.835155	-0.904608	0.269796
O170	O	1.085155	-0.654608	0.519796
O171	O	1.335155	-0.404608	0.769796
O172	O	1.585155	-0.154608	1.019796
C173	C	0.869332	-0.692651	0.245370
C174	C	1.119332	-0.442651	0.495370
C175	C	1.369332	-0.192651	0.745370
C176	C	1.619332	0.057349	0.995370
C177	C	0.909606	-0.669164	0.216670
C178	C	1.159606	-0.419164	0.466670
C179	C	1.409606	-0.169164	0.716670
C180	C	1.659606	0.080836	0.966670
C181	C	0.990172	-0.669107	0.159280
C182	C	1.240172	-0.419107	0.409280
C183	C	1.490172	-0.169107	0.659280
C184	C	1.740172	0.080893	0.909280
C185	C	0.990150	-0.622191	0.159275
C186	C	1.240150	-0.372191	0.409275
C187	C	1.490150	-0.122191	0.659275
C188	C	1.740150	0.127809	0.909275
C189	C	0.949856	-0.598762	0.187966
C190	C	1.199856	-0.348762	0.437966
C191	C	1.449856	-0.098762	0.687966
C192	C	1.699856	0.151238	0.937966
C193	C	0.909584	-0.622249	0.216664
C194	C	1.159584	-0.372249	0.466664
C195	C	1.409584	-0.122249	0.716664
C196	C	1.659584	0.127751	0.966664
C197	C	0.829040	-0.669220	0.274067
C198	C	1.079040	-0.419220	0.524067
C199	C	1.329040	-0.169220	0.774067
C200	C	1.579040	0.080780	1.024067
C201	C	0.829026	-0.622299	0.274062
C202	C	1.079026	-0.372299	0.524062
C203	C	1.329026	-0.122299	0.774062
C204	C	1.579026	0.127701	1.024062
C205	C	0.869300	-0.598812	0.245361
C206	C	1.119300	-0.348812	0.495361
C207	C	1.369300	-0.098812	0.745361
C208	C	1.619300	0.151188	0.995361
C209	C	0.869268	-0.551905	0.245350
C210	C	1.119268	-0.301905	0.495350
C211	C	1.369268	-0.051905	0.745350
C212	C	1.619268	0.198095	0.995350
N213	N	0.909544	-0.528416	0.216655
N214	N	1.159544	-0.278416	0.466655
N215	N	1.409544	-0.028416	0.716655
N216	N	1.659544	0.221584	0.966655
C217	C	0.949838	-0.551845	0.187963
C218	C	1.199838	-0.301845	0.437963
C219	C	1.449838	-0.051845	0.687963
C220	C	1.699838	0.198155	0.937963
C221	C	0.869447	-0.978854	0.245391
C222	C	1.119447	-0.728854	0.495391
C223	C	1.369447	-0.478854	0.745391
C224	C	1.619447	-0.228854	0.995391
C225	C	0.869464	-1.025772	0.245395
C226	C	1.119464	-0.775772	0.495395
C227	C	1.369464	-0.525772	0.745395
C228	C	1.619464	-0.275772	0.995395
C229	C	0.950038	-1.025711	0.188005
C230	C	1.200038	-0.775711	0.438005
C231	C	1.450038	-0.525711	0.688005
C232	C	1.700038	-0.275711	0.938005
C233	C	0.950016	-0.978793	0.188000
C234	C	1.200016	-0.728793	0.438000
C235	C	1.450016	-0.478793	0.688000
C236	C	1.700016	-0.228793	0.938000
C237	C	0.909723	-0.955365	0.216696
C238	C	1.159723	-0.705365	0.466696
C239	C	1.409723	-0.455365	0.716696
C240	C	1.659723	-0.205365	0.966696
C241	C	0.949788	-0.453319	0.187953
C242	C	1.199788	-0.203319	0.437953
C243	C	1.449788	0.046681	0.687953
C244	C	1.699788	0.296681	0.937953
C245	C	0.949761	-0.406399	0.187948
C246	C	1.199761	-0.156399	0.437948
C247	C	1.449761	0.093601	0.687948
C248	C	1.699761	0.343601	0.937948
C249	C	0.869190	-0.406463	0.245339
C250	C	1.119190	-0.156463	0.495339
C251	C	1.369190	0.093537	0.745339
C252	C	1.619190	0.343537	0.995339
C253	C	0.869215	-0.453379	0.245343
C254	C	1.119215	-0.203379	0.495343
C255	C	1.369215	0.046621	0.745343
C256	C	1.619215	0.296621	0.995343
C257	C	0.909519	-0.476805	0.216648
C258	C	1.159519	-0.226805	0.466648
C259	C	1.409519	0.023195	0.716648
C260	C	1.659519	0.273195	0.966648
O261	O	0.835003	-0.527628	0.269728
O262	O	1.085003	-0.277628	0.519728
O263	O	1.335003	-0.027628	0.769728
O264	O	1.585003	0.222372	1.019728
O265	O	0.984094	-0.527551	0.163563
O266	O	1.234094	-0.277551	0.413563
O267	O	1.484094	-0.027551	0.663563
O268	O	1.734094	0.222449	0.913563
C269	C	0.949923	-0.739509	0.187984
C270	C	1.199923	-0.489509	0.437984
C271	C	1.449923	-0.239509	0.687984
C272	C	1.699923	0.010491	0.937984
C273	C	0.909651	-0.762995	0.216682
C274	C	1.159651	-0.512995	0.466682
C275	C	1.409651	-0.262995	0.716682
C276	C	1.659651	-0.012995	0.966682
C277	C	0.869357	-0.739567	0.245373
C278	C	1.119357	-0.489567	0.495373
C279	C	1.369357	-0.239567	0.745373
C280	C	1.619357	0.010433	0.995373
C281	C	0.909669	-0.809913	0.216685
C282	C	1.159669	-0.559913	0.466685
C283	C	1.409669	-0.309913	0.716685
C284	C	1.659669	-0.059913	0.966685
C285	C	0.949963	-0.833342	0.187993
C286	C	1.199963	-0.583342	0.437993
C287	C	1.449963	-0.333342	0.687993
C288	C	1.699963	-0.083342	0.937993
C289	C	0.990239	-0.809853	0.159298
C290	C	1.240239	-0.559853	0.409298
C291	C	1.490239	-0.309853	0.659298
C292	C	1.740239	-0.059853	0.909298
C293	C	0.990217	-0.762937	0.159292
C294	C	1.240217	-0.512937	0.409292
C295	C	1.490217	-0.262937	0.659292
C296	C	1.740217	-0.012937	0.909292
C297	C	0.829080	-0.763056	0.274069
C298	C	1.079080	-0.513056	0.524069
C299	C	1.329080	-0.263056	0.774069
C300	C	1.579080	-0.013056	1.024069
C301	C	0.829105	-0.809971	0.274072
C302	C	1.079105	-0.559971	0.524072
C303	C	1.329105	-0.309971	0.774072
C304	C	1.579105	-0.059971	1.024072
C305	C	0.869399	-0.833400	0.245380
C306	C	1.119399	-0.583400	0.495380
C307	C	1.369399	-0.333400	0.745380
C308	C	1.619399	-0.083400	0.995380
C309	C	1.073762	-0.216290	0.216709
C310	C	1.323762	0.033710	0.466709
C311	C	1.573762	0.283710	0.716709
C312	C	1.823762	0.533710	0.966709
C313	C	1.143730	-0.216280	0.216731
C314	C	1.393730	0.033720	0.466731
C315	C	1.643730	0.283720	0.716731
C316	C	1.893730	0.533720	0.966731
C317	C	0.909593	-0.216322	0.333835
C318	C	1.159593	0.033678	0.583835
C319	C	1.409593	0.283678	0.833835
C320	C	1.659593	0.533678	1.083835
C321	C	0.909602	-0.216325	0.383770
C322	C	1.159602	0.033675	0.633770
C323	C	1.409602	0.283675	0.883770
C324	C	1.659602	0.533675	1.133770
C325	C	0.909702	-0.099135	0.216689
C326	C	1.159702	0.150865	0.466689
C327	C	1.409702	0.400865	0.716689
C328	C	1.659702	0.650865	0.966689
C329	C	0.909758	-0.049200	0.216703
C330	C	1.159758	0.200800	0.466703
C331	C	1.409758	0.450800	0.716703
C332	C	1.659758	0.700800	0.966703
C333	C	0.909586	-0.216273	0.099934
C334	C	1.159586	0.033727	0.349934
C335	C	1.409586	0.283727	0.599934
C336	C	1.659586	0.533727	0.849934
C337	C	0.909699	-0.216142	0.050000
C338	C	1.159699	0.033858	0.300000
C339	C	1.409699	0.283858	0.550000
C340	C	1.659699	0.533858	0.800000
C341	C	0.869352	-0.244962	0.740336
C342	C	1.119352	0.005038	0.990336
C343	C	1.369352	0.255038	1.240336
C344	C	1.619352	0.505038	1.490336
C345	C	0.869330	-0.245013	0.552663
C346	C	1.119330	0.004987	0.802663
C347	C	1.369330	0.254987	1.052663
C348	C	1.619330	0.504987	1.302663
O349	O	0.835046	-0.269446	0.528381
O350	O	1.085046	-0.019446	0.778381
O351	O	1.335046	0.230554	1.028381
O352	O	1.585046	0.480554	1.278381
N353	N	0.909616	-0.216284	0.529215
N354	N	1.159616	0.033716	0.779215
N355	N	1.409616	0.283716	1.029215
N356	N	1.659616	0.533716	1.279215
C357	C	0.949908	-0.187537	0.552688
C358	C	1.199908	0.062463	0.802688
C359	C	1.449908	0.312463	1.052688
C360	C	1.699908	0.562463	1.302688
O361	O	0.984169	-0.163099	0.528437
O362	O	1.234169	0.086901	0.778437
O363	O	1.484169	0.336901	1.028437
O364	O	1.734169	0.586901	1.278437
C365	C	0.949927	-0.187483	0.740360
C366	C	1.199927	0.062517	0.990360
C367	C	1.449927	0.312517	1.240360
C368	C	1.699927	0.562517	1.490360
C369	C	0.909643	-0.216218	0.763806
C370	C	1.159643	0.033782	1.013806
C371	C	1.409643	0.283782	1.263806
C372	C	1.659643	0.533782	1.513806
C373	C	0.829070	-0.273694	0.763782
C374	C	1.079070	-0.023694	1.013782
C375	C	1.329070	0.226306	1.263782
C376	C	1.579070	0.476306	1.513782
C377	C	0.829079	-0.273682	0.810698
C378	C	1.079079	-0.023682	1.060698
C379	C	1.329079	0.226318	1.310698
C380	C	1.579079	0.476318	1.560698
C381	C	0.869369	-0.244939	0.834167
C382	C	1.119369	0.005061	1.084167
C383	C	1.369369	0.255061	1.334167
C384	C	1.619369	0.505061	1.584167
C385	C	0.909651	-0.216207	0.810721
C386	C	1.159651	0.033793	1.060721
C387	C	1.409651	0.283793	1.310721
C388	C	1.659651	0.533793	1.560721
C389	C	0.990216	-0.158735	0.763832
C390	C	1.240216	0.091265	1.013832
C391	C	1.490216	0.341265	1.263832
C392	C	1.740216	0.591265	1.513832
C393	C	0.990216	-0.158723	0.810753
C394	C	1.240216	0.091277	1.060753
C395	C	1.490216	0.341277	1.310753
C396	C	1.740216	0.591277	1.560753
C397	C	0.949931	-0.187458	0.834199
C398	C	1.199931	0.062542	1.084199
C399	C	1.449931	0.312542	1.334199
C400	C	1.699931	0.562542	1.584199
C401	C	0.949950	-0.187452	0.881106
C402	C	1.199950	0.062548	1.131106
C403	C	1.449950	0.312548	1.381106
C404	C	1.699950	0.562548	1.631106
N405	N	0.909663	-0.216181	0.904555
N406	N	1.159663	0.033819	1.154555
N407	N	1.409663	0.283819	1.404555
N408	N	1.659663	0.533819	1.654555
C409	C	0.869373	-0.244925	0.881085
C410	C	1.119373	0.005075	1.131085
C411	C	1.369373	0.255075	1.381085
C412	C	1.619373	0.505075	1.631085
C413	C	0.949896	-0.187568	0.454157
C414	C	1.199896	0.062432	0.704157
C415	C	1.449896	0.312432	0.954157
C416	C	1.699896	0.562432	1.204157
C417	C	0.949893	-0.187582	0.407239
C418	C	1.199893	0.062418	0.657239
C419	C	1.449893	0.312418	0.907239
C420	C	1.699893	0.562418	1.157239
C421	C	0.869313	-0.245058	0.407218
C422	C	1.119313	0.004942	0.657218
C423	C	1.369313	0.254942	0.907218
C424	C	1.619313	0.504942	1.157218
C425	C	0.869320	-0.245046	0.454137
C426	C	1.119320	0.004954	0.704137
C427	C	1.369320	0.254954	0.954137
C428	C	1.619320	0.504954	1.204137
C429	C	0.909610	-0.216298	0.477605
C430	C	1.159610	0.033702	0.727605
C431	C	1.409610	0.283702	0.977605
C432	C	1.659610	0.533702	1.227605
C433	C	0.869394	-0.244899	0.979611
C434	C	1.119394	0.005101	1.229611
C435	C	1.369394	0.255101	1.479611
C436	C	1.619394	0.505101	1.729611
C437	C	0.869408	-0.244886	1.026531
C438	C	1.119408	0.005114	1.276531
C439	C	1.369408	0.255114	1.526531
C440	C	1.619408	0.505114	1.776531
C441	C	0.949985	-0.187409	1.026548
C442	C	1.199985	0.062591	1.276548
C443	C	1.449985	0.312591	1.526548
C444	C	1.699985	0.562591	1.776548
C445	C	0.949974	-0.187423	0.979632
C446	C	1.199974	0.062577	1.229632
C447	C	1.449974	0.312577	1.479632
C448	C	1.699974	0.562577	1.729632
C449	C	0.909673	-0.216169	0.956165
C450	C	1.159673	0.033831	1.206165
C451	C	1.409673	0.283831	1.456165
C452	C	1.659673	0.533831	1.706165
O453	O	0.984211	-0.163029	0.905417
O454	O	1.234211	0.086971	1.155417
O455	O	1.484211	0.336971	1.405417
O456	O	1.734211	0.586971	1.655417
O457	O	0.835107	-0.269352	0.905344
O458	O	1.085107	-0.019352	1.155344
O459	O	1.335107	0.230648	1.405344
O460	O	1.585107	0.480648	1.655344
C461	C	0.869344	-0.244973	0.693421
C462	C	1.119344	0.005027	0.943421
C463	C	1.369344	0.255027	1.193421
C464	C	1.619344	0.505027	1.443421
C465	C	0.909626	-0.216241	0.669975
C466	C	1.159626	0.033759	0.919975
C467	C	1.409626	0.283759	1.169975
C468	C	1.659626	0.533759	1.419975
C469	C	0.949916	-0.187498	0.693445
C470	C	1.199916	0.062502	0.943445
C471	C	1.449916	0.312502	1.193445
C472	C	1.699916	0.562502	1.443445
C473	C	0.909622	-0.216255	0.623057
C474	C	1.159622	0.033745	0.873057
C475	C	1.409622	0.283745	1.123057
C476	C	1.659622	0.533745	1.373057
C477	C	0.869331	-0.244999	0.599588
C478	C	1.119331	0.005001	0.849588
C479	C	1.369331	0.255001	1.099588
C480	C	1.619331	0.505001	1.349588
C481	C	0.829045	-0.273728	0.623036
C482	C	1.079045	-0.023728	0.873036
C483	C	1.329045	0.226272	1.123036
C484	C	1.579045	0.476272	1.373036
C485	C	0.829053	-0.273717	0.669951
C486	C	1.079053	-0.023717	0.919951
C487	C	1.329053	0.226283	1.169951
C488	C	1.579053	0.476283	1.419951
C489	C	0.990203	-0.158768	0.669996
C490	C	1.240203	0.091232	0.919996
C491	C	1.490203	0.341232	1.169996
C492	C	1.740203	0.591232	1.419996
C493	C	0.990191	-0.158782	0.623081
C494	C	1.240191	0.091218	0.873081
C495	C	1.490191	0.341218	1.123081
C496	C	1.740191	0.591218	1.373081
C497	C	0.949901	-0.187526	0.599611
C498	C	1.199901	0.062474	0.849611
C499	C	1.449901	0.312474	1.099611
C500	C	1.699901	0.562474	1.349611
H501	H	0.149821	-0.268491	0.268761
H502	H	0.399821	-0.018491	0.518761
H503	H	0.649821	0.231509	0.768761
H504	H	0.899821	0.481509	1.018761
H505	H	0.796241	-0.297134	0.603919
H506	H	1.046241	-0.047134	0.853919
H507	H	1.296241	0.202866	1.103919
H508	H	1.546241	0.452866	1.353919
H509	H	0.550693	-0.164127	0.164598
H510	H	0.800693	0.085873	0.414598
H511	H	1.050693	0.335873	0.664598
H512	H	1.300693	0.585873	0.914598
H513	H	0.836603	-0.268287	1.045618
H514	H	1.086603	-0.018287	1.295618
H515	H	1.336603	0.231713	1.545618
H516	H	1.586603	0.481713	1.795618
H517	H	0.669963	-0.164138	0.164568
H518	H	0.919963	0.085862	0.414568
H519	H	1.169963	0.335862	0.664568
H520	H	1.419963	0.585862	0.914568
H521	H	0.550658	-0.268551	0.268655
H522	H	0.800658	-0.018551	0.518655
H523	H	1.050658	0.231449	0.768655
H524	H	1.300658	0.481449	1.018655
H525	H	0.269085	-0.268514	0.268727
H526	H	0.519085	-0.018514	0.518727
H527	H	0.769085	0.231486	0.768727
H528	H	1.019085	0.481486	1.018727
H529	H	0.796273	-0.297080	0.829783
H530	H	1.046273	-0.047080	1.079783
H531	H	1.296273	0.202920	1.329783
H532	H	1.546273	0.452920	1.579783
H533	H	0.982708	-0.164157	0.473261
H534	H	1.232708	0.085843	0.723261
H535	H	1.482708	0.335843	0.973261
H536	H	1.732708	0.585843	1.223261
H537	H	0.149855	-0.164069	0.164700
H538	H	0.399855	0.085931	0.414700
H539	H	0.649855	0.335931	0.664700
H540	H	0.899855	0.585931	0.914700
H541	H	0.796249	-0.297115	0.689037
H542	H	1.046249	-0.047115	0.939037
H543	H	1.296249	0.202885	1.189037
H544	H	1.546249	0.452885	1.439037
H545	H	0.982847	-1.044795	0.164643
H546	H	1.232847	-0.794795	0.414643
H547	H	1.482847	-0.544795	0.664643
H548	H	1.732847	-0.294795	0.914643
H549	H	0.269123	-0.164087	0.164666
H550	H	0.519123	0.085913	0.414666
H551	H	0.769123	0.335913	0.664666
H552	H	1.019123	0.585913	0.914666
H553	H	0.982557	-0.387278	0.164575
H554	H	1.232557	-0.137278	0.414575
H555	H	1.482557	0.112722	0.664575
H556	H	1.732557	0.362722	0.914575
H557	H	0.982609	-0.472387	0.164588
H558	H	1.232609	-0.222387	0.414588
H559	H	1.482609	0.027613	0.664588
H560	H	1.732609	0.277613	0.914588
H561	H	1.022947	-0.603071	0.135906
H562	H	1.272947	-0.353071	0.385906
H563	H	1.522947	-0.103071	0.635906
H564	H	1.772947	0.146929	0.885906
H565	H	0.796269	-0.743984	0.297434
H566	H	1.046269	-0.493984	0.547434
H567	H	1.296269	-0.243984	0.797434
H568	H	1.546269	0.006016	1.047434
H569	H	1.022988	-0.688177	0.135916
H570	H	1.272988	-0.438177	0.385916
H571	H	1.522988	-0.188177	0.635916
H572	H	1.772988	0.061823	0.885916
H573	H	0.982812	-0.959673	0.164630
H574	H	1.232812	-0.709673	0.414630
H575	H	1.482812	-0.459673	0.664630
H576	H	1.732812	-0.209673	0.914630
H577	H	0.836663	-1.044891	0.268761
H578	H	1.086663	-0.794891	0.518761
H579	H	1.336663	-0.544891	0.768761
H580	H	1.586663	-0.294891	1.018761
H581	H	1.023002	-0.135383	0.603995
H582	H	1.273002	0.114617	0.853995
H583	H	1.523002	0.364617	1.103995
H584	H	1.773002	0.614617	1.353995
H585	H	0.836634	-0.959782	0.268760
H586	H	1.086634	-0.709782	0.518760
H587	H	1.336634	-0.459782	0.768760
H588	H	1.586634	-0.209782	1.018760
H589	H	0.836572	-0.268303	0.960510
H590	H	1.086572	-0.018303	1.210510
H591	H	1.336572	0.231697	1.460510
H592	H	1.586572	0.481697	1.710510
H593	H	0.796241	-0.688335	0.297436
H594	H	1.046241	-0.438335	0.547436
H595	H	1.296241	-0.188335	0.797436
H596	H	1.546241	0.061665	1.047436
H597	H	0.796215	-0.603226	0.297431
H598	H	1.046215	-0.353226	0.547431
H599	H	1.296215	-0.103226	0.797431
H600	H	1.546215	0.146774	1.047431
H601	H	0.836422	-0.472503	0.268714
H602	H	1.086422	-0.222503	0.518714
H603	H	1.336422	0.027497	0.768714
H604	H	1.586422	0.277497	1.018714
H605	H	0.836516	-0.268444	0.473223
H606	H	1.086516	-0.018444	0.723223
H607	H	1.336516	0.231556	0.973223
H608	H	1.586516	0.481556	1.223223
H609	H	0.836381	-0.387380	0.268699
H610	H	1.086381	-0.137380	0.518699
H611	H	1.336381	0.112620	0.768699
H612	H	1.586381	0.362620	1.018699
H613	H	1.023012	-0.743818	0.135922
H614	H	1.273012	-0.493818	0.385922
H615	H	1.523012	-0.243818	0.635922
H616	H	1.773012	0.006182	0.885922
H617	H	1.023046	-0.828937	0.135935
H618	H	1.273046	-0.578937	0.385935
H619	H	1.523046	-0.328937	0.635935
H620	H	1.773046	-0.078937	0.885935
H621	H	0.982703	-0.164188	0.388154
H622	H	1.232703	0.085812	0.638154
H623	H	1.482703	0.335812	0.888154
H624	H	1.732703	0.585812	1.138154
H625	H	0.796303	-0.829090	0.297443
H626	H	1.046303	-0.579090	0.547443
H627	H	1.296303	-0.329090	0.797443
H628	H	1.546303	-0.079090	1.047443
H629	H	0.796257	-0.297100	0.744678
H630	H	1.046257	-0.047100	0.994678
H631	H	1.296257	0.202900	1.244678
H632	H	1.546257	0.452900	1.494678
H633	H	0.982791	-0.164008	1.045665
H634	H	1.232791	0.085992	1.295665
H635	H	1.482791	0.335992	1.545665
H636	H	1.732791	0.585992	1.795665
H637	H	0.836508	-0.268462	0.388101
H638	H	1.086508	-0.018462	0.638101
H639	H	1.336508	0.231538	0.888101
H640	H	1.586508	0.481538	1.138101
H641	H	1.023021	-0.135336	0.744750
H642	H	1.273021	0.114664	0.994750
H643	H	1.523021	0.364664	1.244750
H644	H	1.773021	0.614664	1.494750
H645	H	1.023023	-0.135310	0.829859
H646	H	1.273023	0.114690	1.079859
H647	H	1.523023	0.364690	1.329859
H648	H	1.773023	0.614690	1.579859
H649	H	0.982782	-0.164028	0.960542
H650	H	1.232782	0.085972	1.210542
H651	H	1.482782	0.335972	1.460542
H652	H	1.732782	0.585972	1.710542
H653	H	1.023012	-0.135361	0.689100
H654	H	1.273012	0.114639	0.939100
H655	H	1.523012	0.364639	1.189100
H656	H	1.773012	0.614639	1.439100
H657	H	0.669922	-0.268572	0.268621
H658	H	0.919922	-0.018572	0.518621
H659	H	1.169922	0.231428	0.768621
H660	H	1.419922	0.481428	1.018621
