data_functionalizedCrystal
_audit_creation_method	'MofGen! by Chris Wilmer'
_symmetry_space_group_name_H-M	'P1'
_symmetry_Int_Tables_number	1
_symmetry_cell_setting	triclinic
loop_
_symmetry_equiv_pos_as_xyz
  x,y,z
_cell_length_a	16.992694
_cell_length_b	11.792241
_cell_length_c	16.053802
_cell_angle_alpha	92.583059
_cell_angle_beta	87.249047
_cell_angle_gamma	87.430819
loop_
_atom_site_label
_atom_site_type_symbol
_atom_site_fract_x
_atom_site_fract_y
_atom_site_fract_z
O1	O	1.044699	0.236280	-0.069325
O2	O	1.544699	0.736280	0.430675
O3	O	0.816403	0.233637	-0.069350
O4	O	1.316403	0.733637	0.430650
O5	O	0.936091	0.070242	-0.069331
O6	O	1.436091	0.570242	0.430669
O7	O	0.925011	0.399675	-0.069344
O8	O	1.425011	0.899675	0.430656
O9	O	0.929503	0.079196	0.069527
O10	O	1.429503	0.579196	0.569527
O11	O	0.809815	0.242591	0.069508
O12	O	1.309815	0.742591	0.569508
O13	O	1.038111	0.245234	0.069533
O14	O	1.538111	0.745234	0.569533
Zn15	Zn	0.922917	0.245334	0.091567
Zn16	Zn	1.422917	0.745334	0.591567
Zn17	Zn	0.931597	0.233537	-0.091384
Zn18	Zn	1.431597	0.733537	0.408616
O19	O	0.918423	0.408630	0.069514
O20	O	1.418423	0.908630	0.569514
C21	C	0.783882	0.234716	0.000076
C22	C	1.283882	0.734716	0.500076
C23	C	0.696796	0.224578	0.000067
C24	C	1.196796	0.724578	0.500067
C25	C	0.932101	0.032371	0.000098
C26	C	1.432101	0.532371	0.500098
C27	C	0.930018	-0.093813	0.000097
C28	C	1.430018	0.406187	0.500097
C29	C	0.646971	0.322395	0.000064
C30	C	1.146971	0.822395	0.500064
C31	C	0.565143	0.312864	0.000076
C32	C	1.065143	0.812864	0.500076
C33	C	0.533142	0.205513	0.000085
C34	C	1.033142	0.705513	0.500085
C35	C	0.582973	0.107688	0.000091
C36	C	1.082973	0.607688	0.500091
C37	C	0.664799	0.117221	0.000085
C38	C	1.164799	0.617221	0.500085
C39	C	0.289375	0.166002	0.000109
C40	C	0.789375	0.666002	0.500109
C41	C	0.207543	0.156476	0.000112
C42	C	0.707543	0.656476	0.500112
C43	C	0.189719	0.361652	0.000099
C44	C	0.689719	0.861652	0.500099
C45	C	0.271548	0.371176	0.000088
C46	C	0.771548	0.871176	0.500088
C47	C	0.321371	0.273351	0.000098
C48	C	0.821371	0.773351	0.500098
N49	N	0.449501	0.195767	0.000094
N50	N	0.949501	0.695767	0.500094
N51	N	0.405010	0.283098	0.000095
N52	N	0.905010	0.783098	0.500095
C53	C	0.926188	-0.324840	0.000082
C54	C	1.426188	0.175160	0.500082
C55	C	0.928316	-0.196280	0.000090
C56	C	1.428316	0.303720	0.500090
C57	C	1.070632	0.244155	0.000105
C58	C	1.570632	0.744155	0.500105
C59	C	1.157719	0.254293	0.000109
C60	C	1.657719	0.754293	0.500109
C61	C	0.922413	0.446500	0.000084
C62	C	1.422413	0.946500	0.500084
C63	C	0.924497	0.572684	0.000079
C64	C	1.424497	1.072684	0.500079
N65	N	0.916999	0.253386	0.216427
N66	N	1.416999	0.753386	0.716427
N67	N	0.937521	0.225477	-0.216243
N68	N	1.437521	0.725477	0.283757
C69	C	0.967945	0.183889	0.260129
C70	C	1.467945	0.683889	0.760129
C71	C	0.963812	0.189532	0.347535
C72	C	1.463812	0.689532	0.847535
C73	C	0.908737	0.264679	0.391237
C74	C	1.408737	0.764679	0.891237
C75	C	0.857785	0.334179	0.347529
C76	C	1.357785	0.834179	0.847529
C77	C	0.861915	0.328529	0.260125
C78	C	1.361915	0.828529	0.760125
C79	C	0.890699	0.289327	0.652644
C80	C	1.390699	0.789327	1.152644
C81	C	0.886575	0.294974	0.740055
C82	C	1.386575	0.794974	1.240055
C83	C	0.992602	0.150325	0.740054
C84	C	1.492602	0.650325	1.240054
C85	C	0.996729	0.144687	0.652648
C86	C	1.496729	0.644687	1.152648
C87	C	0.945775	0.214182	0.608948
C88	C	1.445775	0.714182	1.108948
N89	N	0.904513	0.270452	0.480580
N90	N	1.404513	0.770452	0.980580
N91	N	0.949996	0.208403	0.519606
N92	N	1.449996	0.708403	1.019606
H93	H	0.673020	0.409812	0.000056
H94	H	1.173020	0.909812	0.500056
Br95	Br	1.042700	0.081907	0.200827
Br96	Br	1.542700	0.581907	0.700827
H97	H	1.041576	0.083496	0.617067
H98	H	1.541576	0.583496	1.117067
H99	H	1.034085	0.093744	0.775643
H100	H	1.534085	0.593744	1.275643
Br101	Br	0.314973	0.516871	0.000066
Br102	Br	0.814973	1.016871	0.500066
Br103	Br	0.122099	0.494406	0.000086
Br104	Br	0.622099	0.994406	0.500086
Br105	Br	0.164113	0.010777	0.000142
Br106	Br	0.664113	0.510777	0.500142
Br107	Br	0.356982	0.033239	0.000125
Br108	Br	0.856982	0.533239	0.500125
Br109	Br	1.032951	0.095210	0.406847
Br110	Br	1.532951	0.595210	0.906847
H111	H	0.841724	0.356172	0.775633
H112	H	1.341724	0.856172	1.275633
H113	H	0.812938	0.395361	0.383117
H114	H	1.312938	0.895361	0.883117
H115	H	0.849212	0.345915	0.617070
H116	H	1.349212	0.845915	1.117070
Br117	Br	0.539543	-0.038004	0.000111
Br118	Br	1.039543	0.461996	0.500111
Br119	Br	0.732419	-0.015536	0.000096
Br120	Br	1.232419	0.484464	0.500096
H121	H	0.524579	0.392517	0.000072
H122	H	1.024579	0.892517	0.500072
Br123	Br	0.792765	0.422843	0.200815
Br124	Br	1.292765	0.922843	0.700815
