data_functionalizedCrystal
_audit_creation_method	'MofGen! by Chris Wilmer'
_symmetry_space_group_name_H-M	'P1'
_symmetry_Int_Tables_number	1
_symmetry_cell_setting	triclinic
loop_
_symmetry_equiv_pos_as_xyz
  x,y,z
_cell_length_a	19.288864
_cell_length_b	13.339070
_cell_length_c	17.766277
_cell_angle_alpha	89.997794
_cell_angle_beta	89.976791
_cell_angle_gamma	99.382770
loop_
_atom_site_label
_atom_site_type_symbol
_atom_site_fract_x
_atom_site_fract_y
_atom_site_fract_z
O1	O	0.945924	0.126087	-0.062840
O2	O	1.445924	0.626087	0.437160
O3	O	0.746977	0.143096	-0.062789
O4	O	1.246977	0.643096	0.437211
O5	O	0.823618	-0.012568	-0.062806
O6	O	1.323618	0.487432	0.437194
O7	O	0.869283	0.281751	-0.062822
O8	O	1.369283	0.781751	0.437178
O9	O	0.823598	-0.012576	0.062383
O10	O	1.323598	0.487424	0.562383
O11	O	0.746957	0.143088	0.062400
O12	O	1.246957	0.643088	0.562400
O13	O	0.945903	0.126079	0.062349
O14	O	1.445903	0.626079	0.562349
Cu15	Cu	0.846428	0.134583	0.073805
Cu16	Cu	1.346428	0.634583	0.573805
Cu17	Cu	0.846452	0.134592	-0.074245
Cu18	Cu	1.346452	0.634592	0.425755
O19	O	0.869263	0.281743	0.062366
O20	O	1.369263	0.781743	0.562366
C21	C	0.720984	0.142544	-0.000188
C22	C	1.220984	0.642544	0.499812
C23	C	0.643560	0.140901	-0.000168
C24	C	1.143560	0.640901	0.499832
C25	C	0.616663	0.232238	-0.000185
C26	C	1.116663	0.732238	0.499815
C27	C	0.543915	0.230694	-0.000193
C28	C	1.043915	0.730694	0.499807
C29	C	0.498067	0.137809	-0.000200
C30	C	0.998067	0.637809	0.499800
C31	C	0.524972	0.046461	-0.000178
C32	C	1.024972	0.546461	0.499822
C33	C	0.597719	0.048007	-0.000163
C34	C	1.097719	0.548007	0.499837
C35	C	0.375583	0.064794	-0.044080
C36	C	0.875583	0.564794	0.455920
C37	C	0.302838	0.063252	-0.044100
C38	C	0.802838	0.563252	0.455900
C39	C	0.273691	0.133037	-0.000245
C40	C	0.773691	0.633037	0.499755
C41	C	0.317301	0.204382	0.043621
C42	C	0.817301	0.704382	0.543621
C43	C	0.390047	0.205928	0.043637
C44	C	0.890047	0.705928	0.543637
C45	C	0.419184	0.136123	-0.000216
C46	C	0.919184	0.636123	0.499784
C47	C	0.167913	0.222706	-0.000270
C48	C	0.667913	0.722706	0.499730
C49	C	0.095163	0.221159	-0.000273
C50	C	0.595163	0.721159	0.499727
C51	C	0.076222	0.036923	-0.000266
C52	C	0.576222	0.536923	0.499734
C53	C	0.148970	0.038473	-0.000255
C54	C	0.648970	0.538473	0.499745
C55	C	0.194812	0.131367	-0.000260
C56	C	0.694812	0.631367	0.499740
C57	C	0.815894	-0.050226	-0.000211
C58	C	1.315894	0.449774	0.499789
C59	C	0.792901	-0.162423	-0.000208
C60	C	1.292901	0.337577	0.499792
C61	C	0.971681	-0.528031	-0.000253
C62	C	1.471681	-0.028031	0.499747
C63	C	0.993286	-0.422617	-0.000252
C64	C	1.493286	0.077383	0.499748
C65	C	0.943192	-0.357563	-0.000241
C66	C	1.443192	0.142437	0.499759
C67	C	0.871489	-0.397934	-0.000231
C68	C	1.371489	0.102066	0.499769
C69	C	0.849881	-0.503359	-0.000227
C70	C	1.349881	-0.003359	0.499773
C71	C	0.821392	-0.332891	-0.000215
C72	C	1.321392	0.167109	0.499785
C73	C	0.749689	-0.373262	-0.000205
C74	C	1.249689	0.126738	0.499795
C75	C	0.728085	-0.478677	-0.000201
C76	C	1.228085	0.021323	0.499799
C77	C	0.778180	-0.543730	-0.000212
C78	C	1.278180	-0.043730	0.499788
C79	C	0.842999	-0.227467	-0.000219
C80	C	1.342999	0.272533	0.499781
C81	C	0.721199	-0.202795	-0.000193
C82	C	1.221199	0.297205	0.499807
C83	C	0.699594	-0.308209	-0.000195
C84	C	1.199594	0.191791	0.499805
C85	C	0.971897	0.126630	-0.000254
C86	C	1.471897	0.626630	0.499746
C87	C	1.049320	0.128273	-0.000278
C88	C	1.549320	0.628273	0.499722
C89	C	0.876987	0.319401	-0.000231
C90	C	1.376987	0.819401	0.499769
C91	C	0.899980	0.431598	-0.000238
C92	C	1.399980	0.931598	0.499762
N93	N	0.846416	0.134575	0.177935
N94	N	1.346416	0.634575	0.677935
N95	N	0.846468	0.134591	-0.178375
N96	N	1.346468	0.634591	0.321625
C97	C	0.880375	0.065681	0.217315
C98	C	1.380375	0.565681	0.717315
C99	C	0.880378	0.065676	0.296116
C100	C	1.380378	0.565676	0.796116
C101	C	0.846433	0.134583	0.335536
C102	C	1.346433	0.634583	0.835536
C103	C	0.812467	0.203483	0.296147
C104	C	1.312467	0.703483	0.796147
C105	C	0.812459	0.203479	0.217347
C106	C	1.312459	0.703479	0.717347
C107	C	0.855080	0.226676	0.460370
C108	C	1.355080	0.726676	0.960370
C109	C	0.855093	0.226682	0.539169
C110	C	1.355093	0.726682	1.039169
C111	C	0.846454	0.134595	0.578582
C112	C	1.346454	0.634595	1.078582
C113	C	0.837815	0.042500	0.539187
C114	C	1.337815	0.542500	1.039187
C115	C	0.837807	0.042496	0.460387
C116	C	1.337807	0.542496	0.960387
C117	C	0.846437	0.134595	0.420982
C118	C	1.346437	0.634595	0.920982
C119	C	0.880417	0.065690	0.703408
C120	C	1.380417	0.565690	1.203408
C121	C	0.880415	0.065684	0.782211
C122	C	1.380415	0.565684	1.282211
C123	C	0.812509	0.203500	0.782240
C124	C	1.312509	0.703500	1.282240
C125	C	0.812506	0.203497	0.703438
C126	C	1.312506	0.703497	1.203438
C127	C	0.846463	0.134593	0.664027
C128	C	1.346463	0.634593	1.164027
H129	H	0.293572	0.261207	0.079333
H130	H	0.793572	0.761207	0.579333
H131	H	0.425551	0.264016	0.079357
H132	H	0.925551	0.764016	0.579357
C133	C	0.254873	-0.015215	-0.092354
C134	C	0.754873	0.484785	0.407646
H135	H	0.207374	-0.006133	-0.086091
H136	H	0.707374	0.493867	0.413909
H137	H	0.259907	-0.081834	-0.076927
H138	H	0.759907	0.418166	0.423073
H139	H	0.267741	-0.006071	-0.143820
H140	H	0.767741	0.493929	0.356180
H141	H	0.641212	-0.341094	-0.000186
H142	H	1.141212	0.158906	0.499814
C143	C	0.775113	0.279274	0.174025
C144	C	1.275113	0.779274	0.674025
H145	H	0.779970	0.269402	0.121449
H146	H	1.279970	0.769402	0.621449
H147	H	0.795651	0.346702	0.186929
H148	H	1.295651	0.846702	0.686929
H149	H	0.726674	0.268467	0.186960
H150	H	1.226674	0.768467	0.686960
H151	H	0.760592	-0.629568	-0.000216
H152	H	1.260592	-0.129568	0.499784
H153	H	0.960787	-0.271731	-0.000240
H154	H	1.460787	0.228269	0.499760
H155	H	0.399307	0.007964	-0.079797
H156	H	0.899307	0.507964	0.420203
H157	H	0.784866	0.259601	0.814335
H158	H	1.284866	0.759601	1.314335
H159	H	0.862104	0.301669	0.428287
H160	H	1.362104	0.801669	0.928287
C161	C	0.649215	-0.523088	-0.000186
C162	C	1.149215	-0.023088	0.499814
H163	H	0.643522	-0.595188	-0.000179
H164	H	1.143522	-0.095188	0.499821
H165	H	0.627743	-0.500738	-0.043837
H166	H	1.127743	-0.000738	0.456163
H167	H	0.627726	-0.500748	0.043480
H168	H	1.127726	-0.000748	0.543480
C169	C	0.775131	0.279281	0.339505
C170	C	1.275131	0.779281	0.839505
H171	H	0.780005	0.269424	0.392077
H172	H	1.280005	0.769424	0.892077
H173	H	0.726693	0.268477	0.326621
H174	H	1.226693	0.768477	0.826621
H175	H	0.795670	0.346713	0.326574
H176	H	1.295670	0.846713	0.826574
H177	H	0.680408	-0.149828	-0.000180
H178	H	1.180408	0.350172	0.499820
C179	C	0.178563	-0.061996	-0.000247
C180	C	0.678563	0.438004	0.499753
H181	H	0.228454	-0.047773	-0.000232
H182	H	0.728454	0.452227	0.499768
H183	H	0.162773	-0.100095	-0.043904
H184	H	0.662773	0.399905	0.456096
H185	H	0.162725	-0.100100	0.043413
H186	H	0.662725	0.399900	0.543413
C187	C	0.514320	0.331168	-0.000223
C188	C	1.014320	0.831168	0.499777
H189	H	0.552040	0.386713	-0.000230
H190	H	1.052040	0.886713	0.499770
H191	H	0.486306	0.334403	0.043422
H192	H	0.986306	0.834403	0.543422
H193	H	0.486363	0.334380	-0.043895
H194	H	0.986363	0.834380	0.456105
H195	H	0.908064	0.009577	0.814274
H196	H	1.408064	0.509577	1.314274
H197	H	0.653984	0.307880	-0.000191
H198	H	1.153984	0.807880	0.499809
C199	C	0.775161	0.279293	0.660119
C200	C	1.275161	0.779293	1.160119
H201	H	0.754949	0.320338	0.694880
H202	H	1.254949	0.820338	1.194880
H203	H	0.739261	0.243042	0.629398
H204	H	1.239261	0.743042	1.129398
H205	H	0.808239	0.321276	0.629362
H206	H	1.308239	0.821276	1.129362
C207	C	0.474546	-0.055713	-0.000187
C208	C	0.974546	0.444287	0.499813
H209	H	0.500987	-0.109891	-0.000169
H210	H	1.000987	0.390109	0.499831
H211	H	0.445799	-0.060144	-0.043849
H212	H	0.945799	0.439856	0.456151
H213	H	0.445749	-0.060146	0.043468
H214	H	0.945749	0.439854	0.543468
C215	C	0.218341	0.324884	-0.000268
C216	C	0.718341	0.824884	0.499732
H217	H	0.191900	0.379061	-0.000268
H218	H	0.691900	0.879061	0.499732
H219	H	0.247136	0.329320	-0.043919
H220	H	0.747136	0.829320	0.456081
H221	H	0.247090	0.329312	0.043398
H222	H	0.747090	0.829312	0.543398
C223	C	0.065576	0.321634	-0.000292
C224	C	0.565576	0.821634	0.499708
H225	H	0.103299	0.377176	-0.000300
H226	H	0.603299	0.877176	0.499700
H227	H	0.037569	0.324866	0.043358
H228	H	0.537569	0.824866	0.543358
H229	H	0.037615	0.324856	-0.043959
H230	H	0.537615	0.824856	0.456041
H231	H	0.038893	-0.038706	-0.000318
H232	H	0.538893	0.461294	0.499682
H233	H	1.012460	-0.581006	-0.000256
H234	H	1.512460	-0.081006	0.499744
C235	C	0.917717	-0.010120	0.173966
C236	C	1.417717	0.489880	0.673966
H237	H	0.937937	-0.051159	0.208710
H238	H	1.437937	0.448841	0.708710
H239	H	0.953611	0.026125	0.143201
H240	H	1.453611	0.526125	0.643201
H241	H	0.884633	-0.052110	0.143251
H242	H	1.384633	0.447890	0.643251
H243	H	0.908065	0.009582	0.671317
H244	H	1.408065	0.509582	1.171317
H245	H	0.862132	0.301671	0.571239
H246	H	1.362132	0.801671	1.071239
H247	H	0.901380	-0.194607	-0.000227
H248	H	1.401380	0.305393	0.499773
C249	C	0.627311	-0.052465	-0.000150
C250	C	1.127311	0.447535	0.499850
H251	H	0.677202	-0.038240	-0.000137
H252	H	1.177202	0.461760	0.499863
H253	H	0.611520	-0.090566	-0.043805
H254	H	1.111520	0.409434	0.456195
H255	H	0.611476	-0.090567	0.043513
H256	H	1.111476	0.409433	0.543513
C257	C	1.072152	-0.378210	-0.000260
C258	C	1.572152	0.121790	0.499740
H259	H	1.077845	-0.306110	-0.000251
H260	H	1.577845	0.193890	0.499749
H261	H	1.093648	-0.400547	-0.043918
H262	H	1.593648	0.099453	0.456082
H263	H	1.093617	-0.400564	0.043400
H264	H	1.593617	0.099436	0.543400
C265	C	0.917735	-0.010108	0.339443
C266	C	1.417735	0.489892	0.839443
H267	H	0.937960	-0.051141	0.304685
H268	H	1.437960	0.448859	0.804685
H269	H	0.884666	-0.052090	0.370205
H270	H	1.384666	0.447910	0.870205
H271	H	0.953637	0.026159	0.370159
H272	H	1.453637	0.526159	0.870159
H273	H	0.830771	-0.032491	0.428314
H274	H	1.330771	0.467509	0.928314
H275	H	0.830779	-0.032485	0.571275
H276	H	1.330779	0.467515	1.071275
