data_functionalizedCrystal
_audit_creation_method	'MofGen! by Chris Wilmer'
_symmetry_space_group_name_H-M	'P1'
_symmetry_Int_Tables_number	1
_symmetry_cell_setting	triclinic
loop_
_symmetry_equiv_pos_as_xyz
  x,y,z
_cell_length_a	17.019383
_cell_length_b	17.038272
_cell_length_c	12.503572
_cell_angle_alpha	93.777379
_cell_angle_beta	82.619237
_cell_angle_gamma	87.246883
loop_
_atom_site_label
_atom_site_type_symbol
_atom_site_fract_x
_atom_site_fract_y
_atom_site_fract_z
O1	O	1.062264	0.090156	-0.187479
O2	O	0.832444	0.103920	-0.166245
O3	O	0.945988	-0.016769	-0.176727
O4	O	0.948721	0.210845	-0.176997
O5	O	0.937450	-0.007678	0.002703
O6	O	0.823906	0.113012	0.013185
O7	O	1.053726	0.099247	-0.008049
Cu8	Cu	0.938036	0.106960	0.018951
Cu9	Cu	0.948134	0.096208	-0.193246
O10	O	0.940182	0.219937	0.002433
C11	C	0.798624	0.108121	-0.073800
C12	C	0.710571	0.107084	-0.065664
C13	C	0.939234	-0.041338	-0.086783
C14	C	0.931821	-0.128091	-0.086098
C15	C	0.673850	0.101644	-0.159641
C16	C	0.591114	0.100683	-0.151981
C17	C	0.545100	0.105157	-0.050342
C18	C	0.581826	0.110601	0.043642
C19	C	0.664561	0.111567	0.035981
C20	C	0.295061	0.102492	-0.022317
C21	C	0.212320	0.101523	-0.014662
C22	C	0.221614	0.091607	-0.210286
C23	C	0.304350	0.092569	-0.217938
C24	C	0.341069	0.098017	-0.123954
C25	C	0.460529	0.104173	-0.042510
C26	C	0.425637	0.099007	-0.131788
C27	C	0.999880	-0.178578	-0.092385
C28	C	0.992910	-0.260091	-0.091752
C29	C	0.917882	-0.291114	-0.084823
C30	C	0.849818	-0.240621	-0.078539
C31	C	0.856789	-0.159110	-0.079180
C32	C	0.893257	-0.536738	-0.082563
C33	C	0.886291	-0.618255	-0.081918
C34	C	1.029384	-0.637720	-0.095133
C35	C	1.036347	-0.556206	-0.095768
C36	C	0.968284	-0.505720	-0.089489
C37	C	0.910756	-0.374433	-0.084172
C38	C	0.975411	-0.422403	-0.090148
C39	C	1.087546	0.095046	-0.100497
C40	C	1.175600	0.096083	-0.108640
C41	C	0.946936	0.244506	-0.087514
C42	C	0.954349	0.331258	-0.088205
N43	N	0.930940	0.114521	0.168199
N44	N	0.955236	0.088640	-0.342493
C45	C	0.920502	0.125652	0.388278
C46	C	0.965672	0.077512	0.437435
C47	C	0.959864	0.083705	0.559894
C48	C	0.926309	0.119460	0.265807
H49	H	0.711310	0.097998	-0.242406
H50	H	0.788729	-0.265887	-0.072904
H51	H	0.561220	0.096253	-0.228507
H52	H	0.825190	-0.643510	-0.076258
O53	O	0.348926	0.088248	-0.316756
C54	C	0.298774	0.083216	-0.398063
H55	H	0.236827	0.108734	-0.363788
H56	H	0.295479	0.018879	-0.427683
C57	C	0.408207	0.098818	-0.535263
C58	C	0.332124	0.130165	-0.493169
H59	H	0.428780	0.127775	-0.593932
H60	H	0.441996	0.102205	-0.480486
H61	H	0.405451	0.045204	-0.559938
H62	H	0.334883	0.183774	-0.468482
H63	H	0.298336	0.126788	-0.547944
O64	O	0.185897	0.086464	-0.301543
C65	C	0.133899	0.153296	-0.302546
H66	H	0.153118	0.203714	-0.249066
H67	H	0.070943	0.138590	-0.270555
C68	C	0.112574	0.116137	-0.484784
C69	C	0.136184	0.178062	-0.419106
H70	H	0.113980	0.131412	-0.556684
H71	H	0.147604	0.071109	-0.484108
H72	H	0.060113	0.103888	-0.458112
H73	H	0.188647	0.190304	-0.445771
H74	H	0.101163	0.223093	-0.419790
H75	H	0.174856	0.105189	0.068108
O76	O	1.059101	-0.309020	-0.097811
C77	C	1.126818	-0.264160	-0.104081
H78	H	1.109191	-0.201483	-0.068632
H79	H	1.153661	-0.262840	-0.192261
C80	C	1.209987	-0.378586	-0.083239
C81	C	1.188339	-0.301607	-0.039691
H82	H	1.247938	-0.401686	-0.043525
H83	H	1.164365	-0.408810	-0.079018
H84	H	1.232351	-0.377476	-0.156721
H85	H	1.165966	-0.302719	0.033784
H86	H	1.233958	-0.271384	-0.043898
O87	O	0.700332	0.116742	0.127192
C88	C	0.752303	0.049893	0.128226
H89	H	0.770198	0.023164	0.042023
H90	H	0.721212	0.004563	0.179167
C91	C	0.804922	0.107040	0.282864
C92	C	0.826905	0.074215	0.176987
H93	H	0.850939	0.122041	0.312947
H94	H	0.769906	0.152076	0.282171
H95	H	0.779012	0.069260	0.325302
H96	H	0.852806	0.111998	0.134549
H97	H	0.861928	0.029185	0.177674
H98	H	1.008706	0.031649	0.387549
H99	H	0.877472	0.171513	0.438158
H100	H	0.837834	-0.495641	-0.077450
O101	O	0.330598	0.107748	0.069084
C102	C	0.272240	0.111506	0.160430
H103	H	0.216238	0.084615	0.137065
H104	H	0.257927	0.175636	0.191689
C105	C	0.372256	0.098338	0.278248
C106	C	0.303476	0.065303	0.249552
H107	H	0.391525	0.069842	0.333225
H108	H	0.411574	0.095809	0.216707
H109	H	0.360320	0.151779	0.304291
H110	H	0.315416	0.011867	0.223498
H111	H	0.264161	0.067822	0.311091
H112	H	0.849667	-0.399701	-0.078528
H113	H	1.097444	-0.530953	-0.101409
O114	O	1.095561	-0.686691	-0.101392
C115	C	1.145198	-0.677410	-0.198513
H116	H	1.131387	-0.617027	-0.228078
H117	H	1.134453	-0.725229	-0.262309
C118	C	1.249554	-0.758406	-0.142177
C119	C	1.232595	-0.684241	-0.178484
H120	H	1.303465	-0.762623	-0.129826
H121	H	1.216111	-0.764662	-0.076747
H122	H	1.240594	-0.798247	-0.195346
H123	H	1.241546	-0.644402	-0.125311
H124	H	1.266041	-0.677978	-0.243906
H125	H	0.423056	0.107813	0.040245
O126	O	0.537156	0.115088	0.142401
C127	C	0.550156	0.186026	0.200444
H128	H	0.572535	0.230709	0.141390
H129	H	0.596282	0.174374	0.256892
C130	C	0.444331	0.164016	0.339901
C131	C	0.471811	0.218899	0.267369
H132	H	0.396006	0.184293	0.381187
H133	H	0.435574	0.116222	0.300798
H134	H	0.482777	0.154310	0.386930
H135	H	0.433370	0.228596	0.220333
H136	H	0.480559	0.266696	0.306465
O137	O	1.072727	-0.148359	-0.099256
C138	C	1.085470	-0.106512	-0.192966
H139	H	1.025870	-0.087417	-0.218302
H140	H	1.121185	-0.146024	-0.261054
C141	C	1.204854	-0.056677	-0.138010
C142	C	1.131652	-0.033217	-0.169123
H143	H	1.233345	-0.011467	-0.123306
H144	H	1.196272	-0.084872	-0.074878
H145	H	1.234607	-0.089604	-0.194755
H146	H	1.101897	-0.000299	-0.112373
H147	H	1.140231	-0.005015	-0.232245
O148	O	0.790594	-0.110172	-0.073018
C149	C	0.722877	-0.155032	-0.066792
H150	H	0.737264	-0.214269	-0.034297
H151	H	0.704239	-0.165068	-0.150775
C152	C	0.636982	-0.037703	-0.030352
C153	C	0.654650	-0.110456	0.009569
H154	H	0.594895	-0.010206	0.016747
H155	H	0.682604	-0.007479	-0.034550
H156	H	0.621454	-0.046077	-0.100337
H157	H	0.670187	-0.102081	0.079547
H158	H	0.609030	-0.140678	0.013780
H159	H	0.463105	0.095368	-0.214541
H160	H	1.036501	-0.397141	-0.095813
