data_functionalizedCrystal
_audit_creation_method	'MofGen! by Chris Wilmer'
_symmetry_space_group_name_H-M	'P1'
_symmetry_Int_Tables_number	1
_symmetry_cell_setting	triclinic
loop_
_symmetry_equiv_pos_as_xyz
  x,y,z
_cell_length_a	6.817900
_cell_length_b	10.943624
_cell_length_c	10.943867
_cell_angle_alpha	88.225852
_cell_angle_beta	71.156739
_cell_angle_gamma	108.838799
loop_
_atom_site_label
_atom_site_type_symbol
_atom_site_fract_x
_atom_site_fract_y
_atom_site_fract_z
V1	V	-4.115528	-0.402537	0.178599
O2	O	-4.073202	-0.394889	-0.008617
O3	O	-4.093511	-0.399769	0.354166
O4	O	-4.093490	-0.578103	0.175837
O5	O	-4.073223	-0.215320	0.170946
V6	V	-4.592321	-0.380146	0.156208
O7	O	-4.391548	-0.451653	0.227717
O8	O	-4.766498	-0.331030	0.107090
O9	O	-4.391132	-0.382913	-0.019359
O10	O	-4.752044	-0.387794	0.343425
O11	O	-4.752023	-0.567362	0.163861
O12	O	-4.391153	-0.204579	0.158970
C13	C	-3.944049	-0.620897	0.169488
C14	C	-4.007489	-0.764423	0.168391
C15	C	-3.944077	-0.393415	0.396966
C16	C	-4.007537	-0.392323	0.540494
C17	C	-3.852317	-0.841571	0.161004
C18	C	-4.041696	-0.947552	0.270650
C19	C	-3.931175	-0.914183	0.056802
C20	C	-4.196078	-0.868528	0.278140
C21	C	-4.085477	-0.835135	0.064195
C22	C	-4.274992	-0.941086	0.173873
C23	C	-4.203909	-0.389264	-0.062152
C24	C	-4.119688	-0.390364	-0.205678
C25	C	-4.236980	-0.398403	0.631377
C26	C	-4.234083	-0.501327	0.730484
C27	C	-4.123503	-0.287478	0.697130
C28	C	-4.003849	-0.495350	0.637725
C29	C	-3.893244	-0.281406	0.604349
C30	C	-3.890203	-0.384352	0.703417
C31	C	-4.203936	-0.161779	0.165324
C32	C	-4.119733	-0.018251	0.166414
H33	H	-3.673115	-0.798123	0.155709
C34	C	-3.801724	-0.882985	-0.177610
C35	C	-3.780841	-0.942159	-0.069489
H36	H	-3.708914	-0.900262	-0.255571
H37	H	-3.759159	-0.791365	-0.177418
H38	H	-3.951261	-0.917217	-0.173177
H39	H	-3.631306	-0.907920	-0.073917
H40	H	-3.823393	-1.033798	-0.069682
C41	C	-3.797004	-0.963135	0.381567
C42	C	-4.017616	-1.013639	0.388470
H43	H	-3.782130	-1.003937	0.454298
H44	H	-3.754935	-0.871660	0.382689
H45	H	-3.704335	-0.979579	0.303039
H46	H	-4.110284	-0.997187	0.466995
H47	H	-4.059710	-1.105135	0.387361
H48	H	-4.307478	-0.847976	0.371785
C49	C	-4.611445	-0.521923	0.652822
C50	C	-4.434075	-0.406612	0.588380
H51	H	-4.733112	-0.526996	0.626269
H52	H	-4.653772	-0.522041	0.744480
H53	H	-4.567746	-0.594936	0.631402
H54	H	-4.477769	-0.333598	0.609809
H55	H	-4.391744	-0.406482	0.496702
C56	C	-4.411246	-0.211999	0.820891
C57	C	-4.192691	-0.168876	0.732953
H58	H	-4.453970	-0.138783	0.842997
H59	H	-4.421547	-0.260489	0.897635
H60	H	-4.506448	-0.265956	0.781666
H61	H	-4.097486	-0.114927	0.772182
H62	H	-4.182372	-0.120364	0.656195
C63	C	-4.485838	-0.624981	0.939050
C64	C	-4.429404	-0.626831	0.804396
H65	H	-4.606418	-0.702463	0.984673
H66	H	-4.527135	-0.551158	0.960266
H67	H	-4.362237	-0.620089	0.963532
H68	H	-4.553001	-0.631714	0.779912
H69	H	-4.388117	-0.700674	0.783171
H70	H	-3.744035	-0.378430	0.735038
C71	C	-4.606525	-0.900245	0.187896
C72	C	-4.517058	-0.999476	0.181251
H73	H	-4.755970	-0.936300	0.192464
H74	H	-4.523210	-0.836219	0.112255
H75	H	-4.601100	-0.860933	0.263490
H76	H	-4.522467	-1.038781	0.105650
H77	H	-4.600395	-1.063524	0.256899
C78	C	-4.051185	-0.634447	-0.050611
C79	C	-4.109421	-0.768991	-0.053637
H80	H	-4.065955	-0.593610	-0.123362
H81	H	-3.902143	-0.599092	-0.054355
H82	H	-4.145992	-0.619395	0.027930
H83	H	-4.014603	-0.784043	-0.132174
H84	H	-4.258487	-0.804358	-0.049905
H85	H	-3.952800	-0.583305	0.611364
C86	C	-3.638570	-0.076822	0.620145
C87	C	-3.697973	-0.155903	0.530408
H88	H	-3.518029	0.000666	0.574493
H89	H	-3.596192	-0.122737	0.676246
H90	H	-3.761199	-0.054746	0.670540
H91	H	-3.575348	-0.177988	0.480019
H92	H	-3.740342	-0.109979	0.474284
