data_functionalizedCrystal
_audit_creation_method	'MofGen! by Chris Wilmer'
_symmetry_space_group_name_H-M	'P1'
_symmetry_Int_Tables_number	1
_symmetry_cell_setting	triclinic
loop_
_symmetry_equiv_pos_as_xyz
  x,y,z
_cell_length_a	15.698487
_cell_length_b	23.196402
_cell_length_c	23.196401
_cell_angle_alpha	60.008822
_cell_angle_beta	90.013070
_cell_angle_gamma	60.001335
loop_
_atom_site_label
_atom_site_type_symbol
_atom_site_fract_x
_atom_site_fract_y
_atom_site_fract_z
Zr1	Zr	0.820609	0.631012	-0.075636
O2	O	0.684567	0.751277	-0.167681
O3	O	0.862310	0.510747	-0.047423
O4	O	0.862272	0.631014	-0.167688
O5	O	0.684638	0.631008	0.047456
O6	O	1.002454	0.631017	-0.167689
O7	O	0.684605	0.631010	-0.047416
O8	O	1.002521	0.415881	0.047443
O9	O	0.684571	0.846144	-0.167677
O10	O	0.984715	0.560216	-0.035387
O11	O	0.880124	0.560213	0.035416
O12	O	0.880080	0.701812	-0.106181
O13	O	0.775489	0.701809	-0.035379
Zr14	Zr	1.044235	0.631014	0.075671
Zr15	Zr	1.044182	0.631016	-0.075638
Zr16	Zr	0.820663	0.631010	0.075673
Zr17	Zr	0.820615	0.782315	-0.075629
Zr18	Zr	1.044229	0.479711	0.075664
O19	O	1.002535	0.751279	0.047458
O20	O	1.002458	0.751282	-0.167684
O21	O	0.684643	0.751273	0.047461
O22	O	1.180278	0.510749	0.167716
O23	O	1.180202	0.510752	-0.047426
O24	O	0.862386	0.510744	0.167719
O25	O	1.180207	0.631018	-0.047421
O26	O	1.002572	0.631011	0.167723
O27	O	0.862391	0.631009	0.167724
O28	O	1.180240	0.631016	0.047450
O29	O	0.862281	0.846147	-0.167679
O30	O	1.002563	0.415879	0.167714
O31	O	1.180274	0.415882	0.167712
O32	O	1.180231	0.415884	0.047441
O33	O	0.684613	0.846142	-0.047407
O34	O	0.862324	0.846145	-0.047408
O35	O	0.984765	0.560214	0.106216
O36	O	1.089355	0.560217	0.035413
O37	O	0.984720	0.701813	-0.035381
O38	O	0.880130	0.701810	0.035422
C39	C	0.932415	0.441757	0.000009
C40	C	0.932412	0.377525	0.000006
C41	C	0.987000	0.347356	-0.036954
C42	C	0.987010	0.286995	-0.036949
C43	C	0.932412	0.256817	0.000008
C44	C	0.877821	0.286990	0.036977
C45	C	0.877821	0.347344	0.036976
C46	C	0.840940	0.194786	-0.005265
C47	C	0.840937	0.134437	-0.005269
C48	C	0.932413	0.070662	0.000015
C49	C	1.023892	0.067252	0.005290
C50	C	1.023892	0.127606	0.005289
C51	C	0.932406	0.191372	0.000014
C52	C	0.987017	-0.024958	-0.036941
C53	C	0.987030	-0.085324	-0.036930
C54	C	0.877831	-0.085322	0.036991
C55	C	0.877828	-0.024963	0.036985
C56	C	0.932419	0.005218	0.000015
C57	C	0.652767	0.631008	0.000020
C58	C	0.557854	0.631007	0.000021
C59	C	0.384069	0.631021	0.000015
C60	C	0.480773	0.631017	0.000017
C61	C	1.212078	0.631017	0.000014
C62	C	1.306990	0.631019	0.000013
C63	C	0.932355	0.631016	-0.189247
C64	C	0.932333	0.631017	-0.253482
C65	C	0.932430	0.820269	0.000026
C66	C	0.932433	0.884501	0.000028
C67	C	0.877720	0.704926	-0.320608
C68	C	0.877746	0.704927	-0.380964
C69	C	0.932372	0.631015	-0.374188
C70	C	0.986997	0.557096	-0.307049
C71	C	0.986977	0.557097	-0.246696
C72	C	0.924612	0.574387	-0.441507
C73	C	0.924624	0.574389	-0.501861
C74	C	0.932438	0.631009	-0.560336
C75	C	0.940218	0.687640	-0.558456
C76	C	0.940199	0.687641	-0.498103
C77	C	0.932399	0.631005	-0.439627
C78	C	0.877850	0.704924	-0.692909
C79	C	0.877884	0.704922	-0.753264
C80	C	0.987128	0.557088	-0.679347
C81	C	0.987101	0.557092	-0.618994
C82	C	0.932457	0.631013	-0.625780
C83	C	0.932489	0.631010	0.189282
C84	C	0.932512	0.631009	0.253516
C85	C	1.212070	0.441761	0.000006
C86	C	1.306980	0.377531	0.000003
C87	C	0.932482	0.441754	0.189274
C88	C	0.932502	0.377521	0.253505
C89	C	1.212137	0.441758	0.189271
C90	C	1.307069	0.377527	0.253502
C91	C	0.652708	0.820268	-0.189236
C92	C	0.557775	0.884499	-0.253467
C93	C	0.652775	0.820265	0.000028
C94	C	0.557865	0.884495	0.000032
C95	C	0.932363	0.820272	-0.189239
C96	C	0.932343	0.884505	-0.253471
C97	C	1.296929	0.347367	-0.036963
C98	C	1.386099	0.287025	-0.036980
C99	C	1.485318	0.256842	-0.000028
C100	C	1.495366	0.287012	0.036938
C101	C	1.406198	0.347358	0.036951
C102	C	0.987132	0.347357	0.320633
C103	C	0.987147	0.287012	0.380991
C104	C	0.932537	0.256828	0.374221
C105	C	0.877899	0.286998	0.307086
C106	C	0.877879	0.347346	0.246729
C107	C	1.406255	0.347365	0.246707
C108	C	1.495463	0.287021	0.307053
C109	C	1.485483	0.256837	0.374193
C110	C	1.386286	0.287005	0.380986
C111	C	1.297081	0.347351	0.320641
C112	C	0.458589	0.914668	-0.246672
C113	C	0.369381	0.975031	-0.307018
C114	C	0.379362	1.005219	-0.374158
C115	C	0.478558	0.975047	-0.380951
C116	C	0.567764	0.914689	-0.320606
C117	C	0.567915	0.914665	0.036991
C118	C	0.478746	0.975024	0.036992
C119	C	0.379527	1.005209	0.000038
C120	C	0.369478	0.975036	-0.036926
C121	C	0.458647	0.914682	-0.036930
C122	C	0.986964	0.914670	-0.246678
C123	C	0.986965	0.975015	-0.307024
C124	C	0.932339	1.005199	-0.374164
C125	C	0.877717	0.975028	-0.380956
C126	C	0.877722	0.914680	-0.320609
H127	H	1.098377	0.124824	0.009586
H128	H	1.031451	0.496909	-0.192036
Br129	Br	1.061114	0.246032	-0.087103
H130	H	0.833356	0.765115	-0.698435
Br131	Br	1.630073	0.246090	0.297817
H132	H	0.486672	0.999633	-0.435624
H133	H	1.216148	0.371941	-0.067062
H134	H	0.648523	0.890126	-0.326147
H135	H	1.558128	0.207698	0.423324
H136	H	1.098384	0.015319	0.009602
H137	H	0.932562	0.207688	0.423373
Br138	Br	0.258522	1.087119	0.000052
H139	H	1.557916	0.207704	-0.000044
H140	H	1.378176	0.262420	0.435660
Br141	Br	1.162475	0.388275	0.329875
Br142	Br	0.950756	0.764494	-0.495551
Br143	Br	1.630029	0.246039	0.087086
H144	H	1.414401	0.371932	0.192044
H145	H	1.377896	0.262468	-0.067082
H146	H	0.288682	0.999622	-0.067013
Br147	Br	1.061097	1.015952	-0.297790
Br148	Br	0.716787	0.139074	-0.012434
H149	H	1.414396	0.371909	0.067057
H150	H	0.450443	0.890093	-0.192009
Br151	Br	1.061261	0.388304	0.329841
H152	H	1.031643	0.262454	0.435649
H153	H	0.833437	0.262413	0.301584
H154	H	0.288620	0.999587	-0.301473
H155	H	0.648696	0.890093	0.067088
H156	H	0.486948	0.999580	0.067095
H157	H	1.031474	0.496915	-0.301536
Br158	Br	0.803576	0.873755	-0.329841
H159	H	0.833241	0.999613	-0.435628
H160	H	0.306716	1.054365	-0.423289
H161	H	0.450449	0.890119	-0.067025
H162	H	1.031447	0.890104	-0.192015
H163	H	1.031454	0.371926	-0.067055
Br164	Br	1.061109	0.016001	-0.087108
Br165	Br	0.803627	0.805240	-0.472077
Br166	Br	1.061118	-0.126267	-0.087098
Br167	Br	0.803734	0.388272	0.155630
H168	H	0.932343	1.054339	-0.423296
H169	H	0.833373	-0.000397	0.067080
Br170	Br	0.716782	0.281334	-0.012437
Br171	Br	0.803734	-0.126273	0.087150
H172	H	0.833368	0.262414	0.067069
H173	H	0.833367	0.371908	0.067074
H174	H	0.833228	0.765118	-0.326140
H175	H	0.833416	0.765111	-0.807923
Br176	Br	0.950819	0.764489	-0.637810
H177	H	0.918283	0.528279	-0.503386
H178	H	1.031568	0.496907	-0.564335
Br179	Br	1.061282	0.456776	-0.670143
H180	H	0.918242	0.528280	-0.393899
