data_functionalizedCrystal
_audit_creation_method	'MofGen! by Chris Wilmer'
_symmetry_space_group_name_H-M	'P1'
_symmetry_Int_Tables_number	1
_symmetry_cell_setting	triclinic
loop_
_symmetry_equiv_pos_as_xyz
  x,y,z
_cell_length_a	17.077404
_cell_length_b	19.805405
_cell_length_c	17.077396
_cell_angle_alpha	89.967516
_cell_angle_beta	89.982756
_cell_angle_gamma	90.026635
loop_
_atom_site_label
_atom_site_type_symbol
_atom_site_fract_x
_atom_site_fract_y
_atom_site_fract_z
Zn1	Zn	1.200018	-0.269454	-0.443825
Zn2	Zn	1.700018	0.230546	0.056175
Zn3	Zn	1.199922	-0.382648	-0.312552
Zn4	Zn	1.699922	0.117352	0.187448
Zn5	Zn	1.068755	-0.269479	-0.312573
Zn6	Zn	1.568755	0.230521	0.187427
Zn7	Zn	1.068710	-0.382606	-0.443776
Zn8	Zn	1.568710	0.117394	0.056224
O9	O	1.134351	-0.326047	-0.378182
O10	O	1.634351	0.173953	0.121818
O11	O	1.309852	-0.284476	-0.426424
O12	O	1.809852	0.215524	0.073576
O13	O	1.182501	-0.367664	-0.202708
O14	O	1.682501	0.132336	0.297292
O15	O	1.086226	-0.174759	-0.330014
O16	O	1.586226	0.325241	0.169986
O17	O	1.309782	-0.367640	-0.329978
O18	O	1.809782	0.132360	0.170022
O19	O	1.182665	-0.174740	-0.426444
O20	O	1.682665	0.325260	0.073556
O21	O	1.086133	-0.284519	-0.202724
O22	O	1.586133	0.215481	0.297276
O23	O	0.958902	-0.284479	-0.329966
O24	O	1.458902	0.215521	0.170034
O25	O	1.086149	-0.367568	-0.553629
O26	O	1.586149	0.132432	-0.053629
O27	O	0.958869	-0.367593	-0.426360
O28	O	1.458869	0.132407	0.073640
O29	O	1.182621	-0.284435	-0.553666
O30	O	1.682621	0.215565	-0.053666
O31	O	1.182457	-0.477359	-0.329930
O32	O	1.682457	0.022641	0.170070
O33	O	1.086056	-0.477329	-0.426339
O34	O	1.586056	0.022671	0.073661
C35	C	0.930403	-0.326035	-0.378160
C36	C	1.430403	0.173965	0.121840
C37	C	0.843153	-0.326046	-0.378169
C38	C	1.343153	0.173954	0.121831
C39	C	1.134263	-0.501903	-0.378144
C40	C	1.634263	-0.001903	0.121856
C41	C	1.134297	-0.577135	-0.378154
C42	C	1.634297	-0.077135	0.121846
C43	C	0.802167	-0.369388	-0.428281
C44	C	1.302167	0.130612	0.071719
C45	C	0.720186	-0.369390	-0.428294
C46	C	1.220186	0.130610	0.071706
C47	C	0.679194	-0.326051	-0.378190
C48	C	1.179194	0.173949	0.121810
C49	C	0.720187	-0.282704	-0.328076
C50	C	1.220187	0.217296	0.171924
C51	C	0.802166	-0.282699	-0.328068
C52	C	1.302166	0.217301	0.171932
C53	C	0.549317	-0.282717	-0.328095
C54	C	1.049317	0.217283	0.171905
C55	C	0.467332	-0.282722	-0.328102
C56	C	0.967332	0.217278	0.171898
C57	C	0.467337	-0.369408	-0.428321
C58	C	0.967337	0.130592	0.071679
C59	C	0.549316	-0.369403	-0.428313
C60	C	1.049316	0.130597	0.071687
C61	C	0.590303	-0.326056	-0.378197
C62	C	1.090303	0.173944	0.121803
C63	C	1.184542	-0.612472	-0.328006
C64	C	1.684542	-0.112472	0.171994
C65	C	1.184575	-0.683161	-0.328023
C66	C	1.684575	-0.183161	0.171977
C67	C	1.134359	-0.718510	-0.378185
C68	C	1.634359	-0.218510	0.121815
C69	C	1.084112	-0.683168	-0.428338
C70	C	1.584112	-0.183168	0.071662
C71	C	1.084083	-0.612481	-0.428324
C72	C	1.584083	-0.112481	0.071676
C73	C	1.084228	-0.968241	-0.428397
C74	C	1.584228	-0.468241	0.071603
C75	C	1.084259	-1.038933	-0.428405
C76	C	1.584259	-0.538933	0.071595
C77	C	1.184720	-1.038921	-0.328095
C78	C	1.684720	-0.538921	0.171905
C79	C	1.184691	-0.968234	-0.328081
C80	C	1.684691	-0.468234	0.171919
C81	C	1.134447	-0.932898	-0.378237
C82	C	1.634447	-0.432898	0.121763
C83	C	1.134413	-0.856249	-0.378219
C84	C	1.634413	-0.356249	0.121781
C85	C	1.134389	-0.795157	-0.378200
C86	C	1.634389	-0.295157	0.121800
C87	C	1.339095	-0.326060	-0.378204
C88	C	1.839095	0.173940	0.121796
C89	C	1.426345	-0.326065	-0.378213
C90	C	1.926345	0.173935	0.121787
C91	C	1.134391	-0.325994	-0.582926
C92	C	1.634391	0.174006	-0.082926
C93	C	1.134407	-0.325972	-0.670176
C94	C	1.634407	0.174028	-0.170176
C95	C	1.134461	-0.149504	-0.378237
C96	C	1.634461	0.350496	0.121763
C97	C	1.134508	-0.074272	-0.378261
C98	C	1.634508	0.425728	0.121739
C99	C	1.084244	-0.282673	-0.711174
C100	C	1.584244	0.217327	-0.211174
C101	C	1.084257	-0.282658	-0.793154
C102	C	1.584257	0.217342	-0.293154
C103	C	1.134438	-0.325938	-0.834135
C104	C	1.634438	0.174062	-0.334135
C105	C	1.184603	-0.369242	-0.793132
C106	C	1.684603	0.130758	-0.293132
C107	C	1.184586	-0.369260	-0.711153
C108	C	1.684586	0.130740	-0.211153
C109	C	1.184637	-0.369200	-0.964002
C110	C	1.684637	0.130800	-0.464002
C111	C	1.184656	-0.369181	-1.045987
C112	C	1.684656	0.130819	-0.545987
C113	C	1.084308	-0.282597	-1.046003
C114	C	1.584308	0.217403	-0.546003
C115	C	1.084291	-0.282616	-0.964024
C116	C	1.584291	0.217384	-0.464024
C117	C	1.134458	-0.325918	-0.923026
C118	C	1.634458	0.174082	-0.423026
C119	C	1.134357	-0.326050	-0.174234
C120	C	1.634357	0.173950	0.325766
C121	C	1.134492	-0.325882	-0.086984
C122	C	1.634492	0.174118	0.413016
H123	H	0.686818	-0.404685	-0.469099
H124	H	1.186818	0.095315	0.030901
H125	H	1.225518	-0.404423	-1.079352
H126	H	1.725518	0.095577	-0.579352
H127	H	0.433962	-0.404700	-0.469128
H128	H	0.933962	0.095300	0.030872
H129	H	1.225495	-0.404455	-0.930624
H130	H	1.725495	0.095545	-0.430624
C131	C	1.239067	-0.721674	-0.273655
C132	C	1.739067	-0.221674	0.226345
C133	C	1.194764	-0.762406	-0.223321
C134	C	1.694764	-0.262406	0.276679
C135	C	1.244970	-0.797927	-0.173289
C136	C	1.744970	-0.297927	0.326711
H137	H	1.269050	-0.690624	-0.243697
H138	H	1.769050	-0.190624	0.256303
H139	H	1.273189	-0.749201	-0.303822
H140	H	1.773189	-0.249201	0.196178
H141	H	1.160656	-0.734881	-0.193157
H142	H	1.660656	-0.234881	0.306843
H143	H	1.164783	-0.793468	-0.253257
H144	H	1.664783	-0.293468	0.246743
H145	H	1.279091	-0.825454	-0.203456
H146	H	1.779091	-0.325454	0.296544
H147	H	1.274950	-0.766873	-0.143336
H148	H	1.774950	-0.266873	0.356664
H149	H	1.214918	-0.825573	-0.139136
H150	H	1.714918	-0.325573	0.360864
C151	C	1.239309	-1.077166	-0.273559
C152	C	1.739309	-0.577166	0.226441
C153	C	1.283261	-1.031077	-0.229611
C154	C	1.783261	-0.531077	0.270389
C155	C	1.333546	-1.066281	-0.179357
C156	C	1.833546	-0.566281	0.320643
H157	H	1.273577	-1.104699	-0.303534
H158	H	1.773577	-0.604699	0.196466
H159	H	1.209331	-1.104770	-0.239293
H160	H	1.709331	-0.604770	0.260707
H161	H	1.313237	-1.003485	-0.263873
H162	H	1.813237	-0.503485	0.236127
H163	H	1.249014	-1.003543	-0.199620
H164	H	1.749014	-0.503543	0.300380
H165	H	1.303568	-1.093886	-0.145091
H166	H	1.803568	-0.593886	0.354909
H167	H	1.367808	-1.093813	-0.209338
H168	H	1.867808	-0.593813	0.290662
H169	H	1.363368	-1.035016	-0.149527
H170	H	1.863368	-0.535016	0.350473
H171	H	1.043228	-0.711955	-0.469184
H172	H	1.543228	-0.211955	0.030816
H173	H	0.433959	-0.247424	-0.287312
H174	H	0.933959	0.252576	0.212688
C175	C	0.846769	-0.416333	-0.482727
C176	C	1.346769	0.083667	0.017273
C177	C	0.893886	-0.378061	-0.533102
C178	C	1.393886	0.121939	-0.033102
C179	C	0.934990	-0.421282	-0.583265
C180	C	1.434990	0.078718	-0.083265
H181	H	0.810705	-0.442161	-0.512650
H182	H	1.310705	0.057839	-0.012650
H183	H	0.878769	-0.445781	-0.452657
H184	H	1.378769	0.054219	0.047343
H185	H	0.861889	-0.348625	-0.563170
H186	H	1.361889	0.151375	-0.063170
H187	H	0.929965	-0.352234	-0.503202
H188	H	1.429965	0.147766	-0.003202
H189	H	0.966990	-0.450730	-0.553195
H190	H	1.466990	0.049270	-0.053195
H191	H	0.898920	-0.447108	-0.613182
H192	H	1.398920	0.052892	-0.113182
H193	H	0.966969	-0.395321	-0.617446
H194	H	1.466969	0.104679	-0.117446
H195	H	1.225440	-0.404513	-0.677774
H196	H	1.725440	0.095487	-0.177774
C197	C	1.239182	-0.416121	-0.837666
C198	C	1.739182	0.083879	-0.337666
C199	C	1.289544	-0.377789	-0.884732
C200	C	1.789544	0.122211	-0.384732
C201	C	1.339842	-0.420950	-0.925758
C202	C	1.839842	0.079050	-0.425758
H203	H	1.209234	-0.445615	-0.869698
H204	H	1.709234	0.054385	-0.369698
H205	H	1.269101	-0.441901	-0.801531
H206	H	1.769101	0.058099	-0.301531
H207	H	1.259628	-0.352021	-0.920862
H208	H	1.759628	0.147979	-0.420862
H209	H	1.319510	-0.348296	-0.852719
H210	H	1.819510	0.151704	-0.352719
H211	H	1.369760	-0.446729	-0.889623
H212	H	1.869760	0.053271	-0.389623
H213	H	1.309887	-0.450442	-0.957785
H214	H	1.809887	0.049558	-0.457785
H215	H	1.374022	-0.394948	-0.957691
H216	H	1.874022	0.105052	-0.457691
C217	C	1.029448	-0.574233	-0.482804
C218	C	1.529448	-0.074233	0.017196
C219	C	0.985463	-0.620318	-0.526724
C220	C	1.485463	-0.120318	-0.026724
C221	C	0.935121	-0.585111	-0.576918
C222	C	1.435121	-0.085111	-0.076918
H223	H	1.059361	-0.546616	-0.517096
H224	H	1.559361	-0.046616	-0.017096
H225	H	0.995209	-0.546713	-0.452762
H226	H	1.495209	-0.046713	0.047238
H227	H	1.019698	-0.647827	-0.556764
H228	H	1.519698	-0.147827	-0.056764
H229	H	0.955534	-0.647937	-0.492453
H230	H	1.455534	-0.147937	0.007547
H231	H	0.900883	-0.557591	-0.546875
H232	H	1.400883	-0.057591	-0.046875
H233	H	0.965041	-0.557494	-0.611204
H234	H	1.465041	-0.057494	-0.111204
H235	H	0.905267	-0.616374	-0.606718
H236	H	1.405267	-0.116374	-0.106718
C237	C	1.029710	-1.077192	-0.482961
C238	C	1.529710	-0.577192	0.017039
C239	C	0.985718	-1.031117	-0.526899
C240	C	1.485718	-0.531117	-0.026899
C241	C	0.935471	-1.066337	-0.577168
C242	C	1.435471	-0.566337	-0.077168
H243	H	0.995466	-1.104812	-0.452997
H244	H	1.495466	-0.604812	0.047003
H245	H	1.059717	-1.104711	-0.517232
H246	H	1.559717	-0.604711	-0.017232
H247	H	0.955714	-1.003610	-0.492633
H248	H	1.455714	-0.503610	0.007367
H249	H	1.019942	-1.003496	-0.556880
H250	H	1.519942	-0.503496	-0.056880
H251	H	0.965478	-1.093856	-0.611439
H252	H	1.465478	-0.593856	-0.111439
H253	H	0.901232	-1.093956	-0.547197
H254	H	1.401232	-0.593956	-0.047197
H255	H	0.905622	-1.035081	-0.606991
H256	H	1.405622	-0.535081	-0.106991
C257	C	0.593682	-0.416483	-0.482795
C258	C	1.093682	0.083517	0.017205
C259	C	0.540244	-0.454433	-0.526700
C260	C	1.040244	0.045567	-0.026700
C261	C	0.581085	-0.497802	-0.576906
C262	C	1.081085	0.002198	-0.076906
H263	H	0.625640	-0.445998	-0.452786
H264	H	1.125640	0.054002	0.047214
H265	H	0.625671	-0.390640	-0.517089
H266	H	1.125671	0.109360	-0.017089
H267	H	0.508268	-0.480274	-0.492410
H268	H	1.008268	0.019726	0.007590
H269	H	0.508284	-0.424936	-0.556725
H270	H	1.008284	0.075064	-0.056725
H271	H	0.613074	-0.471959	-0.611201
H272	H	1.113074	0.028041	-0.111201
H273	H	0.613041	-0.527312	-0.546892
H274	H	1.113041	-0.027312	-0.046892
H275	H	0.544833	-0.523551	-0.606707
H276	H	1.044833	-0.023551	-0.106707
C277	C	0.593677	-0.235635	-0.273592
C278	C	1.093677	0.264365	0.226408
C279	C	0.540234	-0.197698	-0.229694
C280	C	1.040234	0.302302	0.270306
C281	C	0.581070	-0.154332	-0.179467
C282	C	1.081070	0.345668	0.320533
H283	H	0.625690	-0.206112	-0.303583
H284	H	1.125690	0.293888	0.196417
H285	H	0.625610	-0.261480	-0.239292
H286	H	1.125610	0.238520	0.260708
H287	H	0.508314	-0.171855	-0.263989
H288	H	1.008314	0.328145	0.236011
H289	H	0.508219	-0.227203	-0.199687
H290	H	1.008219	0.272797	0.300313
H291	H	0.613003	-0.180177	-0.145168
H292	H	1.113003	0.319823	0.354832
H293	H	0.613081	-0.124814	-0.209465
H294	H	1.113081	0.375186	0.290535
H295	H	0.544815	-0.128591	-0.149672
H296	H	1.044815	0.371409	0.350328
H297	H	1.043316	-0.939476	-0.469234
H298	H	1.543316	-0.439476	0.030766
C299	C	1.239109	-0.574010	-0.273669
C300	C	1.739109	-0.074010	0.226331
C301	C	1.289364	-0.533351	-0.318151
C302	C	1.789364	-0.033351	0.181849
C303	C	1.339638	-0.497907	-0.268122
C304	C	1.839638	0.002093	0.231878
H305	H	1.269112	-0.605106	-0.243789
H306	H	1.769112	-0.105106	0.256211
H307	H	1.209113	-0.546440	-0.239444
H308	H	1.709113	-0.046440	0.260556
H309	H	1.319357	-0.560920	-0.352361
H310	H	1.819357	-0.060920	0.147639
H311	H	1.259382	-0.502244	-0.348029
H312	H	1.759382	-0.002244	0.151971
H313	H	1.309642	-0.470336	-0.233898
H314	H	1.809642	0.029664	0.266102
H315	H	1.369636	-0.529007	-0.238245
H316	H	1.869636	-0.029007	0.261755
H317	H	1.373738	-0.470311	-0.298295
H318	H	1.873738	0.029689	0.201705
H319	H	0.686805	-0.247414	-0.287284
H320	H	1.186805	0.252586	0.212716
H321	H	0.835536	-0.247402	-0.287266
H322	H	1.335536	0.252598	0.212734
H323	H	1.225579	-0.939455	-0.287232
H324	H	1.725579	-0.439455	0.212768
C325	C	1.029628	-0.235767	-0.666724
C326	C	1.529628	0.264233	-0.166724
C327	C	0.951957	-0.250511	-0.686639
C328	C	1.451957	0.249489	-0.186639
C329	C	0.901619	-0.207322	-0.645701
C330	C	1.401619	0.292678	-0.145701
H331	H	1.041040	-0.190263	-0.680142
H332	H	1.541040	0.309737	-0.180142
H333	H	1.036748	-0.241984	-0.612020
H334	H	1.536748	0.258016	-0.112020
H335	H	0.944840	-0.244289	-0.741330
H336	H	1.444840	0.255711	-0.241330
H337	H	0.940520	-0.296007	-0.673218
H338	H	1.440520	0.203993	-0.173218
H339	H	0.908739	-0.213539	-0.590998
H340	H	1.408739	0.286461	-0.090998
H341	H	0.913038	-0.161820	-0.659123
H342	H	1.413038	0.338180	-0.159123
H343	H	0.848914	-0.217324	-0.659202
H344	H	1.348914	0.282676	-0.159202
H345	H	1.043406	-0.247402	-0.826531
H346	H	1.543406	0.252598	-0.326531
C347	C	1.029725	-0.235598	-0.919670
C348	C	1.529725	0.264402	-0.419670
C349	C	0.985780	-0.197684	-0.973118
C350	C	1.485780	0.302316	-0.473118
C351	C	0.935498	-0.154372	-0.932287
C352	C	1.435498	0.345628	-0.432287
H353	H	1.059680	-0.206059	-0.887700
H354	H	1.559680	0.293941	-0.387700
H355	H	0.995459	-0.261481	-0.887694
H356	H	1.495459	0.238519	-0.387694
H357	H	1.020042	-0.171803	-1.005080
H358	H	1.520042	0.328197	-0.505080
H359	H	0.955809	-0.227206	-1.005089
H360	H	1.455809	0.272794	-0.505089
H361	H	0.901232	-0.180255	-0.900311
H362	H	1.401232	0.319745	-0.400311
H363	H	0.965459	-0.124837	-0.900319
H364	H	1.465459	0.375163	-0.400319
H365	H	0.905670	-0.128647	-0.968545
H366	H	1.405670	0.371353	-0.468545
C367	C	1.029855	-0.235668	-1.090652
C368	C	1.529855	0.264332	-0.590652
C369	C	1.040585	-0.244932	-1.171217
C370	C	1.540585	0.255068	-0.671217
C371	C	0.990430	-0.201723	-1.212376
C372	C	1.490430	0.298277	-0.712376
H373	H	1.041312	-0.190164	-1.077337
H374	H	1.541312	0.309836	-0.577337
H375	H	0.977091	-0.245586	-1.077245
H376	H	1.477091	0.254414	-0.577245
H377	H	1.093337	-0.235009	-1.184619
H378	H	1.593337	0.264991	-0.684619
H379	H	1.029123	-0.290427	-1.184556
H380	H	1.529123	0.209573	-0.684556
H381	H	0.937666	-0.211642	-1.198968
H382	H	1.437666	0.288358	-0.698968
H383	H	1.001891	-0.156221	-1.199054
H384	H	1.501891	0.343779	-0.699054
H385	H	0.997699	-0.208007	-1.267043
H386	H	1.497699	0.291993	-0.767043
