data_functionalizedCrystal
_audit_creation_method	'MofGen! by Chris Wilmer'
_symmetry_space_group_name_H-M	'P1'
_symmetry_Int_Tables_number	1
_symmetry_cell_setting	triclinic
loop_
_symmetry_equiv_pos_as_xyz
  x,y,z
_cell_length_a	16.974800
_cell_length_b	17.000371
_cell_length_c	15.455313
_cell_angle_alpha	92.451767
_cell_angle_beta	90.973911
_cell_angle_gamma	79.502746
loop_
_atom_site_label
_atom_site_type_symbol
_atom_site_fract_x
_atom_site_fract_y
_atom_site_fract_z
O1	O	1.042045	0.101447	0.001045
O2	O	0.811770	0.113601	-0.015128
O3	O	0.941205	-0.008310	-0.006031
O4	O	0.912610	0.223358	-0.008052
O5	O	0.933806	-0.001367	0.137711
O6	O	0.804370	0.120543	0.128614
O7	O	1.034645	0.108390	0.144787
Cu8	Cu	0.918832	0.115101	0.149825
Cu9	Cu	0.927583	0.106890	-0.020166
O10	O	0.905210	0.230301	0.135690
C11	C	0.778752	0.116483	0.054684
C12	C	0.691393	0.114717	0.048549
C13	C	0.646322	0.117670	0.124023
C14	C	0.564241	0.115998	0.118260
C15	C	0.527231	0.111379	0.037024
C16	C	0.572308	0.108423	-0.038455
C17	C	0.654389	0.110089	-0.032692
C18	C	0.282181	0.105984	0.011386
C19	C	0.200094	0.104321	0.005629
C20	C	0.192033	0.111894	0.162345
C21	C	0.274114	0.113565	0.168101
C22	C	0.319185	0.110605	0.092622
N23	N	0.443331	0.109672	0.031132
N24	N	0.403085	0.112306	0.098515
C25	C	0.939042	-0.034489	0.065947
C26	C	0.943609	-0.122837	0.066267
C27	C	0.873323	-0.155021	0.061327
C28	C	0.877619	-0.238034	0.061631
C29	C	0.952202	-0.288863	0.066869
C30	C	1.022493	-0.256674	0.071812
C31	C	1.018196	-0.173662	0.071514
C32	C	0.968800	-0.539972	0.068029
C33	C	0.973093	-0.622989	0.068324
C34	C	0.828218	-0.604343	0.058145
C35	C	0.823928	-0.521330	0.057842
C36	C	0.894218	-0.489149	0.062790
C37	C	0.956596	-0.373716	0.067178
C38	C	0.889824	-0.404297	0.062487
C39	C	1.067664	0.105508	0.074973
C40	C	1.155023	0.107274	0.081102
C41	C	0.907374	0.256480	0.063710
C42	C	0.902807	0.344828	0.063384
N43	N	0.912683	0.120875	0.269389
N44	N	0.933739	0.101109	-0.139729
C45	C	0.967688	0.069102	0.318648
C46	C	0.963045	0.073476	0.409130
C47	C	0.903399	0.129628	0.450350
C48	C	0.848388	0.181403	0.401084
C49	C	0.853029	0.177024	0.310604
C50	C	0.883369	0.148506	0.720524
C51	C	0.878734	0.152882	0.811011
C52	C	0.993390	0.044954	0.819051
C53	C	0.998029	0.040584	0.728569
C54	C	0.943015	0.092356	0.679310
N55	N	0.898652	0.134102	0.542837
N56	N	0.947759	0.087877	0.586825
H57	H	0.169962	0.100561	-0.060527
H58	H	0.812590	-0.113641	0.057058
N59	N	1.022377	0.017652	0.462271
H60	H	1.053211	0.049996	0.502096
H61	H	0.992739	-0.015843	0.497833
N62	N	0.515627	0.119180	0.199662
H63	H	0.551635	0.121798	0.252007
H64	H	0.471933	0.168241	0.200279
H65	H	1.075430	-0.147461	0.075539
H66	H	0.155328	0.114302	0.223796
N67	N	0.824030	0.204347	0.667412
H68	H	0.828379	0.261617	0.683509
H69	H	0.836040	0.192991	0.603854
N70	N	0.314020	0.118551	0.255726
H71	H	0.307779	0.070629	0.289672
H72	H	0.372840	0.119188	0.247859
N73	N	0.532398	0.103446	-0.126079
H74	H	0.558251	0.052793	-0.158640
H75	H	0.473564	0.102875	-0.118211
N76	N	0.330777	0.102790	-0.070026
H77	H	0.308447	0.150132	-0.105977
H78	H	0.388382	0.104514	-0.053992
H79	H	1.026036	-0.513780	0.072056
H80	H	0.676448	0.121437	0.190174
N81	N	1.037033	-0.428546	0.072827
H82	H	1.044781	-0.465975	0.019893
H83	H	1.080866	-0.395514	0.075939
N84	N	0.801804	-0.272733	0.056298
H85	H	0.803099	-0.309331	0.002911
H86	H	0.797648	-0.304144	0.109519
N87	N	0.703005	0.106898	-0.114095
H88	H	0.667106	0.103720	-0.166433
H89	H	0.727433	0.156711	-0.115812
H90	H	0.763195	-0.479950	0.053574
N91	N	1.032025	0.008543	0.274193
H92	H	1.066165	-0.023592	0.319132
H93	H	1.006230	-0.028542	0.234718
H94	H	1.046597	-0.005139	0.695010
H95	H	0.830160	0.198611	0.844568
H96	H	1.038179	0.002803	0.859165
H97	H	1.083220	-0.298066	0.076083
N98	N	0.784049	0.241962	0.445537
H99	H	0.789456	0.236882	0.510331
H100	H	0.790044	0.297679	0.430072
N101	N	0.793697	0.232864	0.257475
H102	H	0.798043	0.290135	0.273567
H103	H	0.805715	0.221501	0.193919
N104	N	0.752408	-0.639052	0.052812
H105	H	0.766444	-0.699352	0.053796
H106	H	0.717285	-0.617901	0.103826
H107	H	1.033830	-0.664374	0.072584
N108	N	0.809389	-0.349469	0.056838
H109	H	0.781211	-0.362402	0.001378
H110	H	0.775782	-0.357288	0.107988
