data_functionalizedCrystal
_audit_creation_method	'MofGen! by Chris Wilmer'
_symmetry_space_group_name_H-M	'P1'
_symmetry_Int_Tables_number	1
_symmetry_cell_setting	triclinic
loop_
_symmetry_equiv_pos_as_xyz
  x,y,z
_cell_length_a	12.827893
_cell_length_b	13.897447
_cell_length_c	12.827885
_cell_angle_alpha	89.968996
_cell_angle_beta	89.980728
_cell_angle_gamma	90.019691
loop_
_atom_site_label
_atom_site_type_symbol
_atom_site_fract_x
_atom_site_fract_y
_atom_site_fract_z
Zn1	Zn	1.597640	-0.383964	-0.590840
Zn2	Zn	2.097640	0.116036	-0.090840
Zn3	Zn	1.597521	-0.545290	-0.416096
Zn4	Zn	2.097521	-0.045290	0.083904
Zn5	Zn	1.422881	-0.384012	-0.416113
Zn6	Zn	1.922881	0.115988	0.083887
Zn7	Zn	1.422854	-0.545219	-0.590796
Zn8	Zn	1.922854	-0.045219	-0.090796
O9	O	1.510224	-0.464621	-0.503462
O10	O	2.010224	0.035379	-0.003462
O11	O	1.743860	-0.405374	-0.567671
O12	O	2.243860	0.094626	-0.067671
O13	O	1.574316	-0.523946	-0.269863
O14	O	2.074316	-0.023946	0.230137
O15	O	1.446124	-0.249024	-0.439317
O16	O	1.946124	0.250976	0.060683
O17	O	1.743773	-0.523900	-0.439288
O18	O	2.243773	-0.023900	0.060712
O19	O	1.574518	-0.248989	-0.567687
O20	O	2.074518	0.251011	-0.067687
O21	O	1.446009	-0.405455	-0.269875
O22	O	1.946009	0.094545	0.230125
O23	O	1.276641	-0.405386	-0.439274
O24	O	1.776641	0.094614	0.060726
O25	O	1.446077	-0.523779	-0.737038
O26	O	1.946077	-0.023779	-0.237038
O27	O	1.276621	-0.523825	-0.567613
O28	O	1.776621	-0.023825	-0.067613
O29	O	1.574492	-0.405305	-0.737070
O30	O	2.074492	0.094695	-0.237070
O31	O	1.574290	-0.680263	-0.439245
O32	O	2.074290	-0.180263	0.060755
O33	O	1.445963	-0.680210	-0.567597
O34	O	1.945963	-0.180210	-0.067597
C35	C	1.238714	-0.464604	-0.503442
C36	C	1.738714	0.035396	-0.003442
C37	C	1.122561	-0.464619	-0.503458
C38	C	1.622561	0.035381	-0.003458
C39	C	1.510139	-0.715236	-0.503437
C40	C	2.010139	-0.215236	-0.003437
C41	C	1.510198	-0.822450	-0.503462
C42	C	2.010198	-0.322450	-0.003462
C43	C	0.950689	-0.523194	-0.439864
C44	C	1.450689	-0.023194	0.060136
C45	C	1.070739	-0.523179	-0.439846
C46	C	1.570739	-0.023179	0.060154
C47	C	1.510249	-0.909519	-0.503486
C48	C	2.010249	-0.409519	-0.003486
C49	C	1.510322	-1.018752	-0.503513
C50	C	2.010322	-0.518752	-0.003513
C51	C	1.782794	-0.464640	-0.503482
C52	C	2.282794	0.035360	-0.003482
C53	C	1.898947	-0.464648	-0.503491
C54	C	2.398947	0.035352	-0.003491
C55	C	1.510295	-0.464529	-0.776032
C56	C	2.010295	0.035471	-0.276032
C57	C	1.510325	-0.464489	-0.892185
C58	C	2.010325	0.035511	-0.392185
C59	C	1.510338	-0.213028	-0.503509
C60	C	2.010338	0.286972	-0.003509
C61	C	1.510386	-0.105814	-0.503529
C62	C	2.010386	0.394186	-0.003529
C63	C	1.573876	-0.405853	-0.943986
C64	C	2.073876	0.094147	-0.443986
C65	C	1.573908	-0.405811	-1.064036
C66	C	2.073908	0.094189	-0.564036
C67	C	1.510213	-0.464644	-0.231952
C68	C	2.010213	0.035356	0.268048
C69	C	1.510385	-0.464412	-0.115799
C70	C	2.010385	0.035588	0.384201
H71	H	1.115236	-0.573308	-0.385378
H72	H	1.615236	-0.073308	0.114622
H73	H	1.078071	-0.414496	-0.557938
H74	H	1.578071	0.085504	-0.057938
H75	H	0.906110	-0.573324	-0.385399
H76	H	1.406110	-0.073324	0.114601
H77	H	1.628255	-0.355681	-0.899457
H78	H	2.128255	0.144319	-0.399457
H79	H	1.455935	-0.514652	-0.936713
H80	H	1.955935	-0.014652	-0.436713
O81	O	1.638719	-0.345947	-1.117333
O82	O	2.138719	0.154053	-0.617333
C83	C	1.624335	-0.359242	-1.225331
C84	C	2.124335	0.140758	-0.725331
H85	H	1.543666	-0.390840	-1.240122
H86	H	2.043666	0.109160	-0.740122
H87	H	1.631424	-0.287011	-1.266899
H88	H	2.131424	0.212989	-0.766899
H89	H	1.686280	-0.410625	-1.256303
H90	H	2.186280	0.089375	-0.756303
O91	O	1.445618	-0.524354	-1.062552
O92	O	1.945618	-0.024354	-0.562552
C93	C	1.505133	-0.586643	-0.999432
C94	C	2.005133	-0.086643	-0.499432
H95	H	1.584353	-0.552619	-0.983204
H96	H	2.084353	-0.052619	-0.483204
H97	H	1.462615	-0.599529	-0.922628
H98	H	1.962615	-0.099529	-0.422628
H99	H	1.516554	-0.658147	-1.041420
H100	H	2.016554	-0.158147	-0.541420
H101	H	0.943526	-0.414509	-0.557946
H102	H	1.443526	0.085491	-0.057946
