data_functionalizedCrystal
_audit_creation_method	'MofGen! by Chris Wilmer'
_symmetry_space_group_name_H-M	'P1'
_symmetry_Int_Tables_number	1
_symmetry_cell_setting	triclinic
loop_
_symmetry_equiv_pos_as_xyz
  x,y,z
_cell_length_a	15.944551
_cell_length_b	17.038272
_cell_length_c	14.421503
_cell_angle_alpha	90.004327
_cell_angle_beta	89.996859
_cell_angle_gamma	87.305147
loop_
_atom_site_label
_atom_site_type_symbol
_atom_site_fract_x
_atom_site_fract_y
_atom_site_fract_z
O1	O	1.121728	0.100827	-0.077015
O2	O	0.878066	0.113259	-0.077039
O3	O	0.998449	-0.006773	-0.077020
O4	O	1.001345	0.220859	-0.077034
O5	O	0.998429	-0.006755	0.077204
O6	O	0.878046	0.113277	0.077185
O7	O	1.121708	0.100845	0.077208
Cu8	Cu	0.999875	0.107062	0.091278
Cu9	Cu	0.999899	0.107041	-0.091109
O10	O	1.001325	0.220877	0.077189
C11	C	0.846725	0.112752	0.000070
C12	C	0.753369	0.111205	0.000062
C13	C	0.995805	-0.035893	0.000092
C14	C	0.987945	-0.122688	0.000091
C15	C	0.532936	0.033105	0.000085
C16	C	0.474515	0.069363	-0.075958
C17	C	0.582443	0.108405	0.000073
C18	C	0.474519	0.069398	0.076094
C19	C	0.417337	0.105696	0.000088
C20	C	0.525252	0.144684	-0.076033
C21	C	0.525261	0.144709	0.076088
C22	C	0.466862	0.181022	0.000027
C23	C	0.677557	0.109964	0.000063
C24	C	0.322225	0.104143	0.000090
C25	C	1.060103	-0.172781	0.000098
C26	C	1.052713	-0.254334	0.000089
C27	C	0.973165	-0.285792	0.000078
C28	C	0.901002	-0.235693	0.000068
C29	C	0.908393	-0.154142	0.000071
C30	C	0.947056	-0.531558	0.000063
C31	C	0.939671	-0.613115	0.000063
C32	C	1.091383	-0.631751	0.000083
C33	C	1.098766	-0.550197	0.000091
C34	C	1.026603	-0.500105	0.000075
C35	C	0.965610	-0.369152	0.000071
C36	C	1.034159	-0.416747	0.000076
C37	C	1.153049	0.101352	0.000097
C38	C	1.246405	0.102899	0.000100
C39	C	1.003969	0.249997	0.000076
C40	C	1.011829	0.336792	0.000071
N41	N	0.999865	0.107077	0.219560
N42	N	0.999916	0.107021	-0.219390
C43	C	0.944187	0.162555	0.469205
C44	C	1.021171	0.177734	0.531013
C45	C	0.999884	0.107058	0.408721
C46	C	0.922921	0.091897	0.531006
C47	C	0.999895	0.107042	0.591442
C48	C	1.076908	0.122272	0.469169
C49	C	0.978606	0.036405	0.469156
C50	C	1.055642	0.051554	0.530937
C51	C	0.999876	0.107070	0.303460
C52	C	0.999912	0.107030	0.696701
H53	H	0.561807	-0.029389	-0.000006
O54	O	1.184563	-0.516263	0.000102
H55	H	1.191560	-0.479550	-0.062751
O56	O	0.444868	0.027163	-0.161105
H57	H	0.466121	0.057853	-0.224163
O58	O	0.554739	0.186802	-0.161307
H59	H	0.624305	0.187580	-0.160668
O60	O	0.428860	0.263888	-0.000016
H61	H	0.449244	0.294943	-0.063195
H62	H	1.098927	-0.391130	0.000064
H63	H	1.039179	0.237476	0.558183
O64	O	1.163157	0.139349	0.433354
H65	H	1.162466	0.139253	0.356393
H66	H	0.888296	-0.490782	0.000051
H67	H	0.547656	0.176539	0.140376
O68	O	0.444892	0.027214	0.161258
H69	H	0.471514	-0.034161	0.161095
O70	O	1.145902	-0.138851	0.000101
H71	H	1.194835	-0.187389	0.000093
O72	O	0.815204	-0.269624	0.000054
H73	H	0.766270	-0.221087	0.000040
H74	H	1.111472	-0.295117	0.000097
H75	H	1.150134	-0.672544	0.000093
O76	O	0.853870	-0.647050	0.000041
H77	H	0.804931	-0.598518	0.000020
H78	H	0.849634	-0.113356	0.000064
O79	O	1.118109	-0.010624	0.566623
H80	H	1.084849	-0.053792	0.608975
H81	H	0.900842	-0.394774	0.000065
O82	O	0.954729	-0.042704	0.433125
H83	H	0.890781	-0.055148	0.457845
O84	O	0.881868	0.224763	0.433285
H85	H	0.899741	0.283349	0.458060
O86	O	0.836704	0.074910	0.566988
H87	H	0.790589	0.121064	0.542254
