data_functionalizedCrystal
_audit_creation_method	'MofGen! by Chris Wilmer'
_symmetry_space_group_name_H-M	'P1'
_symmetry_Int_Tables_number	1
_symmetry_cell_setting	triclinic
loop_
_symmetry_equiv_pos_as_xyz
  x,y,z
_cell_length_a	8.559649
_cell_length_b	11.026607
_cell_length_c	7.088929
_cell_angle_alpha	82.408099
_cell_angle_beta	95.325015
_cell_angle_gamma	89.182341
loop_
_atom_site_label
_atom_site_type_symbol
_atom_site_fract_x
_atom_site_fract_y
_atom_site_fract_z
O1	O	2.096118	-0.026458	-0.158957
O2	O	1.648469	0.034577	-0.158966
O3	O	1.835194	-0.169136	-0.158955
O4	O	1.909394	0.177256	-0.158968
O5	O	1.860132	-0.196415	0.159021
O6	O	1.673407	0.007298	0.159011
O7	O	2.121056	-0.053737	0.159019
Cu8	Cu	1.899509	-0.025710	0.188049
Cu9	Cu	1.870017	0.006551	-0.187995
O10	O	1.934332	0.149977	0.159009
C11	C	1.602739	0.025563	0.000021
C12	C	1.429319	0.039332	0.000018
C13	C	1.833974	-0.226711	0.000030
C14	C	1.793166	-0.357621	0.000023
C15	C	1.905841	-0.441927	0.000022
C16	C	1.863667	-0.577231	0.000014
C17	C	2.166786	-0.044723	0.000028
C18	C	2.340205	-0.058490	0.000019
C19	C	1.935551	0.207551	0.000019
C20	C	1.976358	0.338463	0.000014
N21	N	1.920263	-0.048402	0.452538
N22	N	1.849272	0.029232	-0.452485
H23	H	1.735971	-0.605215	-0.000001
O24	O	2.058102	-0.408346	0.000113
C25	C	2.066311	-0.280725	0.000067
H26	H	1.957851	-0.245743	0.060263
H27	H	2.071701	-0.234005	-0.152482
C28	C	2.347720	-0.294650	0.050838
C29	C	2.214514	-0.251686	0.124787
H30	H	2.439141	-0.276735	0.127763
H31	H	2.342191	-0.380630	0.050862
H32	H	2.352190	-0.255712	-0.076285
H33	H	2.210035	-0.290635	0.251897
H34	H	2.220045	-0.165712	0.124787
O35	O	2.007922	-0.144526	0.549735
C36	C	1.944941	-0.254954	0.501009
H37	H	1.873671	-0.236801	0.355635
H38	H	1.865690	-0.293808	0.613644
C39	C	2.167007	-0.369914	0.670559
C40	C	2.079483	-0.347619	0.492001
H41	H	2.249997	-0.427078	0.665010
H42	H	2.209437	-0.295518	0.703394
H43	H	2.100949	-0.402287	0.764403
H44	H	2.145537	-0.315234	0.398166
H45	H	2.037068	-0.422013	0.459150
H46	H	1.396583	-0.152772	0.000013
O47	O	2.128775	-0.628368	-0.000061
C48	C	2.225351	-0.733033	-0.000009
H49	H	2.153061	-0.807612	-0.060215
H50	H	2.275609	-0.767562	0.152543
C51	C	2.449398	-0.608376	-0.050750
C52	C	2.360612	-0.699973	-0.124712
H53	H	2.532837	-0.587984	-0.127665
H54	H	2.384335	-0.537861	-0.050778
H55	H	2.491264	-0.637163	0.076375
H56	H	2.318731	-0.671180	-0.251825
H57	H	2.425671	-0.770483	-0.124708
O58	O	1.761483	0.125305	0.450416
C59	C	1.698804	0.193798	0.581484
H60	H	1.774111	0.176995	0.724213
H61	H	1.573765	0.164472	0.602725
C62	C	1.605025	0.351569	0.327859
C63	C	1.697526	0.330939	0.503156
H64	H	1.604228	0.436163	0.279542
H65	H	1.647247	0.305422	0.239554
H66	H	1.500834	0.327122	0.345584
H67	H	1.801718	0.355371	0.485426
H68	H	1.655321	0.377093	0.591457
H69	H	1.372932	0.133621	0.000004
H70	H	1.665478	-0.385611	0.000008
