data_functionalizedCrystal
_audit_creation_method	'MofGen! by Chris Wilmer'
_symmetry_space_group_name_H-M	'P1'
_symmetry_Int_Tables_number	1
_symmetry_cell_setting	triclinic
loop_
_symmetry_equiv_pos_as_xyz
  x,y,z
_cell_length_a	11.026607
_cell_length_b	15.995350
_cell_length_c	9.482900
_cell_angle_alpha	99.336743
_cell_angle_beta	78.636152
_cell_angle_gamma	96.039196
loop_
_atom_site_label
_atom_site_type_symbol
_atom_site_fract_x
_atom_site_fract_y
_atom_site_fract_z
O1	O	1.629075	0.340363	-0.120882
O2	O	1.275769	0.300437	-0.120885
O3	O	1.462080	0.199968	-0.120882
O4	O	1.442765	0.440832	-0.120885
O5	O	1.424236	0.220481	0.120910
O6	O	1.237926	0.320950	0.120907
O7	O	1.591231	0.360875	0.120910
Cu8	Cu	1.411123	0.342785	0.142986
Cu9	Cu	1.455878	0.318527	-0.142961
O10	O	1.404921	0.461344	0.120907
C11	C	1.211637	0.303328	0.000010
C12	C	1.076923	0.281371	0.000009
C13	C	1.003118	0.341997	0.000007
C14	C	0.863884	0.319305	0.000005
C15	C	1.442360	0.178909	0.000011
C16	C	1.439967	0.085597	0.000003
C17	C	1.431369	-0.253446	0.000008
C18	C	1.298767	-0.226057	-0.000536
C19	C	1.301076	-0.128960	0.000009
C20	C	1.435634	-0.085243	0.000005
C21	C	1.479470	-0.104742	0.138078
C22	C	1.476118	-0.201871	0.138193
C23	C	1.521895	-0.225142	-0.136769
C24	C	1.522149	-0.128356	-0.138594
C25	C	1.438051	0.009819	0.000008
C26	C	1.428954	-0.348507	0.000014
C27	C	1.655364	0.357984	0.000012
C28	C	1.790080	0.379940	0.000004
C29	C	1.424641	0.482403	0.000011
C30	C	1.427036	0.575714	0.000009
N31	N	1.379654	0.359848	0.344106
N32	N	1.487357	0.301459	-0.344081
C33	C	1.446587	0.323554	0.416306
C34	C	1.420413	0.337759	0.583723
H35	H	1.043008	0.410702	0.000014
H36	H	0.824003	0.250594	-0.000031
H37	H	1.302967	0.401433	0.406234
O38	O	0.842893	0.470956	-0.000002
H39	H	0.943966	0.474498	-0.000012
H40	H	1.261230	-0.260983	-0.099551
H41	H	1.523265	0.281962	0.354179
O42	O	1.024102	0.190361	0.000010
H43	H	0.923032	0.186819	-0.000000
H44	H	1.577522	-0.075281	0.143209
H45	H	1.564039	0.259864	0.593796
O46	O	1.253425	-0.112693	-0.131073
H47	H	1.228518	-0.174268	-0.195424
H48	H	1.230558	-0.245256	0.097926
H49	H	1.417932	-0.074495	0.240830
H50	H	1.343722	0.379346	0.645846
O51	O	1.211945	-0.091233	0.131352
H52	H	1.167030	-0.142349	0.194734
H53	H	1.619870	-0.242236	-0.137701
O54	O	1.391496	-0.224056	0.274899
H55	H	1.353343	-0.165447	0.340300
O56	O	1.603845	-0.224442	0.146523
H57	H	1.667729	-0.165999	0.150462
H58	H	1.494892	-0.261099	-0.241421
H59	H	1.490286	-0.116985	-0.240737
O60	O	1.653864	-0.089365	-0.149653
H61	H	1.659749	-0.038425	-0.056113
