data_functionalizedCrystal
_audit_creation_method	'MofGen! by Chris Wilmer'
_symmetry_space_group_name_H-M	'P1'
_symmetry_Int_Tables_number	1
_symmetry_cell_setting	triclinic
loop_
_symmetry_equiv_pos_as_xyz
  x,y,z
_cell_length_a	14.044191
_cell_length_b	14.044220
_cell_length_c	10.268362
_cell_angle_alpha	89.993803
_cell_angle_beta	89.997935
_cell_angle_gamma	93.190327
loop_
_atom_site_label
_atom_site_type_symbol
_atom_site_fract_x
_atom_site_fract_y
_atom_site_fract_z
O1	O	1.277173	0.230201	-0.108243
O2	O	1.610506	0.563534	0.225090
O3	O	1.943839	0.896867	0.558424
O4	O	1.000500	0.221888	-0.108259
O5	O	1.333833	0.555221	0.225074
O6	O	1.667167	0.888555	0.558407
O7	O	1.134684	0.087708	-0.108239
O8	O	1.468017	0.421042	0.225095
O9	O	1.801350	0.754375	0.558428
O10	O	1.142989	0.364380	-0.108264
O11	O	1.476323	0.697713	0.225069
O12	O	1.809656	1.031047	0.558403
O13	O	1.134670	0.087701	0.108362
O14	O	1.468004	0.421035	0.441695
O15	O	1.801337	0.754368	0.775029
O16	O	1.000487	0.221881	0.108341
O17	O	1.333820	0.555214	0.441675
O18	O	1.667154	0.888548	0.775008
O19	O	1.277159	0.230194	0.108358
O20	O	1.610493	0.563527	0.441691
O21	O	1.943826	0.896860	0.775024
Cu22	Cu	1.138822	0.226037	0.128127
Cu23	Cu	1.472155	0.559370	0.461460
Cu24	Cu	1.805489	0.892703	0.794793
Cu25	Cu	1.138838	0.226045	-0.128029
Cu26	Cu	1.472171	0.559378	0.205305
Cu27	Cu	1.805504	0.892712	0.538638
O28	O	1.142976	0.364373	0.108337
O29	O	1.476309	0.697706	0.441670
O30	O	1.809643	1.031040	0.775003
C31	C	0.964872	0.218248	0.000039
C32	C	1.298205	0.551581	0.333372
C33	C	1.631538	0.884914	0.666706
C34	C	0.858728	0.207401	0.000033
C35	C	1.192062	0.540734	0.333367
C36	C	1.525395	0.874067	0.666700
C37	C	0.613270	0.264501	0.000041
C38	C	0.946603	0.597834	0.333374
C39	C	1.279937	0.931168	0.666708
C40	C	0.664395	0.187585	0.000046
C41	C	0.997729	0.520918	0.333379
C42	C	1.331062	0.854251	0.666712
C43	C	0.772532	0.198613	0.000039
C44	C	1.105866	0.531946	0.333372
C45	C	1.439199	0.865280	0.666705
C46	C	0.505123	0.253474	0.000048
C47	C	0.838457	0.586808	0.333381
C48	C	1.171790	0.920141	0.666715
C49	C	1.131041	0.052083	0.000062
C50	C	1.464375	0.385416	0.333395
C51	C	1.797708	0.718750	0.666729
C52	C	1.120197	-0.054060	0.000063
C53	C	1.453530	0.279273	0.333396
C54	C	1.786863	0.612607	0.666730
C55	C	1.100370	-0.248398	0.000043
C56	C	1.433704	0.084935	0.333376
C57	C	1.767037	0.418268	0.666710
C58	C	1.177285	-0.299526	0.000044
C59	C	1.510618	0.033807	0.333377
C60	C	1.843952	0.367140	0.666710
C61	C	1.166253	-0.407663	0.000033
C62	C	1.499587	-0.074329	0.333366
C63	C	1.832920	0.259004	0.666699
C64	C	1.111400	-0.140252	0.000054
C65	C	1.444734	0.193081	0.333388
C66	C	1.778067	0.526415	0.666721
C67	C	1.312788	0.233834	0.000056
C68	C	1.646121	0.567167	0.333390
C69	C	1.979455	0.900500	0.666723
C70	C	1.418931	0.244681	0.000054
C71	C	1.752264	0.578014	0.333387
C72	C	2.085598	0.911348	0.666720
C73	C	1.146618	0.399998	0.000033
C74	C	1.479952	0.733332	0.333367
C75	C	1.813285	1.066665	0.666700
C76	C	1.157463	0.506142	0.000024
C77	C	1.490796	0.839475	0.333357
C78	C	1.824130	1.172808	0.666690
N79	N	1.138818	0.226031	0.308293
N80	N	1.472151	0.559364	0.641626
N81	N	1.805484	0.892697	0.974959
N82	N	1.138849	0.226044	-0.308194
N83	N	1.472182	0.559377	0.025139
N84	N	1.805515	0.892711	0.358472
C85	C	1.138833	0.226043	0.573963
C86	C	1.472166	0.559376	0.907297
C87	C	1.805499	0.892709	1.240630
C88	C	1.138822	0.226039	0.426125
C89	C	1.472155	0.559372	0.759459
C90	C	1.805488	0.892705	1.092792
H91	H	0.650711	0.338628	0.000030
H92	H	0.984045	0.671961	0.333364
H93	H	1.317378	1.005294	0.666697
N94	N	1.275485	-0.249938	0.000082
N95	N	1.608818	0.083395	0.333415
N96	N	1.942151	0.416729	0.666749
H97	H	1.325280	-0.299128	0.000087
H98	H	1.658613	0.034205	0.333421
H99	H	1.991946	0.367539	0.666754
H100	H	1.283412	-0.208711	-0.080205
H101	H	1.616745	0.124623	0.253128
H102	H	1.950078	0.457956	0.586462
N103	N	1.002176	-0.297983	0.000036
N104	N	1.335509	0.035351	0.333369
N105	N	1.668842	0.368684	0.666702
H106	H	1.008116	-0.369323	0.000033
H107	H	1.341449	-0.035989	0.333366
H108	H	1.674783	0.297344	0.666699
H109	H	0.966364	-0.278862	0.080337
H110	H	1.299697	0.054471	0.413670
H111	H	1.633030	0.387804	0.747003
H112	H	0.626952	0.113452	-0.000039
H113	H	0.960285	0.446786	0.333294
H114	H	1.293619	0.780119	0.666628
