data_functionalizedCrystal
_audit_creation_method	'MofGen! by Chris Wilmer'
_symmetry_space_group_name_H-M	'P1'
_symmetry_Int_Tables_number	1
_symmetry_cell_setting	triclinic
loop_
_symmetry_equiv_pos_as_xyz
  x,y,z
_cell_length_a	19.188905
_cell_length_b	19.188930
_cell_length_c	17.666332
_cell_angle_alpha	90.011603
_cell_angle_beta	90.016479
_cell_angle_gamma	83.139668
loop_
_atom_site_label
_atom_site_type_symbol
_atom_site_fract_x
_atom_site_fract_y
_atom_site_fract_z
O1	O	0.926161	0.087086	0.063081
O2	O	1.259494	0.420419	0.396415
O3	O	1.592827	0.753752	0.729748
O4	O	0.722847	0.098838	0.063057
O5	O	1.056180	0.432171	0.396390
O6	O	1.389514	0.765505	0.729723
O7	O	0.830371	-0.008694	0.063055
O8	O	1.163704	0.324639	0.396388
O9	O	1.497038	0.657972	0.729722
O10	O	0.818637	0.194618	0.063083
O11	O	1.151970	0.527951	0.396417
O12	O	1.485303	0.861285	0.729750
O13	O	0.830352	-0.008700	-0.062842
O14	O	1.163686	0.324633	0.270492
O15	O	1.497019	0.657967	0.603825
O16	O	0.722828	0.098832	-0.062840
O17	O	1.056162	0.432166	0.270493
O18	O	1.389495	0.765499	0.603827
O19	O	0.926142	0.087080	-0.062815
O20	O	1.259475	0.420413	0.270518
O21	O	1.592809	0.753747	0.603851
Cu22	Cu	0.824483	0.092956	-0.074323
Cu23	Cu	1.157817	0.426289	0.259010
Cu24	Cu	1.491150	0.759622	0.592344
Cu25	Cu	0.824506	0.092962	0.074565
Cu26	Cu	1.157839	0.426296	0.407898
Cu27	Cu	1.491172	0.759629	0.741231
O28	O	0.818618	0.194612	-0.062814
O29	O	1.151951	0.527946	0.270520
O30	O	1.485285	0.861279	0.603853
C31	C	0.696826	0.098458	0.000105
C32	C	1.030160	0.431791	0.333438
C33	C	1.363493	0.765124	0.666772
C34	C	0.619321	0.097324	0.000095
C35	C	0.952654	0.430657	0.333428
C36	C	1.285987	0.763991	0.666762
C37	C	0.582939	0.096782	0.068723
C38	C	0.916273	0.430116	0.402056
C39	C	1.249606	0.763449	0.735390
C40	C	0.510116	0.095709	0.068732
C41	C	0.843449	0.429043	0.402066
C42	C	1.176782	0.762376	0.735399
C43	C	0.473678	0.095164	0.000110
C44	C	0.807012	0.428497	0.333443
C45	C	1.140345	0.761830	0.666776
C46	C	0.510068	0.095709	-0.068528
C47	C	0.843401	0.429043	0.264806
C48	C	1.176735	0.762376	0.598139
C49	C	0.582889	0.096789	-0.068535
C50	C	0.916223	0.430123	0.264798
C51	C	1.249556	0.763456	0.598132
N52	N	0.364650	0.053733	-0.050966
N53	N	0.697984	0.387066	0.282368
N54	N	1.031317	0.720400	0.615701
N55	N	0.295473	0.052705	-0.050954
N56	N	0.628807	0.386039	0.282379
N57	N	0.962140	0.719372	0.615713
C58	C	0.254272	0.091911	0.000127
C59	C	0.587605	0.425245	0.333461
C60	C	0.920938	0.758578	0.666794
N61	N	0.284861	0.132174	0.051208
N62	N	0.618195	0.465508	0.384542
N63	N	0.951528	0.798841	0.717875
N64	N	0.354045	0.133199	0.051199
N65	N	0.687378	0.466532	0.384532
N66	N	1.020712	0.799866	0.717865
C67	C	0.394716	0.093993	0.000110
C68	C	0.728049	0.427326	0.333443
C69	C	1.061382	0.760660	0.666776
C70	C	0.138926	0.090207	0.068770
C71	C	0.472260	0.423541	0.402104
C72	C	0.805593	0.756874	0.735437
C73	C	0.066101	0.089138	0.068777
C74	C	0.399434	0.422472	0.402110
C75	C	0.732767	0.755805	0.735443
C76	C	0.066055	0.089131	-0.068485
C77	C	0.399389	0.422465	0.264848
C78	C	0.732722	0.755798	0.598181
C79	C	0.138879	0.090207	-0.068490
C80	C	0.472212	0.423540	0.264844
C81	C	0.805545	0.756874	0.598177
C82	C	0.175310	0.090742	0.000140
C83	C	0.508643	0.424075	0.333474
C84	C	0.841977	0.757408	0.666807
C85	C	0.829982	-0.034708	0.000104
C86	C	1.163315	0.298625	0.333438
C87	C	1.496648	0.631959	0.666771
C88	C	0.828841	-0.112213	0.000098
C89	C	1.162174	0.221121	0.333431
C90	C	1.495508	0.554454	0.666764
C91	C	0.891933	-0.157142	0.000102
C92	C	1.225266	0.176191	0.333435
C93	C	1.558599	0.509525	0.666769
C94	C	0.890861	-0.229966	0.000114
C95	C	1.224194	0.103367	0.333447
C96	C	1.557528	0.436701	0.666781
C97	C	0.826694	-0.257857	0.000107
C98	C	1.160027	0.075477	0.333440
C99	C	1.493361	0.408810	0.666773
C100	C	0.763594	-0.212917	0.000107
C101	C	1.096927	0.120416	0.333440
C102	C	1.430261	0.453749	0.666773
C103	C	0.764668	-0.140095	0.000102
C104	C	1.098001	0.193238	0.333436
C105	C	1.431334	0.526572	0.666769
N106	N	0.777640	-0.365859	-0.042744
N107	N	1.110973	-0.032526	0.290589
N108	N	1.444306	0.300807	0.623922
N109	N	0.776624	-0.435038	-0.042742
N110	N	1.109958	-0.101704	0.290591
N111	N	1.443291	0.231629	0.623925
C112	C	0.823456	-0.477265	0.000122
C113	C	1.156789	-0.143932	0.333455
C114	C	1.490122	0.189402	0.666788
N115	N	0.871352	-0.447702	0.042973
N116	N	1.204685	-0.114369	0.376306
N117	N	1.538019	0.218965	0.709639
N118	N	0.872369	-0.378517	0.042967
N119	N	1.205703	-0.045184	0.376300
N120	N	1.539036	0.288149	0.709633
C121	C	0.825523	-0.336819	0.000112
C122	C	1.158856	-0.003486	0.333445
C123	C	1.492190	0.329848	0.666779
C124	C	0.885390	-0.601159	0.000140
C125	C	1.218723	-0.267826	0.333473
C126	C	1.552056	0.065508	0.666806
C127	C	0.884315	-0.673984	0.000156
C128	C	1.217649	-0.340650	0.333490
C129	C	1.550982	-0.007317	0.666823
C130	C	0.757047	-0.656933	0.000142
C131	C	1.090380	-0.323600	0.333475
C132	C	1.423714	0.009733	0.666808
C133	C	0.758123	-0.584110	0.000133
C134	C	1.091456	-0.250777	0.333466
C135	C	1.424790	0.082556	0.666799
C136	C	0.822296	-0.556228	0.000128
C137	C	1.155630	-0.222894	0.333461
C138	C	1.488963	0.110439	0.666795
C139	C	0.952163	0.087460	0.000138
C140	C	1.285496	0.420794	0.333471
C141	C	1.618829	0.754127	0.666805
C142	C	1.029668	0.088594	0.000153
C143	C	1.363001	0.421927	0.333487
C144	C	1.696335	0.755261	0.666820
C145	C	0.819007	0.220626	0.000139
C146	C	1.152341	0.553959	0.333472
C147	C	1.485674	0.887293	0.666805
C148	C	0.820148	0.298131	0.000150
C149	C	1.153481	0.631464	0.333484
C150	C	1.486815	0.964797	0.666817
N151	N	0.824473	0.092950	-0.179042
N152	N	1.157806	0.426284	0.154291
N153	N	1.491139	0.759617	0.487624
C154	C	0.872100	0.045358	-0.218653
C155	C	1.205433	0.378692	0.114680
C156	C	1.538766	0.712025	0.448014
C157	C	0.872104	0.045355	-0.297901
C158	C	1.205437	0.378688	0.035433
C159	C	1.538771	0.712022	0.368766
C160	C	0.824488	0.092956	-0.337535
C161	C	1.157821	0.426289	-0.004201
C162	C	1.491154	0.759622	0.329132
C163	C	0.776852	0.140552	-0.297915
C164	C	1.110185	0.473885	0.035419
C165	C	1.443518	0.807218	0.368752
C166	C	0.776844	0.140549	-0.218668
C167	C	1.110178	0.473882	0.114665
C168	C	1.443511	0.807216	0.447998
N169	N	0.815411	0.154764	-0.461945
N170	N	1.148745	0.488097	-0.128612
N171	N	1.482078	0.821431	0.204721
N172	N	0.815422	0.154764	-0.537226
N173	N	1.148756	0.488097	-0.203892
N174	N	1.482089	0.821431	0.129441
C175	C	0.824506	0.092966	-0.576299
C176	C	1.157839	0.426299	-0.242965
C177	C	1.491173	0.759632	0.090368
N178	N	0.833592	0.031164	-0.537247
N179	N	1.166925	0.364498	-0.203914
N180	N	1.500258	0.697831	0.129420
N181	N	0.833584	0.031165	-0.461960
N182	N	1.166917	0.364498	-0.128626
N183	N	1.500251	0.697831	0.204707
C184	C	0.824490	0.092964	-0.423464
C185	C	1.157823	0.426297	-0.090130
C186	C	1.491157	0.759630	0.243203
C187	C	0.872140	0.045366	-0.701838
C188	C	1.205473	0.378699	-0.368505
C189	C	1.538807	0.712032	-0.035172
C190	C	0.872139	0.045361	-0.781087
C191	C	1.205473	0.378695	-0.447754
C192	C	1.538806	0.712028	-0.114421
C193	C	0.776890	0.140564	-0.781100
C194	C	1.110224	0.473897	-0.447767
C195	C	1.443557	0.807231	-0.114433
C196	C	0.776888	0.140562	-0.701852
C197	C	1.110221	0.473896	-0.368519
C198	C	1.443554	0.807229	-0.035186
C199	C	0.824516	0.092964	-0.662226
C200	C	1.157850	0.426297	-0.328893
C201	C	1.491183	0.759631	0.004440
N202	N	0.824522	0.092962	0.179284
N203	N	1.157855	0.426295	0.512617
N204	N	1.491188	0.759629	0.845951
H205	H	0.168501	0.090643	-0.124374
H206	H	0.501835	0.423977	0.208959
H207	H	0.835168	0.757310	0.542292
H208	H	0.711349	-0.235631	0.000103
H209	H	1.044682	0.097703	0.333436
H210	H	1.378016	0.431036	0.666769
C211	C	0.724461	0.192908	-0.175092
C212	C	1.057794	0.526242	0.158242
C213	C	1.391128	0.859575	0.491575
H214	H	0.731277	0.186089	-0.122220
H215	H	1.064610	0.519422	0.211113
H216	H	1.397943	0.852755	0.544447
H217	H	0.731901	0.239487	-0.188067
H218	H	1.065234	0.572820	0.145266
H219	H	1.398568	0.906153	0.478600
H220	H	0.677886	0.185443	-0.188095
H221	H	1.011219	0.518777	0.145238
H222	H	1.344552	0.852110	0.478572
C223	C	0.695264	-0.090671	0.000091
C224	C	1.028597	0.242663	0.333424
C225	C	1.361931	0.575996	0.666757
H226	H	0.656893	-0.117708	0.000085
H227	H	0.990226	0.215625	0.333418
H228	H	1.323560	0.548959	0.666751
H229	H	0.693044	-0.061895	0.043989
H230	H	1.026377	0.271439	0.377322
H231	H	1.359710	0.604772	0.710655
H232	H	0.693033	-0.061923	-0.043823
H233	H	1.026366	0.271411	0.289511
H234	H	1.359699	0.604744	0.622844
C235	C	0.955976	-0.570485	0.000143
C236	C	1.289309	-0.237151	0.333477
C237	C	1.622643	0.096182	0.666810
H238	H	0.993399	-0.607676	0.000159
H239	H	1.326732	-0.274343	0.333492
H240	H	1.660066	0.058990	0.666825
H241	H	0.959035	-0.542443	-0.043763
H242	H	1.292368	-0.209110	0.289571
H243	H	1.625701	0.124224	0.622904
H244	H	0.959045	-0.542420	0.044049
H245	H	1.292378	-0.209087	0.377382
H246	H	1.625712	0.124247	0.710716
H247	H	0.036388	0.088691	-0.124360
H248	H	0.369722	0.422025	0.208974
H249	H	0.703055	0.755358	0.542307
C250	C	0.924527	-0.006994	-0.824663
C251	C	1.257861	0.326339	-0.491330
C252	C	1.591194	0.659672	-0.157996
H253	H	0.917705	-0.000183	-0.877535
H254	H	1.251039	0.333150	-0.544201
H255	H	1.584372	0.666484	-0.210868
H256	H	0.971099	0.000471	-0.811658
H257	H	1.304432	0.333804	-0.478325
H258	H	1.637765	0.667137	-0.144991
H259	H	0.917087	-0.053576	-0.811687
H260	H	1.250420	0.279757	-0.478354
H261	H	1.583753	0.613090	-0.145021
C262	C	0.953720	-0.723407	0.000159
C263	C	1.287053	-0.390074	0.333493
C264	C	1.620387	-0.056740	0.666826
H265	H	0.992090	-0.696368	0.000149
H266	H	1.325423	-0.363035	0.333482
H267	H	1.658756	-0.029702	0.666815
H268	H	0.955959	-0.752160	0.044065
H269	H	1.289293	-0.418826	0.377398
H270	H	1.622626	-0.085493	0.710731
H271	H	0.955933	-0.752178	-0.043747
H272	H	1.289267	-0.418845	0.289586
H273	H	1.622600	-0.085512	0.622920
H274	H	0.704801	-0.679641	0.000140
H275	H	1.038134	-0.346308	0.333473
H276	H	1.371468	-0.012975	0.666806
H277	H	0.944187	-0.134445	0.000101
H278	H	1.277521	0.198888	0.333434
H279	H	1.610854	0.532221	0.666767
H280	H	0.706747	-0.547527	0.000125
H281	H	1.040080	-0.214194	0.333458
H282	H	1.373413	0.119139	0.666792
H283	H	0.942239	-0.266555	0.000120
H284	H	1.275573	0.066779	0.333454
H285	H	1.608906	0.400112	0.666787
C286	C	0.924482	-0.007005	-0.175068
C287	C	1.257815	0.326328	0.158265
C288	C	1.591148	0.659662	0.491598
H289	H	0.952843	-0.035354	-0.210014
H290	H	1.286176	0.297979	0.123320
H291	H	1.619510	0.631312	0.456653
H292	H	0.953464	0.018033	-0.144132
H293	H	1.286797	0.351366	0.189201
H294	H	1.620130	0.684699	0.522535
H295	H	0.899448	-0.036010	-0.144177
H296	H	1.232781	0.297323	0.189156
H297	H	1.566115	0.630656	0.522489
C298	C	0.924517	-0.006997	-0.658243
C299	C	1.257851	0.326337	-0.324910
C300	C	1.591184	0.659670	0.008424
H301	H	0.917698	-0.000177	-0.605373
H302	H	1.251031	0.333156	-0.272040
H303	H	1.584364	0.666490	0.061293
H304	H	0.917078	-0.053575	-0.671245
H305	H	1.250411	0.279759	-0.337912
H306	H	1.583744	0.613092	-0.004578
H307	H	0.971094	0.000467	-0.671209
H308	H	1.304428	0.333801	-0.337876
H309	H	1.637761	0.667134	-0.004543
H310	H	0.910889	0.006598	-0.330157
H311	H	1.244222	0.339932	0.003176
H312	H	1.577555	0.673265	0.336509
C313	C	0.724477	0.192913	-0.341508
C314	C	1.057811	0.526246	-0.008175
C315	C	1.391144	0.859580	0.325158
H316	H	0.731308	0.186104	-0.394378
H317	H	1.064641	0.519437	-0.061045
H318	H	1.397974	0.852770	0.272288
H319	H	0.677903	0.185450	-0.328546
H320	H	1.011237	0.518783	0.004788
H321	H	1.344570	0.852117	0.338121
H322	H	0.731918	0.239494	-0.328503
H323	H	1.065251	0.572827	0.004830
H324	H	1.398585	0.906160	0.338164
C325	C	0.470085	0.095110	0.144224
C326	C	0.803418	0.428443	0.477558
C327	C	1.136751	0.761776	0.810891
H328	H	0.421497	0.094394	0.134398
H329	H	0.754830	0.427727	0.467731
H330	H	1.088163	0.761060	0.801064
H331	H	0.487485	0.054580	0.172413
H332	H	0.820818	0.387913	0.505746
H333	H	1.154152	0.721246	0.839079
H334	H	0.476569	0.135997	0.172431
H335	H	0.809902	0.469331	0.505764
H336	H	1.143235	0.802664	0.839097
C337	C	0.724513	0.192924	-0.824688
C338	C	1.057846	0.526257	-0.491354
C339	C	1.391180	0.859591	-0.158021
H340	H	0.731340	0.186113	-0.877558
H341	H	1.064673	0.519446	-0.544224
H342	H	1.398007	0.852779	-0.210891
H343	H	0.677940	0.185462	-0.811721
H344	H	1.011273	0.518795	-0.478388
H345	H	1.344606	0.852128	-0.145055
H346	H	0.731955	0.239505	-0.811686
H347	H	1.065288	0.572839	-0.478352
H348	H	1.398621	0.906172	-0.145019
H349	H	0.738108	0.179319	-0.669599
H350	H	1.071441	0.512653	-0.336266
H351	H	1.404775	0.845986	-0.002933
H352	H	0.612597	0.097218	0.124607
H353	H	0.945931	0.430551	0.457940
H354	H	1.279264	0.763884	0.791274
H355	H	0.480396	0.095267	-0.124401
H356	H	0.813729	0.428600	0.208932
H357	H	1.147062	0.761933	0.542266
H358	H	0.612511	0.097231	-0.124422
H359	H	0.945844	0.430564	0.208911
H360	H	1.279177	0.763898	0.542244
H361	H	0.036479	0.088702	0.124664
H362	H	0.369813	0.422035	0.457998
H363	H	0.703146	0.755369	0.791331
C364	C	0.179002	0.090808	0.144258
C365	C	0.512335	0.424142	0.477592
C366	C	0.845669	0.757475	0.810925
H367	H	0.146900	0.090344	0.185134
H368	H	0.480233	0.423677	0.518467
H369	H	0.813567	0.757011	0.851801
H370	H	0.212867	0.050523	0.147108
H371	H	0.546200	0.383857	0.480442
H372	H	0.879534	0.717190	0.813775
H373	H	0.201953	0.131941	0.147109
H374	H	0.535286	0.465275	0.480442
H375	H	0.868620	0.798608	0.813775
