data_functionalizedCrystal
_audit_creation_method	'MofGen! by Chris Wilmer'
_symmetry_space_group_name_H-M	'P1'
_symmetry_Int_Tables_number	1
_symmetry_cell_setting	triclinic
loop_
_symmetry_equiv_pos_as_xyz
  x,y,z
_cell_length_a	12.784905
_cell_length_b	16.992694
_cell_length_c	16.053789
_cell_angle_alpha	92.715794
_cell_angle_beta	93.108307
_cell_angle_gamma	81.887771
loop_
_atom_site_label
_atom_site_type_symbol
_atom_site_fract_x
_atom_site_fract_y
_atom_site_fract_z
O1	O	0.228296	1.027770	0.069322
O2	O	0.728296	1.527770	0.569322
O3	O	0.225839	0.799654	0.069347
O4	O	0.725839	1.299654	0.569347
O5	O	0.073758	0.930405	0.069330
O6	O	0.573758	1.430405	0.569330
O7	O	0.380377	0.897019	0.069339
O8	O	0.880377	1.397019	0.569339
O9	O	0.065306	0.925073	-0.069529
O10	O	0.565306	1.425073	0.430471
O11	O	0.217388	0.794322	-0.069512
O12	O	0.717388	1.294322	0.430488
O13	O	0.219845	1.022438	-0.069537
O14	O	0.719845	1.522438	0.430463
Zn15	Zn	0.217274	0.907533	-0.091571
Zn16	Zn	0.717274	1.407533	0.408429
Zn17	Zn	0.228409	0.914558	0.091381
Zn18	Zn	0.728409	1.414558	0.591381
O19	O	0.371926	0.891687	-0.069520
O20	O	0.871926	1.391687	0.430480
C21	C	0.218451	0.767991	-0.000080
C22	C	0.718451	1.267991	0.499920
C23	C	0.209016	0.681590	-0.000070
C24	C	0.709016	1.181590	0.499930
C25	C	0.300059	0.625143	-0.000068
C26	C	0.800059	1.125143	0.499932
C27	C	0.291186	0.543960	-0.000080
C28	C	0.791186	1.043960	0.499920
C29	C	0.191269	0.519228	-0.000088
C30	C	0.691269	1.019228	0.499912
C31	C	0.100219	0.575683	-0.000092
C32	C	0.600219	1.075683	0.499908
C33	C	0.109092	0.656863	-0.000086
C34	C	0.609092	1.156863	0.499914
C35	C	0.154492	0.278137	-0.000111
C36	C	0.654492	0.778137	0.499889
C37	C	0.145625	0.196950	-0.000114
C38	C	0.645625	0.696950	0.499886
C39	C	0.336593	0.165233	-0.000104
C40	C	0.836593	0.665233	0.499896
C41	C	0.345458	0.246417	-0.000093
C42	C	0.845458	0.746417	0.499907
C43	C	0.254408	0.302864	-0.000102
C44	C	0.754408	0.802864	0.499898
N45	N	0.182197	0.436247	-0.000097
N46	N	0.682197	0.936247	0.499903
N47	N	0.263480	0.385843	-0.000099
N48	N	0.763480	0.885843	0.499901
C49	C	0.030117	0.929910	-0.000098
C50	C	0.530117	1.429910	0.499902
C51	C	-0.087328	0.936371	-0.000095
C52	C	0.412672	1.436371	0.499905
C53	C	-0.294892	0.804744	-0.000089
C54	C	0.205108	1.304744	0.499911
C55	C	-0.405242	0.810811	-0.000087
C56	C	0.094758	1.310811	0.499913
C57	C	-0.418379	0.954570	-0.000093
C58	C	0.081621	1.454570	0.499907
C59	C	-0.308029	0.948503	-0.000096
C60	C	0.191971	1.448503	0.499904
C61	C	-0.246289	0.873588	-0.000093
C62	C	0.253711	1.373588	0.499907
C63	C	-0.135938	0.867522	-0.000090
C64	C	0.364062	1.367522	0.499910
C65	C	-0.149077	1.011281	-0.000102
C66	C	0.350923	1.511281	0.499898
C67	C	-0.259426	1.017347	-0.000099
C68	C	0.240574	1.517347	0.499901
C69	C	0.415567	0.892182	-0.000090
C70	C	0.915567	1.392182	0.499910
C71	C	0.533012	0.885721	-0.000087
C72	C	1.033012	1.385721	0.499913
C73	C	0.227233	1.054101	-0.000109
C74	C	0.727233	1.554101	0.499891
C75	C	0.236668	1.140502	-0.000113
C76	C	0.736668	1.640502	0.499887
N77	N	0.209675	0.902745	-0.216432
N78	N	0.709675	1.402745	0.283568
C79	C	0.275166	0.943976	-0.260126
C80	C	0.775166	1.443976	0.239874
C81	C	0.269844	0.940637	-0.347532
C82	C	0.769844	1.440637	0.152468
C83	C	0.199035	0.896062	-0.391244
C84	C	0.699035	1.396062	0.108756
C85	C	0.133537	0.854830	-0.347544
C86	C	0.633537	1.354830	0.152456
C87	C	0.138855	0.858174	-0.260138
C88	C	0.638855	1.358174	0.239862
C89	C	0.175820	0.881465	-0.652653
C90	C	0.675820	1.381465	-0.152653
C91	C	0.170510	0.878123	-0.740065
C92	C	0.670510	1.378123	-0.240065
C93	C	0.306816	0.963932	-0.740047
C94	C	0.806816	1.463932	-0.240047
C95	C	0.312131	0.967268	-0.652640
C96	C	0.812131	1.467268	-0.152640
C97	C	0.246629	0.926039	-0.608948
C98	C	0.746629	1.426039	-0.108948
N99	N	0.193596	0.892646	-0.480587
N100	N	0.693596	1.392646	0.019413
N101	N	0.252064	0.929460	-0.519606
N102	N	0.752064	1.429460	-0.019606
N103	N	0.236001	0.919354	0.216242
N104	N	0.736001	1.419354	0.716242
H105	H	0.426821	0.266547	-0.000077
H106	H	0.926821	0.766547	0.499923
N107	N	0.094145	0.830041	-0.787223
N108	N	0.594145	1.330041	-0.287223
H109	H	0.111052	0.772487	-0.772014
H110	H	0.611052	1.272487	-0.272014
H111	H	0.019522	0.851306	-0.772011
H112	H	0.519522	1.351306	-0.272011
N113	N	0.037844	0.170284	-0.000136
N114	N	0.537844	0.670284	0.499864
H115	H	0.026785	0.135338	-0.051614
H116	H	0.526785	0.635338	0.448386
H117	H	0.033093	0.139317	0.051371
H118	H	0.533093	0.639317	0.551371
N119	N	-0.069358	0.786719	-0.000100
N120	N	0.430642	1.286719	0.499900
H121	H	-0.026423	0.779029	-0.051578
H122	H	0.473577	1.279029	0.448422
H123	H	-0.020203	0.783007	0.051406
H124	H	0.479797	1.283007	0.551406
H125	H	0.018863	0.555539	-0.000110
H126	H	0.518863	1.055539	0.499890
H127	H	-0.109489	1.067341	-0.000031
H128	H	0.390511	1.567341	0.499969
N129	N	0.351543	0.992050	-0.212983
N130	N	0.851543	1.492050	0.287017
H131	H	0.392221	1.017664	-0.253929
H132	H	0.892221	1.517664	0.246071
H133	H	0.310939	1.034687	-0.176718
H134	H	0.810939	1.534687	0.323282
N135	N	0.340432	0.985149	-0.394660
N136	N	0.840432	1.485149	0.105340
H137	H	0.386084	1.013904	-0.353707
H138	H	0.886084	1.513904	0.146293
H139	H	0.386986	0.946283	-0.430949
H140	H	0.886986	1.446283	0.069051
N141	N	0.434793	0.104353	-0.000096
N142	N	0.934793	0.604353	0.499904
H143	H	0.414015	0.049171	-0.000102
H144	H	0.914015	0.549171	0.499898
H145	H	0.474906	0.109649	-0.051571
H146	H	0.974906	0.609649	0.448429
N147	N	0.056291	0.339012	-0.000126
N148	N	0.556291	0.839012	0.499874
H149	H	-0.008349	0.311023	-0.000130
H150	H	0.491651	0.811023	0.499870
H151	H	0.058936	0.375360	0.051349
H152	H	0.558936	0.875360	0.551349
H153	H	0.034955	0.702823	-0.000087
H154	H	0.534955	1.202823	0.499913
N155	N	-0.228280	0.723954	-0.000083
N156	N	0.271720	1.223954	0.499917
H157	H	-0.241468	0.695558	0.051396
H158	H	0.258532	1.195558	0.551396
H159	H	-0.247773	0.691670	-0.051588
H160	H	0.252227	1.191670	0.448412
N161	N	-0.457666	0.736558	-0.000091
N162	N	0.042334	1.236558	0.499909
H163	H	-0.401807	0.688182	-0.000092
H164	H	0.098193	1.188182	0.499908
H165	H	-0.500030	0.737913	0.051385
H166	H	-0.000030	1.237913	0.551385
N167	N	-0.484990	1.035360	-0.000111
N168	N	0.015010	1.535360	0.499889
H169	H	-0.527939	1.043055	0.051360
H170	H	-0.027939	1.543055	0.551360
H171	H	-0.437398	1.078011	-0.000147
H172	H	0.062602	1.578011	0.499853
N173	N	-0.326028	1.098141	-0.000108
N174	N	0.173972	1.598141	0.499892
H175	H	-0.368971	1.105834	0.051367
H176	H	0.131029	1.605834	0.551367
H177	H	-0.278427	1.140786	-0.000142
H178	H	0.221573	1.640786	0.499858
H179	H	0.369788	1.003568	-0.617057
H180	H	0.869788	1.503568	-0.117057
H181	H	0.360143	0.997498	-0.775631
H182	H	0.860143	1.497498	-0.275631
H183	H	0.075878	0.818540	-0.383140
H184	H	0.575878	1.318540	0.116860
H185	H	0.085525	0.824599	-0.224564
H186	H	0.585525	1.324599	0.275436
N187	N	0.407828	0.651816	-0.000050
N188	N	0.907828	1.151816	0.499950
H189	H	0.464156	0.603735	-0.000052
H190	H	0.964156	1.103735	0.499948
H191	H	0.412541	0.682840	-0.051523
H192	H	0.912541	1.182840	0.448477
N193	N	0.389412	0.483107	-0.000147
N194	N	0.889412	0.983107	0.499853
H195	H	0.435872	0.492254	0.051311
H196	H	0.935872	0.992254	0.551311
H197	H	0.368595	0.427937	-0.000211
H198	H	0.868595	0.927937	0.499789
N199	N	0.105174	0.837000	-0.605534
N200	N	0.605174	1.337000	-0.105534
H201	H	0.059515	0.808253	-0.646491
H202	H	0.559515	1.308253	-0.146491
H203	H	0.150185	0.797136	-0.569267
H204	H	0.650185	1.297136	-0.069267
