data_functionalizedCrystal
_audit_creation_method	'MofGen! by Chris Wilmer'
_symmetry_space_group_name_H-M	'P1'
_symmetry_Int_Tables_number	1
_symmetry_cell_setting	triclinic
loop_
_symmetry_equiv_pos_as_xyz
  x,y,z
_cell_length_a	11.792254
_cell_length_b	10.868271
_cell_length_c	11.792241
_cell_angle_alpha	90.005281
_cell_angle_beta	95.803993
_cell_angle_gamma	89.995741
loop_
_atom_site_label
_atom_site_type_symbol
_atom_site_fract_x
_atom_site_fract_y
_atom_site_fract_z
O1	O	1.506900	-0.102322	-0.155637
O2	O	2.006900	0.397678	0.344363
O3	O	1.176561	-0.102324	-0.171655
O4	O	1.676561	0.397676	0.328345
O5	O	1.349747	-0.102314	0.001524
O6	O	1.849747	0.397686	0.501524
O7	O	1.333714	-0.102332	-0.328816
O8	O	1.833714	0.397668	0.171184
O9	O	1.349732	0.102330	0.001531
O10	O	1.849732	0.602330	0.501531
O11	O	1.176546	0.102320	-0.171648
O12	O	1.676546	0.602320	0.328352
O13	O	1.506885	0.102323	-0.155630
O14	O	2.006885	0.602323	0.344370
Zn15	Zn	1.341714	0.134813	-0.163638
Zn16	Zn	1.841714	0.634813	0.336362
Zn17	Zn	1.341733	-0.134815	-0.163647
Zn18	Zn	1.841733	0.365185	0.336353
O19	O	1.333699	0.102313	-0.328809
O20	O	1.833699	0.602313	0.171191
C21	C	1.134263	-0.000002	-0.170642
C22	C	1.634263	0.499998	0.329358
C23	C	1.008250	-0.000003	-0.167622
C24	C	1.508250	0.499997	0.332378
C25	C	0.905913	-0.000008	-0.165168
C26	C	1.405913	0.499992	0.334832
C27	C	0.777527	-0.000009	-0.162100
C28	C	1.277527	0.499991	0.337900
C29	C	1.348732	0.000008	0.043819
C30	C	1.848732	0.500008	0.543819
C31	C	1.345718	0.000006	0.169832
C32	C	1.845718	0.500006	0.669832
C33	C	1.549183	-0.000002	-0.156643
C34	C	2.049183	0.499998	0.343357
C35	C	1.675196	-0.000009	-0.159663
C36	C	2.175196	0.499991	0.340337
N37	N	1.341746	-0.318829	-0.163645
N38	N	1.841746	0.181171	0.336355
N39	N	1.341709	0.318827	-0.163631
N40	N	1.841709	0.818827	0.336369
C41	C	1.341727	0.569833	-0.163645
C42	C	1.841727	1.069833	0.336355
C43	C	1.341713	0.430156	-0.163640
C44	C	1.841713	0.930156	0.336360
C45	C	1.334714	-0.000012	-0.371104
C46	C	1.834714	0.499988	0.128896
C47	C	1.337728	-0.000019	-0.497118
C48	C	1.837728	0.499981	0.002882
C49	C	1.340175	-0.000014	0.400545
C50	C	1.840175	0.499986	0.900545
C51	C	1.343255	-0.000003	0.272160
C52	C	1.843255	0.499997	0.772160
