data_functionalizedCrystal
_audit_creation_method	'MofGen! by Chris Wilmer'
_symmetry_space_group_name_H-M	'P1'
_symmetry_Int_Tables_number	1
_symmetry_cell_setting	triclinic
loop_
_symmetry_equiv_pos_as_xyz
  x,y,z
_cell_length_a	19.805407
_cell_length_b	19.805405
_cell_length_c	21.395355
_cell_angle_alpha	89.980090
_cell_angle_beta	89.973672
_cell_angle_gamma	90.028350
loop_
_atom_site_label
_atom_site_type_symbol
_atom_site_fract_x
_atom_site_fract_y
_atom_site_fract_z
Zn1	Zn	1.034775	-0.269507	-0.354285
Zn2	Zn	1.534775	0.230493	0.145715
Zn3	Zn	1.034678	-0.382676	-0.249505
Zn4	Zn	1.534678	0.117324	0.250495
Zn5	Zn	0.921578	-0.269510	-0.249519
Zn6	Zn	1.421578	0.230490	0.250481
Zn7	Zn	0.921553	-0.382663	-0.354242
Zn8	Zn	1.421553	0.117337	0.145758
O9	O	0.978146	-0.326089	-0.301888
O10	O	1.478146	0.173911	0.198112
O11	O	1.129479	-0.284523	-0.340398
O12	O	1.629479	0.215477	0.159602
O13	O	1.019645	-0.367672	-0.161829
O14	O	1.519645	0.132328	0.338171
O15	O	0.936645	-0.174793	-0.263440
O16	O	1.436645	0.325207	0.236560
O17	O	1.129408	-0.367668	-0.263417
O18	O	1.629408	0.132332	0.236583
O19	O	1.019810	-0.174790	-0.340411
O20	O	1.519810	0.325210	0.159589
O21	O	0.936551	-0.284530	-0.161839
O22	O	1.436551	0.215470	0.338161
O23	O	0.826858	-0.284516	-0.263398
O24	O	1.326858	0.215484	0.236602
O25	O	0.936603	-0.367645	-0.441926
O26	O	1.436603	0.132355	0.058074
O27	O	0.826840	-0.367649	-0.340338
O28	O	1.326840	0.132351	0.159662
O29	O	1.019786	-0.284510	-0.441957
O30	O	1.519786	0.215490	0.058043
O31	O	1.019621	-0.477391	-0.263375
O32	O	1.519621	0.022609	0.236625
O33	O	0.936509	-0.477381	-0.340325
O34	O	1.436509	0.022619	0.159675
C35	C	0.802290	-0.326082	-0.301865
C36	C	1.302290	0.173918	0.198135
C37	C	0.727058	-0.326095	-0.301870
C38	C	1.227058	0.173905	0.198130
C39	C	0.265308	-0.282876	-0.342057
C40	C	0.765308	0.217124	0.157943
C41	C	0.335996	-0.282877	-0.342053
C42	C	0.835996	0.217123	0.157947
C43	C	0.371297	-0.326099	-0.301908
C44	C	0.871297	0.173901	0.198092
C45	C	0.335905	-0.369328	-0.261769
C46	C	0.835905	0.130672	0.238231
C47	C	0.265218	-0.369329	-0.261777
C48	C	0.765218	0.130671	0.238223
C49	C	0.620978	-0.369322	-0.261736
C50	C	1.120978	0.130678	0.238264
C51	C	0.691670	-0.369316	-0.261730
C52	C	1.191670	0.130684	0.238270
C53	C	0.691757	-0.282871	-0.342012
C54	C	1.191757	0.217129	0.157988
C55	C	0.621069	-0.282872	-0.342020
C56	C	1.121069	0.217128	0.157980
C57	C	0.585684	-0.326103	-0.301884
C58	C	1.085684	0.173897	0.198116
C59	C	0.509035	-0.326102	-0.301890
C60	C	1.009035	0.173898	0.198110
C61	C	0.447944	-0.326097	-0.301898
C62	C	0.947944	0.173903	0.198102
C63	C	0.978070	-0.501945	-0.301857
C64	C	1.478070	-0.001945	0.198143
C65	C	0.978099	-0.577177	-0.301865
C66	C	1.478099	-0.077177	0.198135
C67	C	1.021418	-0.612504	-0.261840
C68	C	1.521418	-0.112504	0.238160
C69	C	1.021447	-0.683192	-0.261853
C70	C	1.521447	-0.183192	0.238147
C71	C	0.978153	-0.718553	-0.301890
C72	C	1.478153	-0.218553	0.198110
C73	C	0.934832	-0.683221	-0.341921
C74	C	1.434832	-0.183221	0.158079
C75	C	0.934808	-0.612534	-0.341909
C76	C	1.434808	-0.112534	0.158091
C77	C	0.934932	-0.968294	-0.341967
C78	C	1.434932	-0.468294	0.158033
C79	C	0.934959	-1.038986	-0.341974
C80	C	1.434959	-0.538986	0.158026
C81	C	1.021572	-1.038953	-0.261911
C82	C	1.521572	-0.538953	0.238089
C83	C	1.021547	-0.968266	-0.261900
C84	C	1.521547	-0.468266	0.238100
C85	C	0.978229	-0.932940	-0.301932
C86	C	1.478229	-0.432940	0.198068
C87	C	0.978199	-0.856292	-0.301917
C88	C	1.478199	-0.356292	0.198083
C89	C	0.978179	-0.795200	-0.301902
C90	C	1.478179	-0.295200	0.198098
C91	C	1.154689	-0.326097	-0.301911
C92	C	1.654689	0.173903	0.198089
C93	C	1.229921	-0.326100	-0.301921
C94	C	1.729921	0.173900	0.198079
C95	C	0.978202	-0.326075	-0.465311
C96	C	1.478202	0.173925	0.034689
C97	C	0.978226	-0.326069	-0.534952
C98	C	1.478226	0.173931	-0.034952
C99	C	0.978241	-0.149546	-0.301932
C100	C	1.478241	0.350454	0.198068
C101	C	0.978282	-0.074314	-0.301951
C102	C	1.478282	0.425686	0.198049
C103	C	1.021538	-0.282779	-0.567683
C104	C	1.521538	0.217221	-0.067683
C105	C	1.021537	-0.282750	-0.633118
C106	C	1.521537	0.217250	-0.133118
C107	C	0.978232	-0.326023	-0.665821
C108	C	1.478232	0.173977	-0.165821
C109	C	0.934911	-0.369317	-0.633082
C110	C	1.434911	0.130683	-0.133082
C111	C	0.934909	-0.369340	-0.567648
C112	C	1.434909	0.130660	-0.067648
C113	C	0.972861	-0.386968	-0.769485
C114	C	1.472861	0.113032	-0.269485
C115	C	0.972868	-0.386946	-0.834918
C116	C	1.472868	0.113054	-0.334918
C117	C	0.978236	-0.325952	-0.867642
C118	C	1.478236	0.174048	-0.367642
C119	C	0.983610	-0.264978	-0.834924
C120	C	1.483610	0.235022	-0.334924
C121	C	0.983608	-0.265001	-0.769490
C122	C	1.483608	0.234999	-0.269490
C123	C	0.978229	-0.326003	-0.736773
C124	C	1.478229	0.173997	-0.236773
C125	C	1.021549	-0.282626	-0.971325
C126	C	1.521549	0.217374	-0.471325
C127	C	1.021543	-0.282596	-1.036761
C128	C	1.521543	0.217404	-0.536761
C129	C	0.934921	-0.369169	-1.036724
C130	C	1.434921	0.130831	-0.536724
C131	C	0.934923	-0.369193	-0.971289
C132	C	1.434923	0.130807	-0.471289
C133	C	0.978241	-0.325923	-0.938593
C134	C	1.478241	0.174077	-0.438593
C135	C	0.978129	-0.326054	-0.139100
C136	C	1.478129	0.173946	0.360900
C137	C	0.978236	-0.325869	-0.069459
C138	C	1.478236	0.174131	0.430541
H139	H	0.236571	-0.247676	-0.374745
H140	H	0.736571	0.252324	0.125255
H141	H	1.056810	-0.247544	-0.541066
H142	H	1.556810	0.252456	-0.041066
C143	C	0.887290	-0.416773	-1.072688
C144	C	1.387290	0.083227	-0.572688
H145	H	0.893498	-0.410564	-1.116347
H146	H	1.393498	0.089436	-0.616347
H147	H	0.841816	-0.406876	-1.061948
H148	H	1.341816	0.093124	-0.561948
H149	H	0.897181	-0.462256	-1.061966
H150	H	1.397181	0.037744	-0.561966
H151	H	0.364805	-0.247683	-0.374739
H152	H	0.864805	0.252317	0.125261
C153	C	0.582063	-0.416866	-0.217581
C154	C	1.082063	0.083134	0.282419
H155	H	0.613212	-0.442599	-0.193666
H156	H	1.113212	0.057401	0.306334
H157	H	0.554488	-0.446399	-0.241497
H158	H	1.054488	0.053601	0.258503
H159	H	0.554485	-0.390925	-0.190326
H160	H	1.054485	0.109075	0.309674
H161	H	0.987982	-0.215354	-0.742854
H162	H	1.487982	0.284646	-0.242854
C163	C	0.730503	-0.416864	-0.217573
C164	C	1.230503	0.083136	0.282427
H165	H	0.777669	-0.410665	-0.223313
H166	H	1.277669	0.089335	0.276687
H167	H	0.718906	-0.462357	-0.226670
H168	H	1.218906	0.037643	0.273330
H169	H	0.718897	-0.406893	-0.175490
H170	H	1.218897	0.093107	0.324510
H171	H	1.056817	-0.247389	-0.944702
H172	H	1.556817	0.252611	-0.444702
C173	C	0.374733	-0.416869	-0.217609
C174	C	0.874733	0.083131	0.282391
H175	H	0.421900	-0.410673	-0.223347
H176	H	0.921900	0.089327	0.276653
H177	H	0.363135	-0.462362	-0.226702
H178	H	0.863135	0.037638	0.273298
H179	H	0.363125	-0.406891	-0.175528
H180	H	0.863125	0.093109	0.324472
H181	H	0.968496	-0.436595	-0.861551
H182	H	1.468496	0.063405	-0.361551
C183	C	0.226292	-0.416874	-0.217625
C184	C	0.726292	0.083126	0.282375
H185	H	0.257438	-0.442611	-0.193711
H186	H	0.757438	0.057389	0.306289
H187	H	0.198718	-0.446403	-0.241547
H188	H	0.698718	0.053597	0.258453
H189	H	0.198712	-0.390936	-0.190370
H190	H	0.698712	0.109064	0.309630
C191	C	0.887285	-0.416818	-0.935283
C192	C	1.387285	0.083182	-0.435283
H193	H	0.861496	-0.442590	-0.964129
H194	H	1.361496	0.057410	-0.464129
H195	H	0.857807	-0.390935	-0.909745
H196	H	1.357807	0.109065	-0.409745
H197	H	0.913164	-0.446323	-0.909768
H198	H	1.413164	0.053677	-0.409768
C199	C	1.069043	-0.573614	-0.217799
C200	C	1.569043	-0.073614	0.282201
H201	H	1.094851	-0.604780	-0.193968
H202	H	1.594851	-0.104780	0.306032
H203	H	1.043159	-0.546075	-0.190471
H204	H	1.543159	-0.046075	0.309529
H205	H	1.098514	-0.546002	-0.241793
H206	H	1.598514	-0.046002	0.258207
H207	H	1.056721	-0.711952	-0.229260
H208	H	1.556721	-0.211952	0.270740
H209	H	0.899660	-0.939537	-0.374561
H210	H	1.399660	-0.439537	0.125439
H211	H	1.056812	-0.247340	-1.063410
H212	H	1.556812	0.252660	-0.563410
H213	H	0.968309	-0.436624	-0.742846
H214	H	1.468309	0.063376	-0.242846
H215	H	0.899650	-0.404548	-0.659713
H216	H	1.399650	0.095452	-0.159713
C217	C	0.887273	-0.416971	-0.531643
C218	C	1.387273	0.083029	-0.031643
H219	H	0.861484	-0.442744	-0.560488
H220	H	1.361484	0.057256	-0.060488
H221	H	0.857795	-0.391094	-0.506100
H222	H	1.357795	0.108906	-0.006100
H223	H	0.913160	-0.446474	-0.506133
H224	H	1.413160	0.053526	-0.006133
H225	H	1.056798	-0.939477	-0.229296
H226	H	1.556798	-0.439477	0.270704
H227	H	1.056846	-1.067723	-0.229317
H228	H	1.556846	-0.567723	0.270683
H229	H	0.899705	-1.067774	-0.374581
H230	H	1.399705	-0.567774	0.125419
C231	C	0.887211	-0.722112	-0.385964
C232	C	1.387211	-0.222112	0.114036
H233	H	0.861413	-0.690947	-0.409805
H234	H	1.361413	-0.190947	0.090195
H235	H	0.857741	-0.749726	-0.361977
H236	H	1.357741	-0.249726	0.138023
H237	H	0.913104	-0.749649	-0.413292
H238	H	1.413104	-0.249649	0.086708
C239	C	0.582243	-0.235331	-0.386181
C240	C	1.082243	0.264669	0.113819
H241	H	0.613443	-0.209593	-0.410090
H242	H	1.113443	0.290407	0.089910
H243	H	0.554664	-0.205802	-0.362269
H244	H	1.054664	0.294198	0.137731
H245	H	0.554675	-0.261274	-0.413441
H246	H	1.054675	0.238726	0.086559
C247	C	0.989514	-0.197879	-0.870908
C248	C	1.489514	0.302121	-0.370908
H249	H	0.992719	-0.161572	-0.842052
H250	H	1.492719	0.338428	-0.342052
H251	H	0.950727	-0.191917	-0.896418
H252	H	1.450727	0.308083	-0.396418
H253	H	1.028753	-0.198751	-0.896451
H254	H	1.528753	0.301249	-0.396451
C255	C	0.887158	-0.573674	-0.385939
C256	C	1.387158	-0.073674	0.114061
H257	H	0.861374	-0.604856	-0.409782
H258	H	1.361374	-0.104856	0.090218
H259	H	0.913029	-0.546063	-0.413255
H260	H	1.413029	-0.046063	0.086745
H261	H	0.857666	-0.546136	-0.361940
H262	H	1.357666	-0.046136	0.138060
H263	H	1.056806	-0.247494	-0.659773
H264	H	1.556806	0.252506	-0.159773
C265	C	0.730683	-0.235325	-0.386168
C266	C	1.230683	0.264675	0.113832
H267	H	0.777837	-0.241517	-0.380421
H268	H	1.277837	0.258483	0.119579
H269	H	0.719115	-0.189833	-0.377077
H270	H	1.219115	0.310167	0.122923
H271	H	0.719116	-0.245302	-0.428252
H272	H	1.219116	0.254698	0.071748
