data_functionalizedCrystal
_audit_creation_method	'MofGen! by Chris Wilmer'
_symmetry_space_group_name_H-M	'P1'
_symmetry_Int_Tables_number	1
_symmetry_cell_setting	triclinic
loop_
_symmetry_equiv_pos_as_xyz
  x,y,z
_cell_length_a	21.295417
_cell_length_b	18.101398
_cell_length_c	18.101389
_cell_angle_alpha	90.024327
_cell_angle_beta	89.977434
_cell_angle_gamma	89.974227
loop_
_atom_site_label
_atom_site_type_symbol
_atom_site_fract_x
_atom_site_fract_y
_atom_site_fract_z
Zn1	Zn	-0.250755	-1.132124	-0.418817
Zn2	Zn	0.082579	-0.798791	-0.085484
Zn3	Zn	0.415912	-0.465457	0.247849
Zn4	Zn	-0.356008	-1.132021	-0.294967
Zn5	Zn	-0.022675	-0.798688	0.038366
Zn6	Zn	0.310658	-0.465355	0.371700
Zn7	Zn	-0.250748	-1.008283	-0.294979
Zn8	Zn	0.082585	-0.674950	0.038355
Zn9	Zn	0.415919	-0.341616	0.371688
Zn10	Zn	-0.355981	-1.008235	-0.418755
Zn11	Zn	-0.022648	-0.674902	-0.085422
Zn12	Zn	0.310685	-0.341568	0.247911
O13	O	-0.303373	-1.070166	-0.356880
O14	O	0.029960	-0.736832	-0.023546
O15	O	0.363294	-0.403499	0.309787
O16	O	-0.264731	-1.235743	-0.402409
O17	O	0.068603	-0.902410	-0.069076
O18	O	0.401936	-0.569077	0.264257
O19	O	-0.342054	-1.115584	-0.191335
O20	O	-0.008720	-0.782251	0.141998
O21	O	0.324613	-0.448917	0.475331
O22	O	-0.162660	-1.024774	-0.311437
O23	O	0.170674	-0.691441	0.021897
O24	O	0.504007	-0.358107	0.355230
O25	O	-0.342060	-1.235668	-0.311417
O26	O	-0.008727	-0.902334	0.021916
O27	O	0.324607	-0.569001	0.355250
O28	O	-0.162664	-1.115759	-0.402421
O29	O	0.170669	-0.782426	-0.069087
O30	O	0.504002	-0.449093	0.264246
O31	O	-0.264720	-1.024674	-0.191344
O32	O	0.068614	-0.691341	0.141989
O33	O	0.401947	-0.358008	0.475323
O34	O	-0.264694	-0.904644	-0.311377
O35	O	0.068640	-0.571310	0.021957
O36	O	0.401973	-0.237977	0.355290
O37	O	-0.342014	-1.024692	-0.522397
O38	O	-0.008681	-0.691359	-0.189063
O39	O	0.324652	-0.358025	0.144270
O40	O	-0.342008	-0.904609	-0.402315
O41	O	-0.008675	-0.571275	-0.068982
O42	O	0.324659	-0.237942	0.264352
O43	O	-0.264705	-1.115713	-0.522442
O44	O	0.068629	-0.782380	-0.189109
O45	O	0.401962	-0.449046	0.144225
O46	O	-0.444094	-1.115538	-0.311357
O47	O	-0.110761	-0.782204	0.021976
O48	O	0.222573	-0.448871	0.355310
O49	O	-0.444074	-1.024592	-0.402304
O50	O	-0.110741	-0.691259	-0.068971
O51	O	0.222592	-0.357926	0.264363
C52	C	-0.466925	-1.070069	-0.356839
C53	C	-0.133591	-0.736735	-0.023505
C54	C	0.199742	-0.403402	0.309828
C55	C	-0.536893	-1.070095	-0.356846
C56	C	-0.203559	-0.736762	-0.023512
C57	C	0.129774	-0.403428	0.309821
C58	C	-0.303348	-0.877755	-0.356841
C59	C	0.029986	-0.544422	-0.023508
C60	C	0.363319	-0.211089	0.309826
C61	C	-0.303352	-0.795441	-0.356842
C62	C	0.029982	-0.462108	-0.023509
C63	C	0.363315	-0.128775	0.309825
C64	C	-0.303357	-1.070209	-0.550042
C65	C	0.029976	-0.736875	-0.216708
C66	C	0.363310	-0.403542	0.116625
C67	C	-0.303350	-1.070227	-0.632356
C68	C	0.029983	-0.736894	-0.299022
C69	C	0.363316	-0.403560	0.034311
C70	C	-0.569749	-1.117492	-0.309538
C71	C	-0.236416	-0.784159	0.023795
C72	C	0.096918	-0.450826	0.357128
C73	C	-0.635491	-1.117527	-0.309555
C74	C	-0.302158	-0.784194	0.023778
C75	C	0.031175	-0.450860	0.357112
C76	C	-0.668375	-1.070151	-0.356871
C77	C	-0.335042	-0.736818	-0.023538
C78	C	-0.001709	-0.403484	0.309795
C79	C	-0.635511	-1.022751	-0.404188
C80	C	-0.302178	-0.689417	-0.070855
C81	C	0.031155	-0.356084	0.262479
C82	C	-0.569770	-1.022722	-0.404175
C83	C	-0.236437	-0.689389	-0.070842
C84	C	0.096897	-0.356056	0.262491
N85	N	-0.771637	-1.005367	-0.362504
N86	N	-0.438304	-0.672034	-0.029171
N87	N	-0.104971	-0.338700	0.304163
N88	N	-0.834089	-1.005396	-0.362512
N89	N	-0.500755	-0.672062	-0.029178
N90	N	-0.167422	-0.338729	0.304155
C91	C	-0.866450	-1.070234	-0.356914
C92	C	-0.533117	-0.736901	-0.023580
C93	C	-0.199783	-0.403567	0.309753
N94	N	-0.834001	-1.135044	-0.351293
N95	N	-0.500667	-0.801711	-0.017960
N96	N	-0.167334	-0.468377	0.315374
N97	N	-0.771543	-1.135014	-0.351282
N98	N	-0.438210	-0.801681	-0.017948
N99	N	-0.104877	-0.468348	0.315385
C100	C	-0.739661	-1.070177	-0.356891
C101	C	-0.406327	-0.736843	-0.023557
C102	C	-0.072994	-0.403510	0.309776
C103	C	-0.970592	-1.117673	-0.309622
C104	C	-0.637258	-0.784340	0.023712
C105	C	-0.303925	-0.451006	0.357045
C106	C	-1.036335	-1.117709	-0.309644
C107	C	-0.703002	-0.784376	0.023690
C108	C	-0.369669	-0.451042	0.357023
C109	C	-1.036354	-1.022926	-0.404273
C110	C	-0.703021	-0.689593	-0.070940
C111	C	-0.369687	-0.356259	0.262394
C112	C	-0.970612	-1.022897	-0.404255
C113	C	-0.637278	-0.689563	-0.070922
C114	C	-0.303945	-0.356230	0.262412
C115	C	-0.937734	-1.070269	-0.356925
C116	C	-0.604401	-0.736936	-0.023592
C117	C	-0.271068	-0.403602	0.309741
C118	C	-0.139183	-1.070283	-0.356937
C119	C	0.194151	-0.736950	-0.023604
C120	C	0.527484	-0.403617	0.309730
C121	C	-0.069215	-1.070334	-0.356961
C122	C	0.264119	-0.737000	-0.023628
C123	C	0.597452	-0.403667	0.309705
C124	C	-0.303399	-1.263328	-0.356919
C125	C	0.029934	-0.929994	-0.023585
C126	C	0.363267	-0.596661	0.309748
C127	C	-0.303410	-1.345642	-0.356935
C128	C	0.029923	-1.012308	-0.023602
C129	C	0.363256	-0.678975	0.309731
C130	C	-0.303391	-0.496350	-0.356904
C131	C	0.029942	-0.163017	-0.023571
C132	C	0.363276	0.170316	0.309762
C133	C	-0.254504	-0.527673	-0.299967
C134	C	0.078829	-0.194340	0.033366
C135	C	0.412163	0.138994	0.366699
C136	C	-0.254635	-0.613291	-0.299724
C137	C	0.078698	-0.279958	0.033609
C138	C	0.412032	0.053376	0.366942
C139	C	-0.303371	-0.644733	-0.356873
C140	C	0.029962	-0.311399	-0.023540
C141	C	0.363296	0.021934	0.309793
C142	C	-0.369679	-0.613615	-0.335543
C143	C	-0.036346	-0.280282	-0.002210
C144	C	0.296988	0.053051	0.331124
C145	C	-0.369407	-0.527970	-0.335147
C146	C	-0.036074	-0.194637	-0.001814
C147	C	0.297259	0.138696	0.331519
C148	C	-0.286547	-0.527965	-0.435305
C149	C	0.046786	-0.194631	-0.101972
C150	C	0.380120	0.138702	0.231362
C151	C	-0.285070	-0.613615	-0.434877
C152	C	0.048263	-0.280282	-0.101544
C153	C	0.381597	0.053051	0.231789
C154	C	-0.303364	-0.728592	-0.356857
C155	C	0.029970	-0.395259	-0.023524
C156	C	0.363303	-0.061926	0.309810
C157	C	-0.303403	-0.412491	-0.356919
C158	C	0.029931	-0.079157	-0.023585
C159	C	0.363264	0.254176	0.309748
C160	C	-0.303232	-1.070270	-0.931447
C161	C	0.030101	-0.736937	-0.598114
C162	C	0.363434	-0.403603	-0.264780
C163	C	-0.351719	-1.012805	-0.900093
C164	C	-0.018385	-0.679472	-0.566760
C165	C	0.314948	-0.346138	-0.233426
C166	C	-0.351944	-1.012960	-0.814475
C167	C	-0.018610	-0.679627	-0.481141
C168	C	0.314723	-0.346294	-0.147808
C169	C	-0.303291	-1.070248	-0.783064
C170	C	0.030042	-0.736915	-0.449731
C171	C	0.363376	-0.403581	-0.116398
C172	C	-0.321303	-1.148274	-0.814168
C173	C	0.012030	-0.814940	-0.480835
C174	C	0.345364	-0.481607	-0.147502
C175	C	-0.321621	-1.147953	-0.899813
C176	C	0.011712	-0.814620	-0.566480
C177	C	0.345045	-0.481287	-0.233147
C178	C	-0.236626	-1.050388	-0.899877
C179	C	0.096707	-0.717054	-0.566543
C180	C	0.430041	-0.383721	-0.233210
C181	C	-0.237011	-1.048652	-0.814226
C182	C	0.096323	-0.715318	-0.480892
C183	C	0.429656	-0.381985	-0.147559
C184	C	-0.303323	-1.070240	-0.699205
C185	C	0.030010	-0.736907	-0.365871
C186	C	0.363344	-0.403574	-0.032538
C187	C	-0.303202	-1.070283	-1.015306
C188	C	0.030131	-0.736950	-0.681973
C189	C	0.363465	-0.403616	-0.348640
C190	C	-0.303344	-1.070166	-0.164469
C191	C	0.029990	-0.736832	0.168864
C192	C	0.363323	-0.403499	0.502198
C193	C	-0.303173	-1.070291	-0.082155
C194	C	0.030160	-0.736958	0.251178
C195	C	0.363494	-0.403624	0.584511
H196	H	-0.542982	-1.156067	-0.271002
H197	H	-0.209649	-0.822734	0.062332
H198	H	0.123685	-0.489401	0.395665
H199	H	-0.322155	-0.507709	-0.477728
H200	H	0.011179	-0.174375	-0.144395
H201	H	0.344512	0.158958	0.188938
H202	H	-0.265769	-0.633745	-0.241630
H203	H	0.067564	-0.300411	0.091703
H204	H	0.400897	0.032922	0.425036
H205	H	-0.943858	-0.984298	-0.442774
H206	H	-0.610525	-0.650965	-0.109441
H207	H	-0.277192	-0.317632	0.223893
H208	H	-0.370312	-1.164808	-0.919793
H209	H	-0.036978	-0.831475	-0.586459
H210	H	0.296355	-0.498142	-0.253126
F211	F	-0.189408	-1.105095	-0.926382
F212	F	0.143925	-0.771761	-0.593048
F213	F	0.477259	-0.438428	-0.259715
H214	H	-0.401314	-1.026087	-0.793988
H215	H	-0.067981	-0.692753	-0.460655
H216	H	0.265352	-0.359420	-0.127321
H217	H	-0.662248	-1.156126	-0.271032
H218	H	-0.328915	-0.822793	0.062302
H219	H	0.004419	-0.489459	0.395635
H220	H	-0.369476	-1.165420	-0.792722
H221	H	-0.036143	-0.832087	-0.459389
H222	H	0.297191	-0.498753	-0.126055
H223	H	-0.198968	-1.087452	-0.792845
H224	H	0.134366	-0.754119	-0.459512
H225	H	0.467699	-0.420786	-0.126178
F226	F	-0.670509	-0.972333	-0.454548
F227	F	-0.337176	-0.638999	-0.121215
F228	F	-0.003843	-0.305666	0.212118
H229	H	-0.265512	-0.506124	-0.242211
H230	H	0.067821	-0.172790	0.091122
H231	H	0.401154	0.160543	0.424455
F232	F	-0.277438	-1.205782	-0.926929
F233	F	0.055895	-0.872449	-0.593595
F234	F	0.389228	-0.539115	-0.260262
H235	H	-0.205465	-0.634331	-0.313095
H236	H	0.127869	-0.300998	0.020238
H237	H	0.461202	0.032336	0.353572
F238	F	-0.418630	-0.500883	-0.386983
F239	F	-0.085296	-0.167550	-0.053650
F240	F	0.248037	0.165783	0.279684
F241	F	-0.935599	-1.168090	-0.259250
F242	F	-0.602266	-0.834756	0.074083
F243	F	-0.268932	-0.501423	0.407417
F244	F	-0.337134	-0.936948	-0.926994
F245	F	-0.003800	-0.603615	-0.593661
F246	F	0.329533	-0.270281	-0.260327
F247	F	-0.190036	-0.500786	-0.317250
F248	F	0.143297	-0.167453	0.016084
F249	F	0.476630	0.165880	0.349417
F250	F	-0.418564	-0.640225	-0.388054
F251	F	-0.085231	-0.306892	-0.054721
F252	F	0.248102	0.026441	0.278612
F253	F	-0.388079	-0.501811	-0.260232
F254	F	-0.054745	-0.168478	0.073101
F255	F	0.278588	0.164855	0.406434
F256	F	-0.388677	-0.641603	-0.261437
F257	F	-0.055344	-0.308270	0.071897
F258	F	0.277989	0.025063	0.405230
H259	H	-1.063127	-0.984355	-0.442802
H260	H	-0.729794	-0.651022	-0.109469
H261	H	-0.396461	-0.317688	0.223865
F262	F	-0.276595	-1.205742	-0.787581
F263	F	0.056738	-0.872409	-0.454248
F264	F	0.390072	-0.539075	-0.120914
H265	H	-0.239037	-0.506392	-0.454697
H266	H	0.094296	-0.173059	-0.121364
H267	H	0.427629	0.160275	0.211969
F268	F	-0.215178	-0.977312	-0.928090
F269	F	0.118155	-0.643978	-0.594757
F270	F	0.451489	-0.310645	-0.261424
F271	F	-0.221296	-0.640215	-0.455907
F272	F	0.112038	-0.306882	-0.122574
F273	F	0.445371	0.026452	0.210759
F274	F	-0.219258	-0.973596	-0.787661
F275	F	0.114075	-0.640262	-0.454327
F276	F	0.447409	-0.306929	-0.120994
F277	F	-0.328222	-0.641590	-0.493300
F278	F	0.005111	-0.308256	-0.159966
F279	F	0.338444	0.025077	0.173367
H280	H	-0.400788	-1.025801	-0.921614
H281	H	-0.067455	-0.692468	-0.588281
H282	H	0.265879	-0.359134	-0.254948
F283	F	-0.534801	-0.972274	-0.454529
F284	F	-0.201468	-0.638940	-0.121195
F285	F	0.131865	-0.305607	0.212138
F286	F	-0.337207	-0.937335	-0.786983
F287	F	-0.003874	-0.604002	-0.453649
F288	F	0.329460	-0.270669	-0.120316
F289	F	-1.071303	-1.168163	-0.259294
F290	F	-0.737970	-0.834830	0.074039
F291	F	-0.404636	-0.501497	0.407372
