data_functionalizedCrystal
_audit_creation_method	'MofGen! by Chris Wilmer'
_symmetry_space_group_name_H-M	'P1'
_symmetry_Int_Tables_number	1
_symmetry_cell_setting	triclinic
loop_
_symmetry_equiv_pos_as_xyz
  x,y,z
_cell_length_a	11.026607
_cell_length_b	10.967829
_cell_length_c	9.130313
_cell_angle_alpha	102.134343
_cell_angle_beta	90.003461
_cell_angle_gamma	96.380563
loop_
_atom_site_label
_atom_site_type_symbol
_atom_site_fract_x
_atom_site_fract_y
_atom_site_fract_z
O1	O	1.614528	0.523522	0.253934
O2	O	1.260725	0.463909	0.238890
O3	O	1.445785	0.313896	0.201020
O4	O	1.429468	0.673534	0.291804
O5	O	1.445770	0.313880	-0.042583
O6	O	1.260709	0.463893	-0.004713
O7	O	1.614513	0.523506	0.010331
Cu8	Cu	1.437610	0.493698	-0.019434
Cu9	Cu	1.437628	0.493717	0.268655
O10	O	1.429453	0.673519	0.048201
C11	C	1.215415	0.452903	0.114313
C12	C	1.080427	0.420119	0.106039
C13	C	1.007377	0.510642	0.128891
C14	C	0.867860	0.476760	0.120340
C15	C	1.444589	0.267131	0.067419
C16	C	1.441033	0.127806	0.032258
C17	C	1.439456	0.065705	0.142778
C18	C	1.435781	-0.078294	0.106440
C19	C	1.659823	0.534511	0.134911
C20	C	1.794810	0.567295	0.143195
C21	C	1.430649	0.720284	0.181805
C22	C	1.434205	0.859608	0.216976
N23	N	1.437605	0.493686	-0.222059
C24	C	1.363271	0.401281	-0.475431
C25	C	1.363255	0.401260	-0.322099
C26	C	1.511985	0.586131	-0.275360
C27	C	1.512006	0.586145	-0.428690
N28	N	1.437642	0.493721	0.471278
H29	H	1.039681	0.317536	0.080182
H30	H	0.835550	0.669886	0.169082
H31	H	0.827119	0.374170	0.094481
C32	C	1.062404	0.649226	0.163877
H33	H	0.998480	0.701626	0.177097
H34	H	1.111339	0.665783	0.253003
H35	H	1.111323	0.665774	0.083094
C36	C	1.441310	0.137886	0.306945
H37	H	1.443545	0.225202	0.309831
H38	H	1.369996	0.110116	0.354536
H39	H	1.511553	0.122884	0.357746
C40	C	1.593766	0.687800	-0.165320
H41	H	1.583093	0.674562	-0.066367
H42	H	1.676760	0.683316	-0.191556
H43	H	1.571876	0.768255	-0.170136
C44	C	1.436065	-0.068218	0.381152
H45	H	1.438303	0.019099	0.384042
H46	H	1.364754	-0.095987	0.428748
H47	H	1.506311	-0.083224	0.431946
H48	H	1.572575	0.661423	-0.472078
H49	H	1.434403	-0.131730	-0.015089
C50	C	1.439180	0.055626	-0.131909
H51	H	1.436960	-0.031688	-0.134795
H52	H	1.368950	0.070632	-0.182717
H53	H	1.510507	0.083395	-0.179492
H54	H	1.302696	0.325985	-0.278719
H55	H	1.302720	0.326022	-0.556874
