data_functionalizedCrystal
_audit_creation_method	'MofGen! by Chris Wilmer'
_symmetry_space_group_name_H-M	'P1'
_symmetry_Int_Tables_number	1
_symmetry_cell_setting	triclinic
loop_
_symmetry_equiv_pos_as_xyz
  x,y,z
_cell_length_a	21.395364
_cell_length_b	12.759400
_cell_length_c	21.395356
_cell_angle_alpha	89.979052
_cell_angle_beta	89.983617
_cell_angle_gamma	90.029636
loop_
_atom_site_label
_atom_site_type_symbol
_atom_site_fract_x
_atom_site_fract_y
_atom_site_fract_z
Zn1	Zn	0.957878	-0.417895	-0.354282
Zn2	Zn	0.957825	-0.593582	-0.249513
Zn3	Zn	0.853108	-0.417963	-0.249519
Zn4	Zn	0.853092	-0.593579	-0.354253
O5	O	0.905476	-0.505755	-0.301892
O6	O	1.045549	-0.441173	-0.340394
O7	O	0.943919	-0.570315	-0.161836
O8	O	0.867036	-0.270933	-0.263430
O9	O	1.045510	-0.570249	-0.263420
O10	O	0.944010	-0.270883	-0.340399
O11	O	0.866984	-0.441289	-0.161840
O12	O	0.765428	-0.441286	-0.263402
O13	O	0.867007	-0.570244	-0.441935
O14	O	0.765416	-0.570310	-0.340350
O15	O	0.943994	-0.441170	-0.441956
O16	O	0.943903	-0.740602	-0.263393
O17	O	0.866956	-0.740600	-0.340345
C18	C	0.742688	-0.505806	-0.301874
C19	C	0.673047	-0.505853	-0.301881
C20	C	0.640377	-0.438753	-0.342023
C21	C	0.574941	-0.438725	-0.342026
C22	C	0.542179	-0.505816	-0.301893
C23	C	0.574857	-0.572920	-0.261743
C24	C	0.640291	-0.572939	-0.261737
C25	C	0.438471	-0.600431	-0.296860
C26	C	0.373038	-0.600415	-0.296870
C27	C	0.340358	-0.505758	-0.301907
C28	C	0.373119	-0.411115	-0.306947
C29	C	0.438553	-0.411134	-0.306941
C30	C	0.471226	-0.505803	-0.301894
C31	C	0.236735	-0.438622	-0.342053
C32	C	0.171299	-0.438592	-0.342051
C33	C	0.171216	-0.572797	-0.261772
C34	C	0.236651	-0.572817	-0.261771
C35	C	0.269407	-0.505731	-0.301915
C36	C	0.905439	-0.778722	-0.301879
C37	C	0.905480	-0.895499	-0.301894
C38	C	0.945591	-0.950327	-0.261869
C39	C	0.945629	-1.060051	-0.261889
C40	C	0.865441	-1.060109	-0.341959
C41	C	0.865406	-0.950387	-0.341942
C42	C	0.991885	-0.950294	-0.215639
C43	C	0.991924	-1.060018	-0.215658
C44	C	1.068899	-0.505704	-0.301910
C45	C	1.138541	-0.505683	-0.301917
C46	C	0.905505	-0.505699	-0.465315
C47	C	0.905517	-0.505676	-0.534956
C48	C	0.905530	-0.231721	-0.301918
C49	C	0.905554	-0.114945	-0.301930
C50	C	0.945647	-0.572639	-1.036751
C51	C	0.945636	-0.572673	-0.971316
C52	C	0.905577	-0.505509	-0.938595
C53	C	0.865514	-0.438326	-0.971315
C54	C	0.865522	-0.438302	-1.036749
C55	C	0.900635	-0.410893	-0.834935
C56	C	0.900632	-0.410915	-0.769502
C57	C	0.905548	-0.505584	-0.736774
C58	C	0.910482	-0.600233	-0.769487
C59	C	0.910490	-0.600209	-0.834921
C60	C	0.905563	-0.505528	-0.867642
C61	C	0.945593	-0.572804	-0.633109
C62	C	0.945577	-0.572839	-0.567672
C63	C	0.865459	-0.438483	-0.567673
C64	C	0.865471	-0.438457	-0.633108
C65	C	0.905542	-0.505616	-0.665823
C66	C	0.905483	-0.505734	-0.139104
C67	C	0.905593	-0.505461	-0.069463
H68	H	0.548336	-0.384079	-0.374713
H69	H	0.832751	-0.905746	-0.374539
C70	C	0.914820	-1.063886	-0.134124
C71	C	0.974426	-1.100335	-0.150146
H72	H	0.904017	-1.088784	-0.093683
H73	H	0.914797	-0.989445	-0.134109
H74	H	0.885219	-1.088727	-0.163710
H75	H	1.004027	-1.075487	-0.120563
H76	H	0.974453	-1.174791	-0.150157
H77	H	0.548178	-0.627545	-0.229066
H78	H	0.914505	-0.677276	-0.861553
C79	C	0.177710	-0.705447	-0.182418
C80	C	0.135211	-0.646542	-0.217653
H81	H	0.155479	-0.750967	-0.155177
H82	H	0.203222	-0.745704	-0.209673
H83	H	0.203245	-0.659613	-0.158500
H84	H	0.109679	-0.692376	-0.241575
H85	H	0.109689	-0.606282	-0.190395
H86	H	0.666891	-0.627581	-0.229048
H87	H	0.832815	-1.104812	-0.374565
H88	H	1.038023	-1.093948	-0.233082
H89	H	0.144699	-0.383945	-0.374739
H90	H	0.978263	-0.627365	-0.944676
C91	C	1.024838	-0.705448	-1.030173
C92	C	0.989685	-0.646472	-1.072709
H93	H	1.052020	-0.751035	-1.052374
H94	H	1.048809	-0.659672	-1.004663
H95	H	0.997522	-0.745649	-1.004640
H96	H	1.017001	-0.606265	-1.098240
H97	H	0.965712	-0.692254	-1.098230
H98	H	0.914487	-0.677322	-0.742841
H99	H	1.040394	-0.920420	-0.228673
C100	C	1.024780	-0.705618	-0.626539
C101	C	0.989630	-0.646634	-0.669074
H102	H	1.051964	-0.751202	-0.648742
H103	H	1.048751	-0.659847	-0.601025
H104	H	0.997463	-0.745823	-0.601010
H105	H	1.016948	-0.606423	-0.694600
H106	H	0.965658	-0.692410	-0.694598
C107	C	1.015479	-0.842617	-0.126702
C108	C	0.968447	-0.904441	-0.153388
H109	H	1.001006	-0.814303	-0.088274
H110	H	1.051424	-0.884469	-0.119292
H111	H	1.025897	-0.787139	-0.154439
H112	H	0.958033	-0.959924	-0.125652
H113	H	0.932492	-0.862586	-0.160795
H114	H	0.978192	-0.627553	-0.541039
C115	C	0.829873	-0.378863	-0.467371
C116	C	0.821423	-0.364656	-0.531714
H117	H	0.802686	-0.333281	-0.445171
H118	H	0.820689	-0.449453	-0.456645
H119	H	0.871973	-0.363472	-0.456660
H120	H	0.779324	-0.380054	-0.542425
H121	H	0.830603	-0.294049	-0.542444
C122	C	0.379531	-0.787528	-0.286891
C123	C	0.337030	-0.704442	-0.291326
H124	H	0.357301	-0.851749	-0.283464
H125	H	0.405063	-0.788990	-0.323203
H126	H	0.405044	-0.778197	-0.250989
H127	H	0.311520	-0.713768	-0.327231
H128	H	0.311487	-0.702982	-0.255010
C129	C	0.512032	-0.718197	-0.344240
C130	C	0.474393	-0.704484	-0.291324
H131	H	0.534212	-0.782428	-0.340819
H132	H	0.486518	-0.719641	-0.380552
H133	H	0.540901	-0.661827	-0.347229
H134	H	0.445521	-0.760850	-0.288337
H135	H	0.499910	-0.703049	-0.255002
C136	C	0.633881	-0.306090	-0.421372
C137	C	0.676381	-0.364998	-0.386140
H138	H	0.656111	-0.260550	-0.448602
H139	H	0.608354	-0.351912	-0.445295
H140	H	0.608361	-0.265843	-0.394109
H141	H	0.701898	-0.405251	-0.413403
H142	H	0.701919	-0.319169	-0.362215
H143	H	0.832857	-0.383750	-0.659743
H144	H	0.896618	-0.333846	-0.742872
C145	C	0.890910	-0.223754	-0.828377
C146	C	0.895232	-0.306822	-0.870906
H147	H	0.887577	-0.159509	-0.850585
H148	H	0.854999	-0.233009	-0.802851
H149	H	0.927228	-0.222398	-0.802860
H150	H	0.858912	-0.308183	-0.896420
H151	H	0.931147	-0.297564	-0.896443
C152	C	0.759428	-0.387206	-0.951149
C153	C	0.821479	-0.364502	-0.935349
H154	H	0.732241	-0.341634	-0.928942
H155	H	0.753703	-0.377572	-0.994796
H156	H	0.750256	-0.457807	-0.940414
H157	H	0.830653	-0.293902	-0.946088
H158	H	0.827207	-0.374127	-0.891693
H159	H	0.465225	-0.334072	-0.311042
C160	C	0.353067	-0.257690	-0.368764
C161	C	0.337210	-0.307054	-0.312485
H162	H	0.330894	-0.193452	-0.372185
H163	H	0.396720	-0.244167	-0.369478
H164	H	0.342329	-0.301968	-0.402796
H165	H	0.347952	-0.262779	-0.278452
H166	H	0.293546	-0.320573	-0.311765
C167	C	0.230247	-0.305965	-0.421405
C168	C	0.272745	-0.364877	-0.386174
H169	H	0.252479	-0.260435	-0.448641
H170	H	0.204714	-0.351784	-0.445323
H171	H	0.204734	-0.265706	-0.394142
H172	H	0.298256	-0.405142	-0.413437
H173	H	0.298290	-0.319052	-0.362254
C174	C	0.781251	-0.423718	-1.110318
C175	C	0.821489	-0.364454	-1.072707
H176	H	0.754064	-0.378124	-1.132514
H177	H	0.805113	-0.463697	-1.139166
H178	H	0.757278	-0.469512	-1.084777
H179	H	0.845465	-0.318664	-1.098249
H180	H	0.797624	-0.324456	-1.043855
H181	H	0.263251	-0.627462	-0.229085
