data_functionalizedCrystal
_audit_creation_method	'MofGen! by Chris Wilmer'
_symmetry_space_group_name_H-M	'P1'
_symmetry_Int_Tables_number	1
_symmetry_cell_setting	triclinic
loop_
_symmetry_equiv_pos_as_xyz
  x,y,z
_cell_length_a	6.817900
_cell_length_b	17.110515
_cell_length_c	17.110486
_cell_angle_alpha	96.938872
_cell_angle_beta	99.060439
_cell_angle_gamma	99.060823
loop_
_atom_site_label
_atom_site_type_symbol
_atom_site_fract_x
_atom_site_fract_y
_atom_site_fract_z
V1	V	-3.954941	-0.109247	-0.246618
O2	O	-3.966477	0.005492	-0.242029
O3	O	-3.885159	-0.216852	-0.244830
O4	O	-3.885157	-0.107460	-0.354223
O5	O	-3.966479	-0.104656	-0.131878
V6	V	-4.444110	-0.095535	-0.232906
O7	O	-4.203813	-0.139324	-0.276695
O8	O	-4.645434	-0.065458	-0.202829
O9	O	-4.290685	0.012069	-0.234695
O10	O	-4.549970	-0.210275	-0.237496
O11	O	-4.549969	-0.100126	-0.347646
O12	O	-4.290686	-0.097322	-0.125302
C13	C	-3.725650	-0.243087	-0.240913
C14	C	-3.749739	-0.331054	-0.240168
C15	C	-3.876867	-0.828378	-0.235766
C16	C	-3.854249	-0.745724	-0.236469
C17	C	-4.023447	-0.708426	-0.240759
C18	C	-4.215280	-0.753788	-0.244355
C19	C	-4.237897	-0.836441	-0.243658
C20	C	-3.964189	-0.459069	-0.243067
C21	C	-3.941555	-0.376409	-0.243762
C22	C	-3.580526	-0.368352	-0.235876
C23	C	-3.603159	-0.451006	-0.235175
C24	C	-3.794989	-0.496361	-0.238775
C25	C	-4.000331	-0.623940	-0.241475
C26	C	-3.818104	-0.580846	-0.238064
C27	C	-3.725648	-0.103546	-0.380454
C28	C	-3.749734	-0.102797	-0.468421
C29	C	-3.941552	-0.106394	-0.513775
C30	C	-3.964172	-0.105690	-0.596429
C31	C	-3.794974	-0.101394	-0.633728
C32	C	-3.603139	-0.097794	-0.588367
C33	C	-3.580520	-0.098493	-0.505713
C34	C	-3.854238	-0.099082	-0.883085
C35	C	-3.876873	-0.098386	-0.965744
C36	C	-4.237905	-0.106281	-0.973801
C37	C	-4.215270	-0.106984	-0.891146
C38	C	-4.023438	-0.103380	-0.845792
C39	C	-3.818092	-0.100677	-0.718213
C40	C	-4.000320	-0.104092	-0.761307
C41	C	-4.113536	0.038300	-0.238609
C42	C	-4.068683	0.126267	-0.239359
C43	C	-4.113539	-0.101239	-0.099066
C44	C	-4.068691	-0.101984	-0.011099
H45	H	-3.465371	-0.481366	-0.231666
H46	H	-4.120385	-0.495987	-0.245997
H47	H	-4.353044	-0.723414	-0.247854
H48	H	-4.138089	-0.593562	-0.244967
H49	H	-3.465375	-0.094291	-0.618741
C50	C	-3.631946	-0.095844	-0.759234
N51	N	-3.491730	-0.092163	-0.790127
H52	H	-3.424317	-0.095544	-0.468783
H53	H	-3.739083	-0.858740	-0.232274
H54	H	-4.120366	-0.108615	-0.633353
H55	H	-3.698055	-0.708799	-0.233541
H56	H	-4.138079	-0.107587	-0.730934
C57	C	-4.127690	-0.111119	-0.472754
N58	N	-4.267895	-0.114674	-0.441859
H59	H	-3.424344	-0.331415	-0.232947
H60	H	-4.079345	-0.346042	-0.247248
H61	H	-4.394092	-0.873368	-0.246585
C62	C	-3.631992	-0.621876	-0.233340
N63	N	-3.491812	-0.652786	-0.229776
C64	C	-4.448907	-0.110235	-1.023695
N65	N	-4.607840	-0.113209	-1.061276
H66	H	-4.353053	-0.110482	-0.860783
H67	H	-3.739080	-0.094886	-0.996110
H68	H	-3.698048	-0.096176	-0.846171
