data_functionalizedCrystal
_audit_creation_method	'MofGen! by Chris Wilmer'
_symmetry_space_group_name_H-M	'P1'
_symmetry_Int_Tables_number	1
_symmetry_cell_setting	triclinic
loop_
_symmetry_equiv_pos_as_xyz
  x,y,z
_cell_length_a	10.967819
_cell_length_b	14.044220
_cell_length_c	9.482900
_cell_angle_alpha	100.188801
_cell_angle_beta	68.706355
_cell_angle_gamma	88.854482
loop_
_atom_site_label
_atom_site_type_symbol
_atom_site_fract_x
_atom_site_fract_y
_atom_site_fract_z
O1	O	1.753045	0.064847	-0.560092
O2	O	1.377292	0.089041	-0.465957
O3	O	1.559526	-0.060902	-0.511597
O4	O	1.570811	0.214790	-0.514452
O5	O	1.522524	-0.030327	-0.260537
O6	O	1.340289	0.119617	-0.214898
O7	O	1.716043	0.095422	-0.309032
Cu8	Cu	1.524788	0.110311	-0.239041
Cu9	Cu	1.568547	0.074152	-0.535948
O10	O	1.533808	0.245365	-0.263393
C11	C	1.310412	0.104878	-0.328307
C12	C	1.166257	0.106502	-0.292193
C13	C	0.972176	0.093072	-0.368851
C14	C	1.121166	0.091388	-0.406168
C15	C	1.536087	-0.080809	-0.384829
C16	C	1.521359	-0.185678	-0.381138
C17	C	1.494436	-0.377689	-0.374414
C18	C	1.598895	-0.437855	-0.400588
C19	C	1.583915	-0.544696	-0.396846
C20	C	1.509414	-0.270837	-0.378155
C21	C	1.782923	0.079585	-0.446686
C22	C	1.927080	0.077960	-0.482810
C23	C	1.557248	0.265272	-0.390164
C24	C	1.571978	0.370139	-0.393865
N25	N	1.494019	0.135742	-0.030215
N26	N	1.599325	0.048713	-0.744777
C27	C	1.559462	0.081649	0.025594
C28	C	1.533872	0.102815	0.199420
H29	H	0.998773	0.063780	-0.608001
H30	H	1.674298	-0.013276	0.174323
H31	H	1.458889	0.164797	0.280324
H32	H	1.393762	-0.406419	-0.349196
H33	H	0.900482	0.107262	-0.243660
H34	H	1.419041	0.197721	0.050692
H35	H	1.634431	0.019663	-0.055309
H36	H	1.192856	0.077207	-0.531368
H37	H	1.699593	-0.409136	-0.425912
H38	H	1.094568	0.120694	-0.166992
