data_functionalizedCrystal
_audit_creation_method	'MofGen! by Chris Wilmer'
_symmetry_space_group_name_H-M	'P1'
_symmetry_Int_Tables_number	1
_symmetry_cell_setting	triclinic
loop_
_symmetry_equiv_pos_as_xyz
  x,y,z
_cell_length_a	14.044220
_cell_length_b	14.044190
_cell_length_c	12.996460
_cell_angle_alpha	89.989157
_cell_angle_beta	89.999501
_cell_angle_gamma	93.190328
loop_
_atom_site_label
_atom_site_type_symbol
_atom_site_fract_x
_atom_site_fract_y
_atom_site_fract_z
O1	O	1.277175	0.230170	-0.085478
O2	O	1.777175	0.730170	0.414522
O3	O	1.000504	0.221865	-0.085504
O4	O	1.500504	0.721865	0.414496
O5	O	1.134683	0.087681	-0.085471
O6	O	1.634683	0.587681	0.414529
O7	O	1.142996	0.364354	-0.085511
O8	O	1.642996	0.864354	0.414489
O9	O	1.134667	0.087672	0.085663
O10	O	1.634667	0.587672	0.585663
O11	O	1.000488	0.221855	0.085630
O12	O	1.500488	0.721855	0.585630
O13	O	1.277159	0.230161	0.085656
O14	O	1.777159	0.730161	0.585656
Cu15	Cu	1.138822	0.226007	0.101269
Cu16	Cu	1.638822	0.726007	0.601269
Cu17	Cu	1.138841	0.226018	-0.101117
Cu18	Cu	1.638841	0.726018	0.398883
O19	O	1.142980	0.364344	0.085623
O20	O	1.642980	0.864344	0.585623
C21	C	0.964874	0.218224	0.000060
C22	C	1.464874	0.718224	0.500060
C23	C	0.858731	0.207380	0.000052
C24	C	1.358731	0.707380	0.500052
C25	C	1.131039	0.052054	0.000099
C26	C	1.631039	0.552054	0.500099
C27	C	1.120191	-0.054089	0.000107
C28	C	1.620191	0.445911	0.500107
C29	C	0.664392	0.187553	0.000075
C30	C	1.164392	0.687553	0.500075
C31	C	0.613264	0.264468	0.000068
C32	C	1.113264	0.764468	0.500068
C33	C	0.505128	0.253436	0.000081
C34	C	1.005128	0.753436	0.500081
C35	C	0.772539	0.198583	0.000062
C36	C	1.272539	0.698583	0.500062
C37	C	1.177292	-0.299547	0.000071
C38	C	1.677292	0.200453	0.500071
C39	C	1.100375	-0.248422	0.000072
C40	C	1.600375	0.251578	0.500072
C41	C	1.111404	-0.140285	0.000091
C42	C	1.611404	0.359715	0.500091
C43	C	1.166265	-0.407694	0.000052
C44	C	1.666265	0.092306	0.500052
C45	C	1.312789	0.233801	0.000089
C46	C	1.812789	0.733801	0.500089
C47	C	1.418932	0.244646	0.000091
C48	C	1.918932	0.744646	0.500091
C49	C	1.146624	0.399971	0.000051
C50	C	1.646624	0.899971	0.500051
C51	C	1.157472	0.506114	0.000036
C52	C	1.657472	1.006114	0.500036
N53	N	1.138816	0.225999	0.243616
N54	N	1.638816	0.725999	0.743616
N55	N	1.138854	0.226019	-0.243464
N56	N	1.638854	0.726019	0.256536
C57	C	1.138840	0.226019	0.663430
C58	C	1.638840	0.726019	1.163430
C59	C	1.138830	0.226017	0.546625
C60	C	1.638830	0.726017	1.046625
C61	C	1.138828	0.226010	0.453527
C62	C	1.638828	0.726010	0.953527
C63	C	1.138818	0.226006	0.336714
C64	C	1.638818	0.726006	0.836714
H65	H	0.650706	0.338602	0.000052
H66	H	1.150706	0.838602	0.500052
H67	H	0.626954	0.113425	0.000091
H68	H	1.126954	0.613425	0.500091
O69	O	1.265657	-0.254735	0.000143
O70	O	1.765657	0.245265	0.500143
C71	C	1.257133	-0.155178	0.000135
C72	C	1.757133	0.344822	0.500135
H73	H	1.184562	-0.138234	0.032520
H74	H	1.684562	0.361766	0.532520
H75	H	1.264074	-0.127028	-0.081959
H76	H	1.764074	0.372972	0.418041
C77	C	1.425609	-0.128151	0.027501
C78	C	1.925609	0.371849	0.527501
C79	C	1.336479	-0.107340	0.067285
C80	C	1.836479	0.392660	0.567285
H81	H	1.474555	-0.098641	0.068918
H82	H	1.974555	0.401359	0.568918
H83	H	1.431353	-0.195224	0.027502
H84	H	1.931353	0.304776	0.527502
H85	H	1.431380	-0.104692	-0.040910
H86	H	1.931380	0.395308	0.459090
H87	H	1.330705	-0.130809	0.135689
H88	H	1.830705	0.369191	0.635689
H89	H	1.330736	-0.040269	0.067297
H90	H	1.830736	0.459731	0.567297
O91	O	1.012003	-0.293235	0.000105
O92	O	1.512003	0.206765	0.500105
C93	C	1.020519	-0.392793	0.000064
C94	C	1.520519	0.107207	0.500064
H95	H	1.093078	-0.409765	0.032462
H96	H	1.593078	0.090235	0.532462
H97	H	1.013598	-0.420887	-0.082042
H98	H	1.513598	0.079113	0.417958
C99	C	0.852033	-0.419823	0.027375
C100	C	1.352033	0.080177	0.527375
C101	C	0.941149	-0.440669	0.067175
C102	C	1.441149	0.059331	0.567175
H103	H	0.803073	-0.449357	0.068768
H104	H	1.303073	0.050643	0.568768
H105	H	0.846295	-0.352749	0.027399
H106	H	1.346295	0.147251	0.527399
H107	H	0.846280	-0.443236	-0.041046
H108	H	1.346280	0.056764	0.458954
H109	H	0.946906	-0.417246	0.135590
H110	H	1.446906	0.082754	0.635590
H111	H	0.946887	-0.507741	0.067164
H112	H	1.446887	-0.007741	0.567164
