data_functionalizedCrystal
_audit_creation_method	'MofGen! by Chris Wilmer'
_symmetry_space_group_name_H-M	'P1'
_symmetry_Int_Tables_number	1
_symmetry_cell_setting	triclinic
loop_
_symmetry_equiv_pos_as_xyz
  x,y,z
_cell_length_a	19.077115
_cell_length_b	19.120786
_cell_length_c	19.077174
_cell_angle_alpha	89.927663
_cell_angle_beta	85.484425
_cell_angle_gamma	90.063767
loop_
_atom_site_label
_atom_site_type_symbol
_atom_site_fract_x
_atom_site_fract_y
_atom_site_fract_z
Zn1	Zn	1.078554	-0.340061	-0.426667
Zn2	Zn	1.068743	-0.452201	-0.303779
Zn3	Zn	0.956375	-0.330277	-0.304502
Zn4	Zn	0.955639	-0.452155	-0.416900
O5	O	1.014828	-0.393673	-0.362962
O6	O	1.175719	-0.359050	-0.414150
O7	O	1.050039	-0.431952	-0.205407
O8	O	0.976996	-0.233638	-0.325098
O9	O	1.168511	-0.441439	-0.323865
O10	O	1.066761	-0.240826	-0.414852
O11	O	0.967483	-0.342375	-0.205938
O12	O	0.857811	-0.342331	-0.315627
O13	O	0.975742	-0.441361	-0.516664
O14	O	0.857270	-0.431874	-0.398206
O15	O	1.066047	-0.359006	-0.523839
O16	O	1.049325	-0.550132	-0.314395
O17	O	0.966228	-0.550098	-0.397504
C18	C	0.832009	-0.386036	-0.355935
C19	C	0.753798	-0.382787	-0.352945
C20	C	0.313584	-0.359450	-0.331508
C21	C	0.387072	-0.362507	-0.334321
C22	C	0.423544	-0.410727	-0.378646
C23	C	0.386525	-0.455887	-0.420165
C24	C	0.313039	-0.452826	-0.417355
C25	C	0.643294	-0.424886	-0.391655
C26	C	0.716784	-0.427945	-0.394460
C27	C	0.717326	-0.334564	-0.308617
C28	C	0.643839	-0.331510	-0.305808
C29	C	0.606827	-0.376668	-0.347330
N30	N	0.498659	-0.413855	-0.381520
N31	N	0.531713	-0.373536	-0.344458
C32	C	1.006652	-0.575510	-0.354827
C33	C	1.003220	-0.653304	-0.351373
C34	C	1.048310	-0.693534	-0.396516
C35	C	1.045083	-0.766630	-0.393271
C36	C	0.996767	-0.799495	-0.344880
C37	C	0.951671	-0.759259	-0.299736
C38	C	0.954896	-0.686165	-0.302984
C39	C	0.984690	-1.020008	-0.332736
C40	C	0.981470	-1.093108	-0.329489
C41	C	1.074881	-1.100474	-0.423026
C42	C	1.078104	-1.027378	-0.426267
C43	C	1.033006	-0.987149	-0.381125
C44	C	0.993468	-0.874210	-0.341561
C45	C	1.036302	-0.912435	-0.384448
C46	C	1.198360	-0.401341	-0.370017
C47	C	1.276571	-0.404608	-0.373023
C48	C	1.021907	-0.401269	-0.546497
C49	C	1.024923	-0.404506	-0.624709
C50	C	1.023055	-0.211128	-0.371145
C51	C	1.026561	-0.133338	-0.374632
C52	C	0.983360	-0.359390	-0.661729
C53	C	0.986191	-0.362437	-0.735217
C54	C	1.030590	-0.410598	-0.771683
C55	C	1.072155	-0.455718	-0.734658
C56	C	1.069320	-0.452674	-0.661171
C57	C	1.043677	-0.424706	-0.991435
C58	C	1.046511	-0.427746	-1.064927
C59	C	0.960545	-0.334465	-1.065481
C60	C	0.957717	-0.331422	-0.991993
C61	C	0.999279	-0.376546	-0.954974
N62	N	1.033487	-0.413712	-0.846800
N63	N	0.996378	-0.373434	-0.879859
C64	C	1.007819	-0.386058	-0.180145
C65	C	1.004947	-0.382630	-0.101948
H66	H	0.614148	-0.292249	-0.269709
H67	H	1.111596	-1.133236	-0.459779
O68	O	0.423068	-0.318575	-0.294098
C69	C	0.469172	-0.276878	-0.337880
H70	H	0.449363	-0.274010	-0.392649
H71	H	0.523984	-0.300940	-0.341433
C72	C	0.496578	-0.206221	-0.239653
C73	C	0.472245	-0.202694	-0.306919
H74	H	0.498477	-0.160461	-0.220554
H75	H	0.465519	-0.234314	-0.210156
H76	H	0.542253	-0.226276	-0.242623
H77	H	0.426567	-0.182647	-0.303947
H78	H	0.503296	-0.174595	-0.336416
O79	O	1.095264	-0.661725	-0.443587
C80	C	1.134379	-0.712911	-0.482725
H81	H	1.103349	-0.763937	-0.481709
H82	H	1.186510	-0.721812	-0.458715
C83	C	1.186715	-0.625201	-0.560529
C84	C	1.148601	-0.687871	-0.559287
H85	H	1.195491	-0.609755	-0.607755
H86	H	1.160365	-0.590715	-0.534160
H87	H	1.230153	-0.632627	-0.540518
H88	H	1.105160	-0.680442	-0.579290
H89	H	1.174944	-0.722355	-0.585661
O90	O	0.945915	-0.318593	-0.771266
C91	C	0.989647	-0.276816	-0.817339
H92	H	1.042288	-0.304178	-0.829285
H93	H	0.998617	-0.224094	-0.791652
C94	C	0.889538	-0.231833	-0.871552
C95	C	0.954190	-0.265442	-0.886230
H96	H	0.867667	-0.224813	-0.914047
H97	H	0.860075	-0.259976	-0.840511
H98	H	0.897022	-0.187901	-0.850146
H99	H	0.946705	-0.309375	-0.907628
H100	H	0.983652	-0.237305	-0.917277
H101	H	0.912329	-0.786023	-0.260338
H102	H	1.082669	-0.466965	-1.094617
H103	H	0.283894	-0.320185	-0.295414
O104	O	0.753353	-0.290797	-0.268254
C105	C	0.792294	-0.330455	-0.222571
H106	H	0.801876	-0.385016	-0.245343
H107	H	0.761609	-0.334721	-0.168988
C108	C	0.851570	-0.227298	-0.186320
C109	C	0.863344	-0.294309	-0.214293
H110	H	0.895396	-0.205001	-0.181211
H111	H	0.825334	-0.200579	-0.217096
H112	H	0.825997	-0.230862	-0.141671
H113	H	0.888908	-0.290743	-0.258945
H114	H	0.889586	-0.321027	-0.183524
H115	H	0.954131	-0.900977	-0.302159
O116	O	0.911064	-0.647188	-0.259062
C117	C	0.867714	-0.691867	-0.215666
H118	H	0.894149	-0.745048	-0.212041
H119	H	0.814903	-0.698516	-0.238994
C120	C	0.823526	-0.594532	-0.146101
C121	C	0.855996	-0.659848	-0.141644
H122	H	0.816294	-0.574781	-0.100442
H123	H	0.852729	-0.564430	-0.175339
H124	H	0.779520	-0.600082	-0.165544
H125	H	0.900004	-0.654296	-0.122211
H126	H	0.826800	-0.689949	-0.112401
H127	H	1.081806	-0.799382	-0.430026
O128	O	1.125062	-0.995567	-0.473334
C129	C	1.164184	-1.046750	-0.512469
H130	H	1.133152	-1.097775	-0.511466
H131	H	1.216308	-1.055656	-0.488448
C132	C	1.216539	-0.959034	-0.590253
C133	C	1.178423	-1.021702	-0.589026
H134	H	1.225326	-0.943583	-0.637477
H135	H	1.190184	-0.924550	-0.563886
H136	H	1.259972	-0.966464	-0.570232
H137	H	1.134989	-1.014269	-0.609039
H138	H	1.204772	-1.056184	-0.615399
H139	H	0.926707	-0.297729	-1.095630
H140	H	0.942122	-1.119864	-0.290083
H141	H	1.103171	-0.489407	-0.631031
H142	H	1.077512	-0.461456	-0.961303
H143	H	1.075639	-0.885674	-0.423851
O144	O	1.115268	-0.502441	-0.770190
C145	C	1.108847	-0.495466	-0.842989
H146	H	1.088626	-0.440908	-0.854564
H147	H	1.070308	-0.536275	-0.860542
C148	C	1.206045	-0.573429	-0.868948
C149	C	1.181215	-0.506417	-0.883166
H150	H	1.250684	-0.580187	-0.893732
H151	H	1.210370	-0.578131	-0.819902
H152	H	1.173923	-0.607429	-0.883576
H153	H	1.213332	-0.472418	-0.868530
H154	H	1.176898	-0.501710	-0.932211
H155	H	0.947209	-0.320169	-0.632043
O156	O	0.607326	-0.468659	-0.432061
C157	C	0.568359	-0.429009	-0.477727
H158	H	0.593148	-0.374998	-0.485481
H159	H	0.511929	-0.423349	-0.453962
C160	C	0.538089	-0.532640	-0.539716
C161	C	0.568539	-0.466304	-0.549244
H162	H	0.538197	-0.555646	-0.583830
H163	H	0.564340	-0.559354	-0.508948
H164	H	0.491067	-0.527914	-0.519909
H165	H	0.615563	-0.471032	-0.569042
H166	H	0.542296	-0.439592	-0.580016
O167	O	0.421868	-0.502819	-0.463181
C168	C	0.400186	-0.571160	-0.443869
H169	H	0.345719	-0.569223	-0.414713
H170	H	0.439083	-0.594900	-0.408181
C171	C	0.464433	-0.618734	-0.546174
C172	C	0.397533	-0.616357	-0.510370
H173	H	0.462800	-0.646616	-0.587194
H174	H	0.479043	-0.572693	-0.559185
H175	H	0.496840	-0.638516	-0.516428
H176	H	0.365130	-0.596567	-0.540113
H177	H	0.382917	-0.662396	-0.497366
O178	O	0.752300	-0.474693	-0.437562
C179	C	0.798352	-0.438570	-0.486486
H180	H	0.810782	-0.384927	-0.464550
H181	H	0.772404	-0.431943	-0.537907
C182	C	0.851653	-0.546411	-0.527039
C183	C	0.866924	-0.480528	-0.500095
H184	H	0.893951	-0.572294	-0.535437
H185	H	0.820625	-0.570749	-0.494081
H186	H	0.830028	-0.540879	-0.569887
H187	H	0.888541	-0.486061	-0.457244
H188	H	0.897957	-0.456192	-0.533047
H189	H	0.282904	-0.489596	-0.451162
H190	H	0.947971	-0.987260	-0.295978
H191	H	0.921560	-0.292207	-0.962307
