data_functionalizedCrystal
_audit_creation_method	'MofGen! by Chris Wilmer'
_symmetry_space_group_name_H-M	'P1'
_symmetry_Int_Tables_number	1
_symmetry_cell_setting	triclinic
loop_
_symmetry_equiv_pos_as_xyz
  x,y,z
_cell_length_a	12.759401
_cell_length_b	12.759400
_cell_length_c	12.759393
_cell_angle_alpha	89.970627
_cell_angle_beta	89.980404
_cell_angle_gamma	90.013442
loop_
_atom_site_label
_atom_site_type_symbol
_atom_site_fract_x
_atom_site_fract_y
_atom_site_fract_z
Zn1	Zn	1.606278	-0.418208	-0.593991
Zn2	Zn	1.606173	-0.593923	-0.418314
Zn3	Zn	1.430576	-0.418260	-0.418330
Zn4	Zn	1.430573	-0.593846	-0.593956
O5	O	1.518400	-0.506059	-0.506148
O6	O	1.753285	-0.441527	-0.570695
O7	O	1.582838	-0.570675	-0.271295
O8	O	1.453928	-0.271232	-0.441653
O9	O	1.753208	-0.570625	-0.441626
O10	O	1.583015	-0.271194	-0.570710
O11	O	1.453827	-0.441616	-0.271307
O12	O	1.283555	-0.441541	-0.441619
O13	O	1.453923	-0.570493	-0.740981
O14	O	1.283552	-0.570544	-0.570650
O15	O	1.583012	-0.441452	-0.741007
O16	O	1.582835	-0.740934	-0.441592
O17	O	1.453822	-0.740877	-0.570635
C18	C	1.245433	-0.506040	-0.506133
C19	C	1.128656	-0.506058	-0.506152
C20	C	0.964089	-0.573347	-0.573240
C21	C	1.073813	-0.573336	-0.573229
C22	C	1.073769	-0.438794	-0.439074
C23	C	0.964047	-0.438812	-0.439080
C24	C	1.518345	-0.779027	-0.506131
C25	C	1.518417	-0.895803	-0.506159
C26	C	1.585599	-0.950566	-0.573414
C27	C	1.585648	-1.060290	-0.573440
C28	C	1.451330	-1.060479	-0.438946
C29	C	1.451277	-0.950757	-0.438927
C30	C	1.652740	-0.895612	-0.640647
C31	C	1.719928	-0.950374	-0.707906
C32	C	1.719977	-1.060098	-0.707932
C33	C	1.652838	-1.115060	-0.640698
C34	C	1.792433	-0.506079	-0.506163
C35	C	1.909210	-0.506087	-0.506169
C36	C	1.518479	-0.505958	-0.780181
C37	C	1.518512	-0.505915	-0.896958
C38	C	1.518484	-0.232026	-0.506187
C39	C	1.518520	-0.115249	-0.506204
C40	C	1.585734	-0.438713	-0.951835
C41	C	1.585752	-0.438668	-1.061559
C42	C	1.451323	-0.573036	-1.061519
C43	C	1.451301	-0.573075	-0.951797
C44	C	1.518382	-0.506084	-0.233180
C45	C	1.518552	-0.505831	-0.116404
H46	H	0.919444	-0.628127	-0.627868
H47	H	1.396553	-0.627799	-0.907115
C48	C	0.975016	-0.305808	-0.306475
C49	C	0.903715	-0.364871	-0.365353
H50	H	0.937767	-0.260161	-0.260965
H51	H	1.017790	-0.351526	-0.266207
H52	H	1.017834	-0.265669	-0.352326
H53	H	0.860902	-0.405017	-0.319502
H54	H	0.860923	-0.319148	-0.405623
H55	H	1.396669	-1.105238	-0.384207
H56	H	1.118431	-0.384020	-0.384454
C57	C	1.318514	-0.961957	-0.305987
C58	C	1.377427	-0.890554	-0.365002
H59	H	1.272922	-0.924787	-0.260350
H60	H	1.278331	-1.004752	-0.351736
H61	H	1.364337	-1.004746	-0.265840
H62	H	1.331604	-0.847770	-0.405156
H63	H	1.417613	-0.847742	-0.319247
C64	C	1.725798	-0.738329	-0.713838
C65	C	1.652684	-0.775002	-0.640624
H66	H	1.725756	-0.663870	-0.713825
H67	H	1.793605	-0.763113	-0.695723
H68	H	1.707604	-0.763120	-0.781624
H69	H	1.670882	-0.750217	-0.572837
H70	H	1.584861	-0.750208	-0.658733
C71	C	1.770990	-0.916419	-0.885846
C72	C	1.793716	-0.889962	-0.781814
H73	H	1.816540	-0.879118	-0.931474
H74	H	1.780641	-0.989593	-0.895480
H75	H	1.700380	-0.898471	-0.901140
H76	H	1.864324	-0.907917	-0.766517
H77	H	1.784075	-0.816771	-0.772175
H78	H	1.774677	-1.104683	-0.762706
H79	H	1.652871	-1.204404	-0.640736
C80	C	1.718602	-0.305883	-0.962899
C81	C	1.659601	-0.364881	-0.891554
H82	H	1.764198	-0.260295	-0.925684
H83	H	1.758784	-0.351644	-1.005690
H84	H	1.672834	-0.265682	-1.005697
H85	H	1.705368	-0.405088	-0.848761
H86	H	1.619416	-0.319114	-0.848746
C87	C	1.600417	-0.297290	-1.184954
C88	C	1.659643	-0.364792	-1.121875
H89	H	1.646036	-0.251674	-1.222183
H90	H	1.560410	-0.337279	-1.233319
H91	H	1.554649	-0.257124	-1.142133
H92	H	1.705406	-0.404963	-1.164697
H93	H	1.699667	-0.324797	-1.073505
C94	C	1.242026	-0.633052	-0.632786
C95	C	1.134138	-0.647266	-0.646959
H96	H	1.279265	-0.678701	-0.678303
H97	H	1.260015	-0.562485	-0.648279
H98	H	1.259966	-0.648349	-0.562166
H99	H	1.116196	-0.631962	-0.717578
H100	H	1.116141	-0.717849	-0.631474
C101	C	1.391673	-0.632645	-1.229699
C102	C	1.377455	-0.646864	-1.121803
H103	H	1.346073	-0.678231	-1.266912
H104	H	1.376321	-0.562055	-1.247685
H105	H	1.462265	-0.648023	-1.247676
H106	H	1.306863	-0.631478	-1.103825
H107	H	1.392799	-0.717470	-1.103810
