data_functionalizedCrystal
_audit_creation_method	'MofGen! by Chris Wilmer'
_symmetry_space_group_name_H-M	'P1'
_symmetry_Int_Tables_number	1
_symmetry_cell_setting	triclinic
loop_
_symmetry_equiv_pos_as_xyz
  x,y,z
_cell_length_a	19.188933
_cell_length_b	19.188925
_cell_length_c	9.730223
_cell_angle_alpha	89.995959
_cell_angle_beta	89.998127
_cell_angle_gamma	83.144059
loop_
_atom_site_label
_atom_site_type_symbol
_atom_site_fract_x
_atom_site_fract_y
_atom_site_fract_z
O1	O	0.926141	0.087174	-0.114243
O2	O	1.426141	0.587174	0.385757
O3	O	0.722830	0.098907	-0.114256
O4	O	1.222830	0.598907	0.385744
O5	O	0.830354	-0.008615	-0.114241
O6	O	1.330354	0.491385	0.385759
O7	O	0.818616	0.194696	-0.114258
O8	O	1.318616	0.694696	0.385742
O9	O	0.830348	-0.008618	0.114339
O10	O	1.330348	0.491382	0.614339
O11	O	0.722823	0.098904	0.114324
O12	O	1.222823	0.598904	0.614324
O13	O	0.926134	0.087171	0.114337
O14	O	1.426134	0.587171	0.614337
Zn15	Zn	0.824477	0.093037	0.150623
Zn16	Zn	1.324477	0.593037	0.650623
Zn17	Zn	0.824486	0.093041	-0.150541
Zn18	Zn	1.324486	0.593041	0.349459
O19	O	0.818609	0.194693	0.114322
O20	O	1.318609	0.694693	0.614322
C21	C	0.696815	0.098525	0.000033
C22	C	1.196815	0.598525	0.500033
C23	C	0.619311	0.097384	0.000028
C24	C	1.119311	0.597384	0.500028
C25	C	0.066059	0.089240	-0.124556
C26	C	0.566059	0.589240	0.375444
C27	C	0.138884	0.090308	-0.124561
C28	C	0.638884	0.590308	0.375439
C29	C	0.175297	0.090844	0.000038
C30	C	0.675297	0.590844	0.500038
C31	C	0.138882	0.090294	0.124651
C32	C	0.638882	0.590294	0.624651
C33	C	0.066060	0.089219	0.124652
C34	C	0.566060	0.589219	0.624652
N35	N	0.284313	0.132262	0.092779
N36	N	0.784313	0.632262	0.592779
N37	N	0.353491	0.133285	0.092768
N38	N	0.853491	0.633285	0.592768
C39	C	0.394705	0.094082	0.000040
C40	C	0.894705	0.594082	0.500040
N41	N	0.364128	0.053827	-0.092700
N42	N	0.864128	0.553827	0.407300
N43	N	0.294944	0.052807	-0.092693
N44	N	0.794944	0.552807	0.407307
C45	C	0.254260	0.092010	0.000049
C46	C	0.754260	0.592010	0.500049
C47	C	0.510076	0.095786	-0.124572
C48	C	1.010076	0.595786	0.375428
C49	C	0.582902	0.096850	-0.124572
C50	C	1.082902	0.596850	0.375428
C51	C	0.582899	0.096842	0.124643
C52	C	1.082899	0.596842	0.624643
C53	C	0.510075	0.095771	0.124640
C54	C	1.010075	0.595771	0.624640
C55	C	0.473668	0.095246	0.000029
C56	C	0.973668	0.595246	0.500029
C57	C	0.829972	-0.034628	0.000048
C58	C	1.329972	0.465372	0.500048
C59	C	0.828832	-0.112133	0.000045
C60	C	1.328832	0.387867	0.500045
C61	C	0.884296	-0.673902	0.000014
C62	C	1.384296	-0.173902	0.500014
C63	C	0.885373	-0.601079	0.000026
C64	C	1.385373	-0.101079	0.500026
C65	C	0.822281	-0.556145	0.000022
C66	C	1.322281	-0.056145	0.500022
C67	C	0.758107	-0.584040	0.000040
C68	C	1.258107	-0.084040	0.500040
C69	C	0.757033	-0.656862	0.000041
C70	C	1.257033	-0.156862	0.500041
N71	N	0.776607	-0.435464	-0.077784
N72	N	1.276607	0.064536	0.422216
N73	N	0.777632	-0.366287	-0.077788
N74	N	1.277632	0.133713	0.422212
C75	C	0.825515	-0.336736	0.000021
C76	C	1.325515	0.163264	0.500021
N77	N	0.872344	-0.378977	0.077817
N78	N	1.372344	0.121023	0.577817
N79	N	0.871321	-0.448161	0.077815
N80	N	1.371321	0.051839	0.577815
C81	C	0.823439	-0.477181	0.000021
C82	C	1.323439	0.022819	0.500021
C83	C	0.890851	-0.229887	0.000026
C84	C	1.390851	0.270113	0.500026
C85	C	0.891925	-0.157062	0.000047
C86	C	1.391925	0.342938	0.500047
C87	C	0.764658	-0.140023	0.000047
C88	C	1.264658	0.359977	0.500047
C89	C	0.763586	-0.212847	0.000040
C90	C	1.263586	0.287153	0.500040
C91	C	0.826685	-0.257775	0.000023
C92	C	1.326685	0.242225	0.500023
C93	C	0.952149	0.087553	0.000045
C94	C	1.452149	0.587553	0.500045
C95	C	1.029653	0.088694	0.000041
C96	C	1.529653	0.588694	0.500041
C97	C	0.818992	0.220706	0.000030
C98	C	1.318992	0.720706	0.500030
C99	C	0.820131	0.298211	0.000024
C100	C	1.320131	0.798211	0.500024
N101	N	0.824476	0.093034	0.356159
N102	N	1.324476	0.593034	0.856159
N103	N	0.824493	0.093038	-0.356078
N104	N	1.324493	0.593038	0.143922
C105	C	0.872104	0.045443	0.428091
C106	C	1.372104	0.545443	0.928091
C107	C	0.872111	0.045443	0.571974
C108	C	1.372111	0.545443	1.071974
C109	C	0.776860	0.140632	0.571980
C110	C	1.276860	0.640632	1.071980
C111	C	0.776850	0.140628	0.428100
C112	C	1.276850	0.640628	0.928100
H113	H	0.612546	0.097276	0.226094
H114	H	1.112546	0.597276	0.726094
N115	N	0.693654	-0.538154	0.000011
N116	N	1.193654	-0.038154	0.500011
N117	N	0.636365	-0.563066	0.000009
N118	N	1.136365	-0.063066	0.500009
H119	H	0.590842	-0.530661	-0.000010
H120	H	1.090842	-0.030661	0.499990
H121	H	0.480432	0.095356	-0.226037
H122	H	0.980432	0.595356	0.273963
H123	H	0.738085	0.179382	0.630568
H124	H	1.238085	0.679382	1.130568
N125	N	0.176091	0.090884	-0.251827
N126	N	0.676091	0.590884	0.248173
N127	N	0.241108	0.091853	-0.251804
N128	N	0.741108	0.591853	0.248196
H129	H	0.267385	0.092263	-0.341685
H130	H	0.767385	0.592263	0.158315
H131	H	0.612544	0.097289	-0.226037
H132	H	1.112544	0.597289	0.273963
H133	H	0.704780	-0.679566	0.000053
H134	H	1.204780	-0.179566	0.500053
H135	H	0.942230	-0.266469	0.000013
H136	H	1.442230	0.233531	0.500013
H137	H	0.944178	-0.134359	0.000047
H138	H	1.444178	0.365641	0.500047
N139	N	0.176061	0.090860	0.251938
N140	N	0.676061	0.590860	0.751938
N141	N	0.143541	0.090382	0.363181
N142	N	0.643541	0.590382	0.863181
H143	H	0.169796	0.090783	0.453084
H144	H	0.669796	0.590783	0.953084
N145	N	0.028877	0.088680	-0.251841
N146	N	0.528877	0.588680	0.248159
N147	N	-0.005162	0.038871	-0.279645
N148	N	0.494838	0.538871	0.220355
H149	H	-0.031422	0.038472	-0.369543
H150	H	0.468578	0.538472	0.130457
H151	H	0.910883	0.006689	0.369521
H152	H	1.410883	0.506689	0.869521
N153	N	0.700216	-0.094124	0.000058
N154	N	1.200216	0.405876	0.500058
N155	N	0.701183	-0.029106	0.000065
N156	N	1.201183	0.470894	0.500065
H157	H	0.655669	0.003316	0.000078
H158	H	1.155669	0.503316	0.500078
H159	H	0.910893	0.006690	0.630538
H160	H	1.410893	0.506690	1.130538
H161	H	0.480432	0.095329	0.226100
H162	H	0.980432	0.595329	0.726100
N163	N	0.728187	0.189244	0.354634
N164	N	1.228187	0.689244	0.854634
N165	N	0.685671	0.231736	0.418879
N166	N	1.185671	0.731736	0.918879
H167	H	0.651302	0.266068	0.366995
H168	H	1.151302	0.766068	0.866995
H169	H	0.036418	0.088776	0.226117
H170	H	0.536418	0.588776	0.726117
H171	H	0.711336	-0.235552	0.000039
H172	H	1.211336	0.264448	0.500039
H173	H	0.937625	-0.578369	0.000018
H174	H	1.437625	-0.078369	0.500018
N175	N	0.948754	-0.719783	-0.000007
N176	N	1.448754	-0.219783	0.499993
N177	N	1.006041	-0.694869	-0.000017
N178	N	1.506041	-0.194869	0.499983
H179	H	1.051566	-0.727273	-0.000031
H180	H	1.551566	-0.227273	0.499969
