data_functionalizedCrystal
_audit_creation_method	'MofGen! by Chris Wilmer'
_symmetry_space_group_name_H-M	'P1'
_symmetry_Int_Tables_number	1
_symmetry_cell_setting	triclinic
loop_
_symmetry_equiv_pos_as_xyz
  x,y,z
_cell_length_a	14.971482
_cell_length_b	14.519731
_cell_length_c	13.448316
_cell_angle_alpha	89.992415
_cell_angle_beta	89.993798
_cell_angle_gamma	83.650731
loop_
_atom_site_label
_atom_site_type_symbol
_atom_site_fract_x
_atom_site_fract_y
_atom_site_fract_z
O1	O	1.187026	0.120166	-0.082681
O2	O	1.687026	0.620166	0.417319
O3	O	0.926634	0.134562	-0.082686
O4	O	1.426634	0.634562	0.417314
O5	O	1.063724	-0.006877	-0.082675
O6	O	1.563724	0.493123	0.417325
O7	O	1.049936	0.261606	-0.082693
O8	O	1.549936	0.761606	0.417307
O9	O	1.063707	-0.006886	0.082709
O10	O	1.563707	0.493114	0.582709
O11	O	0.926617	0.134553	0.082697
O12	O	1.426617	0.634553	0.582697
O13	O	1.187009	0.120158	0.082703
O14	O	1.687009	0.620158	0.582703
Cu15	Cu	1.056811	0.127355	0.097801
Cu16	Cu	1.556811	0.627355	0.597801
Cu17	Cu	1.056832	0.127365	-0.097785
Cu18	Cu	1.556832	0.627365	0.402215
O19	O	1.049919	0.261597	0.082691
O20	O	1.549919	0.761597	0.582691
C21	C	0.893301	0.133915	0.000005
C22	C	1.393301	0.633915	0.500005
C23	C	0.794002	0.131987	0.000003
C24	C	1.294002	0.631987	0.500003
C25	C	0.747348	0.131075	0.090155
C26	C	1.247348	0.631075	0.590155
C27	C	0.654048	0.129249	0.090156
C28	C	1.154048	0.629249	0.590156
C29	C	0.607404	0.128342	0.000005
C30	C	1.107404	0.628342	0.500005
C31	C	0.654065	0.129252	-0.090154
C32	C	1.154065	0.629252	0.409846
C33	C	0.747364	0.131071	-0.090154
C34	C	1.247364	0.631071	0.409846
C35	C	0.459601	0.125463	-0.090147
C36	C	0.959601	0.625463	0.409853
C37	C	0.366296	0.123645	-0.090148
C38	C	0.866296	0.623645	0.409852
C39	C	0.366285	0.123640	0.090163
C40	C	0.866285	0.623640	0.590163
C41	C	0.459584	0.125459	0.090163
C42	C	0.959584	0.625459	0.590163
C43	C	0.506238	0.126371	0.000004
C44	C	1.006238	0.626371	0.500004
C45	C	1.063069	-0.041241	0.000018
C46	C	1.563069	0.458759	0.500018
C47	C	1.061134	-0.143620	0.000018
C48	C	1.561134	0.356380	0.500018
C49	C	1.059560	-0.226763	0.000016
C50	C	1.559560	0.273237	0.500016
C51	C	1.057595	-0.331070	0.000008
C52	C	1.557595	0.168930	0.500008
C53	C	1.056035	-0.414208	0.000002
C54	C	1.556035	0.085792	0.500002
C55	C	1.054070	-0.518523	-0.000004
C56	C	1.554070	-0.018523	0.499996
C57	C	1.220342	0.120805	0.000009
C58	C	1.720342	0.620805	0.500009
C59	C	1.319641	0.122733	0.000004
C60	C	1.819641	0.622733	0.500004
C61	C	1.050574	0.295960	-0.000003
C62	C	1.550574	0.795960	0.499997
C63	C	1.052510	0.398339	-0.000011
C64	C	1.552510	0.898339	0.499989
N65	N	1.056804	0.127347	0.235365
N66	N	1.556804	0.627347	0.735365
N67	N	1.056847	0.127366	-0.235349
N68	N	1.556847	0.627366	0.264651
C69	C	1.117526	0.064743	0.287411
C70	C	1.617526	0.564743	0.787411
C71	C	1.117531	0.064743	0.391514
C72	C	1.617531	0.564743	0.891514
C73	C	1.056818	0.127351	0.443570
C74	C	1.556818	0.627351	0.943570
C75	C	0.996090	0.189957	0.391517
C76	C	1.496090	0.689957	0.891517
C77	C	0.996080	0.189953	0.287416
C78	C	1.496080	0.689953	0.787416
C79	C	0.996114	0.189963	0.608497
C80	C	1.496114	0.689963	1.108497
C81	C	0.996124	0.189969	0.712606
C82	C	1.496124	0.689969	1.212606
C83	C	1.117565	0.064753	0.712595
C84	C	1.617565	0.564753	1.212595
C85	C	1.117556	0.064749	0.608494
C86	C	1.617556	0.564749	1.108494
C87	C	1.056828	0.127357	0.556448
C88	C	1.556828	0.627357	1.056448
H89	H	0.785318	0.131820	0.163567
H90	H	1.285318	0.631820	0.663567
N91	N	1.179612	0.000807	0.555359
N92	N	1.679612	0.500807	1.055359
N93	N	1.178296	-0.084444	0.567002
N94	N	1.678296	0.415556	1.067002
H95	H	1.222137	-0.129599	0.529486
H96	H	1.722137	0.370401	1.029486
H97	H	0.616081	0.128507	-0.163557
H98	H	1.116081	0.628507	0.336443
N99	N	1.179567	0.000764	0.765750
N100	N	1.679567	0.500764	1.265750
N101	N	1.151076	-0.056535	0.823828
N102	N	1.651076	0.443465	1.323828
H103	H	1.194859	-0.101736	0.861367
H104	H	1.694859	0.398264	1.361367
N105	N	0.507246	0.126384	-0.182251
N106	N	1.007246	0.626384	0.317749
N107	N	0.465592	0.125576	-0.262738
N108	N	0.965592	0.625576	0.237262
H109	H	0.499241	0.126229	-0.327785
H110	H	0.999241	0.626229	0.172215
N111	N	0.934093	0.253916	0.765766
N112	N	1.434093	0.753916	1.265766
N113	N	0.879866	0.309798	0.719288
N114	N	1.379866	0.809798	1.219288
H115	H	0.836050	0.354958	0.756832
H116	H	1.336050	0.854958	1.256832
H117	H	0.328294	0.122898	0.163574
H118	H	0.828294	0.622898	0.663574
H119	H	0.946660	0.240942	0.566125
H120	H	1.446660	0.740942	1.066125
H121	H	0.946651	0.240930	0.433907
H122	H	1.446651	0.740930	0.933907
H123	H	0.946633	0.240930	0.245041
H124	H	1.446633	0.740930	0.745041
H125	H	0.328320	0.122908	-0.163557
H126	H	0.828320	0.622908	0.336443
H127	H	0.497558	0.126203	0.163573
H128	H	0.997558	0.626203	0.663573
N129	N	0.606410	0.128333	0.182258
N130	N	1.106410	0.628333	0.682258
N131	N	0.608693	0.193497	0.242607
N132	N	1.108693	0.693497	0.742607
H133	H	0.575052	0.192852	0.307660
H134	H	1.075052	0.692852	0.807660
N135	N	0.795011	0.131995	-0.182251
N136	N	1.295011	0.631995	0.317749
N137	N	0.753357	0.131182	-0.262738
N138	N	1.253357	0.631182	0.237262
H139	H	0.787006	0.131830	-0.327786
H140	H	1.287006	0.631830	0.172214
H141	H	1.166969	0.013765	0.245034
H142	H	1.666969	0.513765	0.745034
N143	N	1.179531	0.000788	0.444703
N144	N	1.679531	0.500788	0.944703
N145	N	1.235093	0.030114	0.502808
N146	N	1.735093	0.530114	1.002808
H147	H	1.278868	-0.015064	0.540383
H148	H	1.778868	0.484936	1.040383
