data_functionalizedCrystal
_audit_creation_method	'MofGen! by Chris Wilmer'
_symmetry_space_group_name_H-M	'P1'
_symmetry_Int_Tables_number	1
_symmetry_cell_setting	triclinic
loop_
_symmetry_equiv_pos_as_xyz
  x,y,z
_cell_length_a	12.759401
_cell_length_b	19.805405
_cell_length_c	12.759393
_cell_angle_alpha	89.963446
_cell_angle_beta	89.979062
_cell_angle_gamma	90.027935
loop_
_atom_site_label
_atom_site_type_symbol
_atom_site_fract_x
_atom_site_fract_y
_atom_site_fract_z
Zn1	Zn	1.606181	-0.269403	-0.593976
Zn2	Zn	1.606036	-0.382606	-0.418277
Zn3	Zn	1.430480	-0.269439	-0.418311
Zn4	Zn	1.430436	-0.382558	-0.593915
O5	O	1.518283	-0.326001	-0.506120
O6	O	1.753183	-0.284424	-0.570681
O7	O	1.582706	-0.367629	-0.271261
O8	O	1.453866	-0.174718	-0.441653
O9	O	1.753076	-0.367594	-0.441596
O10	O	1.582953	-0.174691	-0.570713
O11	O	1.453725	-0.284486	-0.271285
O12	O	1.283453	-0.284440	-0.441594
O13	O	1.453791	-0.367513	-0.740944
O14	O	1.283420	-0.367548	-0.570609
O15	O	1.582910	-0.284378	-0.740989
O16	O	1.582663	-0.477316	-0.441536
O17	O	1.453650	-0.477281	-0.570576
C18	C	1.245316	-0.325993	-0.506099
C19	C	1.128539	-0.326006	-0.506115
C20	C	1.073688	-0.369346	-0.573187
C21	C	0.963964	-0.369349	-0.573208
C22	C	0.963952	-0.282669	-0.439075
C23	C	1.073674	-0.282663	-0.439060
C24	C	1.518165	-0.501858	-0.506069
C25	C	1.518210	-0.577089	-0.506082
C26	C	1.585453	-0.612429	-0.438962
C27	C	1.585497	-0.683118	-0.438985
C28	C	1.518294	-0.718465	-0.506124
C29	C	1.451048	-0.683120	-0.573252
C30	C	1.451010	-0.612433	-0.573234
C31	C	1.451203	-0.968194	-0.573330
C32	C	1.451245	-1.038886	-0.573342
C33	C	1.585691	-1.038878	-0.439081
C34	C	1.585652	-0.968191	-0.439063
C35	C	1.518411	-0.932852	-0.506194
C36	C	1.518365	-0.856204	-0.506170
C37	C	1.518334	-0.795112	-0.506144
C38	C	1.792316	-0.326010	-0.506141
C39	C	1.909093	-0.326014	-0.506150
C40	C	1.518362	-0.325936	-0.780153
C41	C	1.518395	-0.325909	-0.896930
C42	C	1.518430	-0.149459	-0.506194
C43	C	1.518493	-0.074227	-0.506225
C44	C	1.585633	-0.282614	-0.951817
C45	C	1.585650	-0.282584	-1.061541
C46	C	1.451190	-0.369151	-1.061481
C47	C	1.451168	-0.369177	-0.951759
C48	C	1.518265	-0.326017	-0.233152
C49	C	1.518435	-0.325854	-0.116376
H50	H	0.919309	-0.404640	-0.627827
O51	O	1.651035	-0.240676	-0.898506
C52	C	1.718833	-0.279223	-0.835010
H53	H	1.725293	-0.332524	-0.868051
H54	H	1.799703	-0.254741	-0.833787
H55	H	1.686328	-0.281573	-0.751848
H56	H	1.640372	-0.939413	-0.384388
O57	O	1.385739	-0.411141	-0.898389
C58	C	1.317922	-0.372616	-0.834908
H59	H	1.311485	-0.319300	-0.867999
H60	H	1.237047	-0.397092	-0.833635
H61	H	1.350393	-0.370302	-0.751759
H62	H	1.118335	-0.247366	-0.384442
O63	O	0.910491	-0.240633	-0.373974
C64	C	0.801885	-0.249918	-0.388386
H65	H	0.786882	-0.302182	-0.422642
H66	H	0.760148	-0.245264	-0.309710
H67	H	0.770804	-0.209818	-0.444459
O68	O	1.651002	-1.073312	-0.373991
C69	C	1.636626	-1.143282	-0.388393
H70	H	1.602161	-1.152911	-0.469437
H71	H	1.715350	-1.170099	-0.381369
H72	H	1.580743	-1.163415	-0.326019
H73	H	1.640173	-0.583654	-0.384284
H74	H	1.118356	-0.404637	-0.627790
O75	O	1.386112	-1.073297	-0.638624
C76	C	1.445926	-1.114107	-0.706550
H77	H	1.525567	-1.124669	-0.669558
H78	H	1.403157	-1.163832	-0.720604
H79	H	1.457422	-1.086821	-0.784413
H80	H	1.640400	-0.247328	-1.106225
O81	O	1.385744	-0.578175	-0.638581
C82	C	1.408684	-0.595370	-0.743317
H83	H	1.449093	-0.646672	-0.745540
H84	H	1.332841	-0.597801	-0.790367
H85	H	1.462667	-0.555541	-0.778737
H86	H	1.396459	-0.404380	-1.106137
H87	H	1.396452	-0.939426	-0.627989
O88	O	1.650847	-0.717342	-0.373681
C89	C	1.710166	-0.670986	-0.314432
H90	H	1.667104	-0.620624	-0.310745
H91	H	1.721423	-0.691446	-0.231669
H92	H	1.789937	-0.663402	-0.352969
H93	H	1.396334	-0.711906	-0.627923
