data_functionalizedCrystal
_audit_creation_method	'MofGen! by Chris Wilmer'
_symmetry_space_group_name_H-M	'P1'
_symmetry_Int_Tables_number	1
_symmetry_cell_setting	triclinic
loop_
_symmetry_equiv_pos_as_xyz
  x,y,z
_cell_length_a	12.827893
_cell_length_b	29.839131
_cell_length_c	12.827885
_cell_angle_alpha	89.955525
_cell_angle_beta	89.980538
_cell_angle_gamma	90.035389
loop_
_atom_site_label
_atom_site_type_symbol
_atom_site_fract_x
_atom_site_fract_y
_atom_site_fract_z
Zn1	Zn	1.597528	-0.178830	-0.590742
Zn2	Zn	1.597361	-0.253967	-0.415957
Zn3	Zn	1.422768	-0.178852	-0.416016
Zn4	Zn	1.422694	-0.253934	-0.590657
O5	O	1.510087	-0.216395	-0.503343
O6	O	1.743741	-0.188801	-0.567567
O7	O	1.574162	-0.244026	-0.269729
O8	O	1.446052	-0.115982	-0.439253
O9	O	1.743619	-0.244004	-0.439154
O10	O	1.574446	-0.115965	-0.567624
O11	O	1.445890	-0.188839	-0.269772
O12	O	1.276522	-0.188807	-0.439171
O13	O	1.445924	-0.243948	-0.736905
O14	O	1.276468	-0.243969	-0.567480
O15	O	1.574374	-0.188769	-0.736967
O16	O	1.574089	-0.316830	-0.439072
O17	O	1.445762	-0.316805	-0.567423
C18	C	1.238578	-0.216387	-0.503323
C19	C	1.122424	-0.216394	-0.503339
C20	C	1.070700	-0.189127	-0.566982
C21	C	0.950650	-0.189134	-0.567000
C22	C	1.509928	-0.333118	-0.503255
C23	C	1.509956	-0.383052	-0.503252
C24	C	1.576928	-0.692652	-0.570281
C25	C	1.577042	-0.880325	-0.570344
O26	O	1.633828	-0.904553	-0.627269
N27	N	1.510265	-0.903837	-0.503459
C28	C	1.443450	-0.880428	-0.436559
O29	O	1.386648	-0.904733	-0.379678
C30	C	1.443333	-0.692756	-0.436502
C31	C	1.510121	-0.669247	-0.503384
C32	C	1.643710	-0.669143	-0.637158
C33	C	1.643685	-0.622227	-0.637138
C34	C	1.576878	-0.598822	-0.570240
C35	C	1.510096	-0.622331	-0.503363
C36	C	1.376513	-0.669348	-0.369608
C37	C	1.376488	-0.622427	-0.369601
C38	C	1.443277	-0.598917	-0.436483
C39	C	1.443264	-0.552010	-0.436445
N40	N	1.510040	-0.528498	-0.503330
C41	C	1.576848	-0.551904	-0.570228
C42	C	1.443519	-0.978959	-0.436592
C43	C	1.443549	-1.025877	-0.436604
C44	C	1.577139	-1.025771	-0.570391
C45	C	1.577113	-0.978852	-0.570372
C46	C	1.510295	-0.955447	-0.503477
C47	C	1.576791	-0.453378	-0.570179
C48	C	1.576763	-0.406458	-0.570150
C49	C	1.443169	-0.406569	-0.436367
C50	C	1.443201	-0.453484	-0.436392
C51	C	1.510015	-0.476888	-0.503307
O52	O	1.386499	-0.527753	-0.379559
O53	O	1.633625	-0.527591	-0.627116
C54	C	1.576953	-0.739568	-0.570301
C55	C	1.510171	-0.763078	-0.503424
C56	C	1.443364	-0.739672	-0.436527
C57	C	1.510202	-0.809995	-0.503437
C58	C	1.577009	-0.833401	-0.570334
C59	C	1.643785	-0.809889	-0.637219
C60	C	1.643760	-0.762974	-0.637199
C61	C	1.376587	-0.763184	-0.369642
C62	C	1.376619	-0.810099	-0.369667
C63	C	1.443426	-0.833505	-0.436565
C64	C	1.782658	-0.216404	-0.503364
C65	C	1.898811	-0.216408	-0.503372
C66	C	1.510160	-0.216352	-0.775913
C67	C	1.510190	-0.216334	-0.892067
C68	C	1.510276	-0.099217	-0.503454
C69	C	1.510356	-0.049283	-0.503502
C70	C	1.446737	-0.189020	-0.943873
C71	C	1.446768	-0.189001	-1.063923
C72	C	1.510076	-0.216406	-0.231833
C73	C	1.510248	-0.216298	-0.115681
H74	H	1.631154	-0.387318	-0.624613
C75	C	1.650297	-0.479115	-0.643781
N76	N	1.705668	-0.498500	-0.699212
H77	H	1.392448	-0.165615	-1.108475
H78	H	1.392387	-0.165653	-0.899349
C79	C	1.583643	-0.247891	-1.055503
N80	N	1.638923	-0.271688	-1.010170
H81	H	1.564536	-0.239704	-0.936591
H82	H	0.943286	-0.239756	-0.448889
H83	H	1.115294	-0.165775	-0.621450
C84	C	1.717162	-0.596373	-0.710710
N85	N	1.772510	-0.576902	-0.766127
C86	C	1.717219	-0.694882	-0.710748
N87	N	1.772599	-0.714265	-0.766173
H88	H	0.906168	-0.165790	-0.621489
H89	H	1.388824	-0.472626	-0.381924
C90	C	1.650580	-0.952996	-0.643951
N91	N	1.705918	-0.933523	-0.699375
C92	C	1.062185	-0.247940	-0.429746
N93	N	1.016815	-0.271702	-0.374314
C94	C	1.650622	-1.051526	-0.643985
N95	N	1.705959	-1.070927	-0.699419
H96	H	1.322183	-0.744130	-0.315168
C97	C	1.369681	-0.380813	-0.362788
N98	N	1.314322	-0.361413	-0.307374
H99	H	1.389175	-1.045014	-0.382132
H100	H	1.322073	-0.603373	-0.315128
H101	H	1.389106	-0.959906	-0.382115
H102	H	1.322127	-0.688481	-0.315145
C103	C	1.303140	-0.835954	-0.296087
N104	N	1.247790	-0.855427	-0.240676
C105	C	1.717272	-0.835645	-0.710808
N106	N	1.772614	-0.855046	-0.766237
H107	H	1.698145	-0.743836	-0.691660
