data_functionalizedCrystal
_audit_creation_method	'MofGen! by Chris Wilmer'
_symmetry_space_group_name_H-M	'P1'
_symmetry_Int_Tables_number	1
_symmetry_cell_setting	triclinic
loop_
_symmetry_equiv_pos_as_xyz
  x,y,z
_cell_length_a	10.654549
_cell_length_b	9.130307
_cell_length_c	17.699083
_cell_angle_alpha	89.995823
_cell_angle_beta	96.115034
_cell_angle_gamma	90.002551
loop_
_atom_site_label
_atom_site_type_symbol
_atom_site_fract_x
_atom_site_fract_y
_atom_site_fract_z
O1	O	1.665972	0.121838	-0.106319
O2	O	1.300317	0.121834	-0.116443
O3	O	1.493475	0.121823	-0.001258
O4	O	1.472814	0.121849	-0.221504
O5	O	1.493469	-0.121776	-0.001256
O6	O	1.300311	-0.121765	-0.116442
O7	O	1.665966	-0.121761	-0.106318
Cu8	Cu	1.483138	-0.144005	-0.111380
Cu9	Cu	1.483145	0.144079	-0.111381
O10	O	1.472808	-0.121750	-0.221503
C11	C	1.253529	0.000034	-0.115698
C12	C	1.114125	0.000031	-0.113472
C13	C	0.821803	0.000088	-0.247028
C14	C	0.872116	0.000090	-0.316944
C15	C	1.003097	0.000071	-0.319038
C16	C	1.083770	0.000055	-0.251209
C17	C	1.033457	0.000052	-0.181293
C18	C	0.902471	0.000067	-0.179206
C19	C	1.063812	0.000029	-0.043556
C20	C	0.932831	0.000038	-0.041460
C21	C	1.144485	0.000013	0.024273
C22	C	1.094172	0.000000	0.094190
C23	C	0.963182	0.000017	0.096282
C24	C	0.882518	0.000036	0.028456
N25	N	1.483142	-0.346628	-0.111378
C26	C	1.654253	-0.346628	-0.009412
C27	C	1.739816	-0.423294	0.041570
C28	C	1.739829	-0.576627	0.041570
C29	C	1.654266	-0.653298	-0.009415
C30	C	1.568702	-0.576632	-0.060396
C31	C	1.568702	-0.423295	-0.060392
C32	C	1.397588	-0.576632	-0.162358
C33	C	1.397579	-0.423299	-0.162363
C34	C	1.312025	-0.653303	-0.213342
C35	C	1.226465	-0.576636	-0.264328
C36	C	1.226457	-0.423294	-0.264327
C37	C	1.312015	-0.346632	-0.213344
C38	C	1.712754	0.000043	-0.107063
C39	C	1.852158	0.000055	-0.109289
C40	C	1.492732	0.000024	0.026945
C41	C	1.490511	0.000023	0.110977
N42	N	1.483151	0.346701	-0.111376
C43	C	1.473551	0.000053	-0.249705
C44	C	1.475772	0.000063	-0.333738
C45	C	1.603891	0.000022	0.158876
C46	C	1.601796	0.000035	0.237833
C47	C	1.486321	0.000038	0.268889
C48	C	1.372932	0.000043	0.220984
C49	C	1.375028	0.000041	0.142029
C50	C	1.364478	0.000055	0.539400
C51	C	1.362391	0.000053	0.618362
C52	C	1.591247	0.000049	0.635205
C53	C	1.593342	0.000047	0.556249
C54	C	1.479954	0.000060	0.508351
C55	C	1.482227	0.000049	0.422738
C56	C	1.484047	0.000039	0.354501
H57	H	1.190421	0.000056	-0.252921
H58	H	0.806418	0.000109	-0.372168
H59	H	1.312033	-0.778155	-0.213337
H60	H	1.044061	0.000071	-0.375970
H61	H	1.156800	-0.639071	-0.305833
O62	O	1.181187	-0.000025	0.167338
H63	H	1.163347	0.099259	0.200767
O64	O	1.134173	-0.340603	-0.319317
H65	H	1.074691	-0.419682	-0.354769
H66	H	1.809479	-0.360855	0.083082
O67	O	1.312008	-0.181251	-0.213335
H68	H	1.331910	-0.140794	-0.269985
H69	H	1.251136	0.000004	0.022563
H70	H	1.282702	0.000042	0.103029
H71	H	1.809498	-0.639049	0.083086
H72	H	1.694122	0.000031	0.276829
H73	H	1.697924	0.000011	0.133597
O74	O	1.248379	0.000052	0.254475
H75	H	1.193905	-0.099229	0.235277
O76	O	1.237831	0.000066	0.651855
H77	H	1.231393	-0.099231	0.687420
O78	O	0.908915	0.000004	0.171692
H79	H	0.987020	-0.000023	0.218500
O80	O	0.741245	0.000057	0.030714
H81	H	0.693607	0.000081	-0.028195
O82	O	1.717889	0.000065	0.522751
H83	H	1.796380	0.000087	0.569324
O84	O	1.654273	-0.818679	-0.009417
H85	H	1.728147	-0.859109	0.034596
O86	O	1.654237	-0.181246	-0.009415
H87	H	1.728100	-0.140813	0.034603
O88	O	1.713551	0.000041	0.686866
H89	H	1.718093	0.099334	0.723232
O90	O	0.680530	0.000078	-0.244768
H91	H	0.652548	0.099354	-0.214481
O92	O	1.242188	0.000031	0.487743
H93	H	1.161543	0.000008	0.522606
