data_functionalizedCrystal
_audit_creation_method	'MofGen! by Chris Wilmer'
_symmetry_space_group_name_H-M	'P1'
_symmetry_Int_Tables_number	1
_symmetry_cell_setting	triclinic
loop_
_symmetry_equiv_pos_as_xyz
  x,y,z
_cell_length_a	15.538191
_cell_length_b	19.188930
_cell_length_c	14.185569
_cell_angle_alpha	76.885558
_cell_angle_beta	97.875798
_cell_angle_gamma	65.208438
loop_
_atom_site_label
_atom_site_type_symbol
_atom_site_fract_x
_atom_site_fract_y
_atom_site_fract_z
O1	O	1.229395	-0.205739	-0.083403
O2	O	0.954801	-0.125034	-0.083413
O3	O	1.100027	-0.269037	-0.083388
O4	O	1.084169	-0.061735	-0.083427
O5	O	1.142929	-0.311574	0.083454
O6	O	0.997702	-0.167570	0.083429
O7	O	1.272296	-0.248275	0.083439
Cu8	Cu	1.138916	-0.211807	0.098668
Cu9	Cu	1.088181	-0.161503	-0.098642
O10	O	1.127070	-0.104272	0.083415
C11	C	0.941121	-0.137858	0.000007
C12	C	0.836443	-0.112707	0.000004
C13	C	0.549690	-0.362580	0.000037
C14	C	0.451326	-0.338928	0.000032
C15	C	0.428328	-0.205894	0.000006
C16	C	0.526694	-0.229535	0.000016
C17	C	0.587368	-0.307879	0.000031
C18	C	0.564371	-0.174835	0.000010
C19	C	0.662727	-0.198474	0.000015
C20	C	0.723406	-0.276813	0.000026
C21	C	0.685724	-0.331518	0.000035
C22	C	0.503694	-0.096489	-0.000011
C23	C	0.541372	-0.041789	-0.000017
C24	C	0.639731	-0.065429	-0.000005
C25	C	0.700410	-0.143769	0.000006
C26	C	0.677414	-0.010724	-0.000015
C27	C	0.775770	-0.034363	-0.000010
C28	C	0.798766	-0.167408	0.000011
C29	C	1.120966	-0.316188	0.000036
C30	C	1.119427	-0.393308	0.000045
C31	C	1.204639	-0.459636	0.000053
C32	C	1.203188	-0.532092	0.000037
C33	C	1.116524	-0.538221	0.000033
C34	C	1.031299	-0.471879	0.000019
C35	C	1.032751	-0.399423	0.000025
N36	N	1.064881	-0.644063	0.056810
N37	N	1.063508	-0.712897	0.056806
C38	C	1.112146	-0.756526	0.000012
N39	N	1.162225	-0.728730	-0.056765
N40	N	1.163601	-0.659893	-0.056757
C41	C	1.114941	-0.616785	0.000025
C42	C	1.195790	-0.901421	0.000001
C43	C	1.194333	-0.973876	-0.000021
C44	C	1.022445	-0.913663	-0.000028
C45	C	1.023901	-0.841208	-0.000016
C46	C	1.110577	-0.835093	0.000003
C47	C	1.285976	-0.235450	0.000017
C48	C	1.390652	-0.260600	0.000014
C49	C	1.106131	-0.057120	-0.000012
C50	C	1.107668	0.020001	-0.000027
N51	N	1.174608	-0.247190	0.237446
N52	N	1.052497	-0.126126	-0.237419
C53	C	0.947635	-0.022200	0.605057
C54	C	0.974678	-0.049000	0.710083
C55	C	1.103301	-0.176486	0.710066
C56	C	1.076267	-0.149699	0.605037
C57	C	0.998434	-0.072555	0.552541
C58	C	1.127065	-0.200053	0.552522
C59	C	1.100036	-0.173266	0.447503
C60	C	1.022208	-0.096124	0.394999
C61	C	0.971404	-0.045768	0.447522
C62	C	1.204902	-0.277194	0.605020
C63	C	1.255701	-0.327549	0.552505
C64	C	1.228667	-0.300764	0.447484
C65	C	1.150839	-0.223623	0.394980
C66	C	1.279470	-0.351121	0.394961
C67	C	1.252441	-0.324334	0.289942
C68	C	1.123810	-0.196836	0.289961
H69	H	0.735130	-0.395315	0.000053
H70	H	1.266365	-0.896442	0.000013
H71	H	1.319076	-0.390359	0.595259
H72	H	0.963359	-0.345415	0.000019
H73	H	1.263724	-1.027882	-0.000020
H74	H	0.954513	-0.787202	-0.000017
H75	H	0.420654	-0.383478	0.000035
H76	H	0.951880	-0.918651	-0.000037
N77	N	1.290247	-0.599854	0.000064
N78	N	1.366028	-0.629855	0.070405
H79	H	1.427515	-0.677710	0.070428
H80	H	1.166676	-0.239296	0.752820
N81	N	0.942764	-0.478119	0.000011
N82	N	0.867298	-0.431930	-0.070319
H83	H	0.804765	-0.436332	-0.070329
H84	H	0.599096	-0.426377	0.000054
H85	H	1.060424	-0.134021	0.247216
N86	N	1.232521	-0.304563	0.712295
N87	N	1.317378	-0.323381	0.759162
H88	H	1.336881	-0.342709	0.834925
N89	N	0.615418	0.069294	-0.000027
N90	N	0.576041	0.079398	0.070290
H91	H	0.532254	0.135913	0.070281
H92	H	1.342849	-0.413929	0.437717
H93	H	0.848172	-0.231205	0.000028
N94	N	0.994610	-0.068735	0.287724
N95	N	1.055348	-0.063632	0.240845
H96	H	1.035859	-0.044281	0.165082
H97	H	0.908018	0.017047	0.404777
N98	N	0.868120	0.056600	0.551439
N99	N	0.822762	0.101553	0.598336
H100	H	0.766607	0.157204	0.560470
N101	N	0.922769	0.002449	0.763711
N102	N	0.853278	0.071322	0.716823
H103	H	0.816616	0.107657	0.754697
H104	H	0.806449	0.010177	-0.000006
N105	N	1.304190	-0.375779	0.236236
N106	N	1.306046	-0.443000	0.247972
H107	H	1.342545	-0.479333	0.210015
N108	N	0.823881	-0.300971	0.000054
N109	N	0.890992	-0.359152	0.070395
H110	H	0.961954	-0.376214	0.070417
N111	N	0.366353	-0.125877	0.000016
N112	N	0.387721	-0.101915	0.070346
H113	H	0.343952	-0.045403	0.070357
H114	H	0.423606	-0.077244	-0.000018
H115	H	0.491957	0.022000	-0.000033
H116	H	1.275217	-0.454664	0.000065
