data_functionalizedCrystal
_audit_creation_method	'MofGen! by Chris Wilmer'
_symmetry_space_group_name_H-M	'P1'
_symmetry_Int_Tables_number	1
_symmetry_cell_setting	triclinic
loop_
_symmetry_equiv_pos_as_xyz
  x,y,z
_cell_length_a	14.853566
_cell_length_b	15.944493
_cell_length_c	13.930277
_cell_angle_alpha	90.001318
_cell_angle_beta	89.995631
_cell_angle_gamma	83.554729
loop_
_atom_site_label
_atom_site_type_symbol
_atom_site_fract_x
_atom_site_fract_y
_atom_site_fract_z
O1	O	1.196204	0.109662	-0.079755
O2	O	1.696204	0.609662	0.420245
O3	O	0.933724	0.122728	-0.079769
O4	O	1.433724	0.622728	0.420231
O5	O	1.072159	-0.006075	-0.079769
O6	O	1.572159	0.493925	0.420231
O7	O	1.057769	0.238465	-0.079754
O8	O	1.557769	0.738465	0.420246
O9	O	1.072140	-0.006078	0.079893
O10	O	1.572140	0.493922	0.579893
O11	O	0.933705	0.122725	0.079893
O12	O	1.433705	0.622725	0.579893
O13	O	1.196185	0.109660	0.079907
O14	O	1.696185	0.609660	0.579907
Zn15	Zn	1.064942	0.116192	0.105250
Zn16	Zn	1.564942	0.616192	0.605250
Zn17	Zn	1.064967	0.116195	-0.105111
Zn18	Zn	1.564967	0.616195	0.394889
O19	O	1.057750	0.238462	0.079908
O20	O	1.557750	0.738462	0.579908
C21	C	0.900127	0.122134	0.000060
C22	C	1.400127	0.622134	0.500060
C23	C	0.800046	0.120361	0.000054
C24	C	1.300046	0.620361	0.500054
C25	C	0.376883	0.112861	-0.086961
C26	C	0.876883	0.612861	0.413039
C27	C	0.376883	0.112859	0.087108
C28	C	0.876883	0.612859	0.587108
C29	C	0.470915	0.114524	0.087105
C30	C	0.970915	0.614524	0.587105
C31	C	0.517935	0.115360	0.000068
C32	C	1.017935	0.615360	0.500068
C33	C	0.470923	0.114529	-0.086967
C34	C	0.970923	0.614529	0.413033
C35	C	0.517932	0.115363	0.174138
C36	C	1.017932	0.615363	0.674138
C37	C	0.611970	0.117029	0.174139
C38	C	1.111970	0.617029	0.674139
C39	C	0.658992	0.117859	0.087100
C40	C	1.158992	0.617859	0.587100
C41	C	0.611974	0.117028	0.000062
C42	C	1.111974	0.617028	0.500062
C43	C	0.658994	0.117863	-0.086975
C44	C	1.158994	0.617863	0.413025
C45	C	0.611979	0.117026	-0.174015
C46	C	1.111979	0.617026	0.325985
C47	C	0.517945	0.115359	-0.174006
C48	C	1.017945	0.615359	0.325994
C49	C	0.753026	0.119526	0.087091
C50	C	1.253026	0.619526	0.587091
C51	C	0.753034	0.119531	-0.086981
C52	C	1.253034	0.619531	0.413019
C53	C	1.071561	-0.037372	0.000057
C54	C	1.571561	0.462628	0.500057
C55	C	1.069798	-0.130623	0.000045
C56	C	1.569798	0.369377	0.500045
C57	C	1.151284	-0.366292	0.000068
C58	C	1.651284	0.133708	0.500068
C59	C	1.107351	-0.416907	-0.078656
C60	C	1.607351	0.083093	0.421344
C61	C	1.066531	-0.301347	0.000057
C62	C	1.566531	0.198653	0.500057
C63	C	1.107312	-0.416886	0.078758
C64	C	1.607312	0.083114	0.578758
C65	C	1.063381	-0.466260	0.000072
C66	C	1.563381	0.033740	0.500072
C67	C	1.022621	-0.350734	-0.078732
C68	C	1.522621	0.149266	0.421268
C69	C	1.022595	-0.350710	0.078753
C70	C	1.522595	0.149290	0.578753
C71	C	0.978600	-0.401293	0.000010
C72	C	1.478600	0.098707	0.500010
C73	C	1.068348	-0.206345	0.000047
C74	C	1.568348	0.293655	0.500047
C75	C	1.061558	-0.561260	0.000075
C76	C	1.561558	-0.061260	0.500075
C77	C	1.229782	0.110253	0.000076
C78	C	1.729782	0.610253	0.500076
C79	C	1.329863	0.112026	0.000076
C80	C	1.829863	0.612026	0.500076
C81	C	1.058348	0.269759	0.000079
C82	C	1.558348	0.769759	0.500079
C83	C	1.060111	0.363010	0.000085
C84	C	1.560111	0.863010	0.500085
N85	N	1.064931	0.116189	0.248816
N86	N	1.564931	0.616189	0.748816
N87	N	1.064985	0.116192	-0.248678
N88	N	1.564985	0.616192	0.251322
C89	C	1.003666	0.173207	0.701085
C90	C	1.503666	0.673207	1.201085
C91	C	1.126293	0.059177	0.701054
C92	C	1.626293	0.559177	1.201054
C93	C	1.126283	0.059175	0.600559
C94	C	1.626283	0.559175	1.100559
C95	C	1.064964	0.116190	0.550322
C96	C	1.564964	0.616190	1.050322
C97	C	1.003655	0.173208	0.600580
C98	C	1.503655	0.673208	1.100580
C99	C	1.187596	0.002164	0.550293
C100	C	1.687596	0.502164	1.050293
C101	C	1.187588	0.002159	0.449791
C102	C	1.687588	0.502159	0.949791
C103	C	1.126264	0.059171	0.399552
C104	C	1.626264	0.559171	0.899552
C105	C	1.064953	0.116191	0.449817
C106	C	1.564953	0.616191	0.949817
C107	C	1.003634	0.173206	0.399580
C108	C	1.503634	0.673206	0.899580
C109	C	0.942317	0.230222	0.449843
C110	C	1.442317	0.730222	0.949843
C111	C	0.942331	0.230219	0.550342
C112	C	1.442331	0.730219	1.050342
C113	C	1.126250	0.059174	0.299053
C114	C	1.626250	0.559174	0.799053
C115	C	1.003623	0.173207	0.299075
C116	C	1.503623	0.673207	0.799075
H117	H	0.650242	0.117709	0.245012
H118	H	1.150242	0.617709	0.745012
H119	H	1.176177	0.012756	0.258133
H120	H	1.676177	0.512756	0.758133
F121	F	1.246704	-0.345756	-0.000027
F122	F	1.746704	0.154244	0.499973
F123	F	1.252843	-0.058522	0.396304
F124	F	1.752843	0.441478	0.896304
F125	F	0.938408	0.233882	0.754577
F126	F	1.438408	0.733882	1.254577
H127	H	0.338600	0.112176	-0.157827
H128	H	0.838600	0.612176	0.342173
H129	H	0.338593	0.112185	0.157970
H130	H	0.838593	0.612185	0.657970
H131	H	0.905539	-0.416840	-0.000037
H132	H	1.405539	0.083160	0.499963
F133	F	0.975877	-0.313119	-0.165819
F134	F	1.475877	0.186881	0.334181
F135	F	1.191556	-0.001494	0.754520
F136	F	1.691556	0.498506	1.254520
H137	H	0.479641	0.114689	0.244999
H138	H	0.979641	0.614689	0.744999
F139	F	0.975856	-0.312892	0.165745
F140	F	1.475856	0.187108	0.665745
H141	H	0.650274	0.117712	-0.244880
H142	H	1.150274	0.617712	0.255120
F143	F	0.803070	0.120414	-0.179620
F144	F	1.303070	0.620414	0.320380
F145	F	1.154106	-0.454649	0.165746
F146	F	1.654106	0.045351	0.665746
H147	H	0.953686	0.219632	0.258178
H148	H	1.453686	0.719632	0.758178
H149	H	1.237524	-0.044252	0.591199
H150	H	1.737524	0.455748	1.091199
H151	H	0.892394	0.276648	0.408928
H152	H	1.392394	0.776648	0.908928
H153	H	0.479657	0.114676	-0.244868
H154	H	0.979657	0.614676	0.255132
F155	F	0.803058	0.120423	0.179718
F156	F	1.303058	0.620423	0.679718
F157	F	1.154143	-0.454691	-0.165643
F158	F	1.654143	0.045309	0.334357
H159	H	0.892410	0.276641	0.591272
H160	H	1.392410	0.776641	1.091272
