data_functionalizedCrystal
_audit_creation_method	'MofGen! by Chris Wilmer'
_symmetry_space_group_name_H-M	'P1'
_symmetry_Int_Tables_number	1
_symmetry_cell_setting	triclinic
loop_
_symmetry_equiv_pos_as_xyz
  x,y,z
_cell_length_a	14.971486
_cell_length_b	10.540539
_cell_length_c	14.048226
_cell_angle_alpha	89.995726
_cell_angle_beta	89.998499
_cell_angle_gamma	84.069810
loop_
_atom_site_label
_atom_site_type_symbol
_atom_site_fract_x
_atom_site_fract_y
_atom_site_fract_z
O1	O	1.187879	0.165423	-0.079046
O2	O	0.927591	0.185233	-0.079072
O3	O	1.063673	-0.009446	-0.079057
O4	O	1.051796	0.360102	-0.079061
O5	O	1.063657	-0.009457	0.079264
O6	O	0.927574	0.185221	0.079249
O7	O	1.187862	0.165412	0.079275
Zn8	Zn	1.057716	0.175315	0.104399
Zn9	Zn	1.057737	0.175330	-0.104196
O10	O	1.051780	0.360090	0.079260
C11	C	0.894253	0.184341	0.000085
C12	C	0.794940	0.181686	0.000076
C13	C	0.738360	0.296055	0.000076
C14	C	0.645046	0.293553	0.000090
C15	C	0.608315	0.176681	0.000097
C16	C	0.664903	0.062303	0.000100
C17	C	0.758215	0.064807	0.000092
C18	C	0.470412	0.057094	0.000113
C19	C	0.377093	0.054590	0.000119
C20	C	0.357242	0.285839	0.000111
C21	C	0.450554	0.288343	0.000103
C22	C	0.507136	0.173965	0.000104
C23	C	1.062774	-0.056745	0.000101
C24	C	1.060109	-0.197662	0.000096
C25	C	0.958001	-0.379931	-0.000269
C26	C	0.960702	-0.233343	0.000087
C27	C	1.107939	-0.259870	0.090510
C28	C	1.104547	-0.406376	0.090586
C29	C	1.106587	-0.406904	-0.089455
C30	C	1.107503	-0.259932	-0.090650
C31	C	1.221200	0.166303	0.000115
C32	C	1.320512	0.168958	0.000119
C33	C	1.052679	0.407389	0.000099
C34	C	1.055344	0.548307	0.000099
N35	N	1.057707	0.175303	0.246760
N36	N	1.057753	0.175331	-0.246557
C37	C	1.117984	0.089135	0.296584
C38	C	1.117990	0.089135	0.396242
C39	C	1.057723	0.175309	0.446073
C40	C	0.997440	0.261481	0.396242
C41	C	0.997430	0.261475	0.296586
C42	C	0.997466	0.261491	0.603956
C43	C	0.997476	0.261499	0.703619
C44	C	1.118025	0.089150	0.703612
C45	C	1.118016	0.089144	0.603956
C46	C	1.057733	0.175318	0.554132
H47	H	0.634990	-0.032856	0.000119
H48	H	1.176039	-0.455156	0.094694
H49	H	1.179979	-0.236533	-0.096103
C50	C	1.184303	-0.005638	0.451045
H51	H	1.220203	-0.056947	0.407094
H52	H	1.151806	-0.058562	0.489933
H53	H	1.221827	0.040134	0.489907
H54	H	1.167094	0.018981	0.563384
H55	H	1.178389	-0.454944	-0.090056
H56	H	1.167064	0.018968	0.256018
H57	H	0.598981	0.386683	0.000089
C58	C	1.060308	-0.204078	-0.181015
H59	H	1.089285	-0.242122	-0.235668
H60	H	1.063288	-0.114519	-0.182675
H61	H	0.999234	-0.221149	-0.180457
H62	H	0.948400	0.331670	0.744186
H63	H	0.480457	0.383510	0.000088
C64	C	1.184328	-0.005649	0.758414
H65	H	1.175696	0.006682	0.824903
H66	H	1.244108	0.008275	0.742076
H67	H	1.174069	-0.090395	0.742086
H68	H	0.918739	-0.408080	-0.065107
C69	C	0.931160	0.356286	0.549151
H70	H	0.895276	0.407620	0.593100
H71	H	0.893633	0.310540	0.510282
H72	H	0.963677	0.409202	0.510269
H73	H	0.948365	0.331642	0.436820
C74	C	0.295007	0.411653	0.000113
H75	H	0.234173	0.393427	0.000128
H76	H	0.306217	0.459568	-0.055102
H77	H	0.306225	0.459570	0.055325
H78	H	0.918886	-0.409699	0.064198
C79	C	0.931130	0.356265	0.241779
H80	H	0.895243	0.407597	0.285728
H81	H	0.893604	0.310512	0.202912
H82	H	0.963642	0.409184	0.202895
C83	C	0.336690	-0.073966	0.000132
H84	H	0.383751	-0.141727	0.000145
H85	H	0.300701	-0.079749	-0.055076
H86	H	0.300703	-0.079740	0.055352
H87	H	0.922789	-0.191162	0.065001
C88	C	1.056767	-0.443947	0.181869
H89	H	1.054279	-0.533638	0.182722
H90	H	0.997523	-0.401892	0.183267
H91	H	1.089034	-0.419503	0.235939
C92	C	0.778755	0.424616	0.000067
H93	H	0.731690	0.492370	0.000078
H94	H	0.814741	0.430406	-0.055145
H95	H	0.814745	0.430394	0.055282
H96	H	0.516479	-0.036045	0.000115
C97	C	0.820458	-0.060995	0.000091
H98	H	0.881291	-0.042766	0.000096
H99	H	0.809245	-0.108914	-0.055115
H100	H	0.809245	-0.108909	0.055312
C101	C	1.206555	-0.230787	0.095072
H102	H	1.219463	-0.180322	0.041751
H103	H	1.244843	-0.308480	0.094238
H104	H	1.216193	-0.185588	0.152038
C105	C	0.909864	-0.175193	-0.087466
H106	H	0.911455	-0.085324	-0.087368
H107	H	0.849249	-0.194222	-0.085240
H108	H	0.937537	-0.210153	-0.143812
C109	C	1.063040	-0.201836	0.181400
H110	H	1.092462	-0.240094	0.235735
H111	H	1.001602	-0.217045	0.182205
H112	H	1.067370	-0.112559	0.182336
C113	C	1.063133	-0.449017	-0.182031
H114	H	1.013325	-0.494313	-0.166928
H115	H	1.105949	-0.502729	-0.217329
H116	H	1.043292	-0.375975	-0.218938
