data_functionalizedCrystal
_audit_creation_method	'MofGen! by Chris Wilmer'
_symmetry_space_group_name_H-M	'P1'
_symmetry_Int_Tables_number	1
_symmetry_cell_setting	triclinic
loop_
_symmetry_equiv_pos_as_xyz
  x,y,z
_cell_length_a	14.044220
_cell_length_b	18.266242
_cell_length_c	14.044190
_cell_angle_alpha	90.010750
_cell_angle_beta	93.190328
_cell_angle_gamma	90.003954
loop_
_atom_site_label
_atom_site_type_symbol
_atom_site_fract_x
_atom_site_fract_y
_atom_site_fract_z
O1	O	1.277180	0.060818	0.230170
O2	O	1.610513	0.394151	0.563504
O3	O	1.943847	0.727485	0.896837
O4	O	1.000508	0.060836	0.221865
O5	O	1.333842	0.394169	0.555198
O6	O	1.667175	0.727503	0.888531
O7	O	1.134688	0.060813	0.087681
O8	O	1.468021	0.394146	0.421015
O9	O	1.801355	0.727479	0.754348
O10	O	1.143001	0.060841	0.364354
O11	O	1.476334	0.394174	0.697687
O12	O	1.809667	0.727508	1.031020
O13	O	1.134662	-0.060949	0.087672
O14	O	1.467996	0.272384	0.421005
O15	O	1.801329	0.605717	0.754338
O16	O	1.000483	-0.060926	0.221855
O17	O	1.333816	0.272407	0.555188
O18	O	1.667150	0.605741	0.888522
O19	O	1.277155	-0.060944	0.230161
O20	O	1.610488	0.272389	0.563494
O21	O	1.943821	0.605723	0.896827
Zn22	Zn	1.138815	-0.080267	0.226006
Zn23	Zn	1.472148	0.253066	0.559340
Zn24	Zn	1.805481	0.586399	0.892673
Zn25	Zn	1.138848	0.080159	0.226019
Zn26	Zn	1.472182	0.413493	0.559352
Zn27	Zn	1.805515	0.746826	0.892686
O28	O	1.142975	-0.060921	0.364344
O29	O	1.476308	0.272412	0.697677
O30	O	1.809642	0.605746	1.031011
C31	C	0.964874	-0.000043	0.218224
C32	C	1.298207	0.333290	0.551557
C33	C	1.631540	0.666624	0.884891
C34	C	0.858731	-0.000037	0.207380
C35	C	1.192064	0.333297	0.540713
C36	C	1.525397	0.666630	0.874046
N37	N	1.138799	-0.189754	0.225998
N38	N	1.472132	0.143579	0.559331
N39	N	1.805465	0.476912	0.892664
C40	C	0.664392	-0.000053	0.187553
C41	C	0.997726	0.333280	0.520887
C42	C	1.331059	0.666613	0.854220
C43	C	0.613264	-0.000048	0.264468
C44	C	0.946598	0.333285	0.597801
C45	C	1.279931	0.666618	0.931135
C46	C	0.505128	-0.000058	0.253436
C47	C	0.838461	0.333276	0.586770
C48	C	1.171795	0.666609	0.920103
C49	C	0.772539	-0.000044	0.198583
C50	C	1.105872	0.333289	0.531917
C51	C	1.439205	0.666623	0.865250
C52	C	1.198237	-0.228073	0.166615
C53	C	1.531571	0.105260	0.499948
C54	C	1.864904	0.438593	0.833282
C55	C	1.198243	-0.304718	0.166611
C56	C	1.531576	0.028615	0.499944
C57	C	1.864910	0.361948	0.833278
C58	C	1.138821	-0.343041	0.226007
C59	C	1.472154	-0.009708	0.559340
C60	C	1.805487	0.323625	0.892674
C61	C	1.079370	-0.304713	0.285394
C62	C	1.412703	0.028620	0.618727
C63	C	1.746037	0.361954	0.952060
C64	C	1.079359	-0.228069	0.285389
C65	C	1.412692	0.105264	0.618722
C66	C	1.746026	0.438597	0.952056
N67	N	1.133814	-0.463365	0.309457
N68	N	1.467147	-0.130031	0.642790
N69	N	1.800480	0.203302	0.976123
N70	N	1.133829	-0.536173	0.309459
N71	N	1.467163	-0.202839	0.642792
N72	N	1.800496	0.130494	0.976125
C73	C	1.138848	-0.573964	0.226023
C74	C	1.472182	-0.240630	0.559357
C75	C	1.805515	0.092703	0.892690
N76	N	1.143870	-0.536196	0.142584
N77	N	1.477203	-0.202863	0.475918
N78	N	1.810536	0.130471	0.809251
N79	N	1.143859	-0.463381	0.142584
N80	N	1.477192	-0.130048	0.475917
N81	N	1.810525	0.203285	0.809250
C82	C	1.138825	-0.426148	0.226018
C83	C	1.472159	-0.092815	0.559352
C84	C	1.805492	0.240518	0.892685
C85	C	1.198296	-0.695390	0.166631
C86	C	1.531630	-0.362057	0.499964
C87	C	1.864963	-0.028723	0.833298
C88	C	1.198295	-0.772036	0.166625
C89	C	1.531629	-0.438703	0.499959
C90	C	1.864962	-0.105370	0.833292
C91	C	1.079428	-0.772029	0.285417
C92	C	1.412761	-0.438696	0.618750
C93	C	1.746094	-0.105363	0.952083
C94	C	1.079424	-0.695384	0.285414
C95	C	1.412757	-0.362051	0.618747
C96	C	1.746090	-0.028718	0.952080
C97	C	1.138863	-0.657069	0.226022
C98	C	1.472196	-0.323736	0.559356
C99	C	1.805530	0.009597	0.892689
C100	C	1.312789	-0.000064	0.233801
C101	C	1.646123	0.333270	0.567135
C102	C	1.979456	0.666603	0.900468
C103	C	1.418932	-0.000065	0.244646
C104	C	1.752266	0.333268	0.577979
C105	C	2.085599	0.666602	0.911312
C106	C	1.131039	-0.000070	0.052054
C107	C	1.464372	0.333263	0.385388
C108	C	1.797705	0.666597	0.718721
C109	C	1.120191	-0.000076	-0.054089
C110	C	1.453525	0.333258	0.279245
C111	C	1.786858	0.666591	0.612578
N112	N	1.138871	0.189646	0.226021
N113	N	1.472205	0.522980	0.559354
N114	N	1.805538	0.856313	0.892687
C115	C	1.177292	-0.000051	-0.299547
C116	C	1.510625	0.333283	0.033786
C117	C	1.843958	0.666616	0.367120
C118	C	1.100375	-0.000051	-0.248422
C119	C	1.433709	0.333282	0.084912
C120	C	1.767042	0.666616	0.418245
C121	C	1.111404	-0.000065	-0.140285
C122	C	1.444737	0.333269	0.193049
C123	C	1.778070	0.666602	0.526382
C124	C	1.166265	-0.000037	-0.407694
C125	C	1.499598	0.333296	-0.074361
C126	C	1.832932	0.666630	0.258973
C127	C	1.146624	-0.000036	0.399971
C128	C	1.479958	0.333297	0.733304
C129	C	1.813291	0.666630	1.066638
C130	C	1.157472	-0.000026	0.506114
C131	C	1.490805	0.333307	0.839447
C132	C	1.824138	0.666641	1.172781
H133	H	0.650706	-0.000037	0.338602
H134	H	0.984039	0.333296	0.671935
H135	H	1.317372	0.666629	1.005268
H136	H	1.026243	-0.000042	-0.285865
H137	H	1.359576	0.333291	0.047468
H138	H	1.692910	0.666625	0.380802
H139	H	1.251418	-0.000063	-0.262106
H140	H	1.584752	0.333270	0.071227
H141	H	1.918085	0.666603	0.404561
H142	H	1.246694	-0.803236	0.118263
H143	H	1.580028	-0.469903	0.451597
H144	H	1.913361	-0.136570	0.784930
F145	F	1.261493	-0.187297	0.103403
F146	F	1.594827	0.146036	0.436736
F147	F	1.928160	0.479369	0.770069
H148	H	0.626954	-0.000065	0.113425
H149	H	0.960287	0.333269	0.446759
H150	H	1.293620	0.666602	0.780092
H151	H	1.246693	-0.664192	0.118268
H152	H	1.580026	-0.330859	0.451601
H153	H	1.913359	0.002474	0.784934
H154	H	1.030986	-0.335919	0.333753
H155	H	1.364319	-0.002586	0.667087
H156	H	1.697652	0.330747	1.000420
F157	F	1.261509	-0.345507	0.103404
F158	F	1.594843	-0.012174	0.436738
F159	F	1.928176	0.321160	0.770071
H160	H	1.030956	-0.196869	0.333746
H161	H	1.364289	0.136464	0.667080
H162	H	1.697623	0.469797	1.000413
H163	H	1.031041	-0.803231	0.333774
H164	H	1.364374	-0.469898	0.667107
H165	H	1.697708	-0.136564	1.000441
F166	F	1.016165	-0.654599	0.348622
F167	F	1.349498	-0.321266	0.681955
F168	F	1.682832	0.012067	1.015288
