data_functionalizedCrystal
_audit_creation_method	'MofGen! by Chris Wilmer'
_symmetry_space_group_name_H-M	'P1'
_symmetry_Int_Tables_number	1
_symmetry_cell_setting	triclinic
loop_
_symmetry_equiv_pos_as_xyz
  x,y,z
_cell_length_a	16.109302
_cell_length_b	14.044190
_cell_length_c	14.586319
_cell_angle_alpha	89.991348
_cell_angle_beta	89.994552
_cell_angle_gamma	88.326779
loop_
_atom_site_label
_atom_site_type_symbol
_atom_site_fract_x
_atom_site_fract_y
_atom_site_fract_z
O1	O	1.112198	0.121838	-0.076292
O2	O	1.612198	0.621838	0.423708
O3	O	0.871264	0.136999	-0.076287
O4	O	1.371264	0.636999	0.423713
O5	O	0.988112	-0.008565	-0.076271
O6	O	1.488112	0.491435	0.423729
O7	O	0.995351	0.267402	-0.076308
O8	O	1.495351	0.767402	0.423692
O9	O	0.988103	-0.008567	0.076209
O10	O	1.488103	0.491433	0.576209
O11	O	0.871255	0.136997	0.076194
O12	O	1.371255	0.636997	0.576194
O13	O	1.112189	0.121836	0.076188
O14	O	1.612189	0.621836	0.576188
Cu15	Cu	0.991721	0.129416	0.090114
Cu16	Cu	1.491721	0.629416	0.590114
Cu17	Cu	0.991732	0.129419	-0.090212
Cu18	Cu	1.491732	0.629419	0.409788
O19	O	0.995342	0.267400	0.076173
O20	O	1.495342	0.767400	0.576173
C21	C	0.840239	0.136384	-0.000045
C22	C	1.340239	0.636384	0.499955
C23	C	0.747807	0.134543	-0.000042
C24	C	1.247807	0.634543	0.499958
C25	C	0.535144	0.130283	0.083067
C26	C	1.035144	0.630283	0.583067
C27	C	0.448295	0.128542	0.083064
C28	C	0.948295	0.628542	0.583064
C29	C	0.448315	0.128550	-0.083179
C30	C	0.948315	0.628550	0.416821
C31	C	0.535164	0.130283	-0.083175
C32	C	1.035164	0.630283	0.416825
C33	C	0.578576	0.131155	-0.000050
C34	C	1.078576	0.631155	0.499950
C35	C	0.404878	0.127681	-0.000056
C36	C	0.904878	0.627681	0.499944
C37	C	0.310712	0.125793	-0.000060
C38	C	0.810712	0.625793	0.499940
C39	C	0.672748	0.133040	-0.000045
C40	C	1.172748	0.633040	0.499955
C41	C	0.984940	-0.043879	-0.000028
C42	C	1.484940	0.456121	0.499972
C43	C	0.975494	-0.149103	-0.000020
C44	C	1.475494	0.350897	0.499980
C45	C	1.025219	-0.399404	-0.000057
C46	C	1.525219	0.100596	0.499943
C47	C	0.958238	-0.341755	-0.000049
C48	C	1.458238	0.158245	0.499951
C49	C	0.967842	-0.234553	-0.000033
C50	C	1.467842	0.265447	0.499967
C51	C	1.015617	-0.506616	-0.000073
C52	C	1.515617	-0.006616	0.499927
C53	C	1.143214	0.122451	-0.000055
C54	C	1.643214	0.622451	0.499945
C55	C	1.235646	0.124293	-0.000064
C56	C	1.735646	0.624293	0.499936
C57	C	0.998513	0.302715	-0.000072
C58	C	1.498513	0.802715	0.499928
C59	C	1.007959	0.407938	-0.000086
C60	C	1.507959	0.907938	0.499914
N61	N	0.991720	0.129414	0.216946
N62	N	1.491720	0.629414	0.716946
N63	N	0.991740	0.129414	-0.217044
N64	N	1.491740	0.629414	0.282956
C65	C	1.043480	0.064980	0.451959
C66	C	1.543480	0.564980	0.951959
C67	C	1.043482	0.064977	0.547940
C68	C	1.543482	0.564977	1.047940
C69	C	0.939973	0.193851	0.547936
C70	C	1.439973	0.693851	1.047936
C71	C	0.939967	0.193848	0.451957
C72	C	1.439967	0.693848	0.951957
C73	C	0.991726	0.129414	0.403971
C74	C	1.491726	0.629414	0.903971
C75	C	0.991734	0.129414	0.595931
C76	C	1.491734	0.629414	1.095931
C77	C	0.991736	0.129412	0.699998
C78	C	1.491736	0.629412	1.199998
C79	C	0.991723	0.129414	0.299897
C80	C	1.491723	0.629414	0.799897
H81	H	0.412937	0.127833	0.150745
H82	H	0.912937	0.627833	0.650745
H83	H	0.412959	0.127841	-0.150857
H84	H	0.912959	0.627841	0.349143
H85	H	0.897819	0.246318	0.412882
H86	H	1.397819	0.746318	0.912882
O87	O	0.582020	0.131220	-0.172824
O88	O	1.082020	0.631220	0.327176
H89	H	0.562746	0.195458	-0.212690
H90	H	1.062746	0.695458	0.287310
O91	O	0.581971	0.131225	0.172718
O92	O	1.081971	0.631225	0.672718
H93	H	0.537176	0.130321	0.230513
H94	H	1.037176	0.630321	0.730513
O95	O	0.884163	0.263361	0.599691
O96	O	1.384163	0.763361	1.099691
H97	H	0.840801	0.223458	0.643445
H98	H	1.340801	0.723458	1.143445
O99	O	0.872721	-0.383011	-0.000041
O100	O	1.372721	0.116989	0.499959
H101	H	0.878497	-0.461959	-0.000041
H102	H	1.378497	0.038041	0.499959
O103	O	1.110730	-0.358148	-0.000047
O104	O	1.610730	0.141852	0.499953
H105	H	1.118284	-0.313656	0.062114
H106	H	1.618284	0.186344	0.562114
O107	O	1.099292	-0.004524	0.400198
O108	O	1.599292	0.495476	0.900198
H109	H	1.135273	-0.049336	0.449696
H110	H	1.635273	0.450664	0.949696
O111	O	1.099314	-0.004507	0.599703
O112	O	1.599314	0.495493	1.099703
H113	H	1.135308	-0.049302	0.550207
H114	H	1.635308	0.450698	1.050207
