data_functionalizedCrystal
_audit_creation_method	'MofGen! by Chris Wilmer'
_symmetry_space_group_name_H-M	'P1'
_symmetry_Int_Tables_number	1
_symmetry_cell_setting	triclinic
loop_
_symmetry_equiv_pos_as_xyz
  x,y,z
_cell_length_a	19.805407
_cell_length_b	19.805405
_cell_length_c	19.805399
_cell_angle_alpha	89.971978
_cell_angle_beta	89.984884
_cell_angle_gamma	90.024042
loop_
_atom_site_label
_atom_site_type_symbol
_atom_site_fract_x
_atom_site_fract_y
_atom_site_fract_z
Zn1	Zn	1.034716	-0.269518	-0.382692
Zn2	Zn	1.034636	-0.382709	-0.269506
Zn3	Zn	0.921536	-0.269534	-0.269520
Zn4	Zn	0.921494	-0.382665	-0.382656
O5	O	0.978095	-0.326107	-0.326094
O6	O	1.129422	-0.284545	-0.367687
O7	O	1.019617	-0.367721	-0.174791
O8	O	0.936601	-0.174815	-0.284554
O9	O	1.129363	-0.367706	-0.284529
O10	O	1.019754	-0.174803	-0.367701
O11	O	0.936523	-0.284572	-0.174802
O12	O	0.826814	-0.284529	-0.284519
O13	O	0.936529	-0.367631	-0.477378
O14	O	0.826783	-0.367646	-0.367639
O15	O	1.019713	-0.284502	-0.477404
O16	O	1.019576	-0.477420	-0.284494
O17	O	0.936451	-0.477387	-0.367625
C18	C	0.802239	-0.326085	-0.326077
C19	C	0.727007	-0.326093	-0.326086
C20	C	0.691695	-0.282867	-0.369452
C21	C	0.621006	-0.282871	-0.369455
C22	C	0.585632	-0.326104	-0.326094
C23	C	0.620950	-0.369331	-0.282724
C24	C	0.691637	-0.369323	-0.282718
C25	C	0.335876	-0.369361	-0.282744
C26	C	0.265184	-0.369367	-0.282755
C27	C	0.265246	-0.282909	-0.369481
C28	C	0.335933	-0.282901	-0.369476
C29	C	0.371245	-0.326126	-0.326103
C30	C	0.447893	-0.326120	-0.326099
C31	C	0.508985	-0.326113	-0.326100
C32	C	0.978018	-0.501963	-0.326069
C33	C	0.978047	-0.577195	-0.326081
C34	C	1.021319	-0.612474	-0.369410
C35	C	1.021344	-0.683163	-0.369422
C36	C	0.978099	-0.718570	-0.326103
C37	C	0.934822	-0.683285	-0.282772
C38	C	0.934795	-0.612598	-0.282763
C39	C	0.934931	-0.968359	-0.282807
C40	C	0.934963	-1.039051	-0.282817
C41	C	1.021480	-1.038923	-0.369466
C42	C	1.021453	-0.968236	-0.369457
C43	C	0.978173	-0.932957	-0.326129
C44	C	0.978147	-0.856309	-0.326117
C45	C	0.978129	-0.795217	-0.326111
C46	C	1.154638	-0.326128	-0.326111
C47	C	1.229870	-0.326138	-0.326118
C48	C	0.978125	-0.326060	-0.502636
C49	C	0.978138	-0.326040	-0.577868
C50	C	0.978191	-0.149564	-0.326133
C51	C	0.978232	-0.074332	-0.326150
C52	C	0.934883	-0.282740	-0.613218
C53	C	0.934893	-0.282727	-0.683906
C54	C	0.978160	-0.326010	-0.719244
C55	C	1.021417	-0.369315	-0.683890
C56	C	1.021404	-0.369331	-0.613203
C57	C	1.021471	-0.369252	-0.968963
C58	C	1.021482	-0.369231	-1.039656
C59	C	0.934959	-0.282647	-1.039667
C60	C	0.934946	-0.282663	-0.968980
C61	C	0.978200	-0.325970	-0.933632
C62	C	0.978188	-0.325985	-0.856983
C63	C	0.978176	-0.325993	-0.795891
C64	C	0.978105	-0.326104	-0.150238
C65	C	0.978223	-0.325934	-0.075006
H66	H	0.592258	-0.247674	-0.404769
H67	H	1.056717	-0.404480	-1.068426
O68	O	0.892855	-0.578252	-0.240640
C69	C	0.931399	-0.537370	-0.196940
H70	H	0.982674	-0.526722	-0.220855
H71	H	0.938877	-0.564636	-0.146791
C72	C	0.831159	-0.483341	-0.155273
C73	C	0.894134	-0.470259	-0.184648
H74	H	0.808172	-0.441945	-0.147688
H75	H	0.805191	-0.510886	-0.184712
H76	H	0.837400	-0.506065	-0.113485
H77	H	0.887893	-0.447543	-0.226439
H78	H	0.920101	-0.442708	-0.155216
O79	O	0.370139	-0.411449	-0.240688
C80	C	0.352834	-0.478927	-0.255352
H81	H	0.333427	-0.482415	-0.309423
H82	H	0.311779	-0.496574	-0.219041
C83	C	0.439443	-0.519803	-0.180972
C84	C	0.415612	-0.524088	-0.247384
H85	H	0.478165	-0.547662	-0.176053
H86	H	0.451100	-0.474342	-0.171090
H87	H	0.405224	-0.534508	-0.150720
H88	H	0.449827	-0.509376	-0.277633
H89	H	0.403962	-0.569548	-0.257271
H90	H	1.056631	-0.404585	-0.584422
O91	O	0.726085	-0.240968	-0.411646
C92	C	0.766989	-0.279554	-0.455280
H93	H	0.745671	-0.332870	-0.459368
H94	H	0.820554	-0.281853	-0.434345
C95	C	0.794291	-0.181092	-0.520680
C96	C	0.768105	-0.246574	-0.525706
H97	H	0.794983	-0.160748	-0.564121
H98	H	0.766736	-0.155095	-0.491281
H99	H	0.838926	-0.183017	-0.503231
H100	H	0.723468	-0.244648	-0.543146
H101	H	0.795653	-0.272570	-0.555109
H102	H	0.899653	-0.247489	-0.584450
H103	H	0.364731	-0.247699	-0.404786
O104	O	0.892851	-1.073416	-0.240810
C105	C	0.825377	-1.056179	-0.255535
H106	H	0.821922	-1.036716	-0.309602
H107	H	0.807685	-1.015187	-0.219227
C108	C	0.784480	-1.142922	-0.181227
C109	C	0.780236	-1.119023	-0.247635
H110	H	0.756634	-1.181686	-0.176351
H111	H	0.829938	-1.154534	-0.171304
H112	H	0.769737	-1.108756	-0.150978
H113	H	0.794986	-1.153185	-0.277882
H114	H	0.734779	-1.107419	-0.257563
O115	O	1.063558	-0.411331	-0.934737
C116	C	1.101741	-0.449535	-0.981088
H117	H	1.104100	-0.421799	-1.031483
H118	H	1.076935	-0.500940	-0.988589
C119	C	1.170874	-0.493362	-0.891613
C120	C	1.173776	-0.459293	-0.953508
H121	H	1.215308	-0.499384	-0.874601
H122	H	1.145148	-0.467625	-0.860385
H123	H	1.150199	-0.536195	-0.897873
H124	H	1.194443	-0.416458	-0.947247
H125	H	1.199507	-0.485023	-0.984735
O126	O	0.586694	-0.411351	-0.240540
C127	C	0.633022	-0.449513	-0.202275
H128	H	0.683417	-0.421780	-0.199974
H129	H	0.640535	-0.500949	-0.226972
C130	C	0.543509	-0.493247	-0.133051
C131	C	0.605403	-0.459181	-0.130220
H132	H	0.526471	-0.499213	-0.088605
H133	H	0.512295	-0.467538	-0.158832
H134	H	0.549778	-0.536106	-0.153634
H135	H	0.599131	-0.416320	-0.109645
H136	H	0.636615	-0.484883	-0.104433
O137	O	0.892717	-0.717649	-0.240763
C138	C	0.825241	-0.700411	-0.255481
H139	H	0.821781	-0.680949	-0.309548
H140	H	0.807555	-0.659416	-0.219172
C141	C	0.784351	-0.787150	-0.181165
C142	C	0.780100	-0.763252	-0.247573
H143	H	0.756504	-0.825912	-0.176283
H144	H	0.829810	-0.798762	-0.171247
H145	H	0.769613	-0.752982	-0.150915
H146	H	0.794845	-0.797417	-0.277820
H147	H	0.734642	-0.751647	-0.257496
O148	O	0.892856	-0.240599	-0.718139
C149	C	0.854656	-0.202407	-0.671791
H150	H	0.882374	-0.200081	-0.621407
H151	H	0.803234	-0.227184	-0.664261
C152	C	0.810907	-0.133219	-0.761280
C153	C	0.844953	-0.130357	-0.699398
H154	H	0.804919	-0.088776	-0.778310
H155	H	0.836641	-0.158951	-0.792506
H156	H	0.768059	-0.153869	-0.754996
H157	H	0.887804	-0.109715	-0.705684
H158	H	0.819226	-0.104620	-0.668174
H159	H	1.056643	-0.404561	-0.712668
H160	H	0.236487	-0.247711	-0.404795
O161	O	1.063348	-0.578187	-0.411557
C162	C	1.101556	-0.624488	-0.449792
H163	H	1.073850	-0.674897	-0.452113
H164	H	1.152982	-0.631978	-0.425057
C165	C	1.145277	-0.534937	-0.518986
C166	C	1.111246	-0.596849	-0.521841
H167	H	1.151258	-0.517888	-0.563429
H168	H	1.119538	-0.503743	-0.493225
H169	H	1.188129	-0.541188	-0.498371
H170	H	1.068392	-0.590597	-0.542449
H171	H	1.136978	-0.628042	-0.547607
H172	H	0.236384	-0.404574	-0.247443
H173	H	0.899693	-0.939640	-0.247527
H174	H	0.720387	-0.404522	-0.247405
O175	O	1.063317	-0.717538	-0.411488
C176	C	1.054080	-0.787520	-0.402199
H177	H	1.001861	-0.797231	-0.379990
H178	H	1.094256	-0.807572	-0.366192
C179	C	1.124392	-0.811835	-0.497973
C180	C	1.060254	-0.823762	-0.470700
H181	H	1.128204	-0.834192	-0.540226
H182	H	1.130618	-0.764687	-0.504230
H183	H	1.157865	-0.828545	-0.467960
H184	H	1.026783	-0.807046	-0.500708
H185	H	1.054023	-0.870909	-0.464450
O186	O	1.063418	-1.073227	-0.411633
C187	C	1.024870	-1.114129	-0.455310
H188	H	0.971551	-1.092865	-0.459440
H189	H	1.022570	-1.167717	-0.434389
C190	C	1.123380	-1.141262	-0.520630
C191	C	1.057895	-1.115142	-0.525707
H192	H	1.143752	-1.141890	-0.564054
H193	H	1.149352	-1.113708	-0.491203
H194	H	1.121454	-1.185916	-0.503193
H195	H	1.059822	-1.070486	-0.543136
H196	H	1.031924	-1.142689	-0.555139
O197	O	0.892852	-0.240596	-0.934758
C198	C	0.854686	-0.202363	-0.981117
H199	H	0.852337	-0.230073	-1.031498
H200	H	0.879500	-0.150958	-0.988648
C201	C	0.785534	-0.158574	-0.891645
C202	C	0.782644	-0.192611	-0.953523
H203	H	0.741096	-0.152555	-0.874624
H204	H	0.811248	-0.184330	-0.860411
H205	H	0.806215	-0.115740	-0.897930
H206	H	0.761971	-0.235447	-0.947236
H207	H	0.756925	-0.166862	-0.984755
H208	H	1.056669	-0.939409	-0.404730
H209	H	0.899738	-0.247387	-1.068455
