data_functionalizedCrystal
_audit_creation_method	'MofGen! by Chris Wilmer'
_symmetry_space_group_name_H-M	'P1'
_symmetry_Int_Tables_number	1
_symmetry_cell_setting	triclinic
loop_
_symmetry_equiv_pos_as_xyz
  x,y,z
_cell_length_a	12.594517
_cell_length_b	16.625546
_cell_length_c	16.625539
_cell_angle_alpha	89.969603
_cell_angle_beta	90.020900
_cell_angle_gamma	89.977732
loop_
_atom_site_label
_atom_site_type_symbol
_atom_site_fract_x
_atom_site_fract_y
_atom_site_fract_z
Zn1	Zn	1.627215	0.321004	0.455905
Zn2	Zn	1.960548	0.654338	0.789238
Zn3	Zn	2.293882	0.987671	1.122571
Zn4	Zn	1.627087	0.455848	0.321067
Zn5	Zn	1.960421	0.789181	0.654400
Zn6	Zn	2.293754	1.122514	0.987734
Zn7	Zn	1.449220	0.321032	0.321084
Zn8	Zn	1.782554	0.654366	0.654418
Zn9	Zn	2.115887	0.987699	0.987751
Zn10	Zn	1.449181	0.455798	0.455856
Zn11	Zn	1.782514	0.789132	0.789189
Zn12	Zn	2.115848	1.122465	1.122523
O13	O	1.538176	0.388421	0.388478
O14	O	1.871509	0.721754	0.721811
O15	O	2.204843	1.055087	1.055145
O16	O	1.776144	0.338901	0.438031
O17	O	2.109477	0.672234	0.771365
O18	O	2.442810	1.005567	1.104698
O19	O	1.603456	0.437996	0.208237
O20	O	1.936789	0.771330	0.541570
O21	O	2.270122	1.104663	0.874904
O22	O	1.472901	0.208196	0.338996
O23	O	1.806235	0.541529	0.672330
O24	O	2.139568	0.874863	1.005663
O25	O	1.776050	0.437969	0.338967
O26	O	2.109383	0.771303	0.672300
O27	O	2.442717	1.104636	1.005633
O28	O	1.603673	0.208176	0.438048
O29	O	1.937007	0.541509	0.771382
O30	O	2.270340	0.874842	1.104715
O31	O	1.472778	0.338948	0.208250
O32	O	1.806111	0.672281	0.541583
O33	O	2.139444	1.005615	0.874916
O34	O	1.300269	0.338900	0.338949
O35	O	1.633603	0.672234	0.672283
O36	O	1.966936	1.005567	1.005616
O37	O	1.472835	0.437885	0.568695
O38	O	1.806168	0.771219	0.902028
O39	O	2.139502	1.104552	1.235362
O40	O	1.300241	0.437912	0.437965
O41	O	1.633574	0.771246	0.771299
O42	O	1.966907	1.104579	1.104632
O43	O	1.603636	0.338853	0.568731
O44	O	1.936969	0.672186	0.902064
O45	O	2.270302	1.005520	1.235397
O46	O	1.603418	0.568673	0.338919
O47	O	1.936751	0.902007	0.672253
O48	O	2.270084	1.235340	1.005586
O49	O	1.472711	0.568637	0.437948
O50	O	1.806044	0.901971	0.771282
O51	O	2.139378	1.235304	1.104615
C52	C	1.261635	0.388404	0.388454
C53	C	1.594968	0.721738	0.721788
C54	C	1.928302	1.055071	1.055121
C55	C	1.143329	0.388417	0.388463
C56	C	1.476663	0.721750	0.721797
C57	C	1.809996	1.055084	1.055130
C58	C	1.538075	0.597912	0.388444
C59	C	1.871409	0.931245	0.721778
C60	C	2.204742	1.264578	1.055111
C61	C	1.538129	0.687533	0.388457
C62	C	1.871463	1.020866	0.721790
C63	C	2.204796	1.354199	1.055124
C64	C	1.538306	0.178112	0.388530
C65	C	1.871639	0.511445	0.721863
C66	C	2.204973	0.844778	1.055196
C67	C	1.538361	0.088491	0.388552
C68	C	1.871695	0.421824	0.721885
C69	C	2.205028	0.755157	1.055218
C70	C	1.074061	0.334491	0.334711
C71	C	1.407394	0.667824	0.668044
C72	C	1.740728	1.001157	1.001378
C73	C	1.003239	0.408038	0.314872
C74	C	1.336573	0.741372	0.648206
C75	C	1.669906	1.074705	0.981539
C76	C	1.003352	0.314905	0.408316
C77	C	1.336685	0.648239	0.741649
C78	C	1.670019	0.981572	1.074983
C79	C	1.074066	0.462003	0.368586
C80	C	1.407399	0.795337	0.701919
C81	C	1.740733	1.128670	1.035253
C82	C	1.074185	0.368821	0.462064
C83	C	1.407518	0.702154	0.795397
C84	C	1.740852	1.035487	1.128731
C85	C	1.003395	0.442419	0.442253
C86	C	1.336729	0.775752	0.775586
C87	C	1.670062	1.109086	1.108920
C88	C	1.815797	0.388437	0.388502
C89	C	2.149130	0.721771	0.721836
C90	C	2.482463	1.055104	1.055169
C91	C	1.934102	0.388445	0.388513
C92	C	2.267435	0.721778	0.721846
C93	C	2.600769	1.055111	1.055179
C94	C	1.538245	0.388361	0.598787
C95	C	1.871578	0.721694	0.932120
C96	C	2.204912	1.055027	1.265454
C97	C	1.538275	0.388335	0.688408
C98	C	1.871608	0.721668	1.021742
C99	C	2.204941	1.055002	1.355075
C100	C	1.538315	1.015708	0.388541
C101	C	1.871648	1.349042	0.721874
C102	C	2.204982	1.682375	1.055208
C103	C	1.538260	0.924400	0.388520
C104	C	1.871593	1.257733	0.721853
C105	C	2.204927	1.591066	1.055186
C106	C	1.538221	0.851623	0.388498
C107	C	1.871555	1.184957	0.721832
C108	C	2.204888	1.518290	1.055165
C109	C	1.538168	0.760309	0.388478
C110	C	1.871501	1.093642	0.721811
C111	C	2.204835	1.426976	1.055145
C112	C	1.538168	0.388422	0.178987
C113	C	1.871502	0.721756	0.512321
C114	C	2.204835	1.055089	0.845654
C115	C	1.538345	0.388221	0.089367
C116	C	1.871678	0.721554	0.422700
C117	C	2.205012	1.054887	0.756033
C118	C	1.538324	0.388245	1.016584
C119	C	1.871657	0.721578	1.349917
C120	C	2.204990	1.054911	1.683251
C121	C	1.538307	0.388272	0.925276
C122	C	1.871640	0.721606	1.258609
C123	C	2.204974	1.054939	1.591942
C124	C	1.538300	0.388290	0.852499
C125	C	1.871633	0.721624	1.185832
C126	C	2.204966	1.054957	1.519166
C127	C	1.538282	0.388317	0.761185
C128	C	1.871615	0.721650	1.094518
C129	C	2.204949	1.054984	1.427851
H130	H	0.972079	0.424631	0.252651
H131	H	1.305412	0.757964	0.585984
H132	H	1.638745	1.091297	0.919318
N133	N	1.115180	0.274143	0.274434
N134	N	1.448514	0.607476	0.607768
N135	N	1.781847	0.940810	0.941101
H136	H	1.053361	0.247136	0.246736
H137	H	1.386694	0.580469	0.580070
H138	H	1.720027	0.913803	0.913403
H139	H	1.160391	0.302651	0.233154
H140	H	1.493724	0.635984	0.566488
H141	H	1.827058	0.969317	0.899821
N142	N	1.115512	0.346820	0.544456
N143	N	1.448845	0.680154	0.877789
N144	N	1.782178	1.013487	1.211122
H145	H	1.088687	0.386978	0.585238
H146	H	1.422020	0.720311	0.918572
H147	H	1.755353	1.053645	1.251905
H148	H	1.089830	0.291226	0.559316
H149	H	1.423164	0.624559	0.892649
H150	H	1.756497	0.957892	1.225983
N151	N	1.115026	0.544393	0.346276
N152	N	1.448360	0.877726	0.679609
N153	N	1.781693	1.211059	1.012943
H154	H	1.195217	0.543868	0.346371
H155	H	1.528550	0.877201	0.679704
H156	H	1.861884	1.210534	1.013038
H157	H	1.088514	0.559277	0.290893
H158	H	1.421848	0.892611	0.624227
H159	H	1.755181	1.225944	0.957560
H160	H	0.972562	0.488087	0.487730
H161	H	1.305896	0.821420	0.821064
H162	H	1.639229	1.154754	1.154397
N163	N	0.962197	0.232547	0.430535
N164	N	1.295530	0.565880	0.763869
N165	N	1.628864	0.899214	1.097202
H166	H	0.987902	0.191850	0.389873
H167	H	1.321235	0.525183	0.723206
H168	H	1.654568	0.858517	1.056540
H169	H	0.989120	0.217385	0.485729
H170	H	1.322453	0.550719	0.819062
H171	H	1.655786	0.884052	1.152396
