data_functionalizedCrystal
_audit_creation_method	'MofGen! by Chris Wilmer'
_symmetry_space_group_name_H-M	'P1'
_symmetry_Int_Tables_number	1
_symmetry_cell_setting	triclinic
loop_
_symmetry_equiv_pos_as_xyz
  x,y,z
_cell_length_a	17.052862
_cell_length_b	14.560438
_cell_length_c	14.560438
_cell_angle_alpha	60.001579
_cell_angle_beta	90.000891
_cell_angle_gamma	50.259047
loop_
_atom_site_label
_atom_site_type_symbol
_atom_site_fract_x
_atom_site_fract_y
_atom_site_fract_z
Zr1	Zr	0.914394	0.682252	0.040999
O2	O	0.762833	0.927394	-0.132414
O3	O	0.960855	0.474239	0.094157
O4	O	0.960852	0.665840	-0.097443
O5	O	0.762838	0.735792	0.210325
O6	O	1.117054	0.610659	-0.069854
O7	O	0.762835	0.735793	0.059185
O8	O	1.117059	0.267920	0.272883
O9	O	0.762833	1.078532	-0.132411
O10	O	1.097242	0.504866	0.137420
O11	O	0.980672	0.546047	0.229625
O12	O	0.980669	0.771632	0.004041
O13	O	0.864099	0.812812	0.096246
Zr14	Zr	1.163521	0.594246	0.326051
Zr15	Zr	1.163517	0.594246	0.085000
Zr16	Zr	0.914397	0.682252	0.282049
Zr17	Zr	0.914394	0.923300	0.041003
Zr18	Zr	1.163521	0.353198	0.326046
O19	O	1.117060	0.802259	0.272893
O20	O	1.117054	0.802260	-0.069850
O21	O	0.762838	0.927393	0.210328
O22	O	1.315082	0.349104	0.499464
O23	O	1.315077	0.349105	0.156721
O24	O	0.960860	0.474238	0.436899
O25	O	1.315077	0.540706	0.156725
O26	O	1.117062	0.610658	0.464492
O27	O	0.960861	0.665839	0.436903
O28	O	1.315079	0.540705	0.307864
O29	O	0.960853	1.008578	-0.097436
O30	O	1.117062	0.267920	0.464485
O31	O	1.315082	0.197967	0.499461
O32	O	1.315079	0.197967	0.307858
O33	O	0.762836	1.078531	0.059192
O34	O	0.960856	1.008578	0.094167
O35	O	1.097246	0.504866	0.363008
O36	O	1.213815	0.463686	0.270804
O37	O	1.097242	0.730451	0.137425
O38	O	0.980673	0.771632	0.229629
C39	C	1.038957	0.336735	0.183519
C40	C	1.038957	0.234405	0.183517
C41	C	0.727342	0.748332	0.128486
C42	C	0.621582	0.785692	0.109806
C43	C	1.099802	0.164834	0.135387
C44	C	1.099807	0.068673	0.135398
C45	C	0.978110	0.111669	0.231670
C46	C	0.978113	0.207819	0.231666
C47	C	0.566869	0.333998	0.335642
C48	C	0.666237	0.298890	0.353188
C49	C	0.655079	0.420587	0.292345
C50	C	0.544541	0.577399	0.213951
C51	C	0.445163	0.612510	0.196396
C52	C	0.533373	0.699099	0.153098
C53	C	0.422835	0.855911	0.074705
C54	C	0.323469	0.891015	0.057154
C55	C	0.334627	0.769318	0.117997
C56	C	0.632752	0.663988	0.170653
C57	C	0.511046	0.942501	0.031407
C58	C	0.411677	0.977608	0.013861
C59	C	1.350573	0.528167	0.238564
C60	C	1.456332	0.490806	0.257244
C61	C	1.038952	0.638250	-0.117993
C62	C	1.038951	0.638250	-0.220325
C63	C	1.038958	0.939763	0.183530
C64	C	1.038958	1.042094	0.183532
C65	C	0.952906	0.668649	-0.379761
C66	C	0.952901	0.668645	-0.283607
C67	C	1.125018	0.607842	-0.253193
C68	C	1.125026	0.607835	-0.349340
C69	C	1.038962	0.638248	0.485042
C70	C	1.038964	0.638248	0.587374
C71	C	1.350572	0.226653	0.238558
C72	C	1.456332	0.086961	0.257236
C73	C	1.038962	0.336735	0.485036
C74	C	1.038963	0.234404	0.587366
C75	C	1.350577	0.226652	0.540075
C76	C	1.456338	0.086960	0.661085
C77	C	0.727337	1.049846	-0.173026
C78	C	0.621577	1.189538	-0.294036
C79	C	0.727342	1.049845	0.128491
C80	C	0.621583	1.189537	0.109814
C81	C	1.038953	0.939763	-0.117987
C82	C	1.038952	1.042095	-0.220317
C83	C	1.445147	0.042856	0.196372
C84	C	1.544510	-0.088383	0.213898
C85	C	1.655056	-0.175521	0.292294
C86	C	1.666238	-0.131406	0.353159
C87	C	1.566876	-0.000162	0.335626
C88	C	1.566863	-0.000140	0.669785
C89	C	1.666246	-0.131386	0.783479
C90	C	1.655102	-0.175535	0.888472
C91	C	1.544565	-0.088421	0.879768
C92	C	1.445184	0.042828	0.766076
C93	C	0.511051	1.276650	-0.302736
C94	C	0.411668	1.407925	-0.416430
C95	C	0.422813	1.452080	-0.521423
C96	C	0.533350	1.364960	-0.512719
C97	C	0.632730	1.233693	-0.399026
C98	C	0.632767	1.233652	0.170667
C99	C	0.533405	1.364917	0.153115
C100	C	0.422859	1.452059	0.074715
C101	C	0.411677	1.407939	0.013855
C102	C	0.511038	1.276683	0.031401
C103	C	1.099813	0.164831	0.705066
C104	C	1.099801	0.068693	0.801210
C105	C	0.978088	0.111707	0.661941
C106	C	0.978094	0.207851	0.565798
H107	H	1.149346	0.186473	0.096183
O108	O	0.227453	0.807169	0.099075
H109	H	0.174990	0.876526	0.126662
O110	O	0.751926	1.139780	-0.389683
H111	H	0.800110	1.141229	-0.340203
O112	O	1.217844	0.575066	-0.384800
H113	H	1.304612	0.456378	-0.306995
H114	H	1.735953	-0.282385	0.306560
O115	O	0.204243	1.060143	-0.027406
H116	H	0.213174	1.138870	-0.066759
O117	O	0.292459	1.501861	-0.425793
H118	H	0.225216	1.600574	-0.522485
H119	H	0.722770	1.162710	0.234514
O120	O	0.315693	1.593592	0.055831
H121	H	0.342053	1.609595	0.111344
O122	O	1.762295	-0.317113	1.011097
H123	H	1.841019	-0.370266	0.999495
O124	O	0.912469	0.083016	0.283573
H125	H	0.870163	0.147545	0.317045
O126	O	1.325926	0.136833	0.111798
H127	H	1.258699	0.235509	0.109822
O128	O	0.751961	0.494863	0.255208
H129	H	0.800140	0.472204	0.204273
O130	O	1.785477	-0.225404	0.437711
H131	H	1.776576	-0.172692	0.477090
H132	H	1.535508	-0.124388	0.965269
H133	H	0.928537	0.264506	0.469954
H134	H	0.501915	1.240773	-0.018153
H135	H	0.735993	0.391993	0.306636
O136	O	0.578892	0.202759	0.401247
H137	H	0.672448	0.087818	0.458704
H138	H	0.928532	0.090073	0.644394
O139	O	1.578909	0.047457	0.556557
H140	H	1.491242	0.153350	0.476026
O141	O	1.532438	-0.135955	0.148252
H142	H	1.484202	-0.162734	0.173777
H143	H	0.882830	0.693410	-0.431286
H144	H	1.149355	0.012027	0.096208
H145	H	1.756241	-0.202303	0.790545
O146	O	0.545352	1.412594	-0.625972
H147	H	0.593593	1.439372	-0.627253
H148	H	0.928565	0.264466	0.270864
O149	O	1.578949	0.047377	0.401301
H150	H	1.627213	0.074117	0.375816
O151	O	0.292443	1.501933	-0.070704
H152	H	0.225240	1.600601	-0.072663
O153	O	1.165450	-0.006365	0.928159
H154	H	1.130306	0.086760	0.931735
H155	H	0.341881	1.558968	-0.613991
O156	O	1.165453	0.193485	0.728318
H157	H	1.207756	0.128962	0.826317
O158	O	1.325974	0.136743	0.756697
H159	H	1.334934	0.083967	0.848811
H160	H	0.542532	1.400815	0.202683
H161	H	0.756232	0.171214	0.417003
O162	O	0.292450	1.146734	-0.070707
H163	H	0.244261	1.169386	-0.019779
H164	H	0.882826	0.693398	-0.256851
O165	O	0.499023	1.073748	-0.034259
H166	H	0.541386	1.064447	0.032639
O167	O	1.217849	0.575003	-0.184903
H168	H	1.176485	0.677655	-0.192416
H169	H	0.501955	1.240713	-0.217258
