data_functionalizedCrystal
_audit_creation_method	'MofGen! by Chris Wilmer'
_symmetry_space_group_name_H-M	'P1'
_symmetry_Int_Tables_number	1
_symmetry_cell_setting	triclinic
loop_
_symmetry_equiv_pos_as_xyz
  x,y,z
_cell_length_a	16.959455
_cell_length_b	17.637651
_cell_length_c	16.959447
_cell_angle_alpha	78.752498
_cell_angle_beta	89.985299
_cell_angle_gamma	101.218339
loop_
_atom_site_label
_atom_site_type_symbol
_atom_site_fract_x
_atom_site_fract_y
_atom_site_fract_z
Zn1	Zn	1.144790	-0.314761	-0.383218
Zn2	Zn	1.117997	-0.446988	-0.224281
Zn3	Zn	1.012612	-0.314791	-0.251049
Zn4	Zn	0.985878	-0.446935	-0.356430
O5	O	1.065319	-0.380869	-0.303744
O6	O	1.251844	-0.332311	-0.362144
O7	O	1.103993	-0.429487	-0.117214
O8	O	1.052546	-0.204147	-0.290995
O9	O	1.232160	-0.429457	-0.245373
O10	O	1.149657	-0.204125	-0.388100
O11	O	1.026567	-0.332363	-0.136880
O12	O	0.898457	-0.332311	-0.265019
O13	O	1.006983	-0.429367	-0.470601
O14	O	0.878816	-0.429396	-0.342442
O15	O	1.123734	-0.332259	-0.490283
O16	O	1.078070	-0.557621	-0.219397
O17	O	0.981003	-0.557582	-0.316486
C18	C	0.859956	-0.380852	-0.303728
C19	C	0.772097	-0.380863	-0.303737
C20	C	0.720587	-0.431371	-0.242882
C21	C	0.741053	-0.330362	-0.364596
C22	C	0.658506	-0.330368	-0.364604
C23	C	0.606995	-0.380876	-0.303750
C24	C	0.638033	-0.431377	-0.242887
C25	C	0.627463	-0.279862	-0.425461
C26	C	0.544912	-0.279865	-0.425471
C27	C	0.493399	-0.330378	-0.364619
C28	C	0.524441	-0.380882	-0.303755
C29	C	0.472931	-0.431390	-0.242900
C30	C	0.503970	-0.481898	-0.182038
C31	C	0.586520	-0.481890	-0.182035
C32	C	0.410849	-0.330386	-0.364622
C33	C	0.390376	-0.431396	-0.242905
C34	C	1.023750	-0.586289	-0.262147
C35	C	1.006039	-0.674169	-0.244378
C36	C	1.200383	-0.962841	-0.438983
C37	C	1.183715	-1.045418	-0.422273
C38	C	1.082662	-1.045548	-0.321060
C39	C	1.099323	-0.962970	-0.337759
C40	C	1.158184	-0.921623	-0.396722
C41	C	1.057125	-0.921752	-0.295499
C42	C	1.073783	-0.839182	-0.312200
C43	C	1.132639	-0.797829	-0.371162
C44	C	1.174842	-0.839053	-0.413423
C45	C	0.998260	-0.963101	-0.236540
C46	C	0.956062	-0.921883	-0.194279
C47	C	0.972723	-0.839311	-0.210976
C48	C	1.031579	-0.797958	-0.269938
C49	C	0.930520	-0.798087	-0.168714
C50	C	0.947178	-0.715516	-0.185415
C51	C	1.048237	-0.715387	-0.286639
C52	C	1.271484	-0.380887	-0.303761
C53	C	1.359339	-0.380894	-0.303768
C54	C	1.065365	-0.380803	-0.509926
C55	C	1.065385	-0.380775	-0.597788
C56	C	1.107072	-0.174646	-0.345521
C57	C	1.124865	-0.086767	-0.363324
C58	C	1.004709	-0.431252	-0.959036
C59	C	1.126283	-0.330133	-0.979526
C60	C	1.126259	-0.330149	-0.896977
C61	C	1.065459	-0.380719	-0.845453
C62	C	1.004684	-0.431271	-0.876479
C63	C	1.187038	-0.279603	-0.865943
C64	C	1.187016	-0.279619	-0.783389
C65	C	1.126212	-0.330185	-0.731865
C66	C	1.065434	-0.380739	-0.762895
C67	C	1.004635	-0.431308	-0.711372
C68	C	0.943853	-0.481859	-0.742401
C69	C	0.943880	-0.481838	-0.824954
C70	C	1.126185	-0.330206	-0.649312
C71	C	1.004610	-0.431328	-0.628814
C72	C	1.065330	-0.380877	-0.098377
C73	C	1.065509	-0.380682	-0.010560
H74	H	0.745863	-0.472496	-0.193331
H75	H	1.248319	-0.929175	-0.486991
H76	H	1.218072	-1.078974	-0.456702
C77	C	0.333721	-0.486955	-0.175963
H78	H	0.364032	-0.517028	-0.139716
H79	H	0.294548	-0.521439	-0.199163
H80	H	0.307639	-0.456667	-0.147701
C81	C	1.193035	-0.274612	-0.615177
H82	H	1.184316	-0.281868	-0.558632
H83	H	1.192235	-0.221484	-0.639473
H84	H	1.243804	-0.286196	-0.626357
H85	H	1.034735	-1.079224	-0.273054
C86	C	0.979933	-1.053927	-0.218166
H87	H	0.938827	-1.072649	-0.177006
H88	H	1.027183	-1.072585	-0.200768
H89	H	0.962465	-1.072581	-0.265393
H90	H	0.782997	-0.289237	-0.414138
H91	H	1.096174	-0.681721	-0.334647
H92	H	0.955220	-0.472406	-0.984305
H93	H	0.669409	-0.238738	-0.475003
H94	H	1.175787	-0.288966	-1.021480
C95	C	0.376704	-0.274834	-0.431558
H96	H	0.320164	-0.282068	-0.422844
H97	H	0.387900	-0.286458	-0.482294
H98	H	0.400978	-0.221695	-0.430821
C99	C	0.891323	-0.967369	-0.129421
H100	H	0.887449	-1.022449	-0.125522
H101	H	0.840930	-0.953863	-0.143663
H102	H	0.905663	-0.953863	-0.079053
H103	H	0.912814	-0.681956	-0.151003
C104	C	1.253902	-0.223972	-0.922620
H105	H	1.245202	-0.231192	-0.976231
H106	H	1.304670	-0.235541	-0.906758
H107	H	1.253072	-0.170853	-0.919850
C108	C	1.239573	-0.793566	-0.478298
H109	H	1.262315	-0.829938	-0.501084
H110	H	1.280536	-0.761340	-0.454627
H111	H	1.215786	-0.761364	-0.519220
H112	H	1.236508	-0.238457	-0.758133
H113	H	0.462020	-0.523019	-0.132488
H114	H	0.611800	-0.523009	-0.132483
C115	C	0.865776	-0.843574	-0.103862
H116	H	0.861901	-0.898654	-0.099967
H117	H	0.815385	-0.830066	-0.118110
H118	H	0.880110	-0.830073	-0.053491
H119	H	1.146201	-0.730594	-0.384758
C120	C	0.510774	-0.224316	-0.492421
H121	H	0.553274	-0.194239	-0.528665
H122	H	0.485532	-0.189834	-0.469229
H123	H	0.472459	-0.254612	-0.520685
C124	C	0.937738	-0.486967	-0.572142
H125	H	0.901551	-0.517074	-0.602446
H126	H	0.909408	-0.456739	-0.546055
H127	H	0.961004	-0.521429	-0.532966
C128	C	0.876990	-0.537502	-0.685720
H129	H	0.840800	-0.567614	-0.716017
H130	H	0.848661	-0.507278	-0.659628
H131	H	0.900268	-0.571958	-0.646549
H132	H	0.894397	-0.522996	-0.850226
