data_functionalizedCrystal
_audit_creation_method	'MofGen! by Chris Wilmer'
_symmetry_space_group_name_H-M	'P1'
_symmetry_Int_Tables_number	1
_symmetry_cell_setting	triclinic
loop_
_symmetry_equiv_pos_as_xyz
  x,y,z
_cell_length_a	18.215407
_cell_length_b	18.215399
_cell_length_c	21.395361
_cell_angle_alpha	90.032211
_cell_angle_beta	89.968844
_cell_angle_gamma	89.980167
loop_
_atom_site_label
_atom_site_type_symbol
_atom_site_fract_x
_atom_site_fract_y
_atom_site_fract_z
Zn1	Zn	1.125042	-0.416094	0.249437
Zn2	Zn	1.124938	-0.293019	0.354217
Zn3	Zn	1.001975	-0.293041	0.249458
Zn4	Zn	1.001928	-0.416044	0.354182
O5	O	1.063471	-0.354549	0.301824
O6	O	1.228013	-0.399779	0.263343
O7	O	1.108603	-0.190037	0.340344
O8	O	1.018363	-0.309395	0.161777
O9	O	1.227936	-0.309356	0.340324
O10	O	1.108780	-0.399802	0.161762
O11	O	1.018262	-0.190054	0.263378
O12	O	0.898984	-0.309346	0.263344
O13	O	1.018284	-0.519035	0.340264
O14	O	0.898950	-0.399715	0.340284
O15	O	1.108735	-0.519072	0.263309
O16	O	1.108557	-0.309307	0.441890
O17	O	1.018183	-0.399693	0.441865
C18	C	0.872265	-0.354528	0.301813
C19	C	0.790466	-0.354537	0.301823
C20	C	0.602273	-0.401533	0.341949
C21	C	0.525414	-0.401542	0.341951
C22	C	0.525420	-0.307582	0.261709
C23	C	0.602278	-0.307577	0.261705
C24	C	0.640702	-0.354551	0.301828
C25	C	0.486986	-0.354566	0.301835
C26	C	0.403652	-0.354575	0.301837
C27	C	0.724041	-0.354543	0.301826
C28	C	1.063516	-0.546502	0.301780
C29	C	1.063535	-0.628301	0.301762
C30	C	1.110650	-0.816516	0.261654
C31	C	1.110658	-0.893375	0.261636
C32	C	1.016472	-0.893325	0.341773
C33	C	1.016460	-0.816467	0.341788
C34	C	1.063553	-0.778065	0.301729
C35	C	1.063574	-0.931781	0.301696
C36	C	1.063583	-1.015115	0.301677
C37	C	1.063543	-0.694726	0.301748
C38	C	1.255424	-0.354571	0.301835
C39	C	1.337223	-0.354580	0.301840
C40	C	1.063374	-0.354508	0.464611
C41	C	1.063399	-0.354516	0.534252
C42	C	1.063468	-0.163343	0.301821
C43	C	1.063592	-0.081545	0.301663
C44	C	1.063588	-0.354607	0.138400
C45	C	1.063638	-0.354631	0.068759
C46	C	1.110499	-0.307500	0.566958
C47	C	1.110533	-0.307516	0.632394
C48	C	1.063455	-0.354541	0.665121
C49	C	1.016352	-0.401566	0.632407
C50	C	1.016324	-0.401553	0.566973
C51	C	0.997191	-0.360308	0.768835
C52	C	0.997217	-0.360315	0.834268
C53	C	1.063540	-0.354584	0.866941
C54	C	1.129839	-0.348830	0.834174
C55	C	1.129811	-0.348817	0.768739
C56	C	1.063480	-0.354560	0.736073
C57	C	1.110681	-0.307584	0.970600
C58	C	1.110717	-0.307605	1.036036
C59	C	1.016528	-0.401651	1.036049
C60	C	1.016499	-0.401633	0.970613
C61	C	1.063575	-0.354595	0.937893
H62	H	1.148994	-0.785251	0.229034
O63	O	0.488004	-0.447076	0.380957
C64	C	0.443517	-0.405094	0.421391
H65	H	0.431990	-0.349372	0.399233
H66	H	0.389480	-0.435058	0.429823
H67	H	0.473107	-0.396904	0.467813
O68	O	0.970769	-0.930550	0.380775
C69	C	0.986821	-0.911760	0.443226
H70	H	1.015100	-0.855961	0.444535
H71	H	0.933689	-0.909111	0.471320
H72	H	1.024651	-0.955014	0.464321
H73	H	1.183793	-0.344134	0.742061
O74	O	0.970811	-0.779030	0.380751
C75	C	1.012677	-0.734577	0.421237
H76	H	1.068463	-0.723086	0.399142
H77	H	0.982689	-0.680520	0.429640
H78	H	1.020735	-0.764177	0.467665
H79	H	1.149076	-0.269321	1.062664
H80	H	0.494126	-0.269336	0.229043
H81	H	0.633568	-0.269319	0.229029
H82	H	1.183846	-0.344163	0.860774
H83	H	1.148833	-0.269201	0.540319
H84	H	0.977969	-0.439840	0.540344
H85	H	0.633556	-0.439784	0.374619
H86	H	1.148890	-0.269231	0.659028
H87	H	1.149008	-0.924678	0.229001
O88	O	1.156480	-0.261873	0.938907
C89	C	1.198052	-0.220369	0.981809
H90	H	1.200608	-0.250527	1.028431
H91	H	1.256030	-0.212564	0.962860
H92	H	1.171135	-0.164454	0.988829
O93	O	0.970822	-0.447265	1.067929
C94	C	0.980961	-0.437212	1.132697
H95	H	1.005097	-0.380441	1.141652
H96	H	0.925846	-0.442163	1.157606
H97	H	1.020138	-0.480903	1.151205
O98	O	0.970669	-0.447321	0.938936
C99	C	0.929135	-0.488843	0.981851
H100	H	0.926626	-0.458708	1.028516
H101	H	0.871138	-0.496633	0.962985
H102	H	0.956053	-0.544764	0.988753
H103	H	0.943233	-0.364993	0.860943
H104	H	0.943178	-0.364978	0.742239
H105	H	0.978021	-0.439855	0.659058
