data_functionalizedCrystal
_audit_creation_method	'MofGen! by Chris Wilmer'
_symmetry_space_group_name_H-M	'P1'
_symmetry_Int_Tables_number	1
_symmetry_cell_setting	triclinic
loop_
_symmetry_equiv_pos_as_xyz
  x,y,z
_cell_length_a	11.169417
_cell_length_b	18.050590
_cell_length_c	11.169409
_cell_angle_alpha	90.037983
_cell_angle_beta	90.019824
_cell_angle_gamma	90.019431
loop_
_atom_site_label
_atom_site_type_symbol
_atom_site_fract_x
_atom_site_fract_y
_atom_site_fract_z
Zn1	Zn	1.834894	-0.295582	0.678496
Zn2	Zn	1.834754	-0.419797	0.477793
Zn3	Zn	1.634180	-0.295627	0.477830
Zn4	Zn	1.634158	-0.419736	0.678438
O5	O	1.734497	-0.357686	0.578139
O6	O	2.002825	-0.312066	0.651881
O7	O	1.808098	-0.403370	0.309848
O8	O	1.660872	-0.191697	0.504489
O9	O	2.002723	-0.403326	0.504425
O10	O	1.808336	-0.191663	0.651917
O11	O	1.660737	-0.312143	0.309875
O12	O	1.466227	-0.312084	0.504432
O13	O	1.660836	-0.403223	0.846395
O14	O	1.466212	-0.403267	0.651818
O15	O	1.808315	-0.312007	0.846438
O16	O	1.808078	-0.523714	0.504369
O17	O	1.660701	-0.523669	0.651782
C18	C	1.422672	-0.357674	0.578124
C19	C	1.289272	-0.357687	0.578145
C20	C	1.734404	-0.550638	0.578091
C21	C	1.734475	-0.633184	0.578111
C22	C	1.814785	-0.832631	0.498060
C23	C	1.844109	-0.881952	0.607596
C24	C	1.734543	-0.784314	0.578159
C25	C	1.705341	-0.882074	0.468672
C26	C	1.734611	-0.930299	0.578195
C27	C	1.763923	-0.832548	0.687752
C28	C	1.625104	-0.832665	0.548755
C29	C	1.654386	-0.881964	0.658366
C30	C	1.734507	-0.700216	0.578136
C31	C	1.734647	-1.014395	0.578230
C32	C	2.047539	-0.357697	0.578155
C33	C	2.180939	-0.357703	0.578162
C34	C	1.734589	-0.357603	0.891182
C35	C	1.734628	-0.357568	1.024582
C36	C	1.734622	-0.163980	0.578213
C37	C	1.734675	-0.081434	0.578245
C38	C	1.734474	-0.357714	0.266314
C39	C	1.734667	-0.357540	0.132915
H40	H	1.936688	-0.903604	0.632489
O41	O	1.793591	-0.806588	0.798179
C42	C	1.826765	-0.699179	0.922065
C43	C	1.793173	-0.728479	0.796950
H44	H	1.826414	-0.636025	0.921119
H45	H	1.919826	-0.719865	0.947330
H46	H	1.758834	-0.719962	0.990403
H47	H	1.861023	-0.707708	0.728528
H48	H	1.700082	-0.707799	0.771787
H49	H	1.586557	-0.903489	0.726198
O50	O	1.514727	-0.806844	0.518813
C51	C	1.359081	-0.802777	0.369521
C52	C	1.484103	-0.832057	0.403284
H53	H	1.334271	-0.823162	0.276125
H54	H	1.359878	-0.739624	0.370577
H55	H	1.290495	-0.823911	0.436917
H56	H	1.552759	-0.810977	0.335920
H57	H	1.483206	-0.895209	0.402265
H58	H	1.680614	-0.903828	0.376065
H59	H	1.882666	-0.810969	0.430392
