data_functionalizedCrystal
_audit_creation_method	'MofGen! by Chris Wilmer'
_symmetry_space_group_name_H-M	'P1'
_symmetry_Int_Tables_number	1
_symmetry_cell_setting	triclinic
loop_
_symmetry_equiv_pos_as_xyz
  x,y,z
_cell_length_a	13.032831
_cell_length_b	25.639239
_cell_length_c	13.032268
_cell_angle_alpha	82.858283
_cell_angle_beta	89.113023
_cell_angle_gamma	82.842759
loop_
_atom_site_label
_atom_site_type_symbol
_atom_site_fract_x
_atom_site_fract_y
_atom_site_fract_z
Zn1	Zn	1.498234	-0.353075	0.780741
Zn2	Zn	1.519922	-0.430970	0.608740
Zn3	Zn	1.348108	-0.331235	0.586988
Zn4	Zn	1.326172	-0.428143	0.758866
O5	O	1.423109	-0.385856	0.683834
O6	O	1.645024	-0.373731	0.776183
O7	O	1.515387	-0.409782	0.461940
O8	O	1.368126	-0.260977	0.612741
O9	O	1.660959	-0.430960	0.649815
O10	O	1.478423	-0.277023	0.755090
O11	O	1.389156	-0.336508	0.445959
O12	O	1.201284	-0.333767	0.591530
O13	O	1.330740	-0.426142	0.905683
O14	O	1.185169	-0.404965	0.717808
O15	O	1.457153	-0.370990	0.921754
O16	O	1.494117	-0.503750	0.628604
O17	O	1.351770	-0.501673	0.738901
C18	C	1.155911	-0.366689	0.649935
C19	C	1.041600	-0.358504	0.635458
C20	C	1.422942	-0.521683	0.683765
C21	C	1.422960	-0.579799	0.683782
C22	C	0.982702	-0.390128	0.691390
C23	C	0.864555	-0.381668	0.676428
C24	C	1.497387	-0.941263	0.626536
C25	C	1.497425	-0.995870	0.626555
O26	O	1.560532	-1.025027	0.577808
N27	N	1.423281	-1.022111	0.683925
C28	C	1.349101	-0.993742	0.741288
O29	O	1.286040	-1.021077	0.790088
C30	C	1.349068	-0.939136	0.741275
C31	C	1.423210	-0.912897	0.683893
C32	C	1.571523	-0.915024	0.569160
C33	C	1.571484	-0.860419	0.569140
C34	C	1.497307	-0.832054	0.626496
C35	C	1.423171	-0.858293	0.683872
C36	C	1.274894	-0.910769	0.798643
C37	C	1.274868	-0.856159	0.798625
C38	C	1.349010	-0.829920	0.741243
C39	C	1.348955	-0.775323	0.741209
N40	N	1.423098	-0.749082	0.683839
C41	C	1.497275	-0.777448	0.626482
C42	C	1.349176	-1.108419	0.741314
C43	C	1.349204	-1.163024	0.741322
C44	C	1.497529	-1.165149	0.626590
C45	C	1.497496	-1.110542	0.626577
C46	C	1.423320	-1.082179	0.683944
C47	C	1.497185	-0.662774	0.626444
C48	C	1.497137	-0.608165	0.626425
C49	C	1.348815	-0.606046	0.741161
C50	C	1.348860	-0.660650	0.741176
C51	C	1.423054	-0.689013	0.683815
O52	O	1.285883	-0.746133	0.789934
O53	O	1.560333	-0.750108	0.577701
C54	C	1.691350	-0.405097	0.717865
C55	C	1.805658	-0.413297	0.732368
C56	C	1.389080	-0.400687	0.952077
C57	C	1.374579	-0.407007	1.066386
C58	C	1.423302	-0.249501	0.683929
C59	C	1.423384	-0.191395	0.683970
C60	C	1.457064	-0.371048	0.416642
C61	C	1.471765	-0.364595	0.302358
C62	C	1.430661	-0.382537	1.125301
C63	C	1.415675	-0.389069	1.243446
H64	H	1.019744	-0.423463	0.750355
H65	H	1.489766	-0.356749	1.088273
H66	H	1.004556	-0.325165	0.576500
H67	H	0.842695	-0.446633	0.791340
H68	H	0.827516	-0.348327	0.617466
H69	H	1.356556	-0.414852	1.280468
C70	C	1.550941	-0.330032	1.145021
C71	C	1.551547	-0.329771	1.252389
H72	H	1.600194	-0.308532	1.114174
H73	H	1.484064	-0.316470	1.118723
H74	H	1.568174	-0.365273	1.129353
H75	H	1.534307	-0.294531	1.268058
H76	H	1.618440	-0.343331	1.278696
H77	H	1.315465	-0.432789	1.103413
H78	H	1.557869	-1.089182	0.579852
C79	C	1.643760	-0.615759	0.513020
C80	C	1.578643	-0.579324	0.563352
H81	H	1.694080	-0.597955	0.474090
H82	H	1.603993	-0.631701	0.467975
H83	H	1.677381	-0.642326	0.562868
H84	H	1.545016	-0.552759	0.513504
H85	H	1.618415	-0.563374	0.608401
C86	C	1.711788	-0.985457	0.572630
C87	C	1.653134	-0.946183	0.506152
H88	H	1.762195	-1.004683	0.533738
H89	H	1.667655	-1.008918	0.606749
H90	H	1.745307	-0.969402	0.622479
H91	H	1.619609	-0.962238	0.456308
H92	H	1.697274	-0.922718	0.472017
C93	C	1.637417	-0.733228	0.629846
C94	C	1.578755	-0.693942	0.563400
H95	H	1.687779	-0.752465	0.590924
H96	H	1.593279	-0.756677	0.663995
H97	H	1.670990	-0.717183	0.679671
H98	H	1.545175	-0.709987	0.513580
H99	H	1.622899	-0.670489	0.529234
C100	C	1.718109	-0.868023	0.455755
C101	C	1.652997	-0.831584	0.506080
H102	H	1.768441	-0.850224	0.416833
H103	H	1.678341	-0.883961	0.410703
H104	H	1.751716	-0.894593	0.505606
H105	H	1.619384	-0.805016	0.456229
H106	H	1.692770	-0.815638	0.551136
H107	H	1.557930	-1.188254	0.579892
C108	C	1.202591	-1.155426	0.854728
C109	C	1.267699	-1.191861	0.804392
H110	H	1.152280	-1.173229	0.893674
H111	H	1.168968	-1.128862	0.804892
H112	H	1.242373	-1.139481	0.899770
H113	H	1.227919	-1.207803	0.759343
H114	H	1.301325	-1.218434	0.854234
C115	C	1.317162	-1.053614	0.877808
C116	C	1.267625	-1.077243	0.804366
H117	H	1.266815	-1.034373	0.916737
H118	H	1.361299	-1.030169	0.843641
H119	H	1.356956	-1.080279	0.922863
H120	H	1.227837	-1.050578	0.759306
H121	H	1.223471	-1.100690	0.838535
H122	H	1.214515	-0.932122	0.845364
C123	C	1.128268	-0.859550	0.912051
C124	C	1.193329	-0.824983	0.861687
H125	H	1.077927	-0.840302	0.950976
H126	H	1.168070	-0.886203	0.957104
H127	H	1.094669	-0.875581	0.862222
H128	H	1.226934	-0.808954	0.911517
H129	H	1.153522	-0.798320	0.816630
H130	H	1.288491	-0.682015	0.787904
H131	H	1.288419	-0.582942	0.787857
