data_functionalizedCrystal
_audit_creation_method	'MofGen! by Chris Wilmer'
_symmetry_space_group_name_H-M	'P1'
_symmetry_Int_Tables_number	1
_symmetry_cell_setting	triclinic
loop_
_symmetry_equiv_pos_as_xyz
  x,y,z
_cell_length_a	16.992694
_cell_length_b	16.956985
_cell_length_c	15.455313
_cell_angle_alpha	87.535923
_cell_angle_beta	92.857794
_cell_angle_gamma	83.360706
loop_
_atom_site_label
_atom_site_type_symbol
_atom_site_fract_x
_atom_site_fract_y
_atom_site_fract_z
O1	O	-1.033119	-0.165135	-0.072025
O2	O	-0.804955	-0.163287	-0.072050
O3	O	-0.932744	-0.049006	-0.072029
O4	O	-0.905329	-0.279416	-0.072046
O5	O	-0.925439	-0.055513	0.072232
O6	O	-0.797649	-0.169793	0.072211
O7	O	-1.025813	-0.171642	0.072236
Cu8	Cu	-0.911064	-0.171312	0.085396
Cu9	Cu	-0.919704	-0.163617	-0.085210
O10	O	-0.898023	-0.285922	0.072215
C11	C	-0.772243	-0.164163	0.000077
C12	C	-0.685659	-0.157072	0.000068
C13	C	-0.930495	-0.022641	0.000101
C14	C	-0.934669	0.065614	0.000101
N15	N	-0.904993	-0.176723	0.205390
C16	C	-1.058524	-0.170765	0.000107
C17	C	-1.145109	-0.177856	0.000111
C18	C	-0.630984	-0.225487	0.000063
C19	C	-0.549629	-0.218821	0.000076
C20	C	-0.522951	-0.143738	0.000086
C21	C	-0.577633	-0.075318	0.000093
C22	C	-0.658986	-0.081986	0.000087
C23	C	-0.281143	-0.116104	0.000111
C24	C	-0.199784	-0.109441	0.000115
C25	C	-0.171786	-0.252944	0.000099
C26	C	-0.253142	-0.259605	0.000088
C27	C	-0.307816	-0.191185	0.000099
N28	N	-0.439794	-0.136922	0.000096
N29	N	-0.390972	-0.198002	0.000096
C30	C	-0.864885	0.102146	0.000090
C31	C	-0.868811	0.185071	0.000093
C32	C	-0.942523	0.231463	0.000102
C33	C	-1.012313	0.194925	0.000116
C34	C	-1.008386	0.112001	0.000119
C35	C	-0.961963	0.479997	0.000100
C36	C	-0.965885	0.562926	0.000094
C37	C	-0.822382	0.553066	0.000073
C38	C	-0.818462	0.470141	0.000071
C39	C	-0.888251	0.433611	0.000089
N40	N	-0.946539	0.316225	0.000102
N41	N	-0.884235	0.348849	0.000095
C42	C	-0.900273	0.687712	0.000084
C43	C	-0.896100	0.599458	0.000083
N44	N	-0.925781	-0.158199	-0.205204
C45	C	-0.959299	-0.128193	0.250793
C46	C	-0.954714	-0.132294	0.341600
C47	C	-0.895826	-0.184929	0.387003
C48	C	-0.841515	-0.233461	0.341593
C49	C	-0.846097	-0.229356	0.250788
C50	C	-0.876052	-0.202626	0.658581
C51	C	-0.871475	-0.206730	0.749393
C52	C	-0.984674	-0.105560	0.749394
C53	C	-0.989254	-0.101463	0.658586
C54	C	-0.934940	-0.149993	0.613185
N55	N	-0.891140	-0.189123	0.479822
N56	N	-0.939623	-0.145794	0.520367
H57	H	-0.652698	-0.286627	0.000054
N58	N	-0.787529	-0.281701	0.201810
H59	H	-0.756828	-0.247425	0.164148
H60	H	-0.749579	-0.315663	0.244402
H61	H	-1.028894	-0.066049	0.786368
H62	H	-0.505115	-0.274531	0.000071
H63	H	-0.804860	0.064379	0.000079
H64	H	-0.811985	0.214811	0.000078
N65	N	-0.738958	0.420105	0.000061
H66	H	-0.695344	0.455832	0.000055
H67	H	-0.731495	0.383077	0.053541
N68	N	-0.777994	-0.290227	0.390558
H69	H	-0.783332	-0.285466	0.454973
H70	H	-0.784158	-0.346426	0.374672
N71	N	-1.037232	0.440602	0.000120
H72	H	-1.084522	0.482576	0.000121
H73	H	-1.041440	0.408816	-0.053356
N74	N	-0.281916	-0.340586	0.000060
H75	H	-0.234934	-0.382916	0.000056
H76	H	-0.312364	-0.348900	0.053531
H77	H	-0.823519	-0.249595	0.786355
N78	N	-1.013312	-0.079979	0.390572
H79	H	-1.051324	-0.046026	0.348031
H80	H	-1.043940	-0.114337	0.428220
H81	H	-0.127262	-0.308647	0.000092
N82	N	-0.747110	0.592461	0.000070
H83	H	-0.717764	0.578283	-0.053409
H84	H	-0.760840	0.652021	0.000105
H85	H	-0.555905	-0.014185	0.000114
H86	H	-1.025914	0.600697	0.000095
N87	N	-0.717955	-0.008192	0.000089
H88	H	-0.755036	-0.005345	-0.053389
H89	H	-0.749573	-0.010218	0.053602
H90	H	-0.178067	-0.048297	0.000123
H91	H	-1.072331	0.232704	0.000128
N92	N	-1.083652	0.072595	0.000137
H93	H	-1.130945	0.114565	0.000141
H94	H	-1.087859	0.040809	-0.053339
H95	H	-0.325650	-0.060391	0.000121
N96	N	-1.022818	-0.071427	0.201826
H97	H	-1.056524	-0.041305	0.244372
H98	H	-0.997106	-0.032693	0.164161
H99	H	-1.037205	-0.058604	0.621621
N100	N	-0.817469	-0.254962	0.609619
H101	H	-0.779471	-0.288928	0.652163
H102	H	-0.846977	-0.290291	0.571926
