data_functionalizedCrystal
_audit_creation_method	'MofGen! by Chris Wilmer'
_symmetry_space_group_name_H-M	'P1'
_symmetry_Int_Tables_number	1
_symmetry_cell_setting	triclinic
loop_
_symmetry_equiv_pos_as_xyz
  x,y,z
_cell_length_a	20.875641
_cell_length_b	21.606444
_cell_length_c	20.875619
_cell_angle_alpha	58.317169
_cell_angle_beta	87.031391
_cell_angle_gamma	57.588303
loop_
_atom_site_label
_atom_site_type_symbol
_atom_site_fract_x
_atom_site_fract_y
_atom_site_fract_z
Zr1	Zr	0.644730	0.631792	-0.060509
O2	O	0.544124	0.768034	-0.166616
O3	O	0.675572	0.500490	-0.027984
O4	O	0.682769	0.629098	-0.161535
O5	O	0.531250	0.639829	0.072286
O6	O	0.792133	0.621353	-0.157524
O7	O	0.536927	0.639426	-0.033065
O8	O	0.779260	0.391298	0.081374
O9	O	0.544122	0.869884	-0.166612
O10	O	0.770342	0.546888	-0.011116
O11	O	0.684488	0.552968	0.064513
O12	O	0.692960	0.704387	-0.092726
O13	O	0.607106	0.710467	-0.017098
Zr14	Zr	0.810098	0.620084	0.113910
Zr15	Zr	0.819154	0.619441	-0.054112
Zr16	Zr	0.635675	0.632435	0.107513
Zr17	Zr	0.644728	0.794233	-0.060503
Zr18	Zr	0.810100	0.457644	0.113905
O19	O	0.779256	0.751386	0.081386
O20	O	0.792131	0.750472	-0.157520
O21	O	0.531248	0.768948	0.072290
O22	O	0.910705	0.483843	0.220017
O23	O	0.923580	0.482928	-0.018889
O24	O	0.662697	0.501405	0.210922
O25	O	0.923579	0.612047	-0.018884
O26	O	0.772059	0.622779	0.214937
O27	O	0.662695	0.630523	0.210926
O28	O	0.917901	0.612450	0.086466
O29	O	0.682766	0.860067	-0.161528
O30	O	0.772062	0.391809	0.214929
O31	O	0.910706	0.381992	0.220014
O32	O	0.917904	0.381481	0.086459
O33	O	0.536924	0.870396	-0.033057
O34	O	0.675568	0.860578	-0.027972
O35	O	0.761868	0.547490	0.146128
O36	O	0.847722	0.541409	0.070499
O37	O	0.770340	0.698908	-0.011111
O38	O	0.684486	0.704988	0.064518
C39	C	0.727417	0.422750	0.026694
C40	C	0.727418	0.353790	0.026692
C41	C	0.772231	0.318218	-0.012787
C42	C	0.772234	0.253418	-0.012781
C43	C	0.727418	0.224195	0.026698
C44	C	0.682603	0.259769	0.066182
C45	C	0.682605	0.324564	0.066181
C46	C	0.682593	-0.001539	0.066188
C47	C	0.682592	-0.066336	0.066184
C48	C	0.772221	-0.072685	-0.012774
C49	C	0.772224	-0.007890	-0.012775
C50	C	0.727412	0.027675	0.026712
C51	C	0.727411	0.097937	0.026707
C52	C	0.727414	0.153939	0.026699
C53	C	0.509237	0.641388	0.018699
C54	C	0.435189	0.646631	0.015983
C55	C	0.440793	0.566884	0.057303
C56	C	0.371215	0.571816	0.054750
C57	C	0.296034	0.656496	0.010871
C58	C	0.290433	0.736250	-0.030450
C59	C	0.360010	0.731317	-0.027891
C60	C	0.083614	0.680066	-0.001344
C61	C	0.014036	0.684993	-0.003902
C62	C	0.094822	0.520558	0.081299
C63	C	0.164397	0.515633	0.083850
C64	C	0.158789	0.595386	0.042533
N65	N	0.224914	0.661540	0.008258
N66	N	0.229909	0.590342	0.045151
C67	C	0.945591	0.610489	0.034703
C68	C	1.019639	0.605245	0.037418
C69	C	0.738741	0.625134	-0.183469
C70	C	0.742585	0.624861	-0.254799
C71	C	0.727411	0.829126	0.026708
C72	C	0.727410	0.898087	0.026710
C73	C	0.770686	0.622879	-0.656081
C74	C	0.767071	0.623138	-0.589060
C75	C	0.705016	0.627528	-0.557756
C76	C	0.646567	0.631667	-0.593481
C77	C	0.650179	0.631414	-0.660503
C78	C	0.687749	0.628747	-0.357547
C79	C	0.684142	0.628997	-0.290518
C80	C	0.804646	0.620470	-0.286102
C81	C	0.808256	0.620212	-0.353124
C82	C	0.749805	0.624356	-0.388845
N83	N	0.701321	0.627790	-0.489249
N84	N	0.753497	0.624100	-0.457354
C85	C	0.716087	0.626742	0.236871
C86	C	0.712243	0.627015	0.308201
C87	C	0.945594	0.407300	0.034696
C88	C	1.019642	0.333097	0.037409
C89	C	0.716090	0.423554	0.236864
C90	C	0.712246	0.354867	0.308192
C91	C	0.934267	0.408105	0.244866
C92	C	1.004471	0.334174	0.318909
C93	C	0.520561	0.843771	-0.191464
C94	C	0.450357	0.917702	-0.265508
C95	C	0.509234	0.844576	0.018706
C96	C	0.435186	0.918779	0.015992
C97	C	0.738738	0.828322	-0.183463
C98	C	0.742582	0.897009	-0.254790
C99	C	1.014025	0.301110	-0.003926
C100	C	1.083595	0.231397	-0.001392
C101	C	1.158782	0.193668	0.042481
C102	C	1.164398	0.225662	0.083818
C103	C	1.094828	0.295378	0.081279
C104	C	0.750833	0.319751	0.384298
C105	C	0.747218	0.255222	0.451324
C106	C	0.705021	0.225804	0.442243
C107	C	0.666430	0.260927	0.366129
C108	C	0.670040	0.325460	0.299104
C109	C	1.082262	0.296281	0.314204
C110	C	1.148233	0.226824	0.383769
C111	C	1.136411	0.195257	0.458039
C112	C	1.058612	0.233157	0.462743
C113	C	0.992643	0.302617	0.393178
C114	C	0.372566	0.955603	-0.260802
C115	C	0.306595	1.025080	-0.330367
C116	C	0.318417	1.056651	-0.404637
C117	C	0.396216	1.018747	-0.409341
C118	C	0.462185	0.949275	-0.339777
C119	C	0.440804	0.950773	0.057321
C120	C	0.371234	1.020504	0.054769
C121	C	0.296048	1.058235	0.010892
C122	C	0.290432	1.026238	-0.030441
C123	C	0.360001	0.956513	-0.027893
C124	C	0.784785	0.926405	-0.245684
C125	C	0.788412	0.990935	-0.312697
C126	C	0.749830	1.026071	-0.388815
C127	C	0.707625	0.996669	-0.397920
C128	C	0.704004	0.932136	-0.330908
H129	H	0.646108	0.027407	0.098344
H130	H	0.079038	0.745006	-0.035002
H131	H	0.646117	0.235967	0.098332
H132	H	0.640156	0.632119	-0.386625
N133	N	0.377255	0.485804	0.099313
H134	H	0.404898	0.449149	0.157852
H135	H	0.409128	0.448928	0.078844
H136	H	0.778647	0.226632	0.513292
H137	H	0.362925	0.929903	-0.200334
N138	N	0.796344	0.351471	0.394112
H139	H	0.758668	0.419181	0.366699
H140	H	0.840623	0.336995	0.369725
N141	N	0.408957	1.052797	-0.489451
H142	H	0.468248	1.018249	-0.481885
H143	H	0.383538	1.119641	-0.520031
H144	H	1.215423	0.136900	0.044543
H145	H	0.676213	1.025287	-0.459905
H146	H	0.264693	1.113219	-0.461275
H147	H	0.229206	1.056970	-0.066164
H148	H	0.632074	0.236966	0.358747
H149	H	1.211575	0.195973	0.379925
N150	N	0.753730	1.095686	-0.461088
H151	H	0.722884	1.113491	-0.510695
H152	H	0.811454	1.068994	-0.458924
H153	H	0.502004	0.497928	0.093037
N154	N	1.095035	0.330308	0.234108
H155	H	1.126103	0.354994	0.228959
H156	H	1.041418	0.380028	0.190789
H157	H	0.702088	0.173257	0.496825
N158	N	0.245483	0.424299	0.131165
H159	H	0.238476	0.374526	0.156952
H160	H	0.273991	0.418812	0.173555
H161	H	0.633606	0.632571	-0.265033
H162	H	0.239407	1.115009	0.008824
N163	N	1.245494	0.184965	0.131136
H164	H	1.288707	0.135945	0.126469
H165	H	1.248853	0.157883	0.188768
H166	H	0.669633	0.908209	-0.338334
N167	N	1.100893	0.329871	0.125868
H168	H	1.159081	0.295385	0.154046
H169	H	1.071667	0.320656	0.166143
N170	N	0.222687	1.065952	-0.325291
H171	H	0.214579	1.093394	-0.295909
H172	H	0.214634	1.017043	-0.295951
H173	H	0.638621	0.354043	0.237138
H174	H	1.190135	0.138697	0.514677
H175	H	0.229215	0.805198	-0.066172
H176	H	0.822778	1.014867	-0.305268
H177	H	0.816204	0.897807	-0.183710
N178	N	1.045868	0.199104	0.542851
H179	H	1.099468	0.149349	0.586199
H180	H	1.014776	0.174461	0.547935
H181	H	0.808721	0.342011	-0.044940
H182	H	0.929304	0.333461	0.397021
H183	H	0.525525	0.918417	-0.343618
N184	N	0.353936	0.922009	-0.072470
H185	H	0.295747	0.956495	-0.100648
H186	H	0.378908	0.855199	-0.033800
N187	N	1.077518	0.196898	-0.045974
H188	H	1.102459	0.130090	-0.007351
H189	H	1.106684	0.206176	-0.086298
H190	H	0.375822	1.046544	0.088430
N191	N	0.820567	0.215052	-0.055363
H192	H	0.848953	0.243402	-0.080378
H193	H	0.783667	0.228940	-0.098052
N194	N	0.634276	0.362928	0.108766
H195	H	0.605884	0.334585	0.133776
H196	H	0.593475	0.430861	0.069516
N197	N	0.521892	0.910087	0.104647
H198	H	0.514882	0.940947	0.130433
H199	H	0.554644	0.919042	0.068088
H200	H	0.808714	0.015904	-0.044926
N201	N	0.867687	0.616011	-0.247588
H202	H	0.922126	0.558193	-0.229322
H203	H	0.855922	0.616875	-0.200410
N204	N	0.820555	-0.111043	-0.055367
H205	H	0.813757	-0.156526	-0.049376
H206	H	0.878975	-0.142011	-0.031640
H207	H	0.099378	0.455628	0.114938
N208	N	0.634261	-0.097867	0.108775
H209	H	0.575820	-0.044298	0.085073
H210	H	0.653590	-0.126135	0.166999
N211	N	-0.067056	0.776330	-0.051234
H212	H	-0.060051	0.826106	-0.077021
H213	H	-0.099815	0.782106	-0.014681
H214	H	0.355442	0.796255	-0.061528
H215	H	0.814660	0.619771	-0.559979
N216	N	0.837617	0.618147	-0.689843
H217	H	0.874089	0.615571	-0.657046
H218	H	0.814262	0.673771	-0.746524
H219	H	0.596036	0.635247	-0.567992
H220	H	0.858786	0.616638	-0.378610
H221	H	0.602587	0.634784	-0.689586
N222	N	0.932936	0.341793	-0.051248
H223	H	0.939947	0.310945	-0.077048
H224	H	0.904436	0.408855	-0.093629
