data_functionalizedCrystal
_audit_creation_method	'MofGen! by Chris Wilmer'
_symmetry_space_group_name_H-M	'P1'
_symmetry_Int_Tables_number	1
_symmetry_cell_setting	triclinic
loop_
_symmetry_equiv_pos_as_xyz
  x,y,z
_cell_length_a	13.033293
_cell_length_b	29.839131
_cell_length_c	29.839126
_cell_angle_alpha	90.029653
_cell_angle_beta	97.216508
_cell_angle_gamma	97.203227
loop_
_atom_site_label
_atom_site_type_symbol
_atom_site_fract_x
_atom_site_fract_y
_atom_site_fract_z
Zn1	Zn	1.597779	-0.091767	0.341386
Zn2	Zn	1.597598	-0.166895	0.266236
Zn3	Zn	1.422983	-0.101301	0.256706
Zn4	Zn	1.422922	-0.176406	0.331782
O5	O	1.510321	-0.134092	0.299027
O6	O	1.744009	-0.093762	0.339424
O7	O	1.574384	-0.158203	0.202102
O8	O	1.446271	-0.037164	0.267971
O9	O	1.743876	-0.148958	0.284212
O10	O	1.574693	-0.030159	0.330184
O11	O	1.446096	-0.110012	0.195101
O12	O	1.276720	-0.119235	0.258658
O13	O	1.446168	-0.165169	0.395926
O14	O	1.276676	-0.174414	0.313816
O15	O	1.574634	-0.102985	0.402982
O16	O	1.574326	-0.231029	0.274899
O17	O	1.445992	-0.238017	0.323056
C18	C	1.238776	-0.148892	0.284161
C19	C	1.122608	-0.155234	0.277812
C20	C	1.070882	-0.130794	0.302341
C21	C	0.950816	-0.137348	0.295779
C22	C	1.510161	-0.250824	0.298981
C23	C	1.510189	-0.300756	0.298981
C24	C	1.577175	-0.606711	0.331462
C25	C	1.577288	-0.794378	0.331495
O26	O	1.634087	-0.815515	0.359075
N27	N	1.510498	-0.821525	0.299087
C28	C	1.443670	-0.801752	0.266670
O29	O	1.386855	-0.829149	0.239108
C30	C	1.443552	-0.614086	0.266639
C31	C	1.510354	-0.586942	0.299047
C32	C	1.643971	-0.579566	0.363868
C33	C	1.643946	-0.532652	0.363857
C34	C	1.577125	-0.512883	0.331442
C35	C	1.510329	-0.540027	0.299037
C36	C	1.376719	-0.594315	0.234224
C37	C	1.376693	-0.547396	0.234220
C38	C	1.443496	-0.520251	0.266628
C39	C	1.443483	-0.473344	0.266611
N40	N	1.510273	-0.446197	0.299019
C41	C	1.577094	-0.465967	0.331435
C42	C	1.443738	-0.900279	0.266688
C43	C	1.443768	-0.947195	0.266695
C44	C	1.577386	-0.939818	0.331521
C45	C	1.577360	-0.892900	0.331512
C46	C	1.510528	-0.873132	0.299096
C47	C	1.577037	-0.367444	0.331411
C48	C	1.577010	-0.320526	0.331397
C49	C	1.443388	-0.327908	0.266572
C50	C	1.443420	-0.374821	0.266585
C51	C	1.510248	-0.394588	0.299008
O52	O	1.386706	-0.452177	0.239049
O53	O	1.633884	-0.438564	0.358998
C54	C	1.577200	-0.653625	0.331472
C55	C	1.510404	-0.680770	0.299067
C56	C	1.443583	-0.661000	0.266651
C57	C	1.510435	-0.727686	0.299074
C58	C	1.577256	-0.747455	0.331490
C59	C	1.644046	-0.720309	0.363898
C60	C	1.644021	-0.673395	0.363888
C61	C	1.376793	-0.688147	0.234243
C62	C	1.376824	-0.735061	0.234256
C63	C	1.443645	-0.754830	0.266671
C64	C	1.782925	-0.119235	0.313952
C65	C	1.899093	-0.112904	0.320312
C66	C	1.510414	-0.134074	0.416211
C67	C	1.510454	-0.134067	0.466148
C68	C	1.510509	-0.016904	0.299086
C69	C	1.510589	0.033035	0.299110
C70	C	1.510287	-0.134074	0.182303
C71	C	1.510450	-0.133944	0.132378
C72	C	1.577240	-0.159101	0.826383
C73	C	1.577242	-0.159132	0.638710
O74	O	1.634015	-0.180488	0.617546
N75	N	1.510449	-0.134045	0.611593
C76	C	1.443647	-0.108951	0.631396
O77	O	1.386829	-0.087618	0.604025
C78	C	1.443641	-0.108923	0.819068
C79	C	1.510445	-0.134008	0.846183
C80	C	1.644038	-0.184183	0.853498
C81	C	1.644041	-0.184173	0.900413
C82	C	1.577246	-0.159081	0.920214
C83	C	1.510448	-0.133998	0.893099
C84	C	1.376834	-0.083832	0.838870
C85	C	1.376837	-0.083828	0.885792
C86	C	1.443641	-0.108913	0.912907
C87	C	1.443656	-0.108895	0.959815
N88	N	1.510448	-0.133981	0.986932
C89	C	1.577243	-0.159074	0.967132
C90	C	1.443657	-0.108967	0.532866
C91	C	1.443659	-0.108974	0.485948
C92	C	1.577253	-0.159155	0.493265
C93	C	1.577254	-0.159146	0.540184
C94	C	1.510449	-0.134054	0.559983
C95	C	1.577245	-0.159051	1.065658
C96	C	1.577245	-0.159037	1.112577
C97	C	1.443648	-0.108858	1.105256
C98	C	1.443651	-0.108870	1.058341
C99	C	1.510453	-0.133970	1.038543
O100	O	1.386904	-0.087554	0.981009
O101	O	1.634037	-0.180412	0.994510
C102	C	1.577237	-0.159111	0.779467
C103	C	1.510439	-0.134028	0.752352
C104	C	1.443644	-0.108935	0.772153
C105	C	1.510442	-0.134034	0.705434
C106	C	1.577237	-0.159127	0.685634
C107	C	1.644029	-0.184213	0.712751
C108	C	1.644032	-0.184203	0.759666
C109	C	1.376852	-0.083848	0.745036
C110	C	1.376856	-0.083860	0.698120
C111	C	1.443650	-0.108953	0.678320
H112	H	1.631412	-0.298425	0.357787
H113	H	1.698458	-0.736413	0.390290
H114	H	1.389032	-0.396924	0.240193
Cl115	Cl	1.661219	-0.190702	0.468364
H116	H	1.078004	-0.181009	0.251952
H117	H	1.115486	-0.105016	0.328198
Cl118	Cl	1.728021	-0.215733	0.828614
Cl119	Cl	1.292838	-0.769180	0.193509
H120	H	0.906217	-0.163125	0.269918
Cl121	Cl	1.359643	-0.077430	0.557748
H122	H	1.631652	-0.179572	0.562258
Cl123	Cl	1.661227	-0.190605	1.040776
Cl124	Cl	1.292844	-0.052296	0.804794
Cl125	Cl	1.359709	-0.875435	0.225934
H126	H	1.388987	-0.311804	0.240179
Cl127	Cl	1.661388	-0.964679	0.372272
H128	H	1.631649	-0.179464	1.134653
Cl129	Cl	1.359688	-0.077430	0.451867
Cl130	Cl	1.292729	-0.628429	0.193482
Cl131	Cl	1.292775	-0.663302	0.193490
Cl132	Cl	1.728002	-0.215757	0.687850
Cl133	Cl	0.967942	-0.073101	0.360236
H134	H	1.631448	-0.383533	0.357815
H135	H	1.389382	-0.969292	0.240301
Cl136	Cl	1.727922	-0.498535	0.404604
H137	H	1.698385	-0.595657	0.390267
H138	H	1.322434	-0.063395	0.901909
H139	H	1.322458	-0.063429	0.676047
Cl140	Cl	1.661341	-0.858780	0.372255
Cl141	Cl	1.292671	-0.522548	0.193466
Cl142	Cl	1.728004	-0.639276	0.404632
H143	H	1.698436	-0.204601	0.922487
H144	H	1.389268	-0.088437	1.036263
Cl145	Cl	1.359682	-0.077315	1.130158
H146	H	1.698430	-0.204630	0.781740
H147	H	1.322457	-0.063415	0.761152
