data_functionalizedCrystal
_audit_creation_method	'MofGen! by Chris Wilmer'
_symmetry_space_group_name_H-M	'P1'
_symmetry_Int_Tables_number	1
_symmetry_cell_setting	triclinic
loop_
_symmetry_equiv_pos_as_xyz
  x,y,z
_cell_length_a	15.297475
_cell_length_b	12.759400
_cell_length_c	12.759393
_cell_angle_alpha	89.968436
_cell_angle_beta	80.312341
_cell_angle_gamma	80.317822
loop_
_atom_site_label
_atom_site_type_symbol
_atom_site_fract_x
_atom_site_fract_y
_atom_site_fract_z
Zn1	Zn	-1.379338	0.696589	0.871592
Zn2	Zn	-0.879338	1.196589	1.371592
Zn3	Zn	-1.379247	0.872290	0.695893
Zn4	Zn	-0.879247	1.372290	1.195893
Zn5	Zn	-1.228461	0.666193	0.665565
Zn6	Zn	-0.728461	1.166193	1.165565
Zn7	Zn	-1.228451	0.841774	0.841185
Zn8	Zn	-0.728451	1.341774	1.341185
O9	O	-1.303874	0.769211	0.768559
O10	O	-0.803874	1.269211	1.268559
O11	O	-1.505577	0.745388	0.873703
O12	O	-1.005577	1.245388	1.373703
O13	O	-1.359211	0.845000	0.544842
O14	O	-0.859211	1.345000	1.044842
O15	O	-1.248517	0.523212	0.692927
O16	O	-0.748517	1.023212	1.192927
O17	O	-1.505510	0.874474	0.744618
O18	O	-1.005510	1.374474	1.244618
O19	O	-1.359366	0.545544	0.844294
O20	O	-0.859366	1.045544	1.344294
O21	O	-1.248429	0.693582	0.522560
O22	O	-0.748429	1.193582	1.022560
O23	O	-1.102208	0.663992	0.663444
O24	O	-0.602208	1.163992	1.163444
O25	O	-1.248500	0.822465	0.992247
O26	O	-0.748500	1.322465	1.492247
O27	O	-1.102201	0.792991	0.792471
O28	O	-0.602201	1.292991	1.292471
O29	O	-1.359356	0.715798	1.014586
O30	O	-0.859356	1.215798	1.514586
O31	O	-1.359202	1.015254	0.715134
O32	O	-0.859202	1.515254	1.215134
O33	O	-1.248412	0.992834	0.821879
O34	O	-0.748412	1.492834	1.321879
C35	C	-1.069469	0.721883	0.721367
C36	C	-0.569469	1.221883	1.221367
C37	C	-0.969190	0.701660	0.701204
C38	C	-0.469190	1.201660	1.201204
C39	C	-1.303821	1.042168	0.768526
C40	C	-0.803821	1.542168	1.268526
C41	C	-1.303880	1.158957	0.768564
C42	C	-0.803880	1.658957	1.268564
C43	C	-1.539194	0.816726	0.815935
C44	C	-1.039194	1.316726	1.315935
C45	C	-1.639474	0.836974	0.836124
C46	C	-1.139474	1.336974	1.336124
C47	C	-0.686604	0.913750	0.912675
C48	C	-0.186604	1.413750	1.412675
C49	C	-0.780821	0.932758	0.931617
C50	C	-0.280821	1.432758	1.431617
C51	C	-0.827918	0.874985	0.874015
C52	C	-0.327918	1.374985	1.374015
C53	C	-0.780788	0.798201	0.797468
C54	C	-0.280788	1.298201	1.297468
C55	C	-0.686561	0.779198	0.778519
C56	C	-0.186561	1.279198	1.278519
C57	C	-0.827876	0.740433	0.739859
C58	C	-0.327876	1.240433	1.239859
C59	C	-0.780746	0.663649	0.663312
C60	C	-0.280746	1.163649	1.163312
C61	C	-0.686528	0.644649	0.644367
C62	C	-0.186528	1.144649	1.144367
C63	C	-0.639431	0.702421	0.701968
C64	C	-0.139431	1.202421	1.201968
C65	C	-0.922102	0.759436	0.758809
C66	C	-0.422102	1.259436	1.258809
C67	C	-0.922060	0.624884	0.624653
C68	C	-0.422060	1.124884	1.124653
C69	C	-0.827842	0.605876	0.605711
C70	C	-0.327842	1.105876	1.105711
C71	C	-1.303937	0.769118	1.042605
C72	C	-0.803937	1.269118	1.542605
C73	C	-1.303964	0.769078	1.159387
C74	C	-0.803964	1.269078	1.659387
C75	C	-1.303952	0.495194	0.768620
C76	C	-0.803952	0.995194	1.268620
C77	C	-1.303986	0.378424	0.768645
C78	C	-0.803986	0.878424	1.268645
C79	C	-1.361632	1.225471	0.713069
C80	C	-0.861632	1.725471	1.213069
C81	C	-1.361688	1.335206	0.713112
C82	C	-0.861688	1.835206	1.213112
C83	C	-1.246231	1.311902	0.824147
C84	C	-0.746231	1.811902	1.324147
C85	C	-1.246181	1.202170	0.824109
C86	C	-0.746181	1.702170	1.324109
C87	C	-1.428287	1.238925	0.648960
C88	C	-0.928287	1.738925	1.148960
C89	C	-1.428343	1.348661	0.649003
C90	C	-0.928343	1.848661	1.149003
C91	C	-1.303863	0.769239	0.495589
C92	C	-0.803863	1.269239	0.995589
C93	C	-1.304011	0.769018	0.378843
C94	C	-0.804011	1.269018	0.878843
C95	C	-1.361695	0.713532	1.225885
C96	C	-0.861695	1.213532	1.725885
C97	C	-1.361716	0.713499	1.335613
C98	C	-0.861716	1.213499	1.835613
C99	C	-1.246274	0.824566	1.312336
C100	C	-0.746274	1.324566	1.812336
C101	C	-1.246249	0.824593	1.202609
C102	C	-0.746249	1.324593	1.702609
C103	C	-1.428347	0.649412	1.239325
C104	C	-0.928347	1.149412	1.739325
C105	C	-1.428369	0.649379	1.349053
C106	C	-0.928369	1.149379	1.849053
H107	H	-0.960466	0.821953	0.821135
H108	H	-0.460466	1.321953	1.321135
H109	H	-0.960406	0.577842	0.577747
H110	H	-0.460406	1.077842	1.077747
H111	H	-0.789456	0.543359	0.543385
H112	H	-0.289456	1.043359	1.043385
H113	H	-1.199282	0.869761	1.347541
H114	H	-0.699282	1.369761	1.847541
Br115	Br	-1.397193	0.507517	1.183449
Br116	Br	-0.897193	1.007517	1.683449
H117	H	-0.904634	0.890465	0.889443
H118	H	-0.404634	1.390465	1.389443
H119	H	-0.819188	0.995277	0.993939
H120	H	-0.319188	1.495277	1.493939
H121	H	-1.403277	1.199930	0.566600
H122	H	-0.903277	1.699930	1.066600
H123	H	-1.199236	0.869819	1.148469
H124	H	-0.699236	1.369819	1.648469
H125	H	-1.403368	0.567024	1.378069
H126	H	-0.903368	1.067024	1.878069
Br127	Br	-1.538942	0.720346	1.204843
Br128	Br	-1.038942	1.220346	1.704843
Br129	Br	-1.544831	0.709185	1.422136
Br130	Br	-1.044831	1.209185	1.922136
H131	H	-1.199163	1.148016	0.869309
H132	H	-0.699163	1.648016	1.369309
Br133	Br	-1.167932	1.370556	0.899531
Br134	Br	-0.667932	1.870556	1.399531
H135	H	-1.494726	1.396003	0.691576
H136	H	-0.994726	1.896003	1.191576
H137	H	-0.562712	0.686948	0.686552
H138	H	-0.062712	1.186948	1.186552
Br139	Br	-0.622684	0.992174	0.990811
Br140	Br	-0.122684	1.492174	1.490811
H141	H	-0.648157	0.582137	0.582026
H142	H	-0.148157	1.082137	1.082026
H143	H	-1.409676	1.374756	0.563866
H144	H	-0.909676	1.874756	1.063866
H145	H	-1.498139	1.223166	0.684870
H146	H	-0.998139	1.723166	1.184870
