data_functionalizedCrystal
_audit_creation_method	'MofGen! by Chris Wilmer'
_symmetry_space_group_name_H-M	'P1'
_symmetry_Int_Tables_number	1
_symmetry_cell_setting	triclinic
loop_
_symmetry_equiv_pos_as_xyz
  x,y,z
_cell_length_a	12.759400
_cell_length_b	12.759401
_cell_length_c	12.759393
_cell_angle_alpha	89.979989
_cell_angle_beta	90.031564
_cell_angle_gamma	89.989237
loop_
_atom_site_label
_atom_site_type_symbol
_atom_site_fract_x
_atom_site_fract_y
_atom_site_fract_z
Zn1	Zn	-0.418314	-1.606255	0.594024
Zn2	Zn	-0.594033	-1.606150	0.418344
Zn3	Zn	-0.418357	-1.430557	0.418359
Zn4	Zn	-0.593940	-1.430546	0.593981
O5	O	-0.506161	-1.518377	0.506177
O6	O	-0.441645	-1.753262	0.570731
O7	O	-0.570786	-1.582818	0.271325
O8	O	-0.271330	-1.453913	0.441685
O9	O	-0.570745	-1.753185	0.441660
O10	O	-0.271299	-1.582998	0.570746
O11	O	-0.441717	-1.453811	0.271335
O12	O	-0.441627	-1.283535	0.441643
O13	O	-0.570586	-1.453894	0.741008
O14	O	-0.570627	-1.283527	0.570672
O15	O	-0.441554	-1.582987	0.741039
O16	O	-0.741042	-1.582807	0.441618
O17	O	-0.740973	-1.453791	0.570658
C18	C	-0.506122	-1.245410	0.506155
C19	C	-0.506131	-1.128633	0.506171
C20	C	-0.439033	-1.073805	0.573481
C21	C	-0.439047	-0.964081	0.573485
C22	C	-0.573267	-0.964023	0.438866
C23	C	-0.573247	-1.073745	0.438857
C24	C	-0.371917	-1.128692	0.640795
C25	C	-0.304814	-1.073864	0.708111
C26	C	-0.304828	-0.964140	0.708115
C27	C	-0.371946	-0.909244	0.640803
C28	C	-0.779128	-1.518315	0.506155
C29	C	-0.895905	-1.518384	0.506181
C30	C	-0.950768	-1.585637	0.439064
C31	C	-1.060492	-1.585702	0.439096
C32	C	-1.060480	-1.451252	0.573365
C33	C	-0.950758	-1.451193	0.573337
C34	C	-0.895914	-1.652828	0.371907
C35	C	-0.950777	-1.720086	0.304784
C36	C	-1.060501	-1.720150	0.304817
C37	C	-1.115362	-1.652957	0.371972
C38	C	-0.232128	-1.518468	0.506222
C39	C	-0.115351	-1.518507	0.506241
C40	C	-0.506055	-1.518451	0.780210
C41	C	-0.506010	-1.518482	0.896987
C42	C	-0.506188	-0.792410	0.506193
C43	C	-0.506166	-0.909187	0.506183
C44	C	-0.506191	-1.518364	0.233209
C45	C	-0.505940	-1.518537	0.116433
C46	C	-0.438817	-1.585710	0.951867
C47	C	-0.438779	-1.585735	1.061591
C48	C	-0.573136	-1.451301	1.061545
C49	C	-0.573168	-1.451272	0.951823
C50	C	-0.371659	-1.652920	0.897031
C51	C	-0.304461	-1.720155	0.951911
C52	C	-0.304423	-1.720180	1.061635
C53	C	-0.371583	-1.652970	1.116479
H54	H	-0.250163	-1.118567	0.762908
H55	H	-0.627884	-1.118388	0.384047
H56	H	-0.371684	-1.652910	0.807688
C57	C	-0.231016	-0.903826	0.782156
C58	C	-0.157194	-0.964205	0.856194
C59	C	-0.083382	-0.903894	0.930242
C60	C	-0.083393	-0.783204	0.930252
C61	C	-0.157218	-0.722818	0.856211
C62	C	-0.231029	-0.783129	0.782163
H63	H	-0.157183	-1.053553	0.856189
H64	H	-0.028732	-0.948596	0.985051
H65	H	-0.028753	-0.738558	0.985066
H66	H	-0.157228	-0.633470	0.856216
H67	H	-0.285679	-0.738427	0.727354
H68	H	-0.627866	-1.396513	0.907139
H69	H	-0.906104	-1.774798	0.250115
H70	H	-0.627913	-0.919319	0.384065
C71	C	-1.120852	-1.794135	0.230991
C72	C	-1.060511	-1.868042	0.157128
C73	C	-1.120860	-1.942027	0.083297
C74	C	-1.241550	-1.942105	0.083328
C75	C	-1.301898	-1.868195	0.157194
C76	C	-1.241549	-1.794210	0.231025
H77	H	-0.971163	-1.867987	0.157102
H78	H	-1.076186	-1.996740	0.028616
H79	H	-1.286224	-1.996873	0.028674
H80	H	-1.391246	-1.868250	0.157220
H81	H	-1.286223	-1.739498	0.285706
H82	H	-1.204707	-1.653024	0.372001
C83	C	-1.120825	-1.377337	0.647225
C84	C	-1.241514	-1.377397	0.647254
C85	C	-1.301857	-1.303479	0.721114
C86	C	-1.241510	-1.229501	0.794944
C87	C	-1.120813	-1.229439	0.794918
C88	C	-1.060470	-1.303357	0.721059
H89	H	-1.286193	-1.432163	0.592598
H90	H	-1.391205	-1.303526	0.721133
H91	H	-1.286179	-1.174783	0.849620
H92	H	-1.076134	-1.174673	0.849574
H93	H	-0.971122	-1.303310	0.721040
H94	H	-0.906089	-1.396431	0.627991
C95	C	-0.647015	-1.377383	1.121870
C96	C	-0.646986	-1.377418	1.242560
C97	C	-0.720869	-1.303502	1.302884
C98	C	-0.794783	-1.229550	1.242518
C99	C	-0.794815	-1.229512	1.121821
C100	C	-0.720931	-1.303429	1.061497
H101	H	-0.592268	-1.432164	1.287253
H102	H	-0.720845	-1.303531	1.392232
H103	H	-0.849476	-1.174833	1.287173
H104	H	-0.849533	-1.174766	1.077128
H105	H	-0.720956	-1.303400	0.972149
H106	H	-0.249700	-1.774917	1.106316
H107	H	-0.371897	-1.218035	0.640799
H108	H	-0.371930	-0.819900	0.640789
H109	H	-0.806572	-1.652780	0.371871
H110	H	-0.249776	-1.774867	0.907250
H111	H	-0.371534	-1.652984	1.205824
