data_functionalizedCrystal
_audit_creation_method	'MofGen! by Chris Wilmer'
_symmetry_space_group_name_H-M	'P1'
_symmetry_Int_Tables_number	1
_symmetry_cell_setting	triclinic
loop_
_symmetry_equiv_pos_as_xyz
  x,y,z
_cell_length_a	18.101398
_cell_length_b	18.101395
_cell_length_c	12.759393
_cell_angle_alpha	89.967074
_cell_angle_beta	89.972395
_cell_angle_gamma	90.026371
loop_
_atom_site_label
_atom_site_type_symbol
_atom_site_fract_x
_atom_site_fract_y
_atom_site_fract_z
Zn1	Zn	1.132145	-0.294883	-0.594206
Zn2	Zn	1.132034	-0.418744	-0.418521
Zn3	Zn	1.008297	-0.294910	-0.418520
Zn4	Zn	1.008255	-0.418677	-0.594136
O5	O	1.070183	-0.356804	-0.506346
O6	O	1.235763	-0.311330	-0.570931
O7	O	1.115591	-0.402356	-0.271499
O8	O	1.024790	-0.191274	-0.441854
O9	O	1.235681	-0.402330	-0.441855
O10	O	1.115780	-0.191254	-0.570930
O11	O	1.024682	-0.311376	-0.271499
O12	O	0.904658	-0.311312	-0.441786
O13	O	1.024718	-0.402216	-0.741166
O14	O	0.904627	-0.402243	-0.570810
O15	O	1.115740	-0.311266	-0.741218
O16	O	1.115550	-0.522368	-0.441787
O17	O	1.024610	-0.522319	-0.570811
C18	C	0.877772	-0.356774	-0.506291
C19	C	0.795458	-0.356778	-0.506292
C20	C	1.070083	-0.549214	-0.506315
C21	C	1.070109	-0.631528	-0.506337
C22	C	0.496367	-0.356825	-0.506380
C23	C	0.527687	-0.299327	-0.425598
C24	C	0.613305	-0.299482	-0.425253
C25	C	0.644750	-0.356801	-0.506337
C26	C	0.613630	-0.434815	-0.476087
C27	C	0.527985	-0.434496	-0.475526
C28	C	0.527986	-0.336986	-0.617603
C29	C	0.613637	-0.335249	-0.616996
C30	C	0.728609	-0.356793	-0.506314
C31	C	0.412508	-0.356838	-0.506401
C32	C	1.070271	-0.930619	-0.506393
C33	C	1.013187	-0.899294	-0.587773
C34	C	1.012916	-0.813676	-0.587518
C35	C	1.070191	-0.782237	-0.506366
C36	C	1.049057	-0.813394	-0.395637
C37	C	1.048689	-0.899039	-0.396124
C38	C	1.148614	-0.898967	-0.534768
C39	C	1.148154	-0.813316	-0.537196
C40	C	1.070146	-0.698377	-0.506344
C41	C	1.070314	-1.014479	-0.506408
C42	C	1.263344	-0.356834	-0.506401
C43	C	1.345659	-0.356847	-0.506425
C44	C	1.070236	-0.356731	-0.780379
C45	C	1.070259	-0.356700	-0.897156
C46	C	1.070302	-0.163642	-0.506400
C47	C	1.070353	-0.081328	-0.506423
C48	C	1.117673	-0.309306	-1.061778
C49	C	1.117659	-0.309335	-0.952053
C50	C	1.022876	-0.404044	-0.951988
C51	C	1.022895	-0.404019	-1.061710
C52	C	1.070172	-0.356823	-0.233378
C53	C	1.070292	-0.356645	-0.116602
H54	H	0.634346	-0.241631	-0.444214
H55	H	1.156242	-0.270787	-0.907420
F56	F	1.168116	-0.258886	-1.120194
F57	F	0.641614	-0.457187	-0.370957
H58	H	1.167881	-0.920511	-0.614136
H59	H	0.984311	-0.442572	-1.106349
H60	H	1.164090	-0.792949	-0.618687
F61	F	1.206689	-0.785334	-0.465377
F62	F	1.204207	-0.925457	-0.457309
H63	H	0.507117	-0.241300	-0.444350
F64	F	0.499504	-0.316264	-0.318505
H65	H	0.984286	-0.442613	-0.907282
H66	H	0.633755	-0.312597	-0.342838
H67	H	0.507970	-0.451319	-0.394217
F68	F	0.937749	-0.927517	-0.563532
H69	H	0.507265	-0.478787	-0.531798
H70	H	0.635045	-0.374075	-0.680410
H71	H	0.506415	-0.281088	-0.645106
F72	F	0.640242	-0.492312	-0.550591
H73	H	0.507732	-0.378865	-0.677793
H74	H	1.026138	-0.792607	-0.669623
F75	F	0.640238	-0.260216	-0.646820
H76	H	0.954846	-0.793249	-0.568722
F77	F	1.030295	-0.926147	-0.695440
H78	H	0.991421	-0.919079	-0.372088
H79	H	1.088463	-0.919764	-0.333421
H80	H	0.992395	-0.792006	-0.371171
F81	F	1.101691	-0.786780	-0.314218
