data_functionalizedCrystal
_audit_creation_method	'MofGen! by Chris Wilmer'
_symmetry_space_group_name_H-M	'P1'
_symmetry_Int_Tables_number	1
_symmetry_cell_setting	triclinic
loop_
_symmetry_equiv_pos_as_xyz
  x,y,z
_cell_length_a	8.497374
_cell_length_b	19.077105
_cell_length_c	19.077068
_cell_angle_alpha	90.115316
_cell_angle_beta	92.284024
_cell_angle_gamma	87.699981
loop_
_atom_site_label
_atom_site_type_symbol
_atom_site_fract_x
_atom_site_fract_y
_atom_site_fract_z
Zn1	Zn	1.016648	-1.062860	0.323110
Zn2	Zn	0.762970	-1.058079	0.440586
Zn3	Zn	0.741875	-0.945387	0.318369
Zn4	Zn	1.015701	-0.940595	0.435851
O5	O	0.884299	-1.001730	0.379479
O6	O	0.992222	-1.160556	0.342659
O7	O	0.539410	-1.043135	0.424372
O8	O	0.769893	-0.964977	0.220667
O9	O	0.805846	-1.157044	0.428968
O10	O	0.971767	-1.051283	0.224150
O11	O	0.523911	-0.960341	0.334579
O12	O	0.768974	-0.846421	0.329988
O13	O	1.236588	-0.956809	0.420898
O14	O	0.970152	-0.842901	0.416301
O15	O	1.237285	-1.046636	0.338067
O16	O	0.804927	-1.038488	0.538289
O17	O	0.990607	-0.952173	0.534810
C18	C	0.867172	-0.819165	0.372117
C19	C	0.859884	-0.741062	0.368984
C20	C	0.899989	-0.994311	0.562047
C21	C	0.906761	-0.991201	0.640152
C22	C	0.901493	-1.185009	0.386870
C23	C	0.908820	-1.263111	0.390020
C24	C	1.295778	-1.001725	0.379480
C25	C	1.474423	-1.001726	0.379487
C26	C	0.868583	-1.009198	0.196199
C27	C	0.861886	-1.012380	0.118097
C28	C	0.961050	-0.702552	0.412519
C29	C	0.954209	-0.629166	0.409566
C30	C	0.846193	-0.594292	0.363082
C31	C	0.745023	-0.632808	0.319542
C32	C	0.751873	-0.706192	0.322492
C33	C	0.814499	-0.375011	0.349430
C34	C	0.807654	-0.301621	0.346485
C35	C	1.016843	-0.297985	0.436509
C36	C	1.023677	-0.371371	0.439457
C37	C	0.922512	-0.409880	0.395915
N38	N	0.839195	-0.519280	0.360064
N39	N	0.929519	-0.484891	0.398930
C40	C	0.813355	-1.034715	0.678636
C41	C	0.819734	-1.031794	0.752025
C42	C	0.919510	-0.985356	0.786928
C43	C	1.012926	-0.941841	0.748439
C44	C	1.006555	-0.944765	0.675052
C45	C	0.948930	-0.971789	1.006221
C46	C	0.955291	-0.968866	1.079613
C47	C	0.762100	-1.058821	1.083193
C48	C	0.755730	-1.061739	1.009804
C49	C	0.849152	-1.018226	0.971322
N50	N	0.926029	-0.982368	0.861943
N51	N	0.842641	-1.021218	0.896309
H52	H	1.049004	-0.730941	0.450374
H53	H	1.099208	-0.266623	0.471957
H54	H	1.036588	-0.597814	0.445018
F55	F	0.649552	-1.111173	0.972663
H56	H	0.743672	-1.067227	0.783355
F57	F	1.119126	-0.892421	0.785588
F58	F	0.692674	-0.264507	0.297012
F59	F	1.048358	-0.925478	0.965274
F60	F	0.662688	-1.105130	1.124154
H61	H	1.082618	-0.909333	0.643719
F62	F	1.138639	-0.408481	0.488934
F63	F	0.706833	-0.415986	0.303087
F64	F	0.630073	-0.595690	0.270065
F65	F	0.644201	-0.747177	0.276155
F66	F	1.061475	-0.919431	1.116758
F67	F	0.707148	-1.084137	0.641495
