data_functionalizedCrystal
_audit_creation_method	'MofGen! by Chris Wilmer'
_symmetry_space_group_name_H-M	'P1'
_symmetry_Int_Tables_number	1
_symmetry_cell_setting	triclinic
loop_
_symmetry_equiv_pos_as_xyz
  x,y,z
_cell_length_a	10.723024
_cell_length_b	10.723024
_cell_length_c	9.198806
_cell_angle_alpha	89.997988
_cell_angle_beta	89.996352
_cell_angle_gamma	84.467869
loop_
_atom_site_label
_atom_site_type_symbol
_atom_site_fract_x
_atom_site_fract_y
_atom_site_fract_z
O1	O	1.657188	0.175024	-0.120879
O2	O	1.294035	0.191778	-0.120884
O3	O	1.483988	0.001825	-0.120876
O4	O	1.467235	0.364977	-0.120887
O5	O	1.483973	0.001824	0.120909
O6	O	1.294020	0.191777	0.120901
O7	O	1.657173	0.175024	0.120906
Cu8	Cu	1.475595	0.183401	0.142981
Cu9	Cu	1.475613	0.183401	-0.142958
O10	O	1.467220	0.364977	0.120898
C11	C	1.247528	0.190558	0.000008
C12	C	1.108974	0.186911	0.000007
C13	C	1.482762	-0.044675	0.000015
C14	C	1.479114	-0.183229	0.000010
C15	C	1.033991	0.293198	0.000002
C16	C	0.890788	0.289431	0.000001
C17	C	1.585401	-0.258212	0.000009
C18	C	1.581634	-0.401415	0.000004
C19	C	1.703680	0.176243	0.000011
C20	C	1.842234	0.179891	0.000003
C21	C	1.468447	0.411477	0.000004
C22	C	1.472094	0.550031	-0.000000
N23	N	1.475592	0.183399	0.344095
N24	N	1.475626	0.183393	-0.344072
C25	C	1.555347	0.103292	0.416295
C26	C	1.555367	0.103288	0.583707
H27	H	0.826355	0.380421	-0.000009
H28	H	0.906659	0.088896	-0.000003
H29	H	1.381099	-0.385544	0.000010
C30	C	1.090481	0.419903	-0.000011
C31	C	1.176208	0.453378	0.125534
C32	C	1.232696	0.580086	0.125516
C33	C	1.203455	0.673318	-0.000047
C34	C	1.117723	0.639844	-0.125601
C35	C	1.061236	0.513137	-0.125583
H36	H	1.197858	0.384360	0.218492
H37	H	1.296160	0.604864	0.218461
H38	H	1.245271	0.767114	-0.000060
H39	H	1.096074	0.708862	-0.218559
H40	H	0.997771	0.488358	-0.218527
C41	C	1.647580	0.010638	0.332385
C42	C	1.647313	0.010653	0.164980
C43	C	1.739549	-0.082005	0.081076
C44	C	1.832052	-0.174678	0.164577
C45	C	1.832322	-0.174697	0.331991
C46	C	1.740086	-0.082039	0.415896
H47	H	1.578834	0.079259	0.103159
H48	H	1.739349	-0.081990	-0.042856
H49	H	1.900331	-0.243269	0.102466
H50	H	1.900801	-0.243303	0.393812
H51	H	1.740286	-0.082053	0.539827
C52	C	1.052490	0.060204	0.000009
C53	C	1.081732	-0.033036	0.125565
C54	C	1.025252	-0.159747	0.125568
C55	C	0.939530	-0.193219	0.000015
C56	C	0.910284	-0.099978	-0.125549
C57	C	0.966764	0.026734	-0.125552
H58	H	1.145192	-0.008260	0.218515
H59	H	1.046902	-0.228771	0.218520
H60	H	0.897720	-0.287019	0.000018
H61	H	0.846824	-0.124754	-0.218499
H62	H	0.945114	0.095757	-0.218505
C63	C	1.383372	0.276054	0.572070
C64	C	1.288099	0.226635	0.466541
C65	C	1.195845	0.319296	0.382671
C66	C	1.198864	0.461375	0.404330
C67	C	1.294140	0.510801	0.509865
C68	C	1.386394	0.418140	0.593734
H69	H	1.285861	0.121453	0.450503
H70	H	1.125315	0.282707	0.304548
H71	H	1.130572	0.529969	0.342245
H72	H	1.296378	0.615983	0.525902
H73	H	1.456924	0.454729	0.671858
H74	H	1.679187	-0.216390	0.000019
H75	H	1.407319	0.251975	0.406220
H76	H	1.672624	-0.465848	0.000010
H77	H	1.623653	0.034709	0.645796
H78	H	1.385328	-0.225051	-0.000001
