data_functionalizedCrystal
_audit_creation_method	'MofGen! by Chris Wilmer'
_symmetry_space_group_name_H-M	'P1'
_symmetry_Int_Tables_number	1
_symmetry_cell_setting	triclinic
loop_
_symmetry_equiv_pos_as_xyz
  x,y,z
_cell_length_a	27.732048
_cell_length_b	27.732048
_cell_length_c	26.809956
_cell_angle_alpha	89.999364
_cell_angle_beta	89.996742
_cell_angle_gamma	82.642655
loop_
_atom_site_label
_atom_site_type_symbol
_atom_site_fract_x
_atom_site_fract_y
_atom_site_fract_z
O1	O	0.640931	0.057510	-0.041421
O2	O	0.974264	0.390843	0.291913
O3	O	1.307598	0.724177	0.625246
O4	O	0.500138	0.066256	-0.041436
O5	O	0.833471	0.399589	0.291897
O6	O	1.166804	0.732922	0.625230
O7	O	0.574907	-0.008514	-0.041419
O8	O	0.908240	0.324820	0.291915
O9	O	1.241574	0.658153	0.625248
O10	O	0.566162	0.132280	-0.041439
O11	O	0.899495	0.465613	0.291895
O12	O	1.232828	0.798946	0.625228
O13	O	0.574893	-0.008502	0.041541
O14	O	0.908226	0.324831	0.374874
O15	O	1.241560	0.658164	0.708207
O16	O	0.500123	0.066267	0.041523
O17	O	0.833457	0.399600	0.374856
O18	O	1.166790	0.732934	0.708189
O19	O	0.640917	0.057522	0.041539
O20	O	0.974250	0.390855	0.374872
O21	O	1.307584	0.724188	0.708205
Zn22	Zn	0.570518	0.061896	0.054702
Zn23	Zn	0.903851	0.395229	0.388036
Zn24	Zn	1.237185	0.728563	0.721369
Zn25	Zn	0.570536	0.061881	-0.054600
Zn26	Zn	0.903870	0.395214	0.278733
Zn27	Zn	1.237203	0.728548	0.612067
O28	O	0.566147	0.132291	0.041521
O29	O	0.899481	0.465624	0.374854
O30	O	1.232814	0.798958	0.708187
C31	C	0.482124	0.066078	0.000041
C32	C	0.815457	0.399411	0.333375
C33	C	1.148790	0.732744	0.666708
C34	C	0.428469	0.065525	0.000036
C35	C	0.761802	0.398858	0.333369
C36	C	1.095135	0.732192	0.666702
C37	C	0.574716	-0.026515	0.000062
C38	C	0.908050	0.306818	0.333396
C39	C	1.241383	0.640152	0.666729
C40	C	0.574164	-0.080170	0.000066
C41	C	0.907497	0.253163	0.333400
C42	C	1.240830	0.586497	0.666733
C43	C	0.089654	0.106229	0.000051
C44	C	0.422987	0.439562	0.333385
C45	C	0.756320	0.772895	0.666718
C46	C	-0.112006	0.104178	0.000056
C47	C	0.221327	0.437511	0.333390
C48	C	0.554661	0.770844	0.666723
O49	O	-0.143262	0.141398	0.000073
O50	O	0.190072	0.474732	0.333406
O51	O	0.523405	0.808065	0.666739
N52	N	-0.131130	0.059843	0.000062
N53	N	0.202204	0.393176	0.333395
N54	N	0.535537	0.726509	0.666728
C55	C	-0.099835	0.016017	0.000069
C56	C	0.233498	0.349350	0.333402
C57	C	0.566832	0.682684	0.666736
O58	O	-0.120728	-0.021740	0.000079
O59	O	0.212605	0.311593	0.333412
O60	O	0.545938	0.644927	0.666746
C61	C	0.101824	0.018068	0.000068
C62	C	0.435157	0.351402	0.333401
C63	C	0.768490	0.684735	0.666735
C64	C	0.120944	0.062407	0.000057
C65	C	0.454278	0.395740	0.333391
C66	C	0.787611	0.729073	0.666724
C67	C	0.108775	0.150563	0.000042
C68	C	0.442108	0.483897	0.333375
C69	C	0.775442	0.817230	0.666708
C70	C	0.159187	0.151076	0.000038
C71	C	0.492520	0.484409	0.333371
C72	C	0.825853	0.817742	0.666704
C73	C	0.190477	0.107253	0.000044
C74	C	0.523811	0.440587	0.333377
C75	C	0.857144	0.773920	0.666710
C76	C	0.171356	0.062919	0.000054
C77	C	0.504690	0.396252	0.333387
C78	C	0.838023	0.729585	0.666720
C79	C	0.133117	-0.025757	0.000079
C80	C	0.466451	0.307577	0.333412
C81	C	0.799784	0.640910	0.666746
C82	C	0.183535	-0.025240	0.000080
C83	C	0.516868	0.308094	0.333413
C84	C	0.850201	0.641427	0.666747
C85	C	0.202655	0.019098	0.000069
C86	C	0.535989	0.352432	0.333403
C87	C	0.869322	0.685765	0.666736
C88	C	0.253059	0.019609	0.000056
C89	C	0.586392	0.352942	0.333389
C90	C	0.919725	0.686276	0.666722
N91	N	0.272183	0.063944	0.000050
N92	N	0.605516	0.397277	0.333384
N93	N	0.938849	0.730611	0.666717
C94	C	0.240892	0.107766	0.000044
C95	C	0.574225	0.441100	0.333378
C96	C	0.907559	0.774433	0.666711
C97	C	-0.205709	0.014943	0.000069
C98	C	0.127624	0.348276	0.333402
C99	C	0.460957	0.681610	0.666735
C100	C	-0.256124	0.014430	0.000068
C101	C	0.077210	0.347763	0.333401
C102	C	0.410543	0.681097	0.666735
C103	C	-0.268291	0.102591	0.000056
C104	C	0.065042	0.435924	0.333390
C105	C	0.398376	0.769258	0.666723
C106	C	-0.217876	0.103104	0.000053
C107	C	0.115458	0.436437	0.333387
C108	C	0.448791	0.769770	0.666720
C109	C	-0.186585	0.059278	0.000063
C110	C	0.146748	0.392612	0.333397
C111	C	0.480081	0.725945	0.666730
C112	C	0.346761	0.108839	0.000036
C113	C	0.680094	0.442172	0.333369
C114	C	1.013428	0.775505	0.666702
C115	C	0.397178	0.109347	0.000030
C116	C	0.730511	0.442681	0.333363
C117	C	1.063845	0.776014	0.666696
C118	C	0.409341	0.021186	0.000044
C119	C	0.742674	0.354520	0.333378
C120	C	1.076008	0.687853	0.666711
C121	C	0.358929	0.020678	0.000048
C122	C	0.692262	0.354011	0.333381
C123	C	1.025595	0.687344	0.666714
C124	C	0.327639	0.064508	0.000045
C125	C	0.660973	0.397841	0.333378
C126	C	0.994306	0.731175	0.666712
O127	O	0.284343	-0.017592	0.000045
O128	O	0.617676	0.315741	0.333378
O129	O	0.951009	0.649075	0.666712
O130	O	0.261794	0.145518	0.000045
O131	O	0.595128	0.478851	0.333379
O132	O	0.928461	0.812184	0.666712
C133	C	0.039242	0.105716	0.000055
C134	C	0.372575	0.439050	0.333389
C135	C	0.705908	0.772383	0.666722
C136	C	0.020120	0.061382	0.000065
C137	C	0.353454	0.394715	0.333399
C138	C	0.686787	0.728049	0.666732
C139	C	0.051411	0.017560	0.000071
C140	C	0.384744	0.350893	0.333405
C141	C	0.718078	0.684226	0.666738
C142	C	-0.030294	0.060869	0.000065
C143	C	0.303039	0.394202	0.333398
C144	C	0.636373	0.727536	0.666731
C145	C	-0.061585	0.104691	0.000059
C146	C	0.271749	0.438025	0.333392
C147	C	0.605082	0.771358	0.666725
C148	C	-0.042461	0.149026	0.000053
C149	C	0.290872	0.482360	0.333387
C150	C	0.624206	0.815693	0.666720
C151	C	0.007951	0.149539	0.000049
C152	C	0.341284	0.482872	0.333383
C153	C	0.674618	0.816205	0.666716
C154	C	0.032287	-0.026775	0.000077
C155	C	0.365621	0.306558	0.333410
C156	C	0.698954	0.639891	0.666743
C157	C	-0.018125	-0.027284	0.000080
C158	C	0.315208	0.306049	0.333413
C159	C	0.648541	0.639383	0.666747
C160	C	-0.049416	0.016538	0.000074
C161	C	0.283917	0.349871	0.333407
C162	C	0.617251	0.683205	0.666741
C163	C	0.614867	-0.418985	0.000045
C164	C	0.948201	-0.085652	0.333379
C165	C	1.281534	0.247682	0.666712
C166	C	0.612816	-0.620645	0.000038
C167	C	0.946150	-0.287311	0.333372
C168	C	1.279483	0.046022	0.666705
O169	O	0.650037	-0.651900	0.000021
O170	O	0.983370	-0.318567	0.333354
O171	O	1.316704	0.014766	0.666687
N172	N	0.568481	-0.639768	0.000034
N173	N	0.901814	-0.306435	0.333367
N174	N	1.235148	0.026898	0.666700
C175	C	0.524656	-0.608474	0.000028
C176	C	0.857989	-0.275140	0.333361
C177	C	1.191322	0.058193	0.666694
O178	O	0.486899	-0.629367	0.000019
O179	O	0.820232	-0.296033	0.333352
O180	O	1.153565	0.037300	0.666685
C181	C	0.526707	-0.406815	0.000031
C182	C	0.860040	-0.073482	0.333365
C183	C	1.193374	0.259852	0.666698
C184	C	0.571045	-0.387694	0.000041
C185	C	0.904378	-0.054361	0.333374
C186	C	1.237712	0.278972	0.666708
C187	C	0.659202	-0.399864	0.000054
C188	C	0.992535	-0.066530	0.333388
C189	C	1.325868	0.266803	0.666721
C190	C	0.659714	-0.349452	0.000059
C191	C	0.993047	-0.016118	0.333392
C192	C	1.326381	0.317215	0.666726
C193	C	0.615892	-0.318161	0.000054
C194	C	0.949225	0.015172	0.333388
C195	C	1.282559	0.348506	0.666721
C196	C	0.571557	-0.337282	0.000045
C197	C	0.904891	-0.003949	0.333379
C198	C	1.238224	0.329384	0.666712
C199	C	0.482882	-0.375521	0.000022
C200	C	0.816215	-0.042188	0.333355
C201	C	1.149549	0.291145	0.666688
C202	C	0.483399	-0.325104	0.000021
C203	C	0.816732	0.008229	0.333355
C204	C	1.150066	0.341563	0.666688
C205	C	0.527737	-0.305983	0.000031
C206	C	0.861070	0.027350	0.333364
C207	C	1.194404	0.360683	0.666698
C208	C	0.528247	-0.255580	0.000045
C209	C	0.861581	0.077754	0.333379
C210	C	1.194914	0.411087	0.666712
N211	N	0.572583	-0.236456	0.000050
N212	N	0.905916	0.096877	0.333383
N213	N	1.239249	0.430211	0.666717
C214	C	0.616405	-0.267747	0.000054
C215	C	0.949738	0.065587	0.333388
C216	C	1.283072	0.398920	0.666721
C217	C	0.523582	-0.714348	0.000027
C218	C	0.856915	-0.381014	0.333360
C219	C	1.190248	-0.047681	0.666693
C220	C	0.523069	-0.764762	0.000027
C221	C	0.856402	-0.431429	0.333360
C222	C	1.189735	-0.098096	0.666693
C223	C	0.611230	-0.776930	0.000036
C224	C	0.944563	-0.443596	0.333370
C225	C	1.277896	-0.110263	0.666703
C226	C	0.611742	-0.726514	0.000040
C227	C	0.945075	-0.393181	0.333373
C228	C	1.278409	-0.059848	0.666707
C229	C	0.567917	-0.695224	0.000031
C230	C	0.901250	-0.361891	0.333365
C231	C	1.234583	-0.028557	0.666698
C232	C	0.617477	-0.161878	0.000064
C233	C	0.950811	0.171456	0.333398
C234	C	1.284144	0.504789	0.666731
C235	C	0.617986	-0.111461	0.000071
C236	C	0.951319	0.221873	0.333404
C237	C	1.284652	0.555206	0.666738
C238	C	0.529825	-0.099298	0.000059
C239	C	0.863158	0.234036	0.333392
C240	C	1.196492	0.567369	0.666725
C241	C	0.529316	-0.149710	0.000055
C242	C	0.862650	0.183623	0.333388
C243	C	1.195983	0.516957	0.666721
C244	C	0.573147	-0.180999	0.000056
C245	C	0.906480	0.152334	0.333389
C246	C	1.239813	0.485667	0.666723
O247	O	0.491047	-0.224296	0.000057
O248	O	0.824380	0.109038	0.333391
O249	O	1.157713	0.442371	0.666724
O250	O	0.654156	-0.246844	0.000053
O251	O	0.987490	0.086489	0.333386
O252	O	1.320823	0.419823	0.666719
C253	C	0.614355	-0.469397	0.000041
C254	C	0.947688	-0.136064	0.333374
C255	C	1.281022	0.197270	0.666708
C256	C	0.570021	-0.488518	0.000032
C257	C	0.903354	-0.155185	0.333365
C258	C	1.236687	0.178148	0.666699
C259	C	0.526198	-0.457228	0.000027
C260	C	0.859532	-0.123894	0.333361
C261	C	1.192865	0.209439	0.666694
C262	C	0.569508	-0.538933	0.000032
C263	C	0.902841	-0.205599	0.333365
C264	C	1.236174	0.127734	0.666699
C265	C	0.613330	-0.570223	0.000036
C266	C	0.946663	-0.236890	0.333370
C267	C	1.279996	0.096443	0.666703
C268	C	0.657665	-0.551100	0.000041
C269	C	0.990998	-0.217766	0.333374
C270	C	1.324332	0.115567	0.666708
C271	C	0.658177	-0.500688	0.000045
C272	C	0.991511	-0.167354	0.333379
C273	C	1.324844	0.165979	0.666712
C274	C	0.481863	-0.476351	0.000023
C275	C	0.815197	-0.143018	0.333356
C276	C	1.148530	0.190315	0.666690
C277	C	0.481355	-0.526764	0.000019
C278	C	0.814688	-0.193430	0.333352
C279	C	1.148021	0.139903	0.666686
C280	C	0.525177	-0.558054	0.000023
C281	C	0.858510	-0.224721	0.333357
C282	C	1.191843	0.108612	0.666690
C283	C	0.658931	0.057699	0.000060
C284	C	0.992264	0.391033	0.333393
C285	C	1.325598	0.724366	0.666726
C286	C	0.712586	0.058252	0.000062
C287	C	1.045919	0.391586	0.333395
C288	C	1.379252	0.724919	0.666729
C289	C	0.566338	0.150292	0.000039
C290	C	0.899671	0.483626	0.333372
C291	C	1.233005	0.816959	0.666705
C292	C	0.566891	0.203947	0.000031
C293	C	0.900224	0.537280	0.333365
C294	C	1.233557	0.870614	0.666698
N295	N	0.570509	0.061906	0.129298
N296	N	0.903842	0.395239	0.462632
N297	N	1.237175	0.728573	0.795965
N298	N	0.570549	0.061867	-0.129196
N299	N	0.903883	0.395201	0.204137
N300	N	1.237216	0.728534	0.537471
C301	C	0.603640	0.028781	0.473932
C302	C	0.936973	0.362115	0.807266
C303	C	1.270307	0.695448	1.140599
C304	C	0.603652	0.028774	0.682810
C305	C	0.936985	0.362107	1.016143
C306	C	1.270318	0.695441	1.349477
O307	O	0.631801	0.000613	0.709820
O308	O	0.965135	0.333946	1.043154
O309	O	1.298468	0.667280	1.376487
N310	N	0.570539	0.061870	0.708925
N311	N	0.903873	0.395204	1.042259
N312	N	1.237206	0.728537	1.375592
C313	C	0.537419	0.094969	0.682818
C314	C	0.870753	0.428302	1.016151
C315	C	1.204086	0.761636	1.349485
O316	O	0.509252	0.123116	0.709824
O317	O	0.842585	0.456450	1.043157
O318	O	1.175919	0.789783	1.376490
C319	C	0.537406	0.094974	0.473941
C320	C	0.870739	0.428307	0.807275
C321	C	1.204073	0.761640	1.140608
C322	C	0.570524	0.061878	0.447829
C323	C	0.903857	0.395212	0.781162
C324	C	1.237191	0.728545	1.114495
C325	C	0.636755	-0.004312	0.447819
C326	C	0.970088	0.329022	0.781153
C327	C	1.303422	0.662355	1.114486
C328	C	0.636754	-0.004308	0.395603
C329	C	0.970087	0.329025	0.728936
C330	C	1.303420	0.662359	1.062270
C331	C	0.603637	0.028789	0.369500
C332	C	0.936971	0.362123	0.702833
C333	C	1.270304	0.695456	1.036166
C334	C	0.570522	0.061882	0.395612
C335	C	0.903856	0.395216	0.728946
C336	C	1.237189	0.728549	1.062279
C337	C	0.504284	0.128070	0.447835
C338	C	0.837618	0.461403	0.781168
C339	C	1.170951	0.794736	1.114502
C340	C	0.504283	0.128067	0.395613
C341	C	0.837616	0.461401	0.728946
C342	C	1.170950	0.794734	1.062279
C343	C	0.537401	0.094972	0.369500
C344	C	0.870734	0.428305	0.702833
C345	C	1.204068	0.761638	1.036167
C346	C	0.537405	0.094983	0.317293
C347	C	0.870738	0.428317	0.650626
C348	C	1.204071	0.761650	0.983959
N349	N	0.570517	0.061887	0.291177
N350	N	0.903850	0.395220	0.624510
N351	N	1.237184	0.728553	0.957844
C352	C	0.603633	0.028790	0.317281
C353	C	0.936967	0.362123	0.650614
C354	C	1.270300	0.695456	0.983947
C355	C	0.537429	0.094965	0.792481
C356	C	0.870763	0.428298	1.125815
C357	C	1.204096	0.761632	1.459148
C358	C	0.537433	0.094964	0.844700
C359	C	0.870767	0.428298	1.178034
C360	C	1.204100	0.761631	1.511367
C361	C	0.603665	0.028768	0.844689
C362	C	0.936998	0.362102	1.178022
C363	C	1.270332	0.695435	1.511355
C364	C	0.603663	0.028772	0.792469
C365	C	0.936996	0.362105	1.125802
C366	C	1.270330	0.695438	1.459135
C367	C	0.570542	0.061868	0.766366
C368	C	0.903875	0.395202	1.099699
C369	C	1.237209	0.728535	1.433033
C370	C	0.603628	0.028801	0.207623
C371	C	0.936961	0.362134	0.540956
C372	C	1.270295	0.695467	0.874289
C373	C	0.603625	0.028809	0.155402
C374	C	0.936958	0.362142	0.488735
C375	C	1.270292	0.695476	0.822068
C376	C	0.537392	0.095003	0.155418
C377	C	0.870725	0.428336	0.488751
C378	C	1.204058	0.761670	0.822085
C379	C	0.537396	0.094997	0.207635
C380	C	0.870730	0.428330	0.540968
C381	C	1.204063	0.761663	0.874301
C382	C	0.570516	0.061892	0.233735
C383	C	0.903850	0.395225	0.567069
C384	C	1.237183	0.728558	0.900402
O385	O	0.509266	0.123126	0.290250
O386	O	0.842599	0.456459	0.623583
O387	O	1.175933	0.789792	0.956916
O388	O	0.631789	0.000640	0.290266
O389	O	0.965123	0.333973	0.623599
O390	O	1.298456	0.667306	0.956933
C391	C	0.603642	0.028777	0.526149
C392	C	0.936975	0.362111	0.859482
C393	C	1.270308	0.695444	1.192815
C394	C	0.570527	0.061870	0.552261
C395	C	0.903860	0.395204	0.885595
C396	C	1.237193	0.728537	1.218928
C397	C	0.537410	0.094968	0.526158
C398	C	0.870744	0.428301	0.859491
C399	C	1.204077	0.761634	1.192824
C400	C	0.570531	0.061870	0.604480
C401	C	0.903864	0.395203	0.937814
C402	C	1.237197	0.728537	1.271147
C403	C	0.603647	0.028773	0.630584
C404	C	0.936980	0.362106	0.963917
C405	C	1.270314	0.695440	1.297250
C406	C	0.636759	-0.004324	0.604468
C407	C	0.970093	0.329010	0.937802
C408	C	1.303426	0.662343	1.271135
C409	C	0.636758	-0.004320	0.552252
C410	C	0.970091	0.329014	0.885585
C411	C	1.303425	0.662347	1.218919
C412	C	0.504298	0.128064	0.552273
C413	C	0.837631	0.461397	0.885606
C414	C	1.170965	0.794731	1.218940
C415	C	0.504303	0.128058	0.604489
C416	C	0.837636	0.461391	0.937823
C417	C	1.170969	0.794724	1.271156
C418	C	0.537419	0.094961	0.630593
C419	C	0.870752	0.428294	0.963926
C420	C	1.204086	0.761627	1.297260
H421	H	0.412743	0.145454	0.000021
H422	H	0.746076	0.478787	0.333354
H423	H	1.079410	0.812121	0.666687
H424	H	0.321291	0.144530	0.000035
H425	H	0.654624	0.477863	0.333368
H426	H	0.987957	0.811196	0.666702
H427	H	0.446777	-0.391080	0.000011
H428	H	0.780111	-0.057747	0.333344
H429	H	1.113444	0.275586	0.666678
H430	H	0.510433	0.121951	0.228896
H431	H	0.843767	0.455284	0.562229
H432	H	1.177100	0.788617	0.895563
H433	H	0.630630	0.001820	0.865951
H434	H	0.963964	0.335153	1.199284
H435	H	1.297297	0.668487	1.532617
H436	H	0.174750	0.187180	0.000029
H437	H	0.508083	0.520513	0.333362
H438	H	0.841417	0.853847	0.666696
O439	O	0.443097	-0.026076	0.000058
O440	O	0.776430	0.307257	0.333392
O441	O	1.109764	0.640590	0.666725
H442	H	0.466365	-0.027957	-0.033751
H443	H	0.799698	0.305376	0.299583
H444	H	1.133031	0.638710	0.632916
H445	H	0.023514	0.185643	0.000042
H446	H	0.356847	0.518977	0.333375
H447	H	0.690181	0.852310	0.666708
O448	O	0.433527	-0.547381	0.000012
O449	O	0.766861	-0.214047	0.333346
O450	O	1.100194	0.119286	0.666679
H451	H	0.440527	-0.587694	0.000013
H452	H	0.773861	-0.254361	0.333347
H453	H	1.107194	0.078972	0.666680
H454	H	0.477335	0.155012	0.625747
H455	H	0.810668	0.488346	0.959080
H456	H	1.144002	0.821679	1.292414
H457	H	0.493213	-0.165279	0.000061
H458	H	0.826546	0.168055	0.333394
H459	H	1.159879	0.501388	0.666728
O460	O	0.468561	0.163768	0.367458
O461	O	0.801895	0.497101	0.700791
O462	O	1.135228	0.830434	1.034125
H463	H	0.445539	0.186781	0.394392
H464	H	0.778872	0.520114	0.727726
H465	H	1.112205	0.853447	1.061059
O466	O	0.706473	-0.433608	0.000067
O467	O	1.039806	-0.100274	0.333401
O468	O	1.373139	0.233059	0.666734
H469	H	0.727719	-0.426845	-0.033738
H470	H	1.061052	-0.093512	0.299596
H471	H	1.394386	0.239821	0.632929
H472	H	-0.067947	0.184708	0.000046
H473	H	0.265386	0.518041	0.333380
H474	H	0.598720	0.851375	0.666713
H475	H	-0.202311	0.139207	0.000047
H476	H	0.131022	0.472541	0.333381
H477	H	0.464355	0.805874	0.666714
H478	H	0.447710	-0.299629	0.000014
H479	H	0.781043	0.033704	0.333347
H480	H	1.114377	0.367037	0.666680
H481	H	0.693347	-0.576585	0.000047
H482	H	1.026680	-0.243252	0.333380
H483	H	1.360013	0.090081	0.666713
O484	O	0.468581	0.163767	0.524121
O485	O	0.801915	0.497100	0.857455
O486	O	1.135248	0.830433	1.190788
H487	H	0.445562	0.186780	0.551058
H488	H	0.778896	0.520113	0.884392
H489	H	1.112229	0.853446	1.217725
H490	H	0.510430	0.121952	0.134157
H491	H	0.843764	0.455285	0.467490
H492	H	1.177097	0.788618	0.800823
O493	O	0.639343	-0.006891	0.127236
O494	O	0.972676	0.326442	0.460569
O495	O	1.306009	0.659776	0.793903
H496	H	0.662366	-0.029909	0.154164
H497	H	0.995699	0.303424	0.487497
H498	H	1.329032	0.636757	0.820830
O499	O	0.659563	-0.705891	0.000041
O500	O	0.992896	-0.372558	0.333374
O501	O	1.326229	-0.039225	0.666708
H502	H	0.689946	-0.736124	0.000040
H503	H	1.023279	-0.402791	0.333373
H504	H	1.356613	-0.069458	0.666707
H505	H	0.646911	-0.802415	0.000040
H506	H	0.980245	-0.469082	0.333374
H507	H	1.313578	-0.135749	0.666707
H508	H	-0.271687	-0.021674	0.000069
H509	H	0.061646	0.311659	0.333402
H510	H	0.394980	0.644992	0.666736
H511	H	0.695819	-0.333889	0.000065
H512	H	1.029152	-0.000555	0.333398
H513	H	1.362485	0.332778	0.666731
H514	H	0.630597	0.001843	0.228868
H515	H	0.963930	0.335176	0.562202
H516	H	1.297264	0.668510	0.895535
H517	H	-0.033688	-0.063392	0.000085
H518	H	0.299645	0.269941	0.333418
H519	H	0.632979	0.603275	0.666751
H520	H	-0.293777	0.138273	0.000051
H521	H	0.039557	0.471606	0.333385
H522	H	0.372890	0.804939	0.666718
O523	O	0.475247	-0.785384	0.000023
O524	O	0.808581	-0.452051	0.333356
O525	O	1.141914	-0.118717	0.666690
H526	H	0.444864	-0.755151	0.000015
H527	H	0.778197	-0.421818	0.333349
H528	H	1.111531	-0.088485	0.666682
H529	H	0.117558	-0.061861	0.000088
H530	H	0.450892	0.271472	0.333421
H531	H	0.784225	0.604805	0.666755
O532	O	0.672467	-0.040010	0.367441
O533	O	1.005800	0.293323	0.700774
O534	O	1.339133	0.626656	1.034108
H535	H	0.695487	-0.063026	0.394372
H536	H	1.028821	0.270307	0.727706
H537	H	1.362154	0.603640	1.061039
H538	H	0.487892	-0.688875	0.000020
H539	H	0.821225	-0.355542	0.333353
H540	H	1.154558	-0.022208	0.666687
O541	O	0.066034	-0.074043	0.000082
O542	O	0.399368	0.259290	0.333416
O543	O	0.732701	0.592624	0.666749
H544	H	0.044262	-0.104954	0.000084
H545	H	0.377595	0.228379	0.333417
H546	H	0.710928	0.561713	0.666751
O547	O	-0.171962	-0.032328	0.000078
O548	O	0.161371	0.301005	0.333411
O549	O	0.494705	0.634338	0.666744
H550	H	-0.193735	-0.063239	0.000077
H551	H	0.139598	0.270094	0.333410
H552	H	0.472932	0.603427	0.666744
H553	H	0.654093	-0.095896	0.000080
H554	H	0.987426	0.237438	0.333413
H555	H	1.320759	0.570771	0.666747
O556	O	0.482560	-0.065544	0.000053
O557	O	0.815894	0.267789	0.333387
O558	O	1.149227	0.601122	0.666720
H559	H	0.490370	-0.027277	0.000052
H560	H	0.823703	0.306056	0.333385
H561	H	1.157036	0.639389	0.666719
O562	O	0.705999	-0.480067	0.000046
O563	O	1.039332	-0.146733	0.333379
O564	O	1.372666	0.186600	0.666712
H565	H	0.736381	-0.510301	0.000042
H566	H	1.069714	-0.176968	0.333375
H567	H	1.403047	0.156366	0.666708
H568	H	0.663725	-0.031269	0.530995
H569	H	0.997059	0.302064	0.864328
H570	H	1.330392	0.635397	1.197661
H571	H	0.510457	0.121917	0.771232
H572	H	0.843791	0.455251	1.104565
H573	H	1.177124	0.788584	1.437899
O574	O	0.075029	0.197832	0.000033
O575	O	0.408362	0.531166	0.333366
O576	O	0.741695	0.864499	0.666700
H577	H	0.096803	0.228742	0.000023
H578	H	0.430136	0.562075	0.333356
H579	H	0.763470	0.895409	0.666690
O580	O	0.434596	-0.442604	0.000027
O581	O	0.767929	-0.109271	0.333360
O582	O	1.101262	0.224062	0.666694
H583	H	0.403684	-0.464377	0.000029
H584	H	0.737018	-0.131044	0.333362
H585	H	1.070351	0.202290	0.666696
H586	H	0.663722	-0.031266	0.469068
H587	H	0.997056	0.302068	0.802402
H588	H	1.330389	0.635401	1.135735
O589	O	0.217285	-0.072509	0.000089
O590	O	0.550618	0.260824	0.333422
O591	O	0.883951	0.594157	0.666755
H592	H	0.195515	-0.103423	0.000093
H593	H	0.528848	0.229911	0.333426
H594	H	0.862182	0.563244	0.666759
O595	O	0.338300	-0.027142	0.000057
O596	O	0.671633	0.306191	0.333390
O597	O	1.004967	0.639525	0.666724
H598	H	0.368531	-0.057528	0.000063
H599	H	0.701864	0.275806	0.333396
H600	H	1.035197	0.609139	0.666730
H601	H	0.630630	0.001822	0.771211
H602	H	0.963964	0.335156	1.104544
H603	H	1.297297	0.668489	1.437877
H604	H	0.510471	0.121919	0.865958
H605	H	0.843804	0.455252	1.199291
H606	H	1.177137	0.788585	1.532624
H607	H	0.663726	-0.031271	0.625730
H608	H	0.997059	0.302062	0.959064
H609	H	1.330392	0.635396	1.292397
O610	O	0.468581	0.163783	0.475993
O611	O	0.801915	0.497116	0.809326
O612	O	1.135248	0.830450	1.142659
H613	H	0.445559	0.186796	0.449060
H614	H	0.778893	0.520130	0.782393
H615	H	1.112226	0.853463	1.115727
H616	H	0.653168	-0.187348	0.000063
H617	H	0.986501	0.145985	0.333397
H618	H	1.319835	0.479319	0.666730
