data_functionalizedCrystal
_audit_creation_method	'MofGen! by Chris Wilmer'
_symmetry_space_group_name_H-M	'P1'
_symmetry_Int_Tables_number	1
_symmetry_cell_setting	triclinic
loop_
_symmetry_equiv_pos_as_xyz
  x,y,z
_cell_length_a	19.077105
_cell_length_b	12.759400
_cell_length_c	12.759393
_cell_angle_alpha	90.030742
_cell_angle_beta	92.318723
_cell_angle_gamma	87.711168
loop_
_atom_site_label
_atom_site_type_symbol
_atom_site_fract_x
_atom_site_fract_y
_atom_site_fract_z
Zn1	Zn	1.076054	-0.482843	0.658529
Zn2	Zn	1.075984	-0.658555	0.482845
Zn3	Zn	0.958352	-0.475825	0.475808
Zn4	Zn	0.958343	-0.651410	0.651429
O5	O	1.017183	-0.567158	0.567153
O6	O	1.174536	-0.512078	0.641140
O7	O	1.060354	-0.634369	0.334888
O8	O	0.973998	-0.329737	0.500072
O9	O	1.174485	-0.641173	0.512066
O10	O	1.060473	-0.334893	0.634316
O11	O	0.973930	-0.500118	0.329718
O12	O	0.859859	-0.493190	0.493188
O13	O	0.973984	-0.628996	0.799394
O14	O	0.859853	-0.622192	0.622217
O15	O	1.060465	-0.505150	0.804610
O16	O	1.060346	-0.804626	0.505182
O17	O	0.973916	-0.799377	0.629040
C18	C	0.834318	-0.556155	0.556169
C19	C	0.756087	-0.551473	0.551495
C20	C	1.017141	-0.840123	0.567128
C21	C	1.017188	-0.956903	0.567157
C22	C	0.719350	-0.616539	0.616372
C23	C	0.645844	-0.612126	0.611986
C24	C	0.609077	-0.542651	0.542716
C25	C	0.645820	-0.477578	0.477837
C26	C	0.719324	-0.481987	0.482229
C27	C	0.389240	-0.522248	0.522392
C28	C	0.315731	-0.517847	0.518002
C29	C	0.315760	-0.652394	0.652153
C30	C	0.389266	-0.656800	0.656534
C31	C	0.426002	-0.591724	0.591659
N32	N	0.533942	-0.538141	0.538228
N33	N	0.501136	-0.596229	0.596153
C34	C	1.062242	-1.014466	0.502741
C35	C	1.062285	-1.124192	0.502776
C36	C	0.972214	-1.118782	0.631645
C37	C	0.972175	-1.009058	0.631615
C38	C	1.107255	-0.962310	0.438283
C39	C	1.152312	-1.019874	0.373861
C40	C	1.152355	-1.129601	0.373896
C41	C	1.107341	-1.181764	0.438353
C42	C	1.200762	-0.578205	0.578180
C43	C	1.278993	-0.582913	0.582879
C44	C	1.017231	-0.567059	0.841189
C45	C	1.017252	-0.567017	0.957967
C46	C	1.017244	-0.293129	0.567201
C47	C	1.017270	-0.176354	0.567222
C48	C	1.017176	-0.567184	0.294185
C49	C	1.017291	-0.566938	0.177416
C50	C	0.972257	-0.631439	1.119842
C51	C	0.972236	-0.631476	1.010116
C52	C	1.062288	-0.502508	1.015548
C53	C	1.062306	-0.502467	1.125272
C54	C	0.927243	-0.695911	1.171986
C55	C	0.882206	-0.760418	1.114412
C56	C	0.882184	-0.760455	1.004686
C57	C	0.927200	-0.695985	0.952535
H58	H	0.749280	-0.673116	0.672775
F59	F	0.606688	-0.403631	0.404121
H60	H	0.935566	-1.161262	0.684122
F61	F	0.758423	-0.412733	0.413180
H62	H	0.615935	-0.665110	0.664814
F63	F	1.110191	-0.433896	0.960041
F64	F	0.927171	-0.696023	0.835754
H65	H	0.419197	-0.713376	0.712939
H66	H	0.845551	-0.812899	1.156881
H67	H	1.188965	-0.977397	0.321388
F68	F	1.110221	-0.433794	1.186548
H69	H	0.285841	-0.705374	0.704972
H70	H	1.189048	-1.176466	0.321448
F71	F	0.276602	-0.443906	0.444266
H72	H	1.107385	-1.271111	0.438385
F73	F	0.924225	-0.947792	0.700175
H74	H	0.927257	-0.695890	1.261330
F75	F	0.428329	-0.452985	0.453347
H76	H	1.107223	-0.872966	0.438244
F77	F	0.834247	-0.829098	0.943414
