data_functionalizedCrystal
_audit_creation_method	'MofGen! by Chris Wilmer'
_symmetry_space_group_name_H-M	'P1'
_symmetry_Int_Tables_number	1
_symmetry_cell_setting	triclinic
loop_
_symmetry_equiv_pos_as_xyz
  x,y,z
_cell_length_a	19.121424
_cell_length_b	19.121073
_cell_length_c	12.759393
_cell_angle_alpha	87.599309
_cell_angle_beta	87.588001
_cell_angle_gamma	94.806271
loop_
_atom_site_label
_atom_site_type_symbol
_atom_site_fract_x
_atom_site_fract_y
_atom_site_fract_z
Zn1	Zn	1.063718	-0.234159	0.541304
Zn2	Zn	1.058598	-0.351846	0.373432
Zn3	Zn	0.946049	-0.239219	0.373439
Zn4	Zn	0.940995	-0.356812	0.556859
O5	O	1.002340	-0.295509	0.461258
O6	O	1.161501	-0.245574	0.512523
O7	O	1.043640	-0.336945	0.226416
O8	O	0.965916	-0.140082	0.389201
O9	O	1.157739	-0.332038	0.389188
O10	O	1.052367	-0.136364	0.512530
O11	O	0.960951	-0.254198	0.226421
O12	O	0.846916	-0.259014	0.404283
O13	O	0.957303	-0.340503	0.701812
O14	O	0.843203	-0.345409	0.539040
O15	O	1.047467	-0.250390	0.690384
O16	O	1.038739	-0.450970	0.404270
O17	O	0.952337	-0.454619	0.539033
C18	C	0.819530	-0.303300	0.473351
C19	C	0.741322	-0.306650	0.478550
C20	C	0.298899	-0.327834	0.511553
C21	C	0.372383	-0.324691	0.506648
C22	C	0.411039	-0.278066	0.434142
C23	C	0.376206	-0.234586	0.366528
C24	C	0.302723	-0.237732	0.371428
C25	C	0.633006	-0.266316	0.415837
C26	C	0.706494	-0.263171	0.410944
C27	C	0.702666	-0.353278	0.551063
C28	C	0.629182	-0.356417	0.555961
C29	C	0.594356	-0.312939	0.488344
C30	C	0.486152	-0.274852	0.429129
C31	C	0.519244	-0.316158	0.493352
C32	C	0.994454	-0.478325	0.473360
C33	C	0.991144	-0.556532	0.478568
C34	C	0.970191	-0.998950	0.511623
C35	C	0.973301	-0.925466	0.506718
C36	C	1.019874	-0.886802	0.434147
C37	C	1.063346	-0.921625	0.366485
C38	C	1.060240	-0.995107	0.371396
C39	C	1.031509	-0.664837	0.415816
C40	C	1.034611	-0.591350	0.410909
C41	C	0.944566	-0.595196	0.551144
C42	C	0.941461	-0.668679	0.556044
C43	C	0.984935	-0.703496	0.488385
C44	C	1.023052	-0.811690	0.429130
C45	C	0.981760	-0.778607	0.493409
C46	C	1.185864	-0.287688	0.449119
C47	C	1.264071	-0.284355	0.443946
C48	C	1.002392	-0.295436	0.735284
C49	C	1.002415	-0.295405	0.852057
C50	C	1.010276	-0.111978	0.449131
C51	C	1.013658	-0.033768	0.443963
C52	C	1.002331	-0.295529	0.188293
C53	C	1.002453	-0.295356	0.071498
C54	C	1.049369	-0.248478	0.900970
C55	C	1.049387	-0.248452	1.010691
C56	C	0.955493	-0.342285	1.022578
C57	C	0.955472	-0.342307	0.912859
C58	C	1.096312	-0.201576	0.840168
C59	C	1.143271	-0.154646	0.889081
C60	C	1.143289	-0.154620	0.998802
C61	C	1.096347	-0.201523	1.059611
H62	H	0.731030	-0.388676	0.606112
Cl63	Cl	0.896488	-0.401248	1.099024
H64	H	1.066907	-0.693176	0.360720
H65	H	0.604659	-0.230916	0.360774
H66	H	0.597714	-0.394386	0.615002
H67	H	1.096304	-0.201593	0.750827
Cl68	Cl	1.121900	-0.873019	0.275258
Cl69	Cl	0.755089	-0.204555	0.319782
Cl70	Cl	1.202324	-0.095626	1.060289
H71	H	1.096358	-0.201491	1.148953
H72	H	0.267431	-0.365797	0.570601
Cl73	Cl	0.424801	-0.175973	0.275373
H74	H	1.072539	-0.559873	0.351808
H75	H	0.937907	-0.897117	0.561812
H76	H	1.095637	-1.023455	0.316302
H77	H	0.932267	-1.030425	0.570719
H78	H	0.903528	-0.700155	0.615127
Cl79	Cl	0.258939	-0.183074	0.286429
H80	H	0.943843	-0.810090	0.552499
Cl81	Cl	1.081599	-0.763078	0.337900
H82	H	1.181484	-0.116455	0.839563
Cl83	Cl	0.889921	-0.551422	0.636201
Cl84	Cl	0.416164	-0.379355	0.591641
Cl85	Cl	0.470647	-0.374775	0.584493
H86	H	0.917227	-0.380508	0.873034
H87	H	0.517633	-0.236888	0.370095
