data_functionalizedCrystal
_audit_creation_method	'MofGen! by Chris Wilmer'
_symmetry_space_group_name_H-M	'P1'
_symmetry_Int_Tables_number	1
_symmetry_cell_setting	triclinic
loop_
_symmetry_equiv_pos_as_xyz
  x,y,z
_cell_length_a	19.805407
_cell_length_b	12.827892
_cell_length_c	19.805399
_cell_angle_alpha	90.022719
_cell_angle_beta	90.019573
_cell_angle_gamma	90.015392
loop_
_atom_site_label
_atom_site_type_symbol
_atom_site_fract_x
_atom_site_fract_y
_atom_site_fract_z
Zn1	Zn	1.034788	-0.416057	0.382743
Zn2	Zn	1.034724	-0.590812	0.269564
Zn3	Zn	0.921602	-0.416086	0.269567
Zn4	Zn	0.921587	-0.590757	0.382711
O5	O	0.978175	-0.503428	0.326146
O6	O	1.129496	-0.439250	0.367741
O7	O	1.019698	-0.567670	0.174848
O8	O	0.936649	-0.269846	0.284595
O9	O	1.129449	-0.567642	0.284589
O10	O	1.019806	-0.269825	0.367744
O11	O	0.936588	-0.439299	0.174850
O12	O	0.826884	-0.439245	0.284564
O13	O	0.936624	-0.567547	0.477431
O14	O	0.826873	-0.567575	0.367690
O15	O	1.019792	-0.439196	0.477455
O16	O	1.019684	-0.737041	0.284558
O17	O	0.936563	-0.737000	0.367687
C18	C	0.802319	-0.503408	0.326124
C19	C	0.727087	-0.503425	0.326131
C20	C	0.978133	-0.774938	0.326134
C21	C	0.978177	-0.891091	0.326151
C22	C	0.691755	-0.570347	0.369345
C23	C	0.621067	-0.570349	0.369354
C24	C	0.585712	-0.503433	0.326146
C25	C	0.621049	-0.436504	0.282930
C26	C	0.691736	-0.436497	0.282925
C27	C	0.335975	-0.436527	0.282953
C28	C	0.265283	-0.436540	0.282960
C29	C	0.265306	-0.570378	0.369382
C30	C	0.335993	-0.570372	0.369376
C31	C	0.371324	-0.503439	0.326164
C32	C	0.447973	-0.503436	0.326155
C33	C	0.509065	-0.503440	0.326151
C34	C	1.019307	-0.942782	0.367333
C35	C	1.019353	-1.062832	0.367352
C36	C	1.154718	-0.503449	0.326168
C37	C	1.229950	-0.503458	0.326178
C38	C	0.978213	-0.503362	0.502689
C39	C	0.978229	-0.503334	0.577921
C40	C	0.978236	-0.230858	0.326173
C41	C	0.978262	-0.114705	0.326185
C42	C	0.978176	-0.503418	0.150290
C43	C	0.978291	-0.503152	0.075058
C44	C	1.021536	-0.436499	0.613278
C45	C	1.021543	-0.436468	0.683967
C46	C	0.978246	-0.503280	0.719297
C47	C	0.934935	-0.570118	0.683934
C48	C	0.934925	-0.570143	0.613247
C49	C	0.934973	-0.570021	0.969008
C50	C	0.934988	-0.569994	1.039700
C51	C	1.021591	-0.436347	1.039727
C52	C	1.021581	-0.436371	0.969040
C53	C	0.978268	-0.503205	0.933684
C54	C	0.978260	-0.503236	0.857036
C55	C	0.978257	-0.503255	0.795944
H56	H	0.592303	-0.624844	0.404542
H57	H	1.056856	-0.381923	1.068523
H58	H	1.056809	-0.382046	0.712752
O59	O	0.586602	-0.371594	0.240983
C60	C	0.477697	-0.312233	0.202722
C61	C	0.516621	-0.385815	0.250251
H62	H	0.421111	-0.323689	0.210209
H63	H	0.491519	-0.330466	0.148107
H64	H	0.491654	-0.228006	0.214698
H65	H	0.502685	-0.470067	0.238336
H66	H	0.502796	-0.367492	0.304852
O67	O	0.892779	-0.634909	0.718220
C68	C	0.777640	-0.685660	0.739788
C69	C	0.825303	-0.612198	0.700932
H70	H	0.723076	-0.667339	0.725814
H71	H	0.785027	-0.674164	0.796392
H72	H	0.789540	-0.769922	0.725887
H73	H	0.813432	-0.527908	0.714776
H74	H	0.817907	-0.623785	0.644337
H75	H	0.942995	-0.935713	0.290911
O76	O	1.061296	-0.889720	0.409448
C77	C	1.147148	-0.900799	0.495385
C78	C	1.099619	-0.961018	0.447732
H79	H	1.178155	-0.958417	0.526340
H80	H	1.116030	-0.849739	0.530754
H81	H	1.182480	-0.849648	0.464299
H82	H	1.064278	-1.012226	0.478764
H83	H	1.130780	-1.012012	0.412361
O84	O	0.936176	-1.061641	0.284216
C85	C	0.844852	-0.938363	0.275078
C86	C	0.892461	-0.998421	0.322684
H87	H	0.809506	-0.887219	0.306159
H88	H	0.813871	-0.996049	0.244098
H89	H	0.875973	-0.887303	0.239724
H90	H	0.861393	-1.049483	0.358079
H91	H	0.923445	-0.940679	0.353616
O92	O	1.061266	-1.115905	0.409488
C93	C	1.070289	-1.239215	0.500796
C94	C	1.022745	-1.179153	0.453128
H95	H	1.039164	-1.290382	0.536082
H96	H	1.101208	-1.181531	0.531840
H97	H	1.105702	-1.290252	0.469718
H98	H	0.987290	-1.128114	0.484154
H99	H	0.991873	-1.236893	0.422083
O100	O	0.892893	-0.634750	1.074096
C101	C	0.801502	-0.648756	1.153866
C102	C	0.849135	-0.575306	1.114965
H103	H	0.766102	-0.600724	1.186907
H104	H	0.832535	-0.703374	1.187002
H105	H	0.770572	-0.696553	1.116443
H106	H	0.880075	-0.527441	1.152339
H107	H	0.818063	-0.520756	1.081818
O108	O	0.892871	-0.635027	0.934773
C109	C	0.806917	-0.767506	0.942212
C110	C	0.854584	-0.693964	0.981070
H111	H	0.775940	-0.815160	0.979625
H112	H	0.837924	-0.822243	0.909126
H113	H	0.771564	-0.719495	0.909108
H114	H	0.889947	-0.741891	1.014210
H115	H	0.823535	-0.639224	1.014113
H116	H	1.056840	-0.381970	0.940278
H117	H	0.364733	-0.382034	0.247761
O118	O	0.725955	-0.371462	0.240879
C119	C	0.718477	-0.238673	0.155181
C120	C	0.679641	-0.312292	0.202752
H121	H	0.681049	-0.190799	0.124354
H122	H	0.751530	-0.286529	0.119690
H123	H	0.751610	-0.184134	0.186324
H124	H	0.646470	-0.366846	0.171665
H125	H	0.646630	-0.264372	0.238246
O126	O	0.370306	-0.635261	0.411447
C127	C	0.391943	-0.686253	0.526522
C128	C	0.353057	-0.612687	0.478952
H129	H	0.378002	-0.668043	0.581109
H130	H	0.448543	-0.674750	0.519155
H131	H	0.378038	-0.770488	0.514512
H132	H	0.366907	-0.528424	0.490933
H133	H	0.296467	-0.624281	0.486328
O134	O	0.230880	-0.635293	0.411344
C135	C	0.121994	-0.694670	0.449633
C136	C	0.160894	-0.621084	0.402092
H137	H	0.065404	-0.683224	0.442159
H138	H	0.135871	-0.676430	0.504244
H139	H	0.135917	-0.778895	0.437656
H140	H	0.146993	-0.536834	0.414008
H141	H	0.147014	-0.639414	0.347495
O142	O	0.892938	-0.635225	0.578925
C143	C	0.860029	-0.812989	0.557293
C144	C	0.907631	-0.739402	0.596194
H145	H	0.871882	-0.897230	0.571251
H146	H	0.867466	-0.801616	0.500696
H147	H	0.805459	-0.794583	0.571168
H148	H	0.962220	-0.757762	0.582375
H149	H	0.900135	-0.750788	0.652781
H150	H	1.056795	-0.382096	0.584518
O151	O	0.231043	-0.371431	0.240967
C152	C	0.238475	-0.238708	0.155223
C153	C	0.277337	-0.312367	0.202754
H154	H	0.275887	-0.190951	0.124305
H155	H	0.205418	-0.184071	0.186334
H156	H	0.205343	-0.286633	0.119809
H157	H	0.310506	-0.264526	0.238178
H158	H	0.310351	-0.367006	0.171601
H159	H	0.720536	-0.624841	0.404527
