data_functionalizedCrystal
_audit_creation_method	'MofGen! by Chris Wilmer'
_symmetry_space_group_name_H-M	'P1'
_symmetry_Int_Tables_number	1
_symmetry_cell_setting	triclinic
loop_
_symmetry_equiv_pos_as_xyz
  x,y,z
_cell_length_a	10.654550
_cell_length_b	10.654550
_cell_length_c	26.809956
_cell_angle_alpha	89.994336
_cell_angle_beta	90.004547
_cell_angle_gamma	84.484931
loop_
_atom_site_label
_atom_site_type_symbol
_atom_site_fract_x
_atom_site_fract_y
_atom_site_fract_z
O1	O	-0.176381	-1.667851	0.041442
O2	O	-0.193188	-1.302372	0.041451
O3	O	-0.002045	-1.493515	0.041443
O4	O	-0.367524	-1.476709	0.041450
O5	O	-0.002074	-1.493479	-0.041516
O6	O	-0.193217	-1.302336	-0.041508
O7	O	-0.176411	-1.667815	-0.041517
Zn8	Zn	-0.184818	-1.485070	-0.054684
Zn9	Zn	-0.184780	-1.485117	0.054618
O10	O	-0.367553	-1.476672	-0.041509
C11	C	-0.191968	-1.255556	-0.000027
C12	C	-0.188276	-1.116113	-0.000024
C13	C	0.044738	-1.492263	-0.000036
C14	C	0.184181	-1.488571	-0.000035
C15	C	-0.177630	-1.714631	-0.000037
C16	C	-0.181322	-1.854074	-0.000038
C17	C	-0.414336	-1.477925	-0.000029
C18	C	-0.553779	-1.481616	-0.000026
C19	C	0.263667	-1.601112	-0.000038
C20	C	0.394688	-1.597636	-0.000031
C21	C	0.366725	-1.369066	-0.000022
C22	C	0.235706	-1.372544	-0.000025
C23	C	-0.300818	-1.036628	-0.000023
C24	C	-0.297341	-0.905607	-0.000032
C25	C	-0.068772	-0.933570	-0.000040
C26	C	-0.072250	-1.064588	-0.000035
N27	N	-0.184844	-1.485046	-0.129280
C28	C	-0.100163	-1.569744	-0.473910
C29	C	-0.100144	-1.569774	-0.682787
O30	O	-0.028153	-1.641736	-0.709794
N31	N	-0.184752	-1.485124	-0.708907
C32	C	-0.269365	-1.400455	-0.682804
O33	O	-0.341321	-1.328447	-0.709814
C34	C	-0.269377	-1.400420	-0.473928
C35	C	-0.184772	-1.485084	-0.447810
C36	C	-0.015564	-1.654401	-0.447792
C37	C	-0.015574	-1.654397	-0.395576
C38	C	-0.100183	-1.569737	-0.369477
C39	C	-0.184782	-1.485081	-0.395594
C40	C	-0.353983	-1.315746	-0.447826
C41	C	-0.353977	-1.315743	-0.395603
C42	C	-0.269372	-1.400407	-0.369486
C43	C	-0.269402	-1.400417	-0.317279
N44	N	-0.184794	-1.485067	-0.291159
C45	C	-0.100185	-1.569727	-0.317258
C46	C	-0.269355	-1.400481	-0.792468
C47	C	-0.269354	-1.400491	-0.844687
C48	C	-0.100131	-1.569809	-0.844666
C49	C	-0.100139	-1.569804	-0.792446
C50	C	-0.184747	-1.485131	-0.766348
C51	C	-0.100213	-1.569714	-0.207600
C52	C	-0.100234	-1.569706	-0.155379
C53	C	-0.269452	-1.400385	-0.155404
C54	C	-0.269436	-1.400396	-0.207621
C55	C	-0.184806	-1.485066	-0.233717
O56	O	-0.341346	-1.328483	-0.290240
O57	O	-0.028221	-1.641706	-0.290240
C58	C	-0.100153	-1.569748	-0.526126
C59	C	-0.184752	-1.485092	-0.552243
C60	C	-0.269361	-1.400432	-0.526144
C61	C	-0.184751	-1.485102	-0.604462
C62	C	-0.100142	-1.569762	-0.630561
C63	C	-0.015533	-1.654412	-0.604441
C64	C	-0.015544	-1.654408	-0.552225
C65	C	-0.353969	-1.315782	-0.552264
C66	C	-0.353953	-1.315793	-0.604480
C67	C	-0.269344	-1.400453	-0.630579
N68	N	-0.184745	-1.485151	0.129214
H69	H	0.459401	-1.689279	-0.000033
O70	O	0.149970	-1.251149	-0.000022
H71	H	0.050209	-1.273063	-0.000019
H72	H	-0.422867	-1.246840	-0.531018
H73	H	-0.395294	-1.078574	-0.000018
O74	O	0.075698	-1.745736	-0.475932
H75	H	0.137259	-1.692373	-0.499723
O76	O	-0.008876	-1.661105	-0.764277
H77	H	0.049959	-1.719966	-0.791204
O78	O	0.056368	-0.877997	-0.000050
H79	H	0.063444	-0.818985	0.033762
O80	O	0.049139	-1.150335	-0.000036
H81	H	0.130404	-1.092497	-0.000038
H82	H	-0.338342	-1.331467	-0.228886
O83	O	-0.008971	-1.661017	-0.127209
H84	H	0.049874	-1.719873	-0.154133
H85	H	0.408693	-1.274601	-0.000015
O86	O	0.208100	-1.726255	-0.000040
H87	H	0.149082	-1.733306	-0.033856
O88	O	-0.418724	-0.819871	-0.000030
H89	H	-0.499983	-0.877716	-0.000018
H90	H	-0.031298	-1.638658	-0.228842
H91	H	0.053322	-1.723334	-0.374315
H92	H	-0.338344	-1.331459	-0.134146
O93	O	-0.008860	-1.661116	-0.872819
H94	H	-0.023074	-1.646882	-0.913517
O95	O	-0.360646	-1.309217	-0.872854
H96	H	-0.419479	-1.250354	-0.845928
O97	O	-0.360627	-1.309161	-0.764321
H98	H	-0.419462	-1.250319	-0.791261
H99	H	-0.422876	-1.246804	-0.469083
O100	O	-0.445241	-1.224422	-0.367453
H101	H	-0.504072	-1.165566	-0.394391
H102	H	0.053350	-1.723349	-0.530964
H103	H	0.053355	-1.723350	-0.625700
O104	O	-0.445246	-1.224505	-0.632648
H105	H	-0.504080	-1.165645	-0.605721
