data_functionalizedCrystal
_audit_creation_method	'MofGen! by Chris Wilmer'
_symmetry_space_group_name_H-M	'P1'
_symmetry_Int_Tables_number	1
_symmetry_cell_setting	triclinic
loop_
_symmetry_equiv_pos_as_xyz
  x,y,z
_cell_length_a	19.851628
_cell_length_b	17.052862
_cell_length_c	17.052977
_cell_angle_alpha	45.842756
_cell_angle_beta	77.689355
_cell_angle_gamma	70.263327
loop_
_atom_site_label
_atom_site_type_symbol
_atom_site_fract_x
_atom_site_fract_y
_atom_site_fract_z
Zr1	Zr	0.806911	0.878466	-0.240829
O2	O	0.749259	1.045928	-0.394852
O3	O	0.806257	0.711013	-0.175690
O4	O	0.863364	0.878460	-0.368982
O5	O	0.667952	0.878484	-0.069475
O6	O	0.974221	0.878444	-0.368964
O7	O	0.692152	0.878482	-0.201560
O8	O	0.872066	0.578912	-0.023199
O9	O	0.770107	1.178015	-0.415240
O10	O	0.910852	0.779874	-0.169549
O11	O	0.810061	0.779887	-0.070990
O12	O	0.877298	0.977034	-0.298567
O13	O	0.776507	0.977047	-0.200007
Zr14	Zr	0.945119	0.878444	-0.030141
Zr15	Zr	0.983714	0.878441	-0.240800
Zr16	Zr	0.768316	0.878469	-0.030170
Zr17	Zr	0.840161	1.089129	-0.273346
Zr18	Zr	0.911869	0.667781	0.002376
O19	O	0.945773	1.045898	-0.095280
O20	O	1.000650	1.045893	-0.394810
O21	O	0.694382	1.045933	-0.095322
O22	O	1.002771	0.710982	0.123882
O23	O	1.057648	0.710978	-0.175648
O24	O	0.751380	0.711017	0.123840
O25	O	1.084078	0.878427	-0.201494
O26	O	0.888666	0.878451	0.098012
O27	O	0.777809	0.878466	0.097994
O28	O	1.059879	0.878429	-0.069410
O29	O	0.910642	1.177996	-0.415216
O30	O	0.841388	0.578915	0.144246
O31	O	0.981923	0.578895	0.144270
O32	O	1.012601	0.578893	-0.023176
O33	O	0.739429	1.178018	-0.247794
O34	O	0.879964	1.177998	-0.247770
O35	O	0.874733	0.779877	0.027597
O36	O	0.975523	0.779864	-0.070963
O37	O	0.941969	0.977024	-0.199980
O38	O	0.841179	0.977037	-0.101421
C39	C	0.834424	0.614948	-0.094812
C40	C	0.820309	0.525516	-0.081008
C41	C	0.990966	0.273403	-0.247899
C42	C	1.004228	0.357433	-0.260876
C43	C	0.958250	0.399458	-0.215910
C44	C	0.899007	0.357444	-0.157965
C45	C	0.885740	0.273411	-0.144994
C46	C	0.853024	0.399466	-0.113005
C47	C	0.793780	0.357453	-0.055060
C48	C	0.780517	0.273428	-0.042091
C49	C	0.826496	0.231403	-0.087057
C50	C	0.866290	0.483499	-0.125976
C51	C	0.761064	0.483508	-0.023071
C52	C	0.747802	0.399477	-0.010094
C53	C	0.654861	0.878486	-0.135522
C54	C	0.579804	0.878497	-0.135534
C55	C	0.380154	0.985971	-0.205843
C56	C	0.356447	0.932234	-0.236497
C57	C	0.442387	0.878467	-0.135502
C58	C	0.332358	0.932211	-0.104867
C59	C	0.309647	0.878447	-0.135472
C60	C	0.419679	0.824730	-0.166210
C61	C	0.395581	0.824722	-0.034530
C62	C	0.371910	0.770907	-0.065149
C63	C	0.518855	0.878482	-0.135521
C64	C	0.233183	0.878424	-0.135452
C65	C	1.097169	0.878424	-0.135448
C66	C	1.172227	0.878414	-0.135436
C67	C	0.924292	0.878451	-0.398987
C68	C	0.940676	0.878450	-0.488418
C69	C	0.917606	1.141963	-0.176158
C70	C	0.931722	1.231395	-0.189962
C71	C	1.009449	0.878445	-0.530419
C72	C	1.024850	0.878436	-0.614438
C73	C	0.971478	0.878443	-0.656471
C74	C	0.902701	0.878457	-0.614476
C75	C	0.887301	0.878456	-0.530442
C76	C	0.849329	0.878454	-0.656494
C77	C	0.780553	0.878468	-0.614499
C78	C	0.765155	0.878468	-0.530474
C79	C	0.818527	0.878461	-0.488441
C80	C	0.864730	0.878455	-0.740528
C81	C	0.742581	0.878466	-0.740551
C82	C	0.727180	0.878474	-0.656532
C83	C	0.827739	0.878459	0.128018
C84	C	0.811354	0.878460	0.217448
C85	C	1.055578	0.614917	-0.094775
C86	C	1.116520	0.525474	-0.080959
C87	C	0.786148	0.614951	0.168691
C88	C	0.755648	0.525521	0.271925
C89	C	1.007302	0.614920	0.168727
C90	C	1.051859	0.525479	0.271974
C91	C	0.744729	1.141990	-0.439697
C92	C	0.700171	1.231431	-0.542944
C93	C	0.696452	1.141994	-0.176195
C94	C	0.635510	1.231436	-0.190011
C95	C	0.965882	1.141959	-0.439660
C96	C	0.996383	1.231390	-0.542895
C97	C	1.111383	0.483476	-0.125940
C98	C	1.168643	0.399447	-0.112980
C99	C	1.231038	0.357412	-0.055030
C100	C	1.236174	0.399418	-0.010048
C101	C	1.178917	0.483451	-0.023016
C102	C	0.775081	0.483518	0.371875
C103	C	0.746420	0.399500	0.468881
C104	C	0.698330	0.357481	0.465935
C105	C	0.678895	0.399492	0.365974
C106	C	0.707552	0.483514	0.268970
C107	C	1.125403	0.483470	0.269013
C108	C	1.167279	0.399442	0.366015
C109	C	1.135610	0.357419	0.465977
C110	C	1.062059	0.399437	0.468935
C111	C	1.020185	0.483469	0.371934
C112	C	0.626629	1.273451	-0.539985
C113	C	0.584757	1.357505	-0.636990
C114	C	0.616427	1.399532	-0.736953
C115	C	0.689976	1.357509	-0.739910
C116	C	0.731848	1.273462	-0.642907
C117	C	0.640650	1.273443	-0.145040
C118	C	0.583398	1.357495	-0.158027
C119	C	0.521004	1.399534	-0.215980
C120	C	0.515867	1.357524	-0.260957
C121	C	0.573120	1.273478	-0.247976
C122	C	1.044471	1.273382	-0.539914
C123	C	1.073142	1.357401	-0.636903
C124	C	1.053720	1.399431	-0.736874
C125	C	1.005629	1.357430	-0.739852
C126	C	0.976962	1.273407	-0.642863
H127	H	1.052463	0.391639	-0.308055
H128	H	0.339165	0.977669	-0.321874
H129	H	0.587594	1.391686	-0.121395
N130	N	1.299907	0.356485	0.049146
N131	N	1.335320	0.422117	0.017216
H132	H	1.380331	0.391790	0.059028
H133	H	0.639737	0.365267	0.363592
N134	N	0.824204	0.526411	0.374921
N135	N	0.841539	0.488888	0.464181
H136	H	0.876232	0.519178	0.466341
N137	N	0.452120	1.400446	-0.320119
N138	N	0.416710	1.334794	-0.288149
H139	H	0.371684	1.365102	-0.329922
N140	N	0.366777	0.656787	0.009505
N141	N	0.382989	0.590990	0.108539
H142	H	0.379362	0.510394	0.161261
N143	N	0.766285	0.356610	0.570969
N144	N	0.809230	0.394133	0.573575
H145	H	0.823262	0.363845	0.645672
H146	H	0.474390	1.467969	-0.226542
N147	N	0.466799	0.767784	-0.198842
N148	N	0.442348	0.727170	-0.222041
H149	H	0.475626	0.686956	-0.245091
N150	N	0.687286	0.356567	0.049099
N151	N	0.681578	0.309678	0.147064
H152	H	0.638838	0.279373	0.188871
H153	H	0.524871	1.391706	-0.634561
H154	H	0.715756	1.391738	-0.821312
H155	H	0.294701	0.977668	-0.078970
N156	N	1.157772	0.526366	0.166923
N157	N	1.223440	0.488837	0.164314
H158	H	1.246308	0.519129	0.092216
N159	N	0.594283	1.230533	-0.437876
N160	N	0.631666	1.155497	-0.351265
H161	H	0.608818	1.125194	-0.279153
H162	H	0.937804	1.239226	-0.645306
H163	H	1.028394	0.239187	-0.284512
N164	N	1.178396	0.271566	0.565049
N165	N	1.211693	0.177794	0.594038
H166	H	1.241915	0.117156	0.664005
H167	H	0.568924	1.239279	-0.284596
H168	H	0.691725	0.517702	0.187591
H169	H	0.969051	0.467879	-0.226479
H170	H	0.791730	1.239251	-0.645328
H171	H	1.060292	1.239174	-0.458522
H172	H	0.675001	0.289064	0.544931
H173	H	1.052901	0.878431	-0.496184
N174	N	1.029706	0.356516	0.571040
N175	N	0.998682	0.422154	0.585997
H176	H	0.975832	0.391834	0.658113
N177	N	1.184172	0.526353	0.022928
N178	N	1.232366	0.573227	-0.006116
H179	H	1.236082	0.603525	0.026333
H180	H	1.112297	1.391589	-0.634458
H181	H	0.960301	0.517662	0.374360
H182	H	0.582324	1.467968	-0.815932
N183	N	1.242405	0.356546	0.362958
N184	N	1.270665	0.394072	0.273696
H185	H	1.323721	0.363779	0.271534
H186	H	0.691448	1.239222	-0.097843
H187	H	1.077067	1.467848	-0.815842
N188	N	0.985803	1.400379	-0.841983
N189	N	1.011405	1.475403	-0.928565
H190	H	0.997402	1.505743	-1.000699
H191	H	0.815704	0.162973	-0.076489
N192	N	0.926793	0.526426	-0.185177
N193	N	0.932495	0.573319	-0.283144
H194	H	0.975228	0.603639	-0.324960
H195	H	0.920728	0.878443	-0.774713
H196	H	0.723623	0.517726	0.013541
N197	N	0.719992	0.230538	0.017082
N198	N	0.678943	0.268067	0.057223
H199	H	0.636196	0.237780	0.099013
H200	H	0.384389	1.076871	-0.265392
N201	N	0.417271	0.767799	0.072536
N202	N	0.436401	0.819526	0.087310
H203	H	0.451717	0.779334	0.162927
H204	H	0.984020	0.878436	-0.724884
H205	H	1.080847	0.878424	-0.648627
H206	H	0.805988	0.878473	-0.420028
H207	H	0.671182	0.878485	-0.622328
N208	N	0.694904	0.878458	-0.487572
N209	N	0.647256	0.878459	-0.525103
H210	H	0.597640	0.878449	-0.494804
H211	H	0.699121	0.878468	-0.774772
N212	N	1.047661	0.526422	-0.185161
N213	N	1.027372	0.629590	-0.268845
H214	H	0.982372	0.659921	-0.310679
N215	N	1.163375	0.356562	-0.158938
N216	N	1.107656	0.394100	-0.210663
H217	H	1.103933	0.363815	-0.243122
H218	H	1.277655	0.288985	-0.044478
