data_functionalizedCrystal
_audit_creation_method	'MofGen! by Chris Wilmer'
_symmetry_space_group_name_H-M	'P1'
_symmetry_Int_Tables_number	1
_symmetry_cell_setting	triclinic
loop_
_symmetry_equiv_pos_as_xyz
  x,y,z
_cell_length_a	18.101398
_cell_length_b	12.645330
_cell_length_c	12.645323
_cell_angle_alpha	90.024870
_cell_angle_beta	89.972190
_cell_angle_gamma	89.987041
loop_
_atom_site_label
_atom_site_type_symbol
_atom_site_fract_x
_atom_site_fract_y
_atom_site_fract_z
Zn1	Zn	1.132216	0.422165	-0.599591
Zn2	Zn	1.132133	0.599453	-0.422332
Zn3	Zn	1.008367	0.422189	-0.422320
Zn4	Zn	1.008354	0.599372	-0.599531
O5	O	1.070267	0.510795	-0.510943
O6	O	1.235837	0.445706	-0.576108
O7	O	1.115686	0.575982	-0.273983
O8	O	1.024836	0.273839	-0.445856
O9	O	1.235777	0.575959	-0.445876
O10	O	1.115827	0.273821	-0.576096
O11	O	1.024755	0.445748	-0.273974
O12	O	0.904732	0.445669	-0.445797
O13	O	1.024814	0.575821	-0.747886
O14	O	0.904723	0.575845	-0.575993
O15	O	1.115814	0.445628	-0.747931
O16	O	1.115673	0.747789	-0.445817
O17	O	1.024734	0.747730	-0.576005
C18	C	0.877857	0.510752	-0.510888
C19	C	0.795543	0.510759	-0.510890
C20	C	1.070213	0.786224	-0.510929
C21	C	1.070258	0.904054	-0.510958
C22	C	1.070342	0.234289	-0.510982
C23	C	1.070374	0.116459	-0.510998
C24	C	0.496452	0.510825	-0.510979
C25	C	0.527758	0.428513	-0.429462
C26	C	0.613376	0.428733	-0.429115
C27	C	0.644834	0.510791	-0.510934
C28	C	0.613733	0.622463	-0.480419
C29	C	0.528088	0.622006	-0.479852
C30	C	0.528067	0.482436	-0.623203
C31	C	0.613717	0.479949	-0.622590
C32	C	0.728694	0.510779	-0.510911
C33	C	0.412592	0.510845	-0.510999
C34	C	1.263429	0.510839	-0.511000
C35	C	1.345743	0.510857	-0.511024
C36	C	1.070322	0.510713	-0.787449
C37	C	1.070345	0.510678	-0.905279
C38	C	1.013284	1.071625	-0.593111
C39	C	1.012992	0.949066	-0.592847
C40	C	1.049129	0.948646	-0.399233
C41	C	1.048781	1.071244	-0.399732
C42	C	1.148710	1.071153	-0.539623
C43	C	1.148229	0.948546	-0.542066
C44	C	1.012920	0.592196	-1.072815
C45	C	1.013071	0.592600	-0.950255
C46	C	1.148377	0.541005	-0.949809
C47	C	1.148062	0.541517	-1.072407
C48	C	1.050477	0.398376	-1.072474
C49	C	1.048736	0.399048	-0.949868
C50	C	1.070256	0.510800	-0.235514
C51	C	1.070376	0.510536	-0.117684
H52	H	0.634404	0.345924	-0.448241
C53	C	0.499954	0.316295	-0.455007
C54	C	0.448480	0.298022	-0.550196
C55	C	0.420671	0.185801	-0.575745
C56	C	0.444337	0.091854	-0.506104
C57	C	0.495814	0.110124	-0.410909
C58	C	0.523622	0.222345	-0.385361
H59	H	0.430958	0.367570	-0.601754
H60	H	0.382565	0.172276	-0.646215
H61	H	0.423751	0.008781	-0.525017
H62	H	0.513335	0.040576	-0.359352
H63	H	0.561729	0.235870	-0.314891
C64	C	1.030495	0.703827	-1.114442
C65	C	1.048271	0.793680	-1.036261
C66	C	1.065851	0.905309	-1.077887
C67	C	1.065654	0.927086	-1.197693
C68	C	1.047877	0.837231	-1.275881
C69	C	1.030297	0.725601	-1.234255
H70	H	1.048417	0.777562	-0.947567
H71	H	1.079011	0.971826	-1.020007
H72	H	1.078668	1.009721	-1.228507
H73	H	1.047731	0.853349	-1.364575
H74	H	1.017137	0.659085	-1.292135
C75	C	1.171557	0.650613	-0.908366
C76	C	1.246465	0.698146	-0.941114
C77	C	1.269641	0.807756	-0.899673
C78	C	1.217908	0.869834	-0.825486
C79	C	1.142995	0.822302	-0.792734
C80	C	1.119820	0.712692	-0.834174
H81	H	1.284765	0.652192	-0.996035
H82	H	1.325097	0.842942	-0.923919
H83	H	1.235064	0.950974	-0.794809
H84	H	1.104695	0.868256	-0.737812
H85	H	1.064364	0.677506	-0.809929
H86	H	1.026382	1.101039	-0.676226
C87	C	0.971163	0.368141	-0.910539
C88	C	0.960627	0.267495	-0.843700
C89	C	0.883054	0.236593	-0.804360
C90	C	0.816018	0.306336	-0.831860
C91	C	0.826551	0.406989	-0.898702
C92	C	0.904124	0.437891	-0.938042
H93	H	1.010253	0.215861	-0.823340
H94	H	0.875257	0.162083	-0.754879
H95	H	0.758594	0.283460	-0.802738
H96	H	0.776925	0.458623	-0.919062
H97	H	0.911921	0.512401	-0.987523
C98	C	0.935316	1.113358	-0.567829
C99	C	0.923313	1.187897	-0.473028
C100	C	0.845347	1.229635	-0.447745
C101	C	0.779385	1.196834	-0.517261
C102	C	0.791386	1.122291	-0.612068
C103	C	0.869352	1.080553	-0.637351
H104	H	0.972145	1.212182	-0.421563
H105	H	0.836464	1.284817	-0.377562
H106	H	0.721670	1.227730	-0.498545
H107	H	0.742555	1.098006	-0.663533
H108	H	0.878235	1.025371	-0.707533
H109	H	0.635134	0.535532	-0.686580
C110	C	0.641262	0.707544	-0.558107
C111	C	0.692425	0.676534	-0.650382
C112	C	0.719955	0.761612	-0.728072
C113	C	0.696322	0.877701	-0.713486
C114	C	0.645157	0.908717	-0.621207
C115	C	0.617627	0.823638	-0.543518
H116	H	0.709922	0.590593	-0.661183
H117	H	0.757831	0.738652	-0.796383
H118	H	0.716702	0.940682	-0.770997
H119	H	0.627660	0.994658	-0.610406
H120	H	0.579750	0.846598	-0.475206
H121	H	1.192333	0.483410	-0.920679
C122	C	1.102498	1.111325	-0.314242
C123	C	1.145572	1.031775	-0.245735
C124	C	1.199279	1.071850	-0.160236
C125	C	1.209912	1.191476	-0.143244
C126	C	1.166836	1.271034	-0.211754
C127	C	1.113130	1.230959	-0.297253
H128	H	1.137703	0.943214	-0.258311
H129	H	1.231166	1.012956	-0.109521
H130	H	1.249669	1.221143	-0.079953
H131	H	1.174706	1.359595	-0.199178
H132	H	1.081242	1.289854	-0.347968
H133	H	0.991517	1.099929	-0.375484
H134	H	0.506208	0.447068	-0.346789
C135	C	0.934539	0.909551	-0.567222
C136	C	0.871959	0.989550	-0.546929
C137	C	0.793503	0.950036	-0.521300
C138	C	0.777626	0.830523	-0.515965
C139	C	0.840208	0.750516	-0.536259
C140	C	0.918664	0.790030	-0.561888
H141	H	0.883711	1.078028	-0.550877
H142	H	0.747176	1.009263	-0.506277
H143	H	0.719548	0.801272	-0.496994
H144	H	0.828457	0.662039	-0.532311
H145	H	0.964991	0.730803	-0.576911
C146	C	0.974942	0.361031	-1.114199
C147	C	0.930363	0.431913	-1.189872
C148	C	0.854826	0.394583	-1.231597
C149	C	0.823867	0.286371	-1.197649
C150	C	0.868447	0.215483	-1.121973
C151	C	0.943984	0.252813	-1.080247
H152	H	0.953280	0.512023	-1.215006
H153	H	0.821825	0.447060	-1.287619
H154	H	0.767950	0.258737	-1.228537
H155	H	0.845530	0.135372	-1.096839
H156	H	0.976985	0.200336	-1.024226
H157	H	0.507822	0.542389	-0.683940
H158	H	0.633829	0.447501	-0.345958
C159	C	1.208711	0.907234	-0.467096
C160	C	1.188269	0.832034	-0.375913
C161	C	1.248744	0.790761	-0.300903
C162	C	1.329662	0.824688	-0.317077
C163	C	1.350109	0.899891	-0.408264
C164	C	1.289633	0.941164	-0.483274
H165	H	1.128365	0.806916	-0.363936
H166	H	1.233608	0.735090	-0.233400
H167	H	1.374430	0.794135	-0.261551
H168	H	1.410013	0.925010	-0.420241
H169	H	1.304770	0.996835	-0.550777
C170	C	0.500104	0.707666	-0.556553
C171	C	0.416539	0.724722	-0.571680
C172	C	0.388559	0.810384	-0.648375
C173	C	0.444145	0.878991	-0.709942
C174	C	0.527716	0.861937	-0.694816
C175	C	0.555695	0.776275	-0.618122
H176	H	0.375386	0.673933	-0.526103
H177	H	0.326694	0.823008	-0.659571
H178	H	0.423433	0.942403	-0.766716
H179	H	0.568868	0.912726	-0.740393
H180	H	0.617560	0.763651	-0.606925
C181	C	1.101142	0.312503	-0.908523
C182	C	1.164763	0.341811	-0.833215
C183	C	1.217178	0.255269	-0.791874
C184	C	1.205973	0.139420	-0.825841
C185	C	1.142350	0.110107	-0.901153
C186	C	1.089934	0.196648	-0.942494
H187	H	1.173060	0.427574	-0.808067
H188	H	1.264276	0.276969	-0.736123
H189	H	1.244774	0.075357	-0.795238
H190	H	1.134053	0.024343	-0.926301
H191	H	1.042836	0.174948	-0.998245
H192	H	0.508077	0.646081	-0.397811
C193	C	1.207870	0.464687	-1.112518
C194	C	1.255766	0.403066	-1.032992
C195	C	1.315581	0.326250	-1.073097
C196	C	1.327499	0.311055	-1.192729
C197	C	1.279601	0.372678	-1.272263
C198	C	1.219786	0.449493	-1.232158
H199	H	1.246945	0.414312	-0.944426
H200	H	1.351038	0.280633	-1.014220
H201	H	1.371777	0.254192	-1.222418
H202	H	1.288422	0.361431	-1.360829
H203	H	1.184329	0.495110	-1.291035
H204	H	0.635148	0.646956	-0.399264
H205	H	0.506483	0.402422	-0.650949
C206	C	0.934903	0.566941	-0.909583
C207	C	0.922104	0.469191	-0.839342
C208	C	0.843932	0.443527	-0.798682
C209	C	0.778559	0.515613	-0.828264
C210	C	0.791356	0.613370	-0.898509
C211	C	0.869528	0.639033	-0.939169
H212	H	0.970499	0.415823	-0.817440
H213	H	0.834459	0.371161	-0.746682
H214	H	0.720692	0.496615	-0.798165
H215	H	0.742961	0.666737	-0.920411
H216	H	0.879001	0.711399	-0.991169
C217	C	0.972572	0.907299	-0.365881
C218	C	0.959197	0.787533	-0.355034
C219	C	0.882638	0.746189	-0.321689
C220	C	0.819453	0.824611	-0.299191
C221	C	0.832826	0.944384	-0.310038
C222	C	0.909385	0.985728	-0.343383
H223	H	1.005972	0.729474	-0.371689
H224	H	0.872739	0.657524	-0.313660
H225	H	0.762779	0.794005	-0.274508
H226	H	0.786051	1.002443	-0.293383
H227	H	0.919284	1.074393	-0.351412
H228	H	1.191243	1.100146	-0.479816
H229	H	1.089392	0.919492	-0.336380
H230	H	1.167983	1.101999	-0.619708
C231	C	0.934517	0.566796	-1.112613
C232	C	0.898975	0.459229	-1.086779
C233	C	0.820570	0.433822	-1.126586
C234	C	0.777707	0.515982	-1.192227
C235	C	0.813248	0.623556	-1.218065
C236	C	0.891653	0.648963	-1.178257
H237	H	0.930705	0.398403	-1.038184
H238	H	0.794260	0.354188	-1.107459
H239	H	0.719667	0.497174	-1.221695
H240	H	0.781518	0.684382	-1.266660
H241	H	0.917963	0.728596	-1.197384
H242	H	0.634048	0.397771	-0.645600
C243	C	1.030904	0.704937	-0.910753
C244	C	1.104652	0.757519	-0.941079
C245	C	1.122514	0.869871	-0.901630
C246	C	1.066626	0.929641	-0.831855
C247	C	0.992873	0.877060	-0.801525
C248	C	0.975012	0.764708	-0.840974
H249	H	1.146028	0.713273	-0.992735
H250	H	1.177111	0.908795	-0.924083
H251	H	1.079848	1.012811	-0.802652
H252	H	0.951498	0.921306	-0.749870
H253	H	0.920414	0.725784	-0.818521
H254	H	1.026212	0.918913	-0.675690
H255	H	1.164163	0.919397	-0.624289
H256	H	1.164929	0.623508	-1.101020
H257	H	1.092324	0.337535	-1.101493
