data_functionalizedCrystal
_audit_creation_method	'MofGen! by Chris Wilmer'
_symmetry_space_group_name_H-M	'P1'
_symmetry_Int_Tables_number	1
_symmetry_cell_setting	triclinic
loop_
_symmetry_equiv_pos_as_xyz
  x,y,z
_cell_length_a	17.077404
_cell_length_b	13.032721
_cell_length_c	17.077396
_cell_angle_alpha	97.151797
_cell_angle_beta	89.982940
_cell_angle_gamma	97.204757
loop_
_atom_site_label
_atom_site_type_symbol
_atom_site_fract_x
_atom_site_fract_y
_atom_site_fract_z
Zn1	Zn	1.160356	-0.416017	-0.483522
Zn2	Zn	1.660356	0.083983	0.016478
Zn3	Zn	1.143599	-0.590788	-0.368925
Zn4	Zn	1.643599	-0.090788	0.131075
Zn5	Zn	1.029089	-0.416059	-0.352273
Zn6	Zn	1.529089	0.083941	0.147727
Zn7	Zn	1.012392	-0.590721	-0.500142
Zn8	Zn	1.512392	-0.090721	-0.000142
O9	O	1.086359	-0.503396	-0.426215
O10	O	1.586359	-0.003396	0.073785
O11	O	1.267979	-0.439212	-0.468333
O12	O	1.767979	0.060788	0.031667
O13	O	1.128384	-0.567655	-0.256873
O14	O	1.628384	-0.067655	0.243127
O15	O	1.060503	-0.269815	-0.355759
O16	O	1.560503	0.230185	0.144241
O17	O	1.255668	-0.567615	-0.384139
O18	O	1.755668	-0.067615	0.115861
O19	O	1.156944	-0.269784	-0.452187
O20	O	1.656944	0.230216	0.047813
O21	O	1.044254	-0.439282	-0.244640
O22	O	1.544254	0.060718	0.255360
O23	O	0.917029	-0.439218	-0.371876
O24	O	1.417029	0.060782	0.128124
O25	O	1.032045	-0.567501	-0.607780
O26	O	1.532045	-0.067501	-0.107780
O27	O	0.904761	-0.567541	-0.480514
O28	O	1.404761	-0.067541	0.019486
O29	O	1.140753	-0.439147	-0.595569
O30	O	1.640753	0.060853	-0.095569
O31	O	1.112194	-0.737017	-0.400255
O32	O	1.612194	-0.237017	0.099745
O33	O	1.015797	-0.736968	-0.496660
O34	O	1.515797	-0.236968	0.003340
C35	C	0.882413	-0.503377	-0.426192
C36	C	1.382413	-0.003377	0.073808
C37	C	0.795162	-0.503394	-0.426203
C38	C	1.295162	-0.003394	0.073797
C39	C	1.060386	-0.774911	-0.452085
C40	C	1.560386	-0.274911	0.047915
C41	C	1.049347	-0.891066	-0.463179
C42	C	1.549347	-0.391066	0.036821
C43	C	0.747795	-0.570313	-0.482700
C44	C	1.247795	-0.070313	0.017300
C45	C	0.665814	-0.570315	-0.482713
C46	C	1.165814	-0.070315	0.017287
C47	C	0.631201	-0.503403	-0.426224
C48	C	1.131201	-0.003403	0.073776
C49	C	0.678575	-0.436477	-0.369724
C50	C	1.178575	0.063523	0.130276
C51	C	0.760554	-0.436470	-0.369716
C52	C	1.260554	0.063530	0.130284
C53	C	0.507703	-0.436498	-0.369745
C54	C	1.007703	0.063502	0.130255
C55	C	0.425717	-0.436506	-0.369753
C56	C	0.925717	0.063494	0.130247
C57	C	0.412963	-0.570343	-0.482742
C58	C	0.912963	-0.070343	0.017258
C59	C	0.494942	-0.570336	-0.482734
C60	C	0.994942	-0.070336	0.017266
C61	C	0.542310	-0.503411	-0.426232
C62	C	1.042310	-0.003411	0.073768
C63	C	1.092162	-0.942841	-0.420461
C64	C	1.592162	-0.442841	0.079539
C65	C	1.080754	-1.062894	-0.431926
C66	C	1.580754	-0.562894	0.068074
C67	C	1.291101	-0.503416	-0.426240
C68	C	1.791101	-0.003416	0.073760
C69	C	1.378350	-0.503424	-0.426250
C70	C	1.878350	-0.003424	0.073750
C71	C	1.086406	-0.503312	-0.630952
C72	C	1.586406	-0.003312	-0.130952
C73	C	1.086426	-0.503276	-0.718198
C74	C	1.586426	-0.003276	-0.218198
C75	C	1.112455	-0.230821	-0.400262
C76	C	1.612455	0.269179	0.099738
C77	C	1.123575	-0.114666	-0.389202
C78	C	1.623575	0.385334	0.110798
C79	C	1.130315	-0.569997	-1.100374
C80	C	1.630315	-0.069997	-0.600374
C81	C	1.130292	-0.570028	-1.018396
C82	C	1.630292	-0.070028	-0.518396
C83	C	1.086484	-0.503202	-0.971040
C84	C	1.586484	-0.003202	-0.471040
C85	C	1.042688	-0.436348	-1.005666
C86	C	1.542688	0.063652	-0.505666
C87	C	1.042707	-0.436324	-1.087643
C88	C	1.542707	0.063676	-0.587643
C89	C	1.042654	-0.436402	-0.834801
C90	C	1.542654	0.063598	-0.334801
C91	C	1.042636	-0.436425	-0.752819
C92	C	1.542636	0.063575	-0.252819
C93	C	1.130239	-0.570106	-0.765554
C94	C	1.630239	-0.070106	-0.265554
C95	C	1.130258	-0.570082	-0.847531
C96	C	1.630258	-0.070082	-0.347531
C97	C	1.086463	-0.503227	-0.882151
C98	C	1.586463	-0.003227	-0.382151
C99	C	1.086365	-0.503405	-0.222268
C100	C	1.586365	-0.003405	0.277732
C101	C	1.086525	-0.503147	-0.134994
C102	C	1.586525	-0.003147	0.365006
H103	H	0.775970	-0.624804	-0.528697
H104	H	1.275970	-0.124804	-0.028697
F105	F	0.810966	-0.365244	-0.309585
F106	F	1.310966	0.134756	0.190415
H107	H	1.165935	-0.624492	-0.886086
H108	H	1.665935	-0.124492	-0.386086
H109	H	1.137268	-0.898292	-0.375404
H110	H	1.637268	-0.398292	0.124596
H111	H	0.374392	-0.624832	-0.528750
H112	H	0.874392	-0.124832	-0.028750
H113	H	1.165994	-0.624410	-1.138925
H114	H	1.665994	-0.124410	-0.638925
F115	F	0.996008	-0.365303	-0.702421
F116	F	1.496008	0.134697	-0.202421
H117	H	0.397539	-0.382008	-0.323763
H118	H	0.897539	0.117992	0.176237
F119	F	0.615406	-0.641539	-0.542845
F120	F	1.115406	-0.141539	-0.042845
F121	F	1.182536	-1.056446	-0.330304
F122	F	1.682536	-0.556446	0.169696
H123	H	1.006991	-0.381962	-0.862986
H124	H	1.506991	0.118038	-0.362986
H125	H	1.035651	-1.107441	-0.476991
H126	H	1.535651	-0.607441	0.023009
F127	F	1.176846	-0.641262	-0.728708
F128	F	1.676846	-0.141262	-0.228708
F129	F	1.176901	-0.641178	-0.981554
F130	F	1.676901	-0.141178	-0.481554
H131	H	1.004248	-0.935617	-0.508241
H132	H	1.504248	-0.435617	-0.008241
F133	F	0.996072	-0.365216	-0.955264
F134	F	1.496072	0.134784	-0.455264
H135	H	0.546268	-0.381991	-0.323742
H136	H	1.046268	0.118009	0.176258
H137	H	0.523121	-0.624827	-0.528728
H138	H	1.023121	-0.124827	-0.028728
F139	F	0.641735	-0.365258	-0.309609
F140	F	1.141735	0.134742	0.190391
F141	F	0.996103	-0.365168	-1.124488
F142	F	1.496103	0.134832	-0.624488
