data_functionalizedCrystal
_audit_creation_method	'MofGen! by Chris Wilmer'
_symmetry_space_group_name_H-M	'P1'
_symmetry_Int_Tables_number	1
_symmetry_cell_setting	triclinic
loop_
_symmetry_equiv_pos_as_xyz
  x,y,z
_cell_length_a	10.654562
_cell_length_b	14.853569
_cell_length_c	9.130313
_cell_angle_alpha	89.997576
_cell_angle_beta	89.996930
_cell_angle_gamma	84.062834
loop_
_atom_site_label
_atom_site_type_symbol
_atom_site_fract_x
_atom_site_fract_y
_atom_site_fract_z
O1	O	1.666510	0.126676	-0.121900
O2	O	1.300908	0.138729	-0.121882
O3	O	1.493474	0.001525	-0.121878
O4	O	1.473944	0.263879	-0.121905
O5	O	1.493471	0.001529	0.121721
O6	O	1.300906	0.138732	0.121717
O7	O	1.666507	0.126680	0.121699
Cu8	Cu	1.483706	0.132706	0.143950
Cu9	Cu	1.483709	0.132702	-0.144134
O10	O	1.473942	0.263883	0.121694
C11	C	1.254118	0.137843	-0.000080
C12	C	1.114704	0.135188	-0.000073
C13	C	1.049184	0.133952	0.132701
C14	C	0.918188	0.131465	0.132677
C15	C	0.918241	0.131454	-0.132908
C16	C	1.049236	0.133935	-0.132882
C17	C	1.049152	0.133962	0.286035
C18	C	0.918156	0.131475	0.286011
C19	C	1.492587	-0.032066	-0.000078
C20	C	1.489934	-0.132164	-0.000076
C21	C	1.374302	-0.169164	-0.000068
C22	C	1.603075	-0.189221	-0.000095
C23	C	1.600587	-0.283268	-0.000101
C24	C	1.484954	-0.320268	-0.000093
C25	C	1.371810	-0.263220	-0.000078
C26	C	1.713729	-0.340323	-0.000130
C27	C	1.711245	-0.434377	-0.000138
C28	C	1.595610	-0.471378	-0.000119
C29	C	1.482462	-0.414324	-0.000103
C30	C	1.366829	-0.451323	-0.000095
C31	C	1.253679	-0.394270	-0.000069
C32	C	1.256175	-0.300220	-0.000060
C33	C	1.593114	-0.565428	-0.000128
C34	C	1.364337	-0.545379	-0.000106
C35	C	1.713297	0.127566	-0.000106
C36	C	1.852712	0.130220	-0.000123
C37	C	1.474828	0.297475	-0.000109
C38	C	1.477481	0.397573	-0.000120
N39	N	1.483714	0.132709	0.346573
N40	N	1.483712	0.132692	-0.346756
C41	C	1.569003	0.071976	0.423227
C42	C	1.569000	0.071965	0.576564
C43	C	1.398413	0.193428	0.576579
C44	C	1.398411	0.193434	0.423245
C45	C	1.667494	0.001853	0.423219
C46	C	1.667491	0.001843	0.576556
H47	H	1.096058	0.071659	0.344924
H48	H	1.637658	-0.063642	0.624112
H49	H	1.164055	-0.253760	-0.000042
F50	F	1.793427	0.022029	0.630951
H51	H	1.282178	-0.122707	-0.000040
H52	H	0.871222	0.193782	0.344869
F53	F	1.118965	0.135233	-0.274198
H54	H	1.270174	-0.575496	-0.000086
F55	F	0.880354	0.045608	0.348456
F56	F	0.848556	0.130111	-0.274244
F57	F	1.713527	-0.626143	-0.000171
F58	F	1.130618	-0.433659	-0.000075
H59	H	1.646771	-0.067442	0.381608
F60	F	1.786371	0.030566	0.361040
F61	F	1.086922	0.219902	0.348212
F62	F	1.726132	-0.149841	-0.000118
H63	H	1.807871	-0.310191	-0.000047
F64	F	1.831667	-0.495088	-0.000160
F65	F	1.307622	0.258062	0.341665
H66	H	1.328962	0.242868	0.639022
