data_functionalizedCrystal
_audit_creation_method	'MofGen! by Chris Wilmer'
_symmetry_space_group_name_H-M	'P1'
_symmetry_Int_Tables_number	1
_symmetry_cell_setting	triclinic
loop_
_symmetry_equiv_pos_as_xyz
  x,y,z
_cell_length_a	21.295418
_cell_length_b	29.839131
_cell_length_c	21.295411
_cell_angle_alpha	89.971982
_cell_angle_beta	89.956262
_cell_angle_gamma	90.051038
loop_
_atom_site_label
_atom_site_type_symbol
_atom_site_fract_x
_atom_site_fract_y
_atom_site_fract_z
Zn1	Zn	0.962335	-0.178715	-0.356206
Zn2	Zn	0.962229	-0.253830	-0.250919
Zn3	Zn	0.857058	-0.178736	-0.250916
Zn4	Zn	0.857019	-0.253839	-0.356116
O5	O	0.909660	-0.216280	-0.303539
O6	O	1.050410	-0.188667	-0.342279
O7	O	0.948250	-0.243874	-0.162829
O8	O	0.871084	-0.115866	-0.264918
O9	O	1.050332	-0.243854	-0.264925
O10	O	0.948431	-0.115851	-0.342275
O11	O	0.870981	-0.188703	-0.162827
O12	O	0.768964	-0.188711	-0.264831
O13	O	0.871017	-0.243869	-0.444217
O14	O	0.768935	-0.243889	-0.342122
O15	O	0.948393	-0.188675	-0.444283
O16	O	0.948212	-0.316699	-0.264838
O17	O	0.870914	-0.316705	-0.342125
C18	C	0.746109	-0.216304	-0.303467
C19	C	0.676141	-0.216325	-0.303451
C20	C	0.643275	-0.245094	-0.343635
C21	C	0.577533	-0.245083	-0.343664
C22	C	0.544658	-0.216307	-0.303496
C23	C	0.577531	-0.187532	-0.263308
C24	C	0.643272	-0.187541	-0.263286
N25	N	0.441382	-0.212791	-0.248439
N26	N	0.378931	-0.212785	-0.248462
C27	C	0.346583	-0.216279	-0.303563
N28	N	0.379046	-0.219787	-0.358640
N29	N	0.441504	-0.219795	-0.358616
C30	C	0.473373	-0.216294	-0.303516
C31	C	0.242433	-0.245037	-0.343782
C32	C	0.176689	-0.245023	-0.343811
C33	C	0.176689	-0.187475	-0.263450
C34	C	0.242431	-0.187487	-0.263426
C35	C	0.275299	-0.216271	-0.303591
C36	C	0.909564	-0.333003	-0.303486
C37	C	0.909581	-0.382937	-0.303484
C38	C	0.949926	-0.692538	-0.343876
C39	C	0.949994	-0.880211	-0.343914
O40	O	0.984203	-0.904439	-0.378217
N41	N	0.909767	-0.903722	-0.303609
C42	C	0.869517	-0.880313	-0.263295
O43	O	0.835299	-0.904617	-0.229019
C44	C	0.869446	-0.692640	-0.263261
C45	C	0.909680	-0.669131	-0.303564
C46	C	0.990156	-0.669028	-0.384176
C47	C	0.990141	-0.622113	-0.384164
C48	C	0.949896	-0.598707	-0.343851
C49	C	0.909665	-0.622216	-0.303551
C50	C	0.829194	-0.669232	-0.222950
C51	C	0.829179	-0.622311	-0.222946
C52	C	0.869413	-0.598802	-0.263249
C53	C	0.869405	-0.551894	-0.263227
N54	N	0.909632	-0.528383	-0.303531
C55	C	0.949877	-0.551789	-0.343844
C56	C	0.869558	-0.978843	-0.263315
C57	C	0.869577	-1.025761	-0.263322
C58	C	0.950053	-1.025656	-0.343942
C59	C	0.950037	-0.978737	-0.343931
C60	C	0.909785	-0.955332	-0.303620
C61	C	0.949843	-0.453263	-0.343814
C62	C	0.949826	-0.406343	-0.343797
C63	C	0.869348	-0.406453	-0.263180
C64	C	0.869367	-0.453368	-0.263195
C65	C	0.909616	-0.476772	-0.303517
O66	O	0.835209	-0.527637	-0.228947
O67	O	0.984081	-0.527476	-0.378125
C68	C	0.949941	-0.739453	-0.343888
C69	C	0.909711	-0.762962	-0.303588
C70	C	0.869465	-0.739556	-0.263276
C71	C	0.909729	-0.809880	-0.303596
C72	C	0.949974	-0.833286	-0.343908
C73	C	0.990201	-0.809775	-0.384213
C74	C	0.990186	-0.762859	-0.384201
C75	C	0.829238	-0.763068	-0.222971
C76	C	0.829257	-0.809983	-0.222986
C77	C	0.869503	-0.833389	-0.263298
C78	C	1.073851	-0.216257	-0.303612
C79	C	1.143819	-0.216247	-0.303643
C80	C	0.909713	-0.216271	-0.467729
C81	C	0.909735	-0.216267	-0.537698
C82	C	0.909774	-0.099102	-0.303606
C83	C	0.909822	-0.049167	-0.303635
C84	C	0.950022	-0.187526	-0.570600
C85	C	0.950022	-0.187507	-0.636342
C86	C	0.909740	-0.216236	-0.669180
C87	C	0.869444	-0.244978	-0.636270
C88	C	0.869442	-0.244994	-0.570529
N89	N	0.904879	-0.255537	-0.772388
N90	N	0.904885	-0.255521	-0.834839
C91	C	0.909744	-0.216190	-0.867255
N92	N	0.914609	-0.176875	-0.834860
N93	N	0.914606	-0.176891	-0.772403
C94	C	0.909738	-0.216222	-0.740466
C95	C	0.950033	-0.187426	-0.971443
C96	C	0.950027	-0.187406	-1.037186
C97	C	0.869453	-0.244882	-1.037113
C98	C	0.869455	-0.244898	-0.971371
C99	C	0.909748	-0.216171	-0.938539
C100	C	0.909645	-0.216257	-0.139988
C101	C	0.909744	-0.216135	-0.070020
H102	H	0.550769	-0.268510	-0.376389
Cl103	Cl	0.818949	-0.949426	-0.212634
Cl104	Cl	0.536204	-0.151355	-0.212815
Cl105	Cl	1.040768	-0.733312	-0.434871
Cl106	Cl	1.000618	-0.949188	-0.394601
Cl107	Cl	0.818802	-0.281093	-0.677551
H108	H	0.836821	-1.044898	-0.230497
Cl109	Cl	0.684591	-0.151371	-0.212763
Cl110	Cl	0.684592	-0.281277	-0.394131
Cl111	Cl	0.778573	-0.592890	-0.172265
Cl112	Cl	0.818808	-0.281033	-0.930006
H113	H	0.982614	-0.472313	-0.376653
H114	H	0.269195	-0.268472	-0.376490
H115	H	0.149931	-0.268450	-0.376538
H116	H	0.982592	-0.387204	-0.376616
Cl117	Cl	0.135367	-0.151297	-0.212956
H118	H	0.269190	-0.164062	-0.230700
Cl119	Cl	0.818795	-0.482923	-0.212520
H120	H	0.796465	-0.744014	-0.190145
H121	H	0.982833	-0.163999	-1.063974
Cl122	Cl	1.000660	-0.151364	-0.677714
Cl123	Cl	0.818756	-0.377019	-0.212504
Cl124	Cl	1.040797	-0.839209	-0.434889
H125	H	0.836649	-0.268269	-1.063849
Cl126	Cl	1.040756	-0.698445	-0.434863
Cl127	Cl	1.040719	-0.592566	-0.434838
Cl128	Cl	0.818791	-0.281128	-0.529164
H129	H	0.796431	-0.688365	-0.190131
Cl130	Cl	1.000646	-1.055089	-0.394621
Cl131	Cl	0.778674	-0.839532	-0.172312
Cl132	Cl	1.000682	-0.151310	-0.930166
Cl133	Cl	1.000673	-0.151409	-0.529329
