data_functionalizedCrystal
_audit_creation_method	'MofGen! by Chris Wilmer'
_symmetry_space_group_name_H-M	'P1'
_symmetry_Int_Tables_number	1
_symmetry_cell_setting	triclinic
loop_
_symmetry_equiv_pos_as_xyz
  x,y,z
_cell_length_a	21.395362
_cell_length_b	29.839131
_cell_length_c	21.395355
_cell_angle_alpha	90.027826
_cell_angle_beta	90.043940
_cell_angle_gamma	90.051103
loop_
_atom_site_label
_atom_site_type_symbol
_atom_site_fract_x
_atom_site_fract_y
_atom_site_fract_z
Zn1	Zn	0.957840	-0.178715	0.354545
Zn2	Zn	1.291173	0.154618	0.687878
Zn3	Zn	1.624506	0.487952	1.021212
Zn4	Zn	0.957734	-0.253830	0.249751
Zn5	Zn	1.291067	0.079503	0.583084
Zn6	Zn	1.624401	0.412836	0.916417
Zn7	Zn	0.853055	-0.178736	0.249746
Zn8	Zn	1.186388	0.154597	0.583080
Zn9	Zn	1.519721	0.487931	0.916413
Zn10	Zn	0.853016	-0.253840	0.354455
Zn11	Zn	1.186349	0.079494	0.687789
Zn12	Zn	1.519682	0.412827	1.021122
O13	O	0.905411	-0.216280	0.302124
O14	O	1.238744	0.117053	0.635458
O15	O	1.572078	0.450387	0.968791
O16	O	1.045504	-0.188667	0.340683
O17	O	1.378837	0.144667	0.674017
O18	O	1.712170	0.478000	1.007350
O19	O	0.943820	-0.243874	0.162072
O20	O	1.277154	0.089460	0.495405
O21	O	1.610487	0.422793	0.828739
O22	O	0.867015	-0.115866	0.263684
O23	O	1.200349	0.217467	0.597017
O24	O	1.533682	0.550801	0.930351
O25	O	1.045426	-0.243853	0.263691
O26	O	1.378759	0.089480	0.597024
O27	O	1.712093	0.422813	0.930358
O28	O	0.944000	-0.115851	0.340679
O29	O	1.277334	0.217483	0.674012
O30	O	1.610667	0.550816	1.007346
O31	O	0.866913	-0.188702	0.162069
O32	O	1.200246	0.144631	0.495402
O33	O	1.533579	0.477964	0.828736
O34	O	0.765372	-0.188711	0.263597
O35	O	1.098705	0.144622	0.596930
O36	O	1.432038	0.477956	0.930264
O37	O	0.866949	-0.243869	0.442145
O38	O	1.200282	0.089464	0.775478
O39	O	1.533615	0.422797	1.108812
O40	O	0.765343	-0.243889	0.340526
O41	O	1.098676	0.089444	0.673859
O42	O	1.432010	0.422777	1.007193
O43	O	0.943963	-0.188676	0.442211
O44	O	1.277296	0.144658	0.775544
O45	O	1.610629	0.477991	1.108878
O46	O	0.943782	-0.316699	0.263604
O47	O	1.277116	0.016635	0.596937
O48	O	1.610449	0.349968	0.930271
O49	O	0.866846	-0.316705	0.340530
O50	O	1.200179	0.016628	0.673863
O51	O	1.533513	0.349961	1.007197
C52	C	0.742623	-0.216304	0.302052
C53	C	1.075957	0.117029	0.635385
C54	C	1.409290	0.450363	0.968718
C55	C	0.672982	-0.216325	0.302035
C56	C	1.006315	0.117008	0.635369
C57	C	1.339649	0.450342	0.968702
C58	C	0.640270	-0.245094	0.342032
C59	C	0.973604	0.088239	0.675366
C60	C	1.306937	0.421572	1.008699
C61	C	0.574835	-0.245083	0.342060
C62	C	0.908168	0.088250	0.675394
C63	C	1.241502	0.421583	1.008727
C64	C	0.542114	-0.216308	0.302080
C65	C	0.875447	0.117026	0.635413
C66	C	1.208780	0.450359	0.968747
C67	C	0.574833	-0.187533	0.262080
C68	C	0.908167	0.145801	0.595414
C69	C	1.241500	0.479134	0.928747
C70	C	0.640268	-0.187541	0.262058
C71	C	0.973601	0.145792	0.595391
C72	C	1.306934	0.479125	0.928725
C73	C	0.438389	-0.212688	0.245676
C74	C	0.771723	0.120645	0.579009
C75	C	1.105056	0.453978	0.912342
C76	C	0.372957	-0.212683	0.245697
C77	C	0.706290	0.120650	0.579030
C78	C	1.039623	0.453984	0.912364
C79	C	0.340293	-0.216278	0.302149
C80	C	0.673626	0.117055	0.635483
C81	C	1.006960	0.450388	0.968816
C82	C	0.373071	-0.219889	0.358582
C83	C	0.706404	0.113445	0.691915
C84	C	1.039737	0.446778	1.025249
C85	C	0.438505	-0.219897	0.358560
C86	C	0.771838	0.113436	0.691893
C87	C	1.105172	0.446769	1.025226
C88	C	0.471161	-0.216295	0.302100
C89	C	0.804495	0.117039	0.635433
C90	C	1.137828	0.450372	0.968767
C91	C	0.236629	-0.245037	0.342180
C92	C	0.569962	0.088296	0.675513
C93	C	0.903296	0.421629	1.008847
C94	C	0.171192	-0.245023	0.342209
C95	C	0.504526	0.088310	0.675542
C96	C	0.837859	0.421644	1.008876
C97	C	0.171192	-0.187475	0.262223
C98	C	0.504525	0.145859	0.595556
C99	C	0.837859	0.479192	0.928890
C100	C	0.236627	-0.187487	0.262200
C101	C	0.569961	0.145847	0.595533
C102	C	0.903294	0.479180	0.928866
C103	C	0.269342	-0.216270	0.302177
C104	C	0.602675	0.117063	0.635511
C105	C	0.936009	0.450396	0.968844
C106	C	0.905316	-0.333003	0.302071
C107	C	1.238649	0.000331	0.635405
C108	C	1.571982	0.333664	0.968738
C109	C	0.905332	-0.382937	0.302070
C110	C	1.238665	-0.049604	0.635403
C111	C	1.571999	0.283729	0.968736
C112	C	0.945488	-0.692538	0.342273
C113	C	1.278822	-0.359204	0.675606
C114	C	1.612155	-0.025871	1.008939
C115	C	0.945556	-0.880211	0.342310
C116	C	1.278890	-0.546877	0.675644
C117	C	1.612223	-0.213544	1.008977
O118	O	0.979605	-0.904439	0.376453
O119	O	1.312939	-0.571106	0.709787
O120	O	1.646272	-0.237772	1.043120
N121	N	0.905517	-0.903722	0.302194
N122	N	1.238851	-0.570389	0.635527
N123	N	1.572184	-0.237056	0.968861
C124	C	0.865456	-0.880313	0.262068
C125	C	1.198789	-0.546979	0.595401
C126	C	1.532122	-0.213646	0.928735
O127	O	0.831397	-0.904617	0.227952
O128	O	1.164730	-0.571283	0.561285
O129	O	1.498064	-0.237950	0.894618
C130	C	0.865385	-0.692640	0.262034
C131	C	1.198718	-0.359307	0.595367
C132	C	1.532052	-0.025974	0.928701
C133	C	0.905431	-0.669131	0.302149
C134	C	1.238764	-0.335798	0.635482
C135	C	1.572098	-0.002465	0.968815
C136	C	0.985531	-0.669029	0.382385
C137	C	1.318864	-0.335695	0.715718
C138	C	1.652198	-0.002362	1.049051
C139	C	0.985516	-0.622113	0.382373
C140	C	1.318849	-0.288780	0.715706
C141	C	1.652183	0.044554	1.049039
C142	C	0.945459	-0.598707	0.342248
C143	C	1.278792	-0.265373	0.675582
C144	C	1.612125	0.067960	1.008915
C145	C	0.905416	-0.622216	0.302136
C146	C	1.238749	-0.288883	0.635470
C147	C	1.572083	0.044451	0.968803
C148	C	0.825321	-0.669232	0.221912
C149	C	1.158654	-0.335898	0.555245
C150	C	1.491987	-0.002565	0.888578
C151	C	0.825305	-0.622311	0.221908
C152	C	1.158639	-0.288977	0.555241
C153	C	1.491972	0.044356	0.888574
C154	C	0.865351	-0.598802	0.262022
C155	C	1.198685	-0.265468	0.595356
C156	C	1.532018	0.067865	0.928689
C157	C	0.865344	-0.551894	0.262000
C158	C	1.198677	-0.218561	0.595333
C159	C	1.532010	0.114773	0.928667
N160	N	0.905383	-0.528383	0.302117
N161	N	1.238716	-0.195049	0.635450
N162	N	1.572049	0.138284	0.968783
C163	C	0.945440	-0.551789	0.342241
C164	C	1.278773	-0.218456	0.675574
C165	C	1.612107	0.114878	1.008907
C166	C	0.865497	-0.978843	0.262088
C167	C	1.198830	-0.645510	0.595421
C168	C	1.532163	-0.312176	0.928754
C169	C	0.865515	-1.025761	0.262095
C170	C	1.198848	-0.692428	0.595429
C171	C	1.532182	-0.359094	0.928762
C172	C	0.945615	-1.025656	0.342339
C173	C	1.278948	-0.692323	0.675672
C174	C	1.612282	-0.358989	1.009006
C175	C	0.945599	-0.978737	0.342328
C176	C	1.278933	-0.645404	0.675661
C177	C	1.612266	-0.312070	1.008994
C178	C	0.905536	-0.955332	0.302204
C179	C	1.238869	-0.621998	0.635538
C180	C	1.572202	-0.288665	0.968871
C181	C	0.945406	-0.453263	0.342212
C182	C	1.278739	-0.119930	0.675545
C183	C	1.612073	0.213404	1.008878
C184	C	0.945389	-0.406344	0.342194
C185	C	1.278723	-0.073010	0.675527
C186	C	1.612056	0.260323	1.008861
C187	C	0.865287	-0.406453	0.261953
C188	C	1.198620	-0.073119	0.595286
C189	C	1.531954	0.260214	0.928620
C190	C	0.865306	-0.453368	0.261968
C191	C	1.198639	-0.120035	0.595301
C192	C	1.531973	0.213298	0.928635
C193	C	0.905367	-0.476772	0.302102
C194	C	1.238701	-0.143439	0.635436
C195	C	1.572034	0.189894	0.968769
O196	O	0.831308	-0.527637	0.227880
O197	O	1.164641	-0.194303	0.561213
O198	O	1.497974	0.139030	0.894547
O199	O	0.979484	-0.527477	0.376362
O200	O	1.312817	-0.194143	0.709695
O201	O	1.646151	0.139190	1.043028
C202	C	0.945503	-0.739453	0.342285
C203	C	1.278837	-0.406120	0.675618
C204	C	1.612170	-0.072786	1.008952
C205	C	0.905461	-0.762962	0.302173
C206	C	1.238794	-0.429629	0.635506
C207	C	1.572128	-0.096296	0.968840
C208	C	0.865404	-0.739556	0.262049
C209	C	1.198737	-0.406223	0.595382
C210	C	1.532070	-0.072889	0.928716
C211	C	0.905479	-0.809880	0.302181
C212	C	1.238813	-0.476547	0.635514
C213	C	1.572146	-0.143213	0.968847
C214	C	0.945537	-0.833286	0.342305
C215	C	1.278870	-0.499953	0.675638
C216	C	1.612203	-0.166620	1.008972
C217	C	0.985576	-0.809775	0.382421
C218	C	1.318909	-0.476442	0.715755
C219	C	1.652243	-0.143108	1.049088
C220	C	0.985561	-0.762859	0.382409
C221	C	1.318894	-0.429526	0.715743
C222	C	1.652228	-0.096193	1.049076
C223	C	0.825365	-0.763067	0.221932
C224	C	1.158698	-0.429734	0.555266
C225	C	1.492031	-0.096401	0.888599
C226	C	0.825383	-0.809983	0.221947
C227	C	1.158717	-0.476650	0.555281
C228	C	1.492050	-0.143316	0.888614
C229	C	0.865441	-0.833389	0.262071
C230	C	1.198774	-0.500056	0.595405
C231	C	1.532108	-0.166723	0.928738
C232	C	1.068834	-0.216257	0.302198
C233	C	1.402168	0.117077	0.635531
C234	C	1.735501	0.450410	0.968864
C235	C	1.138476	-0.216247	0.302229
C236	C	1.471809	0.117087	0.635562
C237	C	1.805142	0.450420	0.968896
C238	C	0.905463	-0.216271	0.465548
C239	C	1.238796	0.117062	0.798881
C240	C	1.572130	0.450396	1.132214
C241	C	0.905485	-0.216267	0.535189
C242	C	1.238819	0.117066	0.868522
C243	C	1.572152	0.450399	1.201856
C244	C	0.905524	-0.099102	0.302191
C245	C	1.238857	0.234232	0.635524
C246	C	1.572191	0.567565	0.968858
C247	C	0.905572	-0.049167	0.302220
C248	C	1.238906	0.284166	0.635553
C249	C	1.572239	0.617499	0.968886
C250	C	0.905395	-0.216257	0.139337
C251	C	1.238729	0.117077	0.472670
C252	C	1.572062	0.450410	0.806003
C253	C	0.905495	-0.216134	0.069696
C254	C	1.238828	0.117199	0.403029
C255	C	1.572161	0.450533	0.736363
C256	C	0.945585	-0.187527	0.567937
C257	C	1.278918	0.145807	0.901271
C258	C	1.612251	0.479140	1.234604
C259	C	0.945584	-0.187507	0.633373
C260	C	1.278917	0.145826	0.966706
C261	C	1.612250	0.479159	1.300040
C262	C	0.905490	-0.216237	0.666057
C263	C	1.238823	0.117097	0.999391
C264	C	1.572157	0.450430	1.332724
C265	C	0.865383	-0.244979	0.633301
C266	C	1.198716	0.088354	0.966634
C267	C	1.532050	0.421688	1.299968
C268	C	0.865381	-0.244994	0.567867
C269	C	1.198714	0.088339	0.901200
C270	C	1.532047	0.421672	1.234533
C271	C	0.900510	-0.256689	0.769712
C272	C	1.233843	0.076645	1.103045
C273	C	1.567176	0.409978	1.436379
C274	C	0.900517	-0.256674	0.835145
C275	C	1.233850	0.076659	1.168478
C276	C	1.567183	0.409993	1.501812
C277	C	0.905494	-0.216189	0.867878
C278	C	1.238827	0.117144	1.201212
C279	C	1.572161	0.450478	1.534545
C280	C	0.910478	-0.175717	0.835170
C281	C	1.243811	0.157616	1.168504
C282	C	1.577144	0.490949	1.501837
C283	C	0.910475	-0.175733	0.769736
C284	C	1.243809	0.157601	1.103070
C285	C	1.577142	0.490934	1.436403
C286	C	0.905488	-0.216223	0.737010
C287	C	1.238821	0.117110	1.070343
C288	C	1.572155	0.450444	1.403676
C289	C	0.945595	-0.187425	0.971579
C290	C	1.278928	0.145908	1.304913
C291	C	1.612261	0.479242	1.638246
C292	C	0.945589	-0.187405	1.037016
C293	C	1.278923	0.145928	1.370349
C294	C	1.612256	0.479262	1.703683
C295	C	0.865392	-0.244881	1.036943
C296	C	1.198725	0.088452	1.370276
C297	C	1.532059	0.421786	1.703609
C298	C	0.865394	-0.244897	0.971507
C299	C	1.198727	0.088436	1.304841
C300	C	1.532060	0.421770	1.638174
C301	C	0.905499	-0.216170	0.938830
C302	C	1.238832	0.117164	1.272163
C303	C	1.572165	0.450497	1.605496
H304	H	0.548196	-0.268511	0.374633
H305	H	0.881529	0.064823	0.707966
H306	H	1.214863	0.398156	1.041300
Br307	Br	0.917235	-0.120810	0.725348
Br308	Br	1.250569	0.212523	1.058682
Br309	Br	1.583902	0.545857	1.392015
H310	H	0.978208	-0.959599	0.374993
H311	H	1.311541	-0.626265	0.708326
H312	H	1.644875	-0.292932	1.041659
Br313	Br	0.917239	-0.120769	0.879585
Br314	Br	1.250572	0.212564	1.212919
Br315	Br	1.583905	0.545897	1.546252
Br316	Br	0.126792	-0.148417	0.207969
Br317	Br	0.460125	0.184916	0.541302
Br318	Br	0.793459	0.518250	0.874636
H319	H	0.465190	-0.222836	0.404509
H320	H	0.798523	0.110498	0.737843
H321	H	1.131856	0.443831	1.071176
Br322	Br	1.000019	-0.148438	0.927227
Br323	Br	1.333352	0.184895	1.260560
Br324	Br	1.666685	0.518229	1.593894
Br325	Br	0.126796	-0.284067	0.396501
Br326	Br	0.460130	0.049266	0.729834
Br327	Br	0.793463	0.382600	1.063168
H328	H	0.978242	-0.163998	1.063679
H329	H	1.311575	0.169335	1.397012
H330	H	1.644909	0.502668	1.730345
Br331	Br	0.770967	-0.701125	0.167468
Br332	Br	1.104301	-0.367792	0.500801
Br333	Br	1.437634	-0.034458	0.834134
H334	H	0.666903	-0.268532	0.374586
H335	H	1.000236	0.064802	0.707919
H336	H	1.333569	0.398135	1.041253
H337	H	0.978236	-0.164101	0.660042
H338	H	1.311570	0.169232	0.993375
H339	H	1.644903	0.502566	1.326709
H340	H	0.832736	-0.268369	0.659917
H341	H	1.166070	0.064964	0.993250
H342	H	1.499403	0.398297	1.326584
H343	H	0.832740	-0.268268	1.063554
H344	H	1.166074	0.065065	1.396887
H345	H	1.499407	0.398398	1.730220
H346	H	0.346274	-0.209746	0.199746
H347	H	0.679607	0.123587	0.533079
H348	H	1.012941	0.456921	0.866412
Br349	Br	0.893773	-0.311639	0.725295
Br350	Br	1.227106	0.021694	1.058628
Br351	Br	1.560440	0.355028	1.391962
Br352	Br	0.281025	-0.148440	0.207915
Br353	Br	0.614358	0.184893	0.541248
Br354	Br	0.947692	0.518226	0.874581
H355	H	0.978232	-1.044721	0.375009
H356	H	1.311565	-0.711388	0.708342
H357	H	1.644899	-0.378055	1.041676
H358	H	0.832724	-0.268398	0.541203
H359	H	1.166057	0.064935	0.874537
H360	H	1.499391	0.398269	1.207870
Br361	Br	0.810971	-0.283905	0.927060
Br362	Br	1.144304	0.049428	1.260393
Br363	Br	1.477638	0.382762	1.593726
Br364	Br	0.530428	-0.148476	0.207826
Br365	Br	0.863761	0.184858	0.541159
Br366	Br	1.197095	0.518191	0.874492
H367	H	1.018194	-0.828840	0.415090
H368	H	1.351528	-0.495507	0.748423
H369	H	1.684861	-0.162174	1.081757
Br370	Br	0.328751	-0.224767	0.435202
Br371	Br	0.662084	0.108566	0.768535
Br372	Br	0.995417	0.441900	1.101869
H373	H	1.018123	-0.602975	0.415039
H374	H	1.351456	-0.269641	0.748373
H375	H	1.684790	0.063692	1.081706
Br376	Br	0.482712	-0.207809	0.169055
Br377	Br	0.816045	0.125524	0.502388
Br378	Br	1.149378	0.458858	0.835721
Br379	Br	0.684665	-0.148493	0.207773
Br380	Br	1.017999	0.184840	0.541107
Br381	Br	1.351332	0.518174	0.874440
H382	H	0.792678	-0.603256	0.189235
H383	H	1.126012	-0.269923	0.522568
H384	H	1.459345	0.063411	0.855902
H385	H	0.896462	-0.289629	0.861771
H386	H	1.229796	0.043705	1.195104
H387	H	1.563129	0.377038	1.528437
Br388	Br	0.999744	-0.374441	0.396637
Br389	Br	1.333077	-0.041108	0.729970
Br390	Br	1.666410	0.292226	1.063303
H391	H	0.263267	-0.268472	0.374735
H392	H	0.596600	0.064861	0.708069
H393	H	0.929933	0.398194	1.041402
Br394	Br	0.810927	-0.374678	0.207500
Br395	Br	1.144261	-0.041345	0.540834
Br396	Br	1.477594	0.291989	0.874167
Br397	Br	0.999776	-0.485018	0.396679
Br398	Br	1.333110	-0.151685	0.730013
Br399	Br	1.666443	0.181648	1.063346
Br400	Br	1.039899	-0.700785	0.436850
Br401	Br	1.373232	-0.367452	0.770183
Br402	Br	1.706565	-0.034119	1.103517
Br403	Br	0.811175	-1.057660	0.207641
Br404	Br	1.144508	-0.724327	0.540975
Br405	Br	1.477842	-0.390994	0.874308
Br406	Br	0.811115	-0.947085	0.207632
Br407	Br	1.144449	-0.613752	0.540966
Br408	Br	1.477782	-0.280419	0.874299
Br409	Br	0.810967	-0.485275	0.207517
Br410	Br	1.144301	-0.151941	0.540850
Br411	Br	1.477634	0.181392	0.874183
H412	H	1.018170	-0.743722	0.415075
H413	H	1.351503	-0.410388	0.748408
H414	H	1.684837	-0.077055	1.081741
H415	H	0.792774	-0.829120	0.189275
H416	H	1.126107	-0.495787	0.522608
H417	H	1.459441	-0.162453	0.855942
Br418	Br	1.000010	-0.148538	0.523592
Br419	Br	1.333343	0.184795	0.856925
Br420	Br	1.666676	0.518129	1.190258
H421	H	0.792744	-0.744014	0.189259
H422	H	1.126078	-0.410680	0.522592
H423	H	1.459411	-0.077347	0.855926
