data_functionalizedCrystal
_audit_creation_method	'MofGen! by Chris Wilmer'
_symmetry_space_group_name_H-M	'P1'
_symmetry_Int_Tables_number	1
_symmetry_cell_setting	triclinic
loop_
_symmetry_equiv_pos_as_xyz
  x,y,z
_cell_length_a	12.759395
_cell_length_b	12.759394
_cell_length_c	17.077396
_cell_angle_alpha	89.973684
_cell_angle_beta	89.982791
_cell_angle_gamma	90.016374
loop_
_atom_site_label
_atom_site_type_symbol
_atom_site_fract_x
_atom_site_fract_y
_atom_site_fract_z
Zn1	Zn	1.606233	-0.418223	-0.443807
Zn2	Zn	1.606134	-0.593924	-0.312546
Zn3	Zn	1.430542	-0.418264	-0.312560
Zn4	Zn	1.430524	-0.593866	-0.443774
O5	O	1.518358	-0.506069	-0.378172
O6	O	1.753241	-0.441538	-0.426402
O7	O	1.582807	-0.570664	-0.202700
O8	O	1.453897	-0.271238	-0.329989
O9	O	1.753168	-0.570624	-0.329965
O10	O	1.582977	-0.271208	-0.426416
O11	O	1.453800	-0.441607	-0.202711
O12	O	1.283518	-0.441551	-0.329958
O13	O	1.453866	-0.570525	-0.553626
O14	O	1.283505	-0.570565	-0.426361
O15	O	1.582959	-0.441481	-0.553649
O16	O	1.582789	-0.740937	-0.329934
O17	O	1.453769	-0.740895	-0.426347
C18	C	1.245391	-0.506057	-0.378158
C19	C	1.128614	-0.506076	-0.378171
C20	C	1.128639	-0.640636	-0.478393
C21	C	1.073790	-0.707923	-0.528506
C22	C	0.964069	-0.707936	-0.528516
C23	C	0.909193	-0.640652	-0.478408
C24	C	0.964041	-0.573364	-0.428295
C25	C	1.073765	-0.573361	-0.428289
C26	C	0.964017	-0.438801	-0.328078
C27	C	1.073738	-0.438792	-0.328064
C28	C	0.909141	-0.371516	-0.277971
C29	C	0.963989	-0.304232	-0.227853
C30	C	1.073718	-0.304223	-0.227845
C31	C	1.128587	-0.371504	-0.277950
C32	C	1.518295	-0.779037	-0.378153
C33	C	1.518364	-0.895814	-0.378171
C34	C	1.652814	-0.895805	-0.277851
C35	C	1.720066	-0.950661	-0.227700
C36	C	1.720127	-1.060383	-0.227721
C37	C	1.652932	-1.115250	-0.277900
C38	C	1.585680	-1.060394	-0.328051
C39	C	1.585623	-0.950670	-0.328023
C40	C	1.451237	-1.060403	-0.428374
C41	C	1.451169	-0.950681	-0.428350
C42	C	1.384042	-1.115270	-0.478553
C43	C	1.316783	-1.060414	-0.528701
C44	C	1.316723	-0.950686	-0.528677
C45	C	1.383917	-0.895825	-0.478501
C46	C	1.792392	-0.506083	-0.378186
C47	C	1.909168	-0.506089	-0.378192
C48	C	1.518422	-0.505992	-0.582916
C49	C	1.518449	-0.505959	-0.670166
C50	C	1.518450	-0.232036	-0.378208
C51	C	1.518489	-0.115259	-0.378223
C52	C	1.585670	-0.438760	-0.711169
C53	C	1.585683	-0.438725	-0.793150
C54	C	1.518479	-0.505895	-0.834125
C55	C	1.451250	-0.573097	-0.793116
C56	C	1.451233	-0.573126	-0.711137
C57	C	1.451292	-0.573034	-0.963986
C58	C	1.451310	-0.573006	-1.045971
C59	C	1.585742	-0.438633	-1.045999
C60	C	1.585725	-0.438662	-0.964020
C61	C	1.518497	-0.505865	-0.923016
C62	C	1.518355	-0.506071	-0.174224
C63	C	1.518532	-0.505808	-0.086974
H64	H	1.118482	-0.762703	-0.569303
H65	H	0.819800	-0.371527	-0.277986
C66	C	1.383660	-0.776698	-0.478560
C67	C	1.310366	-0.740395	-0.533205
C68	C	1.310095	-0.630662	-0.533273
H69	H	1.451375	-0.751677	-0.492194
H70	H	1.365457	-0.751907	-0.427901
H71	H	1.328575	-0.765176	-0.583853
H72	H	1.242641	-0.765387	-0.519584
H73	H	1.291893	-0.605870	-0.482614
H74	H	1.377814	-0.605651	-0.546906
H75	H	1.260360	-0.606016	-0.570344
C76	C	1.378508	-0.646042	-1.090507
C77	C	1.437970	-0.713392	-1.137558
C78	C	1.370938	-0.780689	-1.178591
H79	H	1.332746	-0.605940	-1.122550
H80	H	1.338473	-0.686127	-1.054377
H81	H	1.477988	-0.673311	-1.173684
H82	H	1.483729	-0.753517	-1.105535
H83	H	1.330902	-0.820774	-1.142461
H84	H	1.325179	-0.740578	-1.210630
H85	H	1.411273	-0.826400	-1.210514
H86	H	1.640455	-0.383973	-0.930660
H87	H	1.640399	-0.384066	-0.677813
H88	H	1.396532	-0.627741	-0.930603
H89	H	1.652997	-1.204592	-0.277920
H90	H	1.774895	-1.105047	-0.186888
C91	C	1.384220	-1.234397	-0.478727
C92	C	1.411023	-1.270601	-0.553479
C93	C	1.411210	-1.380334	-0.553667
H94	H	1.316479	-1.259422	-0.465171
H95	H	1.433926	-1.259251	-0.441710
H96	H	1.361320	-1.245757	-0.590485
H97	H	1.478765	-1.245604	-0.567051
H98	H	1.460916	-1.405188	-0.516650
H99	H	1.343467	-1.405349	-0.540108
H100	H	1.429405	-1.404912	-0.604383
H101	H	1.774778	-0.905978	-0.186846
C102	C	1.658787	-0.365731	-0.837527
C103	C	1.717663	-0.306939	-0.784096
C104	C	1.785029	-0.239693	-0.824947
H105	H	1.618742	-0.319842	-0.869511
H106	H	1.704610	-0.405892	-0.869490
H107	H	1.671846	-0.266781	-0.752147
H108	H	1.757729	-0.352800	-0.752110
H109	H	1.830852	-0.279854	-0.856910
H110	H	1.744976	-0.193811	-0.856930
H111	H	1.824991	-0.199801	-0.788701
C112	C	0.904702	-0.781097	-0.582958
C113	C	0.976236	-0.840033	-0.626829
C114	C	0.921586	-0.907445	-0.676984
H115	H	0.861923	-0.741082	-0.617283
H116	H	0.861894	-0.826880	-0.552891
H117	H	1.019026	-0.794255	-0.656894
H118	H	1.019017	-0.880069	-0.592525
H119	H	0.878778	-0.953228	-0.646917
H120	H	0.878809	-0.867421	-0.711304
H121	H	0.970113	-0.947447	-0.706751
C122	C	0.904546	-0.231248	-0.173329
C123	C	0.931199	-0.253966	-0.095629
C124	C	0.876468	-0.186746	-0.045379
H125	H	0.831329	-0.240820	-0.180408
H126	H	0.922575	-0.160659	-0.184862
H127	H	0.913163	-0.324538	-0.084099
H128	H	1.004407	-0.244388	-0.088524
H129	H	0.894497	-0.116157	-0.056912
H130	H	0.803254	-0.196323	-0.052465
H131	H	0.894551	-0.202144	0.007346
H132	H	1.262083	-1.105096	-0.569556
C133	C	1.243594	-0.891321	-0.583162
C134	C	1.184752	-0.962860	-0.627095
C135	C	1.117366	-0.908216	-0.677289
H136	H	1.283624	-0.848446	-0.617446
H137	H	1.197751	-0.848609	-0.553120
H138	H	1.230590	-1.005553	-0.657134
H139	H	1.144701	-1.005737	-0.592831
H140	H	1.071523	-0.865505	-0.647247
H141	H	1.157405	-0.865344	-0.711568
H142	H	1.077427	-0.956747	-0.707098
H143	H	1.118369	-0.249422	-0.187042
C144	C	1.658604	-0.365692	-1.090655
C145	C	1.644209	-0.380010	-1.171219
C146	C	1.711296	-0.312827	-1.212383
H147	H	1.729233	-0.381003	-1.077326
H148	H	1.643231	-0.295087	-1.077266
H149	H	1.659590	-0.450600	-1.184602
H150	H	1.573594	-0.364692	-1.184571
H151	H	1.695924	-0.242222	-1.198994
H152	H	1.781921	-0.328144	-1.199048
H153	H	1.701532	-0.322526	-1.267049
C154	C	1.247713	-0.371377	-0.277800
C155	C	1.284008	-0.298067	-0.223178
C156	C	1.393741	-0.297931	-0.223014
H157	H	1.272693	-0.353265	-0.328433
H158	H	1.272552	-0.439130	-0.264092
H159	H	1.259180	-0.230328	-0.236891
H160	H	1.259057	-0.316162	-0.172537
H161	H	1.418580	-0.365684	-0.209306
H162	H	1.418711	-0.279821	-0.273651
H163	H	1.418381	-0.248198	-0.185949
H164	H	1.396527	-0.627784	-0.826484
H165	H	1.396484	-0.627835	-0.677753
H166	H	1.652757	-0.806464	-0.277818
H167	H	1.217980	-0.640640	-0.478384
H168	H	0.819852	-0.640659	-0.478427
