data_functionalizedCrystal
_audit_creation_method	'MofGen! by Chris Wilmer'
_symmetry_space_group_name_H-M	'P1'
_symmetry_Int_Tables_number	1
_symmetry_cell_setting	triclinic
loop_
_symmetry_equiv_pos_as_xyz
  x,y,z
_cell_length_a	17.699083
_cell_length_b	16.974959
_cell_length_c	16.176319
_cell_angle_alpha	93.643649
_cell_angle_beta	89.998611
_cell_angle_gamma	83.343198
loop_
_atom_site_label
_atom_site_type_symbol
_atom_site_fract_x
_atom_site_fract_y
_atom_site_fract_z
O1	O	1.004157	0.099989	-0.061950
O2	O	0.783789	0.112997	-0.061108
O3	O	0.900109	-0.008618	-0.069214
O4	O	0.887837	0.221604	-0.053844
O5	O	0.900093	-0.008626	0.068279
O6	O	0.783773	0.112990	0.076385
O7	O	1.004141	0.099981	0.075543
Cu8	Cu	0.893956	0.106485	0.088518
Cu9	Cu	0.893974	0.106494	-0.074083
O10	O	0.887821	0.221597	0.083648
C11	C	0.755584	0.112527	0.007604
C12	C	0.671564	0.111129	0.007500
C13	C	0.899632	-0.038079	-0.002436
C14	C	0.898224	-0.125850	-0.008301
C15	C	0.622999	0.182515	0.012266
C16	C	0.544055	0.181196	0.012189
C17	C	0.513677	0.108491	0.007339
C18	C	0.562248	0.037099	0.002576
C19	C	0.641191	0.038419	0.002659
C20	C	0.243881	0.031777	0.002241
C21	C	0.164932	0.030463	0.002155
C22	C	0.146745	0.174554	0.011770
C23	C	0.225688	0.175873	0.011854
C24	C	0.274252	0.104482	0.007094
C25	C	0.359852	0.105913	0.007180
C26	C	0.428078	0.107059	0.007248
C27	C	0.890372	-0.619917	-0.049454
C28	C	0.891687	-0.537445	-0.043926
C29	C	0.892330	-0.496230	0.033786
C30	C	0.891665	-0.537490	0.105974
C31	C	0.890356	-0.619961	0.100445
C32	C	0.896250	-0.249582	0.058358
C33	C	0.897558	-0.167105	0.063881
C34	C	0.897581	-0.167066	-0.086019
C35	C	0.896267	-0.249537	-0.091541
C36	C	0.895606	-0.290792	-0.019353
N37	N	0.893672	-0.411930	0.039438
N38	N	0.894270	-0.375090	-0.025006
C39	C	1.032346	0.100451	0.006829
C40	C	1.116366	0.101849	0.006927
C41	C	0.888298	0.251057	0.016869
C42	C	0.889705	0.338828	0.022729
N43	N	0.893948	0.106478	0.202882
N44	N	0.893988	0.106494	-0.188448
C45	C	0.945470	0.052648	0.242559
C46	C	0.945474	0.052647	0.329106
C47	C	0.893958	0.106480	0.375975
C48	C	0.842431	0.160312	0.336293
C49	C	0.842424	0.160309	0.249747
C50	C	0.842457	0.160327	0.685322
C51	C	0.842469	0.160328	0.771874
C52	C	0.945506	0.052666	0.764681
C53	C	0.945500	0.052662	0.678135
C54	C	0.893970	0.106491	0.638460
C55	C	0.893965	0.106490	0.544616
C56	C	0.893966	0.106486	0.469818
H57	H	0.647726	0.241720	0.016214
H58	H	0.987450	0.008829	0.639977
H59	H	0.895749	-0.283090	-0.154822
C60	C	1.002184	-0.006555	0.808330
N61	N	1.044874	-0.051158	0.841206
H62	H	0.987426	0.008815	0.361410
H63	H	0.898119	-0.133468	-0.144790
C64	C	0.528830	-0.042877	-0.002757
N65	N	0.503661	-0.103118	-0.006777
H66	H	0.898058	-0.133546	0.127167
H67	H	0.889813	-0.653550	0.159224
H68	H	0.987423	0.008814	0.204403
C69	C	0.895512	-0.294949	0.137768
N70	N	0.894952	-0.329122	0.197583
C71	C	0.694613	-0.040111	-0.002586
N72	N	0.734850	-0.099263	-0.006535
C73	C	0.889673	-0.665248	-0.134944
N74	N	0.889152	-0.699389	-0.199337
H75	H	0.892232	-0.503860	-0.102705
C76	C	0.785756	0.219522	0.387852
N77	N	0.743068	0.264120	0.426685
C78	C	0.892369	-0.492150	0.191458
N79	N	0.892894	-0.457999	0.255846
H80	H	0.107194	0.232684	0.015650
C81	C	0.785791	0.219547	0.823428
N82	N	0.743102	0.264147	0.862259
C83	C	0.259098	0.255855	0.017193
N84	N	0.284262	0.316098	0.021221
C85	C	0.131519	-0.049523	-0.003169
N86	N	0.106353	-0.109765	-0.007178
C87	C	0.297292	-0.046756	-0.003000
N88	N	0.337524	-0.105910	-0.006949
H89	H	0.800501	0.204158	0.653026
C90	C	0.785752	0.219532	0.206104
N91	N	0.743065	0.264141	0.173234
C92	C	0.490636	0.259727	0.017446
N93	N	0.450401	0.318879	0.021413
