data_functionalizedCrystal
_audit_creation_method	'MofGen! by Chris Wilmer'
_symmetry_space_group_name_H-M	'P1'
_symmetry_Int_Tables_number	1
_symmetry_cell_setting	triclinic
loop_
_symmetry_equiv_pos_as_xyz
  x,y,z
_cell_length_a	14.908783
_cell_length_b	12.594516
_cell_length_c	14.908308
_cell_angle_alpha	93.271498
_cell_angle_beta	89.788727
_cell_angle_gamma	93.307231
loop_
_atom_site_label
_atom_site_type_symbol
_atom_site_fract_x
_atom_site_fract_y
_atom_site_fract_z
Zn1	Zn	1.345337	-0.372278	-0.587858
Zn2	Zn	1.353928	-0.539464	-0.437510
Zn3	Zn	1.203650	-0.371126	-0.428829
Zn4	Zn	1.194954	-0.559845	-0.579133
O5	O	1.274467	-0.460678	-0.508333
O6	O	1.472304	-0.386408	-0.575198
O7	O	1.341228	-0.508122	-0.310535
O8	O	1.222489	-0.222331	-0.449942
O9	O	1.478615	-0.509239	-0.464738
O10	O	1.326586	-0.223177	-0.566780
O11	O	1.230819	-0.384445	-0.304157
O12	O	1.076669	-0.404208	-0.441483
O13	O	1.207669	-0.543976	-0.706115
O14	O	1.070281	-0.542859	-0.551911
O15	O	1.318154	-0.406171	-0.712524
O16	O	1.332796	-0.691115	-0.456279
O17	O	1.215999	-0.706089	-0.560329
C18	C	1.040849	-0.475621	-0.494809
C19	C	0.940905	-0.482040	-0.489044
C20	C	0.746516	-0.366399	-0.593410
C21	C	0.652609	-0.372427	-0.587997
C22	C	0.659185	-0.500119	-0.472801
C23	C	0.753091	-0.494091	-0.478214
C24	C	0.796753	-0.427229	-0.538522
C25	C	0.890661	-0.421207	-0.543939
C26	C	0.897235	-0.548893	-0.428739
C27	C	0.803328	-0.554921	-0.423326
C28	C	1.274409	-0.737222	-0.508320
C29	C	1.274464	-0.855526	-0.508350
C30	C	1.210935	-0.932960	-0.564900
C31	C	1.193765	-0.999318	-0.481590
C32	C	1.291715	-0.999962	-0.591679
C33	C	1.257254	-0.920326	-0.424993
C34	C	1.355239	-0.920965	-0.535141
C35	C	1.338103	-0.987286	-0.451775
C36	C	1.508998	-0.445678	-0.521910
C37	C	1.608940	-0.439286	-0.527696
C38	C	1.260983	-0.477475	-0.742856
C39	C	1.255237	-0.484633	-0.842796
C40	C	1.274549	-0.183054	-0.508366
C41	C	1.274584	-0.064747	-0.508380
C42	C	1.359485	-0.354563	-1.037270
C43	C	1.354089	-0.361284	-1.131173
C44	C	1.239044	-0.504792	-1.124506
C45	C	1.244440	-0.498071	-1.030604
C46	C	1.304664	-0.422954	-0.986989
C47	C	1.310064	-0.416239	-0.893085
C48	C	1.195015	-0.559741	-0.886419
C49	C	1.189619	-0.566462	-0.980322
C50	C	1.287951	-0.443866	-0.274724
C51	C	1.293871	-0.436398	-0.174795
H52	H	0.782066	-0.311963	-0.642519
O53	O	0.612082	-0.572212	-0.407748
H54	H	0.566988	-0.632062	-0.445445
H55	H	0.611709	-0.322890	-0.632691
H56	H	1.125512	-1.033636	-0.458953
O57	O	0.951424	-0.614504	-0.369532
H58	H	0.937438	-0.592231	-0.297949
H59	H	1.423475	-0.886654	-0.557816
O60	O	1.310988	-1.046101	-0.685008
H61	H	1.258103	-1.024575	-0.731794
O62	O	1.135846	-0.633468	-0.832180
H63	H	1.093056	-0.686817	-0.878287
H64	H	1.359102	-0.355076	-0.857575
O65	O	0.756235	-0.627033	-0.358281
H66	H	0.682496	-0.621010	-0.363740
O67	O	1.139665	-0.900982	-0.628140
H68	H	1.072728	-0.932450	-0.605696
O69	O	1.413203	-0.287511	-1.185413
H70	H	1.456475	-0.335274	-1.230850
O71	O	1.124661	-0.647471	-1.027366
H72	H	1.162431	-0.702114	-1.072471
H73	H	1.242632	-0.885624	-0.354511
H74	H	1.391883	-1.011207	-0.403907
O75	O	1.424442	-0.273560	-0.990217
H76	H	1.408009	-0.192295	-1.007345
O77	O	0.937761	-0.349088	-0.608973
H78	H	0.887048	-0.307791	-0.646221
O79	O	1.174078	-0.585789	-1.171553
H80	H	1.179536	-0.578966	-1.245296
