data_functionalizedCrystal
_audit_creation_method	'MofGen! by Chris Wilmer'
_symmetry_space_group_name_H-M	'P1'
_symmetry_Int_Tables_number	1
_symmetry_cell_setting	triclinic
loop_
_symmetry_equiv_pos_as_xyz
  x,y,z
_cell_length_a	17.640112
_cell_length_b	17.077402
_cell_length_c	17.077396
_cell_angle_alpha	89.970216
_cell_angle_beta	78.823804
_cell_angle_gamma	78.751909
loop_
_atom_site_label
_atom_site_type_symbol
_atom_site_fract_x
_atom_site_fract_y
_atom_site_fract_z
Zn1	Zn	1.208331	0.069653	0.201629
Zn2	Zn	1.208238	0.200946	0.070379
Zn3	Zn	1.076158	0.096245	0.096871
Zn4	Zn	1.076126	0.227452	0.228084
O5	O	1.142213	0.148574	0.149241
O6	O	1.318924	0.064848	0.162060
O7	O	1.190692	0.187094	-0.035949
O8	O	1.093744	-0.017140	0.110783
O9	O	1.318855	0.161309	0.065631
O10	O	1.190851	-0.036677	0.187748
O11	O	1.093653	0.110170	-0.016485
O12	O	0.965549	0.135871	0.136435
O13	O	1.093689	0.206483	0.334416
O14	O	0.965525	0.232268	0.232837
O15	O	1.190820	0.090549	0.314980
O16	O	1.190660	0.314320	0.091283
O17	O	1.093598	0.333793	0.207148
C18	C	1.142137	0.352537	0.149225
C19	C	1.142177	0.439779	0.149229
C20	C	0.936859	0.189832	0.190382
C21	C	0.849007	0.207501	0.208001
C22	C	1.142261	0.148506	0.353975
C23	C	1.142281	0.148478	0.441221
C24	C	0.560027	0.014329	0.015398
C25	C	0.477477	0.030948	0.031964
C26	C	0.477506	0.131464	0.132174
C27	C	0.560058	0.114851	0.115619
C28	C	0.601311	0.056283	0.057229
C29	C	0.601343	0.156806	0.157451
C30	C	0.683887	0.140197	0.140894
C31	C	0.725147	0.081633	0.082505
C32	C	0.683856	0.039674	0.040672
C33	C	0.560088	0.215378	0.215836
C34	C	0.601373	0.257332	0.257667
C35	C	0.683918	0.240719	0.241115
C36	C	0.725178	0.182156	0.182726
C37	C	0.725209	0.282678	0.282947
C38	C	0.807754	0.266069	0.266390
C39	C	0.807722	0.165547	0.166169
C40	C	1.348370	0.107155	0.107939
C41	C	1.436221	0.089505	0.090339
C42	C	1.142311	-0.056190	0.149270
C43	C	1.142353	-0.143448	0.149282
C44	C	1.192769	0.470593	0.088942
C45	C	1.192807	0.552565	0.088954
C46	C	1.142249	0.603724	0.149252
C47	C	1.091655	0.572904	0.209545
C48	C	1.091621	0.490932	0.209535
C49	C	1.091728	0.743760	0.209560
C50	C	1.091761	0.825738	0.209569
C51	C	1.192915	0.805393	0.088979
C52	C	1.192881	0.723421	0.088969
C53	C	1.142285	0.692607	0.149262
C54	C	1.142211	0.148575	-0.054707
C55	C	1.142344	0.148352	-0.141983
C56	C	1.192859	0.088106	0.472092
C57	C	1.192869	0.088078	0.554070
C58	C	1.142304	0.148425	0.605176
C59	C	1.091720	0.208800	0.574301
C60	C	1.091707	0.208824	0.492325
C61	C	1.091752	0.208747	0.745165
C62	C	1.091766	0.208724	0.827147
C63	C	1.192914	0.088000	0.806911
C64	C	1.192901	0.088025	0.724934
C65	C	1.142318	0.148400	0.694064
H66	H	0.792360	0.068113	0.069024
C67	C	1.248579	0.839278	0.022659
C68	C	1.242176	0.829366	-0.065303
C69	C	1.297837	0.863254	-0.131622
C70	C	1.359902	0.907054	-0.109979
C71	C	1.366308	0.916969	-0.022014
C72	C	1.310647	0.883081	0.044306
H73	H	1.196230	0.796940	-0.081327
H74	H	1.293095	0.855914	-0.196740
H75	H	1.401106	0.932140	-0.159073
H76	H	1.412254	0.949395	-0.005989
H77	H	1.315389	0.890420	0.109424
C78	C	1.036070	0.709862	0.275878
C79	C	0.946227	0.739267	0.287393
C80	C	0.890567	0.705368	0.353705
C81	C	0.924750	0.642064	0.408502
C82	C	1.014598	0.612656	0.396989
C83	C	1.070258	0.646555	0.330677
H84	H	0.920919	0.786131	0.246827
H85	H	0.824055	0.727138	0.362227
H86	H	0.883547	0.616971	0.457590
H87	H	1.039907	0.565792	0.437555
H88	H	1.136770	0.624785	0.322155
H89	H	1.050607	0.867386	0.258681
C90	C	0.853175	0.312215	0.312404
C91	C	0.841811	0.403731	0.308123
C92	C	0.887234	0.449880	0.354133
C93	C	0.944022	0.404513	0.404425
C94	C	0.955388	0.312992	0.408708
C95	C	0.909965	0.266843	0.362697
H96	H	0.799771	0.437319	0.270892
H97	H	0.878820	0.517630	0.350963
H98	H	0.977647	0.438675	0.438485
H99	H	0.997428	0.279404	0.445939
H100	H	0.918380	0.199093	0.365868
H101	H	1.050590	0.257862	0.868756
H102	H	1.050514	0.257979	0.467193
C103	C	1.248489	0.667143	0.022641
C104	C	1.310493	0.598242	0.044272
C105	C	1.366102	0.541963	-0.022056
C106	C	1.359707	0.554585	-0.110014
C107	C	1.297700	0.623489	-0.131649
C108	C	1.242091	0.679768	-0.065322
H109	H	1.315230	0.588896	0.109388
H110	H	1.412004	0.490955	-0.006039
H111	H	1.400871	0.512924	-0.159114
H112	H	1.292963	0.632835	-0.196766
H113	H	1.196189	0.730775	-0.081338
H114	H	0.841313	0.117843	0.118634
H115	H	1.050494	0.614563	0.258643
H116	H	0.717447	-0.008029	-0.006862
H117	H	1.233935	0.428945	0.039838
C118	C	1.248483	0.021722	0.415878
C119	C	1.242074	-0.066230	0.428456
C120	C	1.297697	-0.132618	0.372245
C121	C	1.359728	-0.111054	0.303457
C122	C	1.366139	-0.023098	0.290876
C123	C	1.310516	0.043290	0.347087
H124	H	1.196153	-0.082197	0.479379
H125	H	1.292951	-0.197729	0.381558
H126	H	1.400903	-0.160198	0.261846
H127	H	1.412060	-0.007131	0.239952
H128	H	1.315262	0.108401	0.337774
H129	H	1.234056	0.038919	0.579200
C130	C	1.248524	0.021643	0.668717
C131	C	1.242119	-0.066311	0.681290
C132	C	1.297741	-0.132695	0.625074
C133	C	1.359768	-0.111125	0.556285
C134	C	1.366175	-0.023167	0.543709
C135	C	1.310553	0.043217	0.599925
H136	H	1.196200	-0.082281	0.732215
H137	H	1.292997	-0.197807	0.634384
H138	H	1.400942	-0.160266	0.514671
H139	H	1.412093	-0.007197	0.492785
H140	H	1.315297	0.108329	0.590615
C141	C	1.036118	0.275161	0.711198
C142	C	0.946269	0.286815	0.740456
C143	C	0.890643	0.353229	0.706484
C144	C	0.924866	0.407988	0.643256
C145	C	1.014721	0.396336	0.613995
C146	C	1.070347	0.329922	0.647966
H147	H	0.920930	0.246277	0.787264
H148	H	0.824127	0.361855	0.728145
H149	H	0.883689	0.457152	0.618108
H150	H	1.040059	0.436874	0.567186
H151	H	1.136863	0.321296	0.626305
H152	H	1.234004	0.577650	0.039862
H153	H	1.050425	0.465845	0.258628
H154	H	1.050547	0.257934	0.615919
H155	H	0.593618	-0.033375	-0.032137
H156	H	1.234099	0.038839	0.832048
C157	C	0.555988	0.321753	0.321895
C158	C	0.567318	0.408702	0.313065
C159	C	0.521936	0.473122	0.377295
C160	C	0.465223	0.450593	0.450356
C161	C	0.453891	0.363639	0.459190
C162	C	0.499273	0.299219	0.394959
H163	H	0.609303	0.425384	0.258978
H164	H	0.530325	0.537491	0.370756
H165	H	0.431628	0.498280	0.497904
H166	H	0.411906	0.346957	0.513277
H167	H	0.490884	0.234850	0.401499
C168	C	0.432122	0.195884	0.196403
C169	C	0.375347	0.268895	0.173673
C170	C	0.329964	0.333313	0.237906
C171	C	0.341357	0.324720	0.324868
C172	C	0.398135	0.251705	0.347602
C173	C	0.443517	0.187288	0.283370
H174	H	0.366911	0.275259	0.109295
H175	H	0.287933	0.387363	0.221076
H176	H	0.307762	0.372406	0.372417
H177	H	0.406570	0.245341	0.411981
H178	H	0.485548	0.133237	0.300200
H179	H	0.443865	-0.003227	-0.002099
H180	H	0.492875	0.228899	0.229314
H181	H	0.691608	0.330370	0.330482
