data_functionalizedCrystal
_audit_creation_method	'MofGen! by Chris Wilmer'
_symmetry_space_group_name_H-M	'P1'
_symmetry_Int_Tables_number	1
_symmetry_cell_setting	triclinic
loop_
_symmetry_equiv_pos_as_xyz
  x,y,z
_cell_length_a	16.959453
_cell_length_b	16.120542
_cell_length_c	16.959447
_cell_angle_alpha	87.086179
_cell_angle_beta	90.031064
_cell_angle_gamma	92.888675
loop_
_atom_site_label
_atom_site_type_symbol
_atom_site_fract_x
_atom_site_fract_y
_atom_site_fract_z
Zn1	Zn	-0.376108	-1.274536	0.508154
Zn2	Zn	-0.508297	-1.274455	0.375970
Zn3	Zn	-0.369419	-1.135129	0.369292
Zn4	Zn	-0.501526	-1.135092	0.501411
O5	O	-0.438838	-1.204803	0.438707
O6	O	-0.399276	-1.391191	0.496236
O7	O	-0.489908	-1.255954	0.264472
O8	O	-0.259698	-1.153671	0.387740
O9	O	-0.496394	-1.391132	0.399121
O10	O	-0.264612	-1.256093	0.489761
O11	O	-0.387876	-1.153592	0.259566
O12	O	-0.381311	-1.018458	0.381201
O13	O	-0.484855	-1.153608	0.612917
O14	O	-0.478369	-1.018431	0.478269
O15	O	-0.392711	-1.256057	0.617871
O16	O	-0.618007	-1.255918	0.392583
O17	O	-0.613033	-1.153529	0.484744
C18	C	-0.428380	-0.988194	0.428279
C19	C	-0.423926	-0.895528	0.423837
C20	C	-0.644200	-1.204733	0.438674
C21	C	-0.732059	-1.204780	0.438691
C22	C	-0.461922	-0.684586	0.461706
C23	C	-0.415800	-0.725871	0.415726
C24	C	-0.420322	-0.820277	0.420240
C25	C	-0.457400	-0.590172	0.457193
C26	C	-1.106039	-1.258202	0.491928
C27	C	-1.101044	-1.151636	0.385614
C28	C	-1.018496	-1.151606	0.385595
C29	C	-0.979717	-1.204873	0.438743
C30	C	-1.023484	-1.258171	0.491912
C31	C	-0.974722	-1.098302	0.332433
C32	C	-0.892169	-1.098269	0.332411
C33	C	-0.853389	-1.151541	0.385557
C34	C	-0.897162	-1.204842	0.438727
C35	C	-0.858382	-1.258109	0.491875
C36	C	-0.902154	-1.311415	0.545042
C37	C	-0.984704	-1.311443	0.545057
C38	C	-0.770839	-1.151513	0.385542
C39	C	-0.775827	-1.258078	0.491859
C40	C	-0.232674	-1.204895	0.438758
C41	C	-0.144819	-1.204935	0.438779
C42	C	-0.438774	-1.204838	0.644877
C43	C	-0.438747	-1.204852	0.732734
C44	C	-0.449332	-0.422258	0.449164
C45	C	-0.453794	-0.514924	0.453593
C46	C	-0.438846	-1.204816	0.233341
C47	C	-0.438659	-1.204963	0.145492
C48	C	-0.486643	-1.151611	1.101638
C49	C	-0.390693	-1.258293	1.106792
C50	C	-0.390708	-1.258270	1.024245
C51	C	-0.438693	-1.204919	0.980390
C52	C	-0.486662	-1.151589	1.019083
C53	C	-0.342746	-1.311605	0.985546
C54	C	-0.342761	-1.311585	0.902994
C55	C	-0.390742	-1.258229	0.859138
C56	C	-0.438712	-1.204897	0.897836
C57	C	-0.486697	-1.151545	0.853982
C58	C	-0.534663	-1.098208	0.892678
C59	C	-0.534643	-1.098233	0.975227
C60	C	-0.390762	-1.258204	0.776588
C61	C	-0.486716	-1.151523	0.771427
H62	H	-0.372917	-0.690315	0.372970
C63	C	-1.154188	-1.316836	0.550409
N64	N	-1.190455	-1.360998	0.594458
H65	H	-0.744258	-1.301458	0.535137
C66	C	-1.143707	-1.093110	0.327096
N67	N	-1.175846	-1.049052	0.282994
H68	H	-0.351711	-1.301632	0.745086
H69	H	-1.006302	-1.054933	0.289164
H70	H	-0.303703	-1.355015	0.871495
C71	C	-0.519858	-0.732619	0.519457
N72	N	-0.563499	-0.768806	0.562950
C73	C	-1.032858	-1.370070	0.603539
N74	N	-1.069131	-1.414224	0.647590
H75	H	-0.525694	-1.108183	1.133148
C76	C	-0.859486	-1.370007	0.603504
N77	N	-0.827345	-1.414138	0.647536
C78	C	-0.844028	-1.039624	0.273934
N79	N	-0.807767	-0.995451	0.229890
C80	C	-0.722694	-1.092881	0.327061
N81	N	-0.686432	-1.048719	0.283008
H82	H	-0.525784	-1.108069	0.735726
H83	H	-0.573736	-1.054773	0.856961
C84	C	-0.587397	-1.039563	1.017799
N85	N	-0.627131	-0.995373	1.049867
C86	C	-0.337907	-1.316970	1.155033
N87	N	-0.298143	-1.361165	1.191373
H88	H	-0.303685	-1.355046	1.021258
