data_functionalizedCrystal
_audit_creation_method	'MofGen! by Chris Wilmer'
_symmetry_space_group_name_H-M	'P1'
_symmetry_Int_Tables_number	1
_symmetry_cell_setting	triclinic
loop_
_symmetry_equiv_pos_as_xyz
  x,y,z
_cell_length_a	13.032831
_cell_length_b	13.897448
_cell_length_c	13.032268
_cell_angle_alpha	82.851959
_cell_angle_beta	89.113023
_cell_angle_gamma	82.822399
loop_
_atom_site_label
_atom_site_type_symbol
_atom_site_fract_x
_atom_site_fract_y
_atom_site_fract_z
Zn1	Zn	1.498483	-0.651422	0.780818
Zn2	Zn	1.520226	-0.795137	0.608835
Zn3	Zn	1.348341	-0.611127	0.587060
Zn4	Zn	1.326474	-0.789922	0.758960
O5	O	1.423381	-0.711902	0.683918
O6	O	1.645288	-0.689533	0.776265
O7	O	1.515676	-0.756047	0.462030
O8	O	1.368309	-0.481501	0.612798
O9	O	1.661262	-0.795119	0.649909
O10	O	1.478618	-0.511106	0.755151
O11	O	1.389393	-0.620856	0.446032
O12	O	1.201520	-0.615798	0.591603
O13	O	1.331040	-0.786231	0.905776
O14	O	1.185454	-0.747158	0.717897
O15	O	1.457414	-0.684476	0.921835
O16	O	1.494472	-0.929417	0.628714
O17	O	1.352124	-0.925585	0.739010
C18	C	1.156170	-0.676541	0.650016
C19	C	1.041852	-0.661439	0.635536
C20	C	0.982977	-0.719784	0.691475
C21	C	0.864824	-0.704177	0.676511
C22	C	1.423310	-0.962504	0.683879
C23	C	1.423369	-1.069728	0.683909
C24	C	1.423469	-1.266044	0.683987
C25	C	1.423410	-1.156800	0.683946
C26	C	1.691635	-0.747403	0.717954
C27	C	1.805950	-0.762531	0.732458
C28	C	1.389363	-0.739266	0.952165
C29	C	1.374866	-0.750927	1.066476
C30	C	1.423478	-0.460328	0.683984
C31	C	1.423519	-0.353122	0.684012
C32	C	1.457326	-0.684583	0.416723
C33	C	1.472021	-0.672677	0.302438
C34	C	1.430931	-0.705779	1.125385
C35	C	1.415949	-0.717831	1.243531
H36	H	1.490017	-0.658201	1.088351
C37	C	1.336115	-0.782106	1.293543
C38	C	1.221047	-0.757278	1.264042
C39	C	1.141214	-0.821552	1.314055
C40	C	1.176450	-0.910655	1.393570
C41	C	1.291523	-0.935488	1.423076
C42	C	1.371356	-0.871213	1.373062
H43	H	1.194958	-0.691315	1.205176
H44	H	1.056029	-0.803169	1.292213
H45	H	1.117353	-0.958235	1.430593
H46	H	1.317612	-1.001451	1.481941
H47	H	1.456541	-0.889597	1.394905
C48	C	0.856003	-0.845632	0.812129
C49	C	0.935531	-0.926425	0.776712
C50	C	0.985584	-1.009526	0.856381
C51	C	0.956108	-1.011834	0.971468
C52	C	0.876576	-0.931038	1.006891
C53	C	0.826524	-0.847937	0.927222
H54	H	0.957354	-0.924719	0.691513
H55	H	1.044459	-1.069336	0.830158
H56	H	0.993160	-1.073350	1.030444
H57	H	0.854753	-0.932744	1.092090
H58	H	0.767648	-0.788127	0.953445
C59	C	0.814766	-0.621078	0.596840
C60	C	0.828367	-0.514238	0.607283
C61	C	0.778308	-0.431141	0.527613
C62	C	0.714648	-0.454883	0.437501
C63	C	0.701044	-0.561728	0.427054
C64	C	0.751103	-0.644825	0.506724
H65	H	0.875494	-0.496658	0.673993
H66	H	0.788379	-0.352047	0.535347
H67	H	0.677591	-0.393370	0.378525
H68	H	0.653916	-0.579308	0.360344
H69	H	0.741032	-0.723919	0.498990
C70	C	1.551856	-0.608401	1.252426
C71	C	1.666924	-0.633230	1.281928
C72	C	1.746757	-0.568956	1.231914
C73	C	1.711522	-0.479853	1.152399
C74	C	1.596448	-0.455020	1.122894
C75	C	1.516615	-0.519294	1.172907
H76	H	1.693012	-0.699193	1.340793
H77	H	1.831942	-0.587339	1.253757
H78	H	1.770619	-0.432273	1.115376
H79	H	1.570360	-0.389057	1.064028
H80	H	1.431430	-0.500910	1.151064
C81	C	1.033037	-0.802880	0.771143
C82	C	1.003563	-0.805187	0.886230
C83	C	1.053619	-0.888286	0.965899
C84	C	1.133149	-0.969078	0.930482
C85	C	1.162626	-0.966773	0.815389
C86	C	1.112571	-0.883675	0.735719
H87	H	0.944687	-0.745378	0.912453
H88	H	1.031797	-0.889991	1.051099
H89	H	1.170203	-1.030592	0.989458
H90	H	1.221503	-1.026583	0.789166
H91	H	1.134392	-0.881969	0.650520
C92	C	0.991790	-0.578344	0.555869
C93	C	1.005391	-0.471504	0.566312
C94	C	0.955332	-0.388407	0.486643
C95	C	0.891672	-0.412149	0.396530
C96	C	0.878068	-0.518994	0.386083
C97	C	0.928127	-0.602091	0.465753
H98	H	1.052519	-0.453924	0.633022
H99	H	0.965403	-0.309313	0.494376
H100	H	0.854616	-0.350636	0.337554
H101	H	0.830941	-0.536574	0.319373
H102	H	0.918056	-0.681185	0.458019
C103	C	1.295036	-0.815200	1.116492
C104	C	1.330271	-0.904302	1.196007
C105	C	1.250439	-0.968577	1.246021
C106	C	1.135371	-0.943748	1.216520
C107	C	1.100130	-0.854641	1.137001
C108	C	1.179962	-0.790367	1.086987
H109	H	1.415457	-0.922686	1.217850
H110	H	1.276527	-1.034540	1.304886
H111	H	1.076274	-0.991328	1.253543
H112	H	1.014945	-0.836258	1.115158
H113	H	1.153874	-0.724404	1.028122
