data_functionalizedCrystal
_audit_creation_method	'MofGen! by Chris Wilmer'
_symmetry_space_group_name_H-M	'P1'
_symmetry_Int_Tables_number	1
_symmetry_cell_setting	triclinic
loop_
_symmetry_equiv_pos_as_xyz
  x,y,z
_cell_length_a	16.974897
_cell_length_b	17.019294
_cell_length_c	15.455313
_cell_angle_alpha	88.788101
_cell_angle_beta	83.675220
_cell_angle_gamma	83.149135
loop_
_atom_site_label
_atom_site_type_symbol
_atom_site_fract_x
_atom_site_fract_y
_atom_site_fract_z
O1	O	1.056388	0.093263	-0.153173
O2	O	0.825440	0.106784	-0.137989
O3	O	0.946945	-0.014427	-0.137451
O4	O	0.934883	0.214474	-0.153711
O5	O	0.939997	-0.007524	0.006782
O6	O	0.818492	0.113687	0.006244
O7	O	1.049440	0.100166	-0.008939
Cu8	Cu	0.933331	0.107557	0.011822
Cu9	Cu	0.941548	0.099393	-0.158751
O10	O	0.927935	0.221377	-0.009477
C11	C	0.792407	0.109847	-0.063771
C12	C	0.704332	0.108681	-0.057508
C13	C	0.666734	0.104373	-0.133182
C14	C	0.583976	0.103291	-0.127285
C15	C	0.538818	0.106511	-0.045715
C16	C	0.576421	0.110822	0.029964
C17	C	0.659177	0.111910	0.024067
C18	C	0.290907	0.103667	-0.019646
C19	C	0.208146	0.102576	-0.013754
C20	C	0.215707	0.095046	-0.171005
C21	C	0.298464	0.096130	-0.176895
C22	C	0.336060	0.100445	-0.101216
N23	N	0.454226	0.105403	-0.039686
N24	N	0.420650	0.101559	-0.107246
C25	C	0.942877	-0.040257	-0.063106
C26	C	0.941096	-0.127508	-0.056467
C27	C	0.944049	-0.172257	-0.131969
C28	C	0.942371	-0.254238	-0.125727
C29	C	0.937746	-0.291469	-0.043983
C30	C	0.934790	-0.246714	0.031524
C31	C	0.936463	-0.164734	0.025282
C32	C	0.932501	-0.538807	-0.021203
C33	C	0.930831	-0.620793	-0.014967
C34	C	0.938410	-0.628312	-0.172219
C35	C	0.940087	-0.546331	-0.178454
C36	C	0.937128	-0.501582	-0.102946
C37	C	0.936033	-0.375267	-0.037602
C38	C	0.938835	-0.417785	-0.109328
C39	C	1.082473	0.097103	-0.083159
C40	C	1.170548	0.098268	-0.089428
C41	C	0.932003	0.247207	-0.083824
C42	C	0.933784	0.334458	-0.090469
N43	N	0.927558	0.113298	0.131794
N44	N	0.947328	0.093646	-0.278722
C45	C	0.979195	0.061822	0.177414
C46	C	0.974836	0.066171	0.268202
C47	C	0.918843	0.122000	0.313368
C48	C	0.867199	0.173478	0.267742
C49	C	0.871555	0.169125	0.176956
C50	C	0.900041	0.140770	0.584866
C51	C	0.895691	0.145121	0.675658
C52	C	1.003327	0.037813	0.676112
C53	C	1.007681	0.033467	0.585323
C54	C	0.956035	0.084943	0.539705
N55	N	0.914387	0.126449	0.406169
N56	N	0.960487	0.080490	0.446907
H57	H	0.947820	-0.141951	-0.198534
Br58	Br	0.801467	0.238983	0.115044
H59	H	0.930107	-0.502384	0.040280
H60	H	1.016883	0.024255	0.305346
H61	H	0.553367	0.099783	-0.188907
Br62	Br	0.829954	0.210629	0.522960
Br63	Br	0.791200	0.249243	0.329037
H64	H	0.931019	-0.277033	0.098082
Br65	Br	0.932451	-0.104001	0.127754
H66	H	0.185087	0.091535	-0.232618
Br67	Br	0.728013	0.099994	-0.243890
H68	H	0.171377	0.105221	0.052672
H69	H	0.321508	0.107175	0.041977
H70	H	0.942595	-0.387467	-0.175884
Br71	Br	0.515135	0.115203	0.140668
H72	H	0.940818	-0.664755	-0.233693
H73	H	0.689787	0.115422	0.085688
Br74	Br	0.924562	-0.671322	0.095978
H75	H	0.335228	0.093502	-0.243318
Br76	Br	0.929748	-0.425800	0.073334
Br77	Br	1.055197	-0.013944	0.116125
H78	H	1.045374	-0.004097	0.713262
H79	H	1.053276	-0.011993	0.548551
Br80	Br	0.946377	-0.314966	-0.228199
Br81	Br	0.946370	-0.495809	-0.289397
Br82	Br	0.819696	0.220900	0.736949
