data_functionalizedCrystal
_audit_creation_method	'MofGen! by Chris Wilmer'
_symmetry_space_group_name_H-M	'P1'
_symmetry_Int_Tables_number	1
_symmetry_cell_setting	triclinic
loop_
_symmetry_equiv_pos_as_xyz
  x,y,z
_cell_length_a	16.625548
_cell_length_b	17.077402
_cell_length_c	17.077396
_cell_angle_alpha	90.029784
_cell_angle_beta	89.980422
_cell_angle_gamma	89.976049
loop_
_atom_site_label
_atom_site_type_symbol
_atom_site_fract_x
_atom_site_fract_y
_atom_site_fract_z
Zn1	Zn	1.232670	0.312486	-0.443837
Zn2	Zn	1.566004	0.645819	-0.110504
Zn3	Zn	1.899337	0.979152	0.222829
Zn4	Zn	1.232575	0.443761	-0.312568
Zn5	Zn	1.565908	0.777094	0.020765
Zn6	Zn	1.899241	1.110427	0.354098
Zn7	Zn	1.097834	0.312515	-0.312585
Zn8	Zn	1.431168	0.645849	0.020748
Zn9	Zn	1.764501	0.979182	0.354082
Zn10	Zn	1.097802	0.443716	-0.443792
Zn11	Zn	1.431135	0.777049	-0.110458
Zn12	Zn	1.764468	1.110383	0.222875
O13	O	1.165220	0.378119	-0.378196
O14	O	1.498554	0.711453	-0.044862
O15	O	1.831887	1.044786	0.288471
O16	O	1.345490	0.329906	-0.426436
O17	O	1.678823	0.663239	-0.093103
O18	O	2.012157	0.996573	0.240230
O19	O	1.214675	0.426382	-0.202723
O20	O	1.548008	0.759715	0.130610
O21	O	1.881342	1.093048	0.463943
O22	O	1.115774	0.202664	-0.330022
O23	O	1.449108	0.535998	0.003311
O24	O	1.782441	0.869331	0.336645
O25	O	1.345420	0.426353	-0.329993
O26	O	1.678753	0.759686	0.003340
O27	O	2.012087	1.093020	0.336673
O28	O	1.214838	0.202643	-0.426452
O29	O	1.548171	0.535976	-0.093119
O30	O	1.881504	0.869309	0.240214
O31	O	1.115682	0.329956	-0.202736
O32	O	1.449015	0.663290	0.130598
O33	O	1.782348	0.996623	0.463931
O34	O	0.984998	0.329913	-0.329978
O35	O	1.318331	0.663246	0.003356
O36	O	1.651664	0.996580	0.336689
O37	O	1.115718	0.426277	-0.553645
O38	O	1.449052	0.759610	-0.220311
O39	O	1.782385	1.092944	0.113022
O40	O	0.984973	0.426306	-0.426375
O41	O	1.318307	0.759639	-0.093041
O42	O	1.651640	1.092972	0.240292
O43	O	1.214806	0.329863	-0.553678
O44	O	1.548139	0.663196	-0.220345
O45	O	1.881472	0.996529	0.112988
O46	O	1.214643	0.553602	-0.329949
O47	O	1.547976	0.886935	0.003384
O48	O	1.881310	1.220268	0.336717
O49	O	1.115626	0.553569	-0.426358
O50	O	1.448959	0.886902	-0.093025
O51	O	1.782292	1.220236	0.240308
C52	C	1.165142	0.582067	-0.378164
C53	C	1.498476	0.915401	-0.044831
C54	C	1.831809	1.248734	0.288502
C55	C	1.165183	0.669317	-0.378177
C56	C	1.498516	1.002650	-0.044844
C57	C	1.831850	1.335984	0.288490
C58	C	0.955729	0.378108	-0.378174
C59	C	1.289063	0.711442	-0.044840
C60	C	1.622396	1.044775	0.288493
C61	C	0.866108	0.378122	-0.378183
C62	C	1.199442	0.711456	-0.044849
C63	C	1.532775	1.044789	0.288484
C64	C	1.165269	0.378062	-0.582940
C65	C	1.498602	0.711395	-0.249607
C66	C	1.831936	1.044728	0.083727
C67	C	1.165290	0.378037	-0.670190
C68	C	1.498623	0.711370	-0.336856
C69	C	1.831956	1.044704	-0.003523
C70	C	0.537933	0.378127	-0.378216
C71	C	0.871266	0.711461	-0.044883
C72	C	1.204599	1.044794	0.288450
C73	C	0.629241	0.378124	-0.378205
C74	C	0.962574	0.711457	-0.044871
C75	C	1.295908	1.044791	0.288462
C76	C	0.702018	0.378125	-0.378199
C77	C	1.035351	0.711459	-0.044866
C78	C	1.368684	1.044792	0.288468
C79	C	0.793332	0.378121	-0.378188
C80	C	1.126665	0.711454	-0.044855
C81	C	1.459999	1.044788	0.288478
C82	C	1.375529	0.378131	-0.378218
C83	C	1.708862	0.711465	-0.044885
C84	C	2.042196	1.044798	0.288449
C85	C	1.465150	0.378136	-0.378228
C86	C	1.798484	0.711470	-0.044894
C87	C	2.131817	1.044803	0.288439
C88	C	1.165320	0.173375	-0.378244
C89	C	1.498654	0.506708	-0.044911
C90	C	1.831987	0.840042	0.288423
C91	C	1.165363	0.086125	-0.378265
C92	C	1.498696	0.419459	-0.044932
C93	C	1.832030	0.752792	0.288402
C94	C	1.216794	0.710298	-0.328031
C95	C	1.550127	1.043632	0.005303
C96	C	1.883461	1.376965	0.338636
C97	C	1.216833	0.792279	-0.328051
C98	C	1.550167	1.125612	0.005283
C99	C	1.883500	1.458945	0.338616
C100	C	1.165257	0.833276	-0.378214
C101	C	1.498590	1.166610	-0.044880
C102	C	1.831924	1.499943	0.288453
C103	C	1.113644	0.792290	-0.428366
C104	C	1.446977	1.125623	-0.095032
C105	C	1.780310	1.458956	0.238301
C106	C	1.113609	0.710311	-0.428349
C107	C	1.446942	1.043644	-0.095016
C108	C	1.780276	1.376977	0.238318
C109	C	1.113719	0.963160	-0.428395
C110	C	1.447052	1.296493	-0.095062
C111	C	1.780385	1.629826	0.238271
C112	C	1.113752	1.045144	-0.428411
C113	C	1.447085	1.378477	-0.095078
C114	C	1.780419	1.711811	0.238255
C115	C	1.216943	1.045128	-0.328097
C116	C	1.550276	1.378461	0.005236
C117	C	1.883609	1.711794	0.338570
C118	C	1.216908	0.963149	-0.328080
C119	C	1.550241	1.296482	0.005253
C120	C	1.883575	1.629815	0.338586
C121	C	1.165293	0.922167	-0.378232
C122	C	1.498627	1.255501	-0.044898
C123	C	1.831960	1.588834	0.288435
C124	C	1.216887	0.327830	-0.711199
C125	C	1.550220	0.661163	-0.377865
C126	C	1.883553	0.994497	-0.044532
C127	C	1.216896	0.327804	-0.793179
C128	C	1.550230	0.661137	-0.459846
C129	C	1.883563	0.994470	-0.126512
C130	C	1.165313	0.377989	-0.834149
C131	C	1.498646	0.711323	-0.500816
C132	C	1.831979	1.044656	-0.167483
C133	C	1.113710	0.428199	-0.793135
C134	C	1.447044	0.761532	-0.459801
C135	C	1.780377	1.094865	-0.126468
C136	C	1.113697	0.428220	-0.711156
C137	C	1.447030	0.761553	-0.377822
C138	C	1.780364	1.094887	-0.044489
C139	C	1.113743	0.428151	-0.964005
C140	C	1.447076	0.761485	-0.630671
C141	C	1.780409	1.094818	-0.297338
C142	C	1.113757	0.428131	-1.045989
C143	C	1.447090	0.761464	-0.712656
C144	C	1.780423	1.094798	-0.379323
C145	C	1.216942	0.327735	-1.046028
C146	C	1.550275	0.661068	-0.712695
C147	C	1.883609	0.994402	-0.379362
C148	C	1.216929	0.327757	-0.964049
C149	C	1.550262	0.661090	-0.630716
C150	C	1.883595	0.994423	-0.297383
C151	C	1.165327	0.377967	-0.923040
C152	C	1.498660	0.711300	-0.589707
C153	C	1.831994	1.044634	-0.256374
C154	C	1.165218	0.378120	-0.174248
C155	C	1.498551	0.711454	0.159086
C156	C	1.831885	1.044787	0.492419
C157	C	1.165353	0.377924	-0.086998
C158	C	1.498687	0.711257	0.246335
C159	C	1.832020	1.044591	0.579668
H160	H	1.258790	0.676923	-0.287179
H161	H	1.592123	1.010257	0.046155
H162	H	1.925456	1.343590	0.379488
Br163	Br	1.286885	0.847893	-0.259997
Br164	Br	1.620218	1.181227	0.073337
Br165	Br	1.953552	1.514560	0.406670
H166	H	1.258972	1.078498	-0.287265
H167	H	1.592305	1.411832	0.046069
H168	H	1.925639	1.745165	0.379402
H169	H	1.071769	1.078522	-0.469273
H170	H	1.405102	1.411856	-0.135940
H171	H	1.738436	1.745189	0.197393
Br172	Br	1.043673	0.907542	-0.496462
Br173	Br	1.377006	1.240876	-0.163128
Br174	Br	1.710339	1.574209	0.170205
Br175	Br	1.043653	0.847928	-0.496452
Br176	Br	1.376987	1.181262	-0.163119
Br177	Br	1.710320	1.514595	0.170215
H178	H	1.071583	0.676944	-0.469184
H179	H	1.404917	1.010278	-0.135851
H180	H	1.738250	1.343611	0.197482
H181	H	1.258894	0.286965	-0.677847
H182	H	1.592228	0.620299	-0.344513
H183	H	1.925561	0.953632	-0.011180
Br184	Br	1.043709	0.496292	-0.908350
Br185	Br	1.377042	0.829625	-0.575017
Br186	Br	1.710375	1.162959	-0.241683
H187	H	1.258913	0.286922	-0.826565
H188	H	1.592247	0.620255	-0.493232
H189	H	1.925580	0.953589	-0.159898
Br190	Br	1.286903	0.907509	-0.260000
Br191	Br	1.620237	1.240842	0.073334
Br192	Br	1.953570	1.574175	0.406667
H193	H	1.258937	0.286895	-0.930694
H194	H	1.592270	0.620229	-0.597360
H195	H	1.925604	0.953562	-0.264027
Br196	Br	1.286976	0.259595	-1.101682
Br197	Br	1.620309	0.592928	-0.768349
Br198	Br	1.953643	0.926262	-0.435015
Br199	Br	1.043742	0.496233	-1.101592
Br200	Br	1.377075	0.829566	-0.768259
Br201	Br	1.710409	1.162899	-0.434925
H202	H	1.071707	0.469058	-0.826499
H203	H	1.405040	0.802391	-0.493166
H204	H	1.738374	1.135724	-0.159832
Br205	Br	1.043665	0.496356	-0.655500
Br206	Br	1.376999	0.829689	-0.322166
Br207	Br	1.710332	1.163023	0.011167
