data_functionalizedCrystal
_audit_creation_method	'MofGen! by Chris Wilmer'
_symmetry_space_group_name_H-M	'P1'
_symmetry_Int_Tables_number	1
_symmetry_cell_setting	triclinic
loop_
_symmetry_equiv_pos_as_xyz
  x,y,z
_cell_length_a	12.594517
_cell_length_b	19.805405
_cell_length_c	19.805399
_cell_angle_alpha	89.970699
_cell_angle_beta	89.981060
_cell_angle_gamma	90.026210
loop_
_atom_site_label
_atom_site_type_symbol
_atom_site_fract_x
_atom_site_fract_y
_atom_site_fract_z
Zn1	Zn	1.627165	-0.269482	-0.382700
Zn2	Zn	1.627031	-0.382671	-0.269508
Zn3	Zn	1.449177	-0.269501	-0.269526
Zn4	Zn	1.449119	-0.382634	-0.382656
O5	O	1.538123	-0.326072	-0.326098
O6	O	1.776093	-0.284505	-0.367696
O7	O	1.603406	-0.367681	-0.174794
O8	O	1.472867	-0.174782	-0.284564
O9	O	1.775995	-0.367664	-0.284535
O10	O	1.603635	-0.174768	-0.367713
O11	O	1.472737	-0.284536	-0.174807
O12	O	1.300223	-0.284501	-0.284522
O13	O	1.472769	-0.367602	-0.477379
O14	O	1.300181	-0.367619	-0.367639
O15	O	1.603579	-0.284469	-0.477411
O16	O	1.603351	-0.477383	-0.284492
O17	O	1.472640	-0.477356	-0.367622
C18	C	1.538003	-0.501928	-0.326065
C19	C	1.538049	-0.577160	-0.326074
C20	C	1.261582	-0.326059	-0.326078
C21	C	1.143277	-0.326069	-0.326085
C22	C	1.606177	-0.612496	-0.282834
C23	C	1.606222	-0.683184	-0.282848
C24	C	1.538134	-0.718536	-0.326101
C25	C	1.470003	-0.683195	-0.369346
C26	C	1.469964	-0.612508	-0.369333
C27	C	1.470160	-0.968268	-0.369396
C28	C	1.470202	-1.038961	-0.369403
C29	C	1.606418	-1.038945	-0.282911
C30	C	1.606379	-0.968257	-0.282899
C31	C	1.538253	-0.932923	-0.326146
C32	C	1.538206	-0.856275	-0.326130
C33	C	1.538174	-0.795183	-0.326114
C34	C	1.074016	-0.280799	-0.280964
C35	C	1.003188	-0.342537	-0.264309
C36	C	1.003305	-0.264361	-0.342752
C37	C	1.074007	-0.387840	-0.309398
C38	C	1.074131	-0.309622	-0.387869
C39	C	1.003335	-0.371403	-0.371238
C40	C	1.815744	-0.326086	-0.326118
C41	C	1.934049	-0.326092	-0.326127
C42	C	1.538183	-0.326030	-0.502641
C43	C	1.538208	-0.326011	-0.577873
C44	C	1.538272	-0.149529	-0.326145
C45	C	1.538336	-0.074297	-0.326166
C46	C	1.606322	-0.282722	-0.613235
C47	C	1.606333	-0.282703	-0.683923
C48	C	1.538235	-0.325976	-0.719248
C49	C	1.470113	-0.369267	-0.683881
C50	C	1.470098	-0.369283	-0.613194
C51	C	1.470173	-0.369204	-0.968955
C52	C	1.470196	-0.369186	-1.039647
C53	C	1.606409	-0.282624	-1.039684
C54	C	1.606393	-0.282639	-0.968996
C55	C	1.538268	-0.325928	-0.933636
C56	C	1.538256	-0.325948	-0.856987
C57	C	1.538252	-0.325960	-0.795895
C58	C	1.538125	-0.326066	-0.150242
C59	C	1.538306	-0.325893	-0.075010
H60	H	1.661698	-0.711951	-0.247638
H61	H	1.414662	-0.404499	-0.712649
N62	N	1.115137	-0.230138	-0.230365
H63	H	1.089329	-0.242663	-0.183721
H64	H	1.195320	-0.230206	-0.231071
H65	H	1.661801	-0.247454	-0.712712
H66	H	1.661876	-0.247374	-1.068483
N67	N	1.396556	-0.721319	-0.415994
H68	H	1.413034	-0.708978	-0.464363
H69	H	1.406946	-0.771449	-0.409382
H70	H	1.661850	-0.247404	-0.940238
H71	H	0.972029	-0.356463	-0.212078
H72	H	1.104935	-0.440051	-0.295261
N73	N	1.396664	-0.415883	-0.930839
H74	H	1.413137	-0.464245	-0.943127
H75	H	1.406985	-0.409277	-0.880707
N76	N	1.396744	-0.415862	-1.077750
H77	H	1.353582	-0.443286	-1.044624
H78	H	1.347525	-0.388297	-1.107083
N79	N	1.396640	-0.415974	-0.575046
H80	H	1.347335	-0.388468	-0.545721
H81	H	1.353572	-0.443380	-0.608188
H82	H	1.414688	-0.939505	-0.404608
N83	N	1.396486	-0.574388	-0.415968
H84	H	1.412978	-0.586649	-0.464340
H85	H	1.320481	-0.586748	-0.405356
N86	N	0.962469	-0.422176	-0.421807
H87	H	1.024403	-0.445403	-0.444372
H88	H	0.917248	-0.456829	-0.397830
N89	N	1.679612	-0.574369	-0.236180
H90	H	1.722779	-0.607483	-0.208792
H91	H	1.728826	-0.544997	-0.263757
H92	H	1.105316	-0.295677	-0.440085
N93	N	0.962157	-0.195226	-0.361406
H94	H	0.987867	-0.161062	-0.327273
H95	H	0.989078	-0.182501	-0.407738
N96	N	1.679819	-0.930128	-0.236250
H97	H	1.722990	-0.963240	-0.208861
H98	H	1.729029	-0.900758	-0.263832
N99	N	1.679779	-0.236053	-0.575136
H100	H	1.722929	-0.208626	-0.608267
H101	H	1.636475	-0.204734	-0.545810
H102	H	1.661894	-1.067722	-0.247699
N103	N	1.396758	-1.077092	-0.416054
H104	H	1.353595	-1.043983	-0.443450
H105	H	1.440074	-1.106381	-0.447403
