data_functionalizedCrystal
_audit_creation_method	'MofGen! by Chris Wilmer'
_symmetry_space_group_name_H-M	'P1'
_symmetry_Int_Tables_number	1
_symmetry_cell_setting	triclinic
loop_
_symmetry_equiv_pos_as_xyz
  x,y,z
_cell_length_a	11.792241
_cell_length_b	10.540539
_cell_length_c	10.868271
_cell_angle_alpha	89.997005
_cell_angle_beta	89.999893
_cell_angle_gamma	84.359454
loop_
_atom_site_label
_atom_site_type_symbol
_atom_site_fract_x
_atom_site_fract_y
_atom_site_fract_z
O1	O	1.507361	0.173992	-0.102197
O2	O	1.177067	0.191924	-0.102225
O3	O	1.349750	-0.001773	-0.102208
O4	O	1.334679	0.367689	-0.102213
O5	O	1.349735	-0.001781	0.102436
O6	O	1.177053	0.191916	0.102420
O7	O	1.507347	0.173984	0.102448
Zn8	Zn	1.342198	0.182949	0.134926
Zn9	Zn	1.342216	0.182959	-0.134702
O10	O	1.334664	0.367681	0.102432
C11	C	1.134766	0.190793	0.000094
C12	C	1.008743	0.187422	0.000083
C13	C	0.778015	0.181223	0.000119
C14	C	0.906409	0.184667	0.000099
C15	C	1.348612	-0.049076	0.000112
C16	C	1.345231	-0.190014	0.000105
C17	C	1.215660	-0.373018	-0.000366
C18	C	1.219087	-0.226411	0.000095
C19	C	1.405929	-0.251873	0.116972
C20	C	1.401623	-0.398404	0.117070
C21	C	1.404205	-0.398922	-0.115649
C22	C	1.405367	-0.251943	-0.117194
C23	C	1.549648	0.175114	0.000127
C24	C	1.675671	0.178486	0.000130
C25	C	1.335802	0.414984	0.000109
C26	C	1.339183	0.555921	0.000108
N27	N	1.342193	0.182941	0.318940
N28	N	1.342230	0.182957	-0.318716
C29	C	1.342211	0.182956	0.569946
C30	C	1.342197	0.182952	0.430268
H31	H	1.165836	-0.401453	-0.084174
H32	H	1.498564	-0.229821	0.121325
N33	N	1.527195	-0.220272	-0.126532
H34	H	1.563596	-0.261314	-0.202693
H35	H	1.528561	-0.124765	-0.131694
N36	N	1.350145	-0.440535	-0.232985
H37	H	1.282950	-0.489090	-0.212288
H38	H	1.323439	-0.363014	-0.283698
H39	H	1.170980	-0.184502	0.084002
N40	N	1.524898	-0.461854	-0.116690
H41	H	1.523723	-0.557479	-0.119884
H42	H	1.566178	-0.432376	-0.191259
H43	H	1.166027	-0.403067	0.082965
H44	H	1.171327	-0.183649	-0.083680
N45	N	1.521780	-0.462361	0.124122
H46	H	1.566718	-0.436587	0.050675
H47	H	1.559115	-0.435364	0.202227
H48	H	1.363753	-0.209140	0.203933
H49	H	1.356753	-0.426460	0.204423
H50	H	1.360955	-0.210937	-0.203649
