data_functionalizedCrystal
_audit_creation_method	'MofGen! by Chris Wilmer'
_symmetry_space_group_name_H-M	'P1'
_symmetry_Int_Tables_number	1
_symmetry_cell_setting	triclinic
loop_
_symmetry_equiv_pos_as_xyz
  x,y,z
_cell_length_a	21.395364
_cell_length_b	19.077114
_cell_length_c	21.395355
_cell_angle_alpha	92.281097
_cell_angle_beta	90.024727
_cell_angle_gamma	87.673269
loop_
_atom_site_label
_atom_site_type_symbol
_atom_site_fract_x
_atom_site_fract_y
_atom_site_fract_z
Zn1	Zn	0.947843	0.280316	0.364289
Zn2	Zn	1.197843	0.530316	0.614289
Zn3	Zn	1.447843	0.780316	0.864289
Zn4	Zn	1.697843	1.030316	1.114289
Zn5	Zn	0.943540	0.397997	0.263720
Zn6	Zn	1.193540	0.647997	0.513720
Zn7	Zn	1.443540	0.897997	0.763720
Zn8	Zn	1.693540	1.147997	1.013720
Zn9	Zn	0.843058	0.280313	0.259525
Zn10	Zn	1.093058	0.530313	0.509525
Zn11	Zn	1.343058	0.780313	0.759525
Zn12	Zn	1.593058	1.030313	1.009525
Zn13	Zn	0.838823	0.397975	0.368459
Zn14	Zn	1.088823	0.647975	0.618459
Zn15	Zn	1.338823	0.897975	0.868459
Zn16	Zn	1.588823	1.147975	1.118459
O17	O	0.893316	0.339150	0.313998
O18	O	1.143316	0.589150	0.563998
O19	O	1.393316	0.839150	0.813998
O20	O	1.643316	1.089150	1.063998
O21	O	1.034949	0.295937	0.350959
O22	O	1.284949	0.545937	0.600959
O23	O	1.534949	0.795937	0.850959
O24	O	1.784949	1.045937	1.100959
O25	O	0.930183	0.382393	0.175486
O26	O	1.180183	0.632393	0.425486
O27	O	1.430183	0.882393	0.675486
O28	O	1.680183	1.132393	0.925486
O29	O	0.860531	0.181821	0.269922
O30	O	1.110531	0.431821	0.519922
O31	O	1.360531	0.681821	0.769922
O32	O	1.610531	0.931821	1.019922
O33	O	1.031788	0.382396	0.277071
O34	O	1.281788	0.632396	0.527071
O35	O	1.531788	0.882396	0.777071
O36	O	1.781788	1.132396	1.027071
O37	O	0.937516	0.181824	0.346891
O38	O	1.187516	0.431824	0.596891
O39	O	1.437516	0.681824	0.846891
O40	O	1.687516	0.931824	1.096891
O41	O	0.856359	0.295931	0.172404
O42	O	1.106359	0.545931	0.422404
O43	O	1.356359	0.795931	0.672404
O44	O	1.606359	1.045931	0.922404
O45	O	0.754818	0.295911	0.273965
O46	O	1.004818	0.545911	0.523965
O47	O	1.254818	0.795911	0.773965
O48	O	1.504818	1.045911	1.023965
O49	O	0.853313	0.382360	0.455583
O50	O	1.103313	0.632360	0.705583
O51	O	1.353313	0.882360	0.955583
O52	O	1.603313	1.132360	1.205583
O53	O	0.751707	0.382356	0.353998
O54	O	1.001707	0.632356	0.603998
O55	O	1.251707	0.882356	0.853998
O56	O	1.501707	1.132356	1.103998
O57	O	0.933409	0.295916	0.452520
O58	O	1.183409	0.545916	0.702520
O59	O	1.433409	0.795916	0.952520
O60	O	1.683409	1.045916	1.202520
O61	O	0.926076	0.496485	0.281114
O62	O	1.176076	0.746485	0.531114
O63	O	1.426076	0.996485	0.781114
O64	O	1.676076	1.246485	1.031114
O65	O	0.849141	0.496470	0.358066
O66	O	1.099141	0.746470	0.608066
O67	O	1.349141	0.996470	0.858066
O68	O	1.599141	1.246470	1.108066
C69	C	0.730529	0.339131	0.313979
C70	C	0.980529	0.589131	0.563979
C71	C	1.230529	0.839131	0.813979
C72	C	1.480529	1.089131	1.063979
C73	C	0.660887	0.339140	0.313987
C74	C	0.910887	0.589140	0.563987
C75	C	1.160887	0.839140	0.813987
C76	C	1.410887	1.089140	1.063987
C77	C	0.157484	0.384245	0.355636
C78	C	0.407484	0.634245	0.605636
C79	C	0.657484	0.884245	0.855636
C80	C	0.907484	1.134245	1.105636
C81	C	0.222919	0.384245	0.355629
C82	C	0.472919	0.634245	0.605629
C83	C	0.722919	0.884245	0.855629
C84	C	0.972919	1.134245	1.105629
C85	C	0.257248	0.339165	0.314019
C86	C	0.507248	0.589165	0.564019
C87	C	0.757248	0.839165	0.814019
C88	C	1.007248	1.089165	1.064019
C89	C	0.226136	0.294095	0.272401
C90	C	0.476136	0.544095	0.522401
C91	C	0.726136	0.794095	0.772401
C92	C	0.976136	1.044095	1.022401
C93	C	0.160701	0.294101	0.272404
C94	C	0.410701	0.544101	0.522404
C95	C	0.660701	0.794101	0.772404
C96	C	0.910701	1.044101	1.022404
C97	C	0.363203	0.275736	0.306899
C98	C	0.613203	0.525736	0.556899
C99	C	0.863203	0.775736	0.806899
C100	C	1.113203	1.025736	1.056899
C101	C	0.428637	0.275729	0.306900
C102	C	0.678637	0.525729	0.556900
C103	C	0.928637	0.775729	0.806900
C104	C	1.178637	1.025729	1.056900
C105	C	0.459069	0.339147	0.314004
C106	C	0.709069	0.589147	0.564004
C107	C	0.959069	0.839147	0.814004
C108	C	1.209069	1.089147	1.064004
C109	C	0.424061	0.402574	0.321121
C110	C	0.674061	0.652574	0.571121
C111	C	0.924061	0.902574	0.821121
C112	C	1.174061	1.152574	1.071121
C113	C	0.358627	0.402581	0.321124
C114	C	0.608627	0.652581	0.571124
C115	C	0.858627	0.902581	0.821124
C116	C	1.108627	1.152581	1.071124
C117	C	0.328201	0.339154	0.314010
C118	C	0.578201	0.589154	0.564010
C119	C	0.828201	0.839154	0.814010
C120	C	1.078201	1.089154	1.064010
C121	C	0.561127	0.384218	0.355609
C122	C	0.811127	0.634218	0.605609
C123	C	1.061127	0.884218	0.855609
C124	C	1.311127	1.134218	1.105609
C125	C	0.626563	0.384219	0.355599
C126	C	0.876563	0.634219	0.605599
C127	C	1.126563	0.884219	0.855599
C128	C	1.376563	1.134219	1.105599
C129	C	0.629778	0.294063	0.272373
C130	C	0.879778	0.544063	0.522373
C131	C	1.129778	0.794063	0.772373
C132	C	1.379778	1.044063	1.022373
C133	C	0.564343	0.294068	0.272381
C134	C	0.814343	0.544068	0.522381
C135	C	1.064343	0.794068	0.772381
C136	C	1.314343	1.044068	1.022381
C137	C	0.530021	0.339145	0.314002
C138	C	0.780021	0.589145	0.564002
C139	C	1.030021	0.839145	0.814002
C140	C	1.280021	1.089145	1.064002
C141	C	0.886699	0.522015	0.320511
C142	C	1.136699	0.772015	0.570511
C143	C	1.386699	1.022015	0.820511
C144	C	1.636699	1.272015	1.070511
C145	C	0.883925	0.600246	0.323319
C146	C	1.133925	0.850246	0.573319
C147	C	1.383925	1.100246	0.823319
C148	C	1.633925	1.350246	1.073319
C149	C	0.922710	0.636984	0.284606
C150	C	1.172710	0.886984	0.534606
C151	C	1.422710	1.136984	0.784606
C152	C	1.672710	1.386984	1.034606
C153	C	0.920105	0.710489	0.287251
C154	C	1.170105	0.960489	0.537251
C155	C	1.420105	1.210489	0.787251
C156	C	1.670105	1.460489	1.037251
C157	C	0.878712	0.747256	0.328604
C158	C	1.128712	0.997256	0.578604
C159	C	1.378712	1.247256	0.828604
C160	C	1.628712	1.497256	1.078604
C161	C	0.839926	0.710513	0.367321
C162	C	1.089926	0.960513	0.617321
C163	C	1.339926	1.210513	0.867321
C164	C	1.589926	1.460513	1.117321
C165	C	0.842535	0.637009	0.364679
C166	C	1.092535	0.887009	0.614679
C167	C	1.342535	1.137009	0.864679
C168	C	1.592535	1.387009	1.114679
C169	C	0.866615	0.967093	0.340800
C170	C	1.116615	1.217093	0.590800
C171	C	1.366615	1.467093	0.840800
C172	C	1.616615	1.717093	1.090800
C173	C	0.864008	1.040603	0.343437
C174	C	1.114008	1.290603	0.593437
C175	C	1.364008	1.540603	0.843437
C176	C	1.614008	1.790603	1.093437
C177	C	0.944188	1.040574	0.263367
C178	C	1.194188	1.290574	0.513367
C179	C	1.444188	1.540574	0.763367
C180	C	1.694188	1.790574	1.013367
C181	C	0.946790	0.967068	0.260727
C182	C	1.196790	1.217068	0.510727
C183	C	1.446790	1.467068	0.760727
C184	C	1.696790	1.717068	1.010727
C185	C	0.908007	0.930331	0.299446
C186	C	1.158007	1.180331	0.549446
C187	C	1.408007	1.430331	0.799446
C188	C	1.658007	1.680331	1.049446
N189	N	0.876047	0.822391	0.331307
N190	N	1.126047	1.072391	0.581307
N191	N	1.376047	1.322391	0.831307
N192	N	1.626047	1.572391	1.081307
N193	N	0.910675	0.855198	0.296746
N194	N	1.160675	1.105198	0.546746
N195	N	1.410675	1.355198	0.796746
N196	N	1.660675	1.605198	1.046746
C197	C	1.056738	0.339169	0.314017
C198	C	1.306738	0.589169	0.564017
C199	C	1.556738	0.839169	0.814017
C200	C	1.806738	1.089169	1.064017
C201	C	1.126379	0.339178	0.314026
C202	C	1.376379	0.589178	0.564026
C203	C	1.626379	0.839178	0.814026
C204	C	1.876379	1.089178	1.064026
C205	C	0.899970	1.155571	0.307481
C206	C	1.149970	1.405571	0.557481
C207	C	1.399970	1.655571	0.807481
C208	C	1.649970	1.905571	1.057481
C209	C	0.902793	1.077340	0.304725
C210	C	1.152793	1.327340	0.554725
C211	C	1.402793	1.577340	0.804725
C212	C	1.652793	1.827340	1.054725
C213	C	0.893368	0.339136	0.477421
C214	C	1.143368	0.589136	0.727421
C215	C	1.393368	0.839136	0.977421
C216	C	1.643368	1.089136	1.227421
C217	C	0.893391	0.339130	0.547062
C218	C	1.143391	0.589130	0.797062
C219	C	1.393391	0.839130	1.047062
C220	C	1.643391	1.089130	1.297062
C221	C	0.893301	0.339114	0.151209
C222	C	1.143301	0.589114	0.401209
C223	C	1.393301	0.839114	0.651209
C224	C	1.643301	1.089114	0.901209
C225	C	0.893407	0.338921	0.081562
C226	C	1.143407	0.588921	0.331562
C227	C	1.393407	0.838921	0.581562
C228	C	1.643407	1.088921	0.831562
C229	C	0.935095	0.294117	0.578181
C230	C	1.185095	0.544117	0.828181
C231	C	1.435095	0.794117	1.078181
C232	C	1.685095	1.044117	1.328181
C233	C	0.935096	0.294086	0.643615
C234	C	1.185096	0.544086	0.893615
C235	C	1.435096	0.794086	1.143615
C236	C	1.685096	1.044086	1.393615
C237	C	0.893397	0.339082	0.677929
C238	C	1.143397	0.589082	0.927929
C239	C	1.393397	0.839082	1.177929
C240	C	1.643397	1.089082	1.427929
C241	C	0.851685	0.384098	0.646802
C242	C	1.101685	0.634098	0.896802
C243	C	1.351685	0.884098	1.146802
C244	C	1.601685	1.134098	1.396802
C245	C	0.851681	0.384122	0.581369
C246	C	1.101681	0.634122	0.831369
C247	C	1.351681	0.884122	1.081369
C248	C	1.601681	1.134122	1.331369
C249	C	0.886157	0.402455	0.783861
C250	C	1.136157	0.652455	1.033861
C251	C	1.386157	0.902455	1.283861
C252	C	1.636157	1.152455	1.533861
C253	C	0.886165	0.402432	0.849293
C254	C	1.136165	0.652432	1.099293
C255	C	1.386165	0.902432	1.349293
C256	C	1.636165	1.152432	1.599293
C257	C	0.893404	0.339007	0.879747
C258	C	1.143404	0.589007	1.129747
C259	C	1.393404	0.839007	1.379747
C260	C	1.643404	1.089007	1.629747
C261	C	0.900649	0.275604	0.844761
C262	C	1.150649	0.525604	1.094761
C263	C	1.400649	0.775604	1.344761
C264	C	1.650649	1.025604	1.594761
C265	C	0.900645	0.275628	0.779328
C266	C	1.150645	0.525628	1.029328
C267	C	1.400645	0.775628	1.279328
C268	C	1.650645	1.025628	1.529328
C269	C	0.893396	0.339061	0.748880
C270	C	1.143396	0.589061	0.998880
C271	C	1.393396	0.839061	1.248880
C272	C	1.643396	1.089061	1.498880
C273	C	0.935111	0.293958	0.981817
C274	C	1.185111	0.543958	1.231817
C275	C	1.435111	0.793958	1.481817
C276	C	1.685111	1.043958	1.731817
C277	C	0.935107	0.293926	1.047253
C278	C	1.185107	0.543926	1.297253
C279	C	1.435107	0.793926	1.547253
C280	C	1.685107	1.043926	1.797253
C281	C	0.851699	0.383944	1.050439
C282	C	1.101699	0.633944	1.300439
C283	C	1.351699	0.883944	1.550439
C284	C	1.601699	1.133944	1.800439
C285	C	0.851700	0.383969	0.985004
C286	C	1.101700	0.633969	1.235004
C287	C	1.351700	0.883969	1.485004
C288	C	1.601700	1.133969	1.735004
C289	C	0.893409	0.338977	0.950697
C290	C	1.143409	0.588977	1.200697
C291	C	1.393409	0.838977	1.450697
C292	C	1.643409	1.088977	1.700697
H293	H	0.539017	0.257367	0.238500
H294	H	0.789017	0.507367	0.488500
H295	H	1.039017	0.757367	0.738500
H296	H	1.289017	1.007367	0.988500
H297	H	0.135376	0.257400	0.238520
H298	H	0.385376	0.507400	0.488520
H299	H	0.635376	0.757400	0.738520
H300	H	0.885376	1.007400	0.988520
H301	H	0.448838	0.454215	0.326911
H302	H	0.698838	0.704215	0.576911
H303	H	0.948838	0.954215	0.826911
H304	H	1.198838	1.204215	1.076911
F305	F	0.807314	0.431882	0.951884
F306	F	1.057314	0.681882	1.201884
F307	F	1.307314	0.931882	1.451884
F308	F	1.557314	1.181882	1.701884
F309	F	0.985464	1.079676	0.222166
F310	F	1.235464	1.329676	0.472166
F311	F	1.485464	1.579676	0.722166
F312	F	1.735464	1.829676	0.972166
H313	H	0.806226	0.740455	0.400995
H314	H	1.056226	0.990455	0.650995
H315	H	1.306226	1.240455	0.900995
H316	H	1.556226	1.490455	1.150995
H317	H	0.880269	0.454060	0.877774
H318	H	1.130269	0.704060	1.127774
H319	H	1.380269	0.954060	1.377774
H320	H	1.630269	1.204060	1.627774
H321	H	0.533180	0.420923	0.389499
H322	H	0.783180	0.670923	0.639499
H323	H	1.033180	0.920923	0.889499
H324	H	1.283180	1.170923	1.139499
F325	F	0.819944	1.079731	0.387447
F326	F	1.069944	1.329731	0.637447
F327	F	1.319944	1.579731	0.887447
F328	F	1.569944	1.829731	1.137447
F329	F	0.659667	0.432193	0.399885
F330	F	0.909667	0.682193	0.649885
F331	F	1.159667	0.932193	0.899885
F332	F	1.409667	1.182193	1.149885
H333	H	0.835035	0.937188	0.372325
H334	H	1.085035	1.187188	0.622325
H335	H	1.335035	1.437188	0.872325
H336	H	1.585035	1.687188	1.122325
F337	F	0.990853	0.927943	0.216719
F338	F	1.240853	1.177943	0.466719
F339	F	1.490853	1.427943	0.716719
F340	F	1.740853	1.677943	0.966719
H341	H	0.338431	0.224091	0.301103
H342	H	0.588431	0.474091	0.551103
H343	H	0.838431	0.724091	0.801103
H344	H	1.088431	0.974091	1.051103
F345	F	0.878466	0.469966	0.751456
F346	F	1.128466	0.719966	1.001456
F347	F	1.378466	0.969966	1.251456
F348	F	1.628466	1.219966	1.501456
H349	H	0.969070	0.257319	0.953883
H350	H	1.219070	0.507319	1.203883
H351	H	1.469070	0.757319	1.453883
H352	H	1.719070	1.007319	1.703883
F353	F	0.666309	0.246091	0.228083
F354	F	0.916309	0.496091	0.478083
F355	F	1.166309	0.746091	0.728083
F356	F	1.416309	0.996091	0.978083
H357	H	0.810953	0.607098	0.396204
H358	H	1.060953	0.857098	0.646204
H359	H	1.310953	1.107098	0.896204
H360	H	1.560953	1.357098	1.146204
H361	H	0.951687	0.740398	0.255726
H362	H	1.201687	0.990398	0.505726
H363	H	1.451687	1.240398	0.755726
H364	H	1.701687	1.490398	1.005726
F365	F	0.979484	0.246229	0.541673
F366	F	1.229484	0.496229	0.791673
F367	F	1.479484	0.746229	1.041673
F368	F	1.729484	0.996229	1.291673
H369	H	0.969055	0.257428	0.668957
H370	H	1.219055	0.507428	0.918957
H371	H	1.469055	0.757428	1.168957
H372	H	1.719055	1.007428	1.418957
H373	H	0.969067	0.257267	1.072588
H374	H	1.219067	0.507267	1.322588
H375	H	1.469067	0.757267	1.572588
H376	H	1.719067	1.007267	1.822588
H377	H	0.906543	0.224002	0.750844
H378	H	1.156543	0.474002	1.000844
H379	H	1.406543	0.724002	1.250844
H380	H	1.656543	0.974002	1.500844
F381	F	0.465889	0.208224	0.299334
F382	F	0.715889	0.458224	0.549334
F383	F	0.965889	0.708224	0.799334
F384	F	1.215889	0.958224	1.049334
F385	F	0.262671	0.246120	0.228114
F386	F	0.512671	0.496120	0.478114
F387	F	0.762671	0.746120	0.728114
F388	F	1.012671	0.996120	0.978114
F389	F	0.908356	0.208097	0.877167
F390	F	1.158356	0.458097	1.127167
F391	F	1.408356	0.708097	1.377167
F392	F	1.658356	0.958097	1.627167
H393	H	0.817741	0.420573	1.078376
H394	H	1.067741	0.670573	1.328376
H395	H	1.317741	0.920573	1.578376
H396	H	1.567741	1.170573	1.828376
H397	H	0.817732	0.420731	0.674744
H398	H	1.067732	0.670731	0.924744
H399	H	1.317732	0.920731	1.174744
H400	H	1.567732	1.170731	1.424744
F401	F	0.966762	0.597860	0.240588
F402	F	1.216762	0.847860	0.490588
F403	F	1.466762	1.097860	0.740588
F404	F	1.716762	1.347860	0.990588
H405	H	0.129543	0.420952	0.389525
H406	H	0.379543	0.670952	0.639525
H407	H	0.629543	0.920952	0.889525
H408	H	0.879543	1.170952	1.139525
F409	F	0.321371	0.470083	0.328696
F410	F	0.571371	0.720083	0.578696
F411	F	0.821371	0.970083	0.828696
F412	F	1.071371	1.220083	1.078696
F413	F	0.256030	0.432213	0.399918
F414	F	0.506030	0.682213	0.649918
F415	F	0.756030	0.932213	0.899918
F416	F	1.006030	1.182213	1.149918
F417	F	0.807292	0.432033	0.548249
F418	F	1.057292	0.682033	0.798249
F419	F	1.307292	0.932033	1.048249
F420	F	1.557292	1.182033	1.298249
