data_functionalizedCrystal
_audit_creation_method	'MofGen! by Chris Wilmer'
_symmetry_space_group_name_H-M	'P1'
_symmetry_Int_Tables_number	1
_symmetry_cell_setting	triclinic
loop_
_symmetry_equiv_pos_as_xyz
  x,y,z
_cell_length_a	27.354012
_cell_length_b	27.353283
_cell_length_c	27.349551
_cell_angle_alpha	60.005606
_cell_angle_beta	60.011434
_cell_angle_gamma	59.993282
loop_
_atom_site_label
_atom_site_type_symbol
_atom_site_fract_x
_atom_site_fract_y
_atom_site_fract_z
O1	O	0.067635	-0.714267	0.597330
O2	O	0.025429	-0.556105	0.481282
O3	O	0.125575	-0.656186	0.481214
O4	O	-0.032512	-0.614186	0.597397
O5	O	0.158797	-0.622968	0.514367
O6	O	0.058650	-0.522887	0.514434
O7	O	0.100856	-0.681048	0.630482
Zn8	Zn	0.085028	-0.596693	0.577722
Zn9	Zn	0.041257	-0.640460	0.534042
O10	O	0.000709	-0.580967	0.630549
N11	N	0.114901	-0.566828	0.607534
N12	N	0.011389	-0.670331	0.504229
C13	C	0.179404	-0.338196	0.672015
C14	C	0.179501	-0.502386	0.836160
C15	C	0.179415	-0.502363	0.671996
C16	C	0.343611	-0.502373	0.671960
C17	C	0.197478	-0.392371	0.690061
C18	C	0.197534	-0.484321	0.781984
C19	C	0.289434	-0.484312	0.690032
C20	C	0.197486	-0.484308	0.690051
C21	C	0.156398	-0.269238	0.649045
C22	C	0.156418	-0.525342	0.649015
C23	C	0.220484	-0.461329	0.713032
C24	C	0.443889	-0.485097	0.619172
C25	C	0.506571	-0.505993	0.598266
C26	C	0.506589	-0.607412	0.636940
C27	C	0.443909	-0.586515	0.657848
C28	C	0.171510	-0.237888	0.587422
C29	C	0.150593	-0.175201	0.566543
C30	C	0.099458	-0.175218	0.668913
C31	C	0.120375	-0.237905	0.689792
C32	C	0.094789	-0.510201	0.664176
C33	C	0.073888	-0.531091	0.643278
C34	C	0.176239	-0.582263	0.592072
C35	C	0.197142	-0.561373	0.612963
C36	C	0.094933	-0.510244	0.936476
C37	C	0.074073	-0.531151	0.999161
C38	C	0.176453	-0.582335	0.999126
C39	C	0.197312	-0.561429	0.936439
C40	C	0.156551	-0.525382	0.905116
C41	C	0.412561	-0.525357	0.648961
C42	C	-0.098513	-0.688235	0.485867
C43	C	-0.006461	-0.688368	0.394066
C44	C	-0.006645	-0.780264	0.486040
C45	C	-0.006630	-0.688361	0.486097
C46	C	-0.029562	-0.711308	0.463018
N47	N	0.537030	-0.566846	0.607436
O48	O	0.741877	-0.576849	0.459995
O49	O	0.742050	-0.693241	0.618010
O50	O	0.741986	-0.692977	0.517791
O51	O	0.741941	-0.577114	0.560214
O52	O	0.642405	-0.659839	0.551046
O53	O	0.642469	-0.660104	0.651265
O54	O	0.642296	-0.543712	0.493251
Zn55	Zn	0.626572	-0.596646	0.577538
Zn56	Zn	0.757774	-0.640307	0.533723
O57	O	0.642360	-0.543976	0.593469
N58	N	0.847316	-0.670107	0.503818
N59	N	0.114877	-0.144758	0.607577
O60	O	-0.032498	0.060193	0.597441
O61	O	0.125523	0.060193	0.481067
O62	O	0.025289	0.060179	0.481345
O63	O	0.067736	0.060207	0.597163
O64	O	0.058511	-0.039410	0.514543
O65	O	0.158745	-0.039397	0.514265
O66	O	0.000724	-0.039396	0.630638
Zn67	Zn	0.085009	-0.055208	0.577722
Zn68	Zn	0.041238	0.076005	0.533983
O69	O	0.100958	-0.039382	0.630360
N70	N	0.011362	0.165555	0.504130
N71	N	0.115121	-0.566884	1.029592
O72	O	0.104990	-0.714248	1.234528
O73	O	-0.011371	-0.556177	1.234539
O74	O	-0.011103	-0.656395	1.234497
O75	O	0.104722	-0.614030	1.234569
O76	O	0.022090	-0.623190	1.134913
O77	O	0.021822	-0.522972	1.134954
O78	O	0.138182	-0.681044	1.134943
Zn79	Zn	0.085272	-0.596736	1.119137
Zn80	Zn	0.041539	-0.640484	1.250344
O81	O	0.137914	-0.580826	1.134984
N82	N	0.011689	-0.670343	1.339890
C83	C	0.038085	-0.519567	0.481870
C84	C	0.162104	-0.643505	0.481786
C85	C	0.088200	-0.717587	0.629893
C86	C	-0.035819	-0.593649	0.629977
C87	C	0.692280	-0.692701	0.654545
C88	C	0.692203	-0.692374	0.530435
C89	C	0.692063	-0.544251	0.456717
C90	C	0.692144	-0.544580	0.580825
C91	C	0.162000	0.010521	0.481600
C92	C	0.037914	0.010381	0.481984
C93	C	-0.035795	0.010399	0.630065
C94	C	0.088333	0.010415	0.629722
C95	C	-0.010799	-0.519660	1.184747
C96	C	-0.010461	-0.643761	1.184677
C97	C	0.137610	-0.717561	1.184734
C98	C	0.137280	-0.593452	1.184783
H99	H	0.023897	-0.518815	1.024687
C100	C	0.100318	-0.778216	0.678407
C101	C	0.158755	-0.815064	0.656784
C102	C	0.169937	-0.870922	0.701454
H103	H	0.095888	-0.773110	0.712468
H104	H	0.072695	-0.796222	0.689309
H105	H	0.186370	-0.797062	0.645890
H106	H	0.163199	-0.820188	0.622728
H107	H	0.142314	-0.888928	0.712356
H108	H	0.165504	-0.865810	0.735512
H109	H	0.209585	-0.895932	0.686787
C110	C	0.185785	-0.581447	1.184924
C111	C	0.201738	-0.622229	1.236168
C112	C	0.246413	-0.611184	1.236321
H113	H	0.219882	-0.585929	1.150239
H114	H	0.171164	-0.541808	1.184964
H115	H	0.216360	-0.661859	1.236122
H116	H	0.167654	-0.617754	1.270861
H117	H	0.231792	-0.571544	1.236361
H118	H	0.280507	-0.615665	1.201634
H119	H	0.257239	-0.638848	1.271092
C120	C	0.692034	-0.495959	0.592871
C121	C	0.640776	-0.445858	0.586272
C122	C	0.640661	-0.401055	0.597356
H123	H	0.692040	-0.510508	0.632508
H124	H	0.726720	-0.484995	0.565219
H125	H	0.606100	-0.456821	0.613923
H126	H	0.640760	-0.431292	0.546639
H127	H	0.675346	-0.390091	0.569703
H128	H	0.640668	-0.415609	0.636992
H129	H	0.605886	-0.367055	0.592874
H130	H	0.692221	-0.728771	0.521355
C131	C	0.186347	-0.778096	1.184824
C132	C	0.202277	-0.804370	1.236061
C133	C	0.247177	-0.860131	1.236159
H134	H	0.171954	-0.803318	1.184836
H135	H	0.220401	-0.772875	1.150122
H136	H	0.168231	-0.809594	1.270754
H137	H	0.216681	-0.779165	1.236059
H138	H	0.281230	-0.854910	1.201458
H139	H	0.232778	-0.885348	1.236171
H140	H	0.257995	-0.877963	1.270921
C141	C	0.692018	-0.495608	0.396161
C142	C	0.692020	-0.517075	0.359195
C143	C	0.691985	-0.472284	0.303406
H144	H	0.657282	-0.461570	0.401349
H145	H	0.726739	-0.484709	0.378198
H146	H	0.657302	-0.527966	0.377154
H147	H	0.726753	-0.551107	0.353990
H148	H	0.726706	-0.461385	0.285443
H149	H	0.657249	-0.438248	0.308600
H150	H	0.691992	-0.486844	0.278316
H151	H	0.061737	-0.480889	0.910978
C152	C	-0.059446	-0.459099	1.184780
C153	C	-0.037997	-0.422153	1.184820
C154	C	-0.082796	-0.366363	1.184858
H155	H	-0.070356	-0.441102	1.150055
H156	H	-0.093476	-0.464313	1.219515
H157	H	-0.003978	-0.416937	1.150089
H158	H	-0.027092	-0.440131	1.219543
H159	H	-0.116826	-0.371577	1.219592
H160	H	-0.093703	-0.348372	1.150132
H161	H	-0.068251	-0.341290	1.184891
H162	H	0.209648	-0.611676	1.024626
H163	H	-0.081227	-0.584696	0.666460
C164	C	-0.096309	0.010498	0.678809
C165	C	-0.122562	0.061734	0.694730
C166	C	-0.178303	0.061843	0.739637
H167	H	-0.121549	0.010523	0.664423
H168	H	-0.091068	-0.024208	0.712866
H169	H	-0.127805	0.096431	0.660680
H170	H	-0.097340	0.061720	0.709127
H171	H	-0.173063	0.027136	0.773693
H172	H	-0.203538	0.061866	0.725246
H173	H	-0.196121	0.096603	0.750449
H174	H	0.097420	0.010424	0.666105
H175	H	0.247489	-0.573760	0.910909
C176	C	-0.059049	-0.655713	1.184622
C177	C	-0.110329	-0.604612	1.184617
C178	C	-0.155103	-0.615603	1.184576
H179	H	-0.045272	-0.665186	1.149886
H180	H	-0.068420	-0.688357	1.219345
H181	H	-0.100959	-0.571978	1.149898
H182	H	-0.124123	-0.595131	1.219351
H183	H	-0.164474	-0.648246	1.219298
H184	H	-0.141321	-0.625076	1.149838
H185	H	-0.189904	-0.580935	1.184578
H186	H	0.029071	-0.474132	0.445424
H187	H	0.028825	0.010378	0.445599
C188	C	0.050478	-0.471059	0.703280
C189	C	-0.007966	-0.462254	0.712065
C190	C	-0.048801	-0.426193	0.748079
H191	H	0.056439	-0.490155	0.740880
H192	H	0.056457	-0.433466	0.684144
H193	H	-0.013942	-0.499841	0.731202
H194	H	-0.013946	-0.443152	0.674476
H195	H	-0.042823	-0.388600	0.728943
H196	H	-0.042835	-0.445293	0.785676
H197	H	-0.088460	-0.420210	0.754039
C198	C	0.006994	-0.514780	0.659762
C199	C	-0.007962	-0.567122	0.691066
C200	C	-0.069577	-0.552122	0.706253
H201	H	-0.014342	-0.490358	0.684256
H202	H	-0.003320	-0.493529	0.624330
H203	H	0.002345	-0.588365	0.726493
H204	H	0.013358	-0.591551	0.666584
H205	H	-0.079891	-0.530870	0.670821
H206	H	-0.090907	-0.527699	0.730745
H207	H	-0.079732	-0.587633	0.727490
C208	C	0.409929	-0.418668	0.609404
C209	C	0.425163	-0.386600	0.547933
C210	C	0.393900	-0.325404	0.538910
H211	H	0.368101	-0.411899	0.626065
H212	H	0.420224	-0.405674	0.628314
H213	H	0.414864	-0.399589	0.529030
H214	H	0.466985	-0.393351	0.531259
H215	H	0.404195	-0.312411	0.557820
H216	H	0.352074	-0.318641	0.555574
H217	H	0.404236	-0.303638	0.497202
C218	C	0.692373	-0.741359	0.715084
C219	C	0.692395	-0.719901	0.752042
C220	C	0.692489	-0.764711	0.807812
H221	H	0.657673	-0.752292	0.733085
H222	H	0.727130	-0.775379	0.709844
H223	H	0.657641	-0.685893	0.757284
H224	H	0.727092	-0.708973	0.734060
H225	H	0.727246	-0.798731	0.802572
H226	H	0.657789	-0.775641	0.825807
H227	H	0.692509	-0.750160	0.832893
H228	H	0.209407	-0.611608	0.562721
C229	C	0.222414	0.010923	0.432824
C230	C	0.259342	0.011060	0.454231
C231	C	0.314997	0.011439	0.409313
H232	H	0.240547	-0.023721	0.421754
H233	H	0.216985	0.045741	0.398903
H234	H	0.264773	-0.023754	0.488141
H235	H	0.241229	0.045702	0.465297
H236	H	0.309567	0.046256	0.375393
H237	H	0.333123	-0.023205	0.398246
H238	H	0.340057	0.011538	0.423830
H239	H	0.247325	-0.573698	0.600612
C240	C	0.222694	-0.655544	0.433221
C241	C	0.259599	-0.713978	0.454779
C242	C	0.315421	-0.725087	0.410060
H243	H	0.217551	-0.651089	0.399169
H244	H	0.240676	-0.627900	0.422320
H245	H	0.241621	-0.741614	0.465671
H246	H	0.264759	-0.718447	0.488824
H247	H	0.333403	-0.697443	0.399159
H248	H	0.310272	-0.720628	0.376011
H249	H	0.340470	-0.764732	0.424683
H250	H	0.418403	-0.619300	0.682106
H251	H	0.532110	-0.657210	0.644171
H252	H	0.200842	-0.263395	0.554238
C253	C	0.540667	-0.462337	0.565826
C254	C	0.576638	-0.464831	0.507981
C255	C	0.608061	-0.424630	0.478078
H256	H	0.513089	-0.422892	0.563459
H257	H	0.565171	-0.472829	0.587146
H258	H	0.552136	-0.454336	0.486666
H259	H	0.604226	-0.504267	0.510330
H260	H	0.632565	-0.435122	0.499398
H261	H	0.580479	-0.385188	0.475716
H262	H	0.632475	-0.426321	0.438829
H263	H	0.162897	-0.149674	0.516363
C264	C	0.060435	-0.141275	0.713221
C265	C	0.091937	-0.156540	0.749172
C266	C	0.056005	-0.125294	0.790002
H267	H	0.050121	-0.099441	0.692039
H268	H	0.025005	-0.151568	0.737721
H269	H	0.127356	-0.146244	0.724675
H270	H	0.102250	-0.198369	0.770366
H271	H	0.020576	-0.135587	0.814502
H272	H	0.045693	-0.083461	0.768816
H273	H	0.077372	-0.135651	0.814404
C274	C	0.104110	-0.271998	0.756686
C275	C	0.156474	-0.307975	0.771629
C276	C	0.141522	-0.339389	0.833249
H277	H	0.079694	-0.244410	0.778013
H278	H	0.082870	-0.296501	0.767020
H279	H	0.177705	-0.283475	0.761301
H280	H	0.180896	-0.335574	0.750317
H281	H	0.120282	-0.363892	0.843583
H282	H	0.117106	-0.311797	0.854570
H283	H	0.177048	-0.363807	0.843395
