data_functionalizedCrystal
_audit_creation_method	'MofGen! by Chris Wilmer'
_symmetry_space_group_name_H-M	'P1'
_symmetry_Int_Tables_number	1
_symmetry_cell_setting	triclinic
loop_
_symmetry_equiv_pos_as_xyz
  x,y,z
_cell_length_a	13.897449
_cell_length_b	13.897441
_cell_length_c	13.897448
_cell_angle_alpha	90.029627
_cell_angle_beta	89.981028
_cell_angle_gamma	89.981404
loop_
_atom_site_label
_atom_site_type_symbol
_atom_site_fract_x
_atom_site_fract_y
_atom_site_fract_z
Zn1	Zn	1.474682	-0.545381	0.383960
Zn2	Zn	1.724682	-0.295381	0.633960
Zn3	Zn	1.974682	-0.045381	0.883960
Zn4	Zn	2.224682	0.204619	1.133960
Zn5	Zn	1.474582	-0.384083	0.545279
Zn6	Zn	1.724582	-0.134083	0.795279
Zn7	Zn	1.974582	0.115917	1.045279
Zn8	Zn	2.224582	0.365917	1.295279
Zn9	Zn	1.313377	-0.384100	0.384004
Zn10	Zn	1.563377	-0.134100	0.634004
Zn11	Zn	1.813377	0.115900	0.884004
Zn12	Zn	2.063377	0.365900	1.134004
Zn13	Zn	1.313353	-0.545335	0.545219
Zn14	Zn	1.563353	-0.295335	0.795219
Zn15	Zn	1.813353	-0.045335	1.045219
Zn16	Zn	2.063353	0.204665	1.295219
O17	O	1.393999	-0.464725	0.464616
O18	O	1.643999	-0.214725	0.714616
O19	O	1.893999	0.035275	0.964616
O20	O	2.143999	0.285275	1.214616
O21	O	1.609651	-0.523997	0.405367
O22	O	1.859651	-0.273997	0.655367
O23	O	2.109651	-0.023997	0.905367
O24	O	2.359651	0.226003	1.155367
O25	O	1.453166	-0.249103	0.523929
O26	O	1.703166	0.000897	0.773929
O27	O	1.953166	0.250897	1.023929
O28	O	2.203166	0.500897	1.273929
O29	O	1.334827	-0.405520	0.249016
O30	O	1.584827	-0.155520	0.499016
O31	O	1.834827	0.094480	0.749016
O32	O	2.084827	0.344480	0.999016
O33	O	1.609577	-0.405491	0.523887
O34	O	1.859577	-0.155491	0.773887
O35	O	2.109577	0.094509	1.023887
O36	O	2.359577	0.344509	1.273887
O37	O	1.453337	-0.524013	0.248985
O38	O	1.703337	-0.274013	0.498985
O39	O	1.953337	-0.024013	0.748985
O40	O	2.203337	0.225987	0.998985
O41	O	1.334730	-0.249116	0.405441
O42	O	1.584730	0.000884	0.655441
O43	O	1.834730	0.250884	0.905441
O44	O	2.084730	0.500884	1.155441
O45	O	1.178393	-0.405476	0.405382
O46	O	1.428393	-0.155476	0.655382
O47	O	1.678393	0.094524	0.905382
O48	O	1.928393	0.344524	1.155382
O49	O	1.334785	-0.680323	0.523784
O50	O	1.584785	-0.430323	0.773784
O51	O	1.834785	-0.180323	1.023784
O52	O	2.084785	0.069677	1.273784
O53	O	1.178375	-0.523935	0.523826
O54	O	1.428375	-0.273935	0.773826
O55	O	1.678375	-0.023935	1.023826
O56	O	1.928375	0.226065	1.273826
O57	O	1.453313	-0.680357	0.405308
O58	O	1.703313	-0.430357	0.655308
O59	O	1.953313	-0.180357	0.905308
O60	O	2.203313	0.069643	1.155308
O61	O	1.453143	-0.405447	0.680253
O62	O	1.703143	-0.155447	0.930253
O63	O	1.953143	0.094553	1.180253
O64	O	2.203143	0.344553	1.430253
O65	O	1.334688	-0.523918	0.680208
O66	O	1.584688	-0.273918	0.930208
O67	O	1.834688	-0.023918	1.180208
O68	O	2.084688	0.226082	1.430208
C69	C	1.143384	-0.464703	0.464603
C70	C	1.393384	-0.214703	0.714603
C71	C	1.643384	0.035297	0.964603
C72	C	1.893384	0.285297	1.214603
C73	C	1.036171	-0.464716	0.464620
C74	C	1.286171	-0.214716	0.714620
C75	C	1.536171	0.035284	0.964620
C76	C	1.786171	0.285284	1.214620
C77	C	1.394058	-0.716318	0.464535
C78	C	1.644058	-0.466318	0.714535
C79	C	1.894058	-0.216318	0.964535
C80	C	2.144058	0.033682	1.214535
C81	C	1.394083	-0.823532	0.464500
C82	C	1.644083	-0.573532	0.714500
C83	C	1.894083	-0.323532	0.964500
C84	C	2.144083	-0.073532	1.214500
C85	C	1.393928	-0.464697	0.715230
C86	C	1.643928	-0.214697	0.965230
C87	C	1.893928	0.035303	1.215230
C88	C	2.143928	0.285303	1.465230
C89	C	1.393987	-0.464717	0.822444
C90	C	1.643987	-0.214717	1.072444
C91	C	1.893987	0.035283	1.322444
C92	C	2.143987	0.285283	1.572444
C93	C	0.839875	-0.464741	0.464624
C94	C	1.089875	-0.214741	0.714624
C95	C	1.339875	0.035259	0.964624
C96	C	1.589875	0.285259	1.214624
C97	C	0.949108	-0.464725	0.464619
C98	C	1.199108	-0.214725	0.714619
C99	C	1.449108	0.035275	0.964619
C100	C	1.699108	0.285275	1.214619
C101	C	1.645592	-0.464747	0.464629
C102	C	1.895592	-0.214747	0.714629
C103	C	2.145592	0.035253	0.964629
C104	C	2.395592	0.285253	1.214629
C105	C	1.752806	-0.464757	0.464635
C106	C	2.002806	-0.214757	0.714635
C107	C	2.252806	0.035243	0.964635
C108	C	2.502806	0.285243	1.214635
C109	C	1.394103	-0.910602	0.464473
C110	C	1.644103	-0.660602	0.714473
C111	C	1.894103	-0.410602	0.964473
C112	C	2.144103	-0.160602	1.214473
C113	C	1.394130	-1.019834	0.464429
C114	C	1.644130	-0.769834	0.714429
C115	C	1.894130	-0.519834	0.964429
C116	C	2.144130	-0.269834	1.214429
C117	C	1.393995	-0.214110	0.464627
C118	C	1.643995	0.035890	0.714627
C119	C	1.893995	0.285890	0.964627
C120	C	2.143995	0.535890	1.214627
C121	C	1.394157	-0.106897	0.464389
C122	C	1.644157	0.143103	0.714389
C123	C	1.894157	0.393103	0.964389
C124	C	2.144157	0.643103	1.214389
C125	C	1.394096	-0.464774	0.213023
C126	C	1.644096	-0.214774	0.463023
C127	C	1.894096	0.035226	0.713023
C128	C	2.144096	0.285226	0.963023
C129	C	1.394137	-0.464795	0.105809
C130	C	1.644137	-0.214795	0.355809
C131	C	1.894137	0.035205	0.605809
C132	C	2.144137	0.285205	0.855809
C133	C	1.394088	-0.464778	1.018739
C134	C	1.644088	-0.214778	1.268739
C135	C	1.894088	0.035222	1.518739
C136	C	2.144088	0.285222	1.768739
C137	C	1.394029	-0.464747	0.909506
C138	C	1.644029	-0.214747	1.159506
C139	C	1.894029	0.035253	1.409506
C140	C	2.144029	0.285253	1.659506
