data_functionalizedCrystal
_audit_creation_method	'MofGen! by Chris Wilmer'
_symmetry_space_group_name_H-M	'P1'
_symmetry_Int_Tables_number	1
_symmetry_cell_setting	triclinic
loop_
_symmetry_equiv_pos_as_xyz
  x,y,z
_cell_length_a	14.853567
_cell_length_b	12.837942
_cell_length_c	11.892095
_cell_angle_alpha	85.695828
_cell_angle_beta	86.088462
_cell_angle_gamma	90.768065
loop_
_atom_site_label
_atom_site_type_symbol
_atom_site_fract_x
_atom_site_fract_y
_atom_site_fract_z
O1	O	1.202637	-0.141961	0.093925
O2	O	0.941544	-0.158087	0.093944
O3	O	1.066302	0.000887	0.093928
O4	O	1.077880	-0.300936	0.093941
O5	O	1.076715	0.014112	-0.094081
O6	O	0.951957	-0.144862	-0.094064
O7	O	1.213050	-0.128737	-0.094084
Zn8	Zn	1.084157	-0.134700	-0.123925
Zn9	Zn	1.070438	-0.152124	0.123785
O10	O	1.088293	-0.287711	-0.094068
C11	C	0.913100	-0.150744	-0.000058
C12	C	0.812830	-0.148555	-0.000050
N13	N	1.061074	-0.164008	0.292840
C14	C	1.067597	0.046126	-0.000075
C15	C	1.055931	0.161220	-0.000073
C16	C	0.391503	-0.044865	-0.000080
C17	C	0.386241	-0.233729	-0.000071
C18	C	0.480449	-0.235788	-0.000067
C19	C	0.530189	-0.142384	-0.000068
C20	C	0.485720	-0.046921	-0.000073
C21	C	0.524924	-0.331250	-0.000051
C22	C	0.619138	-0.333313	-0.000046
C23	C	0.668880	-0.239907	-0.000055
C24	C	0.624405	-0.144440	-0.000061
C25	C	0.674145	-0.051036	-0.000062
C26	C	0.629673	0.044432	-0.000076
C27	C	0.535462	0.046485	-0.000082
C28	C	0.763091	-0.241959	-0.000049
C29	C	0.768362	-0.053092	-0.000055
C30	C	1.241494	-0.136080	-0.000079
C31	C	1.341764	-0.138269	-0.000079
C32	C	1.086998	-0.332950	-0.000062
C33	C	1.098664	-0.448044	-0.000057
C34	C	1.196176	0.401975	-0.000059
C35	C	1.185219	0.510117	-0.000057
C36	C	1.023059	0.485645	-0.000056
C37	C	1.034017	0.377504	-0.000059
C38	C	1.120578	0.335673	-0.000062
C39	C	1.131535	0.227530	-0.000073
C40	C	0.969375	0.203061	-0.000065
C41	C	0.958418	0.311202	-0.000062
N42	N	1.093527	-0.122807	-0.292980
C43	C	1.158731	-0.040111	0.529476
C44	C	1.152179	-0.048411	0.647819
C45	C	1.041424	-0.188911	0.647871
C46	C	1.047976	-0.180612	0.529528
C47	C	1.106630	-0.106208	0.470335
C48	C	1.113177	-0.097904	0.351990
C49	C	1.002427	-0.238409	0.352044
C50	C	0.995875	-0.246709	0.470387
H51	H	0.808854	0.022970	-0.000060
Br52	Br	0.318737	-0.360487	-0.000049
H53	H	1.160934	-0.037318	0.303796
H54	H	1.206483	0.020478	0.481280
Br55	Br	0.697187	0.171189	-0.000065
Br56	Br	0.916280	-0.347686	0.550728
H57	H	1.202017	0.193474	-0.000080
H58	H	0.993676	-0.249496	0.696081
H59	H	1.194606	0.005411	0.695968
H60	H	0.887942	0.345276	-0.000055
Br61	Br	0.905590	0.542432	-0.000011
H62	H	0.499246	0.124212	-0.000121
Br63	Br	0.331154	0.084694	-0.000109
Br64	Br	0.457417	-0.458007	-0.000025
H65	H	0.960000	-0.292227	0.303878
H66	H	0.655339	-0.411049	-0.000034
Br67	Br	0.823442	-0.371513	-0.000017
H68	H	1.266658	0.367917	-0.000073
H69	H	1.246779	0.564096	-0.000051
Br70	Br	0.866772	0.113075	-0.000089
