data_functionalizedCrystal
_audit_creation_method	'MofGen! by Chris Wilmer'
_symmetry_space_group_name_H-M	'P1'
_symmetry_Int_Tables_number	1
_symmetry_cell_setting	triclinic
loop_
_symmetry_equiv_pos_as_xyz
  x,y,z
_cell_length_a	10.686220
_cell_length_b	19.805405
_cell_length_c	19.805399
_cell_angle_alpha	90.027486
_cell_angle_beta	94.351891
_cell_angle_gamma	85.590168
loop_
_atom_site_label
_atom_site_type_symbol
_atom_site_fract_x
_atom_site_fract_y
_atom_site_fract_z
Zn1	Zn	1.929009	0.189989	-0.303426
Zn2	Zn	1.928845	0.303184	-0.190244
Zn3	Zn	1.718001	0.198703	-0.198924
Zn4	Zn	1.717929	0.311840	-0.312061
O5	O	1.823446	0.250929	-0.251164
O6	O	2.105564	0.197736	-0.281165
O7	O	1.900838	0.289349	-0.096681
O8	O	1.746091	0.102826	-0.212805
O9	O	2.105444	0.280900	-0.198012
O10	O	1.901117	0.096424	-0.289582
O11	O	1.745932	0.212587	-0.103057
O12	O	1.541415	0.220980	-0.221178
O13	O	1.745967	0.295651	-0.405631
O14	O	1.541362	0.304101	-0.304300
O15	O	1.901047	0.206128	-0.399286
O16	O	1.900768	0.399053	-0.206385
O17	O	1.745808	0.405412	-0.295883
C18	C	1.495604	0.264426	-0.264618
C19	C	1.355352	0.270216	-0.270390
C20	C	1.823297	0.426791	-0.251143
C21	C	1.823348	0.502021	-0.251152
C22	C	1.904112	0.534028	-0.204593
C23	C	1.904163	0.604715	-0.204608
C24	C	1.823442	0.643393	-0.251179
C25	C	1.742674	0.611381	-0.297743
C26	C	1.742631	0.540695	-0.297730
C27	C	1.742848	0.896447	-0.297795
C28	C	1.742895	0.967137	-0.297802
C29	C	1.904380	0.960466	-0.204673
C30	C	1.904337	0.889781	-0.204660
C31	C	1.823574	0.857775	-0.251226
C32	C	1.823522	0.781128	-0.251210
C33	C	1.823487	0.720038	-0.251193
C34	C	2.152568	0.237380	-0.237657
C35	C	2.292820	0.231606	-0.231901
C36	C	1.823517	0.250883	-0.427704
C37	C	1.823547	0.250864	-0.502934
C38	C	1.823620	1.074379	-0.251207
C39	C	1.823666	0.999145	-0.251246
C40	C	1.904299	0.204247	-0.534976
C41	C	1.904312	0.204227	-0.605664
C42	C	1.823578	0.250827	-0.644309
C43	C	1.742818	0.297446	-0.612263
C44	C	1.742799	0.297463	-0.541576
C45	C	1.742889	0.297380	-0.897333
C46	C	1.742916	0.297362	-0.968024
C47	C	1.904401	0.204144	-0.961421
C48	C	1.904383	0.204161	-0.890734
C49	C	1.823618	0.250777	-0.858695
C50	C	1.823603	0.250798	-0.782047
C51	C	1.823599	0.250811	-0.720955
C52	C	1.823448	0.250922	-0.075308
C53	C	1.823662	0.250741	-0.000067
H54	H	1.301590	0.307702	-0.307757
Cl55	Cl	2.005884	0.145577	-0.842156
Cl56	Cl	1.641413	0.355949	-1.016606
Cl57	Cl	2.005704	0.644949	-0.146077
Cl58	Cl	2.005889	0.145648	-0.645939
H59	H	1.346588	0.194122	-0.194528
H60	H	1.677163	0.998627	-0.335731
H61	H	1.969839	0.502541	-0.166667
Cl62	Cl	2.005805	0.145663	-0.486400
Cl63	Cl	1.641356	0.355985	-0.857063
Cl64	Cl	2.005819	0.841161	-0.146112
H65	H	1.970160	0.166185	-0.987516
Cl66	Cl	1.641319	0.356028	-0.660845
H67	H	1.677030	0.335417	-0.515490
Cl68	Cl	1.641315	0.856220	-0.356333
Cl69	Cl	2.005919	1.000706	-0.146136
Cl70	Cl	1.641203	0.660004	-0.356293
H71	H	1.676866	0.514636	-0.335643
