data_functionalizedCrystal
_audit_creation_method	'MofGen! by Chris Wilmer'
_symmetry_space_group_name_H-M	'P1'
_symmetry_Int_Tables_number	1
_symmetry_cell_setting	triclinic
loop_
_symmetry_equiv_pos_as_xyz
  x,y,z
_cell_length_a	11.792254
_cell_length_b	11.792241
_cell_length_c	10.268362
_cell_angle_alpha	90.003482
_cell_angle_beta	90.005938
_cell_angle_gamma	95.803993
loop_
_atom_site_label
_atom_site_type_symbol
_atom_site_fract_x
_atom_site_fract_y
_atom_site_fract_z
O1	O	0.155569	-1.506909	0.108174
O2	O	0.488903	-1.173576	0.441508
O3	O	0.822236	-0.840243	0.774841
O4	O	0.171602	-1.176569	0.108205
O5	O	0.504935	-0.843236	0.441538
O6	O	0.838269	-0.509902	0.774871
O7	O	-0.001584	-1.349748	0.108180
O8	O	0.331749	-1.016415	0.441513
O9	O	0.665083	-0.683081	0.774846
O10	O	0.328755	-1.333730	0.108200
O11	O	0.662089	-1.000397	0.441533
O12	O	0.995422	-0.667064	0.774866
O13	O	-0.001594	-1.349746	-0.108421
O14	O	0.331739	-1.016413	0.224912
O15	O	0.665073	-0.683079	0.558246
O16	O	0.171592	-1.176567	-0.108396
O17	O	0.504925	-0.843234	0.224937
O18	O	0.838259	-0.509900	0.558271
O19	O	0.155559	-1.506907	-0.108426
O20	O	0.488892	-1.173574	0.224907
O21	O	0.822226	-0.840241	0.558240
Cu22	Cu	0.163575	-1.341737	-0.128188
Cu23	Cu	0.496908	-1.008403	0.205145
Cu24	Cu	0.830241	-0.675070	0.538478
Cu25	Cu	0.163587	-1.341739	0.127967
Cu26	Cu	0.496920	-1.008406	0.461300
Cu27	Cu	0.830253	-0.675073	0.794634
O28	O	0.328745	-1.333728	-0.108401
O29	O	0.662078	-1.000395	0.224932
O30	O	0.995412	-0.667061	0.558266
C31	C	0.170590	-1.134277	-0.000092
C32	C	0.503923	-0.800944	0.333242
C33	C	0.837257	-0.467610	0.666575
C34	C	0.167576	-1.008263	-0.000080
C35	C	0.500909	-0.674930	0.333253
C36	C	0.834242	-0.341596	0.666586
N37	N	0.163566	-1.341743	-0.308354
N38	N	0.496899	-1.008410	0.024979
N39	N	0.830232	-0.675077	0.358312
C40	C	-0.043880	-1.348738	-0.000120
C41	C	0.289454	-1.015405	0.333213
C42	C	0.622787	-0.682071	0.666546
C43	C	-0.169893	-1.345718	-0.000119
C44	C	0.163441	-1.012385	0.333215
C45	C	0.496774	-0.679051	0.666548
C46	C	-0.272229	-1.343264	-0.000114
C47	C	0.061104	-1.009931	0.333220
C48	C	0.394437	-0.676597	0.666553
C49	C	-0.400616	-1.340196	-0.000102
C50	C	-0.067283	-1.006862	0.333232
C51	C	0.266051	-0.673529	0.666565
C52	C	0.371041	-1.334738	-0.000098
C53	C	0.704374	-1.001405	0.333235
C54	C	1.037708	-0.668072	0.666568
C55	C	0.497054	-1.337758	-0.000091
C56	C	0.830387	-1.004425	0.333242
C57	C	1.163721	-0.671092	0.666575
C58	C	0.156571	-1.549199	-0.000127
C59	C	0.489905	-1.215866	0.333206
C60	C	0.823238	-0.882533	0.666540
C61	C	0.159586	-1.675213	-0.000130
C62	C	0.492919	-1.341880	0.333204
C63	C	0.826252	-1.008546	0.666537
C64	C	0.162033	-0.777551	-0.000118
C65	C	0.495366	-0.444217	0.333215
C66	C	0.828699	-0.110884	0.666549
C67	C	0.165112	-0.905936	-0.000097
C68	C	0.498446	-0.572603	0.333236
C69	C	0.831779	-0.239269	0.666569
N70	N	0.163587	-1.341742	0.308133
N71	N	0.496920	-1.008409	0.641466
N72	N	0.830253	-0.675075	0.974799
C73	C	0.163580	-1.341739	0.573803
C74	C	0.496913	-1.008406	0.907137
C75	C	0.830247	-0.675072	1.240470
C76	C	0.163587	-1.341737	0.425965
C77	C	0.496921	-1.008404	0.759299
C78	C	0.830254	-0.675071	1.092632
