data_functionalizedCrystal
_audit_creation_method	'MofGen! by Chris Wilmer'
_symmetry_space_group_name_H-M	'P1'
_symmetry_Int_Tables_number	1
_symmetry_cell_setting	triclinic
loop_
_symmetry_equiv_pos_as_xyz
  x,y,z
_cell_length_a	19.288864
_cell_length_b	11.804365
_cell_length_c	13.262975
_cell_angle_alpha	62.679028
_cell_angle_beta	83.817662
_cell_angle_gamma	101.819883
loop_
_atom_site_label
_atom_site_type_symbol
_atom_site_fract_x
_atom_site_fract_y
_atom_site_fract_z
O1	O	0.930646	0.061278	0.117766
O2	O	0.727594	0.055044	0.136765
O3	O	0.841704	0.111334	-0.036950
O4	O	0.816536	0.004988	0.291480
O5	O	0.811665	-0.101526	0.008736
O6	O	0.697555	-0.157816	0.182451
O7	O	0.900607	-0.151582	0.163452
Cu8	Cu	0.796338	-0.174135	0.177123
Cu9	Cu	0.831863	0.077597	0.123094
O10	O	0.786497	-0.207872	0.337167
C11	C	0.686722	-0.051199	0.159000
C12	C	0.609688	-0.050639	0.157174
N13	N	0.771358	-0.351189	0.215124
C14	C	0.560812	-0.083621	0.259092
C15	C	0.488438	-0.083050	0.257366
C16	C	0.464947	-0.049468	0.153711
C17	C	0.513833	-0.016489	0.051781
C18	C	0.586203	-0.017074	0.053512
C19	C	0.370559	0.051533	0.056215
C20	C	0.298190	0.052125	0.054487
C21	C	0.241731	-0.047666	0.148369
C22	C	0.257649	-0.148039	0.243996
C23	C	0.330020	-0.148625	0.245727
C24	C	0.386474	-0.048830	0.151823
C25	C	0.114377	-0.080032	0.248424
C26	C	0.042000	-0.079467	0.246696
C27	C	0.067399	-0.012892	0.041106
C28	C	0.139772	-0.013471	0.042839
C29	C	0.163257	-0.047036	0.146500
C30	C	0.916839	-0.653423	-0.006192
C31	C	0.935736	-0.519445	-0.034944
C32	C	0.894643	-0.477374	0.027570
C33	C	0.834649	-0.569295	0.118842
C34	C	0.815753	-0.703289	0.147603
C35	C	0.793558	-0.527239	0.181366
C36	C	0.733564	-0.619161	0.272638
C37	C	0.714671	-0.753140	0.301394
C38	C	0.755764	-0.795211	0.238879
C39	C	0.812454	-0.393246	0.152604
C40	C	0.711369	-0.443111	0.306400
C41	C	0.692471	-0.577090	0.335152
C42	C	0.941480	-0.045336	0.141217
C43	C	1.018514	-0.045887	0.143041
C44	C	0.828033	0.018511	-0.056126
C45	C	0.832043	0.059057	-0.181328
N46	N	0.856849	0.254654	0.085084
C47	C	0.850312	0.194146	-0.265029
C48	C	0.854092	0.232270	-0.382670
C49	C	0.839609	0.135310	-0.416623
C50	C	0.821346	0.000219	-0.332923
C51	C	0.817560	-0.037910	-0.215268
C52	C	0.806857	-0.096745	-0.366863
C53	C	0.788593	-0.231837	-0.283162
C54	C	0.784809	-0.269959	-0.165520
C55	C	0.799291	-0.172999	-0.131567
C56	C	0.810643	-0.058617	-0.484517
C57	C	0.777891	-0.290672	-0.434757
C58	C	0.774111	-0.328797	-0.317115
C59	C	0.800168	-0.115046	0.356342
C60	C	0.796159	-0.155583	0.481542
H61	H	0.579928	-0.110950	0.343500
H62	H	0.861300	-0.318415	0.078291
C63	C	0.434667	-0.119312	0.369476
H64	H	0.459021	-0.139374	0.431457
H65	H	0.395409	-0.194693	0.389017
H66	H	0.416411	-0.046215	0.357119
H67	H	0.211680	-0.229299	0.320444
C68	C	0.626486	-0.678212	0.435553
H69	H	0.621125	-0.764033	0.443729
H70	H	0.583741	-0.652392	0.418794
H71	H	0.633895	-0.680614	0.506089
C72	C	0.795133	-0.214943	-0.002159
H73	H	0.781263	-0.309332	0.043022
H74	H	0.760141	-0.182103	0.023662
H75	H	0.841439	-0.179285	0.006677
H76	H	0.769934	-0.379959	-0.097371
H77	H	0.825512	0.051375	-0.552656
C78	C	-0.011765	-0.115749	0.358812
H79	H	0.012592	-0.135810	0.420789
H80	H	-0.051017	-0.191137	0.378351
H81	H	-0.030030	-0.042664	0.346468
H82	H	0.759240	-0.438790	-0.248950
H83	H	0.740377	-0.904306	0.262286
C84	C	0.761959	-0.397335	-0.472092
H85	H	0.766836	-0.355279	-0.554147
H86	H	0.713750	-0.454116	-0.433794
H87	H	0.795473	-0.448394	-0.451389
C88	C	0.280684	0.162524	-0.050699
H89	H	0.324672	0.221857	-0.106374
H90	H	0.256114	0.210102	-0.025264
H91	H	0.250477	0.123717	-0.085368
H92	H	0.677908	-0.408861	0.357307
H93	H	0.868964	0.342261	-0.450812
C94	C	0.487999	0.020454	-0.062239
H95	H	0.527476	0.040005	-0.122691
H96	H	0.470789	0.096296	-0.083122
H97	H	0.449801	-0.052173	-0.051251
H98	H	0.342977	-0.230355	0.323587
C99	C	0.140212	-0.116964	0.362447
H100	H	0.100732	-0.136545	0.422905
H101	H	0.178407	-0.044345	0.351464
H102	H	0.157424	-0.192812	0.383327
H103	H	0.179569	0.013393	-0.040155
C104	C	1.001742	-0.418349	-0.135297
H105	H	1.007121	-0.332534	-0.143453
H106	H	0.994370	-0.415920	-0.205851
H107	H	1.044471	-0.444219	-0.118477
C108	C	0.041569	0.024055	-0.072915
H109	H	-0.008532	0.019689	-0.059352
H110	H	0.048155	-0.036587	-0.098942
H111	H	0.069141	0.111875	-0.130792
C112	C	0.639972	0.019223	-0.058605
H113	H	0.615620	0.039313	-0.120590
H114	H	0.658245	-0.053844	-0.046275
H115	H	0.679221	0.094621	-0.078133
C116	C	0.432661	0.161305	-0.047061
H117	H	0.478042	0.146575	-0.032342
H118	H	0.431947	0.245701	-0.056216
H119	H	0.426311	0.159337	-0.116340
C120	C	0.648686	-0.854258	0.401796
H121	H	0.643322	-0.940081	0.409977
H122	H	0.605941	-0.828434	0.385033
H123	H	0.656094	-0.856655	0.472329
H124	H	0.910032	-0.368282	0.004156
C125	C	0.843771	0.177246	-0.546027
H126	H	0.856728	0.271587	-0.591014
H127	H	0.797723	0.140153	-0.554659
H128	H	0.879448	0.145889	-0.572251
H129	H	0.862097	0.273075	-0.237370
C130	C	0.962034	-0.699706	-0.074944
H131	H	0.942185	-0.792666	-0.044745
H132	H	1.010971	-0.681616	-0.067606
H133	H	0.960819	-0.653398	-0.154905
