data_functionalizedCrystal
_audit_creation_method	'MofGen! by Chris Wilmer'
_symmetry_space_group_name_H-M	'P1'
_symmetry_Int_Tables_number	1
_symmetry_cell_setting	triclinic
loop_
_symmetry_equiv_pos_as_xyz
  x,y,z
_cell_length_a	19.077212
_cell_length_b	14.908178
_cell_length_c	19.076919
_cell_angle_alpha	91.159747
_cell_angle_beta	90.114942
_cell_angle_gamma	95.466257
loop_
_atom_site_label
_atom_site_type_symbol
_atom_site_fract_x
_atom_site_fract_y
_atom_site_fract_z
Zn1	Zn	1.044196	-0.327461	0.425265
Zn2	Zn	1.042613	-0.472020	0.300996
Zn3	Zn	0.931431	-0.326987	0.303063
Zn4	Zn	0.919914	-0.484052	0.413167
O5	O	0.984538	-0.402630	0.360623
O6	O	1.142528	-0.341801	0.412979
O7	O	1.032022	-0.447547	0.203185
O8	O	0.951873	-0.200819	0.325202
O9	O	1.141365	-0.448007	0.321679
O10	O	1.034720	-0.201168	0.414983
O11	O	0.950338	-0.340991	0.204703
O12	O	0.831362	-0.352658	0.313470
O13	O	0.932242	-0.468514	0.512858
O14	O	0.822900	-0.468054	0.394363
O15	O	1.023552	-0.353468	0.521746
O16	O	1.020854	-0.599847	0.309948
O17	O	0.930707	-0.608687	0.392359
C18	C	0.801580	-0.411611	0.352828
C19	C	0.723308	-0.415475	0.349510
C20	C	0.282652	-0.443157	0.325740
C21	C	0.356198	-0.439520	0.328853
C22	C	0.393571	-0.382504	0.378014
C23	C	0.357395	-0.329115	0.424059
C24	C	0.283852	-0.332747	0.420942
C25	C	0.613588	-0.365718	0.392438
C26	C	0.687137	-0.362092	0.395553
C27	C	0.685934	-0.472497	0.300346
C28	C	0.612389	-0.476128	0.297236
C29	C	0.576220	-0.422735	0.343279
N30	N	0.468746	-0.378788	0.381199
N31	N	0.501047	-0.426447	0.340090
C32	C	0.974377	-0.636997	0.349632
C33	C	0.970094	-0.737258	0.344957
C34	C	1.048241	-0.925881	0.429753
C35	C	1.044219	-1.020086	0.425363
C36	C	0.958024	-1.019873	0.331789
C37	C	0.962046	-0.925669	0.336179
C38	C	1.007157	-0.878676	0.385163
C39	C	1.011183	-0.784470	0.389550
C40	C	0.924984	-0.784259	0.295979
C41	C	0.920962	-0.878463	0.291588
C42	C	1.168211	-0.393615	0.368448
C43	C	1.246482	-0.389773	0.371783
C44	C	0.976789	-0.412386	0.543446
C45	C	0.973486	-0.416544	0.621354
C46	C	0.994758	-0.167348	0.371673
C47	C	0.999112	-0.067085	0.376381
C48	C	0.992301	-0.392845	0.178516
C49	C	0.995751	-0.388426	0.100626
C50	C	1.019472	-0.358601	0.662584
C51	C	1.016361	-0.362504	0.735787
C52	C	0.967266	-0.424355	0.767758
C53	C	0.921276	-0.482300	0.726522
C54	C	0.924384	-0.478392	0.653321
C55	C	0.952869	-0.442463	0.986189
C56	C	0.949765	-0.446369	1.059396
C57	C	1.044850	-0.326571	1.068656
C58	C	1.047957	-0.322672	0.995453
C59	C	1.001964	-0.380614	0.954223
N60	N	0.964086	-0.428349	0.842583
N61	N	1.005141	-0.376616	0.879400
H62	H	0.581965	-0.522555	0.257204
C63	C	0.879787	-0.732332	0.246925
C64	C	0.830170	-0.784026	0.193047
C65	C	0.784977	-0.732099	0.143992
C66	C	0.789400	-0.628478	0.148816
C67	C	0.839019	-0.576778	0.202697
C68	C	0.884212	-0.628705	0.251752
H69	H	0.826894	-0.860738	0.189473
H70	H	0.748246	-0.770372	0.104106
H71	H	0.755945	-0.590038	0.112503
H72	H	0.842295	-0.500066	0.206270
H73	H	0.920943	-0.590433	0.291638
C74	C	0.902255	-0.506188	0.940858
C75	C	0.850792	-0.467103	0.890038
C76	C	0.800164	-0.530824	0.844710
C77	C	0.800999	-0.633630	0.850203
C78	C	0.852465	-0.672720	0.901026
C79	C	0.903093	-0.608999	0.946354
H80	H	0.850172	-0.390995	0.885969
H81	H	0.762066	-0.501886	0.807087
H82	H	0.763522	-0.680800	0.816649
H83	H	0.853085	-0.748828	0.905094
H84	H	0.941191	-0.637936	0.983976
C85	C	1.101957	-0.254624	0.960291
C86	C	1.076653	-0.182615	0.911994
C87	C	1.130655	-0.114566	0.876834
C88	C	1.209961	-0.118526	0.889972
C89	C	1.235270	-0.190539	0.938271
C90	C	1.181267	-0.258588	0.973431
H91	H	1.017942	-0.179681	0.902267
H92	H	1.111920	-0.061258	0.841080
H93	H	1.249937	-0.068153	0.863945
H94	H	1.293980	-0.193473	0.947999
H95	H	1.200003	-0.311896	1.009185
C96	C	0.398501	-0.266393	0.478137
C97	C	0.393060	-0.164037	0.476929
C98	C	0.434161	-0.101315	0.531010
C99	C	0.480704	-0.140948	0.586298
C100	C	0.486147	-0.243309	0.587508
C101	C	0.445045	-0.306032	0.533427
H102	H	0.358604	-0.134693	0.435999
H103	H	0.430132	-0.025540	0.530113
H104	H	0.511130	-0.094517	0.626332
H105	H	0.520602	-0.272653	0.628438
H106	H	0.449075	-0.381806	0.534323
C107	C	0.871345	-0.930157	0.237705
C108	C	0.791596	-0.921530	0.240535
C109	C	0.741981	-0.973220	0.186648
C110	C	0.772115	-1.033536	0.129929
C111	C	0.851867	-1.042166	0.127097
C112	C	0.901483	-0.990476	0.180984
H113	H	0.769286	-0.876878	0.282524
H114	H	0.682943	-0.966831	0.188745
H115	H	0.735386	-1.071800	0.090038
H116	H	0.874178	-1.086818	0.085108
H117	H	0.960521	-0.996865	0.178887
H118	H	0.909784	-0.496738	1.085424
C119	C	0.873803	-0.542131	0.607962
C120	C	0.793642	-0.539239	0.614954
C121	C	0.743058	-0.602977	0.569594
C122	C	0.772634	-0.669607	0.517243
C123	C	0.852799	-0.672503	0.510248
C124	C	0.903383	-0.608765	0.555608
H125	H	0.771744	-0.489912	0.653710
H126	H	0.683714	-0.600833	0.574772
H127	H	0.735188	-0.716790	0.483665
H128	H	0.874697	-0.721829	0.471493
H129	H	0.962727	-0.610908	0.550430
H130	H	0.252228	-0.489590	0.285711
H131	H	1.082294	-0.279397	1.102232
C132	C	0.728250	-0.299368	0.449631
C133	C	0.688468	-0.240635	0.500276
C134	C	0.729580	-0.177917	0.554352
C135	C	0.810475	-0.173932	0.557783
C136	C	0.850261	-0.232666	0.507136
C137	C	0.809149	-0.295384	0.453060
H138	H	0.628580	-0.243584	0.497738
H139	H	0.700127	-0.134439	0.591844
H140	H	0.840909	-0.127504	0.597813
H141	H	0.910149	-0.229717	0.509674
H142	H	0.838602	-0.338863	0.415567
H143	H	1.059452	-0.308238	0.636559
C144	C	0.244059	-0.274026	0.471590
C145	C	0.250482	-0.285300	0.551340
C146	C	0.210690	-0.226574	0.601986
C147	C	0.164476	-0.156573	0.572883
C148	C	0.158051	-0.145295	0.493129
C149	C	0.197843	-0.204022	0.442483
H150	H	0.284694	-0.337122	0.572887
H151	H	0.215446	-0.234923	0.661026
H152	H	0.135020	-0.113100	0.610375
H153	H	0.123839	-0.093473	0.471582
H154	H	0.193087	-0.195673	0.383443
H155	H	1.053809	-0.315323	0.769353
H156	H	0.881299	-0.532658	0.752559
H157	H	0.385645	-0.482990	0.291359
H158	H	0.715391	-0.515966	0.262860
H159	H	1.077670	-1.058517	0.461677
C160	C	1.060802	-0.732774	0.443430
C161	C	1.140550	-0.741404	0.440596
C162	C	1.190169	-0.689711	0.494480
C163	C	1.160039	-0.629389	0.551197
C164	C	1.080287	-0.620757	0.554033
C165	C	1.030668	-0.672450	0.500149
H166	H	1.162857	-0.786060	0.398609
H167	H	1.249207	-0.696101	0.492380
H168	H	1.196770	-0.591123	0.591085
H169	H	1.057979	-0.576101	0.596020
H170	H	0.971630	-0.666059	0.502249
C171	C	1.097865	-0.874180	0.483627
C172	C	1.177614	-0.882805	0.480780
C173	C	1.227240	-0.831104	0.534653
C174	C	1.197118	-0.770779	0.591372
C175	C	1.117365	-0.762152	0.594221
C176	C	1.067739	-0.813853	0.540349
H177	H	1.199916	-0.927464	0.438791
H178	H	1.286278	-0.837491	0.532544
H179	H	1.233854	-0.732507	0.631252
H180	H	1.095063	-0.717493	0.636210
H181	H	1.008701	-0.807466	0.542458
C182	C	0.908404	-1.071581	0.277915
C183	C	0.938535	-1.131910	0.221203
C184	C	0.888916	-1.183621	0.167330
C185	C	0.809166	-1.175004	0.170168
C186	C	0.779031	-1.114673	0.226882
C187	C	0.828650	-1.062961	0.280755
H188	H	0.997574	-1.138291	0.219100
H189	H	0.911224	-1.228283	0.125346
H190	H	0.772435	-1.213284	0.130288
H191	H	0.719992	-1.108291	0.228985
H192	H	0.806342	-1.018300	0.322739
H193	H	0.584148	-0.322246	0.429932
