data_functionalizedCrystal
_audit_creation_method	'MofGen! by Chris Wilmer'
_symmetry_space_group_name_H-M	'P1'
_symmetry_Int_Tables_number	1
_symmetry_cell_setting	triclinic
loop_
_symmetry_equiv_pos_as_xyz
  x,y,z
_cell_length_a	14.971486
_cell_length_b	15.944551
_cell_length_c	14.048226
_cell_angle_alpha	89.992615
_cell_angle_beta	89.998499
_cell_angle_gamma	83.556434
loop_
_atom_site_label
_atom_site_type_symbol
_atom_site_fract_x
_atom_site_fract_y
_atom_site_fract_z
O1	O	1.186829	0.109463	-0.079053
O2	O	1.686829	0.609463	0.420947
O3	O	0.926415	0.122572	-0.079079
O4	O	1.426415	0.622572	0.420921
O5	O	1.063733	-0.006251	-0.079057
O6	O	1.563733	0.493749	0.420943
O7	O	1.049510	0.238286	-0.079076
O8	O	1.549510	0.738286	0.420924
O9	O	1.063717	-0.006258	0.079264
O10	O	1.563717	0.493742	0.579264
O11	O	0.926398	0.122564	0.079242
O12	O	1.426398	0.622564	0.579242
O13	O	1.186812	0.109456	0.079268
O14	O	1.686812	0.609456	0.579268
Zn15	Zn	1.056603	0.116009	0.104392
Zn16	Zn	1.556603	0.616009	0.604392
Zn17	Zn	1.056624	0.116019	-0.104203
Zn18	Zn	1.556624	0.616019	0.395797
O19	O	1.049494	0.238278	0.079246
O20	O	1.549494	0.738278	0.579246
C21	C	0.893082	0.121982	0.000078
C22	C	1.393082	0.621982	0.500078
C23	C	0.793787	0.120225	0.000068
C24	C	1.293787	0.620225	0.500068
C25	C	0.736480	0.195904	0.000064
C26	C	1.236480	0.695904	0.500064
C27	C	0.643182	0.194249	0.000078
C28	C	1.143182	0.694249	0.500078
C29	C	0.607194	0.116913	0.000090
C30	C	1.107194	0.616913	0.500090
C31	C	0.664508	0.041227	0.000097
C32	C	1.164508	0.541227	0.500097
C33	C	0.757804	0.042884	0.000090
C34	C	1.257804	0.542884	0.500090
C35	C	0.470049	0.037780	0.000111
C36	C	0.970049	0.537780	0.500111
C37	C	0.376747	0.036123	0.000116
C38	C	0.876747	0.536123	0.500116
C39	C	0.355428	0.189145	0.000099
C40	C	0.855428	0.689145	0.500099
C41	C	0.448724	0.190801	0.000092
C42	C	0.948724	0.690801	0.500092
C43	C	0.506032	0.115116	0.000097
C44	C	1.006032	0.615116	0.500097
C45	C	1.063134	-0.037549	0.000104
C46	C	1.563134	0.462451	0.500104
C47	C	1.061364	-0.130797	0.000104
C48	C	1.561364	0.369203	0.500104
C49	C	0.972017	-0.345738	0.000082
C50	C	1.472017	0.154262	0.500082
C51	C	1.013499	-0.406720	0.078148
C52	C	1.513499	0.093280	0.578148
C53	C	1.058162	-0.301526	0.000096
C54	C	1.558162	0.198474	0.500096
C55	C	1.013535	-0.406696	-0.077944
C56	C	1.513535	0.093304	0.422056
C57	C	1.055062	-0.466441	0.000085
C58	C	1.555062	0.033559	0.500085
C59	C	1.099667	-0.361279	0.078227
C60	C	1.599667	0.138721	0.578227
C61	C	1.099692	-0.361248	-0.077935
C62	C	1.599692	0.138752	0.422065
C63	C	1.141236	-0.422212	0.000150
C64	C	1.641236	0.077788	0.500150
C65	C	1.059945	-0.206522	0.000104
C66	C	1.559945	0.293478	0.500104
C67	C	1.053286	-0.561444	0.000084
C68	C	1.553286	-0.061444	0.500084
C69	C	1.220145	0.110046	0.000109
C70	C	1.720145	0.610046	0.500109
C71	C	1.319440	0.111802	0.000112
C72	C	1.819440	0.611802	0.500112
C73	C	1.050093	0.269576	0.000083
C74	C	1.550093	0.769576	0.500083
C75	C	1.051863	0.362824	0.000076
C76	C	1.551863	0.862824	0.500076
N77	N	1.056594	0.116001	0.246753
N78	N	1.556594	0.616001	0.746753
N79	N	1.056640	0.116019	-0.246564
N80	N	1.556640	0.616019	0.253436
C81	C	1.117418	0.058982	0.296581
C82	C	1.617418	0.558982	0.796581
C83	C	1.117424	0.058982	0.396238
C84	C	1.617424	0.558982	0.896238
C85	C	1.056610	0.116005	0.446066
C86	C	1.556610	0.616005	0.946066
C87	C	0.995780	0.173027	0.396231
C88	C	1.495780	0.673027	0.896231
C89	C	0.995770	0.173022	0.296575
C90	C	1.495770	0.673022	0.796575
C91	C	0.995806	0.173033	0.603945
C92	C	1.495806	0.673033	1.103945
C93	C	0.995816	0.173038	0.703608
C94	C	1.495816	0.673038	1.203608
C95	C	1.117459	0.058992	0.703608
C96	C	1.617459	0.558992	1.203608
C97	C	1.117450	0.058988	0.603952
C98	C	1.617450	0.558988	1.103952
C99	C	1.056621	0.116011	0.554124
C100	C	1.556621	0.616011	1.054124
H101	H	0.308763	0.250771	0.000099
H102	H	0.808763	0.750771	0.500099
H103	H	1.166988	0.012562	0.744184
H104	H	1.666988	0.512562	1.244184
N105	N	0.627749	-0.037770	0.000130
N106	N	1.127749	0.462230	0.500130
N107	N	0.578072	-0.055768	0.066873
N108	N	1.078072	0.444232	0.566873
H109	H	0.552112	-0.111562	0.066895
H110	H	1.052112	0.388438	0.566895
N111	N	1.231006	-0.463746	0.000222
N112	N	1.731006	0.036254	0.500222
N113	N	1.244219	-0.542556	-0.000398
N114	N	1.744219	-0.042556	0.499602
H115	H	1.307618	-0.571892	-0.000342
H116	H	1.807618	-0.071892	0.499658
H117	H	1.166943	0.012551	0.256017
H118	H	1.666943	0.512551	0.756017
N119	N	0.967807	-0.431936	-0.160727
N120	N	1.467807	0.068064	0.339273
N121	N	0.887415	-0.404239	-0.174621
N122	N	1.387415	0.095761	0.325379
H123	H	0.855112	-0.422062	-0.233083
H124	H	1.355112	0.077938	0.266917
N125	N	0.882313	-0.304047	0.000173
N126	N	1.382313	0.195953	0.500173
N127	N	0.830171	-0.315956	0.067092
N128	N	1.330171	0.184044	0.567092
H129	H	0.766819	-0.286512	0.067160
H130	H	1.266819	0.213488	0.567160
N131	N	0.339972	-0.042867	0.000124
N132	N	0.839972	0.457133	0.500124
N133	N	0.290289	-0.060861	-0.066608
N134	N	0.790289	0.439139	0.433392
H135	H	0.264316	-0.116649	-0.066604
H136	H	0.764316	0.383351	0.433396
N137	N	0.528576	-0.039538	0.000129
N138	N	1.028576	0.460462	0.500129
N139	N	0.496435	-0.108584	0.000141
N140	N	0.996435	0.391416	0.500141
H141	H	0.537769	-0.163189	0.000152
H142	H	1.037769	0.336811	0.500152
N143	N	0.816332	-0.034429	0.000105
N144	N	1.316332	0.465571	0.500105
N145	N	0.784190	-0.103474	0.000120
N146	N	1.284190	0.396526	0.500120
H147	H	0.825525	-0.158080	0.000137
H148	H	1.325525	0.341920	0.500137
N149	N	0.967775	-0.431989	0.160930
N150	N	1.467775	0.068011	0.660930
N151	N	0.887381	-0.404303	0.174830
N152	N	1.387381	0.095697	0.674830
H153	H	0.855082	-0.422146	0.233292
H154	H	1.355082	0.077854	0.733292
H155	H	0.946259	0.219453	0.436807
H156	H	1.446259	0.719453	0.936807
N157	N	0.584640	0.271551	0.000097
N158	N	1.084640	0.771551	0.500097
N159	N	0.530219	0.287692	0.066850
N160	N	1.030219	0.787692	0.566850
H161	H	0.488875	0.342292	0.066873
H162	H	0.988875	0.842292	0.566873
H163	H	1.136066	-0.341257	0.144298
H164	H	1.636066	0.158743	0.644298
H165	H	1.136103	-0.341080	-0.143930
H166	H	1.636103	0.158920	0.356070
N167	N	1.179557	0.000729	0.447121
N168	N	1.679557	0.500729	0.947121
N169	N	1.233853	-0.050177	0.402621
N170	N	1.733853	0.449823	0.902621
H171	H	1.277736	-0.091322	0.438556
H172	H	1.777736	0.408678	0.938556
N173	N	0.933681	0.231281	0.754493
N174	N	1.433681	0.731281	1.254493
N175	N	0.879363	0.282178	0.709996
N176	N	1.379363	0.782178	1.209996
H177	H	0.835475	0.323310	0.745933
H178	H	1.335475	0.823310	1.245933
N179	N	1.179621	0.000780	0.553067
N180	N	1.679621	0.500780	1.053067
N181	N	1.233955	-0.050103	0.597565
N182	N	1.733955	0.449897	1.097565
H183	H	1.277879	-0.091200	0.561628
H184	H	1.777879	0.408800	1.061628
N185	N	0.933661	0.231282	0.553061
N186	N	1.433661	0.731282	1.053061
N187	N	0.879369	0.282194	0.597558
N188	N	1.379369	0.782194	1.097558
H189	H	0.835482	0.323335	0.561621
H190	H	1.335482	0.823335	1.061621
N191	N	0.933630	0.231268	0.245689
N192	N	1.433630	0.731268	0.745689
N193	N	0.879335	0.282178	0.290186
N194	N	1.379335	0.782178	0.790186
H195	H	0.835444	0.323314	0.254249
H196	H	1.335444	0.823314	0.754249
H197	H	0.765774	0.258881	0.000053
H198	H	1.265774	0.758881	0.500053
H199	H	0.478022	0.253775	0.000073
H200	H	0.978022	0.753775	0.500073
