data_functionalizedCrystal
_audit_creation_method	'MofGen! by Chris Wilmer'
_symmetry_space_group_name_H-M	'P1'
_symmetry_Int_Tables_number	1
_symmetry_cell_setting	triclinic
loop_
_symmetry_equiv_pos_as_xyz
  x,y,z
_cell_length_a	16.959447
_cell_length_b	14.908571
_cell_length_c	14.908520
_cell_angle_alpha	90.205961
_cell_angle_beta	86.733916
_cell_angle_gamma	93.308220
loop_
_atom_site_label
_atom_site_type_symbol
_atom_site_fract_x
_atom_site_fract_y
_atom_site_fract_z
Zn1	Zn	-0.537362	-1.353918	0.437386
Zn2	Zn	-0.412339	-1.345146	0.587755
Zn3	Zn	-0.397172	-1.203565	0.428733
Zn4	Zn	-0.536448	-1.194846	0.579010
O5	O	-0.470830	-1.274369	0.508221
O6	O	-0.527507	-1.478579	0.464614
O7	O	-0.299717	-1.326343	0.566700
O8	O	-0.409803	-1.230830	0.304059
O9	O	-0.435653	-1.472134	0.575090
O10	O	-0.512800	-1.341294	0.310416
O11	O	-0.288573	-1.222324	0.449866
O12	O	-0.408917	-1.076585	0.441386
O13	O	-0.647179	-1.215970	0.560184
O14	O	-0.511243	-1.070179	0.551794
O15	O	-0.647850	-1.332840	0.456134
O16	O	-0.434768	-1.317888	0.712417
O17	O	-0.525950	-1.207464	0.705992
C18	C	-0.481924	-1.260802	0.741830
C19	C	-0.486701	-1.255081	0.841773
C20	C	-0.458335	-1.040757	0.494703
C21	C	-0.453010	-0.940815	0.488942
C22	C	-0.676997	-1.274411	0.508149
C23	C	-0.764853	-1.274429	0.508118
C24	C	-1.135983	-1.213693	0.562204
C25	C	-1.136677	-1.335390	0.453855
C26	C	-1.054131	-1.335365	0.453873
C27	C	-1.012507	-1.274504	0.508058
C28	C	-1.053429	-1.213668	0.562225
C29	C	-1.013203	-1.396206	0.399713
C30	C	-0.930651	-1.396184	0.399729
C31	C	-0.889025	-1.335318	0.453910
C32	C	-0.929953	-1.274479	0.508079
C33	C	-0.888329	-1.213617	0.562264
C34	C	-0.929254	-1.152773	0.616429
C35	C	-1.011803	-1.152801	0.616406
C36	C	-0.806477	-1.335290	0.453933
C37	C	-0.805775	-1.213592	0.562285
C38	C	-0.265465	-1.274383	0.508231
C39	C	-0.177607	-1.274554	0.508019
C40	C	-0.483374	-1.508893	0.521793
C41	C	-0.488719	-1.608834	0.527576
C42	C	-0.549427	-0.746382	0.593261
C43	C	-0.544426	-0.652478	0.587851
C44	C	-0.438011	-0.659101	0.472706
C45	C	-0.443012	-0.753005	0.478116
C46	C	-0.498721	-0.796642	0.538397
C47	C	-0.503718	-0.890548	0.543812
C48	C	-0.397307	-0.897170	0.428663
C49	C	-0.392306	-0.803266	0.423252
C50	C	-0.459711	-1.288013	0.273702
C51	C	-0.454973	-1.293828	0.173763
C52	C	-0.400817	-1.359432	1.036214
C53	C	-0.405303	-1.354059	1.130120
C54	C	-0.500163	-1.238967	1.123494
C55	C	-0.495677	-1.244340	1.029587
C56	C	-0.446001	-1.304574	0.985951
C57	C	-0.441512	-1.309941	0.892043
C58	C	-0.536375	-1.194854	0.885418
C59	C	-0.540861	-1.189481	0.979324
H60	H	-0.771890	-1.164023	0.606401
H61	H	-0.346952	-0.767723	0.374171
H62	H	-0.360363	-1.408471	1.000685
H63	H	-0.895354	-1.103224	0.660550
H64	H	-0.368511	-1.398733	1.171041
H65	H	-0.540611	-1.189933	1.159039
H66	H	-0.401061	-1.358984	0.856515
H67	H	-0.581307	-1.140443	1.014866
H68	H	-0.573165	-1.150182	0.844483
H69	H	-0.392661	-0.623556	0.423623
H70	H	-1.045132	-1.103268	0.660507
H71	H	-1.169308	-1.164152	0.606301
H72	H	-0.356017	-0.938102	0.383990
H73	H	-0.549078	-0.926076	0.592897
H74	H	-1.170572	-1.384945	0.409745
H75	H	-0.897337	-1.445727	0.355625
H76	H	-1.047099	-1.445761	0.355605
H77	H	-0.773159	-1.384831	0.409836
H78	H	-0.585718	-0.611559	0.632525
H79	H	-0.594784	-0.781912	0.642349
