data_functionalizedCrystal
_audit_creation_method	'MofGen! by Chris Wilmer'
_symmetry_space_group_name_H-M	'P1'
_symmetry_Int_Tables_number	1
_symmetry_cell_setting	triclinic
loop_
_symmetry_equiv_pos_as_xyz
  x,y,z
_cell_length_a	6.817900
_cell_length_b	13.694001
_cell_length_c	12.200875
_cell_angle_alpha	78.571941
_cell_angle_beta	107.143593
_cell_angle_gamma	106.288079
loop_
_atom_site_label
_atom_site_type_symbol
_atom_site_fract_x
_atom_site_fract_y
_atom_site_fract_z
V1	V	-4.058844	-0.140472	-0.313583
O2	O	-4.055479	0.006513	-0.352896
O3	O	-4.000781	-0.278304	-0.267887
O4	O	-4.028705	-0.138415	-0.470217
O5	O	-4.027361	-0.134344	-0.149166
V6	V	-4.541357	-0.122879	-0.299208
O7	O	-4.322316	-0.179065	-0.345116
O8	O	-4.728082	-0.084286	-0.267675
O9	O	-4.376213	0.014954	-0.344904
O10	O	-4.662119	-0.269864	-0.259895
O11	O	-4.690237	-0.129006	-0.463625
O12	O	-4.348289	-0.124935	-0.142574
C13	C	-3.842840	-0.311902	-0.251703
C14	C	-3.876775	-0.424582	-0.215385
C15	C	-4.178337	-0.800385	-0.514962
C16	C	-4.146469	-0.694517	-0.549090
C17	C	-4.079044	-0.627028	-0.465667
C18	C	-4.043490	-0.665417	-0.348110
C19	C	-4.075377	-0.771296	-0.313979
C20	C	-3.976084	-0.597939	-0.264684
C21	C	-3.940530	-0.636329	-0.147127
C22	C	-3.972414	-0.742197	-0.113002
C23	C	-4.039839	-0.809686	-0.196425
C24	C	-3.944197	-0.492061	-0.298814
C25	C	-3.841237	-0.462972	-0.097831
C26	C	-3.873105	-0.568840	-0.063704
C27	C	-3.878460	-0.133458	-0.509793
C28	C	-3.935038	-0.132688	-0.637556
C29	C	-4.038584	-0.131280	-0.871472
C30	C	-3.980955	-0.132063	-0.741304
C31	C	-4.197495	0.048546	-0.361084
C32	C	-4.142799	0.161225	-0.397408
C33	C	-4.161876	-0.129896	-0.102991
C34	C	-4.084536	-0.130660	0.024771
H35	H	-3.943485	-0.773450	-0.017280
H36	H	-4.065788	-0.895893	-0.168644
H37	H	-3.786339	-0.408022	-0.029901
H38	H	-4.175407	-0.663268	-0.644804
H39	H	-3.973163	-0.460816	-0.394530
H40	H	-3.844164	-0.600112	0.032013
H41	H	-4.233251	-0.855343	-0.582873
H42	H	-4.053098	-0.540827	-0.493460
