data_functionalizedCrystal
_audit_creation_method	'MofGen! by Chris Wilmer'
_symmetry_space_group_name_H-M	'P1'
_symmetry_Int_Tables_number	1
_symmetry_cell_setting	triclinic
loop_
_symmetry_equiv_pos_as_xyz
  x,y,z
_cell_length_a	6.817900
_cell_length_b	11.102188
_cell_length_c	19.453114
_cell_angle_alpha	94.506017
_cell_angle_beta	101.709288
_cell_angle_gamma	108.603875
loop_
_atom_site_label
_atom_site_type_symbol
_atom_site_fract_x
_atom_site_fract_y
_atom_site_fract_z
V1	V	-4.033145	-0.177162	-0.218999
O2	O	-3.993679	0.007152	-0.214830
O3	O	-4.010448	-0.349973	-0.217501
O4	O	-3.975743	-0.175034	-0.314512
O5	O	-4.028624	-0.168998	-0.117148
V6	V	-4.514608	-0.155045	-0.206817
O7	O	-4.298920	-0.225677	-0.245722
O8	O	-4.699030	-0.106531	-0.180094
O9	O	-4.314098	0.017766	-0.208315
O10	O	-4.671471	-0.339359	-0.210986
O11	O	-4.636525	-0.163210	-0.308668
O12	O	-4.348803	-0.157173	-0.111304
C13	C	-3.861993	-0.392082	-0.214047
C14	C	-3.924663	-0.533361	-0.213459
C15	C	-3.817722	-0.168929	-0.337792
C16	C	-3.852244	-0.168333	-0.415875
C17	C	-3.916957	-0.581196	-0.148860
C18	C	-3.975865	-0.713944	-0.148311
C19	C	-4.050175	-0.751012	-0.276963
C20	C	-3.991282	-0.618266	-0.277512
C21	C	-4.129179	-0.877264	-0.072533
C22	C	-4.121438	-0.925101	-0.007930
C23	C	-3.952039	-0.861484	0.050937
C24	C	-3.790330	-0.750029	0.045205
C25	C	-3.798057	-0.702198	-0.019398
C26	C	-3.967501	-0.765814	-0.078263
C27	C	-3.837948	-0.454942	-0.353286
C28	C	-3.845659	-0.407109	-0.417889
C29	C	-4.015049	-0.470725	-0.476762
C30	C	-4.176733	-0.582185	-0.471037
C31	C	-4.169021	-0.630019	-0.406433
C32	C	-3.999631	-0.566394	-0.347560
C33	C	-4.051193	-0.174432	-0.456132
C34	C	-4.083630	-0.173872	-0.529499
C35	C	-3.917119	-0.167238	-0.562608
C36	C	-3.718139	-0.161131	-0.522341
C37	C	-3.685701	-0.161678	-0.448974
N38	N	-3.867359	-0.234355	-0.681397
N39	N	-3.898187	-0.233838	-0.751092
C40	C	-4.014840	-0.165586	-0.783656
N41	N	-4.099538	-0.097887	-0.743893
N42	N	-4.068716	-0.098410	-0.674192
C43	C	-3.952272	-0.166643	-0.642161
C44	C	-4.248973	-0.171077	-0.903466
C45	C	-4.281399	-0.170508	-0.976833
C46	C	-3.915908	-0.157780	-0.969674
C47	C	-3.883481	-0.158336	-0.896308
C48	C	-4.050024	-0.164990	-0.863208
C49	C	-4.125896	0.059868	-0.211767
C50	C	-4.042464	0.201146	-0.212360
C51	C	-4.170167	-0.163283	-0.088020
C52	C	-4.114883	-0.163873	-0.009937
H53	H	-3.862714	-0.512069	-0.096703
O54	O	-3.623663	-0.581996	-0.025583
H55	H	-3.657500	-0.559426	-0.080396
H56	H	-3.713982	-0.316359	-0.422550
H57	H	-4.021301	-0.431773	-0.529367
O58	O	-3.668905	-0.151769	-0.852878
H59	H	-3.629808	-0.235688	-0.872734
H60	H	-4.245647	-0.178845	-0.562283
H61	H	-3.780325	-0.152368	-0.996630
H62	H	-4.186807	-0.179845	-0.429187
H63	H	-4.384580	-0.176490	-0.876515
H64	H	-3.582564	-0.155726	-0.549302
H65	H	-3.523685	-0.156702	-0.416196
H66	H	-3.700008	-0.403132	-0.305348
H67	H	-3.652383	-0.698247	0.093141
H68	H	-3.945741	-0.900443	0.103538
H69	H	-4.253117	-1.015851	-0.003268
O70	O	-4.495980	-0.177063	-1.020257
H71	H	-4.606328	-0.181786	-0.984912
O72	O	-4.311920	-0.945877	-0.136022
H73	H	-4.290154	-0.893885	-0.181905
O74	O	-4.122022	-0.842585	-0.346049
H75	H	-4.161665	-0.942928	-0.334815
H76	H	-4.300681	-0.720780	-0.401776
H77	H	-4.314658	-0.633989	-0.518977
