data_functionalizedCrystal
_audit_creation_method	'MofGen! by Chris Wilmer'
_symmetry_space_group_name_H-M	'P1'
_symmetry_Int_Tables_number	1
_symmetry_cell_setting	triclinic
loop_
_symmetry_equiv_pos_as_xyz
  x,y,z
_cell_length_a	8.559649
_cell_length_b	11.026607
_cell_length_c	7.681481
_cell_angle_alpha	82.996689
_cell_angle_beta	94.913240
_cell_angle_gamma	89.182341
loop_
_atom_site_label
_atom_site_type_symbol
_atom_site_fract_x
_atom_site_fract_y
_atom_site_fract_z
O1	O	2.097103	-0.027535	-0.146401
O2	O	1.649454	0.033500	-0.146409
O3	O	1.836178	-0.170213	-0.146399
O4	O	1.910379	0.176178	-0.146411
O5	O	1.859146	-0.195338	0.146460
O6	O	1.672422	0.008376	0.146450
O7	O	2.120071	-0.052659	0.146458
Zn8	Zn	1.899893	-0.026131	0.192952
Zn9	Zn	1.869632	0.006971	-0.192903
O10	O	1.933347	0.151054	0.146448
C11	C	1.602739	0.025563	0.000020
C12	C	1.429318	0.039332	0.000016
C13	C	1.833973	-0.226711	0.000028
C14	C	1.793166	-0.357621	0.000021
C15	C	1.905841	-0.441927	0.000020
C16	C	1.863667	-0.577231	0.000013
C17	C	2.166786	-0.044722	0.000026
C18	C	2.340205	-0.058490	0.000017
C19	C	1.935551	0.207552	0.000017
C20	C	1.976358	0.338463	0.000013
N21	N	1.920557	-0.048724	0.456287
N22	N	1.848978	0.029554	-0.456238
H23	H	1.372932	0.133621	0.000004
H24	H	2.033528	-0.413937	0.000034
H25	H	1.775907	0.109454	0.468561
F26	F	2.016090	-0.153156	0.554586
H27	H	2.104043	-0.633543	-0.000117
H28	H	1.665478	-0.385611	0.000007
F29	F	1.413891	-0.181726	0.000012
F30	F	1.696757	-0.613802	-0.000006
