data_functionalizedCrystal
_audit_creation_method	'MofGen! by Chris Wilmer'
_symmetry_space_group_name_H-M	'P1'
_symmetry_Int_Tables_number	1
_symmetry_cell_setting	triclinic
loop_
_symmetry_equiv_pos_as_xyz
  x,y,z
_cell_length_a	16.974800
_cell_length_b	15.455313
_cell_length_c	16.974813
_cell_angle_alpha	89.012317
_cell_angle_beta	83.627081
_cell_angle_gamma	90.973911
loop_
_atom_site_label
_atom_site_type_symbol
_atom_site_fract_x
_atom_site_fract_y
_atom_site_fract_z
O1	O	1.049303	-0.005495	0.100458
O2	O	0.819898	-0.022451	0.112492
O3	O	0.940611	-0.005496	-0.008229
O4	O	0.928591	-0.022451	0.221179
O5	O	0.933708	0.137799	-0.001354
O6	O	0.812995	0.120843	0.119367
O7	O	1.042400	0.137799	0.107332
Cu8	Cu	0.927068	0.142405	0.113978
Cu9	Cu	0.935231	-0.027057	0.105847
O10	O	0.921688	0.120844	0.228054
C11	C	0.787086	0.047175	0.115346
C12	C	0.699600	0.041154	0.113597
C13	C	0.654741	0.116437	0.116521
C14	C	0.572541	0.110782	0.114866
C15	C	0.535200	0.029844	0.110292
C16	C	0.580066	-0.045445	0.107365
C17	C	0.662265	-0.039789	0.109015
C18	C	0.289764	0.004554	0.104950
C19	C	0.207558	-0.001096	0.103303
C20	C	0.200039	0.155132	0.110802
C21	C	0.282240	0.160780	0.112457
C22	C	0.327098	0.085492	0.109526
N23	N	0.451178	0.024062	0.108602
N24	N	0.411120	0.091275	0.111210
C25	C	1.075213	0.068171	0.104479
C26	C	1.162699	0.074187	0.106227
N27	N	0.921331	0.261596	0.119695
N28	N	0.940973	-0.146247	0.100123
C29	C	0.936574	0.068171	-0.034153
C30	C	0.934820	0.074186	-0.121639
C31	C	0.972632	0.314194	0.068428
C32	C	0.968302	0.404393	0.072759
C33	C	0.912673	0.441994	0.128363
C34	C	0.861367	0.389389	0.179633
C35	C	0.865694	0.299192	0.175297
C36	C	0.893994	0.710950	0.147057
C37	C	0.889672	0.801155	0.151391
C38	C	0.996607	0.816153	0.044516
C39	C	1.000932	0.725953	0.040188
C40	C	0.949623	0.673356	0.091455
N41	N	0.908247	0.534192	0.132793
N42	N	0.954046	0.581160	0.087020
C43	C	0.937761	-0.001097	-0.166483
C44	C	0.936108	0.004558	-0.248685
C45	C	0.931519	0.085496	-0.286042
C46	C	0.928576	0.160785	-0.241192
C47	C	0.930224	0.155129	-0.158990
C48	C	0.926183	0.110787	-0.531485
C49	C	0.924538	0.116437	-0.613692
C50	C	0.932068	-0.039791	-0.621180
C51	C	0.933720	-0.045439	-0.538978
C52	C	0.930773	0.029849	-0.494134
N53	N	0.929832	0.091278	-0.370066
N54	N	0.932454	0.024066	-0.410111
C55	C	0.925725	0.047175	0.253977
C56	C	0.927479	0.041154	0.341463
H57	H	0.326278	-0.056751	0.102561
C58	C	0.711614	-0.122598	0.105800
H59	H	0.765917	-0.107638	0.107430
H60	H	0.693782	-0.159262	0.149901
H61	H	0.705595	-0.151976	0.058071
H62	H	0.549657	-0.111346	0.103635
H63	H	0.312637	0.226689	0.116177
H64	H	0.685137	0.182345	0.120253
H65	H	0.177157	-0.067010	0.099580
C66	C	0.919494	0.205472	-0.654788
H67	H	0.918947	0.198055	-0.710168
H68	H	0.872306	0.233005	-0.633878
H69	H	0.964136	0.240277	-0.645682
C70	C	1.053034	0.874010	-0.011880
H71	H	1.042487	0.933114	-0.001341
H72	H	1.106355	0.862297	-0.003890
H73	H	1.045059	0.862320	-0.065210
H74	H	0.923799	0.172093	-0.494985
H75	H	0.163506	0.216427	0.113187
C76	C	0.923532	0.249816	-0.282282
H77	H	0.922981	0.242404	-0.337662
H78	H	0.876345	0.277348	-0.261367
H79	H	0.968175	0.284620	-0.273177
C80	C	1.024740	0.462247	0.016372
H81	H	1.058498	0.426935	-0.017355
H82	H	0.994641	0.497761	-0.014826
H83	H	1.055917	0.497728	0.046515
H84	H	1.017934	0.283586	0.023153
H85	H	0.927818	0.216432	-0.122477
C86	C	0.828437	0.842514	0.212515
H87	H	0.798482	0.798272	0.242411
H88	H	0.855127	0.877393	0.247109
H89	H	0.793903	0.877384	0.185716
C90	C	1.062119	0.684598	-0.020981
H91	H	1.092048	0.728843	-0.050899
H92	H	1.096673	0.649709	0.005766
H93	H	1.035379	0.649739	-0.055558
H94	H	0.816069	0.420009	0.224904
C95	C	0.523135	0.193552	0.118560
H96	H	0.468815	0.178583	0.117058
H97	H	0.529325	0.222598	0.166416
H98	H	0.540762	0.230524	0.074613
C99	C	0.837563	0.653106	0.203455
H100	H	0.803822	0.688420	0.237197
H101	H	0.806382	0.617620	0.173328
H102	H	0.867676	0.617596	0.234651
C103	C	0.809267	0.241331	0.231691
H104	H	0.819806	0.182227	0.221141
H105	H	0.817230	0.253015	0.285021
H106	H	0.755945	0.253045	0.223689
C107	C	0.942807	-0.090130	-0.125398
H108	H	0.944314	-0.134156	-0.163881
H109	H	0.989518	-0.091948	-0.099393
H110	H	0.897688	-0.099222	-0.087581
C111	C	0.939328	-0.078255	-0.298009
H112	H	0.942302	-0.127268	-0.263988
H113	H	0.892924	-0.082929	-0.324316
H114	H	0.984754	-0.075665	-0.336145
C115	C	0.938757	-0.134473	-0.497890
H116	H	0.940264	-0.178501	-0.536370
H117	H	0.985466	-0.136291	-0.471882
H118	H	0.893636	-0.143560	-0.460074
H119	H	0.934466	-0.101086	-0.657701
