data_functionalizedCrystal
_audit_creation_method	'MofGen! by Chris Wilmer'
_symmetry_space_group_name_H-M	'P1'
_symmetry_Int_Tables_number	1
_symmetry_cell_setting	triclinic
loop_
_symmetry_equiv_pos_as_xyz
  x,y,z
_cell_length_a	17.699083
_cell_length_b	23.532407
_cell_length_c	16.176319
_cell_angle_alpha	89.988536
_cell_angle_beta	89.998611
_cell_angle_gamma	83.065847
loop_
_atom_site_label
_atom_site_type_symbol
_atom_site_fract_x
_atom_site_fract_y
_atom_site_fract_z
O1	O	1.003713	0.072020	-0.068639
O2	O	1.503713	0.572020	0.431361
O3	O	0.783287	0.081390	-0.068667
O4	O	1.283287	0.581390	0.431333
O5	O	0.900147	-0.006208	-0.068637
O6	O	1.400147	0.493792	0.431363
O7	O	0.886853	0.159618	-0.068669
O8	O	1.386853	0.659618	0.431331
O9	O	0.900131	-0.006213	0.068856
O10	O	1.400131	0.493787	0.568856
O11	O	0.783271	0.081384	0.068826
O12	O	1.283271	0.581384	0.568826
O13	O	1.003697	0.072014	0.068854
O14	O	1.503697	0.572014	0.568854
Cu15	Cu	0.893483	0.076699	0.081394
Cu16	Cu	1.393483	0.576699	0.581394
Cu17	Cu	0.893502	0.076705	-0.081207
Cu18	Cu	1.393502	0.576705	0.418793
O19	O	0.886837	0.159612	0.068824
O20	O	1.386837	0.659612	0.568824
C21	C	0.755084	0.081051	0.000076
C22	C	1.255084	0.581051	0.500076
C23	C	0.671071	0.080044	0.000066
C24	C	1.171071	0.580044	0.500066
C25	C	0.622189	0.131462	0.000056
C26	C	1.122189	0.631462	0.500056
C27	C	0.543251	0.130512	0.000067
C28	C	1.043251	0.630512	0.500067
C29	C	0.513196	0.078144	0.000082
C30	C	1.013196	0.578144	0.500082
C31	C	0.562084	0.026722	0.000094
C32	C	1.062084	0.526722	0.500094
C33	C	0.641021	0.027672	0.000089
C34	C	1.141021	0.527672	0.500089
C35	C	0.243740	0.022888	0.000115
C36	C	0.743740	0.522888	0.500115
C37	C	0.164797	0.021942	0.000117
C38	C	0.664797	0.521942	0.500117
C39	C	0.145970	0.125728	0.000093
C40	C	0.645970	0.625728	0.500093
C41	C	0.224907	0.126678	0.000088
C42	C	0.724907	0.626678	0.500088
C43	C	0.273788	0.075257	0.000105
C44	C	0.773788	0.575257	0.500105
C45	C	0.359382	0.076287	0.000094
C46	C	0.859382	0.576287	0.500094
C47	C	0.427603	0.077113	0.000086
C48	C	0.927603	0.577113	0.500086
C49	C	0.899801	-0.027427	0.000111
C50	C	1.399801	0.472573	0.500111
C51	C	0.898783	-0.090647	0.000118
C52	C	1.398783	0.409353	0.500118
C53	C	0.961554	-0.489570	0.000080
C54	C	1.461554	0.010430	0.500080
C55	C	0.960609	-0.548973	0.000074
C56	C	1.460609	-0.048973	0.500074
O57	O	1.018799	-0.585550	0.000051
O58	O	1.518799	-0.085550	0.500051
N59	N	0.891136	-0.571799	0.000066
N60	N	1.391136	-0.071799	0.500066
C61	C	0.822604	-0.535218	0.000055
C62	C	1.322604	-0.035218	0.500055
O63	O	0.763424	-0.560088	0.000047
O64	O	1.263424	-0.060088	0.500047
C65	C	0.823550	-0.475816	0.000056
C66	C	1.323550	0.024184	0.500056
C67	C	0.893028	-0.452994	0.000073
C68	C	1.393028	0.047006	0.500073
C69	C	1.031026	-0.466747	0.000096
C70	C	1.531026	0.033253	0.500096
C71	C	1.031972	-0.407348	0.000104
C72	C	1.531972	0.092652	0.500104
C73	C	0.963445	-0.370772	0.000096
C74	C	1.463445	0.129228	0.500096
C75	C	0.893973	-0.393595	0.000080
C76	C	1.393973	0.106405	0.500080
C77	C	0.755019	-0.439237	0.000040
C78	C	1.255019	0.060763	0.500040
C79	C	0.755971	-0.379832	0.000039
C80	C	1.255971	0.120168	0.500039
C81	C	0.825448	-0.357009	0.000056
C82	C	1.325448	0.142991	0.500056
C83	C	0.826391	-0.297620	0.000081
C84	C	1.326391	0.202380	0.500081
N85	N	0.895864	-0.274795	0.000089
N86	N	1.395864	0.225205	0.500089
C87	C	0.964391	-0.311371	0.000097
C88	C	1.464391	0.188629	0.500097
C89	C	0.820622	-0.659966	0.000053
C90	C	1.320622	-0.159966	0.500053
C91	C	0.819674	-0.719367	0.000058
C92	C	1.319674	-0.219367	0.500058
C93	C	0.957680	-0.733118	0.000075
C94	C	1.457680	-0.233118	0.500075
C95	C	0.958626	-0.673716	0.000076
C96	C	1.458626	-0.173716	0.500076
C97	C	0.890095	-0.637141	0.000061
C98	C	1.390095	-0.137141	0.500061
C99	C	0.966371	-0.186628	0.000114
C100	C	1.466371	0.313372	0.500114
C101	C	0.967310	-0.127223	0.000125
C102	C	1.467310	0.372777	0.500125
C103	C	0.829305	-0.113478	0.000104
C104	C	1.329305	0.386522	0.500104
C105	C	0.828365	-0.172877	0.000097
C106	C	1.328365	0.327123	0.500097
C107	C	0.896904	-0.209452	0.000099
C108	C	1.396904	0.290548	0.500099
O109	O	0.768232	-0.261008	0.000100
O110	O	1.268232	0.238992	0.500100
O111	O	1.023560	-0.286493	0.000094
O112	O	1.523560	0.213507	0.500094
C113	C	1.031901	0.072353	0.000109
C114	C	1.531901	0.572353	0.500109
C115	C	1.115914	0.073360	0.000114
C116	C	1.615914	0.573360	0.500114
C117	C	0.887184	0.180832	0.000073
C118	C	1.387184	0.680832	0.500073
C119	C	0.888202	0.244052	0.000062
C120	C	1.388202	0.744052	0.500062
N121	N	0.893475	0.076694	0.195759
N122	N	1.393475	0.576694	0.695759
N123	N	0.893516	0.076706	-0.195573
N124	N	1.393516	0.576706	0.304427
C125	C	0.945236	0.037921	0.239037
C126	C	1.445236	0.537921	0.739037
C127	C	0.945240	0.037921	0.325584
C128	C	1.445240	0.537921	0.825584
C129	C	0.893486	0.076696	0.368852
C130	C	1.393486	0.576696	0.868852
C131	C	0.841719	0.115470	0.325568
C132	C	1.341719	0.615470	0.825568
C133	C	0.841713	0.115467	0.239023
C134	C	1.341713	0.615467	0.739023
C135	C	0.841745	0.115481	0.674597
C136	C	1.341745	0.615481	1.174597
C137	C	0.841758	0.115481	0.761148
C138	C	1.341758	0.615481	1.261148
C139	C	0.945273	0.037934	0.761158
C140	C	1.445273	0.537934	1.261158
C141	C	0.945266	0.037932	0.674612
C142	C	1.445266	0.537932	1.174612
C143	C	0.893497	0.076704	0.631336
C144	C	1.393497	0.576704	1.131336
C145	C	0.893493	0.076703	0.537492
C146	C	1.393493	0.576703	1.037492
C147	C	0.893493	0.076700	0.462695
C148	C	1.393493	0.576700	0.962695
H149	H	0.140330	-0.020705	0.000130
H150	H	0.640330	0.479295	0.500130
C151	C	1.034004	-0.648862	-0.000043
C152	C	1.534004	-0.148862	0.499957
C153	C	1.038583	-0.615143	-0.070771
C154	C	1.538583	-0.115143	0.429229
C155	C	1.108007	-0.592235	-0.070906
C156	C	1.608007	-0.092235	0.429094
H157	H	1.074742	-0.679098	-0.000080
H158	H	1.574742	-0.179098	0.499920
H159	H	1.037247	-0.625948	0.047878
H160	H	1.537247	-0.125948	0.547878
H161	H	1.035347	-0.638056	-0.118680
H162	H	1.535347	-0.138056	0.381320
H163	H	0.997860	-0.584898	-0.070750
H164	H	1.497860	-0.084898	0.429250
H165	H	1.111250	-0.569321	-0.022985
H166	H	1.611250	-0.069321	0.477015
H167	H	1.148740	-0.622475	-0.070941
H168	H	1.648740	-0.122475	0.429059
H169	H	1.111120	-0.569350	-0.118890
H170	H	1.611120	-0.069350	0.381110
C171	C	0.296679	-0.033001	0.000087
C172	C	0.796679	0.466999	0.500087
C173	C	0.253459	-0.079064	0.000077
C174	C	0.753459	0.420936	0.500077
C175	C	0.302204	-0.130560	0.000040
C176	C	0.802204	0.369440	0.500040
H177	H	0.327880	-0.034872	0.048021
H178	H	0.827880	0.465128	0.548021
H179	H	0.327854	-0.034820	-0.047879
H180	H	0.827854	0.465180	0.452121
H181	H	0.222297	-0.077246	0.048037
H182	H	0.722297	0.422754	0.548037
H183	H	0.222259	-0.077212	-0.047854
H184	H	0.722259	0.422788	0.452146
H185	H	0.333379	-0.132378	-0.047925
H186	H	0.833379	0.367622	0.452075
H187	H	0.333403	-0.132424	0.047976
H188	H	0.833403	0.367576	0.547976
H189	H	0.272886	-0.161819	0.000026
H190	H	0.772886	0.338181	0.500026
H191	H	0.987383	0.006349	0.203814
H192	H	1.487383	0.506349	0.703814
H193	H	0.537607	-0.015917	0.000117
H194	H	1.037607	0.484083	0.500117
H195	H	0.106161	0.167598	0.000084
H196	H	0.606161	0.667598	0.500084
H197	H	0.799610	0.147058	0.796376
H198	H	1.299610	0.647058	1.296376
H199	H	0.764811	-0.630189	0.000048
H200	H	1.264811	-0.130189	0.500048
C201	C	1.107484	-0.382686	0.000072
C202	C	1.607484	0.117314	0.500072
C203	C	1.167286	-0.427441	0.000054
C204	C	1.667286	0.072559	0.500054
C205	C	1.236862	-0.404748	0.000011
C206	C	1.736862	0.095252	0.500011
H207	H	1.110832	-0.359815	0.048006
H208	H	1.610832	0.140185	0.548006
H209	H	1.110771	-0.359809	-0.047894
H210	H	1.610771	0.140191	0.452106
H211	H	1.164000	-0.450307	0.048015
H212	H	1.664000	0.049693	0.548015
H213	H	1.163963	-0.450315	-0.047877
H214	H	1.663963	0.049685	0.452123
H215	H	1.240150	-0.381872	-0.047955
H216	H	1.740150	0.118128	0.452045
H217	H	1.240203	-0.381878	0.047946
H218	H	1.740203	0.118122	0.547946
H219	H	1.277446	-0.435110	-0.000009
H220	H	1.777446	0.064890	0.499991
C221	C	1.001369	-0.004308	0.627761
C222	C	1.501369	0.495692	1.127761
C223	C	0.989434	-0.060229	0.648916
C224	C	1.489434	0.439771	1.148916
C225	C	1.041093	-0.099179	0.605803
C226	C	1.541093	0.400821	1.105803
H227	H	1.051868	0.001736	0.641924
H228	H	1.551868	0.501736	1.141924
H229	H	0.993996	0.001153	0.569996
H230	H	1.493996	0.501153	1.069996
H231	H	0.996812	-0.065688	0.706668
H232	H	1.496812	0.434312	1.206668
H233	H	0.938945	-0.066291	0.634751
H234	H	1.438945	0.433709	1.134751
H235	H	1.033721	-0.093718	0.548037
H236	H	1.533721	0.406282	1.048037
H237	H	1.091588	-0.093130	0.619969
H238	H	1.591588	0.406870	1.119969
H239	H	1.032997	-0.137125	0.620144
H240	H	1.532997	0.362875	1.120144
H241	H	0.987424	0.006362	0.796402
H242	H	1.487424	0.506362	1.296402
H243	H	0.680820	-0.014197	0.000096
H244	H	1.180820	0.485803	0.500096
H245	H	1.023889	-0.108645	0.000141
H246	H	1.523889	0.391355	0.500141
C247	C	1.105377	-0.506521	0.000235
C248	C	1.605377	-0.006521	0.500235
C249	C	1.108853	-0.541043	0.070964
C250	C	1.608853	-0.041043	0.570964
C251	C	1.177334	-0.577690	0.071120
C252	C	1.677334	-0.077690	0.571120
H253	H	1.146945	-0.484485	0.000286
H254	H	1.646945	0.015515	0.500286
H255	H	1.107897	-0.530008	-0.047686
H256	H	1.607897	-0.030008	0.452314
H257	H	1.106341	-0.517558	0.118872
H258	H	1.606341	-0.017558	0.618872
H259	H	1.067302	-0.563091	0.070928
H260	H	1.567302	-0.063091	0.570928
H261	H	1.179854	-0.601178	0.023200
H262	H	1.679854	-0.101178	0.523200
H263	H	1.218896	-0.555650	0.071169
H264	H	1.718896	-0.055650	0.571169
H265	H	1.179698	-0.601121	0.119104
H266	H	1.679698	-0.101121	0.619104
H267	H	0.646653	0.174106	0.000044
H268	H	1.146653	0.674106	0.500044
H269	H	1.022182	-0.216401	0.000113
H270	H	1.522182	0.283599	0.500113
H271	H	1.013478	-0.762909	0.000079
H272	H	1.513478	-0.262909	0.500079
H273	H	0.799595	0.147051	0.639368
H274	H	1.299595	0.647051	1.139368
H275	H	0.249373	0.169322	0.000072
H276	H	0.749373	0.669322	0.500072
H277	H	0.799576	0.147040	0.360802
H278	H	1.299576	0.647040	0.860802
C279	C	0.744163	-0.744031	0.000008
C280	C	1.244163	-0.244031	0.500008
C281	C	0.684358	-0.699278	-0.000018
C282	C	1.184358	-0.199278	0.499982
C283	C	0.614784	-0.721974	-0.000081
C284	C	1.114784	-0.221974	0.499919
H285	H	0.740807	-0.766918	0.047938
H286	H	1.240807	-0.266918	0.547938
H287	H	0.740886	-0.766892	-0.047962
H288	H	1.240886	-0.266892	0.452038
H289	H	0.687633	-0.676427	0.047947
H290	H	1.187633	-0.176427	0.547947
H291	H	0.687688	-0.676388	-0.047944
H292	H	1.187688	-0.176388	0.452056
H293	H	0.611507	-0.744834	-0.048051
H294	H	1.111507	-0.244834	0.451949
H295	H	0.611436	-0.744860	0.047850
H296	H	1.111436	-0.244860	0.547850
H297	H	0.574198	-0.691613	-0.000105
H298	H	1.074198	-0.191613	0.499895
H299	H	0.987387	0.006349	0.360820
H300	H	1.487387	0.506349	0.860820
H301	H	0.698442	-0.457808	0.000021
H302	H	1.198442	0.042192	0.500021
C303	C	0.681586	-0.340094	-0.000144
C304	C	1.181586	0.159906	0.499856
C305	C	0.678097	-0.305587	-0.070889
C306	C	1.178097	0.194413	0.429111
C307	C	0.609582	-0.268980	-0.071090
C308	C	1.109582	0.231020	0.428910
H309	H	0.679003	-0.316589	0.047748
H310	H	1.179003	0.183411	0.547748
H311	H	0.640055	-0.362177	-0.000199
H312	H	1.140055	0.137823	0.499801
H313	H	0.719616	-0.283506	-0.070826
H314	H	1.219616	0.216494	0.429174
H315	H	0.680667	-0.329076	-0.118793
H316	H	1.180667	0.170924	0.381207
H317	H	0.568051	-0.291064	-0.071145
H318	H	1.068051	0.208936	0.428855
H319	H	0.607005	-0.245480	-0.023194
H320	H	1.107005	0.254520	0.476806
H321	H	0.607202	-0.245567	-0.119093
H322	H	1.107202	0.254433	0.380907
H323	H	0.799563	0.147039	0.203787
H324	H	1.299563	0.647039	0.703787
H325	H	0.503454	0.172382	0.000058
H326	H	1.003454	0.672382	0.500058
H327	H	0.773512	-0.083687	0.000101
H328	H	1.273512	0.416313	0.500101
C329	C	0.752856	-0.197549	0.000039
C330	C	1.252856	0.302451	0.500039
C331	C	0.693046	-0.152800	0.000015
C332	C	1.193046	0.347200	0.500015
C333	C	0.623475	-0.175501	-0.000061
C334	C	1.123475	0.324499	0.499939
H335	H	0.749499	-0.220440	0.047964
H336	H	1.249499	0.279560	0.547964
H337	H	0.749586	-0.220406	-0.047936
H338	H	1.249586	0.279594	0.452064
H339	H	0.696314	-0.129952	0.047985
H340	H	1.196314	0.370048	0.547985
H341	H	0.696378	-0.129905	-0.047907
H342	H	1.196378	0.370095	0.452093
H343	H	0.620206	-0.198358	-0.048035
H344	H	1.120206	0.301642	0.451965
H345	H	0.620126	-0.198392	0.047865
H346	H	1.120126	0.301608	0.547865
H347	H	0.582886	-0.145142	-0.000084
H348	H	1.082886	0.354858	0.499916
