data_functionalizedCrystal
_audit_creation_method	'MofGen! by Chris Wilmer'
_symmetry_space_group_name_H-M	'P1'
_symmetry_Int_Tables_number	1
_symmetry_cell_setting	triclinic
loop_
_symmetry_equiv_pos_as_xyz
  x,y,z
_cell_length_a	14.908783
_cell_length_b	12.594516
_cell_length_c	14.908308
_cell_angle_alpha	93.270069
_cell_angle_beta	89.788727
_cell_angle_gamma	93.302904
loop_
_atom_site_label
_atom_site_type_symbol
_atom_site_fract_x
_atom_site_fract_y
_atom_site_fract_z
Zn1	Zn	1.345361	-0.372276	-0.587850
Zn2	Zn	1.845361	0.127724	-0.087850
Zn3	Zn	1.353962	-0.539461	-0.437499
Zn4	Zn	1.853962	-0.039461	0.062501
Zn5	Zn	1.203674	-0.371124	-0.428821
Zn6	Zn	1.703674	0.128876	0.071179
Zn7	Zn	1.194990	-0.559842	-0.579122
Zn8	Zn	1.694990	-0.059842	-0.079122
O9	O	1.274497	-0.460676	-0.508323
O10	O	1.774497	0.039324	-0.008323
O11	O	1.472329	-0.386406	-0.575190
O12	O	1.972329	0.113594	-0.075190
O13	O	1.341260	-0.508119	-0.310524
O14	O	1.841260	-0.008119	0.189476
O15	O	1.222504	-0.222330	-0.449938
O16	O	1.722504	0.277670	0.050062
O17	O	1.478648	-0.509236	-0.464728
O18	O	1.978648	-0.009236	0.035272
O19	O	1.326600	-0.223176	-0.566775
O20	O	1.826600	0.276824	-0.066775
O21	O	1.230844	-0.384442	-0.304148
O22	O	1.730844	0.115558	0.195852
O23	O	1.076695	-0.404205	-0.441474
O24	O	1.576695	0.095795	0.058526
O25	O	1.207703	-0.543973	-0.706103
O26	O	1.707703	-0.043973	-0.206103
O27	O	1.070315	-0.542856	-0.551899
O28	O	1.570315	-0.042856	-0.051899
O29	O	1.318180	-0.406168	-0.712516
O30	O	1.818180	0.093832	-0.212516
O31	O	1.332840	-0.691111	-0.456264
O32	O	1.832840	-0.191111	0.043736
O33	O	1.216044	-0.706085	-0.560314
O34	O	1.716044	-0.206085	-0.060314
C35	C	1.040880	-0.475618	-0.494799
C36	C	1.540880	0.024382	0.005201
C37	C	0.940936	-0.482038	-0.489034
C38	C	1.440936	0.017962	0.010966
C39	C	0.746539	-0.366397	-0.593402
C40	C	1.246539	0.133603	-0.093402
C41	C	0.652633	-0.372425	-0.587989
C42	C	1.152633	0.127575	-0.087989
C43	C	0.659217	-0.500116	-0.472791
C44	C	1.159217	-0.000116	0.027209
C45	C	0.753123	-0.494088	-0.478204
C46	C	1.253123	0.005912	0.021796
C47	C	0.796780	-0.427227	-0.538513
C48	C	1.296780	0.072773	-0.038513
C49	C	0.890688	-0.421205	-0.543930
C50	C	1.390688	0.078795	-0.043930
C51	C	0.897270	-0.548890	-0.428727
C52	C	1.397270	-0.048890	0.071273
C53	C	0.803364	-0.554918	-0.423314
C54	C	1.303364	-0.054918	0.076686
C55	C	1.274456	-0.737218	-0.508305
C56	C	1.774456	-0.237218	-0.008305
C57	C	1.274519	-0.855521	-0.508332
C58	C	1.774519	-0.355521	-0.008332
C59	C	1.338111	-0.916591	-0.451807
C60	C	1.838111	-0.416591	0.048193
C61	C	1.355345	-0.991792	-0.535144
C62	C	1.855345	-0.491792	-0.035144
C63	C	1.257394	-0.991116	-0.425054
C64	C	1.757394	-0.491116	0.074946
C65	C	1.291793	-0.929164	-0.591714
C66	C	1.791793	-0.429164	-0.091714
C67	C	1.193808	-0.928480	-0.481567
C68	C	1.693808	-0.428480	0.018433
C69	C	1.211007	-1.003655	-0.564958
C70	C	1.711007	-0.503655	-0.064958
C71	C	1.509026	-0.445676	-0.521900
C72	C	2.009026	0.054324	-0.021900
C73	C	1.608968	-0.439283	-0.527686
C74	C	2.108968	0.060717	-0.027686
C75	C	1.261014	-0.477472	-0.742846
C76	C	1.761014	0.022528	-0.242846
C77	C	1.255268	-0.484630	-0.842786
C78	C	1.755268	0.015370	-0.342786
C79	C	1.274561	-0.183053	-0.508362
C80	C	1.774561	0.316947	-0.008362
C81	C	1.274588	-0.064747	-0.508379
C82	C	1.774588	0.435253	-0.008379
C83	C	1.359508	-0.354561	-1.037263
C84	C	1.859508	0.145439	-0.537263
C85	C	1.354112	-0.361282	-1.131166
C86	C	1.854112	0.138718	-0.631166
C87	C	1.239076	-0.504789	-1.124496
C88	C	1.739076	-0.004789	-0.624496
C89	C	1.244472	-0.498068	-1.030593
C90	C	1.744472	0.001932	-0.530593
C91	C	1.304691	-0.422952	-0.986980
C92	C	1.804691	0.077048	-0.486980
C93	C	1.310091	-0.416236	-0.893076
C94	C	1.810091	0.083764	-0.393076
C95	C	1.195051	-0.559737	-0.886408
C96	C	1.695051	-0.059737	-0.386408
C97	C	1.189655	-0.566459	-0.980310
C98	C	1.689655	-0.066459	-0.480310
C99	C	1.287979	-0.443864	-0.274715
C100	C	1.787979	0.056136	0.225285
C101	C	1.293899	-0.436395	-0.174785
C102	C	1.793899	0.063605	0.325215
H103	H	0.623654	-0.554538	-0.423680
H104	H	1.123654	-0.054538	0.076320
H105	H	1.140626	-0.627614	-1.015833
H106	H	1.640626	-0.127614	-0.515833
H107	H	0.782086	-0.311961	-0.642512
H108	H	1.282086	0.188039	-0.142512
H109	H	1.157257	-1.041424	-0.612838
H110	H	1.657257	-0.541424	-0.112838
C111	C	0.597370	-0.305519	-0.648373
C112	C	1.097370	0.194481	-0.148373
H113	H	0.636824	-0.264845	-0.685069
H114	H	1.136824	0.235155	-0.185069
H115	H	0.562703	-0.258975	-0.611935
H116	H	1.062703	0.241025	-0.111935
H117	H	0.558499	-0.351467	-0.685386
H118	H	1.058499	0.148533	-0.185386
C119	C	0.938711	-0.347660	-0.610263
C120	C	1.438711	0.152340	-0.110263
H121	H	0.895337	-0.312287	-0.642171
H122	H	1.395337	0.187713	-0.142171
H123	H	0.973102	-0.388890	-0.651498
H124	H	1.473102	0.111110	-0.151498
H125	H	0.977312	-0.296410	-0.578037
H126	H	1.477312	0.203590	-0.078037
C127	C	0.755335	-0.628463	-0.356984
C128	C	1.255335	-0.128463	0.143016
H129	H	0.692212	-0.623347	-0.361624
H130	H	1.192212	-0.123347	0.138376
H131	H	0.774184	-0.607475	-0.297478
H132	H	1.274184	-0.107475	0.202522
H133	H	0.769970	-0.699951	-0.370942
H134	H	1.269970	-0.199951	0.129058
C135	C	0.952537	-0.615807	-0.368347
C136	C	1.452537	-0.115807	0.131653
H137	H	1.014718	-0.602639	-0.380204
H138	H	1.514718	-0.102639	0.119796
H139	H	0.936390	-0.689266	-0.380519
H140	H	1.436390	-0.189266	0.119481
H141	H	0.940609	-0.596780	-0.307063
H142	H	1.440609	-0.096780	0.192937
C143	C	1.134749	-0.634970	-0.831095
C144	C	1.634749	-0.134970	-0.331095
H145	H	1.146583	-0.620208	-0.768923
H146	H	1.646583	-0.120208	-0.268923
H147	H	1.147010	-0.706743	-0.847240
H148	H	1.647010	-0.206743	-0.347240
H149	H	1.073450	-0.624355	-0.842987
H150	H	1.573450	-0.124355	-0.342987
H151	H	1.125544	-0.900518	-0.458880
H152	H	1.625544	-0.400518	0.041120
H153	H	1.306234	-0.901946	-0.662216
H154	H	1.806234	-0.401946	-0.162216
H155	H	1.408544	-0.293403	-1.001753
H156	H	1.908544	0.206597	-0.501753
H157	H	1.391893	-0.878631	-0.404053
H158	H	1.891893	-0.378631	0.095947
C159	C	1.447587	-1.029539	-0.565760
C160	C	1.947587	-0.529539	-0.065760
H161	H	1.492682	-0.999527	-0.525521
H162	H	1.992682	-0.499527	-0.025521
H163	H	1.460215	-1.007343	-0.624548
H164	H	1.960215	-0.507343	-0.124548
H165	H	1.446776	-1.105038	-0.566079
H166	H	1.946776	-0.605038	-0.066079
C167	C	1.237780	-1.028069	-0.329890
C168	C	1.737780	-0.528069	0.170110
H169	H	1.282993	-0.998037	-0.289793
H170	H	1.782993	-0.498037	0.210207
H171	H	1.237400	-1.103566	-0.330686
H172	H	1.737400	-0.603566	0.169314
H173	H	1.180853	-1.005378	-0.310472
H174	H	1.680853	-0.505378	0.189528
H175	H	1.359125	-0.355074	-0.857568
H176	H	1.859125	0.144926	-0.357568
C177	C	1.414415	-0.286057	-1.186474
C178	C	1.914415	0.213943	-0.686474
H179	H	1.451054	-0.240367	-1.147048
H180	H	1.951054	0.259633	-0.647048
H181	H	1.377926	-0.244505	-1.221123
H182	H	1.877926	0.255495	-0.721123
H183	H	1.451484	-0.326895	-1.225365
H184	H	1.951484	0.173105	-0.725365
H185	H	1.190049	-0.565944	-1.160022
H186	H	1.690049	-0.065944	-0.660022
