data_functionalizedCrystal
_audit_creation_method	'MofGen! by Chris Wilmer'
_symmetry_space_group_name_H-M	'P1'
_symmetry_Int_Tables_number	1
_symmetry_cell_setting	triclinic
loop_
_symmetry_equiv_pos_as_xyz
  x,y,z
_cell_length_a	19.188930
_cell_length_b	22.610064
_cell_length_c	19.188924
_cell_angle_alpha	89.998009
_cell_angle_beta	83.143372
_cell_angle_gamma	90.022082
loop_
_atom_site_label
_atom_site_type_symbol
_atom_site_fract_x
_atom_site_fract_y
_atom_site_fract_z
O1	O	0.926148	0.049377	0.087158
O2	O	0.722836	0.049337	0.098893
O3	O	0.830361	0.049351	-0.008630
O4	O	0.818622	0.049363	0.194682
O5	O	0.830342	-0.049018	-0.008615
O6	O	0.722817	-0.049032	0.098908
O7	O	0.926129	-0.048992	0.087174
Zn8	Zn	0.824470	-0.064630	0.093044
Zn9	Zn	0.824495	0.064975	0.093023
O10	O	0.818603	-0.049006	0.194697
C11	C	0.696815	0.000147	0.098521
C12	C	0.619311	0.000132	0.097380
N13	N	0.824458	-0.153083	0.093057
C14	C	0.574386	0.000145	0.160471
C15	C	0.501562	0.000151	0.159399
C16	C	0.473667	0.000157	0.095233
C17	C	0.518602	0.000140	0.032134
C18	C	0.591424	0.000128	0.033207
N19	N	0.365694	0.033657	0.046180
N20	N	0.296516	0.033670	0.045165
C21	C	0.254258	0.000192	0.091995
N22	N	0.283791	-0.033291	0.139889
N23	N	0.352976	-0.033301	0.140906
C24	C	0.394704	0.000170	0.094062
C25	C	0.130368	0.000212	0.153928
C26	C	0.057543	0.000214	0.152854
C27	C	0.074585	0.000209	0.025586
C28	C	0.147409	0.000201	0.026662
C29	C	0.175295	0.000205	0.090835
C30	C	0.872109	-0.561718	0.045419
C31	C	0.872113	-0.623638	0.045414
O32	O	0.912598	-0.655651	0.004921
N33	N	0.824494	-0.654620	0.093009
C34	C	0.776864	-0.623679	0.140607
O35	O	0.736361	-0.655717	0.181089
C36	C	0.776858	-0.561760	0.140608
C37	C	0.824484	-0.530781	0.093015
C38	C	0.919731	-0.530739	-0.002171
C39	C	0.919728	-0.468823	-0.002164
C40	C	0.872103	-0.437886	0.045431
C41	C	0.824481	-0.468865	0.093021
C42	C	0.729225	-0.530820	0.188202
C43	C	0.729223	-0.468897	0.188199
C44	C	0.776849	-0.437918	0.140606
C45	C	0.776854	-0.376013	0.140623
N46	N	0.824472	-0.345031	0.093028
C47	C	0.872097	-0.375968	0.045432
C48	C	0.776881	-0.753712	0.140600
C49	C	0.776890	-0.815630	0.140602
C50	C	0.872137	-0.815585	0.045409
C51	C	0.872131	-0.753666	0.045410
C52	C	0.824499	-0.722730	0.093005
C53	C	0.872088	-0.245940	0.045449
C54	C	0.872083	-0.184019	0.045462
C55	C	0.776833	-0.184070	0.140652
C56	C	0.776840	-0.245986	0.140643
C57	C	0.824470	-0.276919	0.093036
O58	O	0.736387	-0.343960	0.181094
O59	O	0.912587	-0.343922	0.004951
C60	C	0.952149	0.000199	0.087546
C61	C	1.029654	0.000219	0.088687
C62	C	0.829973	0.000166	-0.034634
C63	C	0.828834	0.000164	-0.112138
N64	N	0.824512	0.153428	0.093004
C65	C	0.828313	0.053785	-0.148546
C66	C	0.827233	0.053790	-0.221369
C67	C	0.826688	0.000170	-0.257783
C68	C	0.827205	-0.053458	-0.221366
C69	C	0.828278	-0.053461	-0.148544
N70	N	0.864728	-0.039730	-0.377440
N71	N	0.863710	-0.039724	-0.446618
C72	C	0.823454	0.000175	-0.477192
N73	N	0.784262	0.040077	-0.435976
N74	N	0.785283	0.040072	-0.366791
C75	C	0.825524	0.000167	-0.336746
C76	C	0.821761	0.053804	-0.592562
C77	C	0.820677	0.053806	-0.665386
C78	C	0.820656	-0.053443	-0.665383
C79	C	0.821733	-0.053444	-0.592560
C80	C	0.822289	0.000182	-0.556154
C81	C	0.818992	0.000180	0.220700
C82	C	0.820131	0.000186	0.298205
H83	H	0.464976	0.000160	0.210777
C84	C	0.043913	0.000213	-0.044997
H85	H	0.081103	0.000201	-0.082420
H86	H	0.015881	0.034519	-0.048069
H87	H	0.015839	-0.034093	-0.048054
H88	H	0.826760	-0.097116	-0.251019
C89	C	0.008122	0.000229	0.222256
H90	H	-0.039243	0.000229	0.212427
H91	H	0.016578	0.034534	0.248567
H92	H	0.016533	-0.034077	0.248585
C93	C	0.724501	-0.849700	0.192955
H94	H	0.696136	-0.822402	0.221295
H95	H	0.749518	-0.873851	0.221960
H96	H	0.695515	-0.873859	0.167901
C97	C	0.724445	-0.150032	0.192999
H98	H	0.731262	-0.108719	0.186175
H99	H	0.731870	-0.160174	0.239583
H100	H	0.677874	-0.160196	0.185518
C101	C	0.487924	0.000147	-0.038449
H102	H	0.525113	0.000134	-0.075872
H103	H	0.459895	0.034456	-0.041520
H104	H	0.459846	-0.034155	-0.041506
C105	C	0.640844	0.000121	-0.036196
H106	H	0.613804	0.000128	-0.074567
H107	H	0.669587	-0.034185	-0.038419
H108	H	0.669625	0.034426	-0.038425
H109	H	0.828700	-0.097127	-0.118901
H110	H	0.183988	0.000193	-0.024713
H111	H	0.822209	0.097469	-0.562919
C112	C	0.924470	-0.149946	-0.006896
H113	H	0.952828	-0.177242	-0.035247
H114	H	0.953455	-0.125782	0.018148
H115	H	0.899441	-0.125799	-0.035900
H116	H	0.828763	0.097452	-0.118909
C117	C	0.924518	-0.849623	-0.006953
H118	H	0.917691	-0.890935	-0.000139
H119	H	0.971092	-0.839463	0.000507
H120	H	0.917072	-0.839476	-0.053534
C121	C	0.820051	-0.112424	-0.705429
H122	H	0.819340	-0.104744	-0.754014
H123	H	0.779516	-0.134463	-0.688041
H124	H	0.860934	-0.134451	-0.698948
H125	H	0.910872	-0.271119	0.006682
H126	H	0.153075	0.000206	0.206181
H127	H	0.738095	-0.728528	0.179363
H128	H	0.690443	-0.556035	0.226956
C129	C	0.676830	-0.434872	0.240558
H130	H	0.648473	-0.462193	0.268903
H131	H	0.647844	-0.410724	0.215518
H132	H	0.701855	-0.410713	0.269568
H133	H	0.958508	-0.443604	-0.040921
C134	C	0.972127	-0.564760	-0.054527
H135	H	1.000486	-0.537433	-0.082861
H136	H	0.947117	-0.588926	-0.083537
H137	H	1.001118	-0.588899	-0.029477
H138	H	0.738065	-0.271209	0.179404
C139	C	0.822319	-0.112427	-0.552511
H140	H	0.821846	-0.144362	-0.584627
H141	H	0.782032	-0.114668	-0.518651
H142	H	0.863450	-0.114647	-0.529557
H143	H	0.910912	-0.728446	0.006655
H144	H	0.820249	0.097473	-0.695027
C145	C	0.826663	0.112773	-0.261429
H146	H	0.825941	0.105093	-0.310013
H147	H	0.867551	0.134811	-0.254945
H148	H	0.786134	0.134801	-0.244048
H149	H	0.597086	0.000149	0.212725
