data_functionalizedCrystal
_audit_creation_method	'MofGen! by Chris Wilmer'
_symmetry_space_group_name_H-M	'P1'
_symmetry_Int_Tables_number	1
_symmetry_cell_setting	triclinic
loop_
_symmetry_equiv_pos_as_xyz
  x,y,z
_cell_length_a	16.625548
_cell_length_b	18.215405
_cell_length_c	18.215399
_cell_angle_alpha	90.030551
_cell_angle_beta	89.980331
_cell_angle_gamma	89.974047
loop_
_atom_site_label
_atom_site_type_symbol
_atom_site_fract_x
_atom_site_fract_y
_atom_site_fract_z
Zn1	Zn	1.232660	0.292971	-0.416099
Zn2	Zn	1.565993	0.626304	-0.082766
Zn3	Zn	1.899326	0.959638	0.250567
Zn4	Zn	1.232559	0.416042	-0.293027
Zn5	Zn	1.565893	0.749375	0.040306
Zn6	Zn	1.899226	1.082709	0.373639
Zn7	Zn	1.097824	0.292996	-0.293047
Zn8	Zn	1.431157	0.626330	0.040286
Zn9	Zn	1.764490	0.959663	0.373620
Zn10	Zn	1.097786	0.416002	-0.416053
Zn11	Zn	1.431120	0.749336	-0.082719
Zn12	Zn	1.764453	1.082669	0.250614
O13	O	1.165207	0.354503	-0.354557
O14	O	1.498541	0.687836	-0.021223
O15	O	1.831874	1.021170	0.312110
O16	O	1.345479	0.309302	-0.399785
O17	O	1.678812	0.642636	-0.066452
O18	O	2.012145	0.975969	0.266882
O19	O	1.214660	0.399747	-0.190046
O20	O	1.547993	0.733080	0.143288
O21	O	1.881327	1.066414	0.476621
O22	O	1.115768	0.190009	-0.309398
O23	O	1.449101	0.523342	0.023935
O24	O	1.782434	0.856675	0.357269
O25	O	1.345405	0.399722	-0.309365
O26	O	1.678738	0.733056	0.023969
O27	O	2.012072	1.066389	0.357302
O28	O	1.214831	0.189990	-0.399804
O29	O	1.548164	0.523323	-0.066471
O30	O	1.881498	0.856657	0.266863
O31	O	1.115670	0.309346	-0.190060
O32	O	1.449004	0.642679	0.143273
O33	O	1.782337	0.976012	0.476607
O34	O	0.984986	0.309307	-0.309353
O35	O	1.318320	0.642641	0.023981
O36	O	1.651653	0.975974	0.357314
O37	O	1.115704	0.399655	-0.519043
O38	O	1.449037	0.732988	-0.185710
O39	O	1.782371	1.066322	0.147623
O40	O	0.984959	0.399679	-0.399724
O41	O	1.318292	0.733013	-0.066391
O42	O	1.651626	1.066346	0.266942
O43	O	1.214795	0.309264	-0.519077
O44	O	1.548128	0.642597	-0.185744
O45	O	1.881462	0.975931	0.147589
O46	O	1.214624	0.519021	-0.309319
O47	O	1.547957	0.852354	0.024014
O48	O	1.881290	1.185688	0.357347
O49	O	1.115607	0.518992	-0.399705
O50	O	1.448940	0.852325	-0.066372
O51	O	1.782273	1.185659	0.266961
C52	C	1.165122	0.545709	-0.354521
C53	C	1.498455	0.879043	-0.021188
C54	C	1.831789	1.212376	0.312145
C55	C	1.165159	0.627508	-0.354531
C56	C	1.498493	0.960841	-0.021197
C57	C	1.831826	1.294175	0.312136
C58	C	0.955716	0.354492	-0.354536
C59	C	1.289050	0.687826	-0.021203
C60	C	1.622383	1.021159	0.312131
C61	C	0.866095	0.354506	-0.354545
C62	C	1.199429	0.687839	-0.021211
C63	C	1.532762	1.021172	0.312122
C64	C	1.165256	0.354452	-0.546510
C65	C	1.498590	0.687786	-0.213176
C66	C	1.831923	1.021119	0.120157
C67	C	1.165277	0.354431	-0.628309
C68	C	1.498611	0.687764	-0.294975
C69	C	1.831944	1.021097	0.038358
C70	C	0.537920	0.354510	-0.354576
C71	C	0.871253	0.687844	-0.021243
C72	C	1.204586	1.021177	0.312090
C73	C	0.629228	0.354507	-0.354565
C74	C	0.962561	0.687840	-0.021232
C75	C	1.295895	1.021174	0.312102
C76	C	0.702005	0.354508	-0.354560
C77	C	1.035338	0.687842	-0.021227
C78	C	1.368671	1.021175	0.312107
C79	C	0.793319	0.354504	-0.354550
C80	C	1.126652	0.687838	-0.021217
C81	C	1.459986	1.021171	0.312117
C82	C	1.375516	0.354514	-0.354578
C83	C	1.708849	0.687847	-0.021244
C84	C	2.042183	1.021181	0.312089
C85	C	1.465137	0.354519	-0.354587
C86	C	1.798471	0.687852	-0.021253
C87	C	2.131804	1.021185	0.312080
C88	C	1.165315	0.162550	-0.354608
C89	C	1.498648	0.495883	-0.021275
C90	C	1.831981	0.829217	0.312058
C91	C	1.165361	0.080751	-0.354630
C92	C	1.498694	0.414084	-0.021297
C93	C	1.832027	0.747418	0.312036
C94	C	1.216839	0.815693	-0.307553
C95	C	1.550172	1.149026	0.025780
C96	C	1.883505	1.482359	0.359113
C97	C	1.216875	0.892551	-0.307571
C98	C	1.550208	1.225885	0.025762
C99	C	1.883542	1.559218	0.359096
C100	C	1.113679	0.892561	-0.401613
C101	C	1.447012	1.225894	-0.068280
C102	C	1.780346	1.559228	0.265054
C103	C	1.113648	0.815704	-0.401598
C104	C	1.446981	1.149037	-0.068265
C105	C	1.780314	1.482370	0.265068
C106	C	1.165226	0.777272	-0.354564
C107	C	1.498560	1.110605	-0.021231
C108	C	1.831893	1.443938	0.312102
C109	C	1.165294	0.930988	-0.354597
C110	C	1.498627	1.264321	-0.021263
C111	C	1.831960	1.597654	0.312070
C112	C	1.165332	1.014321	-0.354616
C113	C	1.498666	1.347655	-0.021283
C114	C	1.831999	1.680988	0.312050
C115	C	1.165189	0.693933	-0.354545
C116	C	1.498522	1.027266	-0.021212
C117	C	1.831856	1.360599	0.312121
C118	C	1.216893	0.307320	-0.816522
C119	C	1.550226	0.640653	-0.483188
C120	C	1.883559	0.973987	-0.149855
C121	C	1.216902	0.307299	-0.893380
C122	C	1.550235	0.640632	-0.560047
C123	C	1.883569	0.973965	-0.226714
C124	C	1.113719	0.401427	-0.893334
C125	C	1.447053	0.734761	-0.560000
C126	C	1.780386	1.068094	-0.226667
C127	C	1.113706	0.401444	-0.816476
C128	C	1.447039	0.734778	-0.483143
C129	C	1.780373	1.068111	-0.149809
C130	C	1.165297	0.354392	-0.778072
C131	C	1.498631	0.687725	-0.444739
C132	C	1.831964	1.021059	-0.111406
C133	C	1.165320	0.354353	-0.931788
C134	C	1.498653	0.687687	-0.598455
C135	C	1.831987	1.021020	-0.265122
C136	C	1.165330	0.354330	-1.015122
C137	C	1.498663	0.687664	-0.681789
C138	C	1.831997	1.020997	-0.348455
C139	C	1.165286	0.354414	-0.694733
C140	C	1.498620	0.687747	-0.361400
C141	C	1.831953	1.021080	-0.028067
C142	C	1.165205	0.354500	-0.163350
C143	C	1.498538	0.687834	0.169983
C144	C	1.831871	1.021167	0.503316
C145	C	1.165340	0.354315	-0.081552
C146	C	1.498673	0.687648	0.251781
C147	C	1.832007	1.020981	0.585115
H148	H	1.258839	0.784403	-0.269256
H149	H	1.592172	1.117736	0.064077
H150	H	1.925505	1.451070	0.397410
H151	H	1.258915	0.268967	-0.924683
H152	H	1.592248	0.602300	-0.591349
H153	H	1.925582	0.935633	-0.258016
H154	H	1.071717	0.439737	-0.924611
H155	H	1.405051	0.773071	-0.591278
H156	H	1.738384	1.106404	-0.257945
Cl157	Cl	1.048762	0.767399	-0.460707
Cl158	Cl	1.382095	1.100732	-0.127374
Cl159	Cl	1.715429	1.434066	0.205960
H160	H	1.071685	0.439775	-0.785170
H161	H	1.405019	0.773109	-0.451836
H162	H	1.738352	1.106442	-0.118503
Cl163	Cl	1.281764	0.940849	-0.248471
Cl164	Cl	1.615098	1.274182	0.084863
Cl165	Cl	1.948431	1.607516	0.418196
Cl166	Cl	1.281747	0.248166	-0.768245
Cl167	Cl	1.615080	0.581499	-0.434912
Cl168	Cl	1.948413	0.914832	-0.101578
Cl169	Cl	1.048838	0.940881	-0.460736
Cl170	Cl	1.382172	1.274214	-0.127402
Cl171	Cl	1.715505	1.607548	0.205931
