data_functionalizedCrystal
_audit_creation_method	'MofGen! by Chris Wilmer'
_symmetry_space_group_name_H-M	'P1'
_symmetry_Int_Tables_number	1
_symmetry_cell_setting	triclinic
loop_
_symmetry_equiv_pos_as_xyz
  x,y,z
_cell_length_a	23.532407
_cell_length_b	15.944551
_cell_length_c	22.610064
_cell_angle_alpha	90.002706
_cell_angle_beta	89.994072
_cell_angle_gamma	96.826292
loop_
_atom_site_label
_atom_site_type_symbol
_atom_site_fract_x
_atom_site_fract_y
_atom_site_fract_z
O1	O	0.073437	-1.113904	0.049129
O2	O	0.406771	-0.780571	0.382462
O3	O	0.740104	-0.447237	0.715796
O4	O	0.082493	-0.869278	0.049145
O5	O	0.415826	-0.535945	0.382478
O6	O	0.749160	-0.202611	0.715811
O7	O	-0.004938	-0.998968	0.049126
O8	O	0.328395	-0.665635	0.382459
O9	O	0.661729	-0.332301	0.715792
O10	O	0.160868	-0.984214	0.049148
O11	O	0.494202	-0.650881	0.382481
O12	O	0.827535	-0.317548	0.715815
O13	O	-0.004916	-0.998959	-0.049244
O14	O	0.328418	-0.665626	0.284090
O15	O	0.661751	-0.332292	0.617423
O16	O	0.082515	-0.869269	-0.049225
O17	O	0.415849	-0.535936	0.284109
O18	O	0.749182	-0.202603	0.617442
O19	O	0.073460	-1.113895	-0.049240
O20	O	0.406793	-0.780562	0.284093
O21	O	0.740126	-0.447229	0.617427
Zn22	Zn	0.077991	-0.991581	-0.064851
Zn23	Zn	0.411324	-0.658247	0.268483
Zn24	Zn	0.744658	-0.324914	0.601816
Zn25	Zn	0.077962	-0.991593	0.064755
Zn26	Zn	0.411295	-0.658259	0.398088
Zn27	Zn	0.744628	-0.324926	0.731422
O28	O	0.160891	-0.984206	-0.049221
O29	O	0.494224	-0.650872	0.284112
O30	O	0.827557	-0.317539	0.617446
C31	C	0.082128	-0.837983	-0.000038
C32	C	0.415461	-0.504650	0.333295
C33	C	0.748795	-0.171316	0.666628
C34	C	0.081001	-0.744746	-0.000033
C35	C	0.414334	-0.411413	0.333301
C36	C	0.747668	-0.078080	0.666634
C37	C	-0.026144	-0.998588	-0.000061
C38	C	0.307189	-0.665254	0.333273
C39	C	0.640522	-0.331921	0.666606
C40	C	-0.089366	-0.997458	-0.000065
C41	C	0.243968	-0.664125	0.333268
C42	C	0.577301	-0.330791	0.666602
C43	C	0.073824	-1.145190	-0.000056
C44	C	0.407158	-0.811857	0.333277
C45	C	0.740491	-0.478524	0.666611
C46	C	0.074951	-1.238427	-0.000058
C47	C	0.408285	-0.905094	0.333276
C48	C	0.741618	-0.571760	0.666609
C49	C	-0.488199	-1.067121	-0.000037
C50	C	-0.154866	-0.733788	0.333296
C51	C	0.178468	-0.400454	0.666630
C52	C	-0.547603	-1.066072	-0.000032
C53	C	-0.214270	-0.732738	0.333301
C54	C	0.119063	-0.399405	0.666634
O55	O	-0.584098	-1.130650	-0.000015
O56	O	-0.250764	-0.797317	0.333319
O57	O	0.082569	-0.463983	0.666652
N58	N	-0.570528	-0.988971	-0.000028
N59	N	-0.237195	-0.655638	0.333305
N60	N	0.096139	-0.322305	0.666639
C61	C	-0.534045	-0.912915	-0.000022
C62	C	-0.200712	-0.579582	0.333311
C63	C	0.132622	-0.246249	0.666645
O64	O	-0.558999	-0.847239	-0.000017
O65	O	-0.225666	-0.513906	0.333316
O66	O	0.107667	-0.180572	0.666649
C67	C	-0.474642	-0.913965	-0.000022
C68	C	-0.141309	-0.580632	0.333311
C69	C	0.192025	-0.247299	0.666644
C70	C	-0.451721	-0.991071	-0.000033
C71	C	-0.118387	-0.657737	0.333300
C72	C	0.214946	-0.324404	0.666634
C73	C	-0.465277	-1.144220	-0.000047
C74	C	-0.131944	-0.810887	0.333287
C75	C	0.201390	-0.477554	0.666620
C76	C	-0.405877	-1.145269	-0.000052
C77	C	-0.072543	-0.811936	0.333281
C78	C	0.260790	-0.478603	0.666614
C79	C	-0.369399	-1.069219	-0.000048
C80	C	-0.036065	-0.735886	0.333285
C81	C	0.297268	-0.402552	0.666618
C82	C	-0.392320	-0.992120	-0.000039
C83	C	-0.058987	-0.658786	0.333295
C84	C	0.274346	-0.325453	0.666628
C85	C	-0.438160	-0.837910	-0.000012
C86	C	-0.104827	-0.504577	0.333321
C87	C	0.228507	-0.171243	0.666654
C88	C	-0.378754	-0.838967	-0.000012
C89	C	-0.045420	-0.505634	0.333321
C90	C	0.287913	-0.172300	0.666655
C91	C	-0.355832	-0.916072	-0.000023
C92	C	-0.022499	-0.582739	0.333311
C93	C	0.310834	-0.249406	0.666644
C94	C	-0.296442	-0.917118	-0.000040
C95	C	0.036891	-0.583785	0.333293
C96	C	0.370225	-0.250452	0.666627
N97	N	-0.273517	-0.994219	-0.000045
N98	N	0.059816	-0.660886	0.333289
N99	N	0.393150	-0.327552	0.666622
C100	C	-0.309995	-1.070269	-0.000049
C101	C	0.023338	-0.736936	0.333285
C102	C	0.356671	-0.403602	0.666618
C103	C	-0.658796	-0.910716	-0.000020
C104	C	-0.325463	-0.577382	0.333313
C105	C	0.007870	-0.244049	0.666646
C106	C	-0.718198	-0.909664	-0.000024
C107	C	-0.384865	-0.576331	0.333309
C108	C	-0.051531	-0.242998	0.666642
C109	C	-0.731752	-1.062821	-0.000034
C110	C	-0.398419	-0.729488	0.333300
C111	C	-0.065086	-0.396155	0.666633
C112	C	-0.672349	-1.063872	-0.000034
C113	C	-0.339016	-0.730538	0.333299
C114	C	-0.005682	-0.397205	0.666633
C115	C	-0.635871	-0.987816	-0.000025
C116	C	-0.302538	-0.654483	0.333308
C117	C	0.030795	-0.321149	0.666642
C118	C	-0.185250	-1.072466	-0.000061
C119	C	0.148083	-0.739133	0.333272
C120	C	0.481417	-0.405800	0.666606
C121	C	-0.125844	-1.073508	-0.000069
C122	C	0.207489	-0.740175	0.333264
C123	C	0.540823	-0.406842	0.666598
C124	C	-0.112295	-0.920352	-0.000057
C125	C	0.221038	-0.587019	0.333277
C126	C	0.554371	-0.253685	0.666610
C127	C	-0.171696	-0.919309	-0.000052
C128	C	0.161637	-0.585976	0.333282
C129	C	0.494971	-0.252643	0.666615
C130	C	-0.208173	-0.995373	-0.000052
C131	C	0.125161	-0.662040	0.333281
C132	C	0.458494	-0.328707	0.666615
O133	O	-0.259913	-0.852574	-0.000055
O134	O	0.073421	-0.519241	0.333278
O135	O	0.406754	-0.185907	0.666611
O136	O	-0.285033	-1.135935	-0.000046
O137	O	0.048300	-0.802601	0.333288
O138	O	0.381634	-0.469268	0.666621
C139	C	0.182097	-0.984586	-0.000034
C140	C	0.515430	-0.651252	0.333300
C141	C	0.848764	-0.317919	0.666633
C142	C	0.245318	-0.985715	-0.000025
C143	C	0.578652	-0.652382	0.333308
C144	C	0.911985	-0.319049	0.666641
N145	N	0.078011	-0.991579	-0.153303
N146	N	0.411344	-0.658246	0.180030
N147	N	0.744677	-0.324912	0.513364
C148	C	0.024113	-0.530369	-0.000052
C149	C	0.357447	-0.197036	0.333281
C150	C	0.690780	0.136298	0.666615
C151	C	0.050519	-0.469131	0.048453
C152	C	0.383852	-0.135797	0.381786
C153	C	0.717186	0.197536	0.715119
C154	C	0.078962	-0.574038	-0.000040
C155	C	0.412295	-0.240704	0.333293
C156	C	0.745629	0.092629	0.666627
C157	C	0.050554	-0.469144	-0.048531
C158	C	0.383888	-0.135811	0.284802
C159	C	0.717221	0.197523	0.618135
C160	C	0.076989	-0.409142	-0.000050
C161	C	0.410322	-0.075808	0.333284
C162	C	0.743655	0.257525	0.666617
C163	C	0.105383	-0.514027	0.048505
C164	C	0.438716	-0.180694	0.381838
C165	C	0.772050	0.152639	0.715171
C166	C	0.105410	-0.514047	-0.048523
C167	C	0.438744	-0.180714	0.284810
C168	C	0.772077	0.152619	0.618144
C169	C	0.131856	-0.452826	-0.000006
C170	C	0.465189	-0.119493	0.333327
C171	C	0.798523	0.213841	0.666660
C172	C	0.080097	-0.669030	-0.000034
C173	C	0.413431	-0.335697	0.333299
C174	C	0.746764	-0.002364	0.666633
C175	C	0.075858	-0.314150	-0.000051
C176	C	0.409191	0.019183	0.333282
C177	C	0.742524	0.352517	0.666615
C178	C	0.116678	-0.934134	-0.438143
C179	C	0.450011	-0.600800	-0.104809
C180	C	0.783345	-0.267467	0.228524
C181	C	0.116684	-0.934131	-0.376223
C182	C	0.450017	-0.600798	-0.042889
C183	C	0.783350	-0.267465	0.290444
O184	O	0.149585	-0.885264	-0.344197
O185	O	0.482918	-0.551931	-0.010864
O186	O	0.816252	-0.218597	0.322470
N187	N	0.077988	-0.991573	-0.345255
N188	N	0.411321	-0.658240	-0.011922
N189	N	0.744655	-0.324906	0.321411
C190	C	0.039280	-1.049015	-0.376211
C191	C	0.372614	-0.715682	-0.042878
C192	C	0.705947	-0.382348	0.290456
O193	O	0.006367	-1.097873	-0.344185
O194	O	0.339700	-0.764539	-0.010852
O195	O	0.673034	-0.431206	0.322482
C196	C	0.039273	-1.049013	-0.438130
C197	C	0.372606	-0.715679	-0.104796
C198	C	0.705939	-0.382346	0.228537
C199	C	0.077975	-0.991573	-0.469094
C200	C	0.411308	-0.658240	-0.135761
C201	C	0.744641	-0.324906	0.197573
C202	C	0.155377	-0.876698	-0.469107
C203	C	0.488710	-0.543365	-0.135774
C204	C	0.822043	-0.210031	0.197560
C205	C	0.155372	-0.876702	-0.531023
C206	C	0.488705	-0.543368	-0.197689
C207	C	0.822038	-0.210035	0.135644
C208	C	0.116668	-0.934141	-0.561974
C209	C	0.450002	-0.600808	-0.228641
C210	C	0.783335	-0.267474	0.104693
C211	C	0.077970	-0.991577	-0.531010
C212	C	0.411303	-0.658243	-0.197676
C213	C	0.744636	-0.324910	0.135657
C214	C	0.000563	-1.106450	-0.469084
C215	C	0.333896	-0.773116	-0.135751
C216	C	0.667230	-0.439783	0.197582
C217	C	0.000558	-1.106442	-0.531007
C218	C	0.333891	-0.773109	-0.197674
C219	C	0.667225	-0.439775	0.135659
C220	C	0.039260	-1.049002	-0.561972
C221	C	0.372593	-0.715669	-0.228638
C222	C	0.705927	-0.382336	0.104695
C223	C	0.039261	-1.049019	-0.623877
C224	C	0.372595	-0.715686	-0.290543
C225	C	0.705928	-0.382353	0.042790
N226	N	0.077957	-0.991578	-0.654844
N227	N	0.411290	-0.658244	-0.321511
N228	N	0.744624	-0.324911	0.011823
C229	C	0.116660	-0.934139	-0.623893
C230	C	0.449994	-0.600805	-0.290559
C231	C	0.783327	-0.267472	0.042774
C232	C	0.039299	-1.049014	-0.246177
C233	C	0.372632	-0.715681	0.087156
C234	C	0.705966	-0.382348	0.420489
C235	C	0.039309	-1.049022	-0.184260
C236	C	0.372642	-0.715688	0.149074
C237	C	0.705976	-0.382355	0.482407
C238	C	0.116712	-0.934137	-0.184276
C239	C	0.450045	-0.600803	0.149058
C240	C	0.783378	-0.267470	0.482391
C241	C	0.116704	-0.934134	-0.246195
C242	C	0.450037	-0.600801	0.087139
C243	C	0.783371	-0.267468	0.420472
C244	C	0.077995	-0.991573	-0.277145
C245	C	0.411328	-0.658240	0.056188
C246	C	0.744661	-0.324906	0.389522
C247	C	0.116647	-0.934151	-0.753920
C248	C	0.449981	-0.600818	-0.420587
C249	C	0.783314	-0.267484	-0.087253
C250	C	0.116641	-0.934162	-0.815841
C251	C	0.449974	-0.600829	-0.482508
C252	C	0.783307	-0.267495	-0.149175
C253	C	0.039236	-1.049043	-0.815820
C254	C	0.372570	-0.715710	-0.482486
C255	C	0.705903	-0.382377	-0.149153
C256	C	0.039245	-1.049036	-0.753904
C257	C	0.372578	-0.715702	-0.420571
C258	C	0.705911	-0.382369	-0.087237
C259	C	0.077953	-0.991582	-0.722956
C260	C	0.411286	-0.658249	-0.389622
C261	C	0.744619	-0.324916	-0.056289
O262	O	0.006375	-1.097860	-0.655942
O263	O	0.339709	-0.764526	-0.322608
O264	O	0.673042	-0.431193	0.010725
O265	O	0.149563	-0.885282	-0.655926
O266	O	0.482897	-0.551948	-0.322593
O267	O	0.816230	-0.218615	0.010740
N268	N	0.077937	-0.991601	0.153207
N269	N	0.411271	-0.658268	0.486541
N270	N	0.744604	-0.324934	0.819874
H271	H	-0.214943	-1.134405	-0.000059
H272	H	0.118390	-0.801072	0.333274
H273	H	0.451724	-0.467738	0.666608
H274	H	-0.021407	-0.564086	0.000002
H275	H	0.311927	-0.230752	0.333335
H276	H	0.645260	0.102581	0.666668
C277	C	-0.771886	-1.146476	-0.000027
C278	C	-0.438553	-0.813143	0.333306
C279	C	-0.105219	-0.479810	0.666640
H280	H	-0.810546	-1.134802	-0.000017
H281	H	-0.477212	-0.801468	0.333316
H282	H	-0.143879	-0.468135	0.666649
H283	H	-0.764941	-1.178121	-0.034330
H284	H	-0.431607	-0.844787	0.299004
H285	H	-0.098274	-0.511454	0.632337
H286	H	-0.764937	-1.178107	0.034282
H287	H	-0.431604	-0.844774	0.367615
H288	H	-0.098271	-0.511440	0.700948
H289	H	0.186894	-0.829920	-0.443912
H290	H	0.520227	-0.496587	-0.110579
H291	H	0.853560	-0.163254	0.222755
H292	H	-0.107185	-1.136300	-0.000079
H293	H	0.226148	-0.802966	0.333254
H294	H	0.559481	-0.469633	0.666587
H295	H	-0.653691	-1.126658	-0.000042
H296	H	-0.320358	-0.793324	0.333291
H297	H	0.012976	-0.459991	0.666625
H298	H	-0.349056	-0.777032	-0.000004
H299	H	-0.015722	-0.443698	0.333329
H300	H	0.317611	-0.110365	0.666663
H301	H	-0.387220	-1.208056	-0.000059
H302	H	-0.053887	-0.874723	0.333275
H303	H	0.279446	-0.541390	0.666608
H304	H	0.027355	-0.449250	-0.089537
H305	H	0.360688	-0.115916	0.243796
H306	H	0.694021	0.217417	0.577130
H307	H	0.007800	-1.095803	-0.159053
H308	H	0.341134	-0.762469	0.174280
H309	H	0.674467	-0.429136	0.507614
H310	H	-0.736855	-0.846878	-0.000026
H311	H	-0.403522	-0.513544	0.333307
H312	H	-0.070188	-0.180211	0.666641
H313	H	0.007779	-1.095795	-0.271374
H314	H	0.341112	-0.762461	0.061959
H315	H	0.674445	-0.429128	0.395293
H316	H	0.186884	-0.829927	-0.556230
H317	H	0.520218	-0.496594	-0.222897
H318	H	0.853551	-0.163261	0.110437
H319	H	0.027311	-0.449220	0.089454
H320	H	0.360644	-0.115886	0.422787
H321	H	0.693978	0.217447	0.756121
H322	H	0.148218	-0.887362	-0.271402
H323	H	0.481551	-0.554028	0.061931
H324	H	0.814885	-0.220695	0.395265
H325	H	0.148158	-0.887388	-0.841050
H326	H	0.481492	-0.554054	-0.507717
H327	H	0.814825	-0.220721	-0.174384
H328	H	0.148166	-0.887366	-0.728729
H329	H	0.481499	-0.554033	-0.395396
H330	H	0.814833	-0.220700	-0.062062
C331	C	0.136698	-0.540761	0.103956
C332	C	0.470031	-0.207428	0.437289
C333	C	0.803364	0.125906	0.770622
H334	H	0.137208	-0.600249	0.103628
H335	H	0.470541	-0.266915	0.436961
H336	H	0.803875	0.066418	0.770295
H337	H	0.174854	-0.513502	0.104086
H338	H	0.508187	-0.180169	0.437420
H339	H	0.841520	0.153164	0.770753
H340	H	0.117344	-0.525036	0.138362
H341	H	0.450678	-0.191703	0.471695
H342	H	0.784011	0.141630	0.805029
C343	C	-0.505395	-1.227883	-0.000056
C344	C	-0.172062	-0.894550	0.333277
C345	C	0.161272	-0.561217	0.666610
H346	H	-0.483227	-1.273943	-0.000067
H347	H	-0.149894	-0.940610	0.333267
H348	H	0.183440	-0.607277	0.666600
H349	H	-0.528857	-1.230675	0.034245
H350	H	-0.195524	-0.897342	0.367578
H351	H	0.137809	-0.564009	0.700911
H352	H	-0.528842	-1.230654	-0.034367
H353	H	-0.195509	-0.897321	0.298967
H354	H	0.137824	-0.563988	0.632300
C355	C	0.159286	-0.870955	-0.150221
C356	C	0.492619	-0.537621	0.183112
C357	C	0.825953	-0.204288	0.516445
H358	H	0.153742	-0.879183	-0.108911
H359	H	0.487075	-0.545850	0.224422
H360	H	0.820408	-0.212516	0.557756
H361	H	0.197298	-0.879755	-0.160376
H362	H	0.530632	-0.546422	0.172957
H363	H	0.863965	-0.213088	0.506291
H364	H	0.153074	-0.814946	-0.160361
H365	H	0.486407	-0.481613	0.172972
H366	H	0.819740	-0.148279	0.506306
H367	H	-0.030952	-1.153222	-0.443882
H368	H	0.302381	-0.819888	-0.110548
H369	H	0.635715	-0.486555	0.222785
C370	C	-0.042023	-1.169627	-0.565049
C371	C	0.291311	-0.836294	-0.231716
C372	C	0.624644	-0.502961	0.101618
H373	H	-0.065066	-1.203836	-0.537736
H374	H	0.268268	-0.870502	-0.204403
H375	H	0.601601	-0.537169	0.128931
H376	H	-0.065745	-1.139614	-0.589199
H377	H	0.267589	-0.806281	-0.255865
H378	H	0.600922	-0.472948	0.077468
H379	H	-0.021522	-1.204426	-0.589207
H380	H	0.311812	-0.871093	-0.255874
H381	H	0.645145	-0.537759	0.077459
C382	C	0.193409	-0.407505	0.000037
C383	C	0.526742	-0.074171	0.333371
C384	C	0.860076	0.259162	0.666704
H385	H	0.212790	-0.422855	0.034525
H386	H	0.546124	-0.089521	0.367858
H387	H	0.879457	0.243812	0.701191
H388	H	0.213044	-0.423563	-0.034086
H389	H	0.546378	-0.090229	0.299247
H390	H	0.879711	0.243104	0.632580
H391	H	0.192364	-0.348128	-0.000286
H392	H	0.525697	-0.014794	0.333048
H393	H	0.859030	0.318539	0.666381
C394	C	-0.003323	-1.112221	-0.719842
C395	C	0.330010	-0.778888	-0.386509
C396	C	0.663343	-0.445554	-0.053175
H397	H	-0.026375	-1.146428	-0.747146
H398	H	0.306958	-0.813094	-0.413813
H399	H	0.640291	-0.479761	-0.080479
H400	H	0.017177	-1.147009	-0.695688
H401	H	0.350511	-0.813676	-0.362354
H402	H	0.683844	-0.480343	-0.029021
H403	H	-0.027046	-1.082198	-0.695687
H404	H	0.306288	-0.748865	-0.362354
H405	H	0.639621	-0.415531	-0.029021
C406	C	-0.003337	-1.112218	-0.849874
C407	C	0.329997	-0.778885	-0.516541
C408	C	0.663330	-0.445551	-0.183207
H409	H	0.002202	-1.103981	-0.891184
H410	H	0.335535	-0.770648	-0.557851
H411	H	0.668869	-0.437315	-0.224518
H412	H	0.002867	-1.168226	-0.839735
H413	H	0.336200	-0.834892	-0.506401
H414	H	0.669534	-0.501559	-0.173068
H415	H	-0.041350	-1.103405	-0.839719
H416	H	0.291984	-0.770071	-0.506386
H417	H	0.625317	-0.436738	-0.173053
C418	C	0.136734	-0.540985	-0.103913
C419	C	0.470068	-0.207652	0.229421
C420	C	0.803401	0.125682	0.562754
H421	H	0.117199	-0.525806	-0.138345
H422	H	0.450532	-0.192472	0.194988
H423	H	0.783865	0.140861	0.528321
H424	H	0.174794	-0.513369	-0.104256
H425	H	0.508127	-0.180035	0.229077
H426	H	0.841461	0.153298	0.562410
H427	H	0.137521	-0.600411	-0.103315
H428	H	0.470855	-0.267078	0.230018
H429	H	0.804188	0.066255	0.563351
H430	H	-0.629098	-0.848778	-0.000018
H431	H	-0.295765	-0.515445	0.333315
H432	H	0.037568	-0.182111	0.666649
H433	H	-0.456812	-0.775123	-0.000000
H434	H	-0.123478	-0.441789	0.333333
H435	H	0.209855	-0.108456	0.666666
H436	H	-0.190359	-0.856524	-0.000060
H437	H	0.142974	-0.523190	0.333274
H438	H	0.476307	-0.189857	0.666607
H439	H	-0.082584	-0.858434	-0.000056
H440	H	0.250749	-0.525101	0.333278
H441	H	0.584083	-0.191767	0.666611
