data_functionalizedCrystal
_audit_creation_method	'MofGen! by Chris Wilmer'
_symmetry_space_group_name_H-M	'P1'
_symmetry_Int_Tables_number	1
_symmetry_cell_setting	triclinic
loop_
_symmetry_equiv_pos_as_xyz
  x,y,z
_cell_length_a	15.995350
_cell_length_b	12.837942
_cell_length_c	11.295483
_cell_angle_alpha	85.469583
_cell_angle_beta	85.900966
_cell_angle_gamma	90.839342
loop_
_atom_site_label
_atom_site_type_symbol
_atom_site_fract_x
_atom_site_fract_y
_atom_site_fract_z
O1	O	1.126720	-0.126650	-0.098846
O2	O	1.460054	0.206683	0.234487
O3	O	1.793387	0.540017	0.567821
O4	O	0.884263	-0.143147	-0.098887
O5	O	1.217597	0.190186	0.234447
O6	O	1.550930	0.523520	0.567780
O7	O	1.000115	0.016004	-0.098860
O8	O	1.333449	0.349337	0.234474
O9	O	1.666782	0.682670	0.567807
O10	O	1.010868	-0.285801	-0.098873
O11	O	1.344202	0.047532	0.234461
O12	O	1.677535	0.380866	0.567794
O13	O	0.989938	0.002047	0.099189
O14	O	1.323271	0.335380	0.432522
O15	O	1.656605	0.668713	0.765855
O16	O	0.874086	-0.157104	0.099162
O17	O	1.207420	0.176229	0.432495
O18	O	1.540753	0.509562	0.765828
O19	O	1.116543	-0.140607	0.099203
O20	O	1.449876	0.192726	0.432536
O21	O	1.783210	0.526060	0.765869
Cu22	Cu	0.994385	-0.150130	0.117266
Cu23	Cu	1.327719	0.183203	0.450599
Cu24	Cu	1.661052	0.516537	0.783932
Cu25	Cu	1.006421	-0.133624	-0.116950
Cu26	Cu	1.339754	0.199709	0.216384
Cu27	Cu	1.673088	0.533043	0.549717
O28	O	1.000691	-0.299758	0.099176
O29	O	1.334025	0.033575	0.432509
O30	O	1.667358	0.366909	0.765842
C31	C	0.991394	0.047646	0.000163
C32	C	1.324728	0.380979	0.333496
C33	C	1.658061	0.714313	0.666830
C34	C	0.980561	0.162723	0.000159
C35	C	1.313894	0.496057	0.333493
C36	C	1.647228	0.829390	0.666826
C37	C	0.847926	-0.149443	0.000132
C38	C	1.181259	0.183890	0.333466
C39	C	1.514593	0.517223	0.666799
C40	C	0.754813	-0.147397	0.000117
C41	C	1.088147	0.185936	0.333450
C42	C	1.421480	0.519270	0.666784
C43	C	1.152881	-0.134311	0.000181
C44	C	1.486214	0.199023	0.333514
C45	C	1.819547	0.532356	0.666848
C46	C	1.245994	-0.136356	0.000189
C47	C	1.579327	0.196977	0.333522
C48	C	1.912660	0.530310	0.666855
C49	C	1.584330	-0.143697	0.000140
C50	C	1.917663	0.189636	0.333474
C51	C	2.250996	0.522969	0.666807
C52	C	1.545916	-0.257074	0.000583
C53	C	1.879250	0.076259	0.333917
C54	C	2.212583	0.409592	0.667250
C55	C	1.449085	-0.254998	0.000149
C56	C	1.782419	0.078335	0.333483
C57	C	2.115752	0.411668	0.666816
C58	C	1.416477	-0.140056	0.000165
C59	C	1.749811	0.193277	0.333498
C60	C	2.083144	0.526611	0.666832
C61	C	1.458889	-0.076179	-0.112930
C62	C	1.792222	0.257154	0.220404
C63	C	2.125556	0.590487	0.553737
C64	C	1.555757	-0.079019	-0.113037
C65	C	1.889091	0.254314	0.220296
C66	C	2.222424	0.587647	0.553629
C67	C	1.544389	-0.092550	0.112181
C68	C	1.877722	0.240783	0.445514
C69	C	2.211056	0.574116	0.778848
C70	C	1.447369	-0.092683	0.113688
C71	C	1.780702	0.240650	0.447022
C72	C	2.114035	0.573983	0.780355
C73	C	1.321615	-0.137992	0.000175
C74	C	1.654948	0.195341	0.333508
C75	C	1.988281	0.528675	0.666842
C76	C	1.679193	-0.145758	0.000123
C77	C	2.012526	0.187576	0.333456
C78	C	2.345860	0.520909	0.666789
C79	C	1.009412	-0.331400	0.000150
C80	C	1.342746	0.001933	0.333484
C81	C	1.676079	0.335267	0.666817
C82	C	1.020246	-0.446477	0.000146
C83	C	1.353579	-0.113143	0.333479
C84	C	1.686913	0.220190	0.666813
N85	N	0.985926	-0.161739	0.282000
N86	N	1.319259	0.171595	0.615333
N87	N	1.652593	0.504928	0.948667
C88	C	1.110799	0.403682	0.000156
C89	C	1.444132	0.737015	0.333490
C90	C	1.777466	1.070349	0.666823
C91	C	1.100624	0.511808	0.000153
C92	C	1.433957	0.845141	0.333486
C93	C	1.767291	1.178475	0.666819
C94	C	0.950038	0.487104	0.000140
C95	C	1.283371	0.820438	0.333473
C96	C	1.616704	1.153771	0.666806
C97	C	0.960213	0.378978	0.000143
C98	C	1.293546	0.712312	0.333477
C99	C	1.626879	1.045645	0.666810
C100	C	1.040596	0.337271	0.000154
C101	C	1.373929	0.670604	0.333487
C102	C	1.707262	1.003938	0.666820
C103	C	1.050769	0.229142	0.000166
C104	C	1.384103	0.562476	0.333499
C105	C	1.717436	0.895809	0.666832
C106	C	0.900184	0.204441	0.000144
C107	C	1.233517	0.537775	0.333478
C108	C	1.566851	0.871108	0.666811
C109	C	0.890009	0.312567	0.000141
C110	C	1.223343	0.645901	0.333474
C111	C	1.556676	0.979234	0.666807
N112	N	1.014886	-0.122007	-0.281684
N113	N	1.348220	0.211326	0.051649
N114	N	1.681553	0.544659	0.384983
C115	C	1.075776	-0.038384	0.531310
C116	C	1.409109	0.294950	0.864644
C117	C	1.742443	0.628283	1.197977
C118	C	1.069390	-0.047164	0.655972
C119	C	1.402723	0.286170	0.989306
C120	C	1.736057	0.619503	1.322639
C121	C	0.966764	-0.188073	0.655989
C122	C	1.300097	0.145260	0.989322
C123	C	1.633430	0.478593	1.322655
C124	C	0.973150	-0.179293	0.531327
C125	C	1.306483	0.154040	0.864660
C126	C	1.639816	0.487373	1.197993
C127	C	1.027659	-0.104447	0.468992
C128	C	1.360992	0.228886	0.802325
C129	C	1.694325	0.562220	1.135658
C130	C	1.034049	-0.095673	0.344327
C131	C	1.367382	0.237661	0.677661
C132	C	1.700716	0.570994	1.010994
C133	C	0.931419	-0.236576	0.344346
C134	C	1.264752	0.096757	0.677679
C135	C	1.598085	0.430090	1.011013
C136	C	0.925032	-0.245357	0.469008
C137	C	1.258366	0.087977	0.802341
C138	C	1.591699	0.421310	1.135675
H139	H	1.420016	-0.304662	0.081216
H140	H	1.753349	0.028671	0.414550
H141	H	2.086682	0.362004	0.747883
Br142	Br	0.851055	-0.346925	0.553612
Br143	Br	1.184388	-0.013591	0.886946
Br144	Br	1.517722	0.319742	1.220279
Br145	Br	0.866122	-0.326247	0.259760
Br146	Br	1.199456	0.007086	0.593093
Br147	Br	1.532789	0.340420	0.926426
Br148	Br	1.576556	-0.342395	0.135153
Br149	Br	1.909890	-0.009061	0.468487
Br150	Br	2.243223	0.324272	0.801820
H151	H	0.922378	-0.249005	0.706758
H152	H	1.255711	0.084329	1.040091
H153	H	1.589044	0.417662	1.373425
H154	H	1.078435	-0.034732	0.293575
H155	H	1.411768	0.298601	0.626909
H156	H	1.745102	0.631935	0.960242
H157	H	1.581643	-0.113831	-0.197582
H158	H	1.914977	0.219502	0.135751
H159	H	2.248310	0.552836	0.469084
Br160	Br	1.159858	0.172539	0.000192
Br161	Br	1.493191	0.505872	0.333525
Br162	Br	1.826525	0.839205	0.666859
H163	H	1.157791	0.565877	0.000151
H164	H	1.491125	0.899210	0.333485
H165	H	1.824458	1.232544	0.666818
H166	H	1.581630	0.004559	-0.118182
H167	H	1.914963	0.337893	0.215151
H168	H	2.248296	0.671226	0.548484
H169	H	0.843019	0.150357	0.000151
H170	H	1.176352	0.483690	0.333485
H171	H	1.509686	0.817023	0.666818
Br172	Br	1.134690	0.042502	0.740546
Br173	Br	1.468024	0.375835	1.073879
Br174	Br	1.801357	0.709169	1.407212
H175	H	1.120165	0.022552	0.480556
H176	H	1.453499	0.355886	0.813890
H177	H	1.786832	0.689219	1.147223
H178	H	1.573241	-0.296492	-0.080073
H179	H	1.906574	0.036842	0.253261
H180	H	2.239908	0.370175	0.586594
Br181	Br	1.424478	0.065065	-0.119929
Br182	Br	1.757812	0.398398	0.213404
Br183	Br	2.091145	0.731731	0.546737
H184	H	1.563495	-0.135648	0.197894
H185	H	1.896829	0.197686	0.531227
H186	H	2.230162	0.531019	0.864561
Br187	Br	1.415453	-0.319191	-0.135207
Br188	Br	1.748786	0.014142	0.198127
Br189	Br	2.082120	0.347476	0.531460
H190	H	1.437893	-0.109052	-0.197092
H191	H	1.771226	0.224281	0.136241
H192	H	2.104559	0.557615	0.469575
Br193	Br	0.840957	0.543729	0.000083
Br194	Br	1.174290	0.877062	0.333416
Br195	Br	1.507624	1.210396	0.666750
H196	H	1.419040	-0.139402	0.197354
H197	H	1.752373	0.193931	0.530688
H198	H	2.085706	0.527265	0.864021
H199	H	1.569440	-0.009033	0.112943
H200	H	1.902773	0.324300	0.446277
H201	H	2.236107	0.657633	0.779610
Br202	Br	1.410031	0.046222	0.125098
Br203	Br	1.743364	0.379555	0.458432
Br204	Br	2.076697	0.712889	0.791765
Br205	Br	0.780924	0.369181	0.000112
Br206	Br	1.114257	0.702514	0.333445
Br207	Br	1.447591	1.035848	0.666778
Br208	Br	1.219884	0.347071	0.000207
Br209	Br	1.553218	0.680404	0.333540
Br210	Br	1.886551	1.013738	0.666874
