data_functionalizedCrystal
_audit_creation_method	'MofGen! by Chris Wilmer'
_symmetry_space_group_name_H-M	'P1'
_symmetry_Int_Tables_number	1
_symmetry_cell_setting	triclinic
loop_
_symmetry_equiv_pos_as_xyz
  x,y,z
_cell_length_a	14.519709
_cell_length_b	13.596369
_cell_length_c	14.971486
_cell_angle_alpha	90.006197
_cell_angle_beta	83.647137
_cell_angle_gamma	89.999709
loop_
_atom_site_label
_atom_site_type_symbol
_atom_site_fract_x
_atom_site_fract_y
_atom_site_fract_z
O1	O	1.223798	0.081664	0.117252
O2	O	1.473798	0.331664	0.367252
O3	O	1.723798	0.581664	0.617252
O4	O	1.973798	0.831664	0.867252
O5	O	0.955313	0.081694	0.131060
O6	O	1.205313	0.331694	0.381060
O7	O	1.455313	0.581694	0.631060
O8	O	1.705313	0.831694	0.881060
O9	O	1.096752	0.081671	-0.006040
O10	O	1.346752	0.331671	0.243960
O11	O	1.596752	0.581671	0.493960
O12	O	1.846752	0.831671	0.743960
O13	O	1.082360	0.081687	0.254352
O14	O	1.332360	0.331687	0.504352
O15	O	1.582360	0.581687	0.754352
O16	O	1.832360	0.831687	1.004352
O17	O	1.096738	-0.081912	-0.006047
O18	O	1.346738	0.168088	0.243953
O19	O	1.596738	0.418088	0.493953
O20	O	1.846738	0.668088	0.743953
O21	O	0.955299	-0.081889	0.131053
O22	O	1.205299	0.168111	0.381053
O23	O	1.455299	0.418111	0.631053
O24	O	1.705299	0.668111	0.881053
O25	O	1.223784	-0.081919	0.117245
O26	O	1.473784	0.168081	0.367245
O27	O	1.723784	0.418081	0.617245
O28	O	1.973784	0.668081	0.867245
Zn29	Zn	1.089539	-0.107876	0.124148
Zn30	Zn	1.339539	0.142124	0.374148
Zn31	Zn	1.589539	0.392124	0.624148
Zn32	Zn	1.839539	0.642124	0.874148
Zn33	Zn	1.089558	0.107651	0.124157
Zn34	Zn	1.339558	0.357651	0.374157
Zn35	Zn	1.589558	0.607651	0.624157
Zn36	Zn	1.839558	0.857651	0.874157
O37	O	1.082346	-0.081896	0.254345
O38	O	1.332346	0.168104	0.504345
O39	O	1.582346	0.418104	0.754345
O40	O	1.832346	0.668104	1.004345
C41	C	0.920947	-0.000094	0.130413
C42	C	1.170947	0.249906	0.380413
C43	C	1.420947	0.499906	0.630413
C44	C	1.670947	0.749906	0.880413
C45	C	0.818567	-0.000082	0.128485
C46	C	1.068567	0.249918	0.378485
C47	C	1.318567	0.499918	0.628485
C48	C	1.568567	0.749918	0.878485
N49	N	1.089533	-0.254968	0.124141
N50	N	1.339533	-0.004968	0.374141
N51	N	1.589533	0.245032	0.624141
N52	N	1.839533	0.495032	0.874141
C53	C	0.443675	-0.000128	0.121386
C54	C	0.693675	0.249872	0.371386
C55	C	0.943675	0.499872	0.621386
C56	C	1.193675	0.749872	0.871386
C57	C	0.547982	-0.000115	0.123357
C58	C	0.797982	0.249885	0.373357
C59	C	1.047982	0.499885	0.623357
C60	C	1.297982	0.749885	0.873357
C61	C	0.631118	-0.000104	0.124935
C62	C	0.881118	0.249896	0.374935
C63	C	1.131118	0.499896	0.624935
C64	C	1.381118	0.749896	0.874935
C65	C	0.735431	-0.000093	0.126907
C66	C	0.985431	0.249907	0.376907
C67	C	1.235431	0.499907	0.626907
C68	C	1.485431	0.749907	0.876907
C69	C	1.089557	-0.656259	0.124158
C70	C	1.339557	-0.406259	0.374158
C71	C	1.589557	-0.156259	0.624158
C72	C	1.839557	0.093741	0.874158
C73	C	1.089548	-0.544608	0.124156
C74	C	1.339548	-0.294608	0.374156
C75	C	1.589548	-0.044608	0.624156
C76	C	1.839548	0.205392	0.874156
C77	C	1.089546	-0.455617	0.124150
C78	C	1.339546	-0.205617	0.374150
C79	C	1.589546	0.044383	0.624150
C80	C	1.839546	0.294383	0.874150
C81	C	1.089535	-0.343959	0.124147
C82	C	1.339535	-0.093959	0.374147
C83	C	1.589535	0.156041	0.624147
C84	C	1.839535	0.406041	0.874147
C85	C	1.258151	-0.000129	0.117892
C86	C	1.508151	0.249871	0.367892
C87	C	1.758151	0.499871	0.617892
C88	C	2.008151	0.749871	0.867892
C89	C	1.360531	-0.000134	0.119820
C90	C	1.610531	0.249866	0.369820
C91	C	1.860531	0.499866	0.619820
C92	C	2.110531	0.749866	0.869820
C93	C	1.096101	-0.000120	-0.039369
C94	C	1.346101	0.249880	0.210631
C95	C	1.596101	0.499880	0.460631
C96	C	1.846101	0.749880	0.710631
C97	C	1.094172	-0.000119	-0.138667
C98	C	1.344172	0.249881	0.111333
C99	C	1.594172	0.499881	0.361333
C100	C	1.844172	0.749881	0.611333
N101	N	1.089571	0.254743	0.124157
N102	N	1.339571	0.504743	0.374157
N103	N	1.589571	0.754743	0.624157
N104	N	1.839571	1.004743	0.874157
C105	C	1.177264	-0.000129	-0.195845
C106	C	1.427264	0.249871	0.054155
C107	C	1.677264	0.499871	0.304155
C108	C	1.927264	0.749871	0.554155
C109	C	1.175446	-0.000119	-0.289146
C110	C	1.425446	0.249881	-0.039146
C111	C	1.675446	0.499881	0.210854
C112	C	1.925446	0.749881	0.460854
C113	C	1.090536	-0.000106	-0.325266
C114	C	1.340536	0.249894	-0.075266
C115	C	1.590536	0.499894	0.174734
C116	C	1.840536	0.749894	0.424734
C117	C	1.007438	-0.000093	-0.268080
C118	C	1.257438	0.249907	-0.018080
C119	C	1.507438	0.499907	0.231920
C120	C	1.757438	0.749907	0.481920
C121	C	1.009257	-0.000096	-0.174781
C122	C	1.259257	0.249904	0.075219
C123	C	1.509257	0.499904	0.325219
C124	C	1.759257	0.749904	0.575219
C125	C	1.003653	-0.000089	-0.462545
C126	C	1.253653	0.249911	-0.212545
C127	C	1.503653	0.499911	0.037455
C128	C	1.753653	0.749911	0.287455
C129	C	1.001834	-0.000088	-0.555850
C130	C	1.251834	0.249912	-0.305850
C131	C	1.501834	0.499912	-0.055850
C132	C	1.751834	0.749912	0.194150
C133	C	1.169842	-0.000112	-0.576909
C134	C	1.419842	0.249888	-0.326909
C135	C	1.669842	0.499888	-0.076909
C136	C	1.919842	0.749888	0.173091
C137	C	1.171661	-0.000115	-0.483610
C138	C	1.421661	0.249885	-0.233610
C139	C	1.671661	0.499885	0.016390
C140	C	1.921661	0.749885	0.266390
C141	C	1.088563	-0.000104	-0.426431
C142	C	1.338563	0.249896	-0.176431
C143	C	1.588563	0.499896	0.073569
C144	C	1.838563	0.749896	0.323569
C145	C	1.082996	-0.000103	0.287674
C146	C	1.332996	0.249897	0.537674
C147	C	1.582996	0.499897	0.787674
C148	C	1.832996	0.749897	1.037674
C149	C	1.084925	-0.000098	0.386972
C150	C	1.334925	0.249902	0.636972
C151	C	1.584925	0.499902	0.886972
C152	C	1.834925	0.749902	1.136972
H153	H	1.246407	-0.000146	-0.166444
H154	H	1.496407	0.249854	0.083556
H155	H	1.746407	0.499854	0.333556
H156	H	1.996407	0.749854	0.583556
H157	H	0.941595	-0.000087	-0.128227
H158	H	1.191595	0.249913	0.121773
H159	H	1.441595	0.499913	0.371773
H160	H	1.691595	0.749913	0.621773
F161	F	1.263883	-0.000131	-0.349996
F162	F	1.513883	0.249869	-0.099996
F163	F	1.763883	0.499869	0.150004
F164	F	2.013883	0.749869	0.400004
F165	F	1.262032	-0.000126	-0.445171
F166	F	1.512032	0.249874	-0.195171
F167	F	1.762032	0.499874	0.054829
F168	F	2.012032	0.749874	0.304829
H169	H	1.237504	-0.000118	-0.623470
H170	H	1.487504	0.249882	-0.373470
H171	H	1.737504	0.499882	-0.123470
H172	H	1.987504	0.749882	0.126530
F173	F	0.911463	-0.000075	-0.594289
F174	F	1.161463	0.249925	-0.344289
F175	F	1.411463	0.499925	-0.094289
F176	F	1.661463	0.749925	0.155711
H177	H	0.938303	-0.000076	-0.297496
H178	H	1.188303	0.249924	-0.047496
H179	H	1.438303	0.499924	0.202504
H180	H	1.688303	0.749924	0.452504
H181	H	0.935985	-0.000077	-0.415991
H182	H	1.185985	0.249923	-0.165991
H183	H	1.435985	0.499923	0.084009
H184	H	1.685985	0.749923	0.334009
