data_functionalizedCrystal
_audit_creation_method	'MofGen! by Chris Wilmer'
_symmetry_space_group_name_H-M	'P1'
_symmetry_Int_Tables_number	1
_symmetry_cell_setting	triclinic
loop_
_symmetry_equiv_pos_as_xyz
  x,y,z
_cell_length_a	25.639239
_cell_length_b	18.050591
_cell_length_c	18.050582
_cell_angle_alpha	90.023995
_cell_angle_beta	89.975362
_cell_angle_gamma	89.968232
loop_
_atom_site_label
_atom_site_type_symbol
_atom_site_fract_x
_atom_site_fract_y
_atom_site_fract_z
Zn1	Zn	-0.208280	-1.135238	-0.420082
Zn2	Zn	-0.295708	-1.135126	-0.295887
Zn3	Zn	-0.208278	-1.011058	-0.295886
Zn4	Zn	-0.295676	-1.010983	-0.420016
O5	O	-0.251986	-1.073101	-0.357968
O6	O	-0.219892	-1.239148	-0.403635
O7	O	-0.284123	-1.118653	-0.191962
O8	O	-0.135113	-1.027609	-0.312388
O9	O	-0.284125	-1.239066	-0.312390
O10	O	-0.135115	-1.118844	-0.403634
O11	O	-0.219888	-1.027500	-0.191962
O12	O	-0.219857	-0.907123	-0.312324
O13	O	-0.284070	-1.027481	-0.523949
O14	O	-0.284068	-0.907068	-0.403522
O15	O	-0.219861	-1.118771	-0.523998
O16	O	-0.368869	-1.118580	-0.312326
O17	O	-0.368846	-1.027373	-0.403523
C18	C	-0.251959	-0.880149	-0.357916
C19	C	-0.251961	-0.797604	-0.357912
C20	C	-0.387828	-1.072977	-0.357934
C21	C	-0.445942	-1.072991	-0.357944
C22	C	-0.216995	-0.598161	-0.308422
C23	C	-0.264681	-0.548729	-0.290141
C24	C	-0.251971	-0.646473	-0.357937
C25	C	-0.204297	-0.548824	-0.376209
C26	C	-0.251977	-0.500488	-0.357961
C27	C	-0.299682	-0.598128	-0.339621
C28	C	-0.239266	-0.598227	-0.425720
C29	C	-0.286984	-0.548817	-0.407465
C30	C	-0.251967	-0.730571	-0.357922
C31	C	-0.251986	-0.416392	-0.357976
C32	C	-0.806305	-1.120717	-0.310562
C33	C	-0.860909	-1.120746	-0.310572
O34	O	-0.889146	-1.161195	-0.270249
N35	N	-0.888225	-1.073232	-0.358017
C36	C	-0.860933	-1.025691	-0.405460
O37	O	-0.889181	-0.985280	-0.445817
C38	C	-0.806330	-1.025667	-0.405453
C39	C	-0.779017	-1.073179	-0.358000
C40	C	-0.778992	-1.168226	-0.263114
C41	C	-0.724392	-1.168196	-0.263103
C42	C	-0.697104	-1.120657	-0.310541
C43	C	-0.724417	-1.073149	-0.357989
C44	C	-0.779039	-0.978131	-0.452899
C45	C	-0.724432	-0.978111	-0.452889
C46	C	-0.697119	-1.025622	-0.405436
C47	C	-0.642528	-1.025580	-0.405417
N48	N	-0.615213	-1.073094	-0.357972
C49	C	-0.642501	-1.120633	-0.310534
C50	C	-0.975604	-1.025747	-0.405471
C51	C	-1.030206	-1.025767	-0.405475
C52	C	-1.030179	-1.120823	-0.310588
C53	C	-0.975575	-1.120799	-0.310581
C54	C	-0.948288	-1.073261	-0.358027
C55	C	-0.527836	-1.120566	-0.310515
C56	C	-0.473230	-1.120530	-0.310506
C57	C	-0.473262	-1.025477	-0.405395
C58	C	-0.527863	-1.025510	-0.405402
C59	C	-0.555148	-1.073061	-0.357959
O60	O	-0.614257	-0.985154	-0.445721
O61	O	-0.614246	-1.161044	-0.270191
C62	C	-0.115613	-1.073247	-0.358018
C63	C	-0.057499	-1.073309	-0.358040
C64	C	-0.251963	-1.073131	-0.551673
C65	C	-0.251953	-1.073143	-0.634219
C66	C	-0.252004	-0.266807	-0.358006
C67	C	-0.251988	-0.349353	-0.357988
C68	C	-0.286822	-1.023537	-0.833644
C69	C	-0.299608	-1.091289	-0.883045
C70	C	-0.251913	-1.073180	-0.785350
C71	C	-0.239112	-1.005465	-0.883030
C72	C	-0.251875	-1.073209	-0.931335
C73	C	-0.264724	-1.140967	-0.833664
C74	C	-0.204206	-1.055097	-0.833644
C75	C	-0.216974	-1.122896	-0.883023
C76	C	-0.251936	-1.073162	-0.701251
C77	C	-0.251852	-1.073235	-1.015431
C78	C	-0.251971	-1.073115	-0.165016
C79	C	-0.251834	-1.073247	-0.082470
H80	H	-0.187451	-0.619827	-0.266507
C81	C	-1.060244	-0.973494	-0.457670
N82	N	-1.082866	-0.934122	-0.496988
C83	C	-0.694420	-0.925814	-0.505085
N84	N	-0.671815	-0.886424	-0.544397
C85	C	-0.279205	-0.519352	-0.212716
N86	N	-0.290140	-0.497226	-0.154398
C87	C	-0.443235	-0.973190	-0.457577
N88	N	-0.420617	-0.933812	-0.496886
C89	C	-0.177070	-1.179690	-0.912132
N90	N	-0.147016	-1.222470	-0.934057
H91	H	-0.953389	-0.987030	-0.444105
C92	C	-0.354168	-0.627263	-0.318661
N93	N	-0.395205	-0.649209	-0.302871
H94	H	-0.228498	-0.619985	-0.483016
H95	H	-0.163888	-1.039765	-0.811929
C96	C	-0.326757	-0.966887	-0.804335
N97	N	-0.356838	-0.924226	-0.782255
H98	H	-0.275581	-1.198261	-0.812070
C99	C	-0.557908	-0.973242	-0.457599
N100	N	-0.580534	-0.933879	-0.496922
H101	H	-0.339937	-1.106602	-0.904744
H102	H	-0.316599	-0.527288	-0.449348
H103	H	-0.228301	-0.948187	-0.904715
H104	H	-0.450994	-1.159219	-0.271862
C105	C	-0.557842	-1.172869	-0.258321
N106	N	-0.580442	-1.212260	-0.219004
C107	C	-0.694355	-1.220457	-0.210894
N108	N	-0.671735	-1.259821	-0.171566
C109	C	-0.149826	-0.519567	-0.397077
N110	N	-0.108797	-0.497534	-0.412790
H111	H	-0.801205	-1.206941	-0.224484
C112	C	-0.945537	-1.173067	-0.258382
N113	N	-0.922914	-1.212439	-0.219065
H114	H	-1.052406	-1.159534	-0.271964
H115	H	-0.801267	-0.939438	-0.491537
