data_functionalizedCrystal
_audit_creation_method	'MofGen! by Chris Wilmer'
_symmetry_space_group_name_H-M	'P1'
_symmetry_Int_Tables_number	1
_symmetry_cell_setting	triclinic
loop_
_symmetry_equiv_pos_as_xyz
  x,y,z
_cell_length_a	10.654550
_cell_length_b	10.654550
_cell_length_c	9.130313
_cell_angle_alpha	90.000110
_cell_angle_beta	90.003780
_cell_angle_gamma	84.484903
loop_
_atom_site_label
_atom_site_type_symbol
_atom_site_fract_x
_atom_site_fract_y
_atom_site_fract_z
O1	O	-1.667834	-0.176393	-0.121916
O2	O	-1.302356	-0.193199	-0.121892
O3	O	-1.493498	-0.002057	-0.121899
O4	O	-1.476692	-0.367535	-0.121909
O5	O	-1.493496	-0.002062	0.121700
O6	O	-1.302353	-0.193204	0.121707
O7	O	-1.667832	-0.176398	0.121683
Cu8	Cu	-1.485092	-0.184802	0.143937
Cu9	Cu	-1.485095	-0.184796	-0.144146
O10	O	-1.476689	-0.367540	0.121690
C11	C	-1.255556	-0.191968	-0.000089
C12	C	-1.116113	-0.188276	-0.000080
C13	C	-1.492263	0.044739	-0.000101
C14	C	-1.488571	0.184182	-0.000106
C15	C	-1.714631	-0.177630	-0.000123
C16	C	-1.854074	-0.181321	-0.000141
C17	C	-1.477925	-0.414336	-0.000111
C18	C	-1.481616	-0.553779	-0.000116
C19	C	-1.036627	-0.300817	-0.000105
C20	C	-0.905607	-0.297341	-0.000130
C21	C	-0.933570	-0.068771	-0.000113
C22	C	-1.064588	-0.072249	-0.000077
C23	C	-1.020482	-0.432780	-0.000121
C24	C	-0.889461	-0.429304	-0.000146
N25	N	-1.485099	-0.184805	0.346560
C26	C	-1.601112	0.263668	-0.000109
C27	C	-1.597636	0.394688	-0.000119
C28	C	-1.369066	0.366725	-0.000117
C29	C	-1.372544	0.235707	-0.000118
C30	C	-1.733075	0.279813	-0.000104
C31	C	-1.729599	0.410834	-0.000114
N32	N	-1.485098	-0.184782	-0.346769
C33	C	-1.569759	-0.100196	0.423209
C34	C	-1.569756	-0.100181	0.576546
C35	C	-1.400429	-0.269395	0.576571
C36	C	-1.400427	-0.269403	0.423237
C37	C	-1.667523	-0.002506	0.423195
C38	C	-1.667519	-0.002491	0.576532
H39	H	-1.129302	0.019393	-0.000036
H40	H	-1.049812	-0.484393	0.101829
H41	H	-1.056138	-0.474797	-0.105294
O42	O	-0.883576	0.043962	0.000139
C43	C	-0.924094	0.112647	0.126292
H44	H	-0.951910	0.044821	0.214479
H45	H	-0.844265	0.166773	0.168622
H46	H	-1.008870	0.181887	0.097789
O47	O	-1.256472	0.416987	-0.000057
C48	C	-1.277531	0.549672	-0.000102
H49	H	-1.375270	0.579585	0.046014
H50	H	-1.203219	0.590540	0.070618
H51	H	-1.271133	0.586184	-0.116972
H52	H	-1.764031	-0.024009	0.618142
H53	H	-0.843789	-0.469187	0.105021
H54	H	-1.779319	0.452592	0.101827
H55	H	-1.646080	0.094027	0.381580
H56	H	-1.784692	0.250457	-0.102046
H57	H	-1.769481	0.456479	-0.105296
H58	H	-1.775096	0.244184	0.105075
O59	O	-1.263254	0.158444	-0.000391
C60	C	-1.258457	0.081805	-0.126539
H61	H	-1.322277	0.129223	-0.214708
H62	H	-1.157426	0.067960	-0.168901
H63	H	-1.291786	-0.013738	-0.098015
O64	O	-1.318134	-0.351704	0.349007
C65	C	-1.243384	-0.426344	0.449569
H66	H	-1.294888	-0.428245	0.558866
H67	H	-1.225075	-0.526467	0.405274
H68	H	-1.149747	-0.384679	0.465885
H69	H	-1.758706	-0.033094	0.375630
H70	H	-1.637006	0.088732	0.624084
O71	O	-1.318134	-0.351399	0.651222
C72	C	-1.240056	-0.283405	0.739884
H73	H	-1.289228	-0.185591	0.762839
H74	H	-1.220639	-0.335631	0.847717
H75	H	-1.147167	-0.274011	0.680793
H76	H	-0.847729	-0.479023	-0.102101
