data_functionalizedCrystal
_audit_creation_method	'MofGen! by Chris Wilmer'
_symmetry_space_group_name_H-M	'P1'
_symmetry_Int_Tables_number	1
_symmetry_cell_setting	triclinic
loop_
_symmetry_equiv_pos_as_xyz
  x,y,z
_cell_length_a	15.297327
_cell_length_b	12.759401
_cell_length_c	12.759401
_cell_angle_alpha	89.996200
_cell_angle_beta	80.340282
_cell_angle_gamma	80.297308
loop_
_atom_site_label
_atom_site_type_symbol
_atom_site_fract_x
_atom_site_fract_y
_atom_site_fract_z
Zn1	Zn	-0.359409	-1.533547	0.666401
Zn2	Zn	-0.510249	-1.503048	0.521096
Zn3	Zn	-0.359390	-1.357903	0.490732
Zn4	Zn	-0.510224	-1.327399	0.696728
O5	O	-0.434818	-1.430474	0.593739
O6	O	-0.379437	-1.676519	0.647142
O7	O	-0.490239	-1.483796	0.370048
O8	O	-0.233141	-1.406733	0.488635
O9	O	-0.490258	-1.654111	0.540387
O10	O	-0.233155	-1.535778	0.617699
O11	O	-0.379404	-1.377159	0.347739
O12	O	-0.379380	-1.206839	0.518042
O13	O	-0.490216	-1.354743	0.839725
O14	O	-0.490197	-1.184428	0.669386
O15	O	-0.379413	-1.506199	0.817445
O16	O	-0.636497	-1.454218	0.569794
O17	O	-0.636479	-1.325169	0.698829
C18	C	-0.434784	-1.157514	0.593710
C19	C	-0.434792	-1.040736	0.593727
C20	C	-0.377193	-0.997513	0.649439
C21	C	-0.377206	-0.887786	0.649445
C22	C	-0.492422	-0.864514	0.538027
C23	C	-0.492404	-0.974239	0.538015
C24	C	-0.310677	-1.010948	0.713769
C25	C	-0.310689	-0.901221	0.713775
C26	C	-0.669223	-1.383102	0.640920
C27	C	-0.769503	-1.362932	0.661139
C28	C	-1.052087	-1.575064	0.449588
C29	C	-0.957870	-1.594014	0.430585
C30	C	-0.910773	-1.536246	0.488222
C31	C	-0.957904	-1.459523	0.564865
C32	C	-1.052131	-1.440566	0.583863
C33	C	-0.910817	-1.401747	0.622498
C34	C	-0.957947	-1.325025	0.699140
C35	C	-1.052165	-1.306071	0.718135
C36	C	-1.099261	-1.363839	0.660498
C37	C	-0.816590	-1.420705	0.603499
C38	C	-0.816633	-1.286206	0.737775
C39	C	-0.910851	-1.267256	0.756777
C40	C	-0.199497	-1.478060	0.546397
C41	C	-0.099218	-1.498338	0.526223
C42	C	-0.434814	-1.430471	0.867772
C43	C	-0.434812	-1.430469	0.984548
C44	C	-0.434841	-0.704503	0.593760
C45	C	-0.434821	-0.821284	0.593745
C46	C	-0.377129	-1.509324	1.027812
C47	C	-0.377131	-1.509317	1.137537
C48	C	-0.492507	-1.351597	1.160724
C49	C	-0.492499	-1.351600	1.051001
C50	C	-0.310520	-1.600385	1.014427
C51	C	-0.310522	-1.600378	1.124151
C52	C	-0.434837	-1.430464	1.320776
C53	C	-0.434821	-1.430459	1.203996
H54	H	-0.778225	-1.483173	0.541096
H55	H	-0.244143	-1.584652	1.144832
Cl56	Cl	-1.111298	-1.647675	0.377137
Cl57	Cl	-0.202633	-1.588563	0.946751
H58	H	-0.244275	-0.880592	0.671401
H59	H	-1.090536	-1.243586	0.780530
Cl60	Cl	-0.202746	-1.078707	0.658608
H61	H	-0.919499	-1.656480	0.368183
Cl62	Cl	-1.217710	-1.339594	0.683957
H63	H	-0.539298	-1.009428	0.492638
H64	H	-0.778288	-1.239164	0.784706
H65	H	-0.335806	-1.039919	0.796068
Cl66	Cl	-0.565025	-1.252453	1.244271
H67	H	-0.539328	-0.810359	0.492668
H68	H	-0.329515	-0.867653	0.798901
Cl69	Cl	-0.970112	-1.170808	0.853123
Cl70	Cl	-0.792327	-1.560358	0.464620
H71	H	-0.335562	-1.672612	0.985436
Cl72	Cl	-0.565004	-1.252451	0.996612
H73	H	-0.329250	-1.677960	1.157703
