data_functionalizedCrystal
_audit_creation_method	'MofGen! by Chris Wilmer'
_symmetry_space_group_name_H-M	'P1'
_symmetry_Int_Tables_number	1
_symmetry_cell_setting	triclinic
loop_
_symmetry_equiv_pos_as_xyz
  x,y,z
_cell_length_a	12.645331
_cell_length_b	25.639239
_cell_length_c	12.645323
_cell_angle_alpha	89.968126
_cell_angle_beta	89.977324
_cell_angle_gamma	90.037665
loop_
_atom_site_label
_atom_site_type_symbol
_atom_site_fract_x
_atom_site_fract_y
_atom_site_fract_z
Zn1	Zn	1.620577	-0.208161	-0.599395
Zn2	Zn	2.120577	0.291839	-0.099395
Zn3	Zn	1.620393	-0.295600	-0.422113
Zn4	Zn	2.120393	0.204400	0.077887
Zn5	Zn	1.443291	-0.208179	-0.422139
Zn6	Zn	1.943291	0.291821	0.077861
Zn7	Zn	1.443208	-0.295566	-0.599328
Zn8	Zn	1.943208	0.204434	-0.099328
O9	O	1.531867	-0.251876	-0.510744
O10	O	2.031867	0.248124	-0.010744
O11	O	1.768900	-0.219767	-0.575895
O12	O	2.268900	0.280233	-0.075895
O13	O	1.596858	-0.284025	-0.273769
O14	O	2.096858	0.215975	0.226231
O15	O	1.466920	-0.135011	-0.445691
O16	O	1.966920	0.364989	0.054309
O17	O	1.768765	-0.284008	-0.445647
O18	O	2.268765	0.215992	0.054353
O19	O	1.597171	-0.134998	-0.575920
O20	O	2.097171	0.365002	-0.075920
O21	O	1.466742	-0.219797	-0.273788
O22	O	1.966742	0.280203	0.226212
O23	O	1.294933	-0.219764	-0.445627
O24	O	1.794933	0.280236	0.054373
O25	O	1.466778	-0.283949	-0.747685
O26	O	1.966778	0.216051	-0.247685
O27	O	1.294872	-0.283967	-0.575807
O28	O	1.794872	0.216033	-0.075807
O29	O	1.597090	-0.219734	-0.747733
O30	O	2.097090	0.280266	-0.247733
O31	O	1.596778	-0.368760	-0.445582
O32	O	2.096778	0.131240	0.054418
O33	O	1.466600	-0.368735	-0.575782
O34	O	1.966600	0.131265	-0.075782
C35	C	1.256438	-0.251864	-0.510713
C36	C	1.756438	0.248136	-0.010713
C37	C	1.138607	-0.251871	-0.510725
C38	C	1.638607	0.248129	-0.010725
C39	C	1.531689	-0.387719	-0.510695
C40	C	2.031689	0.112281	-0.010695
C41	C	1.531710	-0.445833	-0.510710
C42	C	2.031710	0.054167	-0.010710
C43	C	0.971047	-0.211295	-0.429281
C44	C	1.471047	0.288705	0.070719
C45	C	1.093606	-0.211400	-0.428922
C46	C	1.593606	0.288600	0.071078
C47	C	1.094046	-0.306949	-0.480197
C48	C	1.594046	0.193051	0.019803
C49	C	0.971448	-0.306727	-0.479641
C50	C	1.471448	0.193273	0.020359
C51	C	0.971468	-0.237893	-0.623013
C52	C	1.471468	0.262107	-0.123013
C53	C	1.094075	-0.236663	-0.622389
C54	C	1.594075	0.263337	-0.122389
C55	C	1.599827	-0.806196	-0.443064
C56	C	2.099827	-0.306196	0.056936
C57	C	1.599869	-0.860801	-0.443079
C58	C	2.099869	-0.360801	0.056921
O59	O	1.657600	-0.889038	-0.385511
O60	O	2.157600	-0.389038	0.114489
N61	N	1.532054	-0.888115	-0.510814
N62	N	2.032054	-0.388115	-0.010814
C63	C	1.464201	-0.860823	-0.578547
C64	C	1.964201	-0.360823	-0.078547
O65	O	1.406523	-0.889070	-0.636163
O66	O	1.906523	-0.389070	-0.136163
C67	C	1.464166	-0.806219	-0.578538
C68	C	1.964166	-0.306219	-0.078538
C69	C	1.531978	-0.778908	-0.510790
C70	C	2.031978	-0.278908	-0.010790
C71	C	1.667635	-0.778884	-0.375323
C72	C	2.167635	-0.278884	0.124677
C73	C	1.667592	-0.724284	-0.375308
C74	C	2.167592	-0.224284	0.124692
C75	C	1.599742	-0.696995	-0.443034
C76	C	2.099742	-0.196995	0.056966
C77	C	1.531935	-0.724307	-0.510775
C78	C	2.031935	-0.224307	-0.010775
C79	C	1.396319	-0.778928	-0.646275
C80	C	1.896319	-0.278928	-0.146275
C81	C	1.396290	-0.724321	-0.646260
C82	C	1.896290	-0.224321	-0.146260
C83	C	1.464102	-0.697009	-0.578513
C84	C	1.964102	-0.197009	-0.078513
C85	C	1.464042	-0.642418	-0.578485
C86	C	1.964042	-0.142418	-0.078485
N87	N	1.531857	-0.615103	-0.510750
N88	N	2.031857	-0.115103	-0.010750
C89	C	1.599707	-0.642392	-0.443024
C90	C	2.099707	-0.142392	0.056976
C91	C	1.464281	-0.975493	-0.578564
C92	C	1.964281	-0.475493	-0.078564
C93	C	1.464309	-1.030096	-0.578569
C94	C	1.964309	-0.530096	-0.078569
C95	C	1.599979	-1.030070	-0.443101
C96	C	2.099979	-0.530070	0.056899
C97	C	1.599944	-0.975466	-0.443092
C98	C	2.099944	-0.475466	0.056908
C99	C	1.532096	-0.948179	-0.510828
C100	C	2.032096	-0.448179	-0.010828
C101	C	1.599611	-0.527727	-0.442997
C102	C	2.099611	-0.027727	0.057003
C103	C	1.599560	-0.473122	-0.442984
C104	C	2.099560	0.026878	0.057016
C105	C	1.463894	-0.473152	-0.578455
C106	C	1.963894	0.026848	-0.078455
C107	C	1.463942	-0.527753	-0.578464
C108	C	1.963942	-0.027753	-0.078464
C109	C	1.531809	-0.555039	-0.510731
C110	C	2.031809	-0.055039	-0.010731
O111	O	1.406343	-0.614146	-0.636027
O112	O	1.906343	-0.114146	-0.136027
O113	O	1.657385	-0.614138	-0.385428
O114	O	2.157385	-0.114138	0.114572
C115	C	1.808372	-0.251889	-0.510775
C116	C	2.308372	0.248111	-0.010775
C117	C	1.926203	-0.251895	-0.510788
C118	C	2.426203	0.248105	-0.010788
C119	C	1.531945	-0.251836	-0.787249
C120	C	2.031945	0.248164	-0.287249
C121	C	1.531979	-0.251819	-0.905079
C122	C	2.031979	0.248181	-0.405079
C123	C	1.532075	-0.115503	-0.510816
C124	C	2.032075	0.384497	-0.010816
C125	C	1.532164	-0.057389	-0.510846
C126	C	2.032164	0.442611	-0.010846
C127	C	1.449747	-0.292026	-1.072613
C128	C	1.949747	0.207974	-0.572613
C129	C	1.449962	-0.292225	-0.950053
C130	C	1.949962	0.207775	-0.450053
C131	C	1.643667	-0.266773	-0.949595
C132	C	2.143667	0.233227	-0.449595
C133	C	1.643216	-0.267025	-1.072194
C134	C	2.143216	0.232975	-0.572194
C135	C	1.503578	-0.196432	-1.072291
C136	C	2.003578	0.303568	-0.572291
C137	C	1.501086	-0.196764	-0.949684
C138	C	2.001086	0.303236	-0.449684
C139	C	1.531850	-0.251879	-0.235314
C140	C	2.031850	0.248121	0.264686
C141	C	1.532023	-0.251749	-0.117485
C142	C	2.032023	0.248251	0.382515
H143	H	0.941613	-0.170330	-0.448212
H144	H	1.441613	0.329670	0.051788
O145	O	1.673165	-1.059511	-0.370058
O146	O	2.173165	-0.559511	0.129942
H147	H	1.720314	-1.031350	-0.322942
H148	H	2.220314	-0.531350	0.177058
H149	H	1.423555	-0.182801	-1.103198
H150	H	1.923555	0.317199	-0.603198
H151	H	1.124713	-0.264076	-0.686368
H152	H	1.624713	0.235924	-0.186368
H153	H	0.940192	-0.220447	-0.346607
H154	H	1.440192	0.279553	0.153393
O155	O	0.932129	-0.348150	-0.554843
O156	O	1.432129	0.151850	-0.054843
H157	H	0.961595	-0.339665	-0.635740
H158	H	1.461595	0.160335	-0.135740
H159	H	1.409021	-0.953278	-0.633720
H160	H	1.909021	-0.453278	-0.133720
H161	H	1.556637	-0.165168	-0.919071
H162	H	2.056637	0.334832	-0.419071
H163	H	1.418894	-0.185486	-0.920588
H164	H	1.918894	0.314514	-0.420588
H165	H	1.122877	-0.220654	-0.345759
H166	H	1.622877	0.279346	0.154241
O167	O	1.676167	-0.319778	-0.908949
O168	O	2.176167	0.180222	-0.408949
H169	H	1.612958	-0.335555	-0.857056
H170	H	2.112958	0.164445	-0.357056
H171	H	1.563505	-0.166423	-1.101312
H172	H	2.063505	0.333577	-0.601312
O173	O	1.133519	-0.157296	-0.454238
O174	O	1.633519	0.342704	0.045762
H175	H	1.104460	-0.145406	-0.533473
H176	H	1.604460	0.354594	-0.033473
H177	H	0.940601	-0.198432	-0.650774
H178	H	1.440601	0.301568	-0.150774
O179	O	1.727147	-0.229857	-1.111575
O180	O	2.227147	0.270143	-0.611575
H181	H	1.805677	-0.242569	-1.082088
H182	H	2.305677	0.257431	-0.582088
O183	O	1.132649	-0.348095	-0.556355
O184	O	1.632649	0.151905	-0.056355
H185	H	1.184133	-0.329680	-0.616914
H186	H	1.684133	0.170320	-0.116914
H187	H	1.706611	-0.238364	-0.920467
H188	H	2.206611	0.261636	-0.420467
H189	H	1.722892	-0.801097	-0.320173
H190	H	2.222892	-0.301097	0.179827
H191	H	1.124693	-0.319027	-0.399035
H192	H	1.624693	0.180973	0.100965
H193	H	0.942793	-0.318601	-0.397599
H194	H	1.442793	0.181399	0.102401
O195	O	1.132664	-0.182976	-0.652898
O196	O	1.632664	0.317024	-0.152898
H197	H	1.183355	-0.167187	-0.588809
H198	H	1.683355	0.332813	-0.088809
O199	O	0.933050	-0.277056	-0.703469
O200	O	1.433050	0.222944	-0.203469
H201	H	0.881964	-0.306352	-0.663789
H202	H	1.381964	0.193648	-0.163789
H203	H	1.341094	-0.801156	-0.701438
H204	H	1.841094	-0.301156	-0.201438
O205	O	1.675152	-0.320588	-1.110090
O206	O	2.175152	0.179412	-0.610090
H207	H	1.610307	-0.337536	-1.158229
H208	H	2.110307	0.162464	-0.658229
O209	O	1.474352	-0.346002	-1.113468
O210	O	1.974352	0.153998	-0.613468
H211	H	1.555017	-0.357460	-1.087888
H212	H	2.055017	0.142540	-0.587888
H213	H	1.654780	-0.450886	-0.387812
H214	H	2.154780	0.049114	0.112188
H215	H	1.654878	-0.549937	-0.387844
H216	H	2.154878	-0.049937	0.112156
H217	H	1.722813	-0.702050	-0.320146
H218	H	2.222813	-0.202050	0.179854
H219	H	1.655163	-0.953232	-0.387927
H220	H	2.155163	-0.453232	0.112073
H221	H	1.409080	-1.052328	-0.633725
H222	H	1.909080	-0.552328	-0.133725
H223	H	1.341041	-0.702106	-0.701423
H224	H	1.841041	-0.202106	-0.201423
H225	H	1.408727	-0.549991	-0.633633
H226	H	1.908727	-0.049991	-0.133633
O227	O	1.339704	-0.279752	-1.111638
O228	O	1.839704	0.220248	-0.611638
H229	H	1.342473	-0.244815	-1.163440
H230	H	1.842473	0.255185	-0.663440
H231	H	1.408649	-0.450925	-0.633594
H232	H	1.908649	0.049075	-0.133594
H233	H	1.367140	-0.282867	-0.919953
H234	H	1.867140	0.217133	-0.419953
H235	H	1.468736	-0.333234	-0.920729
H236	H	1.968736	0.166766	-0.420729
