data_functionalizedCrystal
_audit_creation_method	'MofGen! by Chris Wilmer'
_symmetry_space_group_name_H-M	'P1'
_symmetry_Int_Tables_number	1
_symmetry_cell_setting	triclinic
loop_
_symmetry_equiv_pos_as_xyz
  x,y,z
_cell_length_a	18.426585
_cell_length_b	17.052862
_cell_length_c	17.052862
_cell_angle_alpha	61.493325
_cell_angle_beta	89.998903
_cell_angle_gamma	70.265468
loop_
_atom_site_label
_atom_site_type_symbol
_atom_site_fract_x
_atom_site_fract_y
_atom_site_fract_z
Zr1	Zr	0.841080	0.816717	-0.200489
O2	O	0.760936	0.944608	-0.328614
O3	O	0.848003	0.665995	-0.146298
O4	O	0.886890	0.783800	-0.307112
O5	O	0.711445	0.860730	-0.057912
O6	O	1.006317	0.783804	-0.307115
O7	O	0.722048	0.826803	-0.167800
O8	O	0.936754	0.573074	-0.019449
O9	O	0.781008	1.071461	-0.345579
O10	O	0.961401	0.736448	-0.141207
O11	O	0.864361	0.761764	-0.059196
O12	O	0.910146	0.900463	-0.248534
O13	O	0.813106	0.925779	-0.166523
Zr14	Zr	1.014641	0.870833	-0.025236
Zr15	Zr	1.031552	0.816724	-0.200494
Zr16	Zr	0.824169	0.870825	-0.025230
Zr17	Zr	0.873092	1.019032	-0.227546
Zr18	Zr	0.982628	0.668517	0.001821
O19	O	1.007718	1.021554	-0.079426
O20	O	1.031763	0.944618	-0.328622
O21	O	0.736891	1.021544	-0.079418
O22	O	1.094785	0.742941	0.102890
O23	O	1.118830	0.666005	-0.146306
O24	O	0.823958	0.742931	0.102898
O25	O	1.144275	0.826819	-0.167812
O26	O	0.968831	0.903749	0.081388
O27	O	0.849404	0.903745	0.081391
O28	O	1.133672	0.860746	-0.057924
O29	O	0.932408	1.071466	-0.345583
O30	O	0.923313	0.616083	0.119859
O31	O	1.074713	0.616089	0.119854
O32	O	1.088154	0.573079	-0.019453
O33	O	0.767566	1.114470	-0.206271
O34	O	0.918966	1.114476	-0.206276
O35	O	0.945575	0.787086	0.022810
O36	O	1.042615	0.761770	-0.059201
O37	O	0.991360	0.925786	-0.166528
O38	O	0.894320	0.951101	-0.084517
C39	C	0.887817	0.590709	-0.079018
C40	C	0.874227	0.504821	-0.067532
C41	C	0.689609	0.843766	-0.112855
C42	C	0.608748	0.843762	-0.112853
C43	C	1.038533	0.209863	-0.206402
C44	C	1.051301	0.290562	-0.217200
C45	C	1.007034	0.344130	-0.179783
C46	C	0.949997	0.316992	-0.131568
C47	C	0.937224	0.236290	-0.120775
C48	C	0.905724	0.370557	-0.094157
C49	C	0.848687	0.343419	-0.045941
C50	C	0.835917	0.262724	-0.035149
C51	C	0.880184	0.209155	-0.072566
C52	C	0.918497	0.451259	-0.104950
C53	C	0.817187	0.477686	-0.019323
C54	C	0.804420	0.396987	-0.008525
C55	C	0.312640	0.843791	-0.112871
C56	C	0.395025	0.843787	-0.112869
C57	C	0.460691	0.843777	-0.112863
C58	C	0.543082	0.843773	-0.112859
C59	C	1.166112	0.843784	-0.112869
C60	C	1.246973	0.843787	-0.112872
C61	C	0.949013	0.776093	-0.332084
C62	C	0.956192	0.753122	-0.406486
C63	C	0.967903	1.096840	-0.146706
C64	C	0.981494	1.182728	-0.158192
C65	C	0.869398	1.030837	-0.840313
C66	C	0.862649	1.052422	-0.770410
C67	C	0.886034	0.977599	-0.679427
C68	C	0.916170	0.881187	-0.658351
C69	C	0.922915	0.859600	-0.728260
C70	C	0.939551	0.806362	-0.567374
C71	C	0.969686	0.709950	-0.546298
C72	C	0.976430	0.688367	-0.616201
C73	C	0.953045	0.763190	-0.707185
C74	C	0.932806	0.827949	-0.497465
C75	C	0.986322	0.656712	-0.385412
C76	C	0.993072	0.635127	-0.455314
C77	C	0.906708	0.911456	0.106360
C78	C	0.899529	0.934427	0.180762
C79	C	1.126069	0.590718	-0.079025
C80	C	1.193339	0.504833	-0.067541
C81	C	0.866665	0.658391	0.140204
C82	C	0.845895	0.595473	0.226092
C83	C	1.104916	0.658400	0.140197
C84	C	1.165008	0.595485	0.226083
C85	C	0.750804	1.029149	-0.365921
C86	C	0.690713	1.092064	-0.451807
C87	C	0.729652	1.096831	-0.146699
C88	C	0.662381	1.182716	-0.158183
C89	C	0.989056	1.029158	-0.365928
C90	C	1.009825	1.092076	-0.451817
C91	C	1.182538	0.451280	-0.104962
C92	C	1.245742	0.370588	-0.094189
C93	C	1.319745	0.343446	-0.045990
C94	C	1.330545	0.397007	-0.008570
C95	C	1.267344	0.477702	-0.019348
C96	C	0.878534	0.579147	0.309240
C97	C	0.859017	0.520042	0.389946
C98	C	0.806865	0.477260	0.387504
C99	C	0.774223	0.493592	0.304347
C100	C	0.793736	0.552701	0.223642
C101	C	1.243889	0.552725	0.223607
C102	C	1.300361	0.493620	0.304298
C103	C	1.277949	0.477269	0.387464
C104	C	1.199060	0.520037	0.389937
C105	C	1.142591	0.579147	0.309247
C106	C	0.611833	1.134834	-0.449333
C107	C	0.555365	1.193964	-0.530027
C108	C	0.577778	1.210319	-0.613194
C109	C	0.656666	1.167546	-0.615666
C110	C	0.713133	1.108422	-0.534974
C111	C	0.673185	1.236275	-0.120771
C112	C	0.609986	1.316984	-0.131566
C113	C	0.535984	1.344128	-0.179767
C114	C	0.525182	1.290564	-0.217184
C115	C	0.588381	1.209861	-0.206395
C116	C	1.061979	1.134841	-0.449345
C117	C	1.081509	1.193950	-0.530038
C118	C	1.048880	1.210299	-0.613202
C119	C	0.996723	1.167526	-0.615672
C120	C	0.977198	1.108413	-0.534979
H121	H	0.964937	0.473348	-0.144208
H122	H	1.017432	0.409838	-0.188578
H123	H	0.733435	1.214184	-0.081516
H124	H	0.777360	1.073597	-0.536999
C125	C	1.138871	1.241002	-0.527307
H126	H	1.155492	1.222810	-0.466220
H127	H	1.183273	1.219908	-0.551017
H128	H	1.113223	1.309325	-0.562988
H129	H	0.767157	0.565983	0.155944
H130	H	1.074566	0.166248	-0.236868
C131	C	0.681312	1.185529	-0.707149
H132	H	0.736379	1.151594	-0.697076
H133	H	0.654305	1.163336	-0.734420
H134	H	0.668467	1.252754	-0.746388
C135	C	0.741698	0.367117	0.044532
H136	H	0.717170	0.410562	0.065286
H137	H	0.703322	0.368919	0.005838
H138	H	0.765919	0.303432	0.095229
C139	C	1.411944	0.367134	0.044464
H140	H	1.409334	0.410582	0.065211
H141	H	1.427536	0.303448	0.095150
H142	H	1.449180	0.368953	0.005744
H143	H	1.276148	0.521297	0.011131
H144	H	1.180822	0.506715	0.457662
H145	H	1.236932	0.326986	-0.124663
C146	C	1.387126	0.446552	0.301570
H147	H	1.417554	0.409006	0.361533
H148	H	1.391585	0.406103	0.276738
H149	H	1.405770	0.495511	0.264764
C150	C	0.466472	1.432898	-0.191626
H151	H	0.483510	1.460899	-0.162431
H152	H	0.447323	1.479031	-0.254583
H153	H	0.425703	1.413523	-0.165158
H154	H	0.781140	0.521304	0.011142
H155	H	1.078362	0.613955	0.311276
H156	H	0.970160	1.180847	-0.683396
H157	H	1.323938	0.429136	0.453161
C158	C	0.468595	1.240995	-0.527289
H159	H	0.463338	1.222768	-0.466197
H160	H	0.451530	1.309314	-0.562954
H161	H	0.437387	1.219895	-0.551013
H162	H	0.618796	1.360585	-0.101091
C163	C	0.866139	0.120388	-0.060692
H164	H	0.900671	0.092376	-0.089884
H165	H	0.875820	0.074263	0.002267
H166	H	0.813259	0.139768	-0.087155
C167	C	0.515661	1.275350	-0.701949
H168	H	0.540302	1.278973	-0.751840
H169	H	0.477104	1.248894	-0.698406
H170	H	0.491260	1.338313	-0.710363
C171	C	0.773174	0.232875	0.017878
H172	H	0.771903	0.177147	0.018940
H173	H	0.785733	0.218779	0.078407
H174	H	0.723171	0.284285	-0.011014
H175	H	0.464922	1.312677	-0.256431
H176	H	0.593569	1.121521	-0.381621
H177	H	0.579573	1.166255	-0.236859
C178	C	0.919818	1.061390	-0.537711
H179	H	0.903179	1.079606	-0.598801
H180	H	0.945443	0.993070	-0.502036
H181	H	0.875418	1.082503	-0.513999
C182	C	1.389260	0.254677	-0.034130
H183	H	1.434885	0.246179	-0.000069
H184	H	1.377080	0.198796	-0.002796
H185	H	1.398708	0.264301	-0.092216
H186	H	0.920999	0.613976	0.311245
H187	H	1.097739	0.312655	-0.256457
C188	C	1.097882	1.116866	-0.357874
H189	H	1.131745	1.150798	-0.367970
H190	H	1.057020	1.139063	-0.330587
H191	H	1.127050	1.049641	-0.318638
C192	C	1.070357	1.275332	-0.701958
H193	H	1.106086	1.298465	-0.688568
H194	H	1.094134	1.239128	-0.730055
H195	H	1.024096	1.328542	-0.742001
H196	H	0.908267	0.906449	-0.514634
H197	H	0.838113	1.130921	-0.787577
C198	C	0.960467	0.739448	-0.784080
H199	H	0.942221	0.797820	-0.841282
H200	H	1.013965	0.702945	-0.779204
H201	H	0.929776	0.702947	-0.779203
C202	C	0.878646	1.001342	-0.602535
H203	H	0.857365	1.069476	-0.628117
H204	H	0.844923	0.974605	-0.565999
H205	H	0.929111	0.974606	-0.566060
C206	C	0.785408	0.412238	0.476282
H207	H	0.749670	0.389097	0.462925
H208	H	0.831671	0.359047	0.516324
H209	H	0.761632	0.448467	0.504362
C210	C	1.009581	0.582317	-0.593019
H211	H	1.022552	0.540846	-0.528822
H212	H	0.971240	0.570326	-0.617955
H213	H	1.055420	0.570351	-0.617965
H214	H	0.850357	1.091748	-0.914392
H215	H	1.017608	0.556627	-0.438165
H216	H	1.122289	0.473373	-0.144220
C217	C	1.012029	0.574403	-0.285336
H218	H	1.003698	0.601067	-0.246722
H219	H	0.982027	0.535698	-0.273784
H220	H	1.066223	0.535676	-0.273758
C221	C	0.894936	0.502079	0.481407
H222	H	0.928800	0.536012	0.471298
H223	H	0.854079	0.524280	0.508696
H224	H	0.924106	0.434855	0.520647
H225	H	0.731759	0.458750	0.302372
C226	C	1.268557	0.570702	0.132135
H227	H	1.323628	0.536774	0.142228
H228	H	1.241570	0.548502	0.104851
H229	H	1.255709	0.637928	0.092897
