data_functionalizedCrystal
_audit_creation_method	'MofGen! by Chris Wilmer'
_symmetry_space_group_name_H-M	'P1'
_symmetry_Int_Tables_number	1
_symmetry_cell_setting	triclinic
loop_
_symmetry_equiv_pos_as_xyz
  x,y,z
_cell_length_a	10.489741
_cell_length_b	9.065218
_cell_length_c	8.140239
_cell_angle_alpha	90.002802
_cell_angle_beta	89.996756
_cell_angle_gamma	95.222470
loop_
_atom_site_label
_atom_site_type_symbol
_atom_site_fract_x
_atom_site_fract_y
_atom_site_fract_z
O1	O	0.187043	-1.959494	-0.136617
O2	O	0.202385	-1.530135	-0.136619
O3	O	0.009151	-1.754585	-0.136608
O4	O	0.380276	-1.735045	-0.136628
O5	O	0.009149	-1.754572	0.136619
O6	O	0.202383	-1.530123	0.136608
O7	O	0.187040	-1.959482	0.136610
Zn8	Zn	0.194711	-1.744800	0.179990
Zn9	Zn	0.194714	-1.744817	-0.179999
O10	O	0.380274	-1.735032	0.136599
C11	C	0.200909	-1.475149	-0.000006
C12	C	0.196501	-1.311328	-0.000006
N13	N	0.194708	-1.744800	0.425672
C14	C	-0.038387	-1.753102	0.000004
C15	C	-0.180032	-1.748687	0.000001
C16	C	-0.248688	-1.605877	-0.000011
C17	C	-0.340568	-1.673333	0.134704
C18	C	-0.340540	-1.673379	-0.134676
C19	C	-0.270047	-1.816202	0.134828
C20	C	-0.270009	-1.816228	-0.134673
C21	C	-0.361862	-1.883788	0.000075
C22	C	0.427812	-1.736514	-0.000017
C23	C	0.569458	-1.740930	-0.000025
C24	C	0.188516	-2.014467	-0.000007
C25	C	0.192925	-2.178289	-0.000017
N26	N	0.194707	-1.744829	-0.425681
H27	H	-0.199461	-1.488459	0.000124
H28	H	-0.410861	-2.001312	0.000150
H29	H	-0.238746	-1.876609	-0.248571
F30	F	-0.229469	-1.895114	0.283858
H31	H	-0.371799	-1.612901	0.248596
H32	H	-0.371722	-1.612940	-0.248579
