data_functionalizedCrystal
_audit_creation_method	'MofGen! by Chris Wilmer'
_symmetry_space_group_name_H-M	'P1'
_symmetry_Int_Tables_number	1
_symmetry_cell_setting	triclinic
loop_
_symmetry_equiv_pos_as_xyz
  x,y,z
_cell_length_a	10.654562
_cell_length_b	19.188924
_cell_length_c	9.730223
_cell_angle_alpha	89.996615
_cell_angle_beta	89.996961
_cell_angle_gamma	83.816034
loop_
_atom_site_label
_atom_site_type_symbol
_atom_site_fract_x
_atom_site_fract_y
_atom_site_fract_z
O1	O	1.665745	0.098101	-0.114387
O2	O	1.300070	0.107435	-0.114371
O3	O	1.493464	0.001181	-0.114363
O4	O	1.472350	0.204355	-0.114395
O5	O	1.493462	0.001184	0.114217
O6	O	1.300068	0.107437	0.114209
O7	O	1.665742	0.098104	0.114193
Zn8	Zn	1.482905	0.102771	0.150493
Zn9	Zn	1.482908	0.102768	-0.150671
O10	O	1.472348	0.204357	0.114185
C11	C	1.253286	0.106749	-0.000079
C12	C	1.113887	0.104693	-0.000072
C13	C	1.048375	0.103736	0.124517
C14	C	0.917394	0.101809	0.124494
C15	C	0.917447	0.101801	-0.124716
C16	C	1.048427	0.103722	-0.124692
C17	C	1.113836	0.104706	0.249137
C18	C	1.048324	0.103750	0.373736
C19	C	0.917342	0.101823	0.373713
C20	C	0.851873	0.100854	0.249092
C21	C	1.492781	-0.024833	-0.000072
C22	C	1.490733	-0.102351	-0.000068
C23	C	1.489778	-0.138758	-0.124667
C24	C	1.487836	-0.211593	-0.124678
C25	C	1.486873	-0.248021	-0.000082
C26	C	1.487821	-0.211605	0.124534
C27	C	1.489751	-0.138770	0.124541
N28	N	1.555305	-0.367234	0.092649
N29	N	1.553475	-0.436424	0.092634
C30	C	1.481057	-0.467468	-0.000095
N31	N	1.410554	-0.426709	-0.092829
N32	N	1.412390	-0.357513	-0.092818
C33	C	1.484780	-0.326998	-0.000075
C34	C	1.477994	-0.582851	-0.124714
C35	C	1.476044	-0.655688	-0.124719
C36	C	1.476042	-0.655699	0.124496
C37	C	1.477980	-0.582863	0.124498
C38	C	1.478961	-0.546444	-0.000111
C39	C	1.712527	0.098790	-0.000103
C40	C	1.851925	0.100846	-0.000118
C41	C	1.473031	0.230372	-0.000109
C42	C	1.475080	0.307890	-0.000122
N43	N	1.482912	0.102773	0.356029
N44	N	1.482911	0.102760	-0.356207
C45	C	1.568568	0.055740	0.427959
C46	C	1.568565	0.055732	0.571842
C47	C	1.397245	0.149795	0.571853
C48	C	1.397243	0.149800	0.427973
C49	C	1.654237	0.008714	0.356015
C50	C	1.739902	-0.038323	0.427945
C51	C	1.739899	-0.038331	0.571828
C52	C	1.654231	0.008697	0.643781
H53	H	1.220487	0.106277	0.249170
H54	H	1.490523	-0.109128	0.226007
H55	H	1.487034	-0.241269	0.225981
C56	C	1.834113	-0.090070	0.650953
H57	H	1.821839	-0.083345	0.746948
H58	H	1.917876	-0.082050	0.627372
H59	H	1.820733	-0.136739	0.627367
H60	H	1.490574	-0.109110	-0.226134
C61	C	1.654219	0.008687	0.802049
H62	H	1.590930	0.043428	0.834596
H63	H	1.734420	0.018656	0.834602
H64	H	1.637275	-0.036032	0.834589
H65	H	1.327492	0.188098	0.369407
H66	H	0.864131	0.101014	-0.226177
C67	C	1.474973	-0.695760	0.261550
H68	H	1.473691	-0.744353	0.243702
H69	H	1.402074	-0.678854	0.312746
H70	H	1.548511	-0.688799	0.312748
C71	C	1.486836	-0.251652	-0.261742
H72	H	1.487717	-0.219532	-0.335951
H73	H	1.412886	-0.275108	-0.266959
H74	H	1.559323	-0.285024	-0.266882
C75	C	0.707796	0.098734	0.249069
H76	H	0.678153	0.098305	0.341118
H77	H	0.687966	0.057657	0.203049
H78	H	0.668383	0.138946	0.203041
C79	C	1.120493	0.104782	-0.261736
H80	H	1.062748	0.103940	-0.335959
H81	H	1.181383	0.064890	-0.266900
H82	H	1.161794	0.146179	-0.266906
H83	H	1.101639	0.104534	0.475197
H84	H	1.478786	-0.553197	-0.226178
C85	C	1.834133	-0.090046	0.348803
H86	H	1.821879	-0.083300	0.252810
H87	H	1.820771	-0.136717	0.372373
H88	H	1.917895	-0.082018	0.372388
H89	H	1.327499	0.188084	0.630447
H90	H	0.864007	0.101039	0.475167
H91	H	1.475260	-0.685328	-0.226187
H92	H	1.478767	-0.553221	0.225960
H93	H	1.654250	0.008718	0.238858
