data_functionalizedCrystal
_audit_creation_method	'MofGen! by Chris Wilmer'
_symmetry_space_group_name_H-M	'P1'
_symmetry_Int_Tables_number	1
_symmetry_cell_setting	triclinic
loop_
_symmetry_equiv_pos_as_xyz
  x,y,z
_cell_length_a	19.121063
_cell_length_b	18.050591
_cell_length_c	18.050582
_cell_angle_alpha	90.023995
_cell_angle_beta	92.415032
_cell_angle_gamma	87.537533
loop_
_atom_site_label
_atom_site_type_symbol
_atom_site_fract_x
_atom_site_fract_y
_atom_site_fract_z
Zn1	Zn	-0.279788	-1.122674	-0.432692
Zn2	Zn	-0.397232	-1.117288	-0.313791
Zn3	Zn	-0.279785	-0.998493	-0.308497
Zn4	Zn	-0.397189	-0.993146	-0.437918
O5	O	-0.338498	-1.057900	-0.373225
O6	O	-0.295387	-1.225883	-0.416949
O7	O	-0.381669	-1.101513	-0.209165
O8	O	-0.181501	-1.019458	-0.320569
O9	O	-0.381672	-1.221926	-0.329593
O10	O	-0.181503	-1.110693	-0.411815
O11	O	-0.295381	-1.014235	-0.205275
O12	O	-0.295339	-0.893860	-0.325636
O13	O	-0.381598	-1.010345	-0.541149
O14	O	-0.381595	-0.889932	-0.420721
O15	O	-0.295345	-1.105508	-0.537309
O16	O	-0.495511	-1.096328	-0.334660
O17	O	-0.495479	-1.005122	-0.425855
C18	C	-0.338463	-0.864950	-0.373172
C19	C	-0.338465	-0.782404	-0.373167
C20	C	-0.520979	-1.049581	-0.381416
C21	C	-0.599045	-1.046089	-0.384944
C22	C	-0.291494	-0.585071	-0.321561
C23	C	-0.355552	-0.532762	-0.306167
C24	C	-0.338479	-0.631273	-0.373193
C25	C	-0.274436	-0.536499	-0.388578
C26	C	-0.338486	-0.485287	-0.373217
C27	C	-0.402570	-0.580050	-0.357766
C28	C	-0.321411	-0.583793	-0.440207
C29	C	-0.385513	-0.531505	-0.424841
C30	C	-0.338473	-0.715371	-0.373178
C31	C	-0.338499	-0.401190	-0.373233
C32	C	-0.635713	-1.091972	-0.339161
C33	C	-0.709065	-1.088693	-0.342484
C34	C	-0.745746	-1.039527	-0.391588
C35	C	-0.709072	-0.993642	-0.437376
C36	C	-0.635722	-0.996925	-0.434056
C37	C	-0.967215	-1.027239	-0.403989
C38	C	-1.040571	-1.023958	-0.407304
C39	C	-1.040558	-1.119010	-0.312413
C40	C	-0.967207	-1.122286	-0.309094
C41	C	-0.930539	-1.076404	-0.354885
C42	C	-0.820723	-1.036172	-0.394984
C43	C	-0.855564	-1.079763	-0.351492
C44	C	-0.155305	-1.066273	-0.365018
C45	C	-0.077239	-1.069840	-0.361521
C46	C	-0.338467	-1.057931	-0.566929
C47	C	-0.338454	-1.057944	-0.649474
C48	C	-0.338522	-0.251605	-0.373264
C49	C	-0.338502	-0.334151	-0.373245
C50	C	-0.385295	-1.006235	-0.851010
C51	C	-0.402471	-1.073215	-0.901186
C52	C	-0.338400	-1.057983	-0.800602
C53	C	-0.321205	-0.991040	-0.897508
C54	C	-0.338350	-1.058014	-0.946585
C55	C	-0.355610	-1.124997	-0.849692
C56	C	-0.274314	-1.042778	-0.846008
C57	C	-0.291466	-1.109806	-0.896161
C58	C	-0.338431	-1.057963	-0.716505
C59	C	-0.338319	-1.058041	-1.030680
C60	C	-0.338479	-1.057915	-0.180272
C61	C	-0.338294	-1.058055	-0.097718
H62	H	-0.251807	-0.608518	-0.277856
H63	H	-0.456749	-0.599185	-0.344700
H64	H	-0.370194	-1.181637	-0.828755
H65	H	-0.220280	-0.517234	-0.401556
H66	H	-1.070421	-1.156366	-0.275134
Cl67	Cl	-0.299082	-0.618389	-0.527663
H68	H	-0.306682	-0.934415	-0.918538
Cl69	Cl	-0.921129	-0.969557	-0.461554
H70	H	-0.825696	-1.119797	-0.311515
H71	H	-0.937343	-1.162321	-0.269110
Cl72	Cl	-0.377853	-0.498192	-0.218687
Cl73	Cl	-0.446930	-0.495503	-0.492274
Cl74	Cl	-0.589624	-0.939244	-0.491617
H75	H	-0.605852	-1.132005	-0.299173
H76	H	-0.456645	-1.086095	-0.925327
H77	H	-0.251787	-1.153630	-0.915917
Cl78	Cl	-0.755160	-1.146380	-0.284928
Cl79	Cl	-1.086683	-0.962134	-0.469029
Cl80	Cl	-0.190696	-1.022862	-0.808708
H81	H	-0.738944	-0.953613	-0.477361
H82	H	-0.850597	-0.996139	-0.434963
H83	H	-0.425003	-0.962510	-0.831119
