data_functionalizedCrystal
_audit_creation_method	'MofGen! by Chris Wilmer'
_symmetry_space_group_name_H-M	'P1'
_symmetry_Int_Tables_number	1
_symmetry_cell_setting	triclinic
loop_
_symmetry_equiv_pos_as_xyz
  x,y,z
_cell_length_a	17.038272
_cell_length_b	17.038272
_cell_length_c	16.176319
_cell_angle_alpha	89.993159
_cell_angle_beta	89.998402
_cell_angle_gamma	91.111556
loop_
_atom_site_label
_atom_site_type_symbol
_atom_site_fract_x
_atom_site_fract_y
_atom_site_fract_z
O1	O	1.048758	0.170539	-0.068644
O2	O	1.548758	0.670539	0.431356
O3	O	0.820946	0.167831	-0.068668
O4	O	1.320946	0.667831	0.431332
O5	O	0.933498	0.055279	-0.068650
O6	O	1.433498	0.555279	0.431350
O7	O	0.936206	0.283091	-0.068662
O8	O	1.436206	0.783091	0.431338
O9	O	0.933481	0.055270	0.068844
O10	O	1.433481	0.555270	0.568844
O11	O	0.820929	0.167822	0.068825
O12	O	1.320929	0.667822	0.568825
O13	O	1.048741	0.170530	0.068849
O14	O	1.548741	0.670530	0.568849
Cu15	Cu	0.934833	0.169175	0.081391
Cu16	Cu	1.434833	0.669175	0.581391
Cu17	Cu	0.934854	0.169186	-0.081210
Cu18	Cu	1.434854	0.669186	0.418790
O19	O	0.936189	0.283082	0.068831
O20	O	1.436189	0.783082	0.568831
C21	C	0.791645	0.165364	0.000075
C22	C	1.291645	0.665364	0.500075
C23	C	0.704361	0.158016	0.000066
C24	C	1.204361	0.658016	0.500066
C25	C	0.931027	0.025982	0.000097
C26	C	1.431027	0.525982	0.500097
C27	C	0.923679	-0.061301	0.000096
C28	C	1.423679	0.438699	0.500096
C29	C	0.658752	0.225479	0.000063
C30	C	1.158752	0.725479	0.500063
C31	C	0.576740	0.218570	0.000075
C32	C	1.076740	0.718570	0.500075
C33	C	0.540339	0.144197	0.000084
C34	C	1.040339	0.644197	0.500084
C35	C	0.585954	0.076728	0.000090
C36	C	1.085954	0.576728	0.500090
C37	C	0.667965	0.083638	0.000084
C38	C	1.167965	0.583638	0.500084
C39	C	0.292951	0.119787	0.000107
C40	C	0.792951	0.619787	0.500107
C41	C	0.210935	0.112882	0.000111
C42	C	0.710935	0.612882	0.500111
C43	C	0.201726	0.254725	0.000098
C44	C	0.701726	0.754725	0.500098
C45	C	0.283739	0.261628	0.000087
C46	C	0.783739	0.761628	0.500087
C47	C	0.329347	0.194159	0.000097
C48	C	0.829347	0.694159	0.500097
C49	C	0.456510	0.137133	0.000093
C50	C	0.956510	0.637133	0.500093
C51	C	0.413174	0.201224	0.000093
C52	C	0.913174	0.701224	0.500093
C53	C	0.991142	-0.106911	0.000104
C54	C	1.491142	0.393089	0.500104
C55	C	0.984233	-0.188923	0.000095
C56	C	1.484233	0.311077	0.500095
C57	C	0.909860	-0.225324	0.000084
C58	C	1.409860	0.274676	0.500084
C59	C	0.842391	-0.179708	0.000074
C60	C	1.342391	0.320292	0.500074
C61	C	0.849301	-0.097698	0.000077
C62	C	1.349301	0.402302	0.500077
C63	C	0.885449	-0.472712	0.000070
C64	C	1.385449	0.027288	0.500070
C65	C	0.878545	-0.554728	0.000070
C66	C	1.378545	-0.054728	0.500070
C67	C	1.020387	-0.563937	0.000090
C68	C	1.520387	-0.063937	0.500090
C69	C	1.027291	-0.481924	0.000098
C70	C	1.527291	0.018076	0.500098
C71	C	0.959822	-0.436316	0.000083
C72	C	1.459822	0.063684	0.500083
C73	C	0.902796	-0.309153	0.000078
C74	C	1.402796	0.190847	0.500078
C75	C	0.966886	-0.352488	0.000083
C76	C	1.466886	0.147512	0.500083
C77	C	1.078042	0.172997	0.000104
C78	C	1.578042	0.672997	0.500104
C79	C	1.165326	0.180346	0.000108
C80	C	1.665326	0.680346	0.500108
C81	C	0.938660	0.312379	0.000083
C82	C	1.438660	0.812379	0.500083
C83	C	0.946008	0.399663	0.000078
C84	C	1.446008	0.899663	0.500078
N85	N	0.934825	0.169168	0.195757
N86	N	1.434825	0.669168	0.695757
N87	N	0.934868	0.169187	-0.195575
N88	N	1.434868	0.669187	0.304425
C89	C	0.984680	0.119353	0.239029
C90	C	1.484680	0.619353	0.739029
C91	C	0.984684	0.119352	0.325576
C92	C	1.484684	0.619352	0.825576
C93	C	0.934836	0.169171	0.368849
C94	C	1.434836	0.669171	0.868849
C95	C	0.884975	0.218989	0.325571
C96	C	1.384975	0.718989	0.825571
C97	C	0.884968	0.218985	0.239025
C98	C	1.384968	0.718985	0.739025
C99	C	0.885003	0.219005	0.674599
C100	C	1.385003	0.719005	1.174599
C101	C	0.885016	0.219007	0.761151
C102	C	1.385016	0.719007	1.261151
C103	C	0.984719	0.119373	0.761150
C104	C	1.484719	0.619373	1.261150
C105	C	0.984712	0.119369	0.674604
C106	C	1.484712	0.619369	1.174604
C107	C	0.934849	0.169183	0.631333
C108	C	1.434849	0.669183	1.131333
C109	C	0.934844	0.169182	0.537489
C110	C	1.434844	0.669182	1.037489
C111	C	0.934844	0.169177	0.462692
C112	C	1.434844	0.669177	0.962692
H113	H	0.688384	0.286042	0.000055
H114	H	1.188384	0.786042	0.500055
H115	H	0.426863	0.076578	0.000124
H116	H	0.926863	0.576578	0.500124
C117	C	1.039558	0.064585	0.627004
C118	C	1.539558	0.564585	1.127004
H119	H	1.032422	0.071727	0.569263
H120	H	1.532422	0.571727	1.069263
H121	H	1.027563	0.011595	0.641189
H122	H	1.527563	0.511595	1.141189
H123	H	1.092537	0.076651	0.641187
H124	H	1.592537	0.576651	1.141187
H125	H	0.844369	0.259548	0.203794
H126	H	1.344369	0.759548	0.703794
H127	H	0.830511	-0.435587	0.000059
H128	H	1.330511	0.064413	0.500059
H129	H	1.087853	-0.452293	0.000106
H130	H	1.587853	0.047707	0.500106
H131	H	0.164583	0.309653	0.000091
H132	H	0.664583	0.809653	0.500091
H133	H	1.025319	0.078809	0.796390
H134	H	1.525319	0.578809	1.296390
H135	H	1.025280	0.078789	0.360808
H136	H	1.525280	0.578789	0.860808
C137	C	0.545919	-0.005082	0.000099
C138	C	1.045919	0.494918	0.500099
H139	H	0.584830	-0.044272	0.000107
H140	H	1.084830	0.455728	0.500107
H141	H	0.514118	-0.010724	-0.047846
H142	H	1.014118	0.489276	0.452154
H143	H	0.514120	-0.010728	0.048053
H144	H	1.014120	0.489272	0.548053
C145	C	0.170891	0.031070	0.000127
C146	C	0.670891	0.531070	0.500127
H147	H	0.115517	0.036620	0.000120
H148	H	0.615517	0.536620	0.500120
H149	H	0.186221	0.003062	0.048078
H150	H	0.686221	0.503062	0.548078
H151	H	0.186222	0.003061	-0.047822
H152	H	0.686222	0.503061	0.452178
C153	C	0.343110	0.045574	0.000113
C154	C	0.843110	0.545574	0.500113
H155	H	0.309682	0.000292	0.000110
H156	H	0.809682	0.500292	0.500110
H157	H	0.375294	0.045315	0.048058
H158	H	0.875294	0.545315	0.548058
H159	H	0.375292	0.045321	-0.047841
H160	H	0.875292	0.545321	0.452159
C161	C	0.775091	-0.047528	0.000070
C162	C	1.275091	0.452472	0.500070
H163	H	0.729807	-0.080951	0.000070
H164	H	1.229807	0.419049	0.500070
H165	H	0.774845	-0.015338	-0.047877
H166	H	1.274845	0.484662	0.452123
H167	H	0.774832	-0.015351	0.048023
H168	H	1.274832	0.484649	0.548023
H169	H	1.025276	0.078788	0.203802
H170	H	1.525276	0.578788	0.703802
C171	C	0.760581	-0.219744	0.000056
C172	C	1.260581	0.280256	0.500056
H173	H	0.721391	-0.180832	0.000042
H174	H	1.221391	0.319168	0.500042
H175	H	0.754925	-0.251552	0.048000
H176	H	1.254925	0.248448	0.548000
H177	H	0.754948	-0.251536	-0.047900
H178	H	1.254948	0.248464	0.452100
H179	H	0.842241	-0.338800	0.000071
H180	H	1.342241	0.161200	0.500071
H181	H	1.075316	-0.601079	0.000101
H182	H	1.575316	-0.101079	0.500101
C183	C	0.830163	0.273805	0.627012
C184	C	1.330163	0.773805	1.127012
H185	H	0.800485	0.303481	0.665181
H186	H	1.300485	0.803481	1.165181
H187	H	0.795589	0.243363	0.593260
H188	H	1.295589	0.743363	1.093260
H189	H	0.860587	0.308394	0.593242
H190	H	1.360587	0.808394	1.093242
C191	C	0.526573	0.292781	0.000069
C192	C	1.026573	0.792781	0.500069
H193	H	0.559998	0.338064	0.000052
H194	H	1.059998	0.838064	0.500052
H195	H	0.494392	0.293036	0.048018
H196	H	0.994392	0.793036	0.548018
H197	H	0.494388	0.293033	-0.047881
H198	H	0.994388	0.793033	0.452119
H199	H	1.051705	-0.077279	0.000117
H200	H	1.551705	0.422721	0.500117
H201	H	1.027441	-0.322847	0.000073
H202	H	1.527441	0.177153	0.500073
C203	C	0.323774	0.343438	0.000089
C204	C	0.823774	0.843438	0.500089
H205	H	0.284864	0.382629	0.000098
H206	H	0.784864	0.882629	0.500098
H207	H	0.355577	0.349089	-0.047858
H208	H	0.855577	0.849089	0.452142
H209	H	0.355573	0.349073	0.048042
H210	H	0.855573	0.849073	0.548042
C211	C	0.796731	-0.594768	0.000044
C212	C	1.296731	-0.094768	0.500044
H213	H	0.757538	-0.555860	0.000026
H214	H	1.257538	-0.055860	0.500026
H215	H	0.791073	-0.626577	0.047988
H216	H	1.291073	-0.126577	0.547988
H217	H	0.791107	-0.626561	-0.047912
H218	H	1.291107	-0.126561	0.452088
C219	C	0.830165	0.273795	0.808750
C220	C	1.330165	0.773795	1.308750
H221	H	0.800458	0.303454	0.770585
H222	H	1.300458	0.803454	1.270585
H223	H	0.860579	0.308389	0.842507
H224	H	1.360579	0.808389	1.342507
H225	H	0.795606	0.243332	0.842515
H226	H	1.295606	0.743332	1.342515
C227	C	0.830145	0.273790	0.373169
C228	C	1.330145	0.773790	0.873169
H229	H	0.837295	0.266665	0.430910
H230	H	1.337295	0.766665	0.930910
H231	H	0.777164	0.261746	0.358996
H232	H	1.277164	0.761746	0.858996
H233	H	0.842162	0.326777	0.358972
H234	H	1.342162	0.826777	0.858972
H235	H	0.705099	0.028702	0.000086
H236	H	1.205099	0.528702	0.500086
H237	H	0.442816	0.261778	0.000091
H238	H	0.942816	0.761778	0.500091
C239	C	1.058444	-0.239089	0.000112
C240	C	1.558444	0.260911	0.500112
H241	H	1.103727	-0.205665	0.000131
H242	H	1.603727	0.294335	0.500131
H243	H	1.058711	-0.271268	-0.047834
H244	H	1.558711	0.228732	0.452166
H245	H	1.058684	-0.271278	0.048066
H246	H	1.558684	0.228722	0.548066
