data_functionalizedCrystal
_audit_creation_method	'MofGen! by Chris Wilmer'
_symmetry_space_group_name_H-M	'P1'
_symmetry_Int_Tables_number	1
_symmetry_cell_setting	triclinic
loop_
_symmetry_equiv_pos_as_xyz
  x,y,z
_cell_length_a	14.971506
_cell_length_b	7.540329
_cell_length_c	14.971486
_cell_angle_alpha	90.003801
_cell_angle_beta	83.618258
_cell_angle_gamma	90.003265
loop_
_atom_site_label
_atom_site_type_symbol
_atom_site_fract_x
_atom_site_fract_y
_atom_site_fract_z
O1	O	1.186932	0.147496	0.116647
O2	O	0.926534	0.147497	0.130587
O3	O	1.063712	0.147484	-0.006582
O4	O	1.049753	0.147509	0.253817
O5	O	1.063704	-0.147481	-0.006584
O6	O	0.926526	-0.147468	0.130586
O7	O	1.186923	-0.147469	0.116646
Cu8	Cu	1.056724	-0.174401	0.123616
Cu9	Cu	1.056734	0.174429	0.123618
O10	O	1.049745	-0.147456	0.253815
C11	C	0.893205	0.000014	0.129960
C12	C	0.793909	0.000014	0.128082
C13	C	0.355627	0.000040	0.201500
C14	C	0.448927	0.000047	0.203258
C15	C	0.506147	0.000032	0.122665
C16	C	0.470062	0.000026	0.040310
C17	C	0.376764	0.000031	0.038553
C18	C	0.664525	0.000012	0.043977
C19	C	0.757831	0.000003	0.045733
C20	C	0.736689	0.000028	0.208681
C21	C	0.643390	0.000033	0.206924
C22	C	0.607312	0.000024	0.124569
N23	N	1.056724	-0.419750	0.123614
C24	C	1.220252	0.000017	0.117273
C25	C	1.319548	0.000029	0.119151
N26	N	1.056741	0.419777	0.123612
C27	C	1.063084	0.000002	-0.039908
C28	C	1.061213	0.000003	-0.139205
C29	C	1.141802	0.000002	-0.196424
C30	C	1.140038	0.000019	-0.289724
C31	C	1.057686	0.000026	-0.325802
C32	C	0.977091	0.000033	-0.268575
C33	C	0.978855	0.000028	-0.175278
C34	C	0.973420	0.000040	-0.463038
C35	C	0.971656	0.000041	-0.556342
C36	C	1.134603	0.000031	-0.577485
C37	C	1.136367	0.000026	-0.484187
C38	C	1.055772	0.000029	-0.426966
C39	C	1.050374	0.000030	0.287141
C40	C	1.052244	0.000040	0.386438
H41	H	0.478297	0.000073	0.270314
H42	H	0.309044	0.000039	0.267128
N43	N	0.337840	-0.000005	-0.050262
H44	H	0.299606	0.109340	-0.054625
H45	H	0.388290	-0.000090	-0.101002
N46	N	0.888271	0.000034	-0.307492
H47	H	0.852957	-0.109309	-0.286634
H48	H	0.853033	0.109451	-0.286621
N49	N	1.221534	0.000040	-0.639193
H50	H	1.257450	-0.109314	-0.627585
H51	H	1.207849	0.000119	-0.703746
H52	H	0.907791	0.000047	-0.416451
N53	N	0.882836	0.000063	-0.595259
H54	H	0.832046	0.000082	-0.544855
H55	H	0.878572	0.109414	-0.633505
H56	H	0.516658	0.000024	-0.025310
N57	N	0.891936	0.000040	-0.113558
H58	H	0.839497	0.000043	-0.150568
H59	H	0.889112	-0.109305	-0.074389
H60	H	0.766067	0.000034	0.275738
N61	N	1.230627	-0.000023	-0.157518
H62	H	1.265943	0.109321	-0.178370
H63	H	1.219443	-0.000100	-0.089738
N64	N	0.581671	-0.000096	0.293846
H65	H	0.618682	-0.000131	0.346285
H66	H	0.542473	0.109210	0.296708
N67	N	1.226958	0.000001	-0.351441
H68	H	1.262894	0.109332	-0.339821
H69	H	1.262800	-0.109427	-0.339801
N70	N	0.819549	-0.000006	-0.041188
H71	H	0.782539	0.000005	-0.093627
H72	H	0.858725	0.109339	-0.043999
N73	N	0.625609	0.000014	-0.044847
H74	H	0.676014	-0.000003	-0.095637
H75	H	0.587354	-0.109332	-0.049122
N76	N	1.225188	-0.000003	-0.445270
H77	H	1.275977	-0.000002	-0.495674
H78	H	1.229471	0.109340	-0.407014
