data_functionalizedCrystal
_audit_creation_method	'MofGen! by Chris Wilmer'
_symmetry_space_group_name_H-M	'P1'
_symmetry_Int_Tables_number	1
_symmetry_cell_setting	triclinic
loop_
_symmetry_equiv_pos_as_xyz
  x,y,z
_cell_length_a	18.215407
_cell_length_b	19.805405
_cell_length_c	18.215399
_cell_angle_alpha	90.030610
_cell_angle_beta	90.019833
_cell_angle_gamma	90.026858
loop_
_atom_site_label
_atom_site_type_symbol
_atom_site_fract_x
_atom_site_fract_y
_atom_site_fract_z
Zn1	Zn	1.125064	-0.269462	0.416102
Zn2	Zn	1.458397	0.063871	0.749436
Zn3	Zn	1.791731	0.397205	1.082769
Zn4	Zn	1.124969	-0.382653	0.293030
Zn5	Zn	1.458303	-0.049320	0.626364
Zn6	Zn	1.791636	0.284014	0.959697
Zn7	Zn	1.001997	-0.269484	0.293050
Zn8	Zn	1.335330	0.063849	0.626383
Zn9	Zn	1.668663	0.397182	0.959716
Zn10	Zn	1.001959	-0.382615	0.416055
Zn11	Zn	1.335293	-0.049282	0.749388
Zn12	Zn	1.668626	0.284051	1.082722
O13	O	1.063497	-0.326054	0.354559
O14	O	1.396831	0.007280	0.687893
O15	O	1.730164	0.340613	1.021226
O16	O	1.228036	-0.284484	0.399788
O17	O	1.561369	0.048850	0.733121
O18	O	1.894702	0.382183	1.066455
O19	O	1.108633	-0.367666	0.190049
O20	O	1.441966	-0.034333	0.523382
O21	O	1.775299	0.299001	0.856715
O22	O	1.018377	-0.174765	0.309401
O23	O	1.351711	0.158569	0.642734
O24	O	1.685044	0.491902	0.976067
O25	O	1.227966	-0.367644	0.309368
O26	O	1.561299	-0.034311	0.642701
O27	O	1.894633	0.299022	0.976034
O28	O	1.108794	-0.174748	0.399807
O29	O	1.442128	0.158585	0.733140
O30	O	1.775461	0.491918	1.066474
O31	O	1.018285	-0.284521	0.190063
O32	O	1.351619	0.048812	0.523396
O33	O	1.684952	0.382145	0.856729
O34	O	0.899008	-0.284485	0.309355
O35	O	1.232341	0.048849	0.642688
O36	O	1.565674	0.382182	0.976022
O37	O	1.018313	-0.367580	0.519046
O38	O	1.351647	-0.034247	0.852379
O39	O	1.684980	0.299086	1.185712
O40	O	0.898980	-0.367602	0.399727
O41	O	1.232313	-0.034268	0.733060
O42	O	1.565647	0.299065	1.066393
O43	O	1.108758	-0.284447	0.519080
O44	O	1.442091	0.048886	0.852414
O45	O	1.775425	0.382220	1.185747
O46	O	1.108596	-0.477365	0.309322
O47	O	1.441930	-0.144031	0.642655
O48	O	1.775263	0.189302	0.975989
O49	O	1.018221	-0.477337	0.399708
O50	O	1.351555	-0.144004	0.733041
O51	O	1.684888	0.189330	1.066374
C52	C	0.872291	-0.326042	0.354538
C53	C	1.205624	0.007291	0.687872
C54	C	1.538958	0.340625	1.021205
C55	C	0.790492	-0.326053	0.354547
C56	C	1.123826	0.007280	0.687880
C57	C	1.457159	0.340613	1.021213
C58	C	0.602303	-0.369400	0.401544
C59	C	0.935637	-0.036067	0.734877
C60	C	1.268970	0.297266	1.068211
C61	C	0.525444	-0.369403	0.401553
C62	C	0.858778	-0.036069	0.734887
C63	C	1.192111	0.297264	1.068220
C64	C	0.525444	-0.282719	0.307591
C65	C	0.858777	0.050614	0.640924
C66	C	1.192110	0.383948	0.974257
C67	C	0.602301	-0.282714	0.307586
C68	C	0.935634	0.050619	0.640919
C69	C	1.268968	0.383953	0.974252
C70	C	0.640729	-0.326059	0.354561
C71	C	0.974062	0.007275	0.687895
C72	C	1.307395	0.340608	1.021228
C73	C	0.487013	-0.326066	0.354575
C74	C	0.820346	0.007268	0.687909
C75	C	1.153679	0.340601	1.021242
C76	C	0.403679	-0.326068	0.354585
C77	C	0.737012	0.007266	0.687918
C78	C	1.070346	0.340599	1.021252
C79	C	0.724068	-0.326056	0.354553
C80	C	1.057401	0.007277	0.687886
C81	C	1.390734	0.340611	1.021220
C82	C	1.063415	-0.501910	0.354524
C83	C	1.396748	-0.168576	0.687857
C84	C	1.730081	0.164757	1.021190
C85	C	1.063446	-0.577142	0.354533
C86	C	1.396780	-0.243808	0.687866
C87	C	1.730113	0.089525	1.021200
C88	C	1.110550	-0.612478	0.307518
C89	C	1.443884	-0.279144	0.640852
C90	C	1.777217	0.054189	0.974185
C91	C	1.110582	-0.683166	0.307535
C92	C	1.443915	-0.349833	0.640868
C93	C	1.777248	-0.016500	0.974201
C94	C	1.063505	-0.718517	0.354562
C95	C	1.396838	-0.385184	0.687896
C96	C	1.730171	-0.051851	1.021229
C97	C	1.016399	-0.683176	0.401582
C98	C	1.349732	-0.349843	0.734916
C99	C	1.683065	-0.016510	1.068249
C100	C	1.016372	-0.612489	0.401569
C101	C	1.349705	-0.279156	0.734903
C102	C	1.683038	0.054178	1.068236
C103	C	1.016507	-0.968249	0.401637
C104	C	1.349841	-0.634916	0.734970
C105	C	1.683174	-0.301583	1.068303
C106	C	1.016536	-1.038941	0.401645
C107	C	1.349870	-0.705608	0.734978
C108	C	1.683203	-0.372275	1.068311
C109	C	1.110717	-1.038927	0.307602
C110	C	1.444050	-0.705593	0.640936
C111	C	1.777384	-0.372260	0.974269
C112	C	1.110690	-0.968239	0.307589
C113	C	1.444023	-0.634906	0.640923
C114	C	1.777357	-0.301573	0.974256
C115	C	1.063587	-0.932905	0.354611
C116	C	1.396921	-0.599571	0.687945
C117	C	1.730254	-0.266238	1.021278
C118	C	1.063555	-0.856256	0.354594
C119	C	1.396888	-0.522923	0.687928
C120	C	1.730222	-0.189589	1.021261
C121	C	1.063533	-0.795164	0.354577
C122	C	1.396866	-0.461831	0.687910
C123	C	1.730199	-0.128498	1.021243
C124	C	1.255450	-0.326066	0.354581
C125	C	1.588784	0.007268	0.687914
C126	C	1.922117	0.340601	1.021248
C127	C	1.337249	-0.326071	0.354590
C128	C	1.670582	0.007262	0.687923
C129	C	2.003916	0.340596	1.021257
C130	C	1.063542	-0.326007	0.546512
C131	C	1.396876	0.007326	0.879846
C132	C	1.730209	0.340660	1.213179
C133	C	1.063561	-0.325987	0.628311
C134	C	1.396895	0.007346	0.961645
C135	C	1.730228	0.340680	1.294978
C136	C	1.063601	-0.149511	0.354611
C137	C	1.396934	0.183822	0.687945
C138	C	1.730267	0.517156	1.021278
C139	C	1.063645	-0.074279	0.354633
C140	C	1.396978	0.259054	0.687967
C141	C	1.730311	0.592388	1.021300
C142	C	1.063495	-0.326051	0.163353
C143	C	1.396828	0.007282	0.496686
C144	C	1.730162	0.340615	0.830020
C145	C	1.063619	-0.325880	0.081555
C146	C	1.396952	0.007453	0.414888
C147	C	1.730285	0.340786	0.748221
C148	C	1.110673	-0.282659	0.816524
C149	C	1.444006	0.050674	1.149858
C150	C	1.777339	0.384008	1.483191
C151	C	1.110682	-0.282639	0.893383
C152	C	1.444015	0.050694	1.226717
C153	C	1.777348	0.384027	1.560050
C154	C	1.016502	-0.369210	0.893336
C155	C	1.349835	-0.035877	1.226669
C156	C	1.683169	0.297456	1.560003
C157	C	1.016490	-0.369226	0.816479
C158	C	1.349823	-0.035893	1.149812
C159	C	1.683157	0.297440	1.483145
C160	C	1.063580	-0.325952	0.778075
C161	C	1.396913	0.007382	1.111408
C162	C	1.730246	0.340715	1.444742
C163	C	1.063600	-0.325916	0.931791
C164	C	1.396934	0.007417	1.265124
C165	C	1.730267	0.340751	1.598458
C166	C	1.063609	-0.325895	1.015125
C167	C	1.396943	0.007438	1.348458
C168	C	1.730276	0.340772	1.681791
C169	C	1.063570	-0.325972	0.694736
C170	C	1.396903	0.007362	1.028069
C171	C	1.730236	0.340695	1.361402
H172	H	1.148883	-0.583700	0.269220
H173	H	1.482216	-0.250366	0.602553
H174	H	1.815549	0.082967	0.935887
Cl175	Cl	0.477141	-0.423891	0.460622
Cl176	Cl	0.810475	-0.090557	0.793955
Cl177	Cl	1.143808	0.242776	1.127288
H178	H	0.494146	-0.247431	0.269344
H179	H	0.827480	0.085903	0.602677
H180	H	1.160813	0.419236	0.936010
Cl181	Cl	0.957155	-0.568066	0.460678
Cl182	Cl	1.290489	-0.234733	0.794012
Cl183	Cl	1.623822	0.098600	1.127345
Cl184	Cl	0.650610	-0.423888	0.460602
Cl185	Cl	0.983943	-0.090554	0.793935
Cl186	Cl	1.317277	0.242779	1.127269
H187	H	1.148938	-0.711934	0.269250
H188	H	1.482271	-0.378600	0.602583
H189	H	1.815604	-0.045267	0.935917
Cl190	Cl	0.650611	-0.228218	0.248521
Cl191	Cl	0.983944	0.105115	0.581855
Cl192	Cl	1.317278	0.438448	0.915188
H193	H	1.149022	-0.939459	0.269292
H194	H	1.482355	-0.606125	0.602626
H195	H	1.815689	-0.272792	0.935959
H196	H	0.978165	-0.404444	0.924614
H197	H	1.311498	-0.071111	1.257947
H198	H	1.644832	0.262222	1.591280
H199	H	0.978136	-0.404480	0.785172
H200	H	1.311469	-0.071146	1.118505
H201	H	1.644803	0.262187	1.451839
H202	H	1.149073	-1.067705	0.269317
H203	H	1.482407	-0.734371	0.602651
H204	H	1.815740	-0.401038	0.935984
Cl205	Cl	0.957351	-1.083382	0.460772
Cl206	Cl	1.290684	-0.750049	0.794105
Cl207	Cl	1.624017	-0.416715	1.127438
Cl208	Cl	0.957291	-0.923838	0.460749
Cl209	Cl	1.290624	-0.590504	0.794083
Cl210	Cl	1.623957	-0.257171	1.127416
H211	H	0.978071	-0.711965	0.439876
H212	H	1.311404	-0.378631	0.773210
H213	H	1.644738	-0.045298	1.106543
Cl214	Cl	1.169894	-0.228218	0.941717
Cl215	Cl	1.503227	0.105115	1.275050
Cl216	Cl	1.836560	0.438449	1.608383
H217	H	1.149014	-0.247420	0.785258
H218	H	1.482347	0.085913	1.118592
H219	H	1.815681	0.419246	1.451925
