data_functionalizedCrystal
_audit_creation_method	'MofGen! by Chris Wilmer'
_symmetry_space_group_name_H-M	'P1'
_symmetry_Int_Tables_number	1
_symmetry_cell_setting	triclinic
loop_
_symmetry_equiv_pos_as_xyz
  x,y,z
_cell_length_a	10.489741
_cell_length_b	11.792241
_cell_length_c	10.268362
_cell_angle_alpha	90.001488
_cell_angle_beta	90.001945
_cell_angle_gamma	84.366295
loop_
_atom_site_label
_atom_site_type_symbol
_atom_site_fract_x
_atom_site_fract_y
_atom_site_fract_z
O1	O	-1.693509	-0.160131	-0.108220
O2	O	-1.322262	-0.175162	-0.108241
O3	O	-1.516895	-0.002500	-0.108221
O4	O	-1.498876	-0.332793	-0.108240
O5	O	-1.516876	-0.002506	0.108380
O6	O	-1.322243	-0.175168	0.108360
O7	O	-1.693490	-0.160137	0.108380
Cu8	Cu	-1.507865	-0.167653	0.128148
Cu9	Cu	-1.507887	-0.167646	-0.128008
O10	O	-1.498858	-0.332799	0.108361
C11	C	-1.274725	-0.174030	0.000057
C12	C	-1.133107	-0.170633	0.000050
C13	C	-1.741027	-0.161269	0.000080
C14	C	-1.882645	-0.164666	0.000079
C15	C	-1.515753	0.039791	0.000079
C16	C	-1.512366	0.165813	0.000078
C17	C	-1.065341	-0.060774	0.000068
C18	C	-0.973047	-0.112667	-0.106727
C19	C	-0.973062	-0.112699	0.106824
C20	C	-1.042678	-0.222572	-0.106834
C21	C	-1.042703	-0.222589	0.106813
C22	C	-0.950436	-0.274563	-0.000009
C23	C	-1.499999	-0.375090	0.000058
C24	C	-1.503387	-0.501113	0.000051
N25	N	-1.507859	-0.167657	0.308313
C26	C	-1.506136	0.396542	0.000055
C27	C	-1.509598	0.268148	0.000067
N28	N	-1.507904	-0.167633	-0.308174
C29	C	-1.507868	-0.167658	0.426156
C30	C	-1.507884	-0.167648	0.573994
H31	H	-1.115339	0.029538	-0.000060
N32	N	-0.934367	-0.054347	-0.219992
N33	N	-0.975840	0.047323	-0.239022
H34	H	-0.948532	0.088518	-0.319013
H35	H	-1.073583	-0.269038	0.197101
N36	N	-1.081168	-0.280861	-0.220206
N37	N	-1.196882	-0.292856	-0.238529
H38	H	-1.224070	-0.334028	-0.318592
N39	N	-0.888056	-0.387979	-0.000095
N40	N	-0.906299	-0.454121	-0.091878
H41	H	-0.862242	-0.534222	-0.091946
N42	N	-0.934391	-0.054353	0.220080
N43	N	-0.975868	0.047320	0.239083
H44	H	-0.948561	0.088536	0.319064
