data_functionalizedCrystal
_audit_creation_method	'MofGen! by Chris Wilmer'
_symmetry_space_group_name_H-M	'P1'
_symmetry_Int_Tables_number	1
_symmetry_cell_setting	triclinic
loop_
_symmetry_equiv_pos_as_xyz
  x,y,z
_cell_length_a	12.594517
_cell_length_b	18.050589
_cell_length_c	12.594509
_cell_angle_alpha	89.972304
_cell_angle_beta	89.978673
_cell_angle_gamma	90.028021
loop_
_atom_site_label
_atom_site_type_symbol
_atom_site_fract_x
_atom_site_fract_y
_atom_site_fract_z
Zn1	Zn	1.627177	-0.295641	-0.601864
Zn2	Zn	1.627030	-0.419845	-0.423887
Zn3	Zn	1.449181	-0.295673	-0.423893
Zn4	Zn	1.449125	-0.419793	-0.601817
O5	O	1.538128	-0.357738	-0.512865
O6	O	1.776103	-0.312125	-0.578272
O7	O	1.603400	-0.403408	-0.274942
O8	O	1.472877	-0.191744	-0.447523
O9	O	1.775995	-0.403377	-0.447513
O10	O	1.603650	-0.191721	-0.578278
O11	O	1.472735	-0.312179	-0.274946
O12	O	1.300228	-0.312129	-0.447478
O13	O	1.472782	-0.403289	-0.750769
O14	O	1.300187	-0.403320	-0.578198
O15	O	1.603596	-0.312075	-0.750804
O16	O	1.603346	-0.523763	-0.447468
O17	O	1.472640	-0.523725	-0.578192
C18	C	1.261587	-0.357723	-0.512834
C19	C	1.143282	-0.357735	-0.512846
C20	C	1.538000	-0.550690	-0.512848
C21	C	1.538042	-0.633236	-0.512876
C22	C	1.074020	-0.308068	-0.441883
C23	C	1.003188	-0.375810	-0.415704
C24	C	1.003314	-0.290026	-0.539043
C25	C	1.074008	-0.425512	-0.486616
C26	C	1.074141	-0.339682	-0.610001
C27	C	1.003341	-0.407471	-0.583858
C28	C	1.467034	-0.832693	-0.583939
C29	C	1.441086	-0.882138	-0.486814
C30	C	1.538147	-0.784366	-0.512889
C31	C	1.564147	-0.882003	-0.610026
C32	C	1.538246	-0.930351	-0.512911
C33	C	1.512147	-0.832724	-0.415713
C34	C	1.635254	-0.832585	-0.538990
C35	C	1.609343	-0.882007	-0.441799
C36	C	1.538087	-0.700268	-0.512878
C37	C	1.538306	-1.014448	-0.512912
C38	C	1.815749	-0.357753	-0.512897
C39	C	1.934055	-0.357760	-0.512911
C40	C	1.538200	-0.357673	-0.790486
C41	C	1.538230	-0.357645	-0.908792
C42	C	1.538286	-0.164032	-0.512906
C43	C	1.538354	-0.081487	-0.512924
C44	C	1.467103	-0.407228	-0.978026
C45	C	1.564218	-0.425374	-1.048817
C46	C	1.441191	-0.339455	-1.048800
C47	C	1.635396	-0.375826	-0.978024
C48	C	1.512303	-0.289876	-0.978001
C49	C	1.609485	-0.307996	-1.048760
C50	C	1.538119	-0.357749	-0.236324
C51	C	1.538294	-0.357568	-0.118019
H52	H	1.105054	-0.266108	-0.381797
H53	H	1.406808	-0.811039	-0.643938
H54	H	1.490100	-0.811167	-0.333552
O55	O	1.343246	-0.908233	-0.460449
C56	C	1.344913	-0.986334	-0.459913
H57	H	1.429814	-1.006437	-0.447601
H58	H	1.292570	-1.007750	-0.392701
H59	H	1.313701	-1.007968	-0.539001
O60	O	0.966363	-0.457587	-0.655475
C61	C	0.854424	-0.456641	-0.655322
H62	H	0.825290	-0.401055	-0.623806
H63	H	0.824011	-0.465008	-0.739713
H64	H	0.823453	-0.503095	-0.602326
O65	O	0.966051	-0.393924	-0.317658
C66	C	1.002075	-0.341421	-0.243041
H67	H	1.021993	-0.287379	-0.285494
H68	H	0.937266	-0.330965	-0.181645
H69	H	1.076094	-0.363464	-0.201646
O70	O	1.681017	-0.907649	-0.369908
C71	C	1.653277	-0.882390	-0.267684
H72	H	1.564961	-0.868661	-0.265576
H73	H	1.671205	-0.927469	-0.206861
H74	H	1.701231	-0.830616	-0.247952
H75	H	1.105330	-0.324376	-0.692110
H76	H	1.717310	-0.810804	-0.561093
O77	O	1.681205	-0.257843	-1.085626
C78	C	1.628472	-0.204003	-1.147236
H79	H	1.541230	-0.201783	-1.123303
H80	H	1.666581	-0.147534	-1.133358
H81	H	1.634966	-0.219153	-1.234863
H82	H	1.717511	-0.391245	-0.947065
O83	O	1.343341	-0.321044	-1.086015
C84	C	1.350734	-0.255969	-1.147544
H85	H	1.435439	-0.249382	-1.178068
H86	H	1.293847	-0.259853	-1.217708
H87	H	1.328893	-0.206051	-1.096612
O88	O	1.590219	-0.907740	-0.708093
C89	C	1.514964	-0.882628	-0.782724
H90	H	1.474402	-0.830668	-0.751141
H91	H	1.556642	-0.869258	-0.860785
H92	H	1.452999	-0.927652	-0.796595
H93	H	1.586182	-0.482652	-1.079923
O94	O	1.395520	-0.457426	-0.941016
C95	C	1.423279	-0.528760	-0.977125
H96	H	1.511572	-0.530159	-0.996984
H97	H	1.405469	-0.571150	-0.912390
H98	H	1.375245	-0.542654	-1.051197
O99	O	0.966392	-0.221647	-0.565329
C100	C	1.002382	-0.169455	-0.490248
H101	H	1.076873	-0.191416	-0.449628
H102	H	1.021510	-0.115047	-0.532104
H103	H	0.937867	-0.159698	-0.428303
O104	O	1.485948	-0.221623	-0.940723
C105	C	1.393799	-0.227036	-0.877585
H106	H	1.385435	-0.286097	-0.846582
H107	H	1.400199	-0.187133	-0.807744
H108	H	1.321252	-0.212255	-0.927370
O109	O	1.111069	-0.493805	-0.460069
C110	C	1.223011	-0.492963	-0.460339
H111	H	1.252332	-0.433770	-0.448633
H112	H	1.253861	-0.529358	-0.393101
H113	H	1.253361	-0.515082	-0.539497
