data_functionalizedCrystal
_audit_creation_method	'MofGen! by Chris Wilmer'
_symmetry_space_group_name_H-M	'P1'
_symmetry_Int_Tables_number	1
_symmetry_cell_setting	triclinic
loop_
_symmetry_equiv_pos_as_xyz
  x,y,z
_cell_length_a	13.032831
_cell_length_b	21.295417
_cell_length_c	21.295411
_cell_angle_alpha	89.978356
_cell_angle_beta	82.805709
_cell_angle_gamma	82.834379
loop_
_atom_site_label
_atom_site_type_symbol
_atom_site_fract_x
_atom_site_fract_y
_atom_site_fract_z
Zn1	Zn	1.597617	-0.373109	-0.477900
Zn2	Zn	2.097617	0.126891	0.022100
Zn3	Zn	1.597455	-0.478348	-0.372613
Zn4	Zn	2.097455	0.021652	0.127387
Zn5	Zn	1.422846	-0.359717	-0.359300
Zn6	Zn	1.922846	0.140283	0.140700
Zn7	Zn	1.422795	-0.464947	-0.464508
Zn8	Zn	1.922795	0.035053	0.035492
O9	O	1.510179	-0.419030	-0.418580
O10	O	2.010179	0.080970	0.081420
O11	O	1.743834	-0.398283	-0.475109
O12	O	2.243834	0.101717	0.024891
O13	O	1.574247	-0.462615	-0.282754
O14	O	2.074247	0.037385	0.217246
O15	O	1.446119	-0.273410	-0.375066
O16	O	1.946119	0.226590	0.124934
O17	O	1.743715	-0.475601	-0.397755
O18	O	2.243715	0.024399	0.102245
O19	O	1.574523	-0.283250	-0.462200
O20	O	2.074523	0.216750	0.037800
O21	O	1.445962	-0.375457	-0.272973
O22	O	1.945962	0.124543	0.227027
O23	O	1.276601	-0.362462	-0.362080
O24	O	1.776601	0.137538	0.137920
O25	O	1.446032	-0.452761	-0.554378
O26	O	1.946032	0.047239	-0.054378
O27	O	1.276564	-0.439775	-0.439376
O28	O	1.776564	0.060225	0.060624
O29	O	1.574473	-0.385288	-0.564216
O30	O	2.074473	0.114712	-0.064216
O31	O	1.574197	-0.564653	-0.384770
O32	O	2.074197	-0.064653	0.115230
O33	O	1.445875	-0.554808	-0.452285
O34	O	1.945875	-0.054808	0.047715
C35	C	1.238665	-0.398212	-0.397831
C36	C	1.738665	0.101788	0.102169
C37	C	1.122510	-0.389321	-0.388969
C38	C	1.622510	0.110679	0.111031
C39	C	1.510042	-0.582572	-0.418535
C40	C	2.010042	-0.082572	0.081465
C41	C	1.510079	-0.652542	-0.418544
C42	C	2.010079	-0.152542	0.081456
C43	C	1.070733	-0.423671	-0.423205
C44	C	1.570733	0.076329	0.076795
C45	C	0.950681	-0.414482	-0.414047
C46	C	1.450681	0.085518	0.085953
C47	C	1.576955	-0.690519	-0.383435
C48	C	2.076955	-0.190519	0.116565
C49	C	1.577004	-0.756266	-0.383452
C50	C	2.077004	-0.256266	0.116548
C51	C	1.510158	-0.784031	-0.418572
C52	C	2.010158	-0.284031	0.081428
C53	C	1.443277	-0.746046	-0.453688
C54	C	1.943277	-0.246046	0.046312
C55	C	1.443237	-0.680301	-0.453675
C56	C	1.943237	-0.180301	0.046325
N57	N	1.418740	-0.880292	-0.416384
N58	N	1.918740	-0.380292	0.083616
N59	N	1.418781	-0.942747	-0.416394
N60	N	1.918781	-0.442747	0.083606
C61	C	1.510275	-0.982115	-0.418617
C62	C	2.010275	-0.482115	0.081383
N63	N	1.601729	-0.956669	-0.420817
N64	N	2.101729	-0.456669	0.079183
N65	N	1.601687	-0.894208	-0.420804
N66	N	2.101687	-0.394208	0.079196
C67	C	1.510194	-0.855319	-0.418591
C68	C	2.010194	-0.355319	0.081409
C69	C	1.577210	-1.091382	-0.383525
C70	C	2.077210	-0.591382	0.116475
C71	C	1.577261	-1.157129	-0.383548
C72	C	2.077261	-0.657129	0.116452
C73	C	1.443524	-1.146907	-0.453779
C74	C	1.943524	-0.646907	0.046221
C75	C	1.443483	-1.081162	-0.453761
C76	C	1.943483	-0.581162	0.046239
C77	C	1.510324	-1.053403	-0.418630
C78	C	2.010324	-0.553403	0.081370
C79	C	1.782753	-0.439931	-0.439411
C80	C	2.282753	0.060069	0.060589
C81	C	1.898908	-0.448837	-0.448288
C82	C	2.398908	0.051163	0.051712
C83	C	1.510265	-0.419024	-0.582777
C84	C	2.010265	0.080976	-0.082777
C85	C	1.510302	-0.419021	-0.652748
C86	C	2.010302	0.080979	-0.152748
C87	C	1.510345	-0.254853	-0.418642
C88	C	2.010345	0.245147	0.081358
C89	C	1.510415	-0.184890	-0.418668
C90	C	2.010415	0.315110	0.081332
C91	C	1.577179	-0.383886	-0.690739
C92	C	2.077179	0.116114	-0.190739
C93	C	1.577177	-0.383858	-0.756481
C94	C	2.077177	0.116142	-0.256481
C95	C	1.510310	-0.418978	-0.784231
C96	C	2.010310	0.081022	-0.284231
C97	C	1.443421	-0.454115	-0.746232
C98	C	1.943421	0.045885	-0.246232
C99	C	1.443417	-0.454137	-0.680490
C100	C	1.943417	0.045863	-0.180490
N101	N	1.502248	-0.473428	-0.886831
N102	N	2.002248	0.026572	-0.386831
N103	N	1.502258	-0.473406	-0.949283
N104	N	2.002258	0.026594	-0.449283
C105	C	1.510317	-0.418915	-0.982307
C106	C	2.010317	0.081085	-0.482307
N107	N	1.518386	-0.364446	-0.950520
N108	N	2.018386	0.135554	-0.450520
N109	N	1.518382	-0.364469	-0.888063
N110	N	2.018382	0.135531	-0.388063
C111	C	1.510307	-0.418959	-0.855517
C112	C	2.010307	0.081041	-0.355517
C113	C	1.577195	-0.383747	-1.091583
C114	C	2.077195	0.116253	-0.591583
C115	C	1.577187	-0.383718	-1.157326
C116	C	2.077187	0.116282	-0.657326
C117	C	1.443436	-0.453981	-1.147076
C118	C	1.943436	0.046019	-0.647076
C119	C	1.443439	-0.454004	-1.081334
C120	C	1.943439	0.045996	-0.581334
C121	C	1.510324	-0.418888	-1.053592
C122	C	2.010324	0.081112	-0.553592
C123	C	1.510152	-0.418996	-0.255027
C124	C	2.010152	0.081004	0.244973
C125	C	1.510318	-0.418837	-0.185072
C126	C	2.010318	0.081163	0.314928
H127	H	1.115284	-0.459880	-0.459299
H128	H	1.615284	0.040120	0.040701
Cl129	Cl	1.661000	-0.655627	-0.339281
Cl130	Cl	2.161000	-0.155627	0.160719
H131	H	1.631641	-0.355291	-0.668155
H132	H	2.131641	0.144709	-0.168155
Cl133	Cl	1.661236	-0.339670	-0.804248
Cl134	Cl	2.161236	0.160330	-0.304248
Cl135	Cl	1.359155	-0.632556	-0.497815
Cl136	Cl	1.859155	-0.132556	0.002185
H137	H	0.943453	-0.485047	-0.484386
H138	H	1.443453	0.014953	0.015614
H139	H	1.077959	-0.353107	-0.352880
H140	H	1.577959	0.146893	0.147120
Cl141	Cl	1.661082	-0.804017	-0.339310
Cl142	Cl	2.161082	-0.304017	0.160690
Cl143	Cl	1.661350	-1.204874	-0.339411
Cl144	Cl	2.161350	-0.704874	0.160589
H145	H	1.631640	-1.068780	-0.354922
H146	H	2.131640	-0.568780	0.145078
Cl147	Cl	1.359246	-0.780950	-0.497842
Cl148	Cl	1.859246	-0.280950	0.002158
Cl149	Cl	1.359356	-0.498264	-0.781117
Cl150	Cl	1.859356	0.001736	-0.281117
H151	H	1.389101	-1.169514	-0.482377
H152	H	1.889101	-0.669514	0.017623
Cl153	Cl	1.359399	-1.033416	-0.497898
Cl154	Cl	1.859399	-0.533416	0.002102
H155	H	1.388953	-0.482747	-0.649558
H156	H	1.888953	0.017253	-0.149558
H157	H	1.631652	-0.355149	-1.068994
H158	H	2.131652	0.144851	-0.568994
H159	H	1.631644	-0.355102	-1.188257
H160	H	2.131644	0.144898	-0.688257
Cl161	Cl	1.359364	-0.498126	-1.181955
Cl162	Cl	1.859364	0.001874	-0.681955
H163	H	0.906135	-0.378266	-0.377956
H164	H	1.406135	0.121734	0.122044
Cl165	Cl	1.359365	-0.498180	-1.033572
Cl166	Cl	1.859365	0.001820	-0.533572
