data_functionalizedCrystal
_audit_creation_method	'MofGen! by Chris Wilmer'
_symmetry_space_group_name_H-M	'P1'
_symmetry_Int_Tables_number	1
_symmetry_cell_setting	triclinic
loop_
_symmetry_equiv_pos_as_xyz
  x,y,z
_cell_length_a	16.959455
_cell_length_b	17.077402
_cell_length_c	17.077396
_cell_angle_alpha	90.029784
_cell_angle_beta	89.979128
_cell_angle_gamma	89.978169
loop_
_atom_site_label
_atom_site_type_symbol
_atom_site_fract_x
_atom_site_fract_y
_atom_site_fract_z
Zn1	Zn	1.208401	0.312530	-0.443864
Zn2	Zn	1.541734	0.645863	-0.110531
Zn3	Zn	1.875067	0.979197	0.222802
Zn4	Zn	1.208307	0.443805	-0.312595
Zn5	Zn	1.541641	0.777138	0.020738
Zn6	Zn	1.874974	1.110472	0.354071
Zn7	Zn	1.076220	0.312555	-0.312609
Zn8	Zn	1.409553	0.645888	0.020724
Zn9	Zn	1.742886	0.979221	0.354058
Zn10	Zn	1.076187	0.443756	-0.443816
Zn11	Zn	1.409521	0.777089	-0.110482
Zn12	Zn	1.742854	1.110422	0.222851
O13	O	1.142279	0.378161	-0.378221
O14	O	1.475612	0.711495	-0.044888
O15	O	1.808945	1.044828	0.288446
O16	O	1.318999	0.329954	-0.426466
O17	O	1.652333	0.663288	-0.093132
O18	O	1.985666	0.996621	0.240201
O19	O	1.190760	0.426425	-0.202750
O20	O	1.524093	0.759759	0.130583
O21	O	1.857426	1.093092	0.463916
O22	O	1.093806	0.202705	-0.330046
O23	O	1.427140	0.536038	0.003287
O24	O	1.760473	0.869371	0.336620
O25	O	1.318930	0.426402	-0.330023
O26	O	1.652264	0.759735	0.003310
O27	O	1.985597	1.093068	0.336644
O28	O	1.190919	0.202686	-0.426479
O29	O	1.524253	0.536020	-0.093146
O30	O	1.857586	0.869353	0.240188
O31	O	1.093716	0.329996	-0.202760
O32	O	1.427049	0.663330	0.130573
O33	O	1.760382	0.996663	0.463906
O34	O	0.965604	0.329948	-0.329999
O35	O	1.298938	0.663282	0.003334
O36	O	1.632271	0.996615	0.336667
O37	O	1.093751	0.426317	-0.553669
O38	O	1.427085	0.759650	-0.220336
O39	O	1.760418	1.092984	0.112997
O40	O	0.965581	0.426341	-0.426396
O41	O	1.298914	0.759674	-0.093063
O42	O	1.632247	1.093008	0.240270
O43	O	1.190888	0.329906	-0.553705
O44	O	1.524221	0.663240	-0.220372
O45	O	1.857555	0.996573	0.112962
O46	O	1.190729	0.553645	-0.329976
O47	O	1.524062	0.886979	0.003357
O48	O	1.857395	1.220312	0.336691
O49	O	1.093661	0.553609	-0.426383
O50	O	1.426994	0.886942	-0.093050
O51	O	1.760327	1.220276	0.240284
C52	C	0.936912	0.378143	-0.378195
C53	C	1.270246	0.711476	-0.044861
C54	C	1.603579	1.044809	0.288472
C55	C	0.849056	0.378153	-0.378202
C56	C	1.182389	0.711487	-0.044869
C57	C	1.515723	1.044820	0.288465
C58	C	0.807771	0.327895	-0.328093
C59	C	1.141104	0.661228	0.005241
C60	C	1.474437	0.994561	0.338574
C61	C	0.807787	0.428418	-0.428322
C62	C	1.141121	0.761751	-0.094989
C63	C	1.474454	1.095085	0.238344
C64	C	0.725242	0.428427	-0.428334
C65	C	1.058575	0.761761	-0.095001
C66	C	1.391908	1.095094	0.238333
C67	C	0.683956	0.378168	-0.378225
C68	C	1.017290	0.711502	-0.044892
C69	C	1.350623	1.044835	0.288442
C70	C	0.725217	0.327900	-0.328104
C71	C	1.058551	0.661234	0.005229
C72	C	1.391884	0.994567	0.338562
C73	C	0.683975	0.478688	-0.478459
C74	C	1.017308	0.812022	-0.145126
C75	C	1.350641	1.145355	0.188207
C76	C	0.601424	0.478699	-0.478473
C77	C	0.934757	0.812032	-0.145140
C78	C	1.268090	1.145366	0.188193
C79	C	0.560137	0.428443	-0.428360
C80	C	0.893470	0.761777	-0.095026
C81	C	1.226804	1.095110	0.238307
C82	C	0.601403	0.378174	-0.378237
C83	C	0.934736	0.711508	-0.044903
C84	C	1.268070	1.044841	0.288430
C85	C	0.560118	0.327915	-0.328128
C86	C	0.893451	0.661249	0.005206
C87	C	1.226784	0.994582	0.338539
C88	C	0.601382	0.277649	-0.278000
C89	C	0.934715	0.610983	0.055333
C90	C	1.268049	0.944316	0.388667
C91	C	0.683931	0.277645	-0.277991
C92	C	1.017264	0.610978	0.055342
C93	C	1.350597	0.944312	0.388676
C94	C	0.477589	0.428448	-0.428369
C95	C	0.810922	0.761781	-0.095035
C96	C	1.144255	1.095115	0.238298
C97	C	0.477564	0.327921	-0.328139
C98	C	0.810898	0.661255	0.005194
C99	C	1.144231	0.994588	0.338527
C100	C	1.142202	0.582109	-0.378190
C101	C	1.475536	0.915443	-0.044856
C102	C	1.808869	1.248776	0.288477
C103	C	1.142242	0.669359	-0.378203
C104	C	1.475575	1.002692	-0.044869
C105	C	1.808909	1.336026	0.288464
C106	C	1.142327	0.378104	-0.582965
C107	C	1.475660	0.711437	-0.249632
C108	C	1.808993	1.044770	0.083701
C109	C	1.142347	0.378079	-0.670215
C110	C	1.475680	0.711412	-0.336882
C111	C	1.809014	1.044746	-0.003549
C112	C	1.348447	0.378181	-0.378248
C113	C	1.681780	0.711514	-0.044915
C114	C	2.015114	1.044847	0.288418
C115	C	1.436304	0.378189	-0.378260
C116	C	1.769637	0.711522	-0.044926
C117	C	2.102970	1.044856	0.288407
C118	C	1.142377	0.173417	-0.378270
C119	C	1.475710	0.506750	-0.044936
C120	C	1.809044	0.840084	0.288397
C121	C	1.142419	0.086167	-0.378290
C122	C	1.475752	0.419501	-0.044957
C123	C	1.809085	0.752834	0.288376
C124	C	1.192837	0.710342	-0.328057
C125	C	1.526170	1.043675	0.005276
C126	C	1.859504	1.377009	0.338609
C127	C	1.192876	0.792322	-0.328077
C128	C	1.526209	1.125656	0.005256
C129	C	1.859542	1.458989	0.338589
C130	C	1.142315	0.833318	-0.378239
C131	C	1.475648	1.166652	-0.044906
C132	C	1.808982	1.499985	0.288427
C133	C	1.091718	0.792330	-0.428390
C134	C	1.425051	1.125663	-0.095057
C135	C	1.758384	1.458996	0.238277
C136	C	1.091684	0.710351	-0.428373
C137	C	1.425017	1.043684	-0.095040
C138	C	1.758350	1.377017	0.238293
C139	C	1.091791	0.963200	-0.428420
C140	C	1.425124	1.296533	-0.095087
C141	C	1.758458	1.629866	0.238247
C142	C	1.091824	1.045184	-0.428436
C143	C	1.425157	1.378518	-0.095102
C144	C	1.758490	1.711851	0.238231
C145	C	1.192983	1.045171	-0.328124
C146	C	1.526316	1.378505	0.005209
C147	C	1.859650	1.711838	0.338543
C148	C	1.192949	0.963192	-0.328107
C149	C	1.526282	1.296526	0.005226
C150	C	1.859616	1.629859	0.338559
C151	C	1.142351	0.922209	-0.378257
C152	C	1.475684	1.255543	-0.044924
C153	C	1.809017	1.588876	0.288409
C154	C	1.192928	0.327874	-0.711225
C155	C	1.526261	0.661207	-0.377892
C156	C	1.859594	0.994540	-0.044559
C157	C	1.192937	0.327848	-0.793206
C158	C	1.526271	0.661181	-0.459873
C159	C	1.859604	0.994514	-0.126539
C160	C	1.142369	0.378031	-0.834175
C161	C	1.475703	0.711365	-0.500842
C162	C	1.809036	1.044698	-0.167508
C163	C	1.091783	0.428239	-0.793159
C164	C	1.425116	0.761572	-0.459826
C165	C	1.758450	1.094905	-0.126492
C166	C	1.091770	0.428260	-0.711180
C167	C	1.425103	0.761594	-0.377847
C168	C	1.758437	1.094927	-0.044513
C169	C	1.091815	0.428191	-0.964029
C170	C	1.425148	0.761525	-0.630696
C171	C	1.758481	1.094858	-0.297363
C172	C	1.091828	0.428171	-1.046014
C173	C	1.425162	0.761504	-0.712681
C174	C	1.758495	1.094838	-0.379347
C175	C	1.192982	0.327779	-1.046055
C176	C	1.526315	0.661112	-0.712722
C177	C	1.859649	0.994445	-0.379388
C178	C	1.192969	0.327800	-0.964076
C179	C	1.526302	0.661134	-0.630743
C180	C	1.859636	0.994467	-0.297409
C181	C	1.142384	0.378009	-0.923066
C182	C	1.475717	0.711342	-0.589733
C183	C	1.809050	1.044676	-0.256399
C184	C	1.142277	0.378162	-0.174273
C185	C	1.475610	0.711496	0.159060
C186	C	1.808943	1.044829	0.492393
C187	C	1.142409	0.377966	-0.087024
C188	C	1.475743	0.711299	0.246309
C189	C	1.809076	1.044633	0.579643
H190	H	0.841407	0.469333	-0.469122
H191	H	1.174740	0.802667	-0.135789
H192	H	1.508073	1.136000	0.197544
H193	H	1.050607	0.469096	-0.826523
H194	H	1.383940	0.802429	-0.493189
H195	H	1.717273	1.135763	-0.159856
H196	H	1.050650	0.469033	-1.079369
H197	H	1.383983	0.802367	-0.746035
H198	H	1.717317	1.135700	-0.412702
H199	H	0.443956	0.286995	-0.287333
H200	H	0.777289	0.620328	0.046001
H201	H	1.110622	0.953662	0.379334
F202	F	1.246760	0.919563	-0.274718
F203	F	1.580094	1.252896	0.058615
F204	F	1.913427	1.586230	0.391948
F205	F	1.246647	0.666718	-0.274662
F206	F	1.579980	1.000052	0.058671
F207	F	1.913313	1.333385	0.392004
H208	H	1.050485	0.676983	-0.469208
H209	H	1.383819	1.010316	-0.135875
H210	H	1.717152	1.343650	0.197459
H211	H	1.234109	0.287011	-0.677874
H212	H	1.567442	0.620344	-0.344541
H213	H	1.900775	0.953677	-0.011208
H214	H	1.050591	0.929834	-0.469260
H215	H	1.383924	1.263167	-0.135927
H216	H	1.717258	1.596501	0.197406
H217	H	1.050610	0.469064	-0.930641
H218	H	1.383944	0.802398	-0.597308
H219	H	1.717277	1.135731	-0.263975
F220	F	0.557434	0.224157	-0.224677
F221	F	0.890767	0.557490	0.108656
F222	F	1.224101	0.890824	0.441989
F223	F	1.246820	0.274343	-1.089702
F224	F	1.580153	0.607676	-0.756368
F225	F	1.913487	0.941010	-0.423035
H226	H	0.717595	0.519604	-0.519258
H227	H	1.050928	0.852937	-0.185924
H228	H	1.384262	1.186271	0.147409
H229	H	1.234127	0.286967	-0.826593
H230	H	1.567461	0.620301	-0.493259
H231	H	1.900794	0.953634	-0.159926
H232	H	1.050554	0.825715	-0.469236
H233	H	1.383887	1.159048	-0.135903
H234	H	1.717220	1.492382	0.197430
H235	H	1.234185	1.078544	-0.287292
H236	H	1.567518	1.411877	0.046041
H237	H	1.900851	1.745210	0.379374
F238	F	1.246794	0.274394	-0.920475
F239	F	1.580127	0.607727	-0.587142
F240	F	1.913460	0.941061	-0.253809
F241	F	1.037933	0.481694	-0.667535
F242	F	1.371266	0.815027	-0.334201
F243	F	1.704600	1.148360	-0.000868
H244	H	0.841372	0.286972	-0.287278
H245	H	1.174705	0.620305	0.046055
H246	H	1.508038	0.953638	0.379389
F247	F	0.727852	0.224150	-0.224649
F248	F	1.061185	0.557484	0.108684
F249	F	1.394519	0.890817	0.442017
F250	F	1.246728	0.835936	-0.274708
F251	F	1.580061	1.169269	0.058625
F252	F	1.913395	1.502603	0.391959
H253	H	0.567833	0.519629	-0.519290
H254	H	0.901167	0.852963	-0.185956
H255	H	1.234500	1.186296	0.147377
F256	F	0.433676	0.481936	-0.481719
F257	F	0.767009	0.815269	-0.148386
F258	F	1.100342	1.148602	0.184947
H259	H	1.050668	1.078561	-0.469297
H260	H	1.384001	1.411894	-0.135963
H261	H	1.717334	1.745228	0.197370
