data_functionalizedCrystal
_audit_creation_method	'MofGen! by Chris Wilmer'
_symmetry_space_group_name_H-M	'P1'
_symmetry_Int_Tables_number	1
_symmetry_cell_setting	triclinic
loop_
_symmetry_equiv_pos_as_xyz
  x,y,z
_cell_length_a	10.723022
_cell_length_b	15.995292
_cell_length_c	14.472310
_cell_angle_alpha	89.997879
_cell_angle_beta	90.012757
_cell_angle_gamma	83.967921
loop_
_atom_site_label
_atom_site_type_symbol
_atom_site_fract_x
_atom_site_fract_y
_atom_site_fract_z
O1	O	1.655671	0.117428	0.076828
O2	O	1.292372	0.128670	0.076830
O3	O	1.483990	0.001215	0.076830
O4	O	1.464053	0.244883	0.076828
O5	O	1.483941	0.001222	-0.076852
O6	O	1.292323	0.128677	-0.076852
O7	O	1.655622	0.117435	-0.076854
Cu8	Cu	1.473968	0.123057	-0.090885
Cu9	Cu	1.474026	0.123048	0.090861
O10	O	1.464003	0.244890	-0.076854
C11	C	1.245858	0.127856	-0.000010
C12	C	1.107336	0.125409	-0.000009
C13	C	1.059735	0.051910	-0.000008
C14	C	0.916566	0.049379	-0.000007
C15	C	1.483154	-0.029982	-0.000008
C16	C	1.480722	-0.122948	-0.000001
C17	C	1.471778	-0.460738	-0.000010
C18	C	1.610083	-0.436632	-0.000354
C19	C	1.612712	-0.339941	-0.000004
C20	C	1.476216	-0.293157	-0.000006
C21	C	1.407098	-0.322659	0.087751
C22	C	1.405433	-0.419459	0.087822
C23	C	1.402553	-0.419324	-0.086944
C24	C	1.407678	-0.322802	-0.088100
C25	C	1.478717	-0.198446	-0.000001
C26	C	1.469273	-0.555448	-0.000009
C27	C	1.702136	0.118249	-0.000012
C28	C	1.840658	0.120696	-0.000007
C29	C	1.464840	0.276086	-0.000014
C30	C	1.467272	0.369053	-0.000015
N31	N	1.473936	0.123062	-0.218716
C32	C	1.474024	0.123045	-0.592808
C33	C	1.371149	0.191011	-0.553642
C34	C	1.371387	0.191262	-0.446554
C35	C	1.473979	0.123054	-0.407216
C36	C	1.604172	0.142883	-0.446055
C37	C	1.603594	0.143367	-0.553176
C38	C	1.447869	0.035053	-0.553336
C39	C	1.444882	0.035621	-0.446208
C40	C	1.473962	0.123057	-0.302328
C41	C	1.474050	0.123043	-0.697696
N42	N	1.474068	0.123036	0.218692
H43	H	1.666845	-0.320602	-0.062911
C44	C	0.861209	-0.035638	-0.000006
H45	H	0.927405	-0.080053	-0.000012
H46	H	0.811055	-0.039663	0.053585
H47	H	0.811028	-0.039656	-0.053606
C48	C	1.539524	-0.035990	-0.410043
H49	H	1.519681	-0.088027	-0.434694
H50	H	1.621759	-0.026332	-0.428608
H51	H	1.535507	-0.037797	-0.344508
H52	H	1.455136	-0.302326	0.153061
C53	C	1.636062	0.228623	-0.409811
H54	H	1.570213	0.252446	-0.371022
H55	H	1.712009	0.221168	-0.375573
H56	H	1.645612	0.265161	-0.460488
C57	C	1.549204	-0.033288	-0.587555
H58	H	1.607177	-0.008364	-0.625712
H59	H	1.592107	-0.059482	-0.536039
H60	H	1.510839	-0.074171	-0.622047
H61	H	1.682553	0.094728	-0.420571
H62	H	0.881639	0.183628	-0.000013
C63	C	1.239983	0.175156	-0.588465
H64	H	1.179243	0.216840	-0.564040
H65	H	1.238291	0.177683	-0.654037
H66	H	1.221481	0.121158	-0.568782
C67	C	1.019219	0.207890	-0.000005
H68	H	1.067649	0.254331	0.000001
H69	H	0.967806	0.210121	-0.053594
H70	H	0.967853	0.210111	0.053597
C71	C	1.322382	0.009555	-0.589863
H72	H	1.308394	-0.043714	-0.565216
H73	H	1.256161	0.050308	-0.571528
H74	H	1.325184	0.006331	-0.655387
C75	C	1.147858	-0.030569	-0.000010
H76	H	1.232524	-0.018048	-0.000018
H77	H	1.132730	-0.062276	0.053580
H78	H	1.132694	-0.062264	-0.053611
C79	C	1.682076	-0.474027	-0.085376
H80	H	1.628440	-0.504684	-0.121423
H81	H	1.709579	-0.429898	-0.121504
H82	H	1.752617	-0.510586	-0.065654
H83	H	1.663116	-0.465348	0.062227
H84	H	1.388087	0.256544	-0.420920
H85	H	1.453342	-0.446003	0.153423
C86	C	1.686312	-0.314652	0.085131
H87	H	1.714709	-0.363500	0.119642
H88	H	1.756327	-0.287421	0.065568
H89	H	1.633288	-0.277443	0.122721
H90	H	1.300749	-0.433899	-0.087536
C91	C	1.268453	-0.439907	0.093227
H92	H	1.214069	-0.389072	0.095377
H93	H	1.249476	-0.471357	0.040313
H94	H	1.257306	-0.471896	0.147351
C95	C	1.461051	-0.457152	-0.176803
H96	H	1.528249	-0.498561	-0.162138
H97	H	1.399246	-0.482268	-0.211070
H98	H	1.491779	-0.413963	-0.212627
C99	C	1.240633	0.175213	-0.411073
H100	H	1.240598	0.175357	-0.345428
H101	H	1.180028	0.218188	-0.433088
H102	H	1.220606	0.122194	-0.432807
H103	H	1.306656	-0.291368	0.091013
C104	C	1.475651	-0.297321	-0.175807
H105	H	1.545505	-0.268730	-0.158820
H106	H	1.503843	-0.346223	-0.210269
H107	H	1.419538	-0.261268	-0.212436
H108	H	1.308047	-0.290404	-0.093401
C109	C	1.393395	0.278705	-0.589985
H110	H	1.465108	0.274079	-0.628921
H111	H	1.322157	0.301610	-0.624090
H112	H	1.406673	0.314527	-0.539359
H113	H	1.626647	0.207562	-0.578153
H114	H	1.682536	0.095856	-0.579082
C115	C	1.315505	0.015312	-0.411924
H116	H	1.279365	0.059922	-0.374000
H117	H	1.262428	0.008839	-0.463425
H118	H	1.324909	-0.035350	-0.377176
