data_functionalizedCrystal
_audit_creation_method	'MofGen! by Chris Wilmer'
_symmetry_space_group_name_H-M	'P1'
_symmetry_Int_Tables_number	1
_symmetry_cell_setting	triclinic
loop_
_symmetry_equiv_pos_as_xyz
  x,y,z
_cell_length_a	11.169417
_cell_length_b	12.759400
_cell_length_c	11.169409
_cell_angle_alpha	90.033794
_cell_angle_beta	90.019513
_cell_angle_gamma	90.015934
loop_
_atom_site_label
_atom_site_type_symbol
_atom_site_fract_x
_atom_site_fract_y
_atom_site_fract_z
Zn1	Zn	1.834926	-0.418146	0.678521
Zn2	Zn	1.834800	-0.593872	0.477832
Zn3	Zn	1.634212	-0.418211	0.477856
Zn4	Zn	1.634204	-0.593788	0.678478
O5	O	1.734536	-0.506004	0.578172
O6	O	2.002859	-0.441465	0.651907
O7	O	1.808142	-0.570633	0.309886
O8	O	1.660893	-0.271182	0.504502
O9	O	2.002767	-0.570570	0.504462
O10	O	1.808357	-0.271134	0.651930
O11	O	1.660771	-0.441576	0.309903
O12	O	1.466261	-0.441494	0.504461
O13	O	1.660880	-0.570426	0.846434
O14	O	1.466256	-0.570489	0.651858
O15	O	1.808349	-0.441383	0.846465
O16	O	1.808135	-0.740882	0.504421
O17	O	1.660758	-0.740820	0.651835
C18	C	1.422711	-0.505990	0.578158
C19	C	1.289311	-0.506009	0.578181
C20	C	1.734464	-0.778972	0.578147
C21	C	1.734544	-0.895748	0.578176
C22	C	1.811368	-0.950608	0.501503
C23	C	1.811442	-1.060332	0.501540
C24	C	1.657856	-1.060327	0.654927
C25	C	1.657790	-0.950605	0.654895
C26	C	1.888122	-0.895751	0.424784
C27	C	1.964952	-0.950610	0.348103
C28	C	1.965025	-1.060334	0.348140
C29	C	1.888270	-1.115199	0.424858
C30	C	2.047578	-0.506019	0.578186
C31	C	2.180978	-0.506026	0.578193
C32	C	1.734628	-0.505888	0.891214
C33	C	1.734667	-0.505838	1.024615
C34	C	1.734640	-0.231971	0.578223
C35	C	1.734684	-0.115194	0.578245
C36	C	1.734513	-0.506045	0.266347
C37	C	1.734706	-0.505798	0.132948
H38	H	1.888067	-0.806408	0.424742
H39	H	2.027592	-1.104998	0.285712
H40	H	2.027451	-0.905934	0.285649
H41	H	1.595365	-1.105007	0.717386
H42	H	1.888345	-1.204543	0.424891
H43	H	1.595233	-0.905938	0.717331
