data_functionalizedCrystal
_audit_creation_method	'MofGen! by Chris Wilmer'
_symmetry_space_group_name_H-M	'P1'
_symmetry_Int_Tables_number	1
_symmetry_cell_setting	triclinic
loop_
_symmetry_equiv_pos_as_xyz
  x,y,z
_cell_length_a	12.759401
_cell_length_b	19.805405
_cell_length_c	12.759393
_cell_angle_alpha	90.036554
_cell_angle_beta	90.020938
_cell_angle_gamma	90.027935
loop_
_atom_site_label
_atom_site_type_symbol
_atom_site_fract_x
_atom_site_fract_y
_atom_site_fract_z
Zn1	Zn	1.606181	-0.269403	0.593976
Zn2	Zn	1.606036	-0.382606	0.418277
Zn3	Zn	1.430480	-0.269439	0.418311
Zn4	Zn	1.430436	-0.382558	0.593915
O5	O	1.518283	-0.326001	0.506120
O6	O	1.753183	-0.284424	0.570681
O7	O	1.582706	-0.367629	0.271261
O8	O	1.453866	-0.174718	0.441653
O9	O	1.753076	-0.367594	0.441596
O10	O	1.582953	-0.174691	0.570713
O11	O	1.453725	-0.284486	0.271285
O12	O	1.283453	-0.284440	0.441594
O13	O	1.453791	-0.367513	0.740944
O14	O	1.283420	-0.367548	0.570609
O15	O	1.582910	-0.284378	0.740989
O16	O	1.582663	-0.477316	0.441536
O17	O	1.453650	-0.477281	0.570576
C18	C	1.245316	-0.325993	0.506099
C19	C	1.128539	-0.326006	0.506115
C20	C	1.073688	-0.369346	0.573187
C21	C	0.963964	-0.369349	0.573208
C22	C	0.963952	-0.282669	0.439075
C23	C	1.073674	-0.282663	0.439060
C24	C	1.518165	-0.501858	0.506069
C25	C	1.518210	-0.577089	0.506082
C26	C	1.585453	-0.612429	0.438962
C27	C	1.585497	-0.683118	0.438985
C28	C	1.518294	-0.718465	0.506124
C29	C	1.451048	-0.683120	0.573252
C30	C	1.451010	-0.612433	0.573234
C31	C	1.451203	-0.968194	0.573330
C32	C	1.451245	-1.038886	0.573342
C33	C	1.585691	-1.038878	0.439081
C34	C	1.585652	-0.968191	0.439063
C35	C	1.518411	-0.932852	0.506194
C36	C	1.518365	-0.856204	0.506170
C37	C	1.518334	-0.795112	0.506144
C38	C	1.792316	-0.326010	0.506141
C39	C	1.909093	-0.326014	0.506150
C40	C	1.518362	-0.325936	0.780153
C41	C	1.518395	-0.325909	0.896930
C42	C	1.518430	-0.149459	0.506194
C43	C	1.518493	-0.074227	0.506225
C44	C	1.518265	-0.326017	0.233152
C45	C	1.518435	-0.325854	0.116376
C46	C	1.585633	-0.282614	0.951817
C47	C	1.585650	-0.282584	1.061541
C48	C	1.451190	-0.369151	1.061481
C49	C	1.451168	-0.369177	0.951759
H50	H	1.640173	-0.583654	0.384284
N51	N	1.378486	-0.574309	0.645623
H52	H	1.394770	-0.586563	0.720708
H53	H	1.303462	-0.586671	0.629155
N54	N	1.658179	-0.235886	1.120728
H55	H	1.706852	-0.263381	1.166251
H56	H	1.615449	-0.204511	1.166193
H57	H	1.396334	-0.711906	0.627923
N58	N	1.378668	-0.415807	1.120619
H59	H	1.388880	-0.409220	1.198457
H60	H	1.394956	-0.464156	1.101430
H61	H	1.640370	-0.247380	0.907178
N62	N	1.378623	-0.415862	0.892550
H63	H	1.336038	-0.443268	0.943932
H64	H	1.421335	-0.447201	0.847007
H65	H	0.919267	-0.247382	0.384480
N66	N	1.132866	-0.416091	0.645507
H67	H	1.081464	-0.443547	0.688001
H68	H	1.178434	-0.388576	0.694200
H69	H	1.118335	-0.247366	0.384442
N70	N	0.904801	-0.416097	0.645546
H71	H	0.956211	-0.443553	0.688017
H72	H	0.859236	-0.447386	0.602689
H73	H	1.640372	-0.939413	0.384388
N74	N	1.658022	-0.721235	0.366591
H75	H	1.700584	-0.688116	0.324050
H76	H	1.615295	-0.750613	0.317944
H77	H	1.640446	-1.067659	0.384424
N78	N	1.378755	-1.077013	0.645757
H79	H	1.336153	-1.043901	0.688283
H80	H	1.421515	-1.106296	0.694416
H81	H	1.396452	-0.939426	0.627989
