data_functionalizedCrystal
_audit_creation_method	'MofGen! by Chris Wilmer'
_symmetry_space_group_name_H-M	'P1'
_symmetry_Int_Tables_number	1
_symmetry_cell_setting	triclinic
loop_
_symmetry_equiv_pos_as_xyz
  x,y,z
_cell_length_a	19.188930
_cell_length_b	10.540539
_cell_length_c	9.616153
_cell_angle_alpha	90.004826
_cell_angle_beta	89.992615
_cell_angle_gamma	96.164863
loop_
_atom_site_label
_atom_site_type_symbol
_atom_site_fract_x
_atom_site_fract_y
_atom_site_fract_z
O1	O	0.098389	-1.683724	-0.115598
O2	O	0.107659	-1.314107	-0.115617
O3	O	0.001439	-1.509582	-0.115579
O4	O	0.204608	-1.488249	-0.115635
O5	O	0.001441	-1.509555	0.115712
O6	O	0.107661	-1.314080	0.115675
O7	O	0.098391	-1.683697	0.115694
Zn8	Zn	0.103026	-1.498885	0.152407
Zn9	Zn	0.103023	-1.498920	-0.152330
O10	O	0.204610	-1.488222	0.115657
C11	C	-0.024575	-1.508878	0.000070
C12	C	-0.102094	-1.506804	0.000082
C13	C	0.106965	-1.266806	0.000027
C14	C	0.104885	-1.125904	0.000021
C15	C	0.099085	-1.730998	0.000047
C16	C	0.101165	-1.871901	0.000044
C17	C	-0.146253	-1.621502	0.000095
C18	C	-0.219090	-1.619554	0.000072
C19	C	-0.247764	-1.502901	0.000065
C20	C	-0.203595	-1.388187	0.000045
C21	C	-0.130760	-1.390139	0.000053
N22	N	-0.356363	-1.413724	0.078774
N23	N	-0.425554	-1.411878	0.078769
C24	C	-0.467212	-1.497014	0.000037
N25	N	-0.437067	-1.584085	-0.078672
N26	N	-0.367870	-1.585935	-0.078661
C27	C	-0.326741	-1.500772	0.000055
C28	C	-0.590350	-1.609608	0.000023
C29	C	-0.663188	-1.607655	-0.000008
C30	C	-0.647691	-1.376285	-0.000021
C31	C	-0.574855	-1.378241	-0.000004
C32	C	-0.546189	-1.494906	0.000025
C33	C	0.230625	-1.488927	0.000004
C34	C	0.308143	-1.491000	-0.000017
N35	N	0.103028	-1.498870	0.360381
C36	C	0.025184	-0.944233	0.000583
C37	C	0.027292	-1.090805	0.000047
C38	C	0.142224	-1.063423	-0.132063
C39	C	0.139576	-0.916937	-0.132158
C40	C	0.141157	-0.916384	0.130863
C41	C	0.141872	-1.063350	0.132594
N42	N	0.103016	-1.498945	-0.360304
C43	C	0.159658	-1.393992	0.580731
C44	C	0.159870	-1.394216	0.419564
C45	C	0.119601	-1.631228	0.418832
C46	C	0.120002	-1.630655	0.580050
C47	C	0.029640	-1.472715	0.580311
C48	C	0.030115	-1.469658	0.419084
H49	H	-0.122918	-1.716500	0.000113
C50	C	0.231835	-1.415742	0.634887
C51	C	0.259777	-1.308642	0.710488
C52	C	0.326260	-1.328644	0.760414
H53	H	0.261791	-1.429029	0.558818
H54	H	0.228020	-1.488668	0.693567
H55	H	0.263597	-1.235737	0.651811
H56	H	0.229841	-1.295336	0.786576
H57	H	0.322444	-1.401570	0.819094
H58	H	0.356210	-1.341934	0.684337
H59	H	0.345224	-1.255986	0.811725
C60	C	0.107795	-0.875117	0.264519
C61	C	0.144650	-0.916197	0.378752
C62	C	0.113936	-0.878192	0.501889
H63	H	0.060422	-0.911837	0.268782
H64	H	0.109346	-0.784739	0.266306
H65	H	0.143092	-1.006558	0.376967
H66	H	0.192023	-0.879482	0.374536
H67	H	0.115486	-0.787814	0.503675
H68	H	0.066562	-0.914915	0.506137
H69	H	0.138941	-0.906049	0.579410
H70	H	-0.005341	-0.914709	-0.093599
H71	H	-0.255051	-1.712958	0.000077
H72	H	0.116284	-1.106595	-0.230348
C73	C	-0.559355	-1.736396	-0.000045
C74	C	-0.613622	-1.836432	-0.000096
C75	C	-0.585099	-1.953246	-0.000183
H76	H	-0.531281	-1.742148	0.080592
H77	H	-0.531276	-1.742035	-0.080731
H78	H	-0.641689	-1.830796	0.080582
H79	H	-0.641700	-1.830722	-0.080727
H80	H	-0.557020	-1.958885	-0.080869
H81	H	-0.557026	-1.958985	0.080455
H82	H	-0.621914	-2.021134	-0.000230
H83	H	0.199206	-1.084521	-0.136992
H84	H	-0.226946	-1.293208	0.000036
H85	H	-0.094804	-1.296735	0.000044
C86	C	-0.026666	-1.574568	0.631233
C87	C	-0.076839	-1.516998	0.707650
C88	C	-0.128715	-1.610785	0.754574
H89	H	-0.005963	-1.633491	0.688722
H90	H	-0.048535	-1.618303	0.553724
H91	H	-0.054972	-1.473283	0.785147
H92	H	-0.097559	-1.458083	0.650189
H93	H	-0.150584	-1.654520	0.677065
H94	H	-0.108006	-1.669703	0.812058
H95	H	-0.162767	-1.571736	0.806417
C96	C	-0.526989	-1.253610	-0.000215
C97	C	-0.540034	-1.183342	-0.119196
C98	C	-0.495961	-1.068511	-0.119433
H99	H	-0.479482	-1.271295	-0.000280
H100	H	-0.535762	-1.205682	0.080397
H101	H	-0.531257	-1.231260	-0.199787
H102	H	-0.587533	-1.165622	-0.119157
H103	H	-0.504734	-1.020583	-0.038821
H104	H	-0.448457	-1.086209	-0.119494
H105	H	-0.504811	-1.020815	-0.200153
H106	H	0.013866	-1.378326	0.621048
C107	C	0.232518	-1.416305	0.368288
C108	C	0.281535	-1.318634	0.417473
C109	C	0.348470	-1.338957	0.370285
H110	H	0.233008	-1.416484	0.269512
H111	H	0.244188	-1.496166	0.401716
H112	H	0.269869	-1.238794	0.384038
H113	H	0.281068	-1.318438	0.516243
H114	H	0.360139	-1.418817	0.403713
H115	H	0.348952	-1.339137	0.271510
H116	H	0.381737	-1.272698	0.403660
H117	H	-0.699142	-1.701060	-0.000005
H118	H	-0.002297	-1.133213	-0.094785
C119	C	-0.011946	-1.148251	0.126335
C120	C	-0.037765	-1.050996	0.203819
C121	C	-0.073926	-1.103863	0.320156
H122	H	0.018976	-1.190949	0.182354
H123	H	-0.049895	-1.207375	0.096666
H124	H	0.000179	-0.991894	0.233489
H125	H	-0.068696	-1.008290	0.147841
H126	H	-0.111875	-1.162987	0.290487
H127	H	-0.042999	-1.146560	0.376163
H128	H	-0.091454	-1.037886	0.372736
H129	H	0.111977	-0.889346	-0.230877
H130	H	-0.671037	-1.281303	-0.000034
C131	C	0.213986	-0.851392	-0.140484
C132	C	0.245697	-0.888488	-0.262928
C133	C	0.314237	-0.828126	-0.270667
H134	H	0.240049	-0.875173	-0.062505
H135	H	0.212904	-0.761492	-0.140680
H136	H	0.246782	-0.978369	-0.262719
H137	H	0.219655	-0.864707	-0.340929
H138	H	0.313155	-0.738225	-0.270864
H139	H	0.340293	-0.851910	-0.192682
H140	H	0.335758	-0.853277	-0.353750
C141	C	0.105635	-1.118764	0.263020
C142	C	0.153702	-1.177297	0.344005
C143	C	0.120348	-1.228350	0.464170
H144	H	0.067870	-1.180127	0.237666
H145	H	0.088179	-1.052314	0.314967
H146	H	0.171147	-1.243739	0.292067
H147	H	0.191468	-1.115959	0.369395
H148	H	0.102892	-1.161901	0.516118
H149	H	0.082584	-1.289708	0.438803
H150	H	0.152958	-1.268060	0.519139
C151	C	0.190215	-1.662950	0.365252
C152	C	0.234968	-1.677020	0.477893
C153	C	0.300021	-1.706251	0.428594
H154	H	0.210151	-1.595930	0.306893
H155	H	0.184049	-1.740278	0.313775
H156	H	0.241135	-1.599702	0.529346
H157	H	0.215054	-1.744043	0.536262
H158	H	0.293856	-1.783579	0.377117
H159	H	0.319951	-1.639226	0.370235
H160	H	0.330392	-1.715812	0.505012
C161	C	0.217350	-1.093712	0.143281
C162	C	0.262322	-0.979960	0.141651
C163	C	0.331858	-1.007876	0.151505
H164	H	0.227852	-1.145397	0.066763
H165	H	0.223514	-1.138112	0.227612
H166	H	0.256161	-0.935580	0.057331
H167	H	0.251842	-0.928260	0.218165
H168	H	0.338023	-1.052276	0.235836
H169	H	0.342353	-1.059563	0.074985
H170	H	0.362380	-0.930701	0.150413
H171	H	0.017553	-1.372296	0.380883
H172	H	0.173535	-1.653830	0.617625
C173	C	-0.028690	-1.565161	0.365298
C174	C	-0.000726	-1.652964	0.277707
C175	C	-0.054872	-1.740985	0.228155
H176	H	-0.061352	-1.521448	0.314884
H177	H	-0.051720	-1.609042	0.441525
H178	H	0.022294	-1.609088	0.201492
H179	H	0.031931	-1.696708	0.328090
H180	H	-0.077902	-1.784865	0.304382
H181	H	-0.087531	-1.697260	0.177747
H182	H	-0.035905	-1.800576	0.168730
H183	H	-0.005469	-0.916312	0.095309
H184	H	0.197202	-0.867922	0.131740
H185	H	0.149898	-1.295819	0.380047
H186	H	0.149839	-1.295284	0.619541
H187	H	0.080409	-1.711170	0.619052
H188	H	0.079472	-1.711167	0.380494
