data_functionalizedCrystal
_audit_creation_method	'MofGen! by Chris Wilmer'
_symmetry_space_group_name_H-M	'P1'
_symmetry_Int_Tables_number	1
_symmetry_cell_setting	triclinic
loop_
_symmetry_equiv_pos_as_xyz
  x,y,z
_cell_length_a	10.654541
_cell_length_b	10.540539
_cell_length_c	9.730217
_cell_angle_alpha	89.998866
_cell_angle_beta	89.999932
_cell_angle_gamma	84.504710
loop_
_atom_site_label
_atom_site_type_symbol
_atom_site_fract_x
_atom_site_fract_y
_atom_site_fract_z
O1	O	1.667901	0.178284	-0.114241
O2	O	1.302428	0.195274	-0.114252
O3	O	1.493503	0.002070	-0.114244
O4	O	1.476827	0.371489	-0.114248
O5	O	1.493497	0.002068	0.114336
O6	O	1.302422	0.195273	0.114328
O7	O	1.667895	0.178282	0.114339
Zn8	Zn	1.485158	0.186777	0.150626
Zn9	Zn	1.485166	0.186779	-0.150538
O10	O	1.476821	0.371487	0.114332
C11	C	1.255627	0.194027	0.000036
C12	C	1.116182	0.190296	0.000032
C13	C	1.492249	-0.045234	0.000043
C14	C	1.488508	-0.186180	0.000036
C15	C	1.088292	0.421325	0.000012
C16	C	1.008838	0.535081	-0.000003
C17	C	0.877819	0.531569	-0.000004
C18	C	0.826252	0.414286	0.000014
C19	C	0.905707	0.300530	0.000029
C20	C	1.036727	0.304055	0.000026
C21	C	0.933596	0.069504	0.000059
C22	C	1.064615	0.073014	0.000050
C23	C	0.882029	-0.047778	0.000077
C24	C	0.961484	-0.161538	0.000082
C25	C	1.092511	-0.158020	0.000082
C26	C	1.144070	-0.040742	0.000065
C27	C	1.345136	-0.369555	-0.000482
C28	C	1.348929	-0.222938	0.000033
C29	C	1.555676	-0.247864	0.130568
C30	C	1.550912	-0.394407	0.130678
C31	C	1.553758	-0.394924	-0.129260
C32	C	1.555043	-0.247942	-0.130986
C33	C	1.714697	0.179530	0.000048
C34	C	1.854142	0.183260	0.000043
C35	C	1.478074	0.418790	0.000041
C36	C	1.481816	0.559737	0.000040
N37	N	1.485162	0.186775	0.356162
N38	N	1.485172	0.186772	-0.356075
C39	C	1.654428	0.015742	0.356160
C40	C	1.739070	-0.069770	0.428098
C41	C	1.739082	-0.069771	0.571978
C42	C	1.654442	0.015747	0.643922
C43	C	1.569800	0.101260	0.571984
C44	C	1.569799	0.101254	0.428101
C45	C	1.400530	0.272284	0.571986
C46	C	1.400521	0.272293	0.428107
C47	C	1.315890	0.357803	0.643931
C48	C	1.231252	0.443324	0.571992
C49	C	1.231244	0.443322	0.428104
C50	C	1.315880	0.357806	0.356168
H51	H	1.194974	0.424197	-0.000017
H52	H	1.290002	-0.398134	-0.094089
H53	H	1.807981	-0.139402	0.369508
N54	N	1.278440	-0.167584	0.124183
H55	H	1.188002	-0.188620	0.120167
H56	H	1.319579	-0.205071	0.210473
H57	H	1.250751	-0.037867	0.000049
H58	H	1.050838	0.630571	-0.000014
H59	H	0.813126	0.624199	-0.000007
H60	H	1.509012	-0.205248	0.227703
N61	N	1.654457	0.015746	0.799106
H62	H	1.588000	0.082897	0.833766
H63	H	1.635466	-0.070726	0.833656
H64	H	0.775346	-0.050630	0.000083
H65	H	1.808000	-0.139407	0.630551
H66	H	0.719568	0.411436	0.000029
H67	H	1.157196	-0.250655	0.000100
N68	N	1.139945	0.535560	0.350529
H69	H	1.188422	0.592230	0.290829
H70	H	1.083929	0.486431	0.290918
N71	N	1.315894	0.357804	0.799114
H72	H	1.382359	0.290661	0.833774
H73	H	1.334881	0.444280	0.833650
N74	N	0.905853	-0.288014	0.000102
H75	H	0.934739	-0.337913	-0.084629
H76	H	0.934766	-0.337798	0.084896
N77	N	1.490032	-0.193680	-0.258895
H78	H	1.552172	-0.150614	-0.316863
H79	H	1.456576	-0.264761	-0.313320
N80	N	1.493924	-0.436689	-0.260314
H81	H	1.541545	-0.406600	-0.341969
H82	H	1.496834	-0.532729	-0.262015
N83	N	1.691449	-0.218294	0.136983
H84	H	1.705918	-0.170128	0.224404
H85	H	1.748562	-0.300484	0.135634
H86	H	1.656807	-0.223758	-0.138865
H87	H	1.654575	-0.442187	-0.130135
N88	N	1.654411	0.015762	0.200976
H89	H	1.739896	0.035047	0.166312
H90	H	1.635329	-0.070678	0.166423
N91	N	1.139961	0.535543	0.649585
H92	H	1.152806	0.522559	0.751647
H93	H	1.155260	0.625742	0.624443
H94	H	1.296077	-0.180314	-0.093538
N95	N	1.315852	0.357800	0.200985
H96	H	1.334873	0.444224	0.166311
H97	H	1.382299	0.290593	0.166433
N98	N	1.272395	-0.409529	0.122816
H99	H	1.245694	-0.332347	0.181101
H100	H	1.195220	-0.449805	0.090841
H101	H	1.651295	-0.442412	0.136603
N102	N	1.485154	-0.431751	0.259919
H103	H	1.459526	-0.353051	0.316282
H104	H	1.407691	-0.474808	0.234513
