data_functionalizedCrystal
_audit_creation_method	'MofGen! by Chris Wilmer'
_symmetry_space_group_name_H-M	'P1'
_symmetry_Int_Tables_number	1
_symmetry_cell_setting	triclinic
loop_
_symmetry_equiv_pos_as_xyz
  x,y,z
_cell_length_a	25.639242
_cell_length_b	25.639239
_cell_length_c	25.639233
_cell_angle_alpha	89.981253
_cell_angle_beta	90.022166
_cell_angle_gamma	89.965787
loop_
_atom_site_label
_atom_site_type_symbol
_atom_site_fract_x
_atom_site_fract_y
_atom_site_fract_z
Zn1	Zn	0.799225	0.208277	0.295742
Zn2	Zn	0.799149	0.295696	0.208307
Zn3	Zn	0.711801	0.208269	0.208306
Zn4	Zn	0.711746	0.295676	0.295696
O5	O	0.755480	0.251979	0.252013
O6	O	0.872380	0.219884	0.284163
O7	O	0.787553	0.284103	0.135141
O8	O	0.723453	0.135105	0.219924
O9	O	0.872324	0.284111	0.219924
O10	O	0.787683	0.135111	0.284163
O11	O	0.723379	0.219871	0.135141
O12	O	0.638629	0.219853	0.219880
O13	O	0.723360	0.284078	0.368868
O14	O	0.638589	0.284070	0.284085
O15	O	0.787630	0.219866	0.368901
O16	O	0.787499	0.368858	0.219880
O17	O	0.723286	0.368844	0.284085
C18	C	0.619638	0.251959	0.251977
C19	C	0.561524	0.251963	0.251975
C20	C	0.755392	0.387822	0.251989
C21	C	0.755403	0.445936	0.251996
C22	C	0.201149	0.285473	0.285413
C23	C	0.146544	0.285477	0.285421
O24	O	0.118297	0.313943	0.313821
N25	N	0.119241	0.251994	0.252047
C26	C	0.146545	0.218502	0.218666
O27	O	0.118308	0.190022	0.190280
C28	C	0.201149	0.218496	0.218661
C29	C	0.228449	0.251985	0.252034
C30	C	0.228449	0.318959	0.318783
C31	C	0.283049	0.318956	0.318774
C32	C	0.310350	0.285468	0.285395
C33	C	0.283049	0.251983	0.252024
C34	C	0.228452	0.185002	0.185283
C35	C	0.283059	0.185000	0.185281
C36	C	0.310359	0.218488	0.218654
C37	C	0.364950	0.218492	0.218636
N38	N	0.392253	0.251974	0.252010
C39	C	0.364953	0.285463	0.285389
C40	C	0.031875	0.218515	0.218680
C41	C	-0.022728	0.218523	0.218683
C42	C	-0.022725	0.285497	0.285438
C43	C	0.031878	0.285492	0.285433
C44	C	0.059178	0.251998	0.252054
C45	C	0.479618	0.285455	0.285368
C46	C	0.534223	0.285451	0.285354
C47	C	0.534216	0.218475	0.218601
C48	C	0.479615	0.218481	0.218612
C49	C	0.452318	0.251972	0.252000
O50	O	0.393232	0.190038	0.190252
O51	O	0.393197	0.313933	0.313776
C52	C	0.755497	0.251970	0.388386
C53	C	0.755504	0.251966	0.446500
C54	C	0.891853	0.252000	0.252049
C55	C	0.949967	0.252009	0.252064
C56	C	0.755583	0.115606	0.252048
C57	C	0.755627	0.057492	0.252064
C58	C	0.789004	0.806294	0.218638
C59	C	0.789024	0.860898	0.218645
O60	O	0.817502	0.889131	0.190257
N61	N	0.755572	0.888218	0.252048
C62	C	0.722102	0.860932	0.285449
O63	O	0.693651	0.889184	0.313861
C64	C	0.722085	0.806328	0.285444
C65	C	0.755535	0.779011	0.252036
C66	C	0.822452	0.778976	0.185233
C67	C	0.822431	0.724376	0.185226
C68	C	0.788962	0.697093	0.218623
C69	C	0.755514	0.724410	0.252028
C70	C	0.688617	0.779042	0.318847
C71	C	0.688603	0.724435	0.318840
C72	C	0.722053	0.697118	0.285432
C73	C	0.722024	0.642527	0.285418
N74	N	0.755475	0.615206	0.252016
C75	C	0.788944	0.642490	0.218618
C76	C	0.722141	0.975602	0.285457
C77	C	0.722155	1.030204	0.285459
C78	C	0.789078	1.030167	0.218656
C79	C	0.789061	0.975564	0.218652
C80	C	0.755593	0.948282	0.252055
C81	C	0.788897	0.527824	0.218605
C82	C	0.788872	0.473219	0.218599
C83	C	0.721951	0.473261	0.285403
C84	C	0.721974	0.527862	0.285408
C85	C	0.755452	0.555142	0.252007
O86	O	0.693562	0.614260	0.313793
O87	O	0.817396	0.614231	0.190216
C88	C	0.755494	0.251951	0.116170
C89	C	0.755588	0.251807	0.058057
C90	C	0.789012	0.218432	0.806886
C91	C	0.789019	0.218417	0.861491
O92	O	0.817466	0.189967	0.889747
N93	N	0.755562	0.251844	0.888783
C94	C	0.722093	0.285283	0.861468
O95	O	0.693636	0.313713	0.889695
C96	C	0.722084	0.285294	0.806864
C97	C	0.755547	0.251870	0.779575
C98	C	0.822472	0.185009	0.779597
C99	C	0.822466	0.185025	0.724997
C100	C	0.789000	0.218462	0.697685
C101	C	0.755541	0.251885	0.724974
C102	C	0.688613	0.318731	0.779550
C103	C	0.688607	0.318739	0.724943
C104	C	0.722069	0.285314	0.697654
C105	C	0.722070	0.285338	0.643063
N106	N	0.755526	0.251912	0.615771
C107	C	0.788992	0.218474	0.643082
C108	C	0.722113	0.285256	0.976138
C109	C	0.722124	0.285247	1.030741
C110	C	0.789049	0.218381	1.030760
C111	C	0.789041	0.218392	0.976157
C112	C	0.755570	0.251829	0.948846
C113	C	0.788977	0.218509	0.528417
C114	C	0.788970	0.218529	0.473811
C115	C	0.722043	0.285393	0.473797
C116	C	0.722052	0.285375	0.528397
C117	C	0.755521	0.251929	0.555706
O118	O	0.693635	0.313773	0.614771
O119	O	0.817439	0.190044	0.614847
H120	H	0.457399	0.312726	0.312556
O121	O	0.202022	0.152419	0.152851
C122	C	0.207806	0.086001	0.086628
C123	C	0.237801	0.122870	0.123341
H124	H	0.236721	0.062109	0.062751
H125	H	0.182286	0.058664	0.110661
H126	H	0.182200	0.109966	0.059265
H127	H	0.263436	0.098948	0.150711
H128	H	0.263289	0.150209	0.099274
O129	O	0.689603	1.056761	0.317834
C130	C	0.619049	1.118494	0.324809
C131	C	0.655871	1.088445	0.288081
H132	H	0.591774	1.144125	0.300769
H133	H	0.595087	1.089633	0.348667
H134	H	0.643054	1.143998	0.352189
H135	H	0.631906	1.062940	0.260669
H136	H	0.679834	1.117334	0.264260
O137	O	0.689490	0.446672	0.317828
C138	C	0.659793	0.362562	0.347400
C139	C	0.696585	0.392610	0.310657
H140	H	0.665508	0.318848	0.341607
H141	H	0.668953	0.373229	0.389581
H142	H	0.617647	0.373369	0.338186
H143	H	0.738743	0.381819	0.319825
H144	H	0.687380	0.381940	0.268487
O145	O	0.821493	0.186007	0.447384
C146	C	0.887896	0.119706	0.453176
C147	C	0.851084	0.156500	0.483167
H148	H	0.911838	0.095847	0.482094
H149	H	0.863935	0.092335	0.427622
H150	H	0.915193	0.143729	0.427605
H151	H	0.823780	0.132519	0.508767
H152	H	0.875077	0.183873	0.508689
H153	H	0.054099	0.191241	0.191496
O154	O	0.854879	0.697763	0.152793
C155	C	0.884546	0.613636	0.123193
C156	C	0.847760	0.643705	0.159941
H157	H	0.878811	0.569925	0.128966
H158	H	0.875398	0.624363	0.081014
H159	H	0.926695	0.624365	0.132419
H160	H	0.805599	0.632992	0.150762
H161	H	0.856953	0.632976	0.202109
O162	O	0.821415	0.185965	0.554962
C163	C	0.828525	0.115374	0.616632
C164	C	0.791727	0.152185	0.586593
H165	H	0.804537	0.088061	0.642220
H166	H	0.852426	0.091454	0.587764
H167	H	0.855861	0.139386	0.642177
H168	H	0.764359	0.128213	0.561047
H169	H	0.767862	0.176106	0.615489
O170	O	0.855007	0.152598	0.806181
C171	C	0.925642	0.145558	0.867813
C172	C	0.888815	0.182322	0.837752
H173	H	0.952992	0.169576	0.893337
H174	H	0.901695	0.118214	0.893409
H175	H	0.949527	0.121662	0.838912
H176	H	0.864923	0.206252	0.866615
H177	H	0.912792	0.209631	0.812148
O178	O	0.689522	0.317772	0.554965
C179	C	0.618900	0.324768	0.616557
C180	C	0.655723	0.288025	0.586518
H181	H	0.591558	0.300732	0.642066
H182	H	0.642851	0.352097	0.642166
H183	H	0.595007	0.348680	0.587642
H184	H	0.679624	0.264079	0.615395
H185	H	0.631742	0.260731	0.560901
H186	H	0.849709	0.801185	0.158037
H187	H	0.816333	1.052391	0.191464
O188	O	0.821605	0.949111	0.186185
C189	C	0.887959	0.954852	0.119901
C190	C	0.851136	0.984871	0.156653
H191	H	0.911837	0.983751	0.096007
H192	H	0.915312	0.929269	0.143904
H193	H	0.863959	0.929307	0.092556
H194	H	0.875095	1.010445	0.184005
H195	H	0.823782	1.010422	0.132617
H196	H	0.849714	0.157806	0.702783
O197	O	0.453064	0.186024	0.186145
C198	C	0.391339	0.178863	0.115617
C199	C	0.421382	0.215688	0.152335
H200	H	0.365708	0.202831	0.088280
H201	H	0.420203	0.154932	0.091719
H202	H	0.365835	0.151555	0.139701
H203	H	0.446887	0.243027	0.128292
H204	H	0.392489	0.239582	0.176235
H205	H	0.305283	0.157721	0.158103
O206	O	0.821560	0.185872	0.949731
C207	C	0.887964	0.119572	0.955528
C208	C	0.851154	0.156369	0.985516
H209	H	0.911908	0.095718	0.984448
H210	H	0.864003	0.092197	0.929979
H211	H	0.915259	0.143592	0.929952
H212	H	0.823851	0.132392	1.011121
H213	H	0.875148	0.183746	1.011033
H214	H	0.661376	0.801275	0.346049
H215	H	0.816298	0.191153	1.053007
O216	O	0.689527	0.317930	0.447342
C217	C	0.623137	0.384242	0.453070
C218	C	0.659940	0.347426	0.483096
H219	H	0.599199	0.408091	0.481964
H220	H	0.647104	0.411621	0.427530
H221	H	0.595836	0.360237	0.427480
H222	H	0.687249	0.371389	0.508714
H223	H	0.635942	0.320046	0.508603
O224	O	0.309484	0.351500	0.351245
C225	C	0.303703	0.417948	0.417439
C226	C	0.273706	0.381109	0.380697
H227	H	0.274790	0.441904	0.441252
H228	H	0.329277	0.394008	0.444855
H229	H	0.329256	0.445230	0.393379
H230	H	0.248125	0.353819	0.404714
H231	H	0.248165	0.405082	0.353279
H232	H	-0.044951	0.191258	0.191502
H233	H	0.556454	0.191211	0.191422
O234	O	0.656117	0.697991	0.351361
C235	C	0.630700	0.681247	0.440273
C236	C	0.667513	0.711237	0.403503
H237	H	0.639907	0.691937	0.482438
H238	H	0.588542	0.692038	0.431095
H239	H	0.636421	0.637531	0.434505
H240	H	0.661838	0.754960	0.409250
H241	H	0.709658	0.700402	0.412691
O242	O	0.689574	0.949183	0.317919
C243	C	0.623219	0.954994	0.384199
C244	C	0.660064	0.984974	0.347453
H245	H	0.599358	0.983918	0.408095
H246	H	0.595851	0.929481	0.360189
H247	H	0.647201	0.929383	0.411542
H248	H	0.636124	1.010614	0.320103
H249	H	0.687433	1.010455	0.371495
H250	H	0.816111	0.450979	0.191392
O251	O	0.689463	0.554320	0.317907
C252	C	0.623066	0.548587	0.384148
C253	C	0.659861	0.518564	0.347372
H254	H	0.599115	0.519691	0.407972
H255	H	0.647039	0.574096	0.411552
H256	H	0.595776	0.574208	0.360114
H257	H	0.687158	0.492915	0.371364
H258	H	0.635855	0.493088	0.319966
H259	H	0.206227	0.346229	0.345967
O260	O	0.689573	0.317737	1.057165
C261	C	0.623215	0.384083	1.051368
C262	C	0.660047	0.347308	1.021380
H263	H	0.599341	0.408008	1.022448
H264	H	0.595859	0.360095	1.076911
H265	H	0.647208	0.411398	1.076951
H266	H	0.636096	0.319985	0.995769
H267	H	0.687404	0.371328	0.995870
O268	O	0.689676	0.317771	0.949552
C269	C	0.682584	0.388402	0.887927
C270	C	0.719376	0.351605	0.917990
H271	H	0.706582	0.415773	0.862410
H272	H	0.655264	0.364433	0.862323
H273	H	0.658665	0.412265	0.916826
H274	H	0.743330	0.327734	0.889129
H275	H	0.746662	0.375604	0.943602
O276	O	0.656054	0.351214	0.805969
C277	C	0.589685	0.417547	0.800163
C278	C	0.626526	0.380777	0.770180
H279	H	0.565809	0.441466	0.771241
H280	H	0.562331	0.393556	0.825705
H281	H	0.613671	0.444868	0.825747
H282	H	0.602581	0.353449	0.744568
H283	H	0.653880	0.404801	0.744671
O284	O	0.656168	0.351248	0.698354
C285	C	0.649079	0.421875	0.636724
C286	C	0.685870	0.385083	0.666794
H287	H	0.673078	0.449247	0.611208
H288	H	0.621764	0.397902	0.611117
H289	H	0.625154	0.445738	0.665618
H290	H	0.709829	0.361212	0.637937
H291	H	0.713150	0.409086	0.692408
H292	H	0.054103	0.312760	0.312609
O293	O	-0.049273	0.317951	0.317923
C294	C	-0.110918	0.325083	0.388484
C295	C	-0.080875	0.288273	0.351739
H296	H	-0.136484	0.301104	0.415825
H297	H	-0.082053	0.349008	0.412377
H298	H	-0.136487	0.352397	0.364422
H299	H	-0.055306	0.260927	0.375760
H300	H	-0.109768	0.264385	0.327844
H301	H	0.556449	0.312723	0.312530
H302	H	0.816159	0.550030	0.191408
