data_functionalizedCrystal
_audit_creation_method	'MofGen! by Chris Wilmer'
_symmetry_space_group_name_H-M	'P1'
_symmetry_Int_Tables_number	1
_symmetry_cell_setting	triclinic
loop_
_symmetry_equiv_pos_as_xyz
  x,y,z
_cell_length_a	10.489741
_cell_length_b	16.098524
_cell_length_c	17.019294
_cell_angle_alpha	83.057853
_cell_angle_beta	96.034439
_cell_angle_gamma	93.036829
loop_
_atom_site_label
_atom_site_type_symbol
_atom_site_fract_x
_atom_site_fract_y
_atom_site_fract_z
O1	O	1.697885	0.077440	-0.114845
O2	O	2.197885	0.577440	0.385155
O3	O	1.326571	0.078204	-0.125327
O4	O	1.826571	0.578204	0.374673
O5	O	1.521981	0.069560	-0.004933
O6	O	2.021981	0.569560	0.495067
O7	O	1.502475	0.086085	-0.235239
O8	O	2.002475	0.586085	0.264761
O9	O	1.511759	-0.069411	0.001447
O10	O	2.011759	0.430589	0.501447
O11	O	1.316349	-0.060766	-0.118947
O12	O	1.816349	0.439234	0.381053
O13	O	1.687663	-0.061531	-0.108466
O14	O	2.187663	0.438469	0.391534
Zn15	Zn	1.500383	-0.083213	-0.112694
Zn16	Zn	2.000383	0.416787	0.387306
Zn17	Zn	1.513851	0.099887	-0.121099
Zn18	Zn	2.013851	0.599887	0.378901
O19	O	1.492253	-0.052886	-0.228860
O20	O	1.992253	0.447114	0.271140
C21	C	1.273938	0.008664	-0.121345
C22	C	1.773938	0.508664	0.378655
C23	C	1.132335	0.008499	-0.118977
C24	C	1.632335	0.508499	0.381023
C25	C	1.065064	0.002995	-0.042374
C26	C	1.565064	0.502995	0.457626
C27	C	0.977566	0.074109	-0.081706
C28	C	1.477566	0.574109	0.418294
C29	C	0.967522	-0.062904	-0.075435
C30	C	1.467522	0.437096	0.424565
C31	C	1.046707	0.079672	-0.158343
C32	C	1.546707	0.579672	0.341657
C33	C	1.036668	-0.057403	-0.152058
C34	C	1.536668	0.442597	0.347942
C35	C	0.949198	0.013732	-0.191447
C36	C	1.449198	0.513732	0.308553
N37	N	1.491201	-0.208174	-0.106957
N38	N	1.991201	0.291826	0.393043
C39	C	1.565511	-0.248424	-0.153422
C40	C	2.065511	0.251576	0.346578
C41	C	1.559105	-0.335902	-0.149403
C42	C	2.059105	0.164098	0.350597
C43	C	1.478382	-0.383127	-0.098924
C44	C	1.978382	0.116873	0.401076
C45	C	1.404070	-0.342871	-0.052454
C46	C	1.904070	0.157129	0.447546
C47	C	1.410483	-0.255396	-0.056468
C48	C	1.910483	0.244604	0.443532
C49	C	1.455145	-0.647421	-0.084374
C50	C	1.955145	-0.147421	0.415626
C51	C	1.448734	-0.734903	-0.080365
C52	C	1.948734	-0.234903	0.419635
C53	C	1.603771	-0.727927	-0.177313
C54	C	2.103771	-0.227927	0.322687
C55	C	1.610172	-0.640450	-0.181327
C56	C	2.110172	-0.140450	0.318673
C57	C	1.535865	-0.600202	-0.134854
C58	C	2.035865	-0.100202	0.365146
C59	C	1.471829	-0.472543	-0.094817
C60	C	1.971829	0.027457	0.405183
C61	C	1.542426	-0.510788	-0.138957
C62	C	2.042426	-0.010788	0.361043
C63	C	1.740297	0.008011	-0.112447
C64	C	2.240297	0.508011	0.387553
C65	C	1.881899	0.008182	-0.114815
C66	C	2.381899	0.508182	0.385185
C67	C	1.515929	-0.002040	0.027747
C68	C	2.015929	0.497960	0.527747
C69	C	1.513110	-0.008340	0.115620
C70	C	2.013110	0.491660	0.615620
N71	N	1.523043	0.224847	-0.126829
N72	N	2.023043	0.724847	0.373171
C73	C	1.498305	0.018715	-0.261540
C74	C	1.998305	0.518715	0.238460
C75	C	1.501125	0.025020	-0.349413
C76	C	2.001125	0.525020	0.150587
C77	C	1.517360	0.064453	0.153421
C78	C	2.017360	0.564453	0.653421
C79	C	1.514702	0.058532	0.235987
C80	C	2.014702	0.558532	0.735987
C81	C	1.507803	-0.020184	0.280750
C82	C	2.007803	0.479816	0.780750
C83	C	1.503549	-0.092982	0.242944
C84	C	2.003549	0.407018	0.742944
C85	C	1.506198	-0.087059	0.160379
C86	C	2.006198	0.412941	0.660379
C87	C	1.499519	-0.041855	0.530216
C88	C	1.999519	0.458145	1.030216
C89	C	1.496875	-0.047773	0.612786
C90	C	1.996875	0.452227	1.112786
C91	C	1.508026	0.103742	0.605823
C92	C	2.008026	0.603742	1.105823
C93	C	1.510681	0.109657	0.523258
C94	C	2.010681	0.609657	1.023258
C95	C	1.506420	0.036859	0.485458
C96	C	2.006420	0.536859	0.985458
C97	C	1.505091	-0.026238	0.365146
C98	C	2.005091	0.473762	0.865146
C99	C	1.509124	0.042915	0.401063
C100	C	2.009124	0.542915	0.901063
H101	H	0.932652	-0.123157	-0.040349
H102	H	1.432652	0.376843	0.459651
Br103	Br	1.309649	-0.200770	0.006605
Br104	Br	1.809649	0.299230	0.506605
Br105	Br	1.104575	0.180204	-0.216763
Br106	Br	1.604575	0.680204	0.283237
Br107	Br	1.518490	0.149739	0.340312
Br108	Br	2.018490	0.649739	0.840312
Br109	Br	1.493710	-0.140654	0.478924
Br110	Br	1.993710	0.359346	0.978924
Br111	Br	1.080704	-0.150086	-0.201607
Br112	Br	1.580704	0.349914	0.298393
Br113	Br	1.651983	-0.446696	-0.207458
Br114	Br	2.151983	0.053304	0.292542
Br115	Br	1.339172	-0.798994	-0.011853
Br116	Br	1.839172	-0.298994	0.488147
Br117	Br	1.513809	0.202534	0.657127
Br118	Br	2.013809	0.702534	1.157127
H119	H	1.499478	-0.090329	0.401602
H120	H	1.999478	0.409671	0.901602
H121	H	1.675909	-0.602005	-0.222430
H122	H	2.175909	-0.102005	0.277570
Br123	Br	1.354246	-0.592807	-0.021335
Br124	Br	1.854246	-0.092807	0.478665
Br125	Br	0.865627	0.021328	-0.296517
Br126	Br	1.365627	0.521328	0.203483
H127	H	1.502719	-0.146335	0.129601
H128	H	2.002719	0.353665	0.629601
H129	H	1.406103	-0.511003	-0.053717
H130	H	1.906103	-0.011003	0.446283
Br131	Br	1.675064	-0.184341	-0.221936
Br132	Br	2.175064	0.315659	0.278064
H133	H	1.115475	-0.001438	0.020594
H134	H	1.615475	0.498562	0.520594
Br135	Br	0.933593	0.166788	-0.032121
Br136	Br	1.433593	0.666788	0.467879
H137	H	1.522984	0.128552	0.116981
H138	H	2.022984	0.628552	0.616981
H139	H	1.619618	-0.368669	-0.187239
H140	H	2.119618	0.131331	0.312761
Br141	Br	1.487525	-0.154608	0.673538
Br142	Br	1.987525	0.345392	1.173538
H143	H	1.497924	-0.157074	0.279396
H144	H	1.997924	0.342926	0.779396
Br145	Br	1.704610	-0.782554	-0.240381
Br146	Br	2.204610	-0.282554	0.259619
Br147	Br	1.294521	-0.406962	0.016058
Br148	Br	1.794521	0.093038	0.516058
H149	H	1.518168	0.117808	0.266761
H150	H	2.018168	0.617808	0.766761
H151	H	1.516301	0.173756	0.486817
H152	H	2.016301	0.673756	0.986817
