data_functionalizedCrystal
_audit_creation_method	'MofGen! by Chris Wilmer'
_symmetry_space_group_name_H-M	'P1'
_symmetry_Int_Tables_number	1
_symmetry_cell_setting	triclinic
loop_
_symmetry_equiv_pos_as_xyz
  x,y,z
_cell_length_a	14.853569
_cell_length_b	13.330367
_cell_length_c	14.853567
_cell_angle_alpha	90.000844
_cell_angle_beta	83.635376
_cell_angle_gamma	90.005194
loop_
_atom_site_label
_atom_site_type_symbol
_atom_site_fract_x
_atom_site_fract_y
_atom_site_fract_z
O1	O	-1.196368	-0.083360	-0.117713
O2	O	-0.696368	0.416640	0.382287
O3	O	-0.933908	-0.083373	-0.131732
O4	O	-0.433908	0.416627	0.368268
O5	O	-1.072149	-0.083369	0.006507
O6	O	-0.572149	0.416631	0.506507
O7	O	-1.058127	-0.083364	-0.255952
O8	O	-0.558127	0.416636	0.244048
O9	O	-1.072129	0.083478	0.006510
O10	O	-0.572129	0.583478	0.506510
O11	O	-0.933888	0.083474	-0.131729
O12	O	-0.433888	0.583474	0.368271
O13	O	-1.196348	0.083487	-0.117710
O14	O	-0.696348	0.583487	0.382290
Cu15	Cu	-1.065116	0.098715	-0.124719
Cu16	Cu	-0.565116	0.598715	0.375281
Cu17	Cu	-1.065140	-0.098601	-0.124723
Cu18	Cu	-0.565140	0.401399	0.375277
O19	O	-1.058107	0.083483	-0.255949
O20	O	-0.558107	0.583483	0.244051
C21	C	-0.900310	0.000049	-0.131095
C22	C	-0.400310	0.500049	0.368905
C23	C	-0.800226	0.000043	-0.129191
C24	C	-0.300226	0.500043	0.370809
N25	N	-1.065106	0.237497	-0.124716
N26	N	-0.565106	0.737497	0.375284
C27	C	-1.071503	0.000051	0.040097
C28	C	-0.571503	0.500051	0.540097
C29	C	-1.069599	0.000043	0.140181
C30	C	-0.569599	0.500043	0.640181
C31	C	-0.763850	0.000038	-0.046180
C32	C	-0.263850	0.500038	0.453820
C33	C	-0.742560	0.000052	-0.210412
C34	C	-0.242560	0.500052	0.289588
C35	C	-0.648526	0.000053	-0.208626
C36	C	-0.148526	0.500053	0.291374
C37	C	-0.612149	0.000047	-0.125615
C38	C	-0.112149	0.500047	0.374385
C39	C	-0.669807	0.000041	-0.044390
C40	C	-0.169807	0.500041	0.455610
C41	C	-0.590861	0.000069	-0.289848
C42	C	-0.090861	0.500069	0.210152
C43	C	-0.496821	0.000071	-0.288065
C44	C	0.003179	0.500071	0.211935
C45	C	-0.460443	0.000058	-0.205053
C46	C	0.039557	0.500058	0.294947
C47	C	-0.518107	0.000051	-0.123825
C48	C	-0.018107	0.500051	0.376175
C49	C	-0.481730	0.000045	-0.040814
C50	C	0.018270	0.500045	0.459186
C51	C	-0.539393	0.000031	0.040414
C52	C	-0.039393	0.500031	0.540414
C53	C	-0.633429	0.000029	0.038622
C54	C	-0.133429	0.500029	0.538622
C55	C	-0.366407	0.000060	-0.203260
C56	C	0.133593	0.500060	0.296740
C57	C	-0.387688	0.000049	-0.039025
C58	C	0.112312	0.500049	0.460975
C59	C	-0.229946	0.000061	-0.118346
C60	C	0.270054	0.500061	0.381654
C61	C	-0.330030	0.000055	-0.120249
C62	C	0.169970	0.500055	0.379751
N63	N	-1.065157	-0.237382	-0.124719
N64	N	-0.565157	0.262618	0.375281
C65	C	-1.003924	0.710118	-0.185911
C66	C	-0.503924	1.210118	0.314089
C67	C	-1.126380	0.710089	-0.063528
C68	C	-0.626380	1.210089	0.436472
C69	C	-1.126369	0.605071	-0.063525
C70	C	-0.626369	1.105071	0.436475
C71	C	-1.065137	0.552571	-0.124717
C72	C	-0.565137	1.052571	0.375283
C73	C	-1.003914	0.605090	-0.185912
C74	C	-0.503914	1.105090	0.314088
C75	C	-1.187597	0.552544	-0.002337
C76	C	-0.687597	1.052544	0.497663
C77	C	-1.187590	0.447520	-0.002332
C78	C	-0.687590	0.947520	0.497668
C79	C	-1.126352	0.395018	-0.063521
C80	C	-0.626352	0.895018	0.436479
C81	C	-1.065126	0.447543	-0.124718
C82	C	-0.565126	0.947543	0.375282
C83	C	-1.003894	0.395043	-0.185910
C84	C	-0.503894	0.895043	0.314090
C85	C	-0.942663	0.447567	-0.247104
C86	C	-0.442663	0.947567	0.252896
C87	C	-0.942676	0.552588	-0.247101
C88	C	-0.442676	1.052588	0.252899
C89	C	-1.126339	0.289996	-0.063524
C90	C	-0.626339	0.789996	0.436476
C91	C	-1.003883	0.290015	-0.185911
C92	C	-0.503883	0.790015	0.314089
C93	C	-1.058753	0.000061	-0.289539
C94	C	-0.558753	0.500061	0.210461
C95	C	-1.060656	0.000063	-0.389623
C96	C	-0.560656	0.500063	0.110377
C97	C	-0.979434	0.000057	0.552716
C98	C	-0.479434	0.500057	1.052716
C99	C	-1.143667	0.000065	0.573995
C100	C	-0.643667	0.500065	1.073995
C101	C	-1.145457	0.000060	0.479962
C102	C	-0.645457	0.500060	0.979962
C103	C	-1.064234	0.000054	0.422300
C104	C	-0.564234	0.500054	0.922300
C105	C	-0.981222	0.000055	0.458673
C106	C	-0.481222	0.500055	0.958673
C107	C	-1.228468	0.000069	0.443582
C108	C	-0.728468	0.500069	0.943582
C109	C	-1.230261	0.000065	0.349543
C110	C	-0.730261	0.500065	0.849543
C111	C	-1.149038	0.000052	0.291880
C112	C	-0.649038	0.500052	0.791880
C113	C	-1.066022	0.000051	0.328258
C114	C	-0.566022	0.500051	0.828258
C115	C	-0.984799	0.000046	0.270596
C116	C	-0.484799	0.500046	0.770596
C117	C	-0.901782	0.000038	0.306972
C118	C	-0.401782	0.500038	0.806972
C119	C	-0.899998	0.000042	0.401010
C120	C	-0.399998	0.500042	0.901010
C121	C	-1.150822	0.000048	0.197842
C122	C	-0.650822	0.500048	0.697842
C123	C	-0.986587	0.000043	0.176554
C124	C	-0.486587	0.500043	0.676554
H125	H	-0.358078	0.000039	0.028573
H126	H	0.141922	0.500039	0.528573
Cl127	Cl	-0.705922	0.000022	0.140727
Cl128	Cl	-0.205922	0.500022	0.640727
H129	H	-0.911843	0.000047	0.582337
H130	H	-0.411843	0.500047	1.082337
H131	H	-1.237446	0.404762	0.047495
H132	H	-0.737446	0.904762	0.547495
Cl133	Cl	-0.865710	0.618619	-0.324026
Cl134	Cl	-0.365710	1.118619	0.175974
H135	H	-0.509762	0.000020	0.108002
H136	H	-0.009762	0.500020	0.608002
Cl137	Cl	-0.926896	0.224024	-0.262839
Cl138	Cl	-0.426896	0.724024	0.237161
Cl139	Cl	-0.884472	0.000028	0.104072
Cl140	Cl	-0.384472	0.500028	0.604072
H141	H	-0.772184	0.000064	-0.277996
H142	H	-0.272184	0.500064	0.222004
Cl143	Cl	-0.799679	0.000040	0.234474
Cl144	Cl	-0.299679	0.500040	0.734474
Cl145	Cl	-0.636596	0.000072	-0.394197
Cl146	Cl	-0.136596	0.500072	0.105803
Cl147	Cl	-1.245769	0.000089	0.646484
Cl148	Cl	-0.745769	0.500089	1.146484
H149	H	-1.294595	0.000083	0.490536
H150	H	-0.794595	0.500083	0.990536
Cl151	Cl	-0.795644	0.000029	0.446746
Cl152	Cl	-0.295644	0.500029	0.946746
H153	H	-0.892810	0.404809	-0.296931
H154	H	-0.392810	0.904809	0.203069
H155	H	-0.449880	0.000080	-0.354206
H156	H	0.050120	0.500080	0.145794
Cl157	Cl	-1.203361	0.776086	0.013391
Cl158	Cl	-0.703361	1.276086	0.513391
H159	H	-1.297858	0.000070	0.319934
H160	H	-0.797858	0.500070	0.819934
Cl161	Cl	-0.926948	0.776141	-0.262833
Cl162	Cl	-0.426948	1.276141	0.237167
H163	H	-0.810802	0.000022	0.019955
H164	H	-0.310802	0.500022	0.519955
Cl165	Cl	-1.264578	0.618541	0.074582
Cl166	Cl	-0.764578	1.118541	0.574582
Cl167	Cl	-1.203314	0.223974	0.013394
Cl168	Cl	-0.703314	0.723974	0.513394
H169	H	-1.218413	0.000061	0.168229
H170	H	-0.718413	0.500061	0.668229
H171	H	-0.319462	0.000080	-0.269395
H172	H	0.180538	0.500080	0.230605
