data_functionalizedCrystal
_audit_creation_method	'MofGen! by Chris Wilmer'
_symmetry_space_group_name_H-M	'P1'
_symmetry_Int_Tables_number	1
_symmetry_cell_setting	triclinic
loop_
_symmetry_equiv_pos_as_xyz
  x,y,z
_cell_length_a	12.827892
_cell_length_b	12.827893
_cell_length_c	12.827885
_cell_angle_alpha	90.019272
_cell_angle_beta	89.970214
_cell_angle_gamma	89.984638
loop_
_atom_site_label
_atom_site_type_symbol
_atom_site_fract_x
_atom_site_fract_y
_atom_site_fract_z
Zn1	Zn	-0.415983	-1.597670	-0.590849
Zn2	Zn	-0.082650	-1.264336	-0.257515
Zn3	Zn	0.250683	-0.931003	0.075818
Zn4	Zn	-0.590761	-1.597564	-0.416109
Zn5	Zn	-0.257427	-1.264230	-0.082776
Zn6	Zn	0.075906	-0.930897	0.250558
Zn7	Zn	-0.416034	-1.422911	-0.416122
Zn8	Zn	-0.082701	-1.089578	-0.082789
Zn9	Zn	0.250633	-0.756244	0.250544
Zn10	Zn	-0.590683	-1.422896	-0.590809
Zn11	Zn	-0.257350	-1.089563	-0.257476
Zn12	Zn	0.075984	-0.756230	0.075858
O13	O	-0.503365	-1.510260	-0.503472
O14	O	-0.170032	-1.176927	-0.170139
O15	O	0.163301	-0.843593	0.163194
O16	O	-0.439179	-1.743892	-0.567680
O17	O	-0.105846	-1.410558	-0.234347
O18	O	0.227488	-1.077225	0.098987
O19	O	-0.567637	-1.574357	-0.269875
O20	O	-0.234303	-1.241024	0.063459
O21	O	0.099030	-0.907691	0.396792
O22	O	-0.269791	-1.446144	-0.439322
O23	O	0.063542	-1.112810	-0.105989
O24	O	0.396875	-0.779477	0.227344
O25	O	-0.567587	-1.743814	-0.439300
O26	O	-0.234254	-1.410480	-0.105966
O27	O	0.099079	-1.077147	0.227367
O28	O	-0.269754	-1.574538	-0.567693
O29	O	0.063579	-1.241205	-0.234360
O30	O	0.396913	-0.907871	0.098974
O31	O	-0.439266	-1.446041	-0.269884
O32	O	-0.105932	-1.112708	0.063449
O33	O	0.227401	-0.779374	0.396782
O34	O	-0.439190	-1.276673	-0.439284
O35	O	-0.105857	-0.943340	-0.105950
O36	O	0.227476	-0.610006	0.227383
O37	O	-0.567455	-1.446118	-0.737050
O38	O	-0.234121	-1.112785	-0.403717
O39	O	0.099212	-0.779452	-0.070384
O40	O	-0.567504	-1.276662	-0.567625
O41	O	-0.234171	-0.943329	-0.234292
O42	O	0.099163	-0.609996	0.099041
O43	O	-0.439104	-1.574524	-0.737080
O44	O	-0.105770	-1.241190	-0.403746
O45	O	0.227563	-0.907857	-0.070413
O46	O	-0.736986	-1.574343	-0.439261
O47	O	-0.403653	-1.241010	-0.105928
O48	O	-0.070320	-0.907677	0.227406
O49	O	-0.736929	-1.446016	-0.567612
O50	O	-0.403596	-1.112682	-0.234279
O51	O	-0.070263	-0.779349	0.099054
C52	C	-0.503345	-1.238750	-0.503452
C53	C	-0.170012	-0.905417	-0.170119
C54	C	0.163322	-0.572084	0.163214
C55	C	-0.503362	-1.122597	-0.503469
C56	C	-0.170028	-0.789264	-0.170135
C57	C	0.163305	-0.455930	0.163198
C58	C	-0.774875	-1.510195	-0.503454
C59	C	-0.441542	-1.176861	-0.170120
C60	C	-0.108208	-0.843528	0.163213
C61	C	-0.891028	-1.510262	-0.503481
C62	C	-0.557695	-1.176929	-0.170147
C63	C	-0.224362	-0.843596	0.163186
C64	C	-0.503265	-1.510331	-0.776043
C65	C	-0.169932	-1.176998	-0.442709
C66	C	0.163402	-0.843665	-0.109376
C67	C	-0.503222	-1.510362	-0.892196
C68	C	-0.169889	-1.177028	-0.558862
C69	C	0.163445	-0.843695	-0.225529
C70	C	-0.942807	-1.573838	-0.440039
C71	C	-0.609473	-1.240505	-0.106706
C72	C	-0.276140	-0.907172	0.226628
C73	C	-1.062857	-1.573910	-0.440066
C74	C	-0.729524	-1.240576	-0.106732
C75	C	-0.396190	-0.907243	0.226601
C76	C	-0.230795	-1.510354	-0.503514
C77	C	0.102538	-1.177021	-0.170180
C78	C	0.435872	-0.843688	0.163153
C79	C	-0.114642	-1.510394	-0.503531
C80	C	0.218691	-1.177061	-0.170198
C81	C	0.552025	-0.843728	0.163135
C82	C	-0.503386	-1.782830	-0.503493
C83	C	-0.170053	-1.449497	-0.170159
C84	C	0.163280	-1.116164	0.163174
C85	C	-0.503395	-1.898983	-0.503502
C86	C	-0.170062	-1.565650	-0.170168
C87	C	0.163272	-1.232317	0.163165
C88	C	-0.566954	-1.070835	-0.566878
C89	C	-0.233621	-0.737501	-0.233545
C90	C	0.099712	-0.404168	0.099789
C91	C	-0.566973	-0.950784	-0.566896
C92	C	-0.233640	-0.617451	-0.233563
C93	C	0.099694	-0.284118	0.099770
C94	C	-0.439697	-1.573907	-0.943995
C95	C	-0.106364	-1.240574	-0.610662
C96	C	0.226969	-0.907241	-0.277328
C97	C	-0.439652	-1.573940	-1.064045
C98	C	-0.106319	-1.240607	-0.730712
C99	C	0.227015	-0.907274	-0.397379
C100	C	-0.503390	-1.510249	-0.231962
C101	C	-0.170056	-1.176916	0.101371
C102	C	0.163277	-0.843583	0.434704
C103	C	-0.503138	-1.510422	-0.115810
C104	C	-0.169805	-1.177088	0.217524
C105	C	0.163529	-0.843755	0.550857
H106	H	-0.898262	-1.628220	-0.385708
H107	H	-0.564928	-1.294887	-0.052374
H108	H	-0.231595	-0.961553	0.280959
Cl109	Cl	-1.131599	-1.657944	-0.356197
Cl110	Cl	-0.798266	-1.324611	-0.022864
Cl111	Cl	-0.464932	-0.991277	0.310469
H112	H	-0.621420	-0.906270	-0.621181
H113	H	-0.288087	-0.572936	-0.287847
H114	H	0.045246	-0.239603	0.045486
Cl115	Cl	-0.419336	-0.967698	-0.419673
Cl116	Cl	-0.086002	-0.634364	-0.086340
Cl117	Cl	0.247331	-0.301031	0.246994
Cl118	Cl	-1.045907	-1.426346	-0.587391
Cl119	Cl	-0.712573	-1.093012	-0.254057
Cl120	Cl	-0.379240	-0.759679	0.079276
Cl121	Cl	-0.355752	-1.657844	-0.875254
Cl122	Cl	-0.022418	-1.324511	-0.541920
Cl123	Cl	0.310915	-0.991177	-0.208587
H124	H	-0.557567	-1.455975	-0.936725
H125	H	-0.224234	-1.122642	-0.603392
H126	H	0.109099	-0.789309	-0.270059
H127	H	-0.935576	-1.455890	-0.557819
H128	H	-0.602242	-1.122557	-0.224486
H129	H	-0.268909	-0.789223	0.108847
Cl130	Cl	-0.651000	-1.139624	-0.650672
Cl131	Cl	-0.317667	-0.806291	-0.317339
Cl132	Cl	0.015666	-0.472958	0.015994
H133	H	-0.448927	-1.078036	-0.449199
H134	H	-0.115594	-0.744703	-0.115866
H135	H	0.217740	-0.411369	0.217467
H136	H	-0.385270	-1.628348	-1.108591
H137	H	-0.051936	-1.295014	-0.775258
H138	H	0.281397	-0.961681	-0.441925
H139	H	-0.557531	-1.456019	-1.071270
H140	H	-0.224197	-1.122685	-0.737937
H141	H	0.109136	-0.789352	-0.404604
