data_functionalizedCrystal
_audit_creation_method	'MofGen! by Chris Wilmer'
_symmetry_space_group_name_H-M	'P1'
_symmetry_Int_Tables_number	1
_symmetry_cell_setting	triclinic
loop_
_symmetry_equiv_pos_as_xyz
  x,y,z
_cell_length_a	12.759400
_cell_length_b	12.759401
_cell_length_c	10.685314
_cell_angle_alpha	85.649728
_cell_angle_beta	94.336337
_cell_angle_gamma	89.987226
loop_
_atom_site_label
_atom_site_type_symbol
_atom_site_fract_x
_atom_site_fract_y
_atom_site_fract_z
Zn1	Zn	-0.463771	-1.560711	-0.713451
Zn2	Zn	-0.626030	-1.574075	-0.502457
Zn3	Zn	-0.450361	-1.398481	-0.502472
Zn4	Zn	-0.639399	-1.385005	-0.713397
O5	O	-0.544890	-1.479568	-0.607944
O6	O	-0.485312	-1.709504	-0.685478
O7	O	-0.591520	-1.562014	-0.325884
O8	O	-0.305121	-1.420048	-0.530488
O9	O	-0.604523	-1.719322	-0.530462
O10	O	-0.314973	-1.539238	-0.685493
O11	O	-0.462456	-1.433007	-0.325896
O12	O	-0.475420	-1.249674	-0.530436
O13	O	-0.627309	-1.397080	-0.889979
O14	O	-0.614306	-1.239773	-0.685401
O15	O	-0.498276	-1.526171	-0.890018
O16	O	-0.774823	-1.548947	-0.530409
O17	O	-0.784645	-1.410039	-0.685386
C18	C	-0.544859	-1.206603	-0.607915
C19	C	-0.544873	-1.089825	-0.607933
C20	C	-0.617298	-0.920117	-0.688514
C21	C	-0.617287	-1.029842	-0.688496
C22	C	-0.472473	-1.040077	-0.527372
C23	C	-0.472490	-0.930355	-0.527385
C24	C	-0.689709	-0.860139	-0.769092
C25	C	-0.762111	-0.909879	-0.849651
C26	C	-0.762100	-1.019604	-0.849633
C27	C	-0.689687	-1.079590	-0.769056
C28	C	-0.817856	-1.479507	-0.607918
C29	C	-0.934635	-1.479575	-0.607949
C30	C	-0.984353	-1.551973	-0.527342
C31	C	-1.094079	-1.552035	-0.527380
C32	C	-1.104360	-1.407291	-0.688637
C33	C	-0.994636	-1.407235	-0.688604
C34	C	-0.924352	-1.624313	-0.446686
C35	C	-0.974070	-1.696717	-0.366072
C36	C	-1.083796	-1.696779	-0.366110
C37	C	-1.143805	-1.624437	-0.446764
C38	C	-0.270861	-1.479656	-0.607998
C39	C	-0.154085	-1.479693	-0.608021
C40	C	-0.565780	-1.458632	-0.937063
C41	C	-0.574682	-1.449710	-1.077313
C42	C	-0.544914	-0.753600	-0.607968
C43	C	-0.544901	-0.870377	-0.607963
C44	C	-0.524006	-1.500483	-0.280106
C45	C	-0.514809	-1.509609	-0.139856
H46	H	-0.689724	-0.770795	-0.769118
C47	C	-0.689674	-1.200291	-0.769049
N48	N	-0.689658	-1.291201	-0.769053
H49	H	-0.413517	-1.088926	-0.461772
H50	H	-0.632754	-1.391597	-1.131069
H51	H	-0.821072	-0.861033	-0.915246
H52	H	-0.413533	-0.889855	-0.461800
C53	C	-1.138483	-1.776425	-0.277436
N54	N	-1.179670	-1.836413	-0.210637
H55	H	-0.835006	-1.624268	-0.446642
C56	C	-0.908059	-1.776290	-0.277361
N57	N	-0.858341	-1.836226	-0.210541
H58	H	-0.456728	-1.567706	-1.086107
C59	C	-0.841747	-1.074316	-0.938241
N60	N	-0.901738	-1.115521	-1.004988
H61	H	-1.153227	-1.348393	-0.754301
C62	C	-1.264508	-1.624513	-0.446807
N63	N	-1.355420	-1.624568	-0.446833
H64	H	-0.954155	-1.348282	-0.754243
