data_functionalizedCrystal
_audit_creation_method	'MofGen! by Chris Wilmer'
_symmetry_space_group_name_H-M	'P1'
_symmetry_Int_Tables_number	1
_symmetry_cell_setting	triclinic
loop_
_symmetry_equiv_pos_as_xyz
  x,y,z
_cell_length_a	11.026607
_cell_length_b	10.654550
_cell_length_c	9.130313
_cell_angle_alpha	90.003780
_cell_angle_beta	90.000037
_cell_angle_gamma	83.464540
loop_
_atom_site_label
_atom_site_type_symbol
_atom_site_fract_x
_atom_site_fract_y
_atom_site_fract_z
O1	O	0.170762	-1.704901	-0.121918
O2	O	0.187032	-1.342954	-0.121895
O3	O	0.001991	-1.493930	-0.121899
O4	O	0.355802	-1.553926	-0.121914
O5	O	0.001996	-1.493929	0.121700
O6	O	0.187037	-1.342953	0.121704
O7	O	0.170767	-1.704900	0.121681
Cu8	Cu	0.178902	-1.523927	0.143935
Cu9	Cu	0.178896	-1.523928	-0.144149
O10	O	0.355807	-1.553924	0.121685
C11	C	0.185839	-1.295897	-0.000092
C12	C	0.182265	-1.155677	-0.000083
C13	C	-0.043310	-1.482861	-0.000101
C14	C	-0.178302	-1.449867	-0.000104
N15	N	0.178906	-1.523934	0.346558
C16	C	-0.251341	-1.540970	-0.000112
C17	C	-0.390862	-1.506871	-0.000115
C18	C	0.401109	-1.564993	-0.000116
C19	C	0.536100	-1.597988	-0.000123
C20	C	0.171959	-1.751958	-0.000125
C21	C	0.175533	-1.892177	-0.000144
C22	C	0.291214	-1.099841	-0.000109
C23	C	0.287849	-0.968090	-0.000134
C24	C	0.066576	-0.948022	-0.000114
C25	C	0.069943	-1.079771	-0.000078
C26	C	0.418964	-1.111426	-0.000127
C27	C	0.415599	-0.979675	-0.000152
N28	N	0.178883	-1.523928	-0.346771
C29	C	0.096998	-1.590814	0.423208
C30	C	0.096983	-1.590808	0.576544
C31	C	0.260795	-1.457040	0.576568
C32	C	0.260803	-1.457040	0.423234
C33	C	0.002426	-1.668049	0.423195
C34	C	0.002411	-1.668043	0.576532
H35	H	-0.431617	-1.403623	-0.000118
O36	O	0.461747	-0.935390	0.125368
C37	C	0.551745	-0.987121	0.361351
C38	C	0.499548	-1.037448	0.219264
H39	H	0.582298	-1.069607	0.437317
H40	H	0.633158	-0.934311	0.334032
H41	H	0.478332	-0.920162	0.417935
H42	H	0.572873	-1.104456	0.162610
H43	H	0.418107	-1.090184	0.246677
H44	H	0.023243	-1.769076	0.618141
O45	O	0.340225	-1.391864	0.650990
C46	C	0.409534	-1.189173	0.697857
C47	C	0.319490	-1.262827	0.613512
H48	H	0.392819	-1.084838	0.667563
H49	H	0.395456	-1.200547	0.820633
H50	H	0.507059	-1.227637	0.667738
H51	H	0.221930	-1.224412	0.643508
H52	H	0.333675	-1.251454	0.490756
O53	O	-0.042559	-0.874338	0.000140
C54	C	-0.232738	-0.816903	0.126296
C55	C	-0.109171	-0.900398	0.126213
H56	H	-0.286639	-0.837962	0.228199
H57	H	-0.216505	-0.713125	0.126364
H58	H	-0.286584	-0.837873	0.024313
H59	H	-0.055260	-0.879540	0.228179
H60	H	-0.125490	-1.004151	0.126068
H61	H	-0.091025	-1.626321	0.381581
H62	H	-0.423147	-1.701236	-0.000240
O63	O	0.473185	-0.942502	-0.121733
C64	C	0.660705	-0.955473	-0.259277
C65	C	0.595632	-0.997696	-0.121556
H66	H	0.759720	-1.000057	-0.259165
H67	H	0.612679	-0.986831	-0.361283
H68	H	0.657901	-0.848183	-0.259291
H69	H	0.598416	-1.104980	-0.121400
H70	H	0.643676	-0.966244	-0.019613
O71	O	0.037934	-1.784528	0.366635
C72	C	0.197365	-1.958483	0.350158
C73	C	0.157283	-1.826585	0.414322
H74	H	0.293871	-1.992515	0.388663
H75	H	0.132232	-2.027429	0.388748
H76	H	0.195686	-1.953110	0.225460
H77	H	0.158967	-1.831835	0.539022
H78	H	0.222424	-1.757692	0.375617
O79	O	-0.202782	-1.664158	-0.000382
C80	C	-0.186900	-1.864005	-0.126562
C81	C	-0.241948	-1.724512	-0.126451
H82	H	-0.218565	-1.912849	-0.228461
H83	H	-0.083033	-1.869632	-0.126656
H84	H	-0.218419	-1.912824	-0.024575
H85	H	-0.210523	-1.675607	-0.228420
H86	H	-0.345809	-1.718975	-0.126280
O87	O	-0.226715	-1.326633	-0.000164
C88	C	-0.186773	-1.108934	-0.000062
C89	C	-0.131789	-1.248446	-0.000026
H90	H	-0.110053	-1.045680	0.000081
H91	H	-0.245447	-1.088855	-0.102035
H92	H	-0.245542	-1.088986	0.101857
H93	H	-0.072965	-1.268492	-0.101876
H94	H	-0.073186	-1.268455	0.102014
O95	O	0.478404	-1.159503	0.121538
C96	C	0.466760	-1.280100	0.343341
C97	C	0.399316	-1.225751	0.205605
H98	H	0.402839	-1.333652	0.411363
H99	H	0.549989	-1.347199	0.309453
H100	H	0.497366	-1.199596	0.411230
H101	H	0.368629	-1.306173	0.137654
H102	H	0.316143	-1.158619	0.239594
H103	H	-0.085899	-1.618360	0.624085
H104	H	-0.018774	-1.125227	-0.000036
H105	H	0.459640	-1.155912	-0.105300
H106	H	0.327488	-1.402568	0.360827
