data_functionalizedCrystal
_audit_creation_method	'MofGen! by Chris Wilmer'
_symmetry_space_group_name_H-M	'P1'
_symmetry_Int_Tables_number	1
_symmetry_cell_setting	triclinic
loop_
_symmetry_equiv_pos_as_xyz
  x,y,z
_cell_length_a	6.817900
_cell_length_b	12.908942
_cell_length_c	15.185107
_cell_angle_alpha	95.497752
_cell_angle_beta	104.257894
_cell_angle_gamma	100.860556
loop_
_atom_site_label
_atom_site_type_symbol
_atom_site_fract_x
_atom_site_fract_y
_atom_site_fract_z
V1	V	-4.021767	-0.146584	-0.282888
O2	O	-4.023259	0.006290	-0.278023
O3	O	-3.959965	-0.289926	-0.280453
O4	O	-3.977280	-0.144660	-0.406494
O5	O	-4.005825	-0.139982	-0.151110
V6	V	-4.506625	-0.128259	-0.267187
O7	O	-4.280098	-0.186780	-0.317329
O8	O	-4.698491	-0.088063	-0.232746
O9	O	-4.345220	0.015083	-0.269622
O10	O	-4.622529	-0.281133	-0.272052
O11	O	-4.639964	-0.134861	-0.398965
O12	O	-4.327905	-0.130183	-0.143582
C13	C	-3.801579	-0.324859	-0.275861
C14	C	-3.832362	-0.442046	-0.274694
C15	C	-4.253759	-0.673016	-0.281553
C16	C	-4.282691	-0.783124	-0.280457
C17	C	-3.919166	-0.772370	-0.271411
C18	C	-3.890233	-0.662263	-0.272508
C19	C	-4.057537	-0.612590	-0.277577
C20	C	-4.028599	-0.502480	-0.278667
C21	C	-3.665079	-0.491729	-0.269628
C22	C	-3.694012	-0.601837	-0.268532
C23	C	-3.823665	-0.139557	-0.436637
C24	C	-3.868487	-0.138932	-0.537682
C25	C	-4.089870	-0.232786	-0.977580
C26	C	-4.026531	-0.039638	-0.952251
C27	C	-3.984371	-0.040241	-0.857315
C28	C	-3.994961	-0.137118	-0.822507
C29	C	-4.047712	-0.233392	-0.882635
C30	C	-3.931637	0.056031	-0.797180
C31	C	-3.889475	0.055432	-0.702238
C32	C	-3.900052	-0.041445	-0.667428
C33	C	-3.952804	-0.137724	-0.727563
C34	C	-3.963395	-0.234601	-0.692755
C35	C	-4.016133	-0.330879	-0.752888
C36	C	-4.058289	-0.330270	-0.847826
C37	C	-3.857896	-0.042055	-0.572490
C38	C	-3.921238	-0.235206	-0.597811
C39	C	-4.166947	0.050011	-0.274212
C40	C	-4.115402	0.167196	-0.275385
C41	C	-4.144862	-0.135290	-0.113433
C42	C	-4.079279	-0.135909	-0.012387
H43	H	-3.782969	-0.812835	-0.267292
H44	H	-4.442472	-0.832319	-0.283696
H45	H	-4.164825	-0.462036	-0.282788
C46	C	-3.449226	-0.425258	-0.265253
H47	H	-3.455951	-0.352568	-0.266635
H48	H	-3.352845	-0.431331	-0.209999
H49	H	-3.405732	-0.450858	-0.316438
C50	C	-3.831491	0.161329	-0.636098
H51	H	-3.807920	0.147096	-0.574570
H52	H	-3.709119	0.204495	-0.643513
H53	H	-3.941700	0.197719	-0.649398
H54	H	-4.389978	-0.632569	-0.285667
C55	C	-3.932903	-0.341774	-0.559530
H56	H	-3.970365	-0.399021	-0.608941
H57	H	-3.801506	-0.342655	-0.520078
H58	H	-4.034078	-0.349396	-0.525965
C59	C	-4.027799	-0.437441	-0.714597
H60	H	-4.065260	-0.494696	-0.764002
H61	H	-3.896404	-0.438318	-0.675142
H62	H	-4.128977	-0.445055	-0.681033
H63	H	-3.814970	0.036333	-0.523535
C64	C	-4.116321	-0.436164	-0.913971
H65	H	-4.139935	-0.421927	-0.975498
H66	H	-4.006157	-0.472577	-0.900685
H67	H	-4.238717	-0.479312	-0.906549
H68	H	-4.132802	-0.311174	-1.026543
C69	C	-4.014882	0.066917	-0.990537
H70	H	-4.047532	0.053490	-1.055691
H71	H	-4.111228	0.103131	-0.972711
H72	H	-3.878665	0.109867	-0.966841
C73	C	-3.919989	0.162585	-0.835469
H74	H	-3.952623	0.149155	-0.900622
H75	H	-4.016348	0.198796	-0.817650
H76	H	-3.783777	0.205539	-0.811768
H77	H	-3.557807	-0.642296	-0.264408
