data_functionalizedCrystal
_audit_creation_method	'MofGen! by Chris Wilmer'
_symmetry_space_group_name_H-M	'P1'
_symmetry_Int_Tables_number	1
_symmetry_cell_setting	triclinic
loop_
_symmetry_equiv_pos_as_xyz
  x,y,z
_cell_length_a	19.288874
_cell_length_b	19.288859
_cell_length_c	17.766277
_cell_angle_alpha	89.989768
_cell_angle_beta	89.993108
_cell_angle_gamma	83.136975
loop_
_atom_site_label
_atom_site_type_symbol
_atom_site_fract_x
_atom_site_fract_y
_atom_site_fract_z
O1	O	0.086628	0.921359	-0.062610
O2	O	0.098321	0.719098	-0.062608
O3	O	-0.008655	0.826069	-0.062603
O4	O	0.193604	0.814388	-0.062615
O5	O	-0.008661	0.826050	0.062585
O6	O	0.098316	0.719079	0.062580
O7	O	0.086623	0.921340	0.062579
Cu8	Cu	0.092469	0.820208	0.074010
Cu9	Cu	0.092475	0.820230	-0.074040
O10	O	0.193599	0.814369	0.062574
C11	C	0.097943	0.693212	-0.000014
C12	C	0.096816	0.616108	-0.000013
C13	C	-0.034535	0.825683	-0.000009
C14	C	-0.111638	0.824551	-0.000009
C15	C	0.151959	0.052069	-0.000017
C16	C	0.153024	0.124516	-0.000021
C17	C	0.090255	0.169221	-0.000016
C18	C	0.026416	0.141473	-0.000026
C19	C	0.025352	0.069028	-0.000030
C20	C	0.043440	0.290483	0.043848
C21	C	0.044506	0.362926	0.043857
C22	C	0.093532	0.392666	-0.000009
C23	C	0.141504	0.349953	-0.043872
C24	C	0.140441	0.277507	-0.043876
C25	C	0.091401	0.247776	-0.000013
C26	C	0.158523	0.498960	-0.000008
C27	C	0.159585	0.571409	-0.000017
C28	C	0.032975	0.588365	-0.000014
C29	C	0.031915	0.515918	-0.000013
C30	C	0.094690	0.471220	-0.000007
C31	C	-0.667210	0.816415	0.068213
C32	C	-0.594762	0.817471	0.068217
C33	C	-0.558528	0.818012	-0.000023
C34	C	-0.594745	0.817480	-0.068271
C35	C	-0.667191	0.816417	-0.068273
C36	C	-0.449195	0.860386	-0.052302
C37	C	-0.376752	0.861453	-0.052297
C38	C	-0.335082	0.821287	-0.000019
C39	C	-0.365865	0.780064	0.052266
C40	C	-0.438311	0.779001	0.052264
C41	C	-0.479973	0.819164	-0.000028
C42	C	-0.220317	0.822959	0.068230
C43	C	-0.147867	0.824011	0.068231
C44	C	-0.147852	0.824027	-0.068259
C45	C	-0.220300	0.822968	-0.068258
C46	C	-0.256528	0.822438	-0.000012
C47	C	0.219478	0.814755	-0.000022
C48	C	0.296581	0.815887	-0.000027
C49	C	0.087001	0.947226	-0.000018
C50	C	0.088128	1.024330	-0.000023
N51	N	0.092464	0.820197	0.178141
N52	N	0.092474	0.820246	-0.178170
C53	C	0.045118	0.867580	0.217530
C54	C	0.045114	0.867584	0.296331
C55	C	0.092469	0.820212	0.335741
C56	C	0.139819	0.772821	0.296342
C57	C	0.139816	0.772814	0.217542
C58	C	0.155757	0.810915	0.460575
C59	C	0.155760	0.810928	0.539374
C60	C	0.092478	0.820231	0.578787
C61	C	0.029188	0.829536	0.539392
C62	C	0.029185	0.829529	0.460592
C63	C	0.092477	0.820214	0.421187
C64	C	0.045124	0.867620	0.703622
C65	C	0.045120	0.867619	0.782426
C66	C	0.139830	0.772860	0.782435
C67	C	0.139829	0.772857	0.703633
C68	C	0.092476	0.820241	0.664232
H69	H	0.205004	0.147106	-0.000009
O70	O	0.221548	0.598444	0.000078
C71	C	0.296234	0.670369	0.064937
C72	C	0.226032	0.639806	0.064922
H73	H	0.299889	0.703805	0.117366
H74	H	0.299903	0.703911	0.012576
H75	H	0.340908	0.625969	0.064901
H76	H	0.181317	0.684162	0.064984
H77	H	0.222424	0.606246	0.117278
H78	H	-0.018132	0.624763	-0.000016
H79	H	-0.249782	0.822543	-0.123827
O80	O	-0.346961	0.901511	-0.103156
C81	C	-0.365409	0.982152	-0.206845
C82	C	-0.399233	0.936803	-0.149300
H83	H	-0.407657	1.010708	-0.244157
H84	H	-0.326794	0.947479	-0.243175
H85	H	-0.336734	1.021881	-0.175763
H86	H	-0.427945	0.897069	-0.180320
H87	H	-0.437811	0.971520	-0.112972
H88	H	-0.483117	0.893090	-0.094881
O89	O	-0.468283	0.738908	0.102942
C90	C	-0.537543	0.644357	0.121919
C91	C	-0.503652	0.689727	0.064449
H92	H	-0.566135	0.604575	0.090820
H93	H	-0.576224	0.679014	0.158193
H94	H	-0.495312	0.615864	0.159299
H95	H	-0.545834	0.718228	0.027020
H96	H	-0.464956	0.655035	0.028229
H97	H	0.178375	0.734249	0.328434
H98	H	-0.118350	0.824460	-0.123821
H99	H	0.203076	0.015680	-0.000015
H100	H	-0.331939	0.747359	0.094838
O101	O	-0.030152	0.489083	0.000024
C102	C	-0.155617	0.513549	-0.000016
C103	C	-0.085373	0.544030	-0.000038
H104	H	-0.200281	0.557958	-0.000083
H105	H	-0.159331	0.480071	0.052386
H106	H	-0.159239	0.480041	-0.052396
H107	H	-0.081704	0.577570	0.052306
H108	H	-0.081689	0.577468	-0.052475
H109	H	-0.022347	0.837104	0.428519
H110	H	-0.249814	0.822522	0.123800
H111	H	-0.565238	0.817918	-0.123832
O112	O	-0.559520	0.818079	0.134463
C113	C	-0.485837	0.879459	0.213696
C114	C	-0.525696	0.878850	0.138637
H115	H	-0.458491	0.928594	0.217102
H116	H	-0.445368	0.831391	0.217129
H117	H	-0.524189	0.878860	0.262454
H118	H	-0.487397	0.879473	0.089837
H119	H	-0.566174	0.926913	0.135269
H120	H	-0.696671	0.815986	-0.123844
H121	H	0.207294	0.803355	0.571444
H122	H	-0.118387	0.824439	0.123802
H123	H	0.006559	0.906160	0.185451
O124	O	-0.000909	0.913677	0.334488
C125	C	-0.094878	1.007633	0.326169
C126	C	-0.042782	0.955485	0.282866
H127	H	-0.128755	1.041438	0.284451
H128	H	-0.065013	1.042285	0.363027
H129	H	-0.129466	0.977741	0.363095
H130	H	-0.008180	0.985320	0.245899
H131	H	-0.072689	0.920833	0.246055
O132	O	-0.032279	0.838450	0.577696
C133	C	-0.107394	0.789761	0.666712
C134	C	-0.037771	0.779566	0.623367
H135	H	-0.111851	0.742168	0.703659
H136	H	-0.152650	0.796369	0.625049
H137	H	-0.109204	0.838325	0.703558
H138	H	-0.035893	0.731000	0.586519
H139	H	0.007453	0.772998	0.665071
O140	O	-0.001997	0.404435	0.086551
C141	C	-0.018432	0.488604	0.187118
C142	C	0.034309	0.441617	0.138835
H143	H	0.010901	0.518688	0.229391
H144	H	-0.053656	0.454939	0.218518
H145	H	-0.051594	0.527007	0.149148
H146	H	0.067518	0.403206	0.176751
H147	H	0.069484	0.475326	0.107427
H148	H	0.179500	0.242732	-0.079593
H149	H	0.006565	0.906200	0.671540
O150	O	-0.000900	0.913717	0.820574
C151	C	-0.094854	1.007687	0.812245
C152	C	-0.042764	0.955528	0.768948
H153	H	-0.128724	1.041495	0.770524
H154	H	-0.064984	1.042336	0.849103
H155	H	-0.129450	0.977804	0.849172
H156	H	-0.008155	0.985354	0.731980
H157	H	-0.072677	0.920880	0.732138
O158	O	0.185763	0.726746	0.820674
C159	C	0.226803	0.605850	0.844774
C160	C	0.174735	0.658000	0.801432
H161	H	0.217914	0.550257	0.829221
H162	H	0.218673	0.613930	0.907871
H163	H	0.282406	0.614760	0.829277
H164	H	0.119111	0.649121	0.816866
H165	H	0.182925	0.649907	0.738346
H166	H	0.178385	0.734277	0.671561
H167	H	0.003514	0.266275	0.079570
O168	O	0.217298	0.801908	0.422410
C169	C	0.342840	0.783436	0.430709
C170	C	0.273200	0.793642	0.474023
H171	H	0.388054	0.776736	0.472420
H172	H	0.347388	0.831054	0.393827
H173	H	0.344629	0.734911	0.393806
H174	H	0.271364	0.842141	0.510968
H175	H	0.268681	0.745988	0.510858
H176	H	0.178372	0.734229	0.185471
H177	H	0.181427	0.374165	-0.079590
H178	H	0.209638	0.462565	-0.000004
H179	H	-0.024691	0.177876	-0.000024
O180	O	-0.036717	0.042194	0.000002
C181	C	-0.162182	0.066657	-0.000045
C182	C	-0.091938	0.097140	-0.000065
H183	H	-0.206847	0.111066	-0.000114
H184	H	-0.165897	0.033182	0.052359
H185	H	-0.165800	0.033147	-0.052423
H186	H	-0.088272	0.130682	0.052278
H187	H	-0.088253	0.130576	-0.052503
H188	H	-0.696702	0.815982	0.123784
