data_functionalizedCrystal
_audit_creation_method	'MofGen! by Chris Wilmer'
_symmetry_space_group_name_H-M	'P1'
_symmetry_Int_Tables_number	1
_symmetry_cell_setting	triclinic
loop_
_symmetry_equiv_pos_as_xyz
  x,y,z
_cell_length_a	16.959455
_cell_length_b	16.959453
_cell_length_c	16.959447
_cell_angle_alpha	89.972501
_cell_angle_beta	89.982507
_cell_angle_gamma	90.016935
loop_
_atom_site_label
_atom_site_type_symbol
_atom_site_fract_x
_atom_site_fract_y
_atom_site_fract_z
Zn1	Zn	1.208409	-0.314758	-0.446905
Zn2	Zn	1.208324	-0.446942	-0.314724
Zn3	Zn	1.076230	-0.314775	-0.314742
Zn4	Zn	1.076202	-0.446892	-0.446863
O5	O	1.142291	-0.380842	-0.380808
O6	O	1.319009	-0.332307	-0.429381
O7	O	1.190778	-0.429438	-0.204116
O8	O	1.093811	-0.204162	-0.332299
O9	O	1.318946	-0.429422	-0.332268
O10	O	1.190922	-0.204149	-0.429398
O11	O	1.093729	-0.332335	-0.204129
O12	O	0.965616	-0.332286	-0.332258
O13	O	1.093764	-0.429336	-0.557479
O14	O	0.965595	-0.429352	-0.429327
O15	O	1.190895	-0.332258	-0.557510
O16	O	1.190751	-0.557547	-0.332228
O17	O	1.093682	-0.557509	-0.429310
C18	C	0.936925	-0.380816	-0.380790
C19	C	0.849069	-0.380823	-0.380801
C20	C	1.142226	-0.586208	-0.380780
C21	C	1.142270	-0.674065	-0.380794
C22	C	0.477579	-0.330258	-0.330370
C23	C	0.477607	-0.431490	-0.431292
C24	C	0.560153	-0.431479	-0.431287
C25	C	0.601416	-0.380857	-0.380822
C26	C	0.560133	-0.330247	-0.330362
C27	C	0.601442	-0.482094	-0.481740
C28	C	0.683993	-0.482085	-0.481737
C29	C	0.725257	-0.431459	-0.431275
C30	C	0.683969	-0.380846	-0.380814
C31	C	0.725232	-0.330224	-0.330350
C32	C	0.683946	-0.279607	-0.279892
C33	C	0.601397	-0.279621	-0.279901
C34	C	0.807806	-0.431445	-0.431266
C35	C	0.807786	-0.330213	-0.330341
C36	C	1.192922	-1.045475	-0.431463
C37	C	1.091882	-1.045605	-0.330271
C38	C	1.091852	-0.963059	-0.330253
C39	C	1.142358	-0.921717	-0.380842
C40	C	1.192893	-0.962922	-0.431449
C41	C	1.041313	-0.921849	-0.279652
C42	C	1.041281	-0.839298	-0.279633
C43	C	1.091791	-0.797955	-0.330218
C44	C	1.142328	-0.839164	-0.380827
C45	C	1.192834	-0.797822	-0.431415
C46	C	1.243376	-0.839030	-0.482021
C47	C	1.243403	-0.921579	-0.482034
C48	C	1.091764	-0.715406	-0.330205
C49	C	1.192804	-0.715269	-0.431401
C50	C	1.348460	-0.380868	-0.380827
C51	C	1.436316	-0.380880	-0.380835
C52	C	1.142336	-0.380789	-0.586977
C53	C	1.142355	-0.380767	-0.674833
C54	C	1.142379	-0.174673	-0.380855
C55	C	1.142417	-0.086817	-0.380875
C56	C	1.091792	-0.431301	-0.716093
C57	C	1.192930	-0.330206	-0.716127
C58	C	1.192946	-0.330181	-0.798673
C59	C	1.142384	-0.380715	-0.839933
C60	C	1.091806	-0.431275	-0.798647
C61	C	1.243518	-0.279616	-0.839966
C62	C	1.243536	-0.279587	-0.922517
C63	C	1.192977	-0.330126	-0.963778
C64	C	1.142397	-0.380689	-0.922487
C65	C	1.091835	-0.431223	-0.963746
C66	C	1.041259	-0.481790	-0.922456
C67	C	1.041247	-0.481814	-0.839908
C68	C	1.192989	-0.330103	-1.046326
C69	C	1.091848	-0.431197	-1.046300
C70	C	1.142293	-0.380837	-0.175442
C71	C	1.142427	-0.380637	-0.087586
H72	H	0.717553	-0.238394	-0.238800
C73	C	0.508651	-0.493205	-0.588046
C74	C	0.556079	-0.537728	-0.537209
H75	H	0.480645	-0.527551	-0.622295
H76	H	0.472260	-0.463066	-0.557994
H77	H	0.540886	-0.458810	-0.618338
H78	H	0.523843	-0.572119	-0.506913
H79	H	0.592474	-0.567880	-0.567265
H80	H	1.000128	-0.805751	-0.238427
H81	H	1.284551	-0.955137	-0.523234
H82	H	0.567774	-0.238412	-0.238820
C83	C	0.996379	-0.526630	-1.048988
C84	C	0.985683	-0.537339	-0.967815
H85	H	0.962073	-0.560927	-1.076991
H86	H	0.984827	-0.473522	-1.062512
H87	H	1.049489	-0.538193	-1.062513
H88	H	0.932574	-0.525770	-0.954289
H89	H	0.997229	-0.590459	-0.954285
C90	C	1.030227	-0.588149	-0.747038
C91	C	0.985660	-0.537387	-0.794509
H92	H	0.995910	-0.622452	-0.719003
H93	H	1.064648	-0.618380	-0.779242
H94	H	1.060340	-0.558039	-0.710666
H95	H	0.955552	-0.567497	-0.830885
H96	H	0.951226	-0.507154	-0.762302
C97	C	1.231342	-1.070773	-0.565351
C98	C	1.248466	-1.090769	-0.487094
H99	H	1.265634	-1.098735	-0.599696
H100	H	1.178236	-1.084330	-0.576860
H101	H	1.238556	-1.015692	-0.572573
H102	H	1.241246	-1.145850	-0.479871
H103	H	1.301585	-1.077217	-0.475582
H104	H	0.443960	-0.289044	-0.289291
C105	C	1.080772	-0.537652	-0.623241
C106	C	1.036205	-0.486881	-0.670703
H107	H	1.046454	-0.571961	-0.595214
H108	H	1.115194	-0.567875	-0.655449
H109	H	1.110882	-0.507549	-0.586862
H110	H	1.006100	-0.516984	-0.707087
H111	H	1.001769	-0.456655	-0.638492
H112	H	1.050610	-0.681859	-0.289007
H113	H	1.234092	-0.289060	-0.682529
H114	H	1.284720	-0.238413	-0.956128
H115	H	1.234162	-0.288925	-1.079941
H116	H	0.841376	-0.288986	-0.289251
C117	C	1.288432	-0.234807	-0.713439
C118	C	1.299112	-0.224090	-0.794613
H119	H	1.322765	-0.200535	-0.685439
H120	H	1.235338	-0.223222	-0.699899
H121	H	1.299964	-0.287930	-0.699927
H122	H	1.287575	-0.170968	-0.808127
H123	H	1.352218	-0.235669	-0.808159
H124	H	0.444005	-0.472709	-0.472373
H125	H	1.050759	-1.079270	-0.289087
C126	C	0.675719	-0.582147	-0.581501
C127	C	0.729371	-0.537715	-0.537205
H128	H	0.703736	-0.616485	-0.615749
H129	H	0.643509	-0.612344	-0.547011
H130	H	0.643534	-0.547744	-0.611794
H131	H	0.761552	-0.572119	-0.506907
H132	H	0.761594	-0.507516	-0.571700
H133	H	1.000192	-0.955515	-0.238468
H134	H	1.050677	-0.472351	-1.079887
C135	C	1.203689	-0.622360	-0.537719
C136	C	1.248321	-0.669826	-0.487010
H137	H	1.237964	-0.594302	-0.572046
H138	H	1.169255	-0.654569	-0.567927
H139	H	1.173590	-0.586007	-0.507573
H140	H	1.278417	-0.706182	-0.517156
H141	H	1.282770	-0.637614	-0.456799
C142	C	0.934358	-0.476381	-0.476059
C143	C	0.853189	-0.487080	-0.486721
H144	H	0.962373	-0.510733	-0.510294
H145	H	0.947894	-0.423293	-0.487727
H146	H	0.947856	-0.487874	-0.422925
H147	H	0.839689	-0.475581	-0.539853
H148	H	0.839647	-0.540180	-0.475057
C149	C	1.254249	-0.746114	-0.588332
C150	C	1.298888	-0.793579	-0.537627
H151	H	1.288520	-0.718048	-0.622656
H152	H	1.219819	-0.778325	-0.618542
H153	H	1.224145	-0.709768	-0.558182
H154	H	1.328988	-0.829928	-0.567777
H155	H	1.333332	-0.761365	-0.507414
