data_functionalizedCrystal
_audit_creation_method	'MofGen! by Chris Wilmer'
_symmetry_space_group_name_H-M	'P1'
_symmetry_Int_Tables_number	1
_symmetry_cell_setting	triclinic
loop_
_symmetry_equiv_pos_as_xyz
  x,y,z
_cell_length_a	10.540539
_cell_length_b	10.540539
_cell_length_c	7.540329
_cell_angle_alpha	89.998539
_cell_angle_beta	89.999095
_cell_angle_gamma	84.525492
loop_
_atom_site_label
_atom_site_type_symbol
_atom_site_fract_x
_atom_site_fract_y
_atom_site_fract_z
O1	O	1.685885	0.178899	-0.147390
O2	O	1.316472	0.195754	-0.147411
O3	O	1.509606	0.002620	-0.147398
O4	O	1.492750	0.372033	-0.147403
O5	O	1.509594	0.002618	0.147568
O6	O	1.316460	0.195752	0.147554
O7	O	1.685873	0.178896	0.147575
Cu8	Cu	1.501165	0.187324	0.174497
Cu9	Cu	1.501179	0.187327	-0.174333
O10	O	1.492739	0.372031	0.147562
C11	C	1.269163	0.194489	0.000069
C12	C	1.128215	0.190707	0.000061
C13	C	0.944788	0.045790	0.000751
C14	C	1.091406	0.049624	0.000068
C15	C	1.066549	0.258604	-0.168373
C16	C	0.920004	0.253789	-0.168496
C17	C	0.919503	0.256656	0.166935
C18	C	1.066485	0.257956	0.169142
C19	C	1.508336	-0.044684	0.000082
C20	C	1.504554	-0.185632	0.000072
C21	C	1.359637	-0.369059	-0.000598
C22	C	1.363471	-0.222441	0.000066
C23	C	1.572443	-0.247291	0.168515
C24	C	1.567628	-0.393836	0.168657
C25	C	1.570511	-0.394351	-0.166773
C26	C	1.571810	-0.247369	-0.169000
C27	C	1.733182	0.180161	0.000092
C28	C	1.874130	0.183943	0.000088
C29	C	1.494008	0.419335	0.000079
C30	C	1.497790	0.560283	0.000077
N31	N	1.501165	0.187321	0.419846
N32	N	1.501190	0.187320	-0.419681
H33	H	1.090710	0.360815	0.179311
H34	H	1.676051	-0.224937	0.174784
H35	H	1.517445	-0.422036	0.294566
Br36	Br	1.162432	-0.039420	0.201311
H37	H	1.525274	-0.204693	0.293860
Br38	Br	1.743253	-0.206991	-0.185963
H39	H	0.916198	-0.009947	0.121545
H40	H	1.107442	0.208355	0.293749
Br41	Br	0.840045	0.422898	-0.181240
Br42	Br	0.866923	0.180552	0.379732
Br43	Br	1.103841	0.431279	-0.178871
Br44	Br	0.894441	-0.046726	-0.199439
H45	H	0.872276	0.358560	0.168071
Br46	Br	1.160955	-0.039644	-0.201871
H47	H	1.669093	-0.441804	0.176304
Br48	Br	1.740356	-0.473063	-0.168656
Br49	Br	1.137534	0.180000	-0.377308
Br50	Br	1.266747	-0.416718	-0.201935
H51	H	0.891799	0.203609	-0.294401
H52	H	1.310052	-0.179837	-0.120681
Br53	Br	1.494402	-0.446920	-0.379566
Br54	Br	1.266845	-0.420015	0.198982
H55	H	1.309668	-0.180686	0.121008
Br56	Br	1.489726	-0.178443	-0.376729
