data_functionalizedCrystal
_audit_creation_method	'MofGen! by Chris Wilmer'
_symmetry_space_group_name_H-M	'P1'
_symmetry_Int_Tables_number	1
_symmetry_cell_setting	triclinic
loop_
_symmetry_equiv_pos_as_xyz
  x,y,z
_cell_length_a	10.654553
_cell_length_b	10.723024
_cell_length_c	9.130313
_cell_angle_alpha	89.999893
_cell_angle_beta	89.999282
_cell_angle_gamma	84.477024
loop_
_atom_site_label
_atom_site_type_symbol
_atom_site_fract_x
_atom_site_fract_y
_atom_site_fract_z
O1	O	1.667805	0.175288	-0.121812
O2	O	2.167805	0.675288	0.378188
O3	O	1.302325	0.191983	-0.121811
O4	O	1.802325	0.691983	0.378189
O5	O	1.493496	0.002060	-0.121806
O6	O	1.993496	0.502060	0.378194
O7	O	1.476635	0.365210	-0.121817
O8	O	1.976635	0.865210	0.378183
O9	O	1.493493	0.002065	0.121793
O10	O	1.993493	0.502065	0.621793
O11	O	1.302323	0.191988	0.121788
O12	O	1.802323	0.691988	0.621788
O13	O	1.667803	0.175293	0.121787
O14	O	2.167803	0.675293	0.621787
Cu15	Cu	1.485063	0.183641	0.144030
Cu16	Cu	1.985063	0.683641	0.644030
Cu17	Cu	1.485065	0.183635	-0.144054
Cu18	Cu	1.985065	0.683635	0.355946
O19	O	1.476632	0.365215	0.121782
O20	O	1.976632	0.865215	0.621782
C21	C	1.255526	0.190759	-0.000011
C22	C	1.755526	0.690759	0.499989
C23	C	1.116083	0.187089	-0.000011
C24	C	1.616083	0.687089	0.499989
C25	C	1.492267	-0.044437	-0.000008
C26	C	1.992267	0.455563	0.499992
C27	C	1.488596	-0.182992	-0.000013
C28	C	1.988596	0.317008	0.499987
C29	C	0.919543	0.181911	0.132765
C30	C	1.419543	0.681911	0.632765
C31	C	1.050563	0.185366	0.132773
C32	C	1.550563	0.685366	0.632773
C33	C	1.050575	0.185368	-0.132812
C34	C	1.550575	0.685368	0.367188
C35	C	0.919557	0.181922	-0.132818
C36	C	1.419557	0.681922	0.367182
C37	C	0.919537	0.181905	0.286098
C38	C	1.419537	0.681905	0.786098
C39	C	1.050558	0.185360	0.286107
C40	C	1.550558	0.685360	0.786107
C41	C	1.595565	-0.257957	-0.000016
C42	C	2.095565	0.242043	0.499984
C43	C	1.591774	-0.401161	-0.000021
C44	C	2.091774	0.098839	0.499979
C45	C	1.714602	0.176517	-0.000016
C46	C	2.214602	0.676517	0.499984
C47	C	1.854044	0.180187	-0.000026
C48	C	2.354044	0.680187	0.499974
C49	C	1.477861	0.411712	-0.000019
C50	C	1.977861	0.911712	0.499981
C51	C	1.481532	0.550267	-0.000023
C52	C	1.981532	1.050267	0.499977
N53	N	1.485070	0.183644	0.346653
N54	N	1.985070	0.683644	0.846653
N55	N	1.485068	0.183621	-0.346676
N56	N	1.985068	0.683621	0.153324
C57	C	1.569742	0.099576	0.423307
C58	C	2.069742	0.599576	0.923307
C59	C	1.569739	0.099561	0.576644
C60	C	2.069739	0.599561	1.076644
C61	C	1.400387	0.267694	0.576659
C62	C	1.900387	0.767694	1.076659
C63	C	1.400385	0.267702	0.423325
C64	C	1.900385	0.767702	0.923325
C65	C	1.667520	0.002508	0.423299
C66	C	2.167520	0.502508	0.923299
C67	C	1.667516	0.002493	0.576636
C68	C	2.167516	0.502493	1.076636
H69	H	0.866231	0.180533	-0.240949
H70	H	1.366231	0.680533	0.259051
H71	H	1.683347	-0.465579	-0.000016
H72	H	2.183347	0.034421	0.499984
Br73	Br	1.331268	-0.252709	-0.000034
Br74	Br	1.831268	0.247291	0.499966
Br75	Br	1.616667	-0.148568	0.655905
Br76	Br	2.116667	0.351432	1.155905
Br77	Br	1.828367	0.038115	0.646013
Br78	Br	2.328367	0.538115	1.146013
Br79	Br	1.285449	0.381776	0.319290
Br80	Br	1.785449	0.881776	0.819290
H81	H	1.389953	-0.385322	-0.000011
H82	H	1.889953	0.114678	0.499989
H83	H	0.873240	0.268143	0.344971
H84	H	1.373240	0.768143	0.844971
H85	H	1.331438	0.336131	0.639102
H86	H	1.831438	0.836131	1.139102
Br87	Br	1.139492	0.187724	-0.313021
Br88	Br	1.639492	0.687724	0.186979
H89	H	0.889977	0.090892	0.333673
H90	H	1.389977	0.590892	0.833673
H91	H	1.080108	0.276379	0.333684
H92	H	1.580108	0.776379	0.833684
Br93	Br	1.631808	-0.157355	0.353920
Br94	Br	2.131808	0.342645	0.853920
H95	H	1.096854	0.099117	0.344975
H96	H	1.596854	0.599117	0.844975
H97	H	1.689952	-0.216120	-0.000007
H98	H	2.189952	0.283880	0.499993
H99	H	1.758699	0.032903	0.375740
H100	H	2.258699	0.532903	0.875740
