data_functionalizedCrystal
_audit_creation_method	'MofGen! by Chris Wilmer'
_symmetry_space_group_name_H-M	'P1'
_symmetry_Int_Tables_number	1
_symmetry_cell_setting	triclinic
loop_
_symmetry_equiv_pos_as_xyz
  x,y,z
_cell_length_a	12.759401
_cell_length_b	19.120786
_cell_length_c	12.759393
_cell_angle_alpha	92.477119
_cell_angle_beta	90.018496
_cell_angle_gamma	92.465417
loop_
_atom_site_label
_atom_site_type_symbol
_atom_site_fract_x
_atom_site_fract_y
_atom_site_fract_z
Zn1	Zn	1.588335	-0.279587	0.576097
Zn2	Zn	2.088335	0.220413	1.076097
Zn3	Zn	1.580700	-0.397064	0.392903
Zn4	Zn	2.080700	0.102936	0.892903
Zn5	Zn	1.412635	-0.279624	0.400435
Zn6	Zn	1.912635	0.220376	0.900435
Zn7	Zn	1.405099	-0.397010	0.568548
Zn8	Zn	1.905099	0.102990	1.068548
O9	O	1.496692	-0.338321	0.484496
O10	O	1.996692	0.161679	0.984496
O11	O	1.734343	-0.295178	0.551804
O12	O	2.234343	0.204822	1.051804
O13	O	1.558364	-0.381523	0.246879
O14	O	2.058364	0.118477	0.746879
O15	O	1.442291	-0.181328	0.430048
O16	O	1.942291	0.318672	0.930048
O17	O	1.728733	-0.381488	0.417212
O18	O	2.228733	0.118512	0.917212
O19	O	1.571377	-0.181301	0.559107
O20	O	2.071377	0.318699	1.059107
O21	O	1.434887	-0.295241	0.252412
O22	O	1.934887	0.204759	0.752412
O23	O	1.264615	-0.295188	0.422728
O24	O	1.764615	0.204812	0.922728
O25	O	1.429448	-0.381396	0.716573
O26	O	1.929448	0.118604	1.216573
O27	O	1.259078	-0.381431	0.546240
O28	O	1.759078	0.118569	1.046240
O29	O	1.564070	-0.295126	0.722120
O30	O	2.064070	0.204874	1.222120
O31	O	1.551057	-0.495348	0.409892
O32	O	2.051057	0.004652	0.909892
O33	O	1.422044	-0.495308	0.538937
O34	O	1.922044	0.004692	1.038937
C35	C	1.223726	-0.338308	0.484482
C36	C	1.723726	0.161692	0.984482
C37	C	1.106948	-0.338320	0.484500
C38	C	1.606948	0.161680	0.984500
C39	C	1.049227	-0.383298	0.548698
C40	C	1.549227	0.116702	1.048698
C41	C	0.939502	-0.383307	0.548708
C42	C	1.439502	0.116693	1.048708
C43	C	0.945231	-0.293357	0.420316
C44	C	1.445231	0.206643	0.920316
C45	C	1.054953	-0.293345	0.420312
C46	C	1.554953	0.206655	0.920312
C47	C	1.101221	-0.428273	0.612887
C48	C	1.601221	0.071727	1.112887
C49	C	1.043499	-0.473256	0.677088
C50	C	1.543499	0.026744	1.177088
C51	C	0.933775	-0.473265	0.677099
C52	C	1.433775	0.026735	1.177099
C53	C	0.881772	-0.428291	0.612908
C54	C	1.381772	0.071709	1.112908
C55	C	1.484933	-0.520814	0.472801
C56	C	1.984933	-0.020814	0.972801
C57	C	1.479998	-0.598885	0.467833
C58	C	1.979998	-0.098885	0.967833
C59	C	1.544838	-0.635488	0.532747
C60	C	2.044838	-0.135488	1.032747
C61	C	1.540197	-0.708844	0.528081
C62	C	2.040197	-0.208844	1.028081
C63	C	1.470721	-0.745595	0.458494
C64	C	1.970721	-0.245595	0.958494
C65	C	1.405874	-0.708987	0.393577
C66	C	1.905874	-0.208987	0.893577
C67	C	1.410510	-0.635632	0.398249
C68	C	1.910510	-0.135632	0.898249
C69	C	1.453358	-0.967082	0.441028
C70	C	1.953358	-0.467082	0.941028
C71	C	1.448729	-1.040442	0.436358
C72	C	1.948729	-0.540442	0.936358
C73	C	1.583052	-1.040294	0.570864
C74	C	2.083052	-0.540294	1.070864
C75	C	1.587686	-0.966938	0.575526
C76	C	2.087686	-0.466938	1.075526
C77	C	1.522835	-0.930336	0.510612
C78	C	2.022835	-0.430336	1.010612
C79	C	1.465978	-0.820577	0.453721
C80	C	1.965978	-0.320577	0.953721
C81	C	1.527574	-0.855356	0.515392
C82	C	2.027574	-0.355356	1.015392
C83	C	1.770725	-0.338335	0.484510
C84	C	2.270725	0.161665	0.984510
C85	C	1.887501	-0.338341	0.484516
C86	C	2.387501	0.161659	0.984516
C87	C	1.496770	-0.338251	0.758534
C88	C	1.996770	0.161749	1.258534
C89	C	1.496804	-0.338220	0.875312
C90	C	1.996804	0.161780	1.375312
C91	C	1.508526	-0.155117	0.496260
C92	C	2.008526	0.344883	0.996260
C93	C	1.513569	-0.077046	0.501273
C94	C	2.013569	0.422954	1.001273
C95	C	1.496678	-0.338341	0.211527
C96	C	1.996678	0.161659	0.711527
C97	C	1.496861	-0.338174	0.094762
C98	C	1.996861	0.161826	0.594762
C99	C	1.566911	-0.293295	0.933065
C100	C	2.066911	0.206705	1.433065
C101	C	1.566938	-0.293270	1.042790
C102	C	2.066938	0.206730	1.542790
C103	C	1.426746	-0.383101	1.037002
C104	C	1.926746	0.116899	1.537002
C105	C	1.426715	-0.383122	0.927278
C106	C	1.926715	0.116878	1.427278
C107	C	1.636999	-0.248394	0.881099
C108	C	2.136999	0.251606	1.381099
C109	C	1.707113	-0.203465	0.938851
C110	C	2.207113	0.296535	1.438851
C111	C	1.707140	-0.203440	1.048577
C112	C	2.207140	0.296560	1.548577
C113	C	1.637053	-0.248343	1.100550
C114	C	2.137053	0.251657	1.600550
H115	H	0.902881	-0.256742	0.368054
H116	H	1.402881	0.243258	0.868054
H117	H	1.764170	-0.166903	0.896527
H118	H	2.264170	0.333097	1.396527
C119	C	1.118451	-0.243869	0.349688
C120	C	1.618451	0.256131	0.849688
N121	N	1.166277	-0.206601	0.296493
N122	N	1.666277	0.293399	0.796493
H123	H	0.886780	-0.509887	0.729382
H124	H	1.386780	-0.009887	1.229382
C125	C	1.621270	-0.595068	0.609297
C126	C	2.121270	-0.095068	1.109297
N127	N	1.678838	-0.564626	0.666960
N128	N	2.178838	-0.064626	1.166960
H129	H	1.409413	-0.850508	0.397060
H130	H	1.909413	-0.350508	0.897060
H131	H	1.637068	-0.248310	1.189897
H132	H	2.137068	0.251690	1.689897
C133	C	1.636973	-0.248415	0.760399
C134	C	2.136973	0.251585	1.260399
N135	N	1.636952	-0.248432	0.669487
N136	N	2.136952	0.251568	1.169487
H137	H	1.764223	-0.166852	1.095596
H138	H	2.264223	0.333148	1.595596
C139	C	1.603997	-0.814927	0.591933
C140	C	2.103997	-0.314927	1.091933
N141	N	1.661564	-0.784470	0.649580
N142	N	2.161564	-0.284470	1.149580
C143	C	1.349657	-0.432491	1.094177
C144	C	1.849657	0.067509	1.594177
N145	N	1.291593	-0.469694	1.137241
N146	N	1.791593	0.030306	1.637241
C147	C	1.349598	-0.432546	0.863747
C148	C	1.849598	0.067454	1.363747
N149	N	1.291512	-0.469772	0.815895
N150	N	1.791512	0.030228	1.315895
H151	H	1.357710	-0.605830	0.345390
H152	H	1.857710	-0.105830	0.845390
H153	H	1.349301	-0.738915	0.336922
H154	H	1.849301	-0.238915	0.836922
C155	C	1.221919	-0.428285	0.612854
C156	C	1.721919	0.071715	1.112854
N157	N	1.312828	-0.428299	0.612817
N158	N	1.812828	0.071701	1.112817
C159	C	1.654375	-1.080563	0.642271
C160	C	2.154375	-0.580563	1.142271
N161	N	1.708096	-1.110893	0.696061
N162	N	2.208096	-0.610893	1.196061
H163	H	1.400556	-0.937287	0.388171
H164	H	1.900556	-0.437287	0.888171
H165	H	0.792427	-0.428296	0.612932
H166	H	1.292427	0.071704	1.112932
C167	C	1.664134	-0.926518	0.652057
C168	C	2.164134	-0.426518	1.152057
N169	N	1.721726	-0.896072	0.709693
N170	N	2.221726	-0.396072	1.209693
C171	C	1.100704	-0.522723	0.747695
C172	C	1.600704	-0.022723	1.247695
N173	N	1.143790	-0.559984	0.800877
N174	N	1.643790	-0.059984	1.300877
H175	H	1.593005	-0.738643	0.580933
H176	H	2.093005	-0.238643	1.080933
H177	H	1.392148	-1.070363	0.379691
H178	H	1.892148	-0.570363	0.879691
