data_functionalizedCrystal
_audit_creation_method	'MofGen! by Chris Wilmer'
_symmetry_space_group_name_H-M	'P1'
_symmetry_Int_Tables_number	1
_symmetry_cell_setting	triclinic
loop_
_symmetry_equiv_pos_as_xyz
  x,y,z
_cell_length_a	18.101398
_cell_length_b	18.101397
_cell_length_c	18.101389
_cell_angle_alpha	89.975007
_cell_angle_beta	89.977624
_cell_angle_gamma	90.015732
loop_
_atom_site_label
_atom_site_type_symbol
_atom_site_fract_x
_atom_site_fract_y
_atom_site_fract_z
Zn1	Zn	1.132162	-0.294972	-0.418825
Zn2	Zn	1.132085	-0.418806	-0.294978
Zn3	Zn	1.008325	-0.294973	-0.294986
Zn4	Zn	1.008294	-0.418766	-0.418767
O5	O	1.070216	-0.356879	-0.356889
O6	O	1.235784	-0.311415	-0.402418
O7	O	1.115648	-0.402397	-0.191346
O8	O	1.024797	-0.191340	-0.311442
O9	O	1.235728	-0.402396	-0.311428
O10	O	1.115779	-0.191339	-0.402426
O11	O	1.024722	-0.311417	-0.191352
O12	O	0.904688	-0.311378	-0.311385
O13	O	1.024745	-0.402327	-0.522407
O14	O	0.904665	-0.402328	-0.402326
O15	O	1.115750	-0.311376	-0.522450
O16	O	1.115619	-0.522434	-0.311371
O17	O	1.024670	-0.522404	-0.402318
C18	C	0.877806	-0.356849	-0.356850
C19	C	0.795492	-0.356854	-0.356851
C20	C	0.496401	-0.356900	-0.356914
C21	C	0.527715	-0.299391	-0.299975
C22	C	0.613333	-0.299545	-0.299732
C23	C	0.644783	-0.356877	-0.356883
C24	C	0.613680	-0.434886	-0.335555
C25	C	0.528035	-0.434567	-0.335159
C26	C	0.528009	-0.337079	-0.435314
C27	C	0.613659	-0.335341	-0.434886
C28	C	0.728643	-0.356868	-0.356867
C29	C	0.412541	-0.356914	-0.356928
C30	C	1.070153	-0.549290	-0.356853
C31	C	1.070194	-0.631604	-0.356863
C32	C	1.070288	-0.930695	-0.356930
C33	C	1.127351	-0.899357	-0.299555
C34	C	1.127548	-0.813739	-0.299704
C35	C	1.070241	-0.782312	-0.356896
C36	C	1.091394	-0.813329	-0.434959
C37	C	1.091836	-0.898974	-0.434646
C38	C	0.991920	-0.899195	-0.336918
C39	C	0.992307	-0.813546	-0.335175
C40	C	1.070213	-0.698453	-0.356881
C41	C	1.070318	-1.014554	-0.356950
C42	C	1.263378	-0.356910	-0.356928
C43	C	1.345692	-0.356923	-0.356945
C44	C	1.070252	-0.356847	-0.550051
C45	C	1.070268	-0.356833	-0.632365
C46	C	1.070300	-0.163717	-0.356941
C47	C	1.070336	-0.081403	-0.356964
C48	C	1.070296	-0.356776	-0.783074
C49	C	1.013047	-0.413988	-0.814400
C50	C	1.012839	-0.413787	-0.900019
C51	C	1.070323	-0.356720	-0.931456
C52	C	1.049422	-0.278624	-0.900376
C53	C	1.048990	-0.278987	-0.814731
C54	C	1.148596	-0.376966	-0.814648
C55	C	1.148192	-0.378655	-0.900298
C56	C	1.070340	-0.356684	-1.015316
C57	C	1.070277	-0.356807	-0.699214
C58	C	1.070223	-0.356858	-0.164479
C59	C	1.070351	-0.356663	-0.082165
H60	H	0.507759	-0.378966	-0.477738
C61	C	0.641210	-0.494328	-0.389818
N62	N	0.661950	-0.539099	-0.430688
C63	C	0.498858	-0.261564	-0.461506
N64	N	0.476904	-0.204682	-0.481225
C65	C	0.498598	-0.316881	-0.221951
N66	N	0.476664	-0.330057	-0.163184
C67	C	1.169226	-0.925894	-0.457537
N68	N	1.227519	-0.946166	-0.474776
C69	C	1.104018	-0.219432	-0.927910
N70	N	1.145135	-0.174847	-0.948659
H71	H	0.507320	-0.478866	-0.374821
C72	C	1.208882	-0.326466	-0.929200
N73	N	1.254591	-0.287150	-0.950966
H74	H	0.635100	-0.451989	-0.278859
C75	C	1.167919	-0.784290	-0.458244
N76	N	1.225560	-0.762419	-0.475778
H77	H	0.954827	-0.400388	-0.920502
H78	H	0.633992	-0.277935	-0.450968
H79	H	1.051103	-0.792970	-0.478857
H80	H	1.185599	-0.793201	-0.312946
H81	H	0.955358	-0.400767	-0.792872
H82	H	1.052094	-0.919701	-0.478868
C83	C	0.642578	-0.387811	-0.495271
N84	N	0.664357	-0.427338	-0.540750
C85	C	0.965925	-0.928441	-0.261346
N86	N	0.946354	-0.950469	-0.204422
H87	H	1.114315	-0.792770	-0.241822
H88	H	1.114277	-0.919994	-0.241500
H89	H	0.991763	-0.261905	-0.794749
H90	H	0.507134	-0.241367	-0.313197
H91	H	0.992831	-0.261232	-0.921821
C92	C	1.206217	-0.320678	-0.787274
N93	N	1.249612	-0.278280	-0.766651
H94	H	1.025934	-0.472087	-0.793802
C95	C	1.102889	-0.219414	-0.786733
N96	N	1.143482	-0.174541	-0.765648
C97	C	1.174354	-0.452621	-0.785469
N98	N	1.193747	-0.509607	-0.763492
C99	C	0.640974	-0.317251	-0.221251
N100	N	0.661793	-0.330591	-0.162135
H101	H	1.185084	-0.920831	-0.312645
H102	H	0.508028	-0.451377	-0.277844
C103	C	0.931778	-0.784654	-0.387494
N104	N	0.886190	-0.762894	-0.426907
C105	C	0.641745	-0.221393	-0.317783
N106	N	0.663141	-0.162524	-0.331375
C107	C	0.970752	-0.786159	-0.257570
N108	N	0.954517	-0.765523	-0.199119
H109	H	0.949404	-0.919462	-0.378706
H110	H	1.163956	-0.436131	-0.920609
H111	H	1.025887	-0.471689	-0.921032
