data_functionalizedCrystal
_audit_creation_method	'MofGen! by Chris Wilmer'
_symmetry_space_group_name_H-M	'P1'
_symmetry_Int_Tables_number	1
_symmetry_cell_setting	triclinic
loop_
_symmetry_equiv_pos_as_xyz
  x,y,z
_cell_length_a	9.482900
_cell_length_b	10.723024
_cell_length_c	10.723024
_cell_angle_alpha	84.467869
_cell_angle_beta	80.597930
_cell_angle_gamma	99.401563
loop_
_atom_site_label
_atom_site_type_symbol
_atom_site_fract_x
_atom_site_fract_y
_atom_site_fract_z
O1	O	-0.120882	-1.676507	-0.155695
O2	O	-0.120887	-1.313356	-0.172447
O3	O	-0.120879	-1.503307	0.017504
O4	O	-0.120890	-1.486556	-0.345646
O5	O	0.120912	-1.464649	-0.021159
O6	O	0.120904	-1.274697	-0.211111
O7	O	0.120909	-1.637849	-0.194358
Cu8	Cu	0.142984	-1.452743	-0.206265
Cu9	Cu	-0.142962	-1.498461	-0.160541
O10	O	0.120901	-1.447897	-0.384310
C11	C	0.000008	-1.247527	-0.190560
C12	C	0.000007	-1.108973	-0.186912
N13	N	0.344103	-1.420596	-0.238424
N14	N	-0.344081	-1.530618	-0.128372
C15	C	0.583717	-1.462243	-0.196776
C16	C	0.416301	-1.488981	-0.170009
C17	C	0.000015	-1.482759	0.044673
C18	C	0.000010	-1.479112	0.183228
C19	C	0.000011	-1.703678	-0.176245
C20	C	0.000003	-1.842234	-0.179892
C21	C	0.000002	-1.033991	-0.293199
C22	C	0.000001	-0.890788	-0.289431
C23	C	0.000004	-1.468446	-0.411477
C24	C	-0.000000	-1.472094	-0.550031
C25	C	0.000009	-1.585400	0.258210
C26	C	0.000004	-1.581633	0.401415
H27	H	0.354180	-1.567314	-0.091620
C28	C	0.000008	-0.929259	-0.056956
C29	C	0.125566	-1.002531	-0.048272
C30	C	0.125570	-1.089567	0.074663
C31	C	0.000018	-1.103331	0.188914
C32	C	-0.125549	-1.030057	0.180234
C33	C	-0.125554	-0.943021	0.057299
H34	H	0.218516	-0.992344	-0.132851
H35	H	0.218524	-1.143810	0.081088
H36	H	0.000021	-1.167760	0.279918
H37	H	-0.218499	-1.040244	0.264813
H38	H	-0.218508	-0.888778	0.050874
C39	C	0.000005	-1.352406	0.239712
C40	C	0.125560	-1.239092	0.190392
C41	C	0.125555	-1.112382	0.246873
C42	C	-0.000004	-1.098985	0.352674
C43	C	-0.125568	-1.212302	0.402000
C44	C	-0.125563	-1.339012	0.345519
H45	H	0.218515	-1.249006	0.112067
H46	H	0.218507	-1.028497	0.210358
H47	H	-0.000007	-1.005186	0.394484
H48	H	-0.218523	-1.202388	0.480325
H49	H	-0.218515	-1.422897	0.382034
H50	H	0.645842	-1.383906	-0.275151
H51	H	0.406224	-1.342254	-0.316804
H52	H	0.593793	-1.608946	-0.049988
H53	H	0.000008	-1.075812	-0.386985
H54	H	-0.000028	-1.067156	-0.093120
H55	H	-0.000009	-0.826357	-0.380420
H56	H	0.000019	-1.679184	0.216387
H57	H	0.000010	-1.672623	0.465846
H58	H	0.000010	-1.381097	0.385542
