data_functionalizedCrystal
_audit_creation_method	'MofGen! by Chris Wilmer'
_symmetry_space_group_name_H-M	'P1'
_symmetry_Int_Tables_number	1
_symmetry_cell_setting	triclinic
loop_
_symmetry_equiv_pos_as_xyz
  x,y,z
_cell_length_a	19.188905
_cell_length_b	19.188930
_cell_length_c	15.021413
_cell_angle_alpha	89.998889
_cell_angle_beta	89.985589
_cell_angle_gamma	83.139668
loop_
_atom_site_label
_atom_site_type_symbol
_atom_site_fract_x
_atom_site_fract_y
_atom_site_fract_z
O1	O	0.926160	0.087075	-0.074189
O2	O	1.426160	0.587075	0.425811
O3	O	0.722846	0.098828	-0.074160
O4	O	1.222846	0.598828	0.425840
O5	O	0.830370	-0.008705	-0.074158
O6	O	1.330370	0.491295	0.425842
O7	O	0.818636	0.194607	-0.074191
O8	O	1.318636	0.694607	0.425809
O9	O	0.830353	-0.008690	0.073907
O10	O	1.330353	0.491310	0.573907
O11	O	0.722829	0.098843	0.073905
O12	O	1.222829	0.598843	0.573905
O13	O	0.926143	0.087090	0.073876
O14	O	1.426143	0.587090	0.573876
Zn15	Zn	0.824483	0.092969	0.097398
Zn16	Zn	1.324483	0.592969	0.597398
Zn17	Zn	0.824506	0.092949	-0.097683
Zn18	Zn	1.324506	0.592949	0.402317
O19	O	0.818619	0.194623	0.073874
O20	O	1.318619	0.694623	0.573874
C21	C	0.696826	0.098458	-0.000124
C22	C	1.196826	0.598458	0.499876
C23	C	0.619321	0.097324	-0.000112
C24	C	1.119321	0.597324	0.499888
C25	C	0.582938	0.096771	-0.080824
C26	C	1.082938	0.596771	0.419176
C27	C	0.510115	0.095698	-0.080835
C28	C	1.010115	0.595698	0.419165
C29	C	0.473678	0.095164	-0.000129
C30	C	0.973678	0.595164	0.499871
C31	C	0.510069	0.095721	0.080594
C32	C	1.010069	0.595721	0.580594
C33	C	0.582890	0.096801	0.080602
C34	C	1.082890	0.596801	0.580602
N35	N	0.364651	0.053741	0.059939
N36	N	0.864651	0.553741	0.559939
N37	N	0.295474	0.052714	0.059926
N38	N	0.795474	0.552714	0.559926
C39	C	0.254272	0.091911	-0.000150
C40	C	0.754272	0.591911	0.499850
N41	N	0.284861	0.132166	-0.060225
N42	N	0.784861	0.632166	0.439775
N43	N	0.354044	0.133190	-0.060214
N44	N	0.854044	0.633190	0.439786
C45	C	0.394716	0.093993	-0.000129
C46	C	0.894716	0.593993	0.499871
C47	C	0.138925	0.090196	-0.080879
C48	C	0.638925	0.590196	0.419121
C49	C	0.066100	0.089127	-0.080887
C50	C	0.566100	0.589127	0.419113
C51	C	0.066056	0.089143	0.080544
C52	C	0.566056	0.589143	0.580544
C53	C	0.138879	0.090219	0.080549
C54	C	0.638879	0.590219	0.580549
C55	C	0.175310	0.090742	-0.000165
C56	C	0.675310	0.590742	0.499835
C57	C	0.829982	-0.034708	-0.000123
C58	C	1.329982	0.465292	0.499877
C59	C	0.828841	-0.112213	-0.000115
C60	C	1.328841	0.387787	0.499885
C61	C	0.891933	-0.157142	-0.000120
C62	C	1.391933	0.342858	0.499880
C63	C	0.890861	-0.229966	-0.000134
C64	C	1.390861	0.270034	0.499866
C65	C	0.826694	-0.257857	-0.000125
C66	C	1.326694	0.242143	0.499875
C67	C	0.763594	-0.212917	-0.000126
C68	C	1.263594	0.287083	0.499874
C69	C	0.764668	-0.140095	-0.000120
C70	C	1.264668	0.359905	0.499880
N71	N	0.777640	-0.365852	0.050271
N72	N	1.277640	0.134148	0.550271
N73	N	0.776625	-0.435031	0.050268
N74	N	1.276625	0.064969	0.550268
C75	C	0.823456	-0.477265	-0.000143
C76	C	1.323456	0.022735	0.499857
N77	N	0.871351	-0.447709	-0.050539
N78	N	1.371351	0.052291	0.449461
N79	N	0.872369	-0.378524	-0.050532
N80	N	1.372369	0.121476	0.449468
C81	C	0.825523	-0.336819	-0.000132
C82	C	1.325523	0.163181	0.499868
C83	C	0.885390	-0.601159	-0.000164
C84	C	1.385390	-0.101159	0.499836
C85	C	0.884315	-0.673984	-0.000184
C86	C	1.384315	-0.173984	0.499816
C87	C	0.757047	-0.656933	-0.000167
C88	C	1.257047	-0.156933	0.499833
C89	C	0.758123	-0.584110	-0.000156
C90	C	1.258123	-0.084110	0.499844
C91	C	0.822296	-0.556228	-0.000151
C92	C	1.322296	-0.056228	0.499849
C93	C	0.952163	0.087460	-0.000162
C94	C	1.452163	0.587460	0.499838
C95	C	1.029668	0.088594	-0.000180
C96	C	1.529668	0.588594	0.499820
C97	C	0.819007	0.220626	-0.000163
C98	C	1.319007	0.720626	0.499837
C99	C	0.820148	0.298131	-0.000177
C100	C	1.320148	0.798131	0.499823
N101	N	0.824473	0.092982	0.230536
N102	N	1.324473	0.592982	0.730536
N103	N	0.824522	0.092930	-0.230820
N104	N	1.324522	0.592930	0.269180
C105	C	0.774746	0.142682	0.470218
C106	C	1.274746	0.642682	0.970218
C107	C	0.837795	0.156035	0.529541
C108	C	1.337795	0.656035	1.029541
C109	C	0.824491	0.092965	0.412143
C110	C	1.324491	0.592965	0.912143
C111	C	0.761459	0.079627	0.529562
C112	C	1.261459	0.579627	1.029562
C113	C	0.824502	0.092950	0.587567
C114	C	1.324502	0.592950	1.087567
C115	C	0.887572	0.106349	0.470159
C116	C	1.387572	0.606349	0.970159
C117	C	0.811194	0.029914	0.470175
C118	C	1.311194	0.529914	0.970175
C119	C	0.874288	0.043240	0.529471
C120	C	1.374288	0.543240	1.029471
C121	C	0.824483	0.092976	0.311086
C122	C	1.324483	0.592976	0.811086
C123	C	0.824517	0.092938	0.688622
C124	C	1.324517	0.592938	1.188622
H125	H	0.612596	0.097197	-0.146548
H126	H	1.112596	0.597197	0.353452
H127	H	0.940893	0.117687	0.444176
H128	H	1.440893	0.617687	0.944176
H129	H	0.036478	0.088681	-0.146615
H130	H	0.536478	0.588681	0.353385
O131	O	0.952370	-0.722446	-0.000181
O132	O	1.452370	-0.222446	0.499819
H133	H	0.983106	-0.712548	-0.060521
H134	H	1.483106	-0.212548	0.439479
H135	H	0.480397	0.095288	0.146305
H136	H	0.980397	0.595288	0.646305
O137	O	0.696616	-0.091629	-0.000111
O138	O	1.196616	0.408371	0.499889
H139	H	0.694059	-0.058046	0.060240
H140	H	1.194059	0.441954	0.560240
O141	O	0.852675	0.226655	0.564117
O142	O	1.352675	0.726655	1.064117
H143	H	0.859584	0.262020	0.507141
H144	H	1.359584	0.762020	1.007141
O145	O	0.470861	0.095087	-0.167891
O146	O	0.970861	0.595087	0.332109
H147	H	0.508429	0.095625	-0.224014
H148	H	1.008429	0.595625	0.275986
H149	H	0.036390	0.088712	0.146256
H150	H	0.536390	0.588712	0.646256
H151	H	0.612512	0.097252	0.146330
H152	H	1.112512	0.597252	0.646330
H153	H	0.706747	-0.547527	-0.000147
H154	H	1.206747	-0.047527	0.499853
H155	H	0.168503	0.090664	0.146274
H156	H	0.668503	0.590664	0.646274
H157	H	0.944187	-0.134445	-0.000118
H158	H	1.444187	0.365555	0.499882
H159	H	0.168588	0.090629	-0.146601
H160	H	0.668588	0.590629	0.353399
H161	H	0.708149	0.068354	0.555657
H162	H	1.208149	0.568354	1.055657
H163	H	0.732721	0.184760	0.444202
H164	H	1.232721	0.684760	0.944202
O165	O	0.958911	-0.278440	-0.000127
O166	O	1.458911	0.221560	0.499873
H167	H	1.003714	-0.246817	-0.000115
H168	H	1.503714	0.253183	0.499885
H169	H	0.799916	-0.023382	0.444078
H170	H	1.299916	0.476618	0.944078
O171	O	0.694383	-0.242993	-0.000106
O172	O	1.194383	0.257007	0.499894
H173	H	0.704235	-0.301179	-0.000098
H174	H	1.204235	0.198821	0.499902
H175	H	0.916407	0.001187	0.555324
H176	H	1.416407	0.501187	1.055324
O177	O	0.954600	-0.571076	-0.000176
O178	O	1.454600	-0.071076	0.499824
H179	H	0.998294	-0.614557	-0.000199
H180	H	1.498294	-0.114557	0.499801
H181	H	0.704801	-0.679641	-0.000164
H182	H	1.204801	-0.179641	0.499836
