data_functionalizedCrystal
_audit_creation_method	'MofGen! by Chris Wilmer'
_symmetry_space_group_name_H-M	'P1'
_symmetry_Int_Tables_number	1
_symmetry_cell_setting	triclinic
loop_
_symmetry_equiv_pos_as_xyz
  x,y,z
_cell_length_a	18.050590
_cell_length_b	14.908780
_cell_length_c	14.908308
_cell_angle_alpha	90.212689
_cell_angle_beta	93.264736
_cell_angle_gamma	86.692378
loop_
_atom_site_label
_atom_site_type_symbol
_atom_site_fract_x
_atom_site_fract_y
_atom_site_fract_z
Zn1	Zn	-0.259785	-1.345323	-0.587856
Zn2	Zn	-0.376436	-1.353909	-0.437492
Zn3	Zn	-0.258978	-1.203637	-0.428824
Zn4	Zn	-0.390653	-1.194935	-0.579109
O5	O	-0.321463	-1.274451	-0.508320
O6	O	-0.269647	-1.472290	-0.575198
O7	O	-0.354567	-1.341210	-0.310520
O8	O	-0.155159	-1.222481	-0.449952
O9	O	-0.355350	-1.478597	-0.464727
O10	O	-0.155753	-1.326577	-0.566793
O11	O	-0.268271	-1.230805	-0.304151
O12	O	-0.282056	-1.076655	-0.441471
O13	O	-0.379580	-1.207650	-0.706092
O14	O	-0.378797	-1.070262	-0.551885
O15	O	-0.283432	-1.318139	-0.712519
O16	O	-0.482247	-1.332772	-0.456245
O17	O	-0.492692	-1.215975	-0.560291
C18	C	-0.331883	-1.040833	-0.494789
C19	C	-0.336359	-0.940889	-0.489021
C20	C	-0.255667	-0.746503	-0.593393
C21	C	-0.259871	-0.652597	-0.587977
C22	C	-0.348966	-0.659168	-0.472769
C23	C	-0.344762	-0.753074	-0.478185
C24	C	-0.298112	-0.796739	-0.538500
C25	C	-0.293913	-0.890647	-0.543920
C26	C	-0.383003	-0.897216	-0.428708
C27	C	-0.387207	-0.803310	-0.423292
C28	C	-0.514416	-1.274384	-0.508280
C29	C	-0.596960	-1.274436	-0.508298
C30	C	-0.790703	-1.338070	-0.451809
C31	C	-0.843173	-1.355297	-0.535140
C32	C	-0.748090	-1.274485	-0.508337
C33	C	-0.842699	-1.257347	-0.425048
C34	C	-0.894074	-1.274534	-0.508367
C35	C	-0.799474	-1.291751	-0.591714
C36	C	-0.798994	-1.193766	-0.481564
C37	C	-0.851447	-1.210959	-0.564950
C38	C	-0.663992	-1.274459	-0.508319
C39	C	-0.978171	-1.274560	-0.508395
C40	C	-0.127756	-1.274542	-0.508381
C41	C	-0.045209	-1.274580	-0.508407
C42	C	-0.333182	-1.260966	-0.742842
C43	C	-0.338176	-1.255220	-0.842781
C44	C	-0.310996	-0.508982	-0.521899
C45	C	-0.306519	-0.608926	-0.527668
C46	C	-0.247425	-1.359472	-1.037271
C47	C	-0.252115	-1.354075	-1.131173
C48	C	-0.352242	-1.239027	-1.124489
C49	C	-0.347552	-1.244423	-1.030587
C50	C	-0.295142	-1.304649	-0.986981
C51	C	-0.290457	-1.310049	-0.893078
C52	C	-0.390580	-1.194996	-0.886395
C53	C	-0.395269	-1.189600	-0.980297
C54	C	-0.309733	-1.287935	-0.274714
C55	C	-0.304522	-1.293856	-0.174785
H56	H	-0.255929	-0.926196	-0.593033
H57	H	-0.204755	-1.408514	-1.001767
Cl58	Cl	-0.873254	-1.460722	-0.570147
Cl59	Cl	-0.768873	-1.088372	-0.446541
H60	H	-0.417571	-0.938128	-0.384017
H61	H	-0.861788	-1.242831	-0.354599
Cl62	Cl	-0.770144	-1.314300	-0.700518
Cl63	Cl	-0.445847	-0.748409	-0.347469
H64	H	-0.247783	-1.359089	-0.857576
Cl65	Cl	-0.197031	-0.801398	-0.669224
Cl66	Cl	-0.192123	-1.422998	-1.194392
H67	H	-0.394910	-1.189994	-1.160009
Cl68	Cl	-0.892137	-1.127967	-0.638861
Cl69	Cl	-0.450579	-1.126081	-0.823169
Cl70	Cl	-0.206508	-0.589446	-0.656987
Cl71	Cl	-0.407597	-0.604261	-0.396940
H72	H	-0.437938	-1.140564	-1.015813
Cl73	Cl	-0.749809	-1.421107	-0.378085
