data_functionalizedCrystal
_audit_creation_method	'MofGen! by Chris Wilmer'
_symmetry_space_group_name_H-M	'P1'
_symmetry_Int_Tables_number	1
_symmetry_cell_setting	triclinic
loop_
_symmetry_equiv_pos_as_xyz
  x,y,z
_cell_length_a	13.339070
_cell_length_b	10.540539
_cell_length_c	11.804365
_cell_angle_alpha	101.953828
_cell_angle_beta	74.875130
_cell_angle_gamma	100.077393
loop_
_atom_site_label
_atom_site_type_symbol
_atom_site_fract_x
_atom_site_fract_y
_atom_site_fract_z
O1	O	1.367200	0.619505	-0.099049
O2	O	1.072067	0.535766	-0.099045
O3	O	1.226367	0.395225	-0.099046
O4	O	1.212901	0.760047	-0.099049
O5	O	1.185745	0.432172	0.099010
O6	O	1.031446	0.572714	0.099011
O7	O	1.326579	0.656453	0.099007
Cu8	Cu	1.175303	0.617957	0.117093
Cu9	Cu	1.223343	0.574262	-0.117131
O10	O	1.172279	0.796994	0.099007
C11	C	1.013965	0.540095	-0.000017
C12	C	0.901358	0.497931	-0.000015
C13	C	0.538938	0.825770	-0.000037
C14	C	0.644738	0.865388	-0.000042
C15	C	0.708898	0.773527	-0.000035
C16	C	0.667248	0.642042	-0.000023
C17	C	0.561440	0.602418	-0.000028
C18	C	0.731400	0.550175	-0.000026
C19	C	0.689750	0.418690	-0.000014
C20	C	0.583951	0.379073	-0.000018
C21	C	0.519791	0.470934	-0.000025
C22	C	0.837208	0.589799	-0.000021
C23	C	0.859710	0.366447	-0.000012
C24	C	0.753910	0.326829	-0.000007
C25	C	1.205047	0.366051	-0.000020
C26	C	1.202026	0.224072	-0.000026
C27	C	1.086340	0.001099	-0.000469
C28	C	1.089311	0.148845	-0.000023
C29	C	1.233073	0.202001	0.113073
C30	C	1.229207	0.054163	0.113168
C31	C	1.277693	0.012410	-0.112059
C32	C	1.279038	0.159467	-0.113554
C33	C	1.384682	0.652124	-0.000024
C34	C	1.497290	0.694286	-0.000034
C35	C	1.193600	0.826168	-0.000021
C36	C	1.196622	0.968145	-0.000023
N37	N	1.141522	0.648691	0.281834
N38	N	1.257132	0.543521	-0.281872
C39	C	1.338253	0.469692	0.655781
C40	C	1.363807	0.446436	0.531120
C41	C	1.308237	0.496997	0.468792
C42	C	1.227110	0.570820	0.531138
C43	C	1.201559	0.594087	0.655812
C44	C	1.171544	0.621392	0.468823
C45	C	1.090417	0.695214	0.531169
C46	C	1.064869	0.718477	0.655831
C47	C	1.120438	0.667916	0.718159
C48	C	1.197095	0.598125	0.344149
C49	C	1.060402	0.722520	0.344180
C50	C	1.034847	0.745776	0.468842
H51	H	0.433639	0.438683	-0.000020
H52	H	1.063258	0.161776	-0.081097
H53	H	1.362617	0.210424	-0.120385
N54	N	0.539035	0.237256	-0.000012
H55	H	0.480576	0.229539	0.073405
H56	H	0.510762	0.202225	-0.073482
H57	H	0.911950	0.291645	-0.000012
H58	H	1.314985	0.253353	0.117277
H59	H	1.263149	0.538019	0.293398
H60	H	1.178130	0.247459	0.197238
H61	H	1.015154	0.763695	0.293434
H62	H	1.171778	0.028072	0.197713
N63	N	0.469739	0.924833	-0.000049
H64	H	0.512174	1.014141	-0.000054
H65	H	0.440420	0.899548	-0.073478
H66	H	1.058450	-0.057807	-0.081574
N67	N	1.335171	0.028470	0.119999
H68	H	1.364550	-0.035597	0.047508
H69	H	1.384114	0.113201	0.122975
N70	N	1.005682	-0.038996	0.106360
H71	H	1.040269	-0.078413	0.155045
H72	H	0.973788	0.040301	0.156773
H73	H	0.795045	0.805792	-0.000042
N74	N	1.092879	0.693011	0.852620
H75	H	1.017684	0.655784	0.882665
H76	H	1.140455	0.649777	0.882540
H77	H	0.871108	0.696856	-0.000026
N78	N	0.708981	0.185018	0.000013
H79	H	0.632221	0.173864	0.000013
H80	H	0.747444	0.129468	-0.073403
N81	N	1.451302	0.366821	0.463882
H82	H	1.422750	0.287146	0.412161
H83	H	1.507122	0.421754	0.412220
N84	N	0.947349	0.825395	0.536099
H85	H	0.975908	0.905069	0.587815
H86	H	0.916049	0.853805	0.477635
H87	H	1.329047	0.478058	0.367287
N88	N	1.010328	0.204840	0.107551
H89	H	0.938009	0.158230	0.104074
H90	H	1.028216	0.192641	0.182316
H91	H	0.998818	0.778600	0.706594
N92	N	1.385747	-0.013553	-0.113072
H93	H	1.412954	-0.075673	-0.188104
H94	H	1.434338	0.071474	-0.110386
N95	N	1.252671	-0.067034	-0.225612
H96	H	1.188521	-0.132534	-0.205575
H97	H	1.238871	-0.006892	-0.274690
H98	H	1.256509	0.171189	-0.197222
N99	N	0.689664	1.007189	-0.000072
H100	H	0.632968	1.059371	-0.000079
H101	H	0.718017	1.042204	0.073345
H102	H	1.383495	0.428540	0.706537
