data_functionalizedCrystal
_audit_creation_method	'MofGen! by Chris Wilmer'
_symmetry_space_group_name_H-M	'P1'
_symmetry_Int_Tables_number	1
_symmetry_cell_setting	triclinic
loop_
_symmetry_equiv_pos_as_xyz
  x,y,z
_cell_length_a	6.817900
_cell_length_b	15.300912
_cell_length_c	17.982968
_cell_angle_alpha	95.458167
_cell_angle_beta	102.451960
_cell_angle_gamma	104.173621
loop_
_atom_site_label
_atom_site_type_symbol
_atom_site_fract_x
_atom_site_fract_y
_atom_site_fract_z
V1	V	-4.018552	-0.125604	-0.237781
O2	O	-4.002679	0.005167	-0.233017
O3	O	-3.973532	-0.248215	-0.236384
O4	O	-3.965016	-0.124053	-0.341381
O5	O	-4.011253	-0.119855	-0.127292
V6	V	-4.502407	-0.109917	-0.224538
O7	O	-4.279081	-0.160014	-0.266831
O8	O	-4.692075	-0.075507	-0.195488
O9	O	-4.324221	0.012694	-0.225936
O10	O	-4.635676	-0.240687	-0.229302
O11	O	-4.627102	-0.115666	-0.335027
O12	O	-4.332736	-0.111468	-0.120938
C13	C	-3.819521	-0.278093	-0.232691
C14	C	-3.863964	-0.378332	-0.232239
C15	C	-4.237533	-0.814704	-0.234104
C16	C	-4.195755	-0.720517	-0.234523
C17	C	-3.992815	-0.668824	-0.230927
C18	C	-3.831639	-0.711321	-0.226904
C19	C	-3.873415	-0.805504	-0.226479
C20	C	-3.744578	-0.515013	-0.227792
C21	C	-3.702800	-0.420823	-0.228218
C22	C	-4.066919	-0.430026	-0.235836
C23	C	-4.108695	-0.524209	-0.235411
C24	C	-3.947516	-0.566700	-0.231389
C25	C	-3.808658	-0.119711	-0.366626
C26	C	-3.846192	-0.119254	-0.451321
C27	C	-4.045871	-0.123559	-0.495000
C28	C	-4.081127	-0.123129	-0.574580
C29	C	-3.916705	-0.118402	-0.610480
C30	C	-3.717008	-0.114095	-0.566794
C31	C	-3.681752	-0.114518	-0.487215
C32	C	-3.859188	-0.112387	-0.887728
C33	C	-3.894463	-0.111967	-0.967313
C34	C	-4.258564	-0.120998	-0.975093
C35	C	-4.223307	-0.121421	-0.895514
C36	C	-4.023613	-0.117109	-0.851835
C37	C	-3.985386	-0.117574	-0.765545
C38	C	-3.954932	-0.117944	-0.696769
C39	C	-4.141574	0.042568	-0.229626
C40	C	-4.076369	0.142806	-0.230083
C41	C	-4.152437	-0.115813	-0.095690
C42	C	-4.094141	-0.116265	-0.010994
H43	H	-4.326997	-0.685926	-0.237801
H44	H	-4.179771	-0.127414	-0.465778
H45	H	-4.273947	-0.566297	-0.238345
Br46	Br	-4.446466	-0.127845	-0.846798
Br47	Br	-3.654680	-0.863171	-0.221017
H48	H	-3.519144	-0.110991	-0.451648
H49	H	-4.402788	-0.856787	-0.237036
Br50	Br	-3.493858	-0.107677	-0.615514
H51	H	-4.421166	-0.124505	-1.010666
H52	H	-3.666396	-0.669224	-0.223971
Br53	Br	-4.352135	-0.128981	-0.633859
Br54	Br	-4.285668	-0.372363	-0.241301
H55	H	-3.537553	-0.378737	-0.225294
H56	H	-3.696606	-0.108908	-0.852178
H57	H	-3.613329	-0.549606	-0.224524
H58	H	-3.760557	-0.108115	-0.996540
