data_functionalizedCrystal
_audit_creation_method	'MofGen! by Chris Wilmer'
_symmetry_space_group_name_H-M	'P1'
_symmetry_Int_Tables_number	1
_symmetry_cell_setting	triclinic
loop_
_symmetry_equiv_pos_as_xyz
  x,y,z
_cell_length_a	27.354012
_cell_length_b	27.353283
_cell_length_c	27.349551
_cell_angle_alpha	60.005606
_cell_angle_beta	60.011434
_cell_angle_gamma	59.993282
loop_
_atom_site_label
_atom_site_type_symbol
_atom_site_fract_x
_atom_site_fract_y
_atom_site_fract_z
O1	O	0.067635	-0.714267	0.597330
O2	O	0.025429	-0.556105	0.481282
O3	O	0.125575	-0.656186	0.481214
O4	O	-0.032512	-0.614186	0.597397
O5	O	0.158797	-0.622968	0.514367
O6	O	0.058650	-0.522887	0.514434
O7	O	0.100856	-0.681048	0.630482
Zn8	Zn	0.085028	-0.596693	0.577722
Zn9	Zn	0.041257	-0.640460	0.534042
O10	O	0.000709	-0.580967	0.630549
N11	N	0.114901	-0.566828	0.607534
N12	N	0.011389	-0.670331	0.504229
C13	C	0.179404	-0.338196	0.672015
C14	C	0.179501	-0.502386	0.836160
C15	C	0.179415	-0.502363	0.671996
C16	C	0.343611	-0.502373	0.671960
C17	C	0.197478	-0.392371	0.690061
C18	C	0.197534	-0.484321	0.781984
C19	C	0.289434	-0.484312	0.690032
C20	C	0.197486	-0.484308	0.690051
C21	C	0.156398	-0.269238	0.649045
C22	C	0.156418	-0.525342	0.649015
C23	C	0.220484	-0.461329	0.713032
C24	C	0.443889	-0.485097	0.619172
C25	C	0.506571	-0.505993	0.598266
C26	C	0.506589	-0.607412	0.636940
C27	C	0.443909	-0.586515	0.657848
C28	C	0.171510	-0.237888	0.587422
C29	C	0.150593	-0.175201	0.566543
C30	C	0.099458	-0.175218	0.668913
C31	C	0.120375	-0.237905	0.689792
C32	C	0.094789	-0.510201	0.664176
C33	C	0.073888	-0.531091	0.643278
C34	C	0.176239	-0.582263	0.592072
C35	C	0.197142	-0.561373	0.612963
C36	C	0.094933	-0.510244	0.936476
C37	C	0.074073	-0.531151	0.999161
C38	C	0.176453	-0.582335	0.999126
C39	C	0.197312	-0.561429	0.936439
C40	C	0.156551	-0.525382	0.905116
C41	C	0.412561	-0.525357	0.648961
C42	C	-0.098513	-0.688235	0.485867
C43	C	-0.006461	-0.688368	0.394066
C44	C	-0.006645	-0.780264	0.486040
C45	C	-0.006630	-0.688361	0.486097
C46	C	-0.029562	-0.711308	0.463018
N47	N	0.537030	-0.566846	0.607436
O48	O	0.741877	-0.576849	0.459995
O49	O	0.742050	-0.693241	0.618010
O50	O	0.741986	-0.692977	0.517791
O51	O	0.741941	-0.577114	0.560214
O52	O	0.642405	-0.659839	0.551046
O53	O	0.642469	-0.660104	0.651265
O54	O	0.642296	-0.543712	0.493251
Zn55	Zn	0.626572	-0.596646	0.577538
Zn56	Zn	0.757774	-0.640307	0.533723
O57	O	0.642360	-0.543976	0.593469
N58	N	0.847316	-0.670107	0.503818
N59	N	0.114877	-0.144758	0.607577
O60	O	-0.032498	0.060193	0.597441
O61	O	0.125523	0.060193	0.481067
O62	O	0.025289	0.060179	0.481345
O63	O	0.067736	0.060207	0.597163
O64	O	0.058511	-0.039410	0.514543
O65	O	0.158745	-0.039397	0.514265
O66	O	0.000724	-0.039396	0.630638
Zn67	Zn	0.085009	-0.055208	0.577722
Zn68	Zn	0.041238	0.076005	0.533983
O69	O	0.100958	-0.039382	0.630360
N70	N	0.011362	0.165555	0.504130
N71	N	0.115121	-0.566884	1.029592
O72	O	0.104990	-0.714248	1.234528
O73	O	-0.011371	-0.556177	1.234539
O74	O	-0.011103	-0.656395	1.234497
O75	O	0.104722	-0.614030	1.234569
O76	O	0.022090	-0.623190	1.134913
O77	O	0.021822	-0.522972	1.134954
O78	O	0.138182	-0.681044	1.134943
Zn79	Zn	0.085272	-0.596736	1.119137
Zn80	Zn	0.041539	-0.640484	1.250344
O81	O	0.137914	-0.580826	1.134984
N82	N	0.011689	-0.670343	1.339890
C83	C	0.038085	-0.519567	0.481870
C84	C	0.162104	-0.643505	0.481786
C85	C	0.088200	-0.717587	0.629893
C86	C	-0.035819	-0.593649	0.629977
C87	C	0.692280	-0.692701	0.654545
C88	C	0.692203	-0.692374	0.530435
C89	C	0.692063	-0.544251	0.456717
C90	C	0.692144	-0.544580	0.580825
C91	C	0.162000	0.010521	0.481600
C92	C	0.037914	0.010381	0.481984
C93	C	-0.035795	0.010399	0.630065
C94	C	0.088333	0.010415	0.629722
C95	C	-0.010799	-0.519660	1.184747
C96	C	-0.010461	-0.643761	1.184677
C97	C	0.137610	-0.717561	1.184734
C98	C	0.137280	-0.593452	1.184783
H99	H	0.023897	-0.518815	1.024687
H100	H	0.207290	0.010797	0.444973
C101	C	0.692124	-0.495406	0.593084
C102	C	0.692173	-0.507665	0.654487
C103	C	0.692153	-0.458491	0.666746
C104	C	0.692085	-0.397059	0.617602
C105	C	0.692037	-0.384797	0.556195
C106	C	0.692056	-0.433971	0.543936
H107	H	0.692223	-0.553143	0.690870
H108	H	0.692189	-0.467568	0.712204
H109	H	0.692071	-0.360658	0.626677
H110	H	0.691987	-0.339319	0.519813
H111	H	0.692021	-0.424894	0.498478
H112	H	-0.081227	-0.584696	0.666460
C113	C	-0.060154	-0.458331	1.184751
C114	C	-0.120387	-0.454248	1.236451
C115	C	-0.169742	-0.392919	1.236455
C116	C	-0.158865	-0.335674	1.184757
C117	C	-0.098630	-0.339756	1.133052
C118	C	-0.049274	-0.401084	1.133049
H119	H	-0.128441	-0.496626	1.274725
H120	H	-0.214332	-0.389898	1.274730
H121	H	-0.195401	-0.290275	1.184759
H122	H	-0.090576	-0.297377	1.094779
H123	H	-0.004684	-0.404105	1.094773
C124	C	0.025644	0.010371	0.432828
C125	C	-0.035767	0.010366	0.445090
C126	C	-0.048037	0.010356	0.395933
C127	C	0.001105	0.010351	0.334515
C128	C	0.062520	0.010357	0.322250
C129	C	0.074790	0.010367	0.371406
H130	H	-0.072148	0.010369	0.490558
H131	H	-0.093501	0.010351	0.405013
H132	H	-0.007978	0.010344	0.298126
H133	H	0.098901	0.010354	0.276782
H134	H	0.120254	0.010371	0.362327
C135	C	0.100604	0.010422	0.678879
C136	C	0.051463	0.010425	0.740298
C137	C	0.063733	0.010432	0.789456
C138	C	0.125145	0.010437	0.777194
C139	C	0.174290	0.010434	0.715772
C140	C	0.162020	0.010426	0.666615
H141	H	0.005998	0.010422	0.749377
H142	H	0.027353	0.010435	0.834924
H143	H	0.134228	0.010442	0.813583
H144	H	0.219755	0.010437	0.706693
H145	H	0.198401	0.010424	0.621146
C146	C	0.186966	-0.778889	1.184731
C147	C	0.212726	-0.817458	1.236454
C148	C	0.262082	-0.878787	1.236451
C149	C	0.285676	-0.901547	1.184726
C150	C	0.259915	-0.862978	1.132999
C151	C	0.210560	-0.801649	1.133002
H152	H	0.195260	-0.800610	1.274748
H153	H	0.281151	-0.907338	1.274743
H154	H	0.322212	-0.946946	1.184724
H155	H	0.277381	-0.879826	1.094706
H156	H	0.191490	-0.773098	1.094710
C157	C	-0.059599	-0.655977	1.184589
C158	C	-0.047333	-0.717376	1.184540
C159	C	-0.096472	-0.729592	1.184452
C160	C	-0.157877	-0.680408	1.184414
C161	C	-0.170146	-0.619005	1.184463
C162	C	-0.121007	-0.606789	1.184551
H163	H	-0.001875	-0.753788	1.184568
H164	H	-0.087389	-0.775047	1.184415
H165	H	-0.194252	-0.689451	1.184349
H166	H	-0.215604	-0.582592	1.184435
H167	H	-0.130090	-0.561334	1.184588
C168	C	0.100371	-0.778963	0.679134
C169	C	0.051163	-0.791097	0.740523
C170	C	0.063334	-0.852473	0.789764
C171	C	0.124713	-0.901716	0.777615
C172	C	0.173924	-0.889583	0.716223
C173	C	0.161753	-0.828207	0.666983
H174	H	0.005724	-0.754644	0.749519
H175	H	0.026905	-0.861455	0.835210
H176	H	0.133722	-0.947150	0.814066
H177	H	0.219363	-0.926036	0.707228
H178	H	0.198183	-0.819226	0.621536
H179	H	0.173667	-0.584388	1.184797
C180	C	0.025912	-0.458192	0.432628
C181	C	0.064723	-0.419532	0.406837
C182	C	0.052551	-0.358157	0.357595
C183	C	0.001567	-0.335442	0.334144
C184	C	-0.037247	-0.374103	0.359935
C185	C	-0.025075	-0.435477	0.409177
H186	H	0.102467	-0.436347	0.424197
H187	H	0.081284	-0.329539	0.338504
H188	H	-0.007443	-0.290009	0.297692
H189	H	-0.074991	-0.357288	0.342574
H190	H	-0.053808	-0.464096	0.428268
C191	C	-0.097102	0.010402	0.679425
C192	C	-0.146459	0.010394	0.667469
C193	C	-0.207766	0.010396	0.716829
C194	C	-0.219717	0.010407	0.778144
C195	C	-0.170358	0.010415	0.790102
C196	C	-0.109051	0.010413	0.740742
H197	H	-0.137614	0.010386	0.622078
H198	H	-0.244305	0.010390	0.707976
H199	H	-0.265100	0.010409	0.814683
H200	H	-0.179204	0.010423	0.835493
H201	H	-0.072513	0.010419	0.749595
C202	C	0.692224	-0.741548	0.518176
C203	C	0.743973	-0.801766	0.522414
C204	C	0.743995	-0.850940	0.510154
C205	C	0.692267	-0.839896	0.493656
C206	C	0.640514	-0.779675	0.489417
C207	C	0.640492	-0.730501	0.501677
H208	H	0.782269	-0.809944	0.534627
H209	H	0.782306	-0.895520	0.513292
H210	H	0.692283	-0.876298	0.484580
H211	H	0.602218	-0.771497	0.477204
H212	H	0.602181	-0.685921	0.498539
H213	H	0.061737	-0.480889	0.910978
H214	H	0.207509	-0.652460	0.445301
H215	H	0.692005	-0.507708	0.411338
C216	C	0.221291	-0.621974	1.033582
C217	C	0.289070	-0.638622	0.999088
C218	C	0.333907	-0.678264	1.033544
C219	C	0.310965	-0.701259	1.102494
C220	C	0.243183	-0.684612	1.136991
C221	C	0.198346	-0.644970	1.102535
H222	H	0.306057	-0.621599	0.948043
H223	H	0.384085	-0.690587	1.008006
H224	H	0.344156	-0.730605	1.128000
H225	H	0.226196	-0.701635	1.188036
H226	H	0.148168	-0.632647	1.128073
H227	H	0.692323	-0.729239	0.699929
H228	H	0.247489	-0.573760	0.910909
H229	H	0.061625	-0.480862	0.693528
H230	H	0.209407	-0.611608	0.562721
C231	C	0.006097	-0.514442	0.659948
C232	C	-0.033225	-0.532700	0.726157
C233	C	-0.101014	-0.516052	0.742826
C234	C	-0.129482	-0.481146	0.693286
C235	C	-0.090160	-0.462886	0.627072
C236	C	-0.022370	-0.479534	0.610404
H237	H	-0.012152	-0.558542	0.762834
H238	H	-0.130123	-0.529570	0.791842
H239	H	-0.179664	-0.468822	0.705625
H240	H	-0.111233	-0.437044	0.590396
H241	H	0.006739	-0.466016	0.561388
H242	H	0.418403	-0.619300	0.682106
C243	C	0.264935	-0.578028	0.596290
C244	C	0.309731	-0.617662	0.556635
C245	C	0.377522	-0.634318	0.539963
C246	C	0.400518	-0.611341	0.562945
C247	C	0.355721	-0.571705	0.602602
C248	C	0.287929	-0.555048	0.619274
H249	H	0.292709	-0.634673	0.539621
H250	H	0.410684	-0.663660	0.510607
H251	H	0.450701	-0.623671	0.550603
H252	H	0.372743	-0.554693	0.619617
H253	H	0.254768	-0.525707	0.648631
H254	H	0.532110	-0.657210	0.644171
H255	H	0.532080	-0.473208	0.574011
H256	H	0.418366	-0.435297	0.611936
H257	H	0.162897	-0.149674	0.516363
C258	C	0.211133	-0.272353	0.542599
C259	C	0.227747	-0.237868	0.474813
C260	C	0.267370	-0.272336	0.429992
C261	C	0.290379	-0.341289	0.452957
C262	C	0.273765	-0.375778	0.520746
C263	C	0.234142	-0.341310	0.565567
H264	H	0.210714	-0.186821	0.457810
H265	H	0.279669	-0.246804	0.379809
H266	H	0.319710	-0.366804	0.419777
H267	H	0.290798	-0.426825	0.537749
H268	H	0.221843	-0.366842	0.615750
H269	H	0.070133	-0.149706	0.702094
H270	H	0.108067	-0.263426	0.739970
