data_functionalizedCrystal
_audit_creation_method	'MofGen! by Chris Wilmer'
_symmetry_space_group_name_H-M	'P1'
_symmetry_Int_Tables_number	1
_symmetry_cell_setting	triclinic
loop_
_symmetry_equiv_pos_as_xyz
  x,y,z
_cell_length_a	12.594516
_cell_length_b	15.298073
_cell_length_c	15.296720
_cell_angle_alpha	88.353317
_cell_angle_beta	80.349469
_cell_angle_gamma	80.325120
loop_
_atom_site_label
_atom_site_type_symbol
_atom_site_fract_x
_atom_site_fract_y
_atom_site_fract_z
Zn1	Zn	-0.316691	-1.253397	0.727429
Zn2	Zn	-0.459641	-1.278670	0.580972
Zn3	Zn	-0.306343	-1.132276	0.555591
Zn4	Zn	-0.519303	-1.106905	0.701994
O5	O	-0.400494	-1.192812	0.641497
O6	O	-0.315015	-1.379323	0.729268
O7	O	-0.410006	-1.280446	0.455042
O8	O	-0.158766	-1.148384	0.578408
O9	O	-0.420040	-1.397891	0.621666
O10	O	-0.166369	-1.237371	0.704657
O11	O	-0.297379	-1.172891	0.436395
O12	O	-0.355231	-1.006337	0.553745
O13	O	-0.521725	-1.105142	0.827932
O14	O	-0.511691	-0.987697	0.661307
O15	O	-0.372867	-1.212769	0.846618
O16	O	-0.616505	-1.255844	0.597003
O17	O	-0.660338	-1.129649	0.685918
C18	C	-0.438813	-0.965235	0.602013
C19	C	-0.455237	-0.867873	0.585142
C20	C	-0.283320	-0.554697	0.762032
C21	C	-0.267894	-0.646173	0.777888
C22	C	-0.314728	-0.701602	0.729703
C23	C	-0.376992	-0.665547	0.665659
C24	C	-0.392427	-0.574062	0.649807
C25	C	-0.423834	-0.720967	0.617477
C26	C	-0.486099	-0.684912	0.553434
C27	C	-0.501530	-0.593436	0.537584
C28	C	-0.454696	-0.538006	0.585769
C29	C	-0.408399	-0.812452	0.633330
C30	C	-0.517506	-0.831817	0.521104
C31	C	-0.532933	-0.740342	0.505249
C32	C	-0.677043	-1.192756	0.641478
C33	C	-0.795345	-1.192807	0.641513
C34	C	-0.888469	-1.124171	0.689832
C35	C	-0.943789	-1.116670	0.606215
C36	C	-0.950814	-1.200385	0.725157
C37	C	-0.849104	-1.185271	0.557847
C38	C	-0.856129	-1.269014	0.676849
C39	C	-0.911399	-1.261553	0.593183
C40	C	-0.122866	-1.192889	0.641539
C41	C	-0.004558	-1.192921	0.641556
C42	C	-0.455105	-1.153306	0.869943
C43	C	-0.478377	-1.136471	0.967293
C44	C	-0.362016	-0.421279	0.681127
C45	C	-0.345589	-0.518641	0.697995
C46	C	-0.346010	-1.232214	0.413948
C47	C	-0.322410	-1.249219	0.316628
C48	C	-0.233974	-1.313166	1.280625
C49	C	-0.212110	-1.328989	1.189160
C50	C	-0.278674	-1.280861	1.133689
C51	C	-0.367108	-1.216908	1.169691
C52	C	-0.388979	-1.201088	1.261165
C53	C	-0.433680	-1.168783	1.114230
C54	C	-0.522113	-1.104829	1.150231
C55	C	-0.543980	-1.089012	1.241697
C56	C	-0.477416	-1.137140	1.297168
C57	C	-0.411808	-1.184602	1.022755
C58	C	-0.566814	-1.072524	1.003296
C59	C	-0.588678	-1.056701	1.094760
H60	H	-0.217202	-0.675521	0.830035
H61	H	-0.260867	-1.293748	1.059215
N62	N	-0.321466	-1.249916	0.985999
N63	N	-0.226673	-1.242365	0.995232
H64	H	-0.162860	-1.288495	0.969275
H65	H	-0.877611	-1.066052	0.730606
N66	N	-0.166010	-1.362324	1.337299
N67	N	-0.185557	-1.348194	1.418966
H68	H	-0.137555	-1.382916	1.458996
H69	H	-0.621018	-1.033335	0.958131
N70	N	-0.121775	-1.394294	1.152371
N71	N	-0.102256	-1.408408	1.070701
H72	H	-0.038449	-1.454530	1.044716
N73	N	-0.678993	-0.991366	1.131545
N74	N	-0.663122	-0.926741	1.172906
H75	H	-0.726904	-0.880596	1.198889
N76	N	-0.565349	-0.888439	0.471891
N77	N	-0.551561	-0.970116	0.486053
H78	H	-0.585349	-1.010110	0.451302
H79	H	-0.982041	-1.052275	0.576358
H80	H	-0.805074	-1.178831	0.487095
H81	H	-0.357702	-0.841799	0.685474
H82	H	-0.817892	-1.333387	0.706743
N83	N	-0.924740	-1.334439	0.541869
N84	N	-0.884307	-1.340144	0.461421
H85	H	-0.893730	-1.391617	0.425177
H86	H	-0.495213	-1.124261	1.371647
H87	H	-0.994981	-1.206751	0.795877
N88	N	-0.634339	-1.023706	1.278463
N89	N	-0.693773	-0.980748	1.228932
H90	H	-0.757595	-0.934629	1.254896
H91	H	-0.302159	-0.776086	0.742614
H92	H	-0.467262	-0.463517	0.572869
N93	N	-0.235507	-0.498065	0.811247
N94	N	-0.249305	-0.416389	0.797087
H95	H	-0.215537	-0.376389	0.831850
H96	H	-0.552239	-0.564082	0.485442
H97	H	-0.583630	-0.710972	0.453104
