data_functionalizedCrystal
_audit_creation_method	'MofGen! by Chris Wilmer'
_symmetry_space_group_name_H-M	'P1'
_symmetry_Int_Tables_number	1
_symmetry_cell_setting	triclinic
loop_
_symmetry_equiv_pos_as_xyz
  x,y,z
_cell_length_a	17.019311
_cell_length_b	17.038272
_cell_length_c	9.730223
_cell_angle_alpha	89.996977
_cell_angle_beta	86.115846
_cell_angle_gamma	87.245400
loop_
_atom_site_label
_atom_site_type_symbol
_atom_site_fract_x
_atom_site_fract_y
_atom_site_fract_z
O1	O	1.053365	0.099627	-0.238956
O2	O	0.824552	0.112322	-0.211879
O3	O	0.937598	-0.007840	-0.225246
O4	O	0.940318	0.219788	-0.225589
O5	O	0.937588	-0.007839	0.003335
O6	O	0.824541	0.112322	0.016702
O7	O	1.053354	0.099628	-0.010375
Zn8	Zn	0.938946	0.105975	0.039456
Zn9	Zn	0.938960	0.105974	-0.261710
O10	O	0.940307	0.219789	0.002992
C11	C	0.795125	0.111840	-0.094107
C12	C	0.707458	0.110393	-0.083732
C13	C	0.211627	0.102237	-0.018808
C14	C	0.294000	0.103596	-0.028559
C15	C	0.335192	0.104269	-0.158036
C16	C	0.294008	0.103591	-0.277770
C17	C	0.211636	0.102237	-0.268018
C18	C	0.583901	0.108361	-0.193714
C19	C	0.666279	0.109713	-0.203458
C20	C	0.666265	0.109719	0.045755
C21	C	0.583892	0.108360	0.055496
C22	C	0.542714	0.107686	-0.064238
C23	C	0.419391	0.105656	-0.168006
C24	C	0.458517	0.106305	-0.054267
C25	C	0.935119	-0.036966	-0.110663
C26	C	0.927739	-0.123753	-0.109790
C27	C	0.995499	-0.173923	-0.117807
C28	C	0.988560	-0.255468	-0.116998
C29	C	0.913860	-0.286841	-0.108163
C30	C	0.846094	-0.236664	-0.100150
C31	C	0.853034	-0.155120	-0.100968
C32	C	0.889342	-0.532578	-0.105281
C33	C	0.882407	-0.614128	-0.104459
C34	C	1.024873	-0.632926	-0.121311
C35	C	1.031806	-0.551381	-0.122120
C36	C	0.964041	-0.501211	-0.114113
C37	C	0.906765	-0.370192	-0.107333
C38	C	0.971137	-0.417861	-0.114954
C39	C	1.082781	0.100110	-0.128150
C40	C	1.170448	0.101556	-0.138534
C41	C	0.942786	0.248915	-0.111594
C42	C	0.950167	0.335702	-0.112476
N43	N	0.938942	0.105975	0.244993
N44	N	0.938970	0.105968	-0.467247
C45	C	0.888876	0.159159	0.322874
C46	C	0.888892	0.159158	0.466755
C47	C	0.989041	0.052781	0.454861
C48	C	0.989028	0.052787	0.310982
C49	C	0.831054	0.220573	0.329742
C50	C	0.831070	0.220571	0.473623
H51	H	0.178093	0.101692	0.086626
N52	N	0.765521	-0.270492	-0.090621
H53	H	0.759470	-0.303904	-0.174638
H54	H	0.759511	-0.303867	-0.005117
N55	N	0.710708	0.110445	-0.343117
H56	H	0.769138	0.111399	-0.331120
H57	H	0.699450	0.061767	-0.396191
N58	N	1.043034	-0.004567	0.226974
H59	H	1.099619	0.004417	0.245300
H60	H	1.030173	-0.060029	0.253568
N61	N	1.043058	-0.004587	0.526035
H62	H	1.099639	0.004396	0.494272
H63	H	1.035405	0.003510	0.628983
H64	H	0.327524	0.104148	0.068934
H65	H	0.853542	0.277171	0.515579
H66	H	1.080043	-0.673783	-0.127831
H67	H	0.797857	-0.114272	-0.094440
N68	N	0.749793	0.203612	0.535017
H69	H	0.713514	0.196039	0.458636
H70	H	0.752916	0.154289	0.592355
H71	H	0.699801	0.110269	0.143235
H72	H	0.845943	-0.395745	-0.100136
H73	H	0.550360	0.107795	0.160929
H74	H	0.848014	0.280541	0.288684
N75	N	0.539495	0.107623	-0.322850
H76	H	0.578092	0.108248	-0.406349
H77	H	0.508461	0.058618	-0.324586
H78	H	0.327553	0.104144	-0.383194
H79	H	0.772701	0.202089	0.292043
N80	N	0.167217	0.101507	-0.397149
H81	H	0.205810	0.102138	-0.480653
H82	H	0.136179	0.052505	-0.398895
N83	N	0.414087	0.105581	0.085374
H84	H	0.382201	0.057120	0.093876
H85	H	0.452776	0.105155	0.159653
N86	N	0.463824	0.106369	-0.307652
H87	H	0.425242	0.105728	-0.382027
H88	H	0.494861	0.155372	-0.316765
H89	H	1.056328	-0.148387	-0.124993
H90	H	1.043738	-0.296314	-0.123524
H91	H	1.092635	-0.525844	-0.129314
N92	N	0.801834	-0.647968	-0.094932
H93	H	0.759957	-0.603813	-0.089988
H94	H	0.795863	-0.681391	-0.178962
H95	H	0.834162	-0.491739	-0.098761
N96	N	1.051705	-0.384030	-0.124471
H97	H	1.057768	-0.350610	-0.209917
H98	H	1.057691	-0.350659	-0.040383
