data_functionalizedCrystal
_audit_creation_method	'MofGen! by Chris Wilmer'
_symmetry_space_group_name_H-M	'P1'
_symmetry_Int_Tables_number	1
_symmetry_cell_setting	triclinic
loop_
_symmetry_equiv_pos_as_xyz
  x,y,z
_cell_length_a	21.295419
_cell_length_b	16.120530
_cell_length_c	16.120256
_cell_angle_alpha	90.128265
_cell_angle_beta	87.112362
_cell_angle_gamma	92.901750
loop_
_atom_site_label
_atom_site_type_symbol
_atom_site_fract_x
_atom_site_fract_y
_atom_site_fract_z
Zn1	Zn	0.318941	1.247593	-0.534665
Zn2	Zn	0.652274	1.580926	-0.201331
Zn3	Zn	0.985607	1.914260	0.132002
Zn4	Zn	0.419151	1.254592	-0.395637
Zn5	Zn	0.752485	1.587925	-0.062304
Zn6	Zn	1.085818	1.921259	0.271029
Zn7	Zn	0.308300	1.115578	-0.388579
Zn8	Zn	0.641633	1.448912	-0.055246
Zn9	Zn	0.974966	1.782245	0.278088
Zn10	Zn	0.418574	1.108548	-0.527607
Zn11	Zn	0.751908	1.441881	-0.194274
Zn12	Zn	1.085241	1.775215	0.139060
O13	O	0.366241	1.181578	-0.461622
O14	O	0.699575	1.514911	-0.128289
O15	O	1.032908	1.848245	0.205045
O16	O	0.336928	1.364890	-0.522130
O17	O	0.670262	1.698223	-0.188797
O18	O	1.003595	2.031557	0.144537
O19	O	0.400235	1.242023	-0.278334
O20	O	0.733568	1.575356	0.055000
O21	O	1.066901	1.908690	0.388333
O22	O	0.221622	1.133104	-0.407957
O23	O	0.554956	1.466437	-0.074624
O24	O	0.888289	1.799770	0.258709
O25	O	0.410553	1.370032	-0.419987
O26	O	0.743886	1.703366	-0.086654
O27	O	1.077219	2.036699	0.246679
O28	O	0.229440	1.230094	-0.515286
O29	O	0.562774	1.563428	-0.181953
O30	O	0.896107	1.896761	0.151381
O31	O	0.318792	1.139890	-0.273148
O32	O	0.652126	1.473224	0.060185
O33	O	0.985459	1.806557	0.393519
O34	O	0.318233	0.998277	-0.401114
O35	O	0.651567	1.331611	-0.067780
O36	O	0.984900	1.664944	0.265553
O37	O	0.409570	1.121121	-0.644910
O38	O	0.742903	1.454455	-0.311577
O39	O	1.076236	1.787788	0.021756
O40	O	0.399252	0.993112	-0.503257
O41	O	0.732585	1.326446	-0.169924
O42	O	1.065918	1.659779	0.163410
O43	O	0.336369	1.223277	-0.650096
O44	O	0.669703	1.556611	-0.316762
O45	O	1.003036	1.889944	0.016571
O46	O	0.507164	1.235206	-0.413144
O47	O	0.840497	1.568539	-0.079810
O48	O	1.173830	1.901873	0.253523
O49	O	0.506740	1.127908	-0.510101
O50	O	0.840073	1.461241	-0.176768
O51	O	1.173407	1.794575	0.156566
C52	C	0.357526	0.965522	-0.450654
C53	C	0.690859	1.298855	-0.117321
C54	C	1.024192	1.632188	0.216013
C55	C	0.353813	0.873091	-0.445981
C56	C	0.687146	1.206424	-0.112648
C57	C	1.020480	1.539758	0.220685
C58	C	0.347020	0.703858	-0.437458
C59	C	0.680353	1.037191	-0.104125
C60	C	1.013686	1.370525	0.229209
C61	C	0.385512	0.660135	-0.485847
C62	C	0.718845	0.993469	-0.152513
C63	C	1.052178	1.326802	0.180820
C64	C	0.381732	0.565968	-0.481104
C65	C	0.715065	0.899302	-0.147771
C66	C	1.048399	1.232635	0.185562
C67	C	0.350799	0.798034	-0.442199
C68	C	0.684132	1.131367	-0.108866
C69	C	1.017465	1.464700	0.224467
C70	C	0.202052	1.181602	-0.461621
C71	C	0.535385	1.514936	-0.128288
C72	C	0.868719	1.848269	0.205045
C73	C	0.132084	1.181613	-0.461621
C74	C	0.465418	1.514946	-0.128288
C75	C	0.798751	1.848279	0.205045
C76	C	0.095147	1.131125	-0.405743
C77	C	0.428480	1.464458	-0.072409
C78	C	0.761814	1.797791	0.260924
C79	C	0.029405	1.131123	-0.405753
C80	C	0.362738	1.464456	-0.072419
C81	C	0.696071	1.797790	0.260914
C82	C	0.000603	1.181625	-0.461633
C83	C	0.333936	1.514958	-0.128300
C84	C	0.667270	1.848292	0.205034
C85	C	0.037549	1.232116	-0.517522
C86	C	0.370882	1.565450	-0.184189
C87	C	0.704216	1.898783	0.149145
C88	C	0.103290	1.232110	-0.517516
C89	C	0.436623	1.565444	-0.184183
C90	C	0.769956	1.898777	0.149150
N91	N	-0.099451	1.254104	-0.471714
N92	N	0.233883	1.587438	-0.138381
N93	N	0.567216	1.920771	0.194953
N94	N	-0.161902	1.254108	-0.471715
N95	N	0.171431	1.587441	-0.138381
N96	N	0.504765	1.920774	0.194952
C97	C	-0.197470	1.181645	-0.461655
C98	C	0.135863	1.514978	-0.128322
C99	C	0.469196	1.848312	0.205011
N100	N	-0.168229	1.109177	-0.451579
N101	N	0.165105	1.442511	-0.118245
N102	N	0.498438	1.775844	0.215088
N103	N	-0.105772	1.109175	-0.451574
N104	N	0.227562	1.442508	-0.118241
N105	N	0.560895	1.775842	0.215093
C106	C	-0.070682	1.181637	-0.461646
C107	C	0.262652	1.514970	-0.128313
C108	C	0.595985	1.848303	0.205021
C109	C	-0.305693	1.131151	-0.405784
C110	C	0.027640	1.464484	-0.072451
C111	C	0.360973	1.797817	0.260882
C112	C	-0.371437	1.131147	-0.405800
C113	C	-0.038103	1.464481	-0.072467
C114	C	0.295230	1.797814	0.260867
C115	C	-0.363291	1.232148	-0.517565
C116	C	-0.029958	1.565482	-0.184232
C117	C	0.303376	1.898815	0.149101
C118	C	-0.297549	1.232144	-0.517554
C119	C	0.035784	1.565477	-0.184221
C120	C	0.369118	1.898811	0.149113
C121	C	-0.268754	1.181646	-0.461659
C122	C	0.064579	1.514980	-0.128326
C123	C	0.397912	1.848313	0.205008
C124	C	0.529794	1.181575	-0.461642
C125	C	0.863127	1.514909	-0.128308
C126	C	1.196460	1.848242	0.205025
C127	C	0.599766	1.181649	-0.461682
C128	C	0.933099	1.514982	-0.128349
C129	C	1.266433	1.848315	0.204985
C130	C	0.374092	1.170634	-0.678519
C131	C	0.707425	1.503968	-0.345186
C132	C	1.040759	1.837301	-0.011853
C133	C	0.377438	1.165971	-0.770948
C134	C	0.710771	1.499304	-0.437615
C135	C	1.044104	1.832638	-0.104282
C136	C	0.374992	1.398478	-0.472633
C137	C	0.708325	1.731811	-0.139300
C138	C	1.041658	2.065145	0.194033
C139	C	0.378721	1.490908	-0.477326
C140	C	0.712054	1.824241	-0.143992
C141	C	1.045387	2.157574	0.189341
C142	C	0.348779	1.205896	-0.983923
C143	C	0.682112	1.539229	-0.650590
C144	C	1.015446	1.872563	-0.317257
C145	C	0.383518	1.157429	-0.940170
C146	C	0.716852	1.490762	-0.606837
C147	C	1.050185	1.824095	-0.273503
C148	C	0.380134	1.162183	-0.846006
C149	C	0.713467	1.495516	-0.512673
C150	C	1.046801	1.828850	-0.179340
C151	C	0.352163	1.201143	-1.078096
C152	C	0.685496	1.534476	-0.744762
C153	C	1.018829	1.867809	-0.411429
C154	C	0.358378	1.192527	-0.245571
C155	C	0.691711	1.525860	0.087763
C156	C	1.025045	1.859193	0.421096
C157	C	0.354862	1.197351	-0.153151
C158	C	0.688195	1.530685	0.180183
C159	C	1.021528	1.864018	0.513516
H160	H	0.421304	0.693425	-0.530836
H161	H	0.754637	1.026758	-0.197503
H162	H	1.087970	1.360091	0.135830
H163	H	0.415798	1.112359	-0.973431
H164	H	0.749131	1.445693	-0.640098
H165	H	1.082464	1.779026	-0.306764
C166	C	-0.412068	1.075609	-0.344329
C167	C	-0.078735	1.408942	-0.010996
C168	C	0.254598	1.742275	0.322338
H169	H	-0.385501	1.045542	-0.311036
H170	H	-0.052168	1.378875	0.022297
H171	H	0.281166	1.712209	0.355630
H172	H	-0.438021	1.037769	-0.374296
H173	H	-0.104688	1.371102	-0.040963
H174	H	0.228645	1.704435	0.292370
H175	H	-0.437745	1.109259	-0.309716
H176	H	-0.104411	1.442593	0.023617
H177	H	0.228922	1.775926	0.356951
H178	H	0.014095	1.273234	-0.563022
H179	H	0.347429	1.606568	-0.229689
H180	H	0.680762	1.939901	0.103644
H181	H	0.311231	0.670571	-0.392472
H182	H	0.644564	1.003904	-0.059139
H183	H	0.977897	1.337237	0.274194
C184	C	0.305176	1.266778	-0.938997
C185	C	0.638510	1.600111	-0.605664
C186	C	0.971843	1.933445	-0.272330
H187	H	0.308601	1.262030	-0.880685
H188	H	0.641934	1.595364	-0.547352
H189	H	0.975268	1.928697	-0.214019
H190	H	0.262887	1.253924	-0.952544
H191	H	0.596220	1.587257	-0.619211
H192	H	0.929554	1.920590	-0.285878
H193	H	0.317153	1.321948	-0.956029
H194	H	0.650486	1.655282	-0.622696
H195	H	0.983820	1.988615	-0.289363
H196	H	-0.000675	1.090008	-0.360248
H197	H	0.332658	1.423341	-0.026915
H198	H	0.665991	1.756674	0.306419
C199	C	0.126818	1.075571	-0.344269
C200	C	0.460151	1.408904	-0.010935
C201	C	0.793485	1.742238	0.322398
H202	H	0.095399	1.045496	-0.310996
H203	H	0.428733	1.378829	0.022338
H204	H	0.762066	1.712163	0.355671
H205	H	0.152435	1.109204	-0.309649
H206	H	0.485768	1.442537	0.023684
H207	H	0.819101	1.775870	0.357017
H208	H	0.152153	1.037725	-0.374243
H209	H	0.485486	1.371059	-0.040910
H210	H	0.818819	1.704392	0.292424
H211	H	0.133364	1.273223	-0.563022
H212	H	0.466698	1.606557	-0.229689
H213	H	0.800031	1.939890	0.103644
C214	C	-0.274013	1.075603	-0.344311
C215	C	0.059320	1.408936	-0.010977
C216	C	0.392654	1.742269	0.322356
H217	H	-0.229569	1.082839	-0.352302
H218	H	0.103764	1.416172	-0.018968
H219	H	0.437097	1.749506	0.314365
H220	H	-0.286595	1.019116	-0.353644
H221	H	0.046738	1.352449	-0.020310
H222	H	0.380071	1.685782	0.313023
H223	H	-0.286325	1.090599	-0.289055
H224	H	0.047009	1.423932	0.044278
H225	H	0.380342	1.757265	0.377611
C226	C	-0.394965	1.287699	-0.579034
C227	C	-0.061632	1.621033	-0.245700
C228	C	0.271702	1.954366	0.087633
H229	H	-0.439409	1.280476	-0.571032
H230	H	-0.106075	1.613809	-0.237699
H231	H	0.227258	1.947142	0.095635
H232	H	-0.382655	1.272711	-0.634287
H233	H	-0.049322	1.606044	-0.300954
H234	H	0.284011	1.939378	0.032380
H235	H	-0.382381	1.344189	-0.569693
H236	H	-0.049047	1.677522	-0.236359
H237	H	0.284286	2.010856	0.096974
H238	H	-0.267474	1.273262	-0.563052
H239	H	0.065860	1.606595	-0.229719
H240	H	0.399193	1.939929	0.103615
