data_functionalizedCrystal
_audit_creation_method	'MofGen! by Chris Wilmer'
_symmetry_space_group_name_H-M	'P1'
_symmetry_Int_Tables_number	1
_symmetry_cell_setting	triclinic
loop_
_symmetry_equiv_pos_as_xyz
  x,y,z
_cell_length_a	18.101398
_cell_length_b	19.121073
_cell_length_c	18.101389
_cell_angle_alpha	87.582834
_cell_angle_beta	90.024327
_cell_angle_gamma	92.466048
loop_
_atom_site_label
_atom_site_type_symbol
_atom_site_fract_x
_atom_site_fract_y
_atom_site_fract_z
Zn1	Zn	1.119546	-0.279777	0.431393
Zn2	Zn	1.619546	0.220223	0.931393
Zn3	Zn	1.114163	-0.397213	0.312820
Zn4	Zn	1.614163	0.102787	0.812820
Zn5	Zn	0.995705	-0.279770	0.307553
Zn6	Zn	1.495705	0.220230	0.807553
Zn7	Zn	0.990379	-0.397183	0.436608
Zn8	Zn	1.490379	0.102817	0.936608
O9	O	1.054948	-0.338486	0.372093
O10	O	1.554948	0.161514	0.872093
O11	O	1.222464	-0.295371	0.415685
O12	O	1.722464	0.204629	0.915685
O13	O	1.098426	-0.381643	0.208489
O14	O	1.598426	0.118357	0.708489
O15	O	1.016615	-0.181486	0.319594
O16	O	1.516615	0.318514	0.819594
O17	O	1.218510	-0.381650	0.328571
O18	O	1.718510	0.118350	0.828571
O19	O	1.107600	-0.181491	0.410578
O20	O	1.607600	0.318509	0.910578
O21	O	1.011396	-0.295358	0.204619
O22	O	1.511396	0.204642	0.704619
O23	O	0.891366	-0.295329	0.324651
O24	O	1.391366	0.204671	0.824651
O25	O	1.007536	-0.381599	0.539548
O26	O	1.507536	0.118401	1.039548
O27	O	0.887453	-0.381592	0.419467
O28	O	1.387453	0.118408	0.919467
O29	O	1.102435	-0.295342	0.535717
O30	O	1.602435	0.204658	1.035717
O31	O	1.093261	-0.495494	0.333628
O32	O	1.593261	0.004506	0.833628
O33	O	1.002317	-0.495472	0.424574
O34	O	1.502317	0.004528	0.924574
C35	C	0.862539	-0.338457	0.372054
C36	C	1.362539	0.161543	0.872054
C37	C	0.780225	-0.338462	0.372055
C38	C	1.280225	0.161538	0.872055
C39	C	1.046647	-0.520967	0.380254
C40	C	1.546647	-0.020967	0.880254
C41	C	1.043164	-0.599033	0.383770
C42	C	1.543164	-0.099033	0.883770
C43	C	0.481132	-0.338506	0.372119
C44	C	0.981132	0.161494	0.872119
C45	C	0.514907	-0.283960	0.312731
C46	C	1.014907	0.216040	0.812731
C47	C	0.600518	-0.284107	0.312494
C48	C	1.100518	0.215893	0.812494
C49	C	0.629515	-0.338483	0.372087
C50	C	1.129515	0.161517	0.872087
C51	C	0.595072	-0.412466	0.354082
C52	C	1.095072	0.087534	0.854082
C53	C	0.509440	-0.412163	0.353673
C54	C	1.009440	0.087837	0.853673
C55	C	0.513591	-0.319712	0.449675
C56	C	1.013591	0.180288	0.949675
C57	C	0.599316	-0.318064	0.449173
C58	C	1.099316	0.181936	0.949173
C59	C	0.713375	-0.338475	0.372071
C60	C	1.213375	0.161525	0.872071
C61	C	0.397272	-0.338519	0.372134
C62	C	0.897272	0.161481	0.872134
C63	C	1.021110	-1.040561	0.406089
C64	C	1.521110	-0.540561	0.906089
C65	C	1.024383	-0.967209	0.402777
C66	C	1.524383	-0.467209	0.902777
C67	C	1.073404	-0.930524	0.353804
C68	C	1.573404	-0.430524	0.853804
C69	C	1.119161	-0.967194	0.308146
C70	C	1.619161	-0.467194	0.808146
C71	C	1.115892	-1.040544	0.311462
C72	C	1.615892	-0.540544	0.811462
C73	C	1.085651	-0.709053	0.341428
C74	C	1.585651	-0.209053	0.841428
C75	C	1.088916	-0.635698	0.338114
C76	C	1.588916	-0.135698	0.838114
C77	C	0.994138	-0.635718	0.432746
C78	C	1.494138	-0.135718	0.932746
C79	C	0.990869	-0.709070	0.436055
C80	C	1.490869	-0.209070	0.936055
C81	C	1.036629	-0.745733	0.390399
C82	C	1.536629	-0.245733	0.890399
C83	C	1.076749	-0.855547	0.350416
C84	C	1.576749	-0.355547	0.850416
C85	C	1.033287	-0.820709	0.393792
C86	C	1.533287	-0.320709	0.893792
C87	C	1.248109	-0.338515	0.372134
C88	C	1.748109	0.161485	0.872134
C89	C	1.330422	-0.338527	0.372151
C90	C	1.830422	0.161473	0.872151
C91	C	1.054992	-0.338468	0.565255
C92	C	1.554992	0.161532	1.065255
C93	C	1.055010	-0.338460	0.647568
C94	C	1.555010	0.161540	1.147568
C95	C	1.063302	-0.155292	0.363917
C96	C	1.563302	0.344708	0.863917
C97	C	1.066862	-0.077226	0.360432
C98	C	1.566862	0.422774	0.860432
C99	C	1.054950	-0.338453	0.179681
C100	C	1.554950	0.161547	0.679681
C101	C	1.055084	-0.338262	0.097359
C102	C	1.555084	0.161738	0.597359
C103	C	1.055059	-0.338329	0.946654
C104	C	1.555059	0.161671	1.446654
C105	C	0.995162	-0.392427	0.917731
C106	C	1.495162	0.107573	1.417731
C107	C	0.995306	-0.392678	0.832124
C108	C	1.495306	0.107322	1.332124
C109	C	1.055035	-0.338394	0.798274
C110	C	1.555035	0.161606	1.298274
C111	C	1.132157	-0.358491	0.830281
C112	C	1.632157	0.141509	1.330281
C113	C	1.131820	-0.358846	0.915942
C114	C	1.631820	0.141154	1.415942
C115	C	1.038518	-0.264013	0.911743
C116	C	1.538518	0.235987	1.411743
C117	C	1.036763	-0.264442	0.826112
C118	C	1.536763	0.235558	1.326112
C119	C	1.055025	-0.338430	0.714416
C120	C	1.555025	0.161570	1.214416
C121	C	1.055074	-0.338295	1.030512
C122	C	1.555074	0.161705	1.530512
H123	H	0.624025	-0.229245	0.323399
H124	H	1.124025	0.270755	0.823399
F125	F	1.089978	-0.208961	0.795680
F126	F	1.589978	0.291039	1.295680
F127	F	1.095594	-0.211330	0.935880
F128	F	1.595594	0.288670	1.435880
H129	H	1.177838	-0.320327	0.808223
H130	H	1.677838	0.179673	1.308223
H131	H	0.496810	-0.228931	0.323481
H132	H	0.996810	0.271069	0.823481
F133	F	1.141086	-0.596656	0.285980
F134	F	1.641086	-0.096656	0.785980
H135	H	0.491549	-0.359441	0.493884
H136	H	0.991549	0.140559	0.993884
F137	F	1.008897	-0.463980	0.949120
F138	F	1.508897	0.036020	1.449120
H139	H	0.492805	-0.296243	0.255526
H140	H	0.992805	0.203757	0.755526
H141	H	1.146887	-0.412239	0.811251
H142	H	1.646887	0.087761	1.311251
F143	F	0.626526	-0.300341	0.237290
F144	F	1.126526	0.199659	0.737290
H145	H	0.613561	-0.454194	0.396130
H146	H	1.113561	0.045806	0.896130
H147	H	0.938013	-0.380101	0.810527
H148	H	1.438013	0.119899	1.310527
H149	H	0.488712	-0.428102	0.297074
H150	H	0.988712	0.071898	0.797074
F151	F	1.171339	-0.928149	0.256029
F152	F	1.671339	-0.428149	0.756029
F153	F	0.945444	-0.596693	0.481336
F154	F	1.445444	-0.096693	0.981336
H155	H	1.122909	-0.738896	0.304249
H156	H	1.622909	-0.238896	0.804249
H157	H	1.153150	-1.070396	0.274285
H158	H	1.653150	-0.570396	0.774285
F159	F	1.009262	-0.464670	0.808579
F160	F	1.509262	0.035330	1.308579
H161	H	1.116663	-0.825672	0.310540
H162	H	1.616663	-0.325672	0.810540
F163	F	0.479884	-0.467082	0.407977
F164	F	0.979884	0.032918	0.907977
H165	H	0.615758	-0.428682	0.298115
H166	H	1.115758	0.071318	0.798115
F167	F	1.150658	-0.429853	0.945250
F168	F	1.650658	0.070147	1.445250
F169	F	0.488512	-0.250425	0.471908
F170	F	0.988512	0.249575	0.971908
F171	F	1.191865	-0.309549	0.940842
F172	F	1.691865	0.190451	1.440842
F173	F	0.966518	-0.240083	0.938881
F174	F	1.466518	0.259917	1.438881
F175	F	0.981119	-0.859753	0.445914
F176	F	1.481119	-0.359753	0.945914
F177	F	0.968929	-1.079597	0.458208
F178	F	1.468929	-0.579597	0.958208
H179	H	0.622107	-0.263622	0.462810
H180	H	1.122107	0.236378	0.962810
H181	H	0.980024	-0.249287	0.805100
H182	H	1.480024	0.250713	1.305100
F183	F	0.975689	-0.928191	0.451374
F184	F	1.475689	-0.428191	0.951374
H185	H	0.619066	-0.354898	0.495525
H186	H	1.119066	0.145102	0.995525
H187	H	0.950942	-0.738934	0.475925
H188	H	1.450942	-0.238934	0.975925
F189	F	0.920037	-0.376154	0.943901
F190	F	1.420037	0.123846	1.443901
