data_functionalizedCrystal
_audit_creation_method	'MofGen! by Chris Wilmer'
_symmetry_space_group_name_H-M	'P1'
_symmetry_Int_Tables_number	1
_symmetry_cell_setting	triclinic
loop_
_symmetry_equiv_pos_as_xyz
  x,y,z
_cell_length_a	6.817900
_cell_length_b	9.582860
_cell_length_c	19.453114
_cell_angle_alpha	93.805819
_cell_angle_beta	101.709288
_cell_angle_gamma	111.206767
loop_
_atom_site_label
_atom_site_type_symbol
_atom_site_fract_x
_atom_site_fract_y
_atom_site_fract_z
V1	V	-4.047101	-0.208613	-0.218869
V2	V	-3.547101	0.291387	0.281131
O3	O	-3.993116	0.008421	-0.214835
O4	O	-3.493116	0.508421	0.285165
O5	O	-4.038018	-0.412102	-0.217245
O6	O	-3.538018	0.087898	0.282755
O7	O	-3.989532	-0.206107	-0.314384
O8	O	-3.489532	0.293893	0.185616
O9	O	-4.041937	-0.198999	-0.117024
O10	O	-3.541937	0.301001	0.382976
V11	V	-4.526822	-0.182570	-0.206703
V12	V	-4.026822	0.317430	0.293297
O13	O	-4.316698	-0.265740	-0.245556
O14	O	-3.816698	0.234260	0.254444
O15	O	-4.707422	-0.125443	-0.180016
O16	O	-4.207422	0.374557	0.319984
O17	O	-4.312698	0.020919	-0.208328
O18	O	-3.812698	0.520919	0.291672
O19	O	-4.698204	-0.399604	-0.210737
O20	O	-4.198204	0.100396	0.289263
O21	O	-4.649382	-0.192183	-0.308548
O22	O	-4.149382	0.307817	0.191452
O23	O	-4.361185	-0.185075	-0.111189
O24	O	-3.861185	0.314925	0.388811
C25	C	-3.892880	-0.461686	-0.213759
C26	C	-3.392880	0.038314	0.286241
C27	C	-3.966679	-0.628046	-0.213068
C28	C	-3.466679	-0.128046	0.286932
C29	C	-3.831030	-0.198918	-0.337669
C30	C	-3.331030	0.301082	0.162331
C31	C	-3.865505	-0.198216	-0.415752
C32	C	-3.365505	0.301784	0.084248
C33	C	-4.064934	-0.205398	-0.456004
C34	C	-3.564934	0.294602	0.043996
C35	C	-4.097327	-0.204738	-0.529371
C36	C	-3.597327	0.295262	-0.029371
C37	C	-3.930294	-0.196927	-0.562485
C38	C	-3.430294	0.303073	-0.062485
C39	C	-3.730832	-0.189736	-0.522222
C40	C	-3.230832	0.310264	-0.022222
C41	C	-3.698437	-0.190380	-0.448856
C42	C	-3.198437	0.309620	0.051144
N43	N	-3.885821	-0.275959	-0.681225
N44	N	-3.385821	0.224041	-0.181225
N45	N	-3.916608	-0.275350	-0.750921
N46	N	-3.416608	0.224650	-0.250921
C47	C	-4.027884	-0.194982	-0.783535
C48	C	-3.527884	0.305018	-0.283535
N49	N	-4.107249	-0.115265	-0.743821
N50	N	-3.607249	0.384735	-0.243821
N51	N	-4.076468	-0.115880	-0.674120
N52	N	-3.576468	0.384120	-0.174120
C53	C	-3.965399	-0.196227	-0.642039
C54	C	-3.465399	0.303773	-0.142039
C55	C	-4.262450	-0.201447	-0.903340
C56	C	-3.762450	0.298553	-0.403340
C57	C	-4.294831	-0.200778	-0.976708
C58	C	-3.794831	0.299222	-0.476708
C59	C	-3.928337	-0.185790	-0.969559
C60	C	-3.428337	0.314210	-0.469559
C61	C	-3.895954	-0.186444	-0.896192
C62	C	-3.395954	0.313556	-0.396192
C63	C	-4.063021	-0.194280	-0.863087
C64	C	-3.563021	0.305720	-0.363087
C65	C	-4.121180	0.070496	-0.211811
C66	C	-3.621180	0.570496	0.288189
C67	C	-4.026619	0.236854	-0.212507
C68	C	-3.526619	0.736854	0.287493
C69	C	-4.183030	-0.192270	-0.087900
C70	C	-3.683030	0.307730	0.412100
C71	C	-4.127792	-0.192964	-0.009817
C72	C	-3.627792	0.307036	0.490183
H73	H	-4.259736	-0.210595	-0.562152
H74	H	-3.759736	0.289405	-0.062152
O75	O	-3.568642	-0.181953	-0.554452
O76	O	-3.068642	0.318047	-0.054452
C77	C	-3.513922	-0.050837	-0.587219
C78	C	-3.013922	0.449163	-0.087219
H79	H	-3.657050	-0.013817	-0.598164
H80	H	-3.157050	0.486183	-0.098164
H81	H	-3.473201	-0.076514	-0.639423
H82	H	-2.973201	0.423486	-0.139423
H83	H	-3.367272	0.043843	-0.550568
H84	H	-2.867272	0.543843	-0.050568
O85	O	-4.424975	-0.209249	-0.871270
O86	O	-3.924975	0.290751	-0.371270
C87	C	-4.606818	-0.343943	-0.900807
C88	C	-4.106818	0.156057	-0.400807
H89	H	-4.599065	-0.384772	-0.956210
H90	H	-4.099065	0.115228	-0.456210
H91	H	-4.761506	-0.321473	-0.904459
H92	H	-4.261506	0.178527	-0.404459
H93	H	-4.606927	-0.434499	-0.865636
H94	H	-4.106927	0.065501	-0.365636
H95	H	-3.536030	-0.184520	-0.416081
H96	H	-3.036030	0.315480	0.083919
H97	H	-4.457229	-0.206615	-1.009480
H98	H	-3.957229	0.293385	-0.509480
O99	O	-3.766136	-0.178001	-1.001780
O100	O	-3.266136	0.321999	-0.501780
C101	C	-3.711404	-0.046877	-1.034542
C102	C	-3.211404	0.453123	-0.534542
H103	H	-3.854530	-0.009856	-1.045488
H104	H	-3.354530	0.490144	-0.545488
H105	H	-3.670670	-0.072545	-1.086744
H106	H	-3.170670	0.427455	-0.586744
H107	H	-3.564758	0.047798	-0.997887
H108	H	-3.064758	0.547798	-0.497887
H109	H	-4.200974	-0.211772	-0.429055
H110	H	-3.700974	0.288228	0.070945
H111	H	-3.733566	-0.180612	-0.863418
H112	H	-3.233566	0.319388	-0.363418
