data_functionalizedCrystal
_audit_creation_method	'MofGen! by Chris Wilmer'
_symmetry_space_group_name_H-M	'P1'
_symmetry_Int_Tables_number	1
_symmetry_cell_setting	triclinic
loop_
_symmetry_equiv_pos_as_xyz
  x,y,z
_cell_length_a	17.038272
_cell_length_b	15.500215
_cell_length_c	15.538191
_cell_angle_alpha	93.905179
_cell_angle_beta	69.191825
_cell_angle_gamma	92.981713
loop_
_atom_site_label
_atom_site_type_symbol
_atom_site_fract_x
_atom_site_fract_y
_atom_site_fract_z
O1	O	0.982733	0.071828	0.204078
O2	O	1.482733	0.571828	0.704078
O3	O	0.756003	0.071854	0.200903
O4	O	1.256003	0.571854	0.700903
O5	O	0.913503	0.071840	0.068898
O6	O	1.413503	0.571840	0.568898
O7	O	0.825233	0.071842	0.336083
O8	O	1.325233	0.571842	0.836083
O9	O	0.909321	-0.072049	0.060747
O10	O	1.409321	0.427951	0.560747
O11	O	0.751822	-0.072035	0.192752
O12	O	1.251822	0.427965	0.692752
O13	O	0.978551	-0.072060	0.195926
O14	O	1.478551	0.427940	0.695926
Cu15	Cu	0.864805	-0.085186	0.193595
Cu16	Cu	1.364805	0.414814	0.693595
Cu17	Cu	0.869750	0.084979	0.203235
Cu18	Cu	1.369750	0.584979	0.703235
O19	O	0.821052	-0.072047	0.327932
O20	O	1.321052	0.427953	0.827932
C21	C	0.725604	-0.000087	0.193939
C22	C	1.225604	0.499913	0.693939
C23	C	0.641255	-0.000077	0.185322
C24	C	1.141255	0.499923	0.685322
C25	C	0.568704	-0.000078	0.264445
C26	C	1.068704	0.499922	0.764445
C27	C	0.489450	-0.000090	0.256342
C28	C	0.989450	0.499910	0.756342
C29	C	0.482751	-0.000095	0.169114
C30	C	0.982751	0.499905	0.669114
C31	C	0.555310	-0.000098	0.089984
C32	C	1.055310	0.499902	0.589984
C33	C	0.634561	-0.000092	0.098088
C34	C	1.134561	0.499908	0.598088
C35	C	0.245110	-0.000119	0.140483
C36	C	0.745110	0.499881	0.640483
C37	C	0.165851	-0.000122	0.132385
C38	C	0.665851	0.499878	0.632385
C39	C	0.099997	-0.000115	0.298743
C40	C	0.599997	0.499885	0.798743
C41	C	0.179253	-0.000104	0.306840
C42	C	0.679253	0.499896	0.806840
C43	C	0.251805	-0.000111	0.227710
C44	C	0.751805	0.499889	0.727710
C45	C	0.401742	-0.000105	0.160829
C46	C	0.901742	0.499895	0.660829
C47	C	0.332812	-0.000108	0.235996
C48	C	0.832812	0.499892	0.735996
N49	N	0.861332	-0.204871	0.186815
N50	N	1.361332	0.295129	0.686815
C51	C	0.890518	-0.250149	0.243864
C52	C	1.390518	0.249851	0.743864
C53	C	0.887903	-0.340721	0.238731
C54	C	1.387903	0.159279	0.738731
C55	C	0.856097	-0.386014	0.176554
C56	C	1.356097	0.113986	0.676554
C57	C	0.826912	-0.340730	0.119499
C58	C	1.326912	0.159270	0.619499
C59	C	0.829532	-0.250159	0.124627
C60	C	1.329532	0.249841	0.624627
C61	C	0.846666	-0.659481	0.158082
C62	C	1.346666	-0.159481	0.658082
C63	C	0.844045	-0.750058	0.152959
C64	C	1.344045	-0.250058	0.652959
C65	C	0.905038	-0.750043	0.272191
C66	C	1.405038	-0.250043	0.772191
C67	C	0.907651	-0.659471	0.277318
C68	C	1.407651	-0.159471	0.777318
C69	C	0.878469	-0.614194	0.220260
C70	C	1.378469	-0.114194	0.720260
C71	C	0.853422	-0.478594	0.171308
C72	C	1.353422	0.021406	0.671308
C73	C	0.881151	-0.521616	0.225501
C74	C	1.381151	-0.021616	0.725501
C75	C	1.008951	-0.000118	0.202890
C76	C	1.508951	0.499882	0.702890
C77	C	1.093300	-0.000122	0.211508
C78	C	1.593300	0.499878	0.711508
C79	C	0.920648	-0.000102	0.030467
C80	C	1.420648	0.499898	0.530467
C81	C	0.948157	-0.000097	-0.071902
C82	C	1.448157	0.499903	0.428098
N83	N	0.873231	0.204664	0.210008
N84	N	1.373231	0.704664	0.710008
C85	C	0.674862	-0.000085	-0.381593
C86	C	1.174862	0.499915	0.118407
C87	C	0.700730	-0.000090	-0.477787
C88	C	1.200730	0.499910	0.022213
C89	C	0.846232	-0.000106	-0.488570
C90	C	1.346232	0.499894	0.011430
C91	C	0.820376	-0.000096	-0.392376
C92	C	1.320376	0.499904	0.107624
C93	C	0.734690	-0.000087	-0.338895
C94	C	1.234690	0.499913	0.161105
C95	C	0.880205	-0.000099	-0.349677
C96	C	1.380205	0.499901	0.150323
C97	C	0.854351	-0.000094	-0.253491
C98	C	1.354351	0.499906	0.246509
C99	C	0.768668	-0.000087	-0.200004
C100	C	1.268668	0.499913	0.299996
C101	C	0.708836	-0.000082	-0.242709
C102	C	1.208836	0.499918	0.257291
C103	C	0.965890	-0.000114	-0.403160
C104	C	1.465890	0.499886	0.096840
C105	C	1.025719	-0.000117	-0.360461
C106	C	1.525719	0.499883	0.139539
C107	C	0.999865	-0.000106	-0.264273
C108	C	1.499865	0.499894	0.235727
C109	C	0.914183	-0.000099	-0.210786
C110	C	1.414183	0.499901	0.289214
C111	C	1.059697	-0.000111	-0.221568
C112	C	1.559697	0.499889	0.278432
C113	C	1.033843	-0.000106	-0.125383
C114	C	1.533843	0.499894	0.374617
C115	C	0.888328	-0.000095	-0.114601
C116	C	1.388328	0.499905	0.385399
C117	C	0.813907	-0.000102	0.366363
C118	C	1.313907	0.499898	0.866363
C119	C	0.786398	-0.000102	0.468732
C120	C	1.286398	0.499898	0.968732
H121	H	0.430379	-0.000089	0.320773
H122	H	0.930379	0.499911	0.820773
H123	H	0.040918	-0.000111	0.363166
H124	H	0.540918	0.499889	0.863166
H125	H	0.911671	-0.377583	0.285184
H126	H	1.411671	0.122417	0.785184
H127	H	0.338270	-0.000108	0.307016
H128	H	0.838270	0.499892	0.807016
H129	H	1.129463	-0.000127	-0.265127
H130	H	1.629463	0.499873	0.234873
H131	H	0.304175	-0.000125	0.076049
H132	H	0.804175	0.499875	0.576049
H133	H	0.907050	-0.484734	0.276123
H134	H	1.407050	0.015266	0.776123
H135	H	0.574149	-0.000072	0.335475
H136	H	1.074149	0.499928	0.835475
H137	H	0.747619	-0.000089	-0.121684
H138	H	1.247619	0.499911	0.378316
H139	H	0.160404	-0.000125	0.061350
H140	H	0.660404	0.499875	0.561350
H141	H	0.693634	-0.000091	0.033657
H142	H	1.193634	0.499909	0.533657
H143	H	0.396277	-0.000134	0.089806
H144	H	0.896277	0.499866	0.589806
H145	H	0.827525	-0.515482	0.120683
H146	H	1.327525	-0.015482	0.620683
H147	H	0.818554	-0.000081	-0.071053
H148	H	1.318554	0.499919	0.428947
H149	H	1.095485	-0.000128	-0.404018
H150	H	1.595485	0.499872	0.095982
H151	H	1.082561	-0.000109	-0.090617
H152	H	1.582561	0.499891	0.409383
H153	H	0.605088	-0.000071	-0.338046
H154	H	1.105088	0.499929	0.161954
H155	H	0.184699	-0.000090	0.377870
H156	H	0.684699	0.499910	0.877870
H157	H	0.639062	-0.000068	-0.199161
H158	H	1.139062	0.499932	0.300839
H159	H	0.916411	-0.213278	0.294500
H160	H	1.416411	0.286722	0.794500
H161	H	0.549849	-0.000115	0.018961
H162	H	1.049849	0.499885	0.518961
H163	H	0.652004	-0.000100	-0.512548
H164	H	1.152004	0.499900	-0.012548
H165	H	0.801020	-0.377615	0.068868
H166	H	1.301020	0.122385	0.568868
H167	H	0.933553	-0.622599	0.327946
H168	H	1.433553	-0.122599	0.827946
H169	H	0.928796	-0.786917	0.318643
H170	H	1.428796	-0.286917	0.818643
H171	H	0.915998	-0.000117	-0.532127
H172	H	1.415998	0.499883	-0.032127
H173	H	0.818141	-0.786933	0.102327
H174	H	1.318141	-0.286933	0.602327
H175	H	0.822904	-0.622628	0.111620
H176	H	1.322904	-0.122628	0.611620
H177	H	0.986938	-0.000110	-0.481479
H178	H	1.486938	0.499890	0.018521
H179	H	0.805766	-0.213295	0.078173
H180	H	1.305766	0.286705	0.578173
