data_functionalizedCrystal
_audit_creation_method	'MofGen! by Chris Wilmer'
_symmetry_space_group_name_H-M	'P1'
_symmetry_Int_Tables_number	1
_symmetry_cell_setting	triclinic
loop_
_symmetry_equiv_pos_as_xyz
  x,y,z
_cell_length_a	10.654550
_cell_length_b	17.699083
_cell_length_c	9.130313
_cell_angle_alpha	89.997869
_cell_angle_beta	89.996220
_cell_angle_gamma	83.883958
loop_
_atom_site_label
_atom_site_type_symbol
_atom_site_fract_x
_atom_site_fract_y
_atom_site_fract_z
O1	O	1.665973	0.106299	-0.121923
O2	O	1.300318	0.116427	-0.121900
O3	O	1.493476	0.001240	-0.121899
O4	O	1.472815	0.221487	-0.121924
O5	O	1.493474	0.001243	0.121700
O6	O	1.300315	0.116430	0.121699
O7	O	1.665971	0.106302	0.121676
Cu8	Cu	1.483143	0.111366	0.143930
Cu9	Cu	1.483146	0.111363	-0.144154
O10	O	1.472812	0.221490	0.121675
C11	C	1.253531	0.115685	-0.000097
C12	C	1.114127	0.113460	-0.000088
C13	C	1.033454	0.181281	-0.000117
C14	C	0.902470	0.179185	-0.000142
C15	C	0.932845	0.041443	-0.000115
C16	C	1.063826	0.043539	-0.000080
C17	C	1.015917	0.260805	-0.000139
C18	C	0.884933	0.258710	-0.000164
C19	C	1.492735	-0.026961	-0.000099
C20	C	1.490514	-0.110993	-0.000099
C21	C	1.603894	-0.158893	-0.000104
C22	C	1.601799	-0.237850	-0.000117
C23	C	1.486324	-0.268905	-0.000114
C24	C	1.372935	-0.220998	-0.000113
C25	C	1.375031	-0.142043	-0.000111
C26	C	1.364481	-0.539415	-0.000124
C27	C	1.362394	-0.618376	-0.000122
C28	C	1.591249	-0.635222	-0.000130
C29	C	1.593345	-0.556266	-0.000128
C30	C	1.479957	-0.508367	-0.000135
C31	C	1.482229	-0.422753	-0.000124
C32	C	1.484050	-0.354517	-0.000114
C33	C	1.712757	0.107044	-0.000130
C34	C	1.852161	0.109269	-0.000149
C35	C	1.473554	0.249690	-0.000128
C36	C	1.475775	0.333722	-0.000138
N37	N	1.483150	0.111369	0.346553
N38	N	1.483149	0.111355	-0.346777
C39	C	1.568702	0.060381	0.423205
C40	C	1.568699	0.060372	0.576542
C41	C	1.397587	0.162345	0.576561
C42	C	1.397585	0.162349	0.423226
C43	C	1.667496	0.001510	0.423195
C44	C	1.667493	0.001501	0.576532
H45	H	0.842677	0.288672	-0.102121
H46	H	0.838840	0.282744	0.105002
H47	H	1.129507	-0.011687	-0.000035
C48	C	1.720364	-0.522106	-0.000125
H49	H	1.705373	-0.468223	-0.000109
H50	H	1.767044	-0.538504	-0.085074
H51	H	1.767032	-0.538510	0.084833
H52	H	1.697927	-0.133615	-0.000097
C53	C	1.797553	0.019022	0.632761
H54	H	1.797547	0.019008	0.736814
H55	H	1.814587	0.067497	0.598095
H56	H	1.860759	-0.018642	0.598079
H57	H	1.327922	0.203851	0.639005
C58	C	1.639894	-0.077070	0.366970
H59	H	1.628531	-0.109389	0.447899
H60	H	1.708766	-0.098576	0.309162
H61	H	1.565334	-0.071721	0.309177
C62	C	1.250316	-0.089350	-0.000106
H63	H	1.268102	-0.037880	-0.000120
H64	H	1.202948	-0.098827	0.084841
H65	H	1.202964	-0.098828	-0.085066
H66	H	0.891873	-0.015484	-0.000131
H67	H	1.327912	0.203861	0.360818
C68	C	1.054812	0.302829	0.137567
H69	H	0.981926	0.318682	0.194187
H70	H	1.094841	0.346013	0.109243
H71	H	1.111655	0.269710	0.194239
C72	C	1.790241	0.026403	0.358925
H73	H	1.844906	0.037482	0.436410
H74	H	1.770958	0.070475	0.300364
H75	H	1.830598	-0.013400	0.300367
C76	C	1.627596	-0.072764	0.640787
H77	H	1.609836	-0.105832	0.563297
H78	H	1.554263	-0.061650	0.699359
H79	H	1.694097	-0.096634	0.699333
C80	C	1.235365	-0.652535	-0.000139
H81	H	1.168134	-0.612701	-0.000159
H82	H	1.229780	-0.682988	0.084807
H83	H	1.229809	-0.682983	-0.085100
H84	H	1.051130	0.286125	-0.105313
H85	H	1.683575	-0.674231	-0.000132
H86	H	1.272153	-0.500424	-0.000130
C87	C	1.726517	-0.290537	-0.000107
H88	H	1.795590	-0.260733	-0.000087
H89	H	1.730471	-0.321687	-0.085055
H90	H	1.730446	-0.321687	0.084852
H91	H	1.278912	-0.246289	-0.000120
