data_functionalizedCrystal
_audit_creation_method	'MofGen! by Chris Wilmer'
_symmetry_space_group_name_H-M	'P1'
_symmetry_Int_Tables_number	1
_symmetry_cell_setting	triclinic
loop_
_symmetry_equiv_pos_as_xyz
  x,y,z
_cell_length_a	12.759401
_cell_length_b	14.908579
_cell_length_c	12.759393
_cell_angle_alpha	93.266224
_cell_angle_beta	90.020938
_cell_angle_gamma	86.676524
loop_
_atom_site_label
_atom_site_type_symbol
_atom_site_fract_x
_atom_site_fract_y
_atom_site_fract_z
Zn1	Zn	1.582070	0.359078	0.618139
Zn2	Zn	2.082070	0.859078	1.118139
Zn3	Zn	1.571794	0.509962	0.452593
Zn4	Zn	2.071794	1.009962	0.952593
Zn5	Zn	1.406366	0.359126	0.442477
Zn6	Zn	1.906366	0.859126	0.942477
Zn7	Zn	1.396198	0.509899	0.628226
Zn8	Zn	1.896198	1.009899	1.128226
O9	O	1.489107	0.434516	0.535359
O10	O	1.989107	0.934516	1.035359
O11	O	1.727728	0.379099	0.596191
O12	O	2.227728	0.879099	1.096191
O13	O	1.549805	0.489999	0.304233
O14	O	2.049805	0.989999	0.804233
O15	O	1.438229	0.232875	0.457323
O16	O	1.938229	0.732875	0.957323
O17	O	1.720178	0.489953	0.474565
O18	O	2.220178	0.989953	0.974565
O19	O	1.567319	0.232840	0.586381
O20	O	2.067319	0.732840	1.086381
O21	O	1.428265	0.379181	0.296801
O22	O	1.928265	0.879181	0.796801
O23	O	1.257997	0.379120	0.467105
O24	O	1.757997	0.879120	0.967105
O25	O	1.420900	0.489846	0.773906
O26	O	1.920900	0.989846	1.273906
O27	O	1.250526	0.489892	0.603574
O28	O	1.750526	0.989892	1.103574
O29	O	1.557459	0.379038	0.766495
O30	O	2.057459	0.879038	1.266495
O31	O	1.539945	0.636198	0.484347
O32	O	2.039945	1.136198	0.984347
O33	O	1.410936	0.636152	0.613383
O34	O	1.910936	1.136152	1.113383
C35	C	1.216141	0.434505	0.535337
C36	C	1.716141	0.934505	1.035337
C37	C	1.099363	0.434522	0.535354
C38	C	1.599363	0.934522	1.035354
C39	C	1.040633	0.492289	0.606314
C40	C	1.540633	0.992289	1.106314
C41	C	0.930908	0.492292	0.606335
C42	C	1.430908	0.992292	1.106335
C43	C	0.938654	0.376759	0.464428
C44	C	1.438654	0.876759	0.964428
C45	C	1.048377	0.376752	0.464412
C46	C	1.548377	0.876752	0.964412
C47	C	1.473251	0.668908	0.551080
C48	C	1.973251	1.168908	1.051080
C49	C	1.466563	0.769183	0.557841
C50	C	1.966563	1.269183	1.057841
C51	C	1.588473	0.957595	0.436288
C52	C	2.088473	1.457595	0.936288
C53	C	1.582193	1.051812	0.442637
C54	C	2.082193	1.551812	0.942637
C55	C	1.447730	1.051834	0.576893
C56	C	1.947730	1.551834	1.076893
C57	C	1.454009	0.957617	0.570544
C58	C	1.954009	1.457617	1.070544
C59	C	1.524382	0.910501	0.500238
C60	C	2.024382	1.410501	1.000238
C61	C	1.530656	0.816283	0.493884
C62	C	2.030656	1.316283	0.993884
C63	C	1.396199	0.816307	0.628145
C64	C	1.896199	1.316307	1.128145
C65	C	1.389919	0.910523	0.634494
C66	C	1.889919	1.410523	1.134494
C67	C	1.763140	0.434528	0.535381
C68	C	2.263140	0.934528	1.035381
C69	C	1.879916	0.434533	0.535391
C70	C	2.379916	0.934533	1.035391
C71	C	1.489192	0.434429	0.809386
C72	C	1.989192	0.934429	1.309386
C73	C	1.489228	0.434392	0.926161
C74	C	1.989228	0.934392	1.426161
C75	C	1.505047	1.199208	0.519612
C76	C	2.005047	1.699208	1.019612
C77	C	1.511823	1.098934	0.512936
C78	C	2.011823	1.598934	1.012936
C79	C	1.489088	0.434537	0.262393
C80	C	1.989088	0.934537	0.762393
C81	C	1.489273	0.434320	0.145602
C82	C	1.989273	0.934320	0.645602
C83	C	1.560340	0.376686	0.977165
C84	C	2.060340	0.876686	1.477165
C85	C	1.560360	0.376647	1.086886
C86	C	2.060360	0.876647	1.586886
C87	C	1.418153	0.492029	1.094591
C88	C	1.918153	0.992029	1.594591
C89	C	1.418128	0.492063	0.984871
C90	C	1.918128	0.992063	1.484871
H91	H	0.897128	0.329727	0.406668
H92	H	1.397128	0.829727	0.906668
H93	H	1.360213	0.539054	0.943342
H94	H	1.860213	1.039054	1.443342
O95	O	1.105274	0.320606	0.395376
O96	O	1.605274	0.820606	0.895376
C97	C	1.036747	0.269608	0.332775
C98	C	1.536747	0.769608	0.832775
H99	H	0.956032	0.306559	0.331549
H100	H	1.456032	0.806559	0.831549
H101	H	1.069070	0.259896	0.249362
H102	H	1.569070	0.759896	0.749362
H103	H	1.029728	0.201132	0.366790
H104	H	1.529728	0.701132	0.866790
H105	H	1.618265	0.329655	1.128408
H106	H	2.118265	0.829655	1.628408
O107	O	1.656763	0.911919	0.367852
O108	O	2.156763	1.411919	0.867852
C109	C	1.632295	0.935006	0.264675
C110	C	2.132295	1.435006	0.764675
H111	H	1.587352	1.003449	0.267074
H112	H	2.087352	1.503449	0.767074
H113	H	1.707929	0.938194	0.217842
H114	H	2.207929	1.438194	0.717842
H115	H	1.581822	0.882046	0.225677
H116	H	2.081822	1.382046	0.725677
H117	H	1.082142	0.539327	0.664082
H118	H	1.582142	1.039327	1.164082
O119	O	0.874015	0.548494	0.675302
O120	O	1.374015	1.048494	1.175302
C121	C	0.942551	0.599460	0.737929
C122	C	1.442551	1.099460	1.237929
H123	H	1.020533	0.602534	0.695081
H124	H	1.520533	1.102534	1.195081
H125	H	0.906046	0.670553	0.753771
H126	H	1.406046	1.170553	1.253771
H127	H	0.956494	0.566508	0.815574
H128	H	1.456494	1.066508	1.315574
H129	H	1.587954	0.777922	0.436635
H130	H	2.087954	1.277922	0.936635
H131	H	1.332626	0.948898	0.691738
H132	H	1.832626	1.448898	1.191738
H133	H	1.634384	1.090152	0.390564
H134	H	2.134384	1.590152	0.890564
O135	O	1.379401	1.097749	0.645094
O136	O	1.879401	1.597749	1.145094
C137	C	1.387629	1.191005	0.637003
C138	C	1.887629	1.691005	1.137003
H139	H	1.421230	1.203892	0.556825
H140	H	1.921230	1.703892	1.056825
H141	H	1.306542	1.226876	0.646469
H142	H	1.806542	1.726876	1.146469
H143	H	1.441767	1.217655	0.701171
H144	H	1.941767	1.717655	1.201171
H145	H	1.344009	0.777952	0.680214
H146	H	1.844009	1.277952	1.180214
H147	H	1.618231	0.329724	0.929366
H148	H	2.118231	0.829724	1.429366
H149	H	1.360268	0.538984	1.142406
H150	H	1.860268	1.038984	1.642406
