data_functionalizedCrystal
_audit_creation_method	'MofGen! by Chris Wilmer'
_symmetry_space_group_name_H-M	'P1'
_symmetry_Int_Tables_number	1
_symmetry_cell_setting	triclinic
loop_
_symmetry_equiv_pos_as_xyz
  x,y,z
_cell_length_a	16.959453
_cell_length_b	16.959455
_cell_length_c	19.805399
_cell_angle_alpha	89.982119
_cell_angle_beta	89.973253
_cell_angle_gamma	90.024249
loop_
_atom_site_label
_atom_site_type_symbol
_atom_site_fract_x
_atom_site_fract_y
_atom_site_fract_z
Zn1	Zn	-0.314712	1.208383	-0.382693
Zn2	Zn	-0.446894	1.208287	-0.269506
Zn3	Zn	-0.314732	1.076204	-0.269521
Zn4	Zn	-0.446851	1.076165	-0.382656
O5	O	-0.380797	1.142259	-0.326094
O6	O	-0.332256	1.318981	-0.367688
O7	O	-0.429390	1.190742	-0.174792
O8	O	-0.204119	1.093794	-0.284555
O9	O	-0.429370	1.318910	-0.284530
O10	O	-0.204104	1.190905	-0.367702
O11	O	-0.332291	1.093701	-0.174802
O12	O	-0.332249	0.965588	-0.284519
O13	O	-0.429296	1.093727	-0.477378
O14	O	-0.429316	0.965559	-0.367640
O15	O	-0.332214	1.190867	-0.477405
O16	O	-0.557500	1.190704	-0.284495
O17	O	-0.557468	1.093635	-0.367626
C18	C	-0.380780	0.936893	-0.326078
C19	C	-0.380792	0.849037	-0.326086
C20	C	-0.431283	0.807724	-0.282728
C21	C	-0.330307	0.807795	-0.369450
C22	C	-0.330314	0.725250	-0.369458
C23	C	-0.380804	0.683937	-0.326100
C24	C	-0.431289	0.725170	-0.282734
C25	C	-0.279825	0.684010	-0.412818
C26	C	-0.279828	0.601459	-0.412828
C27	C	-0.330323	0.560145	-0.369472
C28	C	-0.380810	0.601384	-0.326105
C29	C	-0.431301	0.560071	-0.282747
C30	C	-0.481793	0.601308	-0.239383
C31	C	-0.481784	0.683857	-0.239379
C32	C	-0.330332	0.477597	-0.369477
C33	C	-0.431307	0.477518	-0.282753
C34	C	-0.586164	1.142176	-0.326069
C35	C	-0.674020	1.142213	-0.326081
C36	C	-0.715307	1.091648	-0.369333
C37	C	-0.715287	1.192817	-0.282845
C38	C	-0.797833	1.192856	-0.282857
C39	C	-0.839120	1.142291	-0.326109
C40	C	-0.797860	1.091688	-0.369348
C41	C	-0.839099	1.243464	-0.239623
C42	C	-0.921650	1.243506	-0.239634
C43	C	-0.962938	1.192937	-0.282883
C44	C	-0.921673	1.142331	-0.326124
C45	C	-0.962960	1.091766	-0.369375
C46	C	-0.921697	1.041155	-0.412613
C47	C	-0.839148	1.041119	-0.412597
C48	C	-1.045486	1.192974	-0.282899
C49	C	-1.045513	1.091806	-0.369391
C50	C	-0.174629	1.142364	-0.326134
C51	C	-0.086773	1.142409	-0.326151
C52	C	-0.380748	1.142304	-0.502637
C53	C	-0.380726	1.142323	-0.577869
C54	C	-0.380815	1.348428	-0.326111
C55	C	-0.380823	1.436284	-0.326119
C56	C	-0.330173	1.192904	-0.613228
C57	C	-0.330150	1.192913	-0.683917
C58	C	-0.380685	1.142342	-0.719245
C59	C	-0.431241	1.091755	-0.683881
C60	C	-0.431259	1.091743	-0.613193
C61	C	-0.431167	1.091799	-0.968954
C62	C	-0.431146	1.091817	-1.039646
C63	C	-0.330058	1.192969	-1.039677
C64	C	-0.330077	1.192957	-0.968990
C65	C	-0.380629	1.142367	-0.933632
C66	C	-0.380652	1.142358	-0.856984
C67	C	-0.380667	1.142355	-0.795892
C68	C	-0.380790	1.142261	-0.150238
C69	C	-0.380589	1.142395	-0.075007
H70	H	-0.472394	0.841303	-0.247424
Br71	Br	-0.211308	0.545502	-0.471680
H72	H	-0.289024	1.234087	-0.584469
Br73	Br	-0.783065	1.312093	-0.180936
Br74	Br	-0.659256	1.261445	-0.224156
Br75	Br	-0.499820	1.023118	-0.731825
Br76	Br	-0.261576	1.261599	-0.731902
Br77	Br	-0.977643	1.312190	-0.180955
H78	H	-0.288929	1.234139	-0.940230
H79	H	-0.472416	1.050546	-0.584405
Br80	Br	-1.101483	1.261660	-0.224230
H81	H	-0.522899	0.567661	-0.204078
H82	H	-0.805547	0.999914	-0.447800
H83	H	-0.288894	1.234159	-1.068474
H84	H	-0.681708	1.050439	-0.404535
H85	H	-0.238715	0.717653	-0.448115
H86	H	-0.472299	1.050633	-1.068408
Br87	Br	-0.261783	0.863862	-0.428286
Br88	Br	-0.261805	0.421635	-0.428316
H89	H	-0.522890	0.717439	-0.204072
Br90	Br	-0.499772	1.023140	-0.920977
H91	H	-0.472427	0.443887	-0.247448
Br92	Br	-0.977738	0.972543	-0.471317
Br93	Br	-1.101539	1.023172	-0.428087
