data_functionalizedCrystal
_audit_creation_method	'MofGen! by Chris Wilmer'
_symmetry_space_group_name_H-M	'P1'
_symmetry_Int_Tables_number	1
_symmetry_cell_setting	triclinic
loop_
_symmetry_equiv_pos_as_xyz
  x,y,z
_cell_length_a	14.908571
_cell_length_b	18.101397
_cell_length_c	14.908308
_cell_angle_alpha	86.737270
_cell_angle_beta	89.824947
_cell_angle_gamma	86.716412
loop_
_atom_site_label
_atom_site_type_symbol
_atom_site_fract_x
_atom_site_fract_y
_atom_site_fract_z
Zn1	Zn	1.345297	-0.386471	0.587546
Zn2	Zn	1.353878	-0.503607	0.437175
Zn3	Zn	1.203612	-0.372247	0.428545
Zn4	Zn	1.194906	-0.502728	0.578827
O5	O	1.274423	-0.441263	0.508023
O6	O	1.472262	-0.408331	0.574859
O7	O	1.341180	-0.480597	0.310206
O8	O	1.222460	-0.270505	0.449674
O9	O	1.478566	-0.494390	0.464383
O10	O	1.326555	-0.280955	0.566491
O11	O	1.230780	-0.384087	0.303865
O12	O	1.076631	-0.383234	0.441219
O13	O	1.207621	-0.492891	0.705807
O14	O	1.070235	-0.479098	0.551631
O15	O	1.318113	-0.407477	0.712213
O16	O	1.332737	-0.607119	0.455928
O17	O	1.215941	-0.606473	0.559999
C18	C	1.040808	-0.429528	0.494543
C19	C	0.940865	-0.424526	0.488797
C20	C	0.746458	-0.515090	0.592818
C21	C	0.652552	-0.510393	0.587423
C22	C	0.659146	-0.410431	0.472617
C23	C	0.753052	-0.415128	0.478012
C24	C	0.796704	-0.467460	0.538114
C25	C	0.890612	-0.472160	0.543504
C26	C	0.897204	-0.372196	0.428703
C27	C	0.803298	-0.367499	0.423308
C28	C	1.274349	-0.633668	0.507975
C29	C	1.274398	-0.715985	0.507989
C30	C	1.274508	-1.015085	0.508078
C31	C	1.347810	-0.984118	0.442402
C32	C	1.348039	-0.898520	0.442596
C33	C	1.274453	-0.866698	0.508033
C34	C	1.294669	-0.903220	0.604287
C35	C	1.295227	-0.988875	0.603939
C36	C	1.180758	-0.977738	0.478309
C37	C	1.181350	-0.892017	0.476221
C38	C	1.274421	-0.782836	0.508014
C39	C	1.274542	-1.098948	0.508104
C40	C	1.508951	-0.453045	0.521556
C41	C	1.608893	-0.458066	0.527323
C42	C	1.260938	-0.451673	0.742547
C43	C	1.255192	-0.456108	0.842488
C44	C	1.274521	-0.248109	0.508092
C45	C	1.274563	-0.165798	0.508122
C46	C	1.287908	-0.430843	0.274414
C47	C	1.293829	-0.426208	0.174484
C48	C	1.359446	-0.375486	1.036958
C49	C	1.354049	-0.379651	1.130861
C50	C	1.238998	-0.468600	1.124198
C51	C	1.244395	-0.464435	1.030295
C52	C	1.304622	-0.417877	0.986678
C53	C	1.310022	-0.413716	0.892774
C54	C	1.194967	-0.502661	0.886113
C55	C	1.189570	-0.506826	0.980016
H56	H	0.623588	-0.367821	0.423691
O57	O	1.413171	-0.333916	1.185087
H58	H	1.399292	-0.344624	1.257712
O59	O	1.135813	-0.548356	0.831860
H60	H	1.064219	-0.532895	0.845825
H61	H	0.938125	-0.333414	0.384157
O62	O	1.227182	-1.016306	0.671347
H63	H	1.261662	-1.054308	0.722997
H64	H	0.782000	-0.557704	0.641750
H65	H	0.767743	-0.324890	0.374377
O66	O	1.424411	-0.325283	0.989907
H67	H	1.386650	-0.283690	0.944807
H68	H	1.336026	-0.873618	0.371397
O69	O	1.332268	-1.006868	0.348072
H70	H	1.265027	-0.984544	0.324430
O71	O	0.937700	-0.528596	0.608329
H72	H	0.886980	-0.560920	0.645470
O73	O	1.174037	-0.518808	1.171248
H74	H	1.104512	-0.501757	1.149158
H75	H	1.161309	-0.995197	0.409052
H76	H	1.140534	-0.544731	1.015541
H77	H	1.166007	-0.867677	0.405359
O78	O	0.598358	-0.561825	0.646344
H79	H	0.644494	-0.599027	0.689008
H80	H	1.417595	-0.882229	0.462726
O81	O	1.439456	-1.018135	0.468792
H82	H	1.433025	-1.057001	0.528483
H83	H	1.363592	-1.013201	0.628519
H84	H	1.242675	-0.882784	0.654772
H85	H	1.362235	-0.886096	0.629170
O86	O	1.105691	-0.862854	0.534352
H87	H	1.133390	-0.829716	0.587066
H88	H	1.126209	-0.997676	0.526077
H89	H	1.359063	-0.375807	0.857263
