data_functionalizedCrystal
_audit_creation_method	'MofGen! by Chris Wilmer'
_symmetry_space_group_name_H-M	'P1'
_symmetry_Int_Tables_number	1
_symmetry_cell_setting	triclinic
loop_
_symmetry_equiv_pos_as_xyz
  x,y,z
_cell_length_a	8.497374
_cell_length_b	8.497374
_cell_length_c	14.908571
_cell_angle_alpha	93.295221
_cell_angle_beta	86.691137
_cell_angle_gamma	90.000078
loop_
_atom_site_label
_atom_site_type_symbol
_atom_site_fract_x
_atom_site_fract_y
_atom_site_fract_z
Zn1	Zn	-0.767763	1.031072	1.379253
Zn2	Zn	-0.267763	1.531072	1.879253
Zn3	Zn	-1.031510	0.767314	1.379263
Zn4	Zn	-0.531510	1.267314	1.879263
Zn5	Zn	-0.752489	0.752097	1.228429
Zn6	Zn	-0.252489	1.252097	1.728429
Zn7	Zn	-1.016247	1.015842	1.228425
Zn8	Zn	-0.516247	1.515842	1.728425
O9	O	-0.892003	0.891581	1.303843
O10	O	-0.392003	1.391581	1.803843
O11	O	-0.815529	1.008827	1.505501
O12	O	-0.315529	1.508827	2.005501
O13	O	-0.994493	0.544534	1.359261
O14	O	-0.494493	1.044534	1.859261
O15	O	-0.533753	0.789109	1.248433
O16	O	-0.033753	1.289109	1.748433
O17	O	-1.009303	0.815045	1.505509
O18	O	-0.509303	1.315045	2.005509
O19	O	-0.544975	0.994071	1.359243
O20	O	-0.044975	1.494071	1.859243
O21	O	-0.789497	0.533354	1.248444
O22	O	-0.289497	1.033354	1.748444
O23	O	-0.774698	0.774341	1.102182
O24	O	-0.274698	1.274341	1.602182
O25	O	-0.983290	1.238624	1.248427
O26	O	-0.483290	1.738624	1.748427
O27	O	-0.968480	0.968113	1.102179
O28	O	-0.468480	1.468113	1.602179
O29	O	-0.800730	1.249814	1.359239
O30	O	-0.300730	1.749814	1.859239
O31	O	-1.250248	0.800277	1.359257
O32	O	-0.750248	1.300277	1.859257
O33	O	-1.239035	0.982869	1.248437
O34	O	-0.739035	1.482869	1.748437
C35	C	-0.868276	0.867924	1.069446
C36	C	-0.368276	1.367924	1.569446
C37	C	-0.858164	0.857841	0.969171
C38	C	-0.358164	1.357841	1.469171
C39	C	-0.301882	0.891575	1.303840
C40	C	0.198118	1.391575	1.803840
C41	C	-0.480527	0.891585	1.303844
C42	C	0.019473	1.391585	1.803844
C43	C	-0.892004	1.303061	1.303836
C44	C	-0.392004	1.803061	1.803836
C45	C	-0.892021	1.481705	1.303838
C46	C	-0.392021	1.981705	1.803838
C47	C	-1.041260	1.040397	0.780788
C48	C	-0.541260	1.540397	1.280788
C49	C	-1.031764	1.030928	0.686570
C50	C	-0.531764	1.530928	1.186570
C51	C	-0.829668	0.829443	0.686515
C52	C	-0.329668	1.329443	1.186515
C53	C	-0.839164	0.838912	0.780733
C54	C	-0.339164	1.338912	1.280733
C55	C	-0.944966	0.944391	0.827866
C56	C	-0.444966	1.444391	1.327866
C57	C	-0.954469	0.953850	0.922086
C58	C	-0.454469	1.453850	1.422086
C59	C	-0.752366	0.752375	0.922029
C60	C	-0.252366	1.252375	1.422029
C61	C	-0.742870	0.742906	0.827812
C62	C	-0.242870	1.242906	1.327812
C63	C	-0.915822	0.915332	1.539154
C64	C	-0.415822	1.415332	2.039154
C65	C	-0.925973	0.925453	1.639430
C66	C	-0.425973	1.425453	2.139430
H67	H	-1.127416	1.126273	0.819164
H68	H	-0.627416	1.626273	1.319164
C69	C	-0.713286	0.713440	0.634663
C70	C	-0.213286	1.213440	1.134663
H71	H	-0.657282	0.657623	0.676193
H72	H	-0.157282	1.157623	1.176193
H73	H	-0.769814	0.640922	0.597902
H74	H	-0.269814	1.140922	1.097902
H75	H	-0.640933	0.770224	0.597912
H76	H	-0.140933	1.270224	1.097912
H77	H	-1.110174	1.109109	0.648242
H78	H	-0.610174	1.609109	1.148242
H79	H	-0.673959	0.674196	0.960371
H80	H	-0.173959	1.174196	1.460371
H81	H	-1.040621	1.039734	0.960460
H82	H	-0.540621	1.539734	1.460460
H83	H	-0.656726	0.657033	0.789423
H84	H	-0.156726	1.157033	1.289423
