data_functionalizedCrystal
_audit_creation_method	'MofGen! by Chris Wilmer'
_symmetry_space_group_name_H-M	'P1'
_symmetry_Int_Tables_number	1
_symmetry_cell_setting	triclinic
loop_
_symmetry_equiv_pos_as_xyz
  x,y,z
_cell_length_a	19.805407
_cell_length_b	12.759394
_cell_length_c	19.805399
_cell_angle_alpha	89.974626
_cell_angle_beta	89.983114
_cell_angle_gamma	90.014837
loop_
_atom_site_label
_atom_site_type_symbol
_atom_site_fract_x
_atom_site_fract_y
_atom_site_fract_z
Zn1	Zn	1.034772	-0.418276	-0.382737
Zn2	Zn	1.534772	0.081724	0.117263
Zn3	Zn	1.034715	-0.593974	-0.269556
Zn4	Zn	1.534715	-0.093974	0.230444
Zn5	Zn	0.921592	-0.418310	-0.269561
Zn6	Zn	1.421592	0.081690	0.230439
Zn7	Zn	0.921573	-0.593914	-0.382702
Zn8	Zn	1.421573	-0.093914	0.117298
O9	O	0.978163	-0.506118	-0.326139
O10	O	1.478163	-0.006118	0.173861
O11	O	1.129481	-0.441594	-0.367735
O12	O	1.629481	0.058406	0.132265
O13	O	1.019693	-0.570711	-0.174840
O14	O	1.519693	-0.070711	0.325160
O15	O	0.936637	-0.271284	-0.284591
O16	O	1.436637	0.228716	0.215409
O17	O	1.129439	-0.570679	-0.284581
O18	O	1.629439	-0.070679	0.215419
O19	O	1.019790	-0.271260	-0.367740
O20	O	1.519790	0.228740	0.132260
O21	O	0.936582	-0.441651	-0.174844
O22	O	1.436582	0.058349	0.325156
O23	O	0.826873	-0.441593	-0.284558
O24	O	1.326873	0.058407	0.215442
O25	O	0.936605	-0.570576	-0.477423
O26	O	1.436605	-0.070576	0.022577
O27	O	0.826859	-0.570608	-0.367682
O28	O	1.326859	-0.070608	0.132318
O29	O	1.019772	-0.441536	-0.477449
O30	O	1.519772	0.058464	0.022551
O31	O	1.019675	-0.740987	-0.284548
O32	O	1.519675	-0.240987	0.215452
O33	O	0.936550	-0.740943	-0.367676
O34	O	1.436550	-0.240943	0.132324
C35	C	0.802307	-0.506098	-0.326117
C36	C	1.302307	-0.006098	0.173883
C37	C	0.727075	-0.506115	-0.326124
C38	C	1.227075	-0.006115	0.173876
C39	C	0.691741	-0.573395	-0.369336
C40	C	1.191741	-0.073395	0.130664
C41	C	0.621053	-0.573396	-0.369346
C42	C	1.121053	-0.073396	0.130654
C43	C	0.585700	-0.506123	-0.326139
C44	C	1.085700	-0.006123	0.173861
C45	C	0.621038	-0.438836	-0.282924
C46	C	1.121038	0.061164	0.217076
C47	C	0.691725	-0.438830	-0.282919
C48	C	1.191725	0.061170	0.217081
C49	C	0.335965	-0.438859	-0.282947
C50	C	0.835965	0.061141	0.217053
C51	C	0.265273	-0.438873	-0.282954
C52	C	0.765273	0.061127	0.217046
C53	C	0.265293	-0.573426	-0.369374
C54	C	0.765293	-0.073426	0.130626
C55	C	0.335980	-0.573420	-0.369368
C56	C	0.835980	-0.073420	0.130632
C57	C	0.371312	-0.506129	-0.326157
C58	C	0.871312	-0.006129	0.173843
C59	C	0.447961	-0.506127	-0.326148
C60	C	0.947961	-0.006127	0.173852
C61	C	0.509052	-0.506130	-0.326144
C62	C	1.009052	-0.006130	0.173856
C63	C	0.978123	-0.779086	-0.326123
C64	C	1.478123	-0.279086	0.173877
C65	C	0.978167	-0.895863	-0.326138
C66	C	1.478167	-0.395863	0.173862
C67	C	1.064790	-0.895855	-0.239641
C68	C	1.564790	-0.395855	0.260359
C69	C	1.108119	-0.950712	-0.196401
C70	C	1.608119	-0.450712	0.303599
C71	C	1.108159	-1.060434	-0.196419
C72	C	1.608159	-0.560434	0.303581
C73	C	1.064866	-1.115301	-0.239684
C74	C	1.564866	-0.615301	0.260316
C75	C	1.021537	-1.060444	-0.282925
C76	C	1.521537	-0.560444	0.217075
C77	C	1.021501	-0.950720	-0.282900
C78	C	1.521501	-0.450720	0.217100
C79	C	0.934919	-1.060451	-0.369424
C80	C	1.434919	-0.560451	0.130576
C81	C	0.934874	-0.950730	-0.369403
C82	C	1.434874	-0.450730	0.130597
C83	C	0.891626	-1.115318	-0.412689
C84	C	1.391626	-0.615318	0.087311
C85	C	0.848292	-1.060461	-0.455927
C86	C	1.348292	-0.560461	0.044073
C87	C	0.848254	-0.950733	-0.455906
C88	C	1.348254	-0.450733	0.044094
C89	C	0.891545	-0.895872	-0.412644
C90	C	1.391545	-0.395872	0.087356
C91	C	1.154706	-0.506139	-0.326161
C92	C	1.654706	-0.006139	0.173839
C93	C	1.229938	-0.506148	-0.326171
C94	C	1.729938	-0.006148	0.173829
C95	C	0.978193	-0.506046	-0.502682
C96	C	1.478193	-0.006046	-0.002682
C97	C	0.978205	-0.506014	-0.577914
C98	C	1.478205	-0.006014	-0.077914
C99	C	0.978222	-0.232085	-0.326170
C100	C	1.478222	0.267915	0.173830
C101	C	0.978248	-0.115308	-0.326183
C102	C	1.478248	0.384692	0.173817
C103	C	0.934942	-0.438807	-0.613260
C104	C	1.434942	0.061193	-0.113260
C105	C	0.934951	-0.438786	-0.683948
C106	C	1.434951	0.061214	-0.183948
C107	C	0.978228	-0.505969	-0.719289
C108	C	1.478228	-0.005969	-0.219289
C109	C	1.021494	-0.573184	-0.683939
C110	C	1.521494	-0.073184	-0.183939
C111	C	1.021480	-0.573209	-0.613251
C112	C	1.521480	-0.073209	-0.113251
C113	C	1.021547	-0.573086	-0.969012
C114	C	1.521547	-0.073086	-0.469012
C115	C	1.021559	-0.573054	-1.039704
C116	C	1.521559	-0.073054	-0.539704
C117	C	0.935018	-0.438663	-1.039709
C118	C	1.435018	0.061337	-0.539709
C119	C	0.935005	-0.438688	-0.969022
C120	C	1.435005	0.061312	-0.469022
C121	C	0.978268	-0.505907	-0.933677
C122	C	1.478268	-0.005907	-0.433677
C123	C	0.978256	-0.505929	-0.857028
C124	C	1.478256	-0.005929	-0.357028
C125	C	0.978243	-0.505942	-0.795937
C126	C	1.478243	-0.005942	-0.295937
C127	C	0.978173	-0.506115	-0.150283
C128	C	1.478173	-0.006115	0.349717
C129	C	0.978291	-0.505850	-0.075051
C130	C	1.478291	-0.005850	0.424949
H131	H	0.592248	-0.384057	-0.247747
H132	H	1.092248	0.115943	0.252253
F133	F	0.888971	-0.367125	-1.077331
F134	F	1.388971	0.132875	-0.577331
H135	H	1.143369	-0.906030	-0.161176
H136	H	1.643369	-0.406030	0.338824
H137	H	1.143444	-1.105098	-0.161213
H138	H	1.643444	-0.605098	0.338787
F139	F	1.064686	-1.232076	-0.239477
F140	F	1.564686	-0.732076	0.260523
F141	F	1.067548	-0.644692	-0.721553
F142	F	1.567548	-0.144692	-0.221553
H143	H	1.056801	-0.627766	-1.068477
H144	H	1.556801	-0.127766	-0.568477
H145	H	0.720493	-0.384038	-0.247734
H146	H	1.220493	0.115962	0.252266
F147	F	0.227684	-0.645042	-0.415365
F148	F	0.727684	-0.145042	0.084635
F149	F	0.227648	-0.367267	-0.236966
F150	F	0.727648	0.132733	0.263034
H151	H	1.064753	-0.806514	-0.239613
H152	H	1.564753	-0.306514	0.260387
H153	H	0.812973	-0.906074	-0.491120
H154	H	1.312973	-0.406074	0.008880
H155	H	0.899767	-0.383977	-0.940250
H156	H	1.399767	0.116023	-0.440250
H157	H	0.364724	-0.384075	-0.247756
H158	H	0.864724	0.115925	0.252244
F159	F	0.888879	-0.367293	-0.721563
F160	F	1.388879	0.132707	-0.221563
H161	H	0.891514	-0.806531	-0.412618
H162	H	1.391514	-0.306531	0.087382
H163	H	0.891664	-1.204659	-0.412704
H164	H	1.391664	-0.704659	0.087296
H165	H	0.813050	-1.105142	-0.491153
H166	H	1.313050	-0.605142	0.008847
H167	H	1.056767	-0.627831	-0.940243
H168	H	1.556767	-0.127831	-0.440243
F169	F	0.888883	-0.367295	-0.575653
F170	F	1.388883	0.132705	-0.075653
H171	H	1.056715	-0.627929	-0.584474
H172	H	1.556715	-0.127929	-0.084474
H173	H	0.592287	-0.628183	-0.404534
H174	H	1.092287	-0.128183	0.095466
F175	F	0.373602	-0.645025	-0.415353
F176	F	0.873602	-0.145025	0.084647
F177	F	0.729361	-0.645002	-0.415321
F178	F	1.229361	-0.145002	0.084679
