data_functionalizedCrystal
_audit_creation_method	'MofGen! by Chris Wilmer'
_symmetry_space_group_name_H-M	'P1'
_symmetry_Int_Tables_number	1
_symmetry_cell_setting	triclinic
loop_
_symmetry_equiv_pos_as_xyz
  x,y,z
_cell_length_a	10.654559
_cell_length_b	9.130313
_cell_length_c	15.995300
_cell_angle_alpha	89.999101
_cell_angle_beta	96.019754
_cell_angle_gamma	90.000951
loop_
_atom_site_label
_atom_site_type_symbol
_atom_site_fract_x
_atom_site_fract_y
_atom_site_fract_z
O1	O	1.666259	0.121791	-0.117643
O2	O	2.166259	0.621791	0.382357
O3	O	1.300632	0.121791	-0.128840
O4	O	1.800632	0.621791	0.371160
O5	O	1.493473	0.121798	-0.001409
O6	O	1.993473	0.621798	0.498591
O7	O	1.473418	0.121784	-0.245074
O8	O	1.973418	0.621784	0.254926
O9	O	1.493471	-0.121801	-0.001403
O10	O	1.993471	0.378199	0.498597
O11	O	1.300630	-0.121808	-0.128833
O12	O	1.800630	0.378192	0.371167
O13	O	1.666256	-0.121808	-0.117636
O14	O	2.166256	0.378192	0.382364
Cu15	Cu	1.483443	-0.144050	-0.123234
Cu16	Cu	1.983443	0.355950	0.376766
Cu17	Cu	1.483446	0.144033	-0.123242
Cu18	Cu	1.983446	0.644033	0.376758
O19	O	1.473415	-0.121815	-0.245067
O20	O	1.973415	0.378185	0.254933
C21	C	1.253844	-0.000009	-0.128013
C22	C	1.753844	0.499991	0.371987
C23	C	1.114435	-0.000008	-0.125548
C24	C	1.614435	0.499992	0.374452
C25	C	1.063926	-0.000007	-0.048203
C26	C	1.563926	0.499993	0.451797
C27	C	0.932935	0.000004	-0.045892
C28	C	1.432935	0.500004	0.454108
C29	C	0.902971	0.000007	-0.198279
C30	C	1.402971	0.500007	0.301721
C31	C	1.033960	0.000007	-0.200589
C32	C	1.533960	0.500007	0.299411
C33	C	1.144401	-0.000022	0.026838
C34	C	1.644401	0.499978	0.526838
C35	C	1.093894	-0.000023	0.104190
C36	C	1.593894	0.499977	0.604190
C37	C	0.962902	-0.000012	0.106500
C38	C	1.462902	0.499988	0.606500
C39	C	0.882418	0.000000	0.031459
C40	C	1.382418	0.500000	0.531459
C41	C	1.492654	0.000004	0.029794
C42	C	1.992654	0.500004	0.529794
C43	C	1.490202	0.000019	0.122761
C44	C	1.990202	0.500019	0.622761
C45	C	1.713044	-0.000005	-0.118464
C46	C	2.213044	0.499995	0.381536
C47	C	1.852454	0.000004	-0.120928
C48	C	2.352454	0.500004	0.379072
N49	N	1.483449	0.346656	-0.123242
N50	N	1.983449	0.846656	0.376758
N51	N	1.483450	-0.346673	-0.123228
N52	N	1.983450	0.153327	0.376772
C53	C	1.568996	0.423311	-0.066927
C54	C	2.068996	0.923311	0.433073
C55	C	1.569000	0.576648	-0.066921
C56	C	2.069000	1.076648	0.433079
C57	C	1.397898	0.576661	-0.179549
C58	C	1.897898	1.076661	0.320451
C59	C	1.397901	0.423327	-0.179558
C60	C	1.897901	0.923327	0.320442
C61	C	1.654544	0.346641	-0.010610
C62	C	2.154544	0.846641	0.489390
C63	C	1.740097	0.423296	0.045710
C64	C	2.240097	0.923296	0.545710
C65	C	1.740101	0.576633	0.045715
C66	C	2.240101	1.076633	0.545715
C67	C	1.654552	0.653314	-0.010600
C68	C	2.154552	1.153314	0.489400
C69	C	1.474235	-0.000018	-0.276270
C70	C	1.974235	0.499982	0.223730
C71	C	1.476687	-0.000023	-0.369237
C72	C	1.976687	0.499977	0.130763
C73	C	1.485673	0.000004	0.292971
C74	C	1.985673	0.500004	0.792971
C75	C	1.622980	0.000007	0.339636
C76	C	2.122980	0.500007	0.839636
C77	C	1.620475	-0.000551	0.436338
C78	C	2.120475	0.499449	0.936338
C79	C	1.481216	-0.000008	0.460553
C80	C	1.981216	0.499992	0.960553
C81	C	1.413092	-0.138840	0.419820
C82	C	1.913092	0.361160	0.919820
C83	C	1.416566	-0.138951	0.323166
C84	C	1.916566	0.361049	0.823166
C85	C	1.414536	0.138076	0.322895
C86	C	1.914536	0.638076	0.822895
C87	C	1.414549	0.139895	0.419839
C88	C	1.914549	0.639895	0.919839
C89	C	1.478689	-0.000020	0.555263
C90	C	1.978689	0.499980	1.055263
C91	C	1.488195	0.000006	0.198260
C92	C	1.988195	0.500006	0.698260
H93	H	1.251062	-0.000035	0.024965
H94	H	1.751062	0.499965	0.524965
H95	H	1.809770	0.639044	0.091567
H96	H	2.309770	1.139044	0.591567
N97	N	1.180691	-0.000020	0.185123
N98	N	1.680691	0.499980	0.685123
H99	H	1.271337	-0.000030	0.171925
H100	H	1.771337	0.499970	0.671925
H101	H	1.164330	-0.090323	0.218800
H102	H	1.664330	0.409677	0.718800
N103	N	1.305629	0.340627	-0.240288
N104	N	1.805629	0.840627	0.259712
H105	H	1.353493	0.277020	-0.277729
H106	H	1.853493	0.777020	0.222271
H107	H	1.251446	0.412548	-0.275902
H108	H	1.751446	0.912548	0.224098
N109	N	1.832376	0.340601	0.106439
N110	N	2.332376	0.840601	0.606439
H111	H	1.819394	0.231832	0.097893
H112	H	2.319394	0.731832	0.597893
H113	H	1.818063	0.367395	0.165962
H114	H	2.318063	0.867395	0.665962
H115	H	1.075084	-0.000007	-0.263570
H116	H	1.575084	0.499993	0.236430
H117	H	1.673771	-0.100653	0.463877
H118	H	2.173771	0.399347	0.963877
H119	H	0.921783	0.000002	0.169483
H120	H	1.421783	0.500002	0.669483
H121	H	0.775757	0.000022	0.033347
H122	H	1.275757	0.500022	0.533347
H123	H	1.313023	0.148695	0.435775
H124	H	1.813023	0.648695	0.935775
H125	H	1.310767	-0.143614	0.434516
H126	H	1.810767	0.356386	0.934516
H127	H	1.315740	-0.144877	0.291481
H128	H	1.815740	0.355123	0.791481
H129	H	1.464297	0.242605	0.446887
H130	H	1.964297	0.742605	0.946887
N131	N	0.816171	0.000018	-0.279212
N132	N	1.316171	0.500018	0.220788
H133	H	0.725525	0.000016	-0.266012
H134	H	1.225525	0.500016	0.233988
H135	H	0.832523	-0.090288	-0.312886
H136	H	1.332523	0.409712	0.187114
N137	N	1.481571	-0.276948	0.298512
N138	N	1.981571	0.223052	0.798512
H139	H	1.507708	-0.337133	0.350410
H140	H	2.007708	0.162867	0.850410
H141	H	1.558740	-0.250193	0.270133
H142	H	2.058740	0.249807	0.770133
N143	N	1.280442	0.139860	0.281581
N144	N	1.780442	0.639860	0.781581
H145	H	1.265788	0.051715	0.243662
H146	H	1.765788	0.551715	0.743662
H147	H	1.265720	0.232269	0.247245
H148	H	1.765720	0.732269	0.747245
H149	H	1.654546	0.221786	-0.010608
H150	H	2.154546	0.721786	0.489392
N151	N	1.654546	0.818699	-0.010607
N152	N	2.154546	1.318699	0.489393
H153	H	1.739806	0.855642	-0.023428
H154	H	2.239806	1.355642	0.476572
H155	H	1.636407	0.855514	0.046442
H156	H	2.136407	1.355514	0.546442
H157	H	1.328246	0.639105	-0.225398
H158	H	1.828246	1.139105	0.274602
N159	N	1.691411	0.131215	0.473637
N160	N	2.191411	0.631215	0.973637
H161	H	1.724590	0.190188	0.427263
H162	H	2.224590	0.690188	0.927263
H163	H	1.764325	0.097536	0.514567
H164	H	2.264325	0.597536	1.014567
H165	H	1.678153	0.099563	0.320833
H166	H	2.178153	0.599563	0.820833
H167	H	1.677374	-0.099328	0.319653
H168	H	2.177374	0.400672	0.819653
N169	N	1.474990	-0.276226	0.457015
N170	N	1.974990	0.223774	0.957015
H171	H	1.469397	-0.277804	0.519652
H172	H	1.969397	0.222196	1.019652
H173	H	1.566536	-0.277874	0.445852
H174	H	2.066536	0.222126	0.945852
N175	N	1.474408	0.277513	0.295392
N176	N	1.974408	0.777513	0.795392
H177	H	1.548259	0.252586	0.263251
H178	H	2.048259	0.752586	0.763251
H179	H	1.504821	0.337747	0.346493
H180	H	2.004821	0.837747	0.846493
