data_functionalizedCrystal
_audit_creation_method	'MofGen! by Chris Wilmer'
_symmetry_space_group_name_H-M	'P1'
_symmetry_Int_Tables_number	1
_symmetry_cell_setting	triclinic
loop_
_symmetry_equiv_pos_as_xyz
  x,y,z
_cell_length_a	17.699083
_cell_length_b	10.654550
_cell_length_c	16.176319
_cell_angle_alpha	89.994395
_cell_angle_beta	89.998611
_cell_angle_gamma	83.883959
loop_
_atom_site_label
_atom_site_type_symbol
_atom_site_fract_x
_atom_site_fract_y
_atom_site_fract_z
O1	O	1.005088	0.158809	-0.068628
O2	O	0.784841	0.179470	-0.068655
O3	O	0.900029	-0.013688	-0.068638
O4	O	0.889901	0.351967	-0.068646
O5	O	0.900013	-0.013701	0.068855
O6	O	0.784825	0.179458	0.068838
O7	O	1.005072	0.158797	0.068865
Cu8	Cu	0.894947	0.169126	0.081406
Cu9	Cu	0.894966	0.169141	-0.081196
O10	O	0.889885	0.351955	0.068848
C11	C	0.756632	0.178724	0.000088
C12	C	0.672599	0.176503	0.000078
C13	C	0.624699	0.289883	0.000076
C14	C	0.545743	0.287788	0.000086
C15	C	0.514688	0.172313	0.000093
C16	C	0.562594	0.058924	0.000098
C17	C	0.641549	0.061020	0.000093
C18	C	0.244177	0.050470	0.000118
C19	C	0.165216	0.048383	0.000121
C20	C	0.148371	0.277239	0.000112
C21	C	0.227326	0.279334	0.000107
C22	C	0.275225	0.165946	0.000116
C23	C	0.360839	0.168219	0.000106
C24	C	0.429076	0.170039	0.000097
C25	C	0.899277	-0.060479	0.000107
C26	C	0.897052	-0.199884	0.000104
C27	C	0.964873	-0.280557	0.000115
C28	C	0.962778	-0.411541	0.000109
C29	C	0.825036	-0.381166	0.000085
C30	C	0.827132	-0.250185	0.000085
C31	C	1.034794	-0.230256	0.000134
C32	C	1.102620	-0.310930	0.000146
C33	C	1.100525	-0.441914	0.000140
C34	C	1.030603	-0.492224	0.000122
C35	C	1.033282	0.159543	0.000120
C36	C	1.117314	0.161764	0.000125
C37	C	0.890637	0.398746	0.000100
C38	C	0.892861	0.538151	0.000098
N39	N	0.894940	0.169115	0.195771
N40	N	0.894980	0.169142	-0.195561
C41	C	0.945960	0.083619	0.239042
C42	C	0.945964	0.083618	0.325590
C43	C	0.894950	0.169120	0.368863
C44	C	0.843924	0.254619	0.325586
C45	C	0.843917	0.254614	0.239040
C46	C	0.843950	0.254643	0.674614
C47	C	0.843962	0.254644	0.761165
C48	C	0.945997	0.083647	0.761163
C49	C	0.945990	0.083642	0.674618
C50	C	0.894962	0.169136	0.631348
C51	C	0.894957	0.169135	0.537503
C52	C	0.894958	0.169128	0.462706
H53	H	0.506745	0.380114	0.000084
C54	C	0.296856	-0.074257	0.000121
C55	C	0.353450	-0.104310	0.071519
C56	C	0.406132	-0.229046	0.071522
C57	C	0.402220	-0.323729	0.000127
C58	C	0.345624	-0.293678	-0.071276
C59	C	0.292942	-0.168943	-0.071278
H60	H	0.356348	-0.034218	0.124374
H61	H	0.448028	-0.251291	0.124379
H62	H	0.441218	-0.416065	0.000129
H63	H	0.342726	-0.363770	-0.124131
H64	H	0.251046	-0.146698	-0.124136
H65	H	0.771906	-0.184498	0.000077
H66	H	0.537303	-0.035099	0.000115
H67	H	1.036507	-0.123604	0.000142
H68	H	0.987505	0.014000	0.203815
H69	H	0.802384	0.324232	0.360824
C70	C	1.002089	-0.010421	0.373193
C71	C	1.058226	-0.104441	0.325601
C72	C	1.114353	-0.198485	0.373206
C73	C	1.114342	-0.198509	0.468403
C74	C	1.058202	-0.104485	0.516000
C75	C	1.002076	-0.010442	0.468395
H76	H	1.058236	-0.104427	0.255126
H77	H	1.155910	-0.268087	0.337971
H78	H	1.155890	-0.268125	0.503643
H79	H	1.058193	-0.104499	0.586475
H80	H	0.960518	0.059161	0.503630
C81	C	0.787839	0.348695	0.808769
C82	C	0.731707	0.442733	0.761176
C83	C	0.675588	0.536778	0.808780
C84	C	0.675602	0.536784	0.903977
C85	C	0.731736	0.442743	0.951575
C86	C	0.787855	0.348698	0.903971
H87	H	0.731695	0.442731	0.690701
H88	H	0.634033	0.606393	0.773545
H89	H	0.634059	0.606402	0.939217
H90	H	0.731748	0.442744	1.022050
H91	H	0.829410	0.279082	0.939207
C92	C	0.261483	0.406361	0.000105
C93	C	0.313447	0.439258	0.071501
C94	C	0.347602	0.566288	0.071506
C95	C	0.329794	0.660421	0.000113
C96	C	0.277827	0.627527	-0.071288
C97	C	0.243672	0.500497	-0.071292
H98	H	0.326632	0.369572	0.124355
H99	H	0.386071	0.590638	0.124362
H100	H	0.355077	0.754456	0.000116
H101	H	0.264642	0.697212	-0.124142
H102	H	0.205203	0.476147	-0.124149
H103	H	0.987545	0.014029	0.796403
H104	H	0.649978	0.383916	0.000069
H105	H	0.802402	0.324258	0.639390
H106	H	0.109361	0.369564	0.000109
H107	H	0.139935	-0.045657	0.000127
H108	H	0.680549	-0.031306	0.000094
H109	H	1.159547	-0.269958	0.000140
H110	H	1.155752	-0.507596	0.000141
H111	H	1.028903	-0.598881	0.000108
H112	H	0.987533	0.014023	0.639387
H113	H	0.768109	-0.422140	0.000072
H114	H	0.802370	0.324231	0.203809
