data_functionalizedCrystal
_audit_creation_method	'MofGen! by Chris Wilmer'
_symmetry_space_group_name_H-M	'P1'
_symmetry_Int_Tables_number	1
_symmetry_cell_setting	triclinic
loop_
_symmetry_equiv_pos_as_xyz
  x,y,z
_cell_length_a	12.811438
_cell_length_b	12.811415
_cell_length_c	11.295483
_cell_angle_alpha	88.701575
_cell_angle_beta	80.460799
_cell_angle_gamma	83.527069
loop_
_atom_site_label
_atom_site_type_symbol
_atom_site_fract_x
_atom_site_fract_y
_atom_site_fract_z
O1	O	1.412115	0.122564	-0.264743
O2	O	1.104370	0.140163	-0.233414
O3	O	1.264815	-0.020282	-0.233407
O4	O	1.251671	0.283009	-0.264750
O5	O	1.250722	-0.006211	-0.035354
O6	O	1.090278	0.154233	-0.035362
O7	O	1.398023	0.136635	-0.066690
Cu8	Cu	1.242864	0.146719	-0.032942
Cu9	Cu	1.259530	0.130079	-0.267162
O10	O	1.237579	0.297079	-0.066698
C11	C	1.057910	0.146643	-0.130072
C12	C	0.940466	0.144977	-0.117211
C13	C	0.767253	0.150299	0.008868
C14	C	0.877602	0.151865	-0.003211
C15	C	0.892974	0.136525	-0.219140
C16	C	0.782626	0.134959	-0.207061
C17	C	0.719769	0.141845	-0.093053
C18	C	0.609420	0.140271	-0.080975
C19	C	0.624794	0.124939	-0.296903
C20	C	0.735142	0.126505	-0.308982
C21	C	1.256600	-0.052048	-0.130066
C22	C	1.253106	-0.167664	-0.117207
C23	C	1.261887	-0.400248	-0.308983
C24	C	1.258604	-0.508879	-0.296907
C25	C	1.243251	-0.493560	-0.080978
C26	C	1.246533	-0.384928	-0.093054
C27	C	1.255853	-0.338276	-0.207061
C28	C	1.259143	-0.229644	-0.219137
C29	C	1.243782	-0.214325	-0.003208
C30	C	1.240500	-0.322957	0.008868
C31	C	1.444484	0.130154	-0.170035
C32	C	1.561928	0.131819	-0.182904
C33	C	1.245793	0.328845	-0.170042
C34	C	1.249288	0.444460	-0.182908
N35	N	1.231150	0.158422	0.131795
N36	N	1.271252	0.118367	-0.431899
C37	C	1.355577	0.034064	0.381082
C38	C	1.346732	0.042915	0.505745
C39	C	1.204610	0.184970	0.505786
C40	C	1.213455	0.176119	0.381123
C41	C	1.288942	0.100664	0.318776
C42	C	1.297791	0.091819	0.194110
C43	C	1.155665	0.233868	0.194154
C44	C	1.146820	0.242719	0.318817
H45	H	0.916258	0.158753	0.079783
O46	O	1.428900	-0.039115	0.320314
C47	C	1.505523	-0.115692	0.128241
C48	C	1.422440	-0.032770	0.196909
H49	H	1.500313	-0.110605	0.028460
H50	H	1.588679	-0.100584	0.142049
H51	H	1.489034	-0.197337	0.163404
H52	H	1.438830	0.048908	0.161791
H53	H	1.339311	-0.047970	0.183103
O54	O	0.953979	0.130036	-0.329919
C55	C	0.989965	0.207617	-0.526741
C56	C	0.920813	0.215099	-0.401325
H57	H	0.963162	0.276368	-0.584517
H58	H	1.076995	0.210263	-0.517929
H59	H	0.980886	0.130625	-0.570653
H60	H	0.929802	0.292081	-0.357344
H61	H	0.833811	0.212393	-0.410218
H62	H	1.359259	0.030382	0.143347
O63	O	0.578598	0.116914	-0.395901
C64	C	0.452003	0.196416	-0.516117
C65	C	0.504251	0.205654	-0.403986
H66	H	0.391867	0.268141	-0.522676
H67	H	0.515838	0.191827	-0.599718
H68	H	0.409573	0.122389	-0.508924
H69	H	0.546677	0.279677	-0.411062
H70	H	0.440371	0.210184	-0.320430
O71	O	1.131331	0.258386	0.566205
C72	C	1.068856	0.442368	0.591310
C73	C	1.151903	0.359337	0.522776
H74	H	1.085473	0.524008	0.556241
H75	H	0.985702	0.427367	0.577382
H76	H	1.073956	0.437196	0.691116
H77	H	1.146900	0.364461	0.422949
H78	H	1.235022	0.374366	0.536804
H79	H	1.266735	-0.191662	-0.311967
O80	O	1.073406	0.316036	0.379208
C81	C	0.933417	0.456042	0.366081
C82	C	1.016497	0.373039	0.297547
H83	H	0.887398	0.502166	0.300084
H84	H	0.875818	0.415415	0.435027
H85	H	0.975589	0.512043	0.413870
H86	H	0.974416	0.317014	0.249686
H87	H	1.074090	0.413736	0.228669
O88	O	0.796140	0.120002	-0.419765
C89	C	0.832117	0.197550	-0.616606
C90	C	0.762977	0.205057	-0.491183
H91	H	0.805316	0.266295	-0.674391
H92	H	0.919151	0.200188	-0.607808
H93	H	0.823022	0.120554	-0.660497
H94	H	0.771981	0.282044	-0.447222
H95	H	0.675970	0.202358	-0.500062
O96	O	1.270811	-0.354783	-0.419644
C97	C	1.191995	-0.228956	-0.550058
C98	C	1.181760	-0.280342	-0.424677
H99	H	1.119998	-0.168776	-0.554176
H100	H	1.267731	-0.188185	-0.568032
H101	H	1.195804	-0.291932	-0.620821
H102	H	1.177907	-0.217431	-0.353834
H103	H	1.106038	-0.321137	-0.406806
H104	H	1.232908	-0.360955	0.101689
H105	H	1.400991	-0.011318	0.556472
H106	H	0.558242	0.145885	0.011855
H107	H	1.263513	-0.559333	-0.379902
O108	O	0.706340	0.157036	0.119692
C109	C	0.702744	0.172332	0.332598
C110	C	0.771848	0.164737	0.207157
H111	H	0.755681	0.178538	0.403349
H112	H	0.641924	0.244880	0.336813
H113	H	0.659465	0.099116	0.350498
H114	H	0.815195	0.237898	0.189175
H115	H	0.832603	0.092143	0.203004
H116	H	1.238873	-0.163856	0.079784
H117	H	1.235655	-0.531562	0.011841
H118	H	1.101410	0.288101	0.143409
