data_functionalizedCrystal
_audit_creation_method	'MofGen! by Chris Wilmer'
_symmetry_space_group_name_H-M	'P1'
_symmetry_Int_Tables_number	1
_symmetry_cell_setting	triclinic
loop_
_symmetry_equiv_pos_as_xyz
  x,y,z
_cell_length_a	16.109301
_cell_length_b	15.995350
_cell_length_c	15.186229
_cell_angle_alpha	89.998487
_cell_angle_beta	89.999362
_cell_angle_gamma	83.476928
loop_
_atom_site_label
_atom_site_type_symbol
_atom_site_fract_x
_atom_site_fract_y
_atom_site_fract_z
O1	O	1.103160	0.107624	-0.073168
O2	O	1.603160	0.607624	0.426832
O3	O	0.861101	0.121018	-0.073182
O4	O	1.361101	0.621018	0.426818
O5	O	0.988747	-0.007569	-0.073174
O6	O	1.488747	0.492431	0.426826
O7	O	0.975514	0.236210	-0.073176
O8	O	1.475514	0.736210	0.426824
O9	O	0.988739	-0.007570	0.073283
O10	O	1.488739	0.492430	0.573283
O11	O	0.861093	0.121016	0.073275
O12	O	1.361093	0.621016	0.573275
O13	O	1.103151	0.107622	0.073289
O14	O	1.603151	0.607622	0.573289
Zn15	Zn	0.982121	0.114319	0.096535
Zn16	Zn	1.482121	0.614319	0.596535
Zn17	Zn	0.982132	0.114321	-0.096428
Zn18	Zn	1.482132	0.614321	0.403572
O19	O	0.975505	0.236208	0.073281
O20	O	1.475505	0.736208	0.573281
C21	C	0.830122	0.120474	0.000045
C22	C	1.330122	0.620474	0.500045
C23	C	0.737826	0.118848	0.000040
C24	C	1.237826	0.618848	0.500040
C25	C	0.515573	0.191366	0.000049
C26	C	1.015573	0.691366	0.500049
C27	C	0.428853	0.189831	0.000055
C28	C	0.928853	0.689831	0.500055
C29	C	0.448686	0.037268	0.000053
C30	C	0.948686	0.537268	0.500053
C31	C	0.535405	0.038804	0.000053
C32	C	1.035405	0.538804	0.500053
C33	C	0.568846	0.115855	0.000047
C34	C	1.068846	0.615855	0.500047
C35	C	0.395406	0.112785	0.000052
C36	C	0.895406	0.612785	0.500052
C37	C	0.301380	0.111120	0.000058
C38	C	0.801380	0.611120	0.500058
C39	C	0.662879	0.117520	0.000043
C40	C	1.162879	0.617520	0.500043
C41	C	0.988196	-0.038764	0.000053
C42	C	1.488196	0.461236	0.500053
C43	C	0.986556	-0.131714	0.000048
C44	C	1.486556	0.368286	0.500048
C45	C	0.980665	-0.469460	0.000050
C46	C	1.480665	0.030540	0.500050
C47	C	0.889758	-0.422001	-0.000283
C48	C	1.389758	0.077999	0.499717
C49	C	0.891399	-0.325311	0.000047
C50	C	1.391399	0.174689	0.500047
C51	C	0.983587	-0.301900	0.000049
C52	C	1.483587	0.198100	0.500049
C53	C	1.028421	-0.342991	0.083684
C54	C	1.528421	0.157009	0.583684
C55	C	1.026137	-0.439626	0.083754
C56	C	1.526137	0.060374	0.583754
C57	C	1.028025	-0.439983	-0.082795
C58	C	1.528025	0.060017	0.417205
C59	C	1.028003	-0.343037	-0.083901
C60	C	1.528003	0.156963	0.416099
C61	C	0.985243	-0.207203	0.000051
C62	C	1.485243	0.292797	0.500051
C63	C	0.979012	-0.564157	0.000054
C64	C	1.479012	-0.064157	0.500054
C65	C	1.134130	0.108166	0.000060
C66	C	1.634130	0.608166	0.500060
C67	C	1.226426	0.109792	0.000059
C68	C	1.726426	0.609792	0.500059
C69	C	0.976056	0.267404	0.000052
C70	C	1.476056	0.767404	0.500052
C71	C	0.977697	0.360354	0.000051
C72	C	1.477697	0.860354	0.500051
N73	N	0.982119	0.114317	0.228228
N74	N	1.482119	0.614317	0.728228
N75	N	0.982140	0.114317	-0.228121
N76	N	1.482140	0.614317	0.271879
C77	C	1.038660	0.057398	0.453954
C78	C	1.538660	0.557398	0.953954
C79	C	1.038662	0.057396	0.546144
C80	C	1.538662	0.557396	1.046144
C81	C	0.925593	0.171238	0.546146
C82	C	1.425593	0.671238	1.046146
C83	C	0.925587	0.171236	0.453958
C84	C	1.425587	0.671236	0.953958
C85	C	0.982125	0.114316	0.407865
C86	C	1.482125	0.614316	0.907865
C87	C	0.982134	0.114317	0.592242
C88	C	1.482134	0.614317	1.092242
C89	C	0.982136	0.114315	0.692198
C90	C	1.482136	0.614315	1.192198
C91	C	0.982122	0.114317	0.307902
C92	C	1.482122	0.614317	0.807902
H93	H	0.421447	-0.025465	0.000063
H94	H	0.921447	0.474535	0.500063
H95	H	0.578782	-0.022690	0.000054
H96	H	1.078782	0.477310	0.500054
C97	C	1.100854	-0.005211	0.596839
C98	C	1.600854	0.494789	1.096839
H99	H	1.134526	-0.039104	0.556181
H100	H	1.634526	0.460896	1.056181
H101	H	1.070954	-0.040077	0.632806
H102	H	1.570954	0.459923	1.132806
H103	H	1.135464	0.024926	0.632796
H104	H	1.635464	0.524926	1.132796
H105	H	0.993437	-0.457919	0.146271
H106	H	1.493437	0.042081	0.646271
H107	H	0.855912	-0.297438	0.060099
H108	H	1.355912	0.202562	0.560099
H109	H	0.879562	0.217582	0.583685
H110	H	1.379562	0.717582	1.083685
C111	C	0.843778	-0.286895	-0.080934
C112	C	1.343778	0.213105	0.419066
H113	H	0.823251	-0.330378	-0.114329
H114	H	1.323251	0.169622	0.385671
H115	H	0.880414	-0.258614	-0.116321
H116	H	1.380414	0.241386	0.383679
H117	H	0.798273	-0.248005	-0.062107
H118	H	1.298273	0.251995	0.437893
C119	C	0.863403	0.233853	0.403252
C120	C	1.363403	0.733853	0.903252
H121	H	0.871494	0.225694	0.341747
H122	H	1.371494	0.725694	0.841747
H123	H	0.872434	0.289737	0.418355
H124	H	1.372434	0.789737	0.918355
H125	H	0.807914	0.224744	0.418362
H126	H	1.307914	0.724744	0.918362
C127	C	0.552357	0.276119	0.000052
C128	C	1.052357	0.776119	0.500052
H129	H	0.508206	0.320869	0.000062
H130	H	1.008206	0.820869	0.500062
H131	H	0.585774	0.279895	-0.051020
H132	H	1.085774	0.779895	0.448980
H133	H	0.585772	0.279884	0.051132
H134	H	1.085772	0.779884	0.551132
C135	C	1.119916	-0.323942	0.087896
C136	C	1.619916	0.176058	0.587896
H137	H	1.145846	-0.349376	0.138953
H138	H	1.645846	0.150624	0.638953
H139	H	1.121510	-0.264805	0.090401
H140	H	1.621510	0.235195	0.590401
H141	H	1.148846	-0.345910	0.036930
H142	H	1.648846	0.154090	0.536930
H143	H	0.853427	-0.440522	-0.060260
H144	H	1.353427	0.059478	0.439740
C145	C	0.370256	0.272893	0.000051
C146	C	0.870256	0.772893	0.500051
H147	H	0.402596	0.318999	0.000041
H148	H	0.902596	0.818999	0.500041
H149	H	0.336013	0.275468	0.051123
H150	H	0.836013	0.775468	0.551123
H151	H	0.336016	0.275464	-0.051029
H152	H	0.836016	0.775464	0.448971
H153	H	0.853581	-0.441586	0.059355
H154	H	1.353581	0.058414	0.559355
H155	H	1.092880	-0.471892	0.087550
H156	H	1.592880	0.028108	0.587550
H157	H	0.997275	-0.314602	0.145921
H158	H	1.497275	0.185398	0.645921
C159	C	0.987877	-0.467710	-0.168431
C160	C	1.487877	0.032290	0.331569
H161	H	0.941851	-0.497525	-0.154457
H162	H	1.441851	0.002475	0.345543
H163	H	1.027992	-0.503195	-0.201087
H164	H	1.527992	-0.003195	0.298913
H165	H	0.968999	-0.419506	-0.202572
H166	H	1.468999	0.080494	0.297428
H167	H	0.995224	-0.315779	-0.145772
H168	H	1.495224	0.184221	0.354228
H169	H	1.095231	-0.327694	-0.088949
H170	H	1.595231	0.172306	0.411051
H171	H	1.095050	-0.471762	-0.083356
H172	H	1.595050	0.028238	0.416644
H173	H	1.084695	0.011050	0.416427
H174	H	1.584695	0.511050	0.916427
