data_functionalizedCrystal
_audit_creation_method	'MofGen! by Chris Wilmer'
_symmetry_space_group_name_H-M	'P1'
_symmetry_Int_Tables_number	1
_symmetry_cell_setting	triclinic
loop_
_symmetry_equiv_pos_as_xyz
  x,y,z
_cell_length_a	11.792241
_cell_length_b	10.268362
_cell_length_c	11.792253
_cell_angle_alpha	89.993099
_cell_angle_beta	95.803993
_cell_angle_gamma	90.000426
loop_
_atom_site_label
_atom_site_type_symbol
_atom_site_fract_x
_atom_site_fract_y
_atom_site_fract_z
O1	O	1.506917	0.108191	-0.155561
O2	O	2.006917	0.608191	0.344439
O3	O	1.176576	0.108223	-0.171594
O4	O	1.676576	0.608223	0.328406
O5	O	1.349755	0.108179	0.001592
O6	O	1.849755	0.608179	0.501592
O7	O	1.333737	0.108235	-0.328747
O8	O	1.833737	0.608235	0.171253
O9	O	1.349739	-0.108421	0.001586
O10	O	1.849739	0.391579	0.501586
O11	O	1.176560	-0.108377	-0.171600
O12	O	1.676560	0.391623	0.328400
O13	O	1.506900	-0.108409	-0.155567
O14	O	2.006900	0.391591	0.344433
Cu15	Cu	1.341728	-0.128171	-0.163584
Cu16	Cu	1.841728	0.371829	0.336416
Cu17	Cu	1.341748	0.127985	-0.163577
Cu18	Cu	1.841748	0.627985	0.336423
O19	O	1.333721	-0.108366	-0.328753
O20	O	1.833721	0.391634	0.171247
C21	C	1.134277	-0.000073	-0.170590
C22	C	1.634277	0.499927	0.329410
C23	C	1.008263	-0.000062	-0.167576
C24	C	1.508263	0.499938	0.332424
C25	C	0.777551	-0.000101	-0.162033
C26	C	1.277551	0.499899	0.337967
C27	C	0.905936	-0.000080	-0.165112
C28	C	1.405936	0.499920	0.334888
N29	N	1.341723	-0.308337	-0.163588
N30	N	1.841723	0.191663	0.336412
C31	C	1.341731	-0.426179	-0.163589
C32	C	1.841731	0.073821	0.336411
C33	C	1.341745	-0.574017	-0.163579
C34	C	1.841745	-0.074017	0.336421
C35	C	1.549199	-0.000110	-0.156571
C36	C	2.049199	0.499890	0.343429
C37	C	1.675213	-0.000112	-0.159586
C38	C	2.175213	0.499888	0.340414
C39	C	1.348738	-0.000125	0.043880
C40	C	1.848738	0.499875	0.543880
C41	C	1.345718	-0.000137	0.169893
C42	C	1.845718	0.499863	0.669893
N43	N	1.341762	0.308150	-0.163564
N44	N	1.841762	0.808150	0.336436
C45	C	1.343264	-0.000143	0.272229
C46	C	1.843264	0.499857	0.772229
C47	C	1.340196	-0.000145	0.400616
C48	C	1.840196	0.499855	0.900616
C49	C	1.334738	-0.000085	0.628959
C50	C	1.834738	0.499915	1.128959
C51	C	1.337758	-0.000146	0.502946
C52	C	1.837758	0.499854	1.002946
