data_functionalizedCrystal
_audit_creation_method	'MofGen! by Chris Wilmer'
_symmetry_space_group_name_H-M	'P1'
_symmetry_Int_Tables_number	1
_symmetry_cell_setting	triclinic
loop_
_symmetry_equiv_pos_as_xyz
  x,y,z
_cell_length_a	12.759401
_cell_length_b	19.120786
_cell_length_c	12.759393
_cell_angle_alpha	87.522881
_cell_angle_beta	89.981504
_cell_angle_gamma	92.465417
loop_
_atom_site_label
_atom_site_type_symbol
_atom_site_fract_x
_atom_site_fract_y
_atom_site_fract_z
Zn1	Zn	1.588335	-0.279587	-0.576097
Zn2	Zn	1.580700	-0.397064	-0.392903
Zn3	Zn	1.412635	-0.279624	-0.400435
Zn4	Zn	1.405099	-0.397010	-0.568548
O5	O	1.496692	-0.338321	-0.484496
O6	O	1.734343	-0.295178	-0.551804
O7	O	1.558364	-0.381523	-0.246879
O8	O	1.442291	-0.181328	-0.430048
O9	O	1.728733	-0.381488	-0.417212
O10	O	1.571377	-0.181301	-0.559107
O11	O	1.434887	-0.295241	-0.252412
O12	O	1.264615	-0.295188	-0.422728
O13	O	1.429448	-0.381396	-0.716573
O14	O	1.259078	-0.381431	-0.546240
O15	O	1.564070	-0.295126	-0.722120
O16	O	1.551057	-0.495348	-0.409892
O17	O	1.422044	-0.495308	-0.538937
C18	C	1.223726	-0.338308	-0.484482
C19	C	1.106948	-0.338320	-0.484500
C20	C	1.049227	-0.383298	-0.548698
C21	C	0.939502	-0.383307	-0.548708
C22	C	0.945231	-0.293357	-0.420316
C23	C	1.054953	-0.293345	-0.420312
C24	C	1.101221	-0.428273	-0.612887
C25	C	1.043499	-0.473256	-0.677088
C26	C	0.933775	-0.473265	-0.677099
C27	C	0.881772	-0.428291	-0.612908
C28	C	1.484933	-0.520814	-0.472801
C29	C	1.479998	-0.598885	-0.467833
C30	C	1.544838	-0.635488	-0.532747
C31	C	1.540197	-0.708844	-0.528081
C32	C	1.470721	-0.745595	-0.458494
C33	C	1.405874	-0.708987	-0.393577
C34	C	1.410510	-0.635632	-0.398249
C35	C	1.453358	-0.967082	-0.441028
C36	C	1.448729	-1.040442	-0.436358
C37	C	1.583052	-1.040294	-0.570864
C38	C	1.587686	-0.966938	-0.575526
C39	C	1.522835	-0.930336	-0.510612
C40	C	1.465978	-0.820577	-0.453721
C41	C	1.527574	-0.855356	-0.515392
C42	C	1.770725	-0.338335	-0.484510
C43	C	1.887501	-0.338341	-0.484516
C44	C	1.496770	-0.338251	-0.758534
C45	C	1.496804	-0.338220	-0.875312
C46	C	1.508526	-0.155117	-0.496260
C47	C	1.513569	-0.077046	-0.501273
C48	C	1.566911	-0.293295	-0.933065
C49	C	1.566938	-0.293270	-1.042790
C50	C	1.426746	-0.383101	-1.037002
C51	C	1.426715	-0.383122	-0.927278
C52	C	1.636999	-0.248394	-0.881099
C53	C	1.707113	-0.203465	-0.938851
C54	C	1.707140	-0.203440	-1.048577
C55	C	1.637053	-0.248343	-1.100550
C56	C	1.496678	-0.338341	-0.211527
C57	C	1.496861	-0.338174	-0.094762
H58	H	1.190564	-0.428272	-0.612883
H59	H	1.764223	-0.166852	-1.095596
O60	O	1.094132	-0.516841	-0.739501
C61	C	1.217407	-0.526390	-0.880743
C62	C	1.160158	-0.476952	-0.810113
H63	H	1.270786	-0.494159	-0.937865
H64	H	1.266468	-0.563064	-0.830120
H65	H	1.157280	-0.558553	-0.926582
H66	H	1.220213	-0.444743	-0.764261
H67	H	1.111078	-0.440324	-0.860793
H68	H	1.637068	-0.248310	-1.189897
O69	O	1.358776	-0.426699	-1.087649
C70	C	1.296662	-0.466453	-1.254123
C71	C	1.373707	-0.417050	-1.196900
H72	H	1.308692	-0.458659	-1.342462
H73	H	1.311450	-0.523110	-1.228981
H74	H	1.212746	-0.454128	-1.233280
H75	H	1.457652	-0.429312	-1.217715
H76	H	1.358828	-0.360408	-1.222046
H77	H	0.886780	-0.509887	-0.729382
H78	H	1.369612	-0.419693	-0.880256
H79	H	0.792427	-0.428296	-0.612932
O80	O	0.894551	-0.249746	-0.357984
C81	C	0.728055	-0.209883	-0.301120
C82	C	0.785313	-0.259316	-0.371752
H83	H	0.639727	-0.217592	-0.312244
H84	H	0.748734	-0.222154	-0.215566
H85	H	0.753329	-0.153263	-0.323317
H86	H	0.760071	-0.315952	-0.349649
H87	H	0.764633	-0.246984	-0.457289
O88	O	1.110870	-0.249638	-0.357844
C89	C	1.104984	-0.160403	-0.230524
C90	C	1.041530	-0.209877	-0.301201
H91	H	1.048950	-0.128233	-0.184726
H92	H	1.154232	-0.192575	-0.173380
H93	H	1.158760	-0.123738	-0.281208
H94	H	0.987696	-0.246552	-0.250600
H95	H	0.992350	-0.177661	-0.358351
H96	H	1.635848	-1.070104	-0.623714
H97	H	1.644259	-0.937017	-0.632189
H98	H	1.601418	-0.605570	-0.589408
H99	H	1.392148	-1.070363	-0.379691
O100	O	1.603306	-0.744292	-0.591162
C101	C	1.737020	-0.736404	-0.725071
C102	C	1.665614	-0.696173	-0.653678
H103	H	1.787398	-0.697518	-0.775649
H104	H	1.789873	-0.770714	-0.674727
H105	H	1.686589	-0.770772	-0.777743
H106	H	1.715964	-0.661767	-0.600994
H107	H	1.612756	-0.661907	-0.704084
O108	O	1.390524	-0.931453	-0.377922
C109	C	1.381701	-0.848743	-0.241290
C110	C	1.452981	-0.889042	-0.312715
H111	H	1.432168	-0.814455	-0.188536
H112	H	1.328926	-0.814362	-0.291608
H113	H	1.331227	-0.887622	-0.190795
H114	H	1.503520	-0.850213	-0.363222
H115	H	1.505686	-0.923434	-0.262335
O116	O	1.338329	-0.744762	-0.326121
C117	C	1.191215	-0.827641	-0.306583
C118	C	1.267654	-0.787183	-0.383096
H119	H	1.134041	-0.861937	-0.352618
H120	H	1.237252	-0.862028	-0.249515
H121	H	1.145716	-0.788864	-0.260966
H122	H	1.313172	-0.825909	-0.428783
H123	H	1.221557	-0.752785	-0.440095
H124	H	1.357710	-0.605830	-0.345390
O125	O	1.775228	-0.159781	-0.888536
C126	C	1.914322	-0.070707	-0.905858
C127	C	1.837221	-0.120134	-0.962969
H128	H	1.964479	-0.038650	-0.966011
H129	H	1.868502	-0.033941	-0.856876
H130	H	1.967114	-0.102982	-0.852391
H131	H	1.784410	-0.087916	-1.016489
H132	H	1.883106	-0.156902	-1.011884
H133	H	1.584137	-0.825431	-0.572054
O134	O	1.398444	-0.856357	-0.386258
C135	C	1.251340	-0.939244	-0.366723
C136	C	1.327768	-0.898776	-0.443235
H137	H	1.194165	-0.973538	-0.412760
H138	H	1.297386	-0.973634	-0.309667
H139	H	1.205841	-0.900474	-0.321093
H140	H	1.373286	-0.937495	-0.488936
H141	H	1.281662	-0.864376	-0.500223
H142	H	1.636988	-0.248411	-0.791755
