data_functionalizedCrystal
_audit_creation_method	'MofGen! by Chris Wilmer'
_symmetry_space_group_name_H-M	'P1'
_symmetry_Int_Tables_number	1
_symmetry_cell_setting	triclinic
loop_
_symmetry_equiv_pos_as_xyz
  x,y,z
_cell_length_a	17.699083
_cell_length_b	16.176319
_cell_length_c	17.699083
_cell_angle_alpha	90.007696
_cell_angle_beta	96.716985
_cell_angle_gamma	89.998611
loop_
_atom_site_label
_atom_site_type_symbol
_atom_site_fract_x
_atom_site_fract_y
_atom_site_fract_z
O1	O	1.004079	-0.068632	-0.095713
O2	O	1.504079	0.431368	0.404287
O3	O	0.783700	-0.068660	-0.108166
O4	O	1.283700	0.431340	0.391834
O5	O	0.900116	-0.068638	0.008250
O6	O	1.400116	0.431362	0.508250
O7	O	0.887663	-0.068654	-0.212129
O8	O	1.387663	0.431346	0.287871
O9	O	0.900100	0.068855	0.008257
O10	O	1.400100	0.568855	0.508257
O11	O	0.783684	0.068834	-0.108158
O12	O	1.283684	0.568834	0.391842
O13	O	1.004063	0.068861	-0.095706
O14	O	1.504063	0.568861	0.404294
Cu15	Cu	0.893872	0.081401	-0.101931
Cu16	Cu	1.393872	0.581401	0.398069
Cu17	Cu	0.893891	-0.081200	-0.101940
Cu18	Cu	1.393891	0.418800	0.398060
O19	O	0.887647	0.068839	-0.212121
O20	O	1.387647	0.568839	0.287879
C21	C	0.755495	0.000084	-0.107716
C22	C	1.255495	0.500084	0.392284
C23	C	0.671477	0.000073	-0.106377
C24	C	1.171477	0.500073	0.393623
N25	N	0.893864	0.195767	-0.101925
N26	N	1.393864	0.695767	0.398075
N27	N	0.893905	-0.195565	-0.101941
N28	N	1.393905	0.304435	0.398059
C29	C	0.622856	0.000069	-0.174710
C30	C	1.122856	0.500069	0.325290
C31	C	0.543913	0.000079	-0.173448
C32	C	1.043913	0.500079	0.326552
C33	C	0.513592	0.000089	-0.103852
C34	C	1.013592	0.500089	0.396148
C35	C	0.562219	0.000096	-0.035513
C36	C	1.062219	0.500096	0.464487
C37	C	0.641161	0.000091	-0.036776
C38	C	1.141161	0.500091	0.463224
C39	C	0.243856	0.000117	-0.030418
C40	C	0.743856	0.500117	0.469582
C41	C	0.164908	0.000120	-0.029160
C42	C	0.664908	0.500120	0.470840
C43	C	0.146608	0.000105	-0.167090
C44	C	0.646608	0.500105	0.332910
C45	C	0.225550	0.000100	-0.168353
C46	C	0.725550	0.500100	0.331647
C47	C	0.274170	0.000112	-0.100015
C48	C	0.774170	0.500112	0.399985
C49	C	0.359769	0.000102	-0.101384
C50	C	0.859769	0.500102	0.398616
C51	C	0.427995	0.000093	-0.102481
C52	C	0.927995	0.500093	0.397519
C53	C	1.032268	0.000116	-0.096156
C54	C	1.532268	0.500116	0.403844
C55	C	1.116286	0.000121	-0.097494
C56	C	1.616286	0.500121	0.402506
C57	C	0.899662	0.000109	0.036451
C58	C	1.399662	0.500109	0.536451
C59	C	0.898323	0.000109	0.120469
C60	C	1.398323	0.500109	0.620469
C61	C	0.945429	0.239040	-0.050397
C62	C	1.445429	0.739040	0.449603
C63	C	0.945432	0.325588	-0.050396
C64	C	1.445432	0.825588	0.449604
C65	C	0.893875	0.368859	-0.101927
C66	C	1.393875	0.868859	0.398073
C67	C	0.842305	0.325579	-0.153457
C68	C	1.342305	0.825579	0.346543
C69	C	0.842299	0.239034	-0.153454
C70	C	1.342299	0.739034	0.346546
C71	C	0.842331	0.674608	-0.153472
C72	C	1.342331	1.174608	0.346528
C73	C	0.842344	0.761159	-0.153473
C74	C	1.342344	1.261159	0.346527
C75	C	0.945465	0.761161	-0.050414
C76	C	1.445465	1.261161	0.449586
C77	C	0.945458	0.674616	-0.050410
C78	C	1.445458	1.174616	0.449590
C79	C	0.893886	0.631344	-0.101937
C80	C	1.393886	1.131344	0.398063
C81	C	0.893882	0.537499	-0.101937
C82	C	1.393882	1.037499	0.398063
C83	C	0.893883	0.462702	-0.101932
C84	C	1.393883	0.962702	0.398068
C85	C	0.888102	0.000091	-0.240322
C86	C	1.388102	0.500091	0.259678
C87	C	0.889440	0.000085	-0.324340
C88	C	1.389440	0.500085	0.175660
C89	C	0.966656	0.000119	0.169090
C90	C	1.466656	0.500119	0.669090
C91	C	0.965394	0.000111	0.248033
C92	C	1.465394	0.500111	0.748033
C93	C	0.895798	0.000100	0.278354
C94	C	1.395798	0.500100	0.778354
C95	C	0.827459	0.000088	0.229727
C96	C	1.327459	0.500088	0.729727
C97	C	0.828722	0.000089	0.150785
C98	C	1.328722	0.500089	0.650785
C99	C	0.822364	0.000080	0.548090
C100	C	1.322364	0.500080	1.048090
C101	C	0.821106	0.000081	0.627038
C102	C	1.321106	0.500081	1.127038
C103	C	0.959036	0.000102	0.645338
C104	C	1.459036	0.500102	1.145338
C105	C	0.960299	0.000104	0.566396
C106	C	1.460299	0.500104	1.066396
C107	C	0.891961	0.000087	0.517776
C108	C	1.391961	0.500087	1.017776
C109	C	0.893330	0.000094	0.432177
C110	C	1.393330	0.500094	0.932177
C111	C	0.894427	0.000099	0.363951
C112	C	1.394427	0.500099	0.863951
H113	H	0.504328	0.000075	-0.229092
H114	H	1.004328	0.500075	0.270908
H115	H	0.987416	0.203814	-0.008438
H116	H	1.487416	0.703814	0.491562
C117	C	0.234240	-0.070592	-0.286316
C118	C	0.734240	0.429408	0.213684
C119	C	0.258871	0.000088	-0.244859
C120	C	0.758871	0.500088	0.255141
H121	H	0.254805	-0.070593	-0.333551
H122	H	0.754805	0.429407	0.166449
H123	H	0.250942	-0.118528	-0.258190
H124	H	0.750942	0.381472	0.241810
H125	H	0.180265	-0.070580	-0.295333
H126	H	0.680265	0.429420	0.204667
H127	H	0.312845	0.000074	-0.235837
H128	H	0.812845	0.500074	0.264163
H129	H	0.242173	0.048037	-0.272991
H130	H	0.742173	0.548037	0.227009
C131	C	0.797646	0.647961	-0.284555
C132	C	1.297646	1.147961	0.215445
C133	C	0.785651	0.627054	-0.210119
C134	C	1.285651	1.127054	0.289881
H135	H	0.762655	0.618597	-0.319528
H136	H	1.262655	1.118597	0.180472
H137	H	0.790276	0.705691	-0.291920
H138	H	1.290276	1.205691	0.208080
H139	H	0.848141	0.633759	-0.292699
H140	H	1.348141	1.133759	0.207301
H141	H	0.735157	0.641261	-0.201973
H142	H	1.235157	1.141261	0.298027
H143	H	0.793014	0.569311	-0.202750
H144	H	1.293014	1.069311	0.297250
C145	C	0.631547	-0.070622	-0.292674
C146	C	1.131547	0.429378	0.207326
C147	C	0.656178	0.000057	-0.251216
C148	C	1.156178	0.500057	0.248784
H149	H	0.652114	-0.070623	-0.339909
H150	H	1.152114	0.429377	0.160091
H151	H	0.648249	-0.118559	-0.264549
H152	H	1.148249	0.381441	0.235451
H153	H	0.577573	-0.070610	-0.301692
H154	H	1.077573	0.429390	0.198308
H155	H	0.710152	0.000042	-0.242193
H156	H	1.210152	0.500042	0.257807
H157	H	0.639480	0.048007	-0.279347
H158	H	1.139480	0.548007	0.220653
H159	H	0.537526	0.000116	0.021154
H160	H	1.037526	0.500116	0.521154
C161	C	0.017468	0.000117	-0.226411
C162	C	0.517468	0.500117	0.273589
C163	C	0.093162	0.000104	-0.242211
C164	C	0.593162	0.500104	0.257789
H165	H	-0.015524	0.000119	-0.272788
H166	H	0.484476	0.500119	0.227212
H167	H	0.008290	-0.047822	-0.197874
H168	H	0.508290	0.452178	0.302126
H169	H	0.008301	0.048072	-0.197867
H170	H	0.508301	0.548072	0.302133
H171	H	0.102330	-0.047855	-0.270751
H172	H	0.602330	0.452145	0.229249
H173	H	0.102343	0.048048	-0.270760
H174	H	0.602343	0.548048	0.229240
C175	C	0.990162	0.787818	0.080675
C176	C	1.490162	1.287818	0.580675
C177	C	1.002147	0.808729	0.006237
C178	C	1.502147	1.308729	0.506237
H179	H	1.025158	0.817181	0.115645
H180	H	1.525158	1.317181	0.615645
H181	H	0.939675	0.802012	0.088826
H182	H	1.439675	1.302012	0.588826
H183	H	0.997539	0.730081	0.088038
H184	H	1.497539	1.230081	0.588038
H185	H	0.994764	0.866466	-0.001129
H186	H	1.494764	1.366466	0.498871
H187	H	1.052647	0.794541	-0.001917
H188	H	1.552647	1.294541	0.498083
H189	H	0.987444	0.639387	-0.008451
H190	H	1.487444	1.139387	0.491549
C191	C	1.095509	0.000128	0.655497
C192	C	1.595509	0.500128	1.155497
C193	C	1.034158	0.000111	0.698783
C194	C	1.534158	0.500111	1.198783
H195	H	1.141884	0.000140	0.688492
H196	H	1.641884	0.500140	1.188492
H197	H	1.093139	-0.047815	0.624321
H198	H	1.593139	0.452185	1.124321
H199	H	1.093118	0.048080	0.624331
H200	H	1.593118	0.548080	1.124331
H201	H	1.036546	-0.047844	0.729945
H202	H	1.536546	0.452156	1.229945
H203	H	1.036529	0.048059	0.729972
H204	H	1.536529	0.548059	1.229972
C205	C	0.796531	0.458245	-0.199231
C206	C	1.296531	0.958245	0.300769
C207	C	0.785633	0.373142	-0.210104
C208	C	1.285633	0.873142	0.289896
H209	H	0.761547	0.487605	-0.234208
H210	H	1.261547	0.987605	0.265792
H211	H	0.788406	0.472437	-0.148735
H212	H	1.288406	0.972437	0.351265
H213	H	0.847030	0.472409	-0.207389
H214	H	1.347030	0.972409	0.292611
H215	H	0.735136	0.358977	-0.201940
H216	H	1.235136	0.858977	0.298060
H217	H	0.793753	0.358944	-0.260612
H218	H	1.293753	0.858944	0.239388
C219	C	0.651327	0.000093	0.099693
C220	C	1.151327	0.500093	0.599693
C221	C	0.694609	0.000089	0.038338
C222	C	1.194609	0.500089	0.538338
H223	H	0.684324	0.000088	0.146066
H224	H	1.184324	0.500088	0.646066
H225	H	0.620160	0.048039	0.097321
H226	H	1.120160	0.548039	0.597321
H227	H	0.620151	-0.047855	0.097307
H228	H	1.120151	0.452145	0.597307
H229	H	0.725780	0.048041	0.040720
H230	H	1.225780	0.548041	0.540720
H231	H	0.725788	-0.047862	0.040711
H232	H	1.225788	0.452138	0.540711
C233	C	0.746031	-0.070602	0.307883
C234	C	1.246031	0.429398	0.807883
C235	C	0.750958	0.000076	0.263056
C236	C	1.250958	0.500076	0.763056
H237	H	0.698803	-0.070603	0.328462
H238	H	1.198803	0.429397	0.828462
H239	H	0.749392	-0.118540	0.277462
H240	H	1.249392	0.381460	0.777462
H241	H	0.786553	-0.070587	0.348136
H242	H	1.286553	0.429413	0.848136
H243	H	0.710439	0.000057	0.222800
H244	H	1.210439	0.500057	0.722800
H245	H	0.747590	0.048026	0.293479
H246	H	1.247590	0.548026	0.793479
H247	H	0.764429	0.000074	0.651721
H248	H	1.264429	0.500074	1.151721
C249	C	0.190924	0.000153	0.107063
C250	C	0.690924	0.500153	0.607063
C251	C	0.131579	0.000139	0.047346
C252	C	0.631579	0.500139	0.547346
H253	H	0.170345	0.000169	0.154291
H254	H	0.670345	0.500169	0.654291
H255	H	0.221332	-0.047792	0.103708
H256	H	0.721332	0.452208	0.603708
H257	H	0.221334	0.048102	0.103696
H258	H	0.721334	0.548102	0.603696
H259	H	0.101171	-0.047814	0.050711
H260	H	0.601171	0.452186	0.550711
H261	H	0.101157	0.048089	0.050703
H262	H	0.601157	0.548089	0.550703
H263	H	0.766718	0.000067	0.508512
H264	H	1.266718	0.500067	1.008512
H265	H	1.023330	0.000133	0.144409
H266	H	1.523330	0.500133	0.644409
H267	H	0.773078	0.000081	0.111198
H268	H	1.273078	0.500081	0.611198
C269	C	0.740371	0.247719	-0.255333
C270	C	1.240371	0.747719	0.244667
C271	C	0.785621	0.191464	-0.210099
C272	C	1.285621	0.691464	0.289901
H273	H	0.705382	0.218350	-0.290305
H274	H	1.205382	0.718350	0.209695
H275	H	0.713211	0.281483	-0.223864
H276	H	1.213211	0.781483	0.276136
H277	H	0.771834	0.281467	-0.282519
H278	H	1.271834	0.781467	0.217481
H279	H	0.754159	0.157720	-0.182908
H280	H	1.254159	0.657720	0.317092
H281	H	0.812783	0.157686	-0.241572
H282	H	1.312783	0.657686	0.258428
C283	C	1.047386	0.316897	0.051455
C284	C	1.547386	0.816897	0.551455
C285	C	1.002125	0.373154	0.006233
C286	C	1.502125	0.873154	0.506233
H287	H	1.082392	0.346264	0.086411
H288	H	1.582392	0.846264	0.586411
H289	H	1.015938	0.283156	0.078651
H290	H	1.515938	0.783156	0.578651
H291	H	1.074534	0.283126	0.019969
H292	H	1.574534	0.783126	0.519969
H293	H	0.974973	0.406921	0.037719
H294	H	1.474973	0.906921	0.537719
H295	H	1.033577	0.406909	-0.020965
H296	H	1.533577	0.906909	0.479035
C297	C	0.372988	0.000115	0.028900
C298	C	0.872988	0.500115	0.528900
C299	C	0.297294	0.000118	0.044698
C300	C	0.797294	0.500118	0.544698
H301	H	0.405979	0.000118	0.075277
H302	H	0.905979	0.500118	0.575277
H303	H	0.382161	-0.047830	0.000357
H304	H	0.882161	0.452170	0.500357
H305	H	0.382162	0.048065	0.000363
H306	H	0.882162	0.548065	0.500363
H307	H	0.288119	-0.047836	0.073231
H308	H	0.788119	0.452164	0.573231
H309	H	0.288118	0.048067	0.073254
H310	H	0.788118	0.548067	0.573254
C311	C	0.711236	0.787830	-0.198066
C312	C	1.211236	1.287830	0.301934
C313	C	0.785662	0.808728	-0.210112
C314	C	1.285662	1.308728	0.289888
H315	H	0.676247	0.817202	-0.233029
H316	H	1.176247	1.317202	0.266971
H317	H	0.703852	0.730101	-0.205444
H318	H	1.203852	1.230101	0.294556
H319	H	0.703133	0.802027	-0.147558
H320	H	1.203133	1.302027	0.352442
H321	H	0.793767	0.794525	-0.260619
H322	H	1.293767	1.294525	0.239381
H323	H	0.793049	0.866469	-0.202741
H324	H	1.293049	1.366469	0.297259
C325	C	1.082590	-0.070541	0.287917
C326	C	1.582590	0.429459	0.787917
C327	C	1.040512	0.000127	0.301473
C328	C	1.540512	0.500127	0.801473
H329	H	1.128969	-0.070528	0.320905
H330	H	1.628969	0.429472	0.820905
H331	H	1.054057	-0.118486	0.297094
H332	H	1.554057	0.381514	0.797094
H333	H	1.093290	-0.070527	0.236559
H334	H	1.593290	0.429473	0.736559
H335	H	1.029806	0.000109	0.352829
H336	H	1.529806	0.500109	0.852829
H337	H	1.069050	0.048084	0.292301
H338	H	1.569050	0.548084	0.792301
C339	C	1.041741	-0.070565	0.488226
C340	C	1.541741	0.429435	0.988226
C341	C	1.036800	0.000114	0.533067
C342	C	1.536800	0.500114	1.033067
H343	H	1.088969	-0.070557	0.467648
H344	H	1.588969	0.429443	0.967648
H345	H	1.038389	-0.118502	0.518637
H346	H	1.538389	0.381498	1.018637
H347	H	1.001220	-0.070559	0.447973
H348	H	1.501220	0.429441	0.947973
H349	H	1.077319	0.000105	0.573323
H350	H	1.577319	0.500105	1.073323
H351	H	1.040159	0.048064	0.502653
H352	H	1.540159	0.548064	1.002653
