data_functionalizedCrystal
_audit_creation_method	'MofGen! by Chris Wilmer'
_symmetry_space_group_name_H-M	'P1'
_symmetry_Int_Tables_number	1
_symmetry_cell_setting	triclinic
loop_
_symmetry_equiv_pos_as_xyz
  x,y,z
_cell_length_a	8.597340
_cell_length_b	8.597304
_cell_length_c	14.586319
_cell_angle_alpha	82.296329
_cell_angle_beta	97.698596
_cell_angle_gamma	86.359595
loop_
_atom_site_label
_atom_site_type_symbol
_atom_site_fract_x
_atom_site_fract_y
_atom_site_fract_z
O1	O	2.085998	0.234302	0.070038
O2	O	2.585998	0.734302	0.570038
O3	O	1.629348	0.252277	0.032544
O4	O	2.129348	0.752277	0.532544
O5	O	1.866659	0.014961	0.070038
O6	O	2.366659	0.514961	0.570038
O7	O	1.848687	0.471619	0.032543
O8	O	2.348687	0.971619	0.532543
O9	O	1.866642	0.014957	0.222518
O10	O	2.366642	0.514957	0.722518
O11	O	1.629331	0.252273	0.185023
O12	O	2.129331	0.752273	0.685023
O13	O	2.085981	0.234298	0.222517
O14	O	2.585981	0.734298	0.722517
Cu15	Cu	1.857655	0.243285	0.217693
Cu16	Cu	2.357655	0.743285	0.717693
Cu17	Cu	1.857674	0.243290	0.037368
Cu18	Cu	2.357674	0.743290	0.537368
O19	O	1.848670	0.471615	0.185023
O20	O	2.348670	0.971615	0.685023
C21	C	1.570839	0.250345	0.104315
C22	C	2.070839	0.750345	0.604315
C23	C	1.396526	0.244574	0.091000
C24	C	1.896526	0.744574	0.591000
C25	C	1.864720	-0.043543	0.150745
C26	C	2.364720	0.456457	0.650745
C27	C	1.858949	-0.217858	0.164054
C28	C	2.358949	0.282142	0.664054
C29	C	2.144490	0.236231	0.150744
C30	C	2.644490	0.736231	0.650744
C31	C	2.318803	0.242001	0.164053
C32	C	2.818803	0.742001	0.664053
C33	C	1.850609	0.530118	0.104314
C34	C	2.350609	1.030118	0.604314
C35	C	1.856380	0.704433	0.090999
C36	C	2.356380	1.204433	0.590999
N37	N	1.857652	0.243281	0.344525
N38	N	2.357652	0.743281	0.844525
N39	N	1.857689	0.243282	-0.089462
N40	N	2.357689	0.743282	0.410538
C41	C	1.962769	0.138234	0.596134
C42	C	2.462769	0.638234	1.096134
C43	C	1.962774	0.138230	0.692116
C44	C	2.462774	0.638230	1.192116
C45	C	1.752560	0.348334	0.658921
C46	C	2.252560	0.848334	1.158921
C47	C	1.752550	0.348329	0.562941
C48	C	2.252550	0.848329	1.062941
C49	C	1.857663	0.243281	0.531550
C50	C	2.357663	0.743281	1.031550
C51	C	1.857678	0.243282	0.723512
C52	C	2.357678	0.743282	1.223512
C53	C	1.857682	0.243279	0.827580
C54	C	2.357682	0.743279	1.327580
C55	C	1.857657	0.243282	0.427476
C56	C	2.357657	0.743282	0.927476
H57	H	1.858591	-0.228740	0.018266
H58	H	2.358591	0.271260	0.518266
C59	C	1.636907	0.463844	0.693450
C60	C	2.136907	0.963844	1.193450
H61	H	1.574284	0.526382	0.641238
H62	H	2.074284	1.026382	1.141238
H63	H	1.694333	0.530110	0.730201
H64	H	2.194333	1.030110	1.230201
H65	H	1.570715	0.406282	0.730202
H66	H	2.070715	0.906282	1.230202
H67	H	2.048359	0.052690	0.744698
H68	H	2.548359	0.552690	1.244698
C69	C	1.855942	-0.308130	0.262316
C70	C	2.355942	0.191870	0.762316
H71	H	1.852329	-0.417378	0.258679
H72	H	2.352329	0.082622	0.758679
H73	H	1.765529	-0.270786	0.286396
H74	H	2.265529	0.229214	0.786396
H75	H	1.948140	-0.291937	0.302489
H76	H	2.448140	0.208063	0.802489
H77	H	1.385616	0.244203	0.236787
H78	H	1.885616	0.744203	0.736787
H79	H	1.329707	0.242361	0.018262
H80	H	1.829707	0.742361	0.518262
H81	H	2.048357	0.052695	0.570579
H82	H	2.548357	0.552695	1.070579
C83	C	1.636941	0.463894	0.491891
C84	C	2.136941	0.963894	0.991891
H85	H	1.651983	0.448835	0.430234
H86	H	2.151983	0.948835	0.930234
H87	H	1.655600	0.568935	0.500791
H88	H	2.155600	1.068935	1.000791
H89	H	1.531909	0.445179	0.500807
H90	H	2.031909	0.945179	1.000807
