data_functionalizedCrystal
_audit_creation_method	'MofGen! by Chris Wilmer'
_symmetry_space_group_name_H-M	'P1'
_symmetry_Int_Tables_number	1
_symmetry_cell_setting	triclinic
loop_
_symmetry_equiv_pos_as_xyz
  x,y,z
_cell_length_a	10.489711
_cell_length_b	10.489711
_cell_length_c	12.996460
_cell_angle_alpha	89.997572
_cell_angle_beta	89.992898
_cell_angle_gamma	84.527009
loop_
_atom_site_label
_atom_site_type_symbol
_atom_site_fract_x
_atom_site_fract_y
_atom_site_fract_z
O1	O	1.694058	0.179792	-0.085595
O2	O	1.322856	0.196725	-0.085588
O3	O	1.516923	0.002657	-0.085594
O4	O	1.499991	0.373860	-0.085588
O5	O	1.516903	0.002646	0.085540
O6	O	1.322835	0.196714	0.085546
O7	O	1.694038	0.179781	0.085539
Cu8	Cu	1.508435	0.188246	0.101168
Cu9	Cu	1.508459	0.188259	-0.101217
O10	O	1.499970	0.373848	0.085545
C11	C	1.275314	0.195448	-0.000020
C12	C	1.133683	0.191646	-0.000018
C13	C	0.951284	0.308352	-0.000028
C14	C	1.043446	0.250062	-0.084405
C15	C	1.043398	0.250019	0.084319
C16	C	0.973508	0.126517	-0.084487
C17	C	0.973451	0.126492	0.084313
C18	C	1.065585	0.068112	-0.000085
C19	C	1.515642	-0.044880	-0.000030
C20	C	1.511840	-0.186511	-0.000039
C21	C	1.628547	-0.368910	-0.000031
C22	C	1.570240	-0.276766	0.084347
C23	C	1.570229	-0.276779	-0.084377
C24	C	1.446696	-0.346703	0.084429
C25	C	1.446702	-0.346726	-0.084371
C26	C	1.388306	-0.254609	0.000027
C27	C	1.741580	0.181057	-0.000031
C28	C	1.883211	0.184859	-0.000040
C29	C	1.501251	0.421386	-0.000021
C30	C	1.505054	0.563017	-0.000019
N31	N	1.508427	0.188236	0.243515
N32	N	1.508477	0.188259	-0.243564
C33	C	1.508457	0.188261	0.663330
C34	C	1.508445	0.188258	0.546525
C35	C	1.508443	0.188250	0.453426
C36	C	1.508429	0.188245	0.336614
H37	H	1.730049	-0.418611	0.000051
H38	H	1.622485	-0.245788	0.155681
H39	H	1.074340	0.302289	0.155655
H40	H	0.942713	0.074318	-0.155905
H41	H	1.394477	-0.377512	0.155844
H42	H	1.115054	-0.033485	-0.000129
O43	O	1.267089	-0.195628	0.000263
C44	C	1.202459	-0.231314	0.089332
H45	H	1.275375	-0.263954	0.151230
H46	H	1.137445	-0.145793	0.118782
H47	H	1.142295	-0.313048	0.070011
H48	H	1.622513	-0.245820	-0.155711
H49	H	1.074443	0.302322	-0.155736
H50	H	0.901583	0.409855	-0.000110
H51	H	0.942425	0.074278	0.155650
O52	O	1.384610	-0.383695	-0.169578
C53	C	1.450038	-0.348421	-0.258373
H54	H	1.554137	-0.337257	-0.238161
H55	H	1.446195	-0.425777	-0.319602
H56	H	1.402692	-0.253708	-0.289158
