data_functionalizedCrystal
_audit_creation_method	'MofGen! by Chris Wilmer'
_symmetry_space_group_name_H-M	'P1'
_symmetry_Int_Tables_number	1
_symmetry_cell_setting	triclinic
loop_
_symmetry_equiv_pos_as_xyz
  x,y,z
_cell_length_a	16.109301
_cell_length_b	13.339070
_cell_length_c	15.186229
_cell_angle_alpha	89.998719
_cell_angle_beta	89.999362
_cell_angle_gamma	99.545388
loop_
_atom_site_label
_atom_site_type_symbol
_atom_site_fract_x
_atom_site_fract_y
_atom_site_fract_z
O1	O	1.133153	0.130020	-0.073168
O2	O	1.633153	0.630020	0.426832
O3	O	0.894827	0.146201	-0.073182
O4	O	1.394827	0.646201	0.426818
O5	O	0.986638	-0.009144	-0.073174
O6	O	1.486638	0.490856	0.426826
O7	O	1.041342	0.285365	-0.073176
O8	O	1.541342	0.785365	0.426824
O9	O	0.986629	-0.009146	0.073283
O10	O	1.486629	0.490854	0.573283
O11	O	0.894818	0.146199	0.073275
O12	O	1.394818	0.646199	0.573275
O13	O	1.133144	0.130018	0.073289
O14	O	1.633144	0.630018	0.573289
Zn15	Zn	1.013980	0.138108	0.096535
Zn16	Zn	1.513980	0.638108	0.596535
Zn17	Zn	1.013992	0.138111	-0.096428
Zn18	Zn	1.513992	0.638111	0.403572
O19	O	1.041333	0.285363	0.073281
O20	O	1.541333	0.785363	0.573281
C21	C	0.863697	0.145545	0.000045
C22	C	1.363697	0.645545	0.500045
C23	C	0.770947	0.143580	0.000040
C24	C	1.270947	0.643580	0.500040
C25	C	0.568905	0.231189	0.000049
C26	C	1.068905	0.731189	0.500049
C27	C	0.481756	0.229335	0.000055
C28	C	0.981756	0.729335	0.500055
C29	C	0.459072	0.045023	0.000053
C30	C	0.959072	0.545023	0.500053
C31	C	0.546219	0.046879	0.000053
C32	C	1.046219	0.546879	0.500053
C33	C	0.601133	0.139965	0.000047
C34	C	1.101133	0.639965	0.500047
C35	C	0.426838	0.136255	0.000052
C36	C	0.926838	0.636255	0.500052
C37	C	0.332347	0.134244	0.000058
C38	C	0.832347	0.634244	0.500058
C39	C	0.695630	0.141976	0.000043
C40	C	1.195630	0.641976	0.500043
C41	C	0.977393	-0.046831	0.000053
C42	C	1.477393	0.453169	0.500053
C43	C	0.949849	-0.159124	0.000048
C44	C	1.449849	0.340876	0.500048
C45	C	1.164017	-0.523987	0.000060
C46	C	1.664017	-0.023987	0.500060
C47	C	1.189898	-0.418483	0.000070
C48	C	1.689898	0.081517	0.500070
C49	C	1.129888	-0.353638	0.000064
C50	C	1.629888	0.146362	0.500064
C51	C	1.043992	-0.394307	0.000049
C52	C	1.543992	0.105693	0.500049
C53	C	1.018108	-0.499822	0.000046
C54	C	1.518108	0.000178	0.500046
C55	C	0.983979	-0.329473	0.000050
C56	C	1.483979	0.170527	0.500050
C57	C	0.898083	-0.370142	0.000035
C58	C	1.398083	0.129858	0.500035
C59	C	0.872203	-0.475647	0.000032
C60	C	1.372203	0.024353	0.500032
C61	C	0.932213	-0.540492	0.000038
C62	C	1.432213	-0.040492	0.500038
C63	C	1.009863	-0.223958	0.000053
C64	C	1.509863	0.276042	0.500053
C65	C	0.863954	-0.199793	0.000039
C66	C	1.363954	0.300207	0.500039
C67	C	0.838073	-0.305297	0.000029
C68	C	1.338073	0.194703	0.500029
C69	C	1.164275	0.130675	0.000060
C70	C	1.664275	0.630675	0.500060
C71	C	1.257024	0.132640	0.000060
C72	C	1.757024	0.632640	0.500060
C73	C	1.050578	0.323050	0.000052
C74	C	1.550578	0.823050	0.500052
C75	C	1.078122	0.435343	0.000052
C76	C	1.578122	0.935343	0.500052
N77	N	1.013977	0.138106	0.228228
N78	N	1.513977	0.638106	0.728228
N79	N	1.013998	0.138106	-0.228121
N80	N	1.513998	0.638106	0.271879
C81	C	1.054656	0.069342	0.453954
C82	C	1.554656	0.569342	0.953954
C83	C	1.054658	0.069340	0.546144
C84	C	1.554658	0.569340	1.046144
C85	C	0.973315	0.206873	0.546146
C86	C	1.473315	0.706873	1.046146
C87	C	0.973308	0.206869	0.453958
C88	C	1.473308	0.706869	0.953958
C89	C	1.013984	0.138105	0.407865
C90	C	1.513984	0.638105	0.907865
C91	C	1.013992	0.138106	0.592242
C92	C	1.513992	0.638106	1.092242
C93	C	1.013994	0.138104	0.692198
C94	C	1.513994	0.638104	1.192198
C95	C	1.013980	0.138106	0.307902
C96	C	1.513980	0.638106	0.807902
H97	H	0.572459	-0.027412	0.000054
H98	H	1.072459	0.472588	0.500054
C99	C	1.230017	-0.595322	0.000073
C100	C	1.730017	-0.095322	0.500073
N101	N	1.279734	-0.649053	0.000083
N102	N	1.779734	-0.149053	0.500083
H103	H	1.087775	0.013349	0.416427
H104	H	1.587775	0.513349	0.916427
C105	C	0.797938	-0.128468	0.000030
C106	C	1.297938	0.371532	0.500030
N107	N	0.748219	-0.074739	0.000024
N108	N	1.248219	0.425261	0.500024
C109	C	0.777715	-0.520380	0.000024
C110	C	1.277715	-0.020380	0.500024
N111	N	0.706546	-0.554071	0.000018
N112	N	1.206546	-0.054071	0.500018
C113	C	0.446309	0.329690	0.000062
C114	C	0.946309	0.829690	0.500062
N115	N	0.419611	0.405281	0.000069
N116	N	0.919611	0.905281	0.500069
C117	C	1.099392	-0.006313	0.596838
C118	C	1.599392	0.493687	1.096838
N119	N	1.133084	-0.063302	0.635021
N120	N	1.633084	0.436698	1.135021
C121	C	1.104347	-0.179235	0.000063
C122	C	1.604347	0.320765	0.500063
N123	N	1.175517	-0.145550	0.000068
N124	N	1.675517	0.354450	0.500068
H125	H	0.414350	-0.030764	0.000063
H126	H	0.914350	0.469236	0.500063
H127	H	1.150966	-0.267732	0.000072
H128	H	1.650966	0.232268	0.500072
C129	C	1.284381	-0.373754	0.000086
C130	C	1.784381	0.126246	0.500086
N131	N	1.355550	-0.340065	0.000096
N132	N	1.855550	0.159935	0.500096
H133	H	0.940199	0.262860	0.583685
H134	H	1.440199	0.762860	1.083685
C135	C	0.928611	0.282564	0.403257
C136	C	1.428611	0.782564	0.903257
N137	N	0.894963	0.339590	0.365068
N138	N	1.394963	0.839590	0.865068
C139	C	0.903747	-0.656554	0.000037
C140	C	1.403747	-0.156554	0.500037
N141	N	0.882309	-0.743975	0.000042
N142	N	1.382309	-0.243975	0.500042
C143	C	0.743588	-0.350048	0.000025
C144	C	1.243588	0.149952	0.500025
N145	N	0.672422	-0.383756	0.000026
N146	N	1.172422	0.116244	0.500026
H147	H	0.613614	0.306986	0.000051
H148	H	1.113614	0.806986	0.500051
