data_functionalizedCrystal
_audit_creation_method	'MofGen! by Chris Wilmer'
_symmetry_space_group_name_H-M	'P1'
_symmetry_Int_Tables_number	1
_symmetry_cell_setting	triclinic
loop_
_symmetry_equiv_pos_as_xyz
  x,y,z
_cell_length_a	10.489741
_cell_length_b	10.489741
_cell_length_c	8.965430
_cell_angle_alpha	89.999293
_cell_angle_beta	89.998843
_cell_angle_gamma	95.460826
loop_
_atom_site_label
_atom_site_type_symbol
_atom_site_fract_x
_atom_site_fract_y
_atom_site_fract_z
O1	O	1.694053	-0.179958	-0.123946
O2	O	1.322858	-0.196851	-0.123969
O3	O	1.516902	-0.002807	-0.123948
O4	O	1.500009	-0.374003	-0.123967
O5	O	1.516886	-0.002820	0.124130
O6	O	1.322841	-0.196864	0.124110
O7	O	1.694037	-0.179971	0.124133
Cu8	Cu	1.508438	-0.188419	0.146773
Cu9	Cu	1.508457	-0.188404	-0.146609
O10	O	1.499993	-0.374016	0.124112
C11	C	1.275318	-0.195582	0.000067
C12	C	1.133688	-0.191765	0.000059
C13	C	1.065548	-0.068300	0.000079
C14	C	0.973430	-0.126617	-0.122237
C15	C	0.973447	-0.126659	0.122349
C16	C	1.043435	-0.250133	-0.122358
C17	C	1.043462	-0.250158	0.122338
C18	C	0.951371	-0.308564	-0.000007
C19	C	1.515618	0.044718	0.000090
C20	C	1.511801	0.186348	0.000087
C21	C	1.741577	-0.181241	0.000093
C22	C	1.883206	-0.185058	0.000092
C23	C	1.501277	-0.421541	0.000070
C24	C	1.505094	-0.563170	0.000063
N25	N	1.508433	-0.188429	0.353122
C26	C	1.388336	0.254488	0.000069
C27	C	1.446652	0.346604	0.122388
C28	C	1.446697	0.346591	-0.122198
C29	C	1.570167	0.276599	0.122508
C30	C	1.570195	0.276576	-0.122189
C31	C	1.628600	0.368665	0.000161
N32	N	1.508471	-0.188384	-0.352958
C33	C	1.418666	-0.278138	0.450418
C34	C	1.534163	-0.303949	0.549838
C35	C	1.392986	-0.162629	0.549830
C36	C	1.623988	-0.214298	0.450352
C37	C	1.482735	-0.072927	0.450336
C38	C	1.598314	-0.098690	0.549711
H39	H	1.074502	-0.302361	0.225749
H40	H	1.622398	0.245537	-0.225600
C41	C	0.931589	-0.056075	0.262056
C42	C	1.032503	-0.001015	0.375451
C43	C	0.990650	0.069578	0.515148
C44	C	0.847882	0.085111	0.541451
C45	C	0.746958	0.030049	0.428053
C46	C	0.788811	-0.040544	0.288355
H47	H	1.138197	-0.012512	0.355983
H48	H	1.065361	0.110338	0.599093
H49	H	0.816900	0.137368	0.644864
H50	H	0.641265	0.041546	0.447520
H51	H	0.714100	-0.081304	0.204410
H52	H	1.295338	-0.140828	0.593530
H53	H	1.115238	0.033196	-0.000069
H54	H	0.942422	-0.074371	-0.225643
C55	C	1.085080	-0.320627	-0.262230
C56	C	1.227685	-0.337213	-0.288130
C57	C	1.269333	-0.407698	-0.428003
C58	C	1.168377	-0.461598	-0.541977
C59	C	1.025763	-0.445014	-0.516081
C60	C	0.984114	-0.374529	-0.376207
H61	H	1.302427	-0.297312	-0.203756
H62	H	1.374906	-0.419974	-0.447173
H63	H	1.199207	-0.513775	-0.645520
H64	H	0.951021	-0.484915	-0.600454
H65	H	0.878541	-0.362252	-0.357038
H66	H	1.721659	-0.236216	0.406840
C67	C	1.251206	0.187401	0.000217
C68	C	1.159607	0.209859	0.129795
C69	C	1.022482	0.142770	0.129952
C70	C	0.976957	0.053223	0.000531
C71	C	1.068558	0.030761	-0.129057
C72	C	1.205683	0.097850	-0.129214
H73	H	1.193306	0.276151	0.225610
H74	H	0.954673	0.159399	0.225882
H75	H	0.875449	0.003560	0.000647
H76	H	1.034859	-0.035531	-0.224871
H77	H	1.273492	0.081221	-0.225144
H78	H	1.342824	-0.354072	0.406821
H79	H	0.901947	-0.410168	-0.000079
H80	H	1.674327	-0.022803	0.593034
H81	H	1.460937	0.024699	0.406596
H82	H	1.394404	0.377610	0.225794
H83	H	1.622355	0.245761	0.226035
H84	H	1.394447	0.377561	-0.225620
H85	H	1.730204	0.418089	0.000235
H86	H	1.555925	-0.401606	0.593543
