data_functionalizedCrystal
_audit_creation_method	'MofGen! by Chris Wilmer'
_symmetry_space_group_name_H-M	'P1'
_symmetry_Int_Tables_number	1
_symmetry_cell_setting	triclinic
loop_
_symmetry_equiv_pos_as_xyz
  x,y,z
_cell_length_a	12.594517
_cell_length_b	25.639239
_cell_length_c	12.594510
_cell_angle_alpha	89.959196
_cell_angle_beta	89.988729
_cell_angle_gamma	90.035172
loop_
_atom_site_label
_atom_site_type_symbol
_atom_site_fract_x
_atom_site_fract_y
_atom_site_fract_z
Zn1	Zn	1.627093	-0.208161	-0.601533
Zn2	Zn	1.626912	-0.295613	-0.423534
Zn3	Zn	1.449097	-0.208187	-0.423592
Zn4	Zn	1.449007	-0.295561	-0.601495
O5	O	1.538027	-0.251880	-0.512538
O6	O	1.776015	-0.219772	-0.577912
O7	O	1.603287	-0.284048	-0.274596
O8	O	1.472822	-0.135018	-0.447236
O9	O	1.775882	-0.284023	-0.447137
O10	O	1.603595	-0.134999	-0.577969
O11	O	1.472647	-0.219816	-0.274638
O12	O	1.300140	-0.219766	-0.447200
O13	O	1.472668	-0.283935	-0.750446
O14	O	1.300073	-0.283960	-0.577904
O15	O	1.603507	-0.219722	-0.750473
O16	O	1.603199	-0.368771	-0.447101
O17	O	1.472493	-0.368733	-0.577848
C18	C	1.261486	-0.251860	-0.512554
C19	C	1.143181	-0.251865	-0.512587
C20	C	1.073922	-0.286848	-0.583539
C21	C	1.003153	-0.239176	-0.609728
C22	C	1.003151	-0.299576	-0.486374
C23	C	1.073970	-0.204167	-0.538827
C24	C	1.073974	-0.264600	-0.415427
C25	C	1.003237	-0.216895	-0.441579
C26	C	1.537845	-0.387723	-0.512487
C27	C	1.537865	-0.445837	-0.512500
C28	C	1.469956	-0.697023	-0.580597
C29	C	1.469916	-0.642419	-0.580584
O30	O	1.412003	-0.614176	-0.638446
N31	N	1.537999	-0.615111	-0.512556
C32	C	1.606133	-0.642410	-0.444544
O33	O	1.664040	-0.614168	-0.386680
C34	C	1.606177	-0.697013	-0.444562
C35	C	1.538082	-0.724318	-0.512587
C36	C	1.401867	-0.724328	-0.648617
C37	C	1.401906	-0.778929	-0.648627
C38	C	1.470032	-0.806224	-0.580618
C39	C	1.538121	-0.778919	-0.512598
C40	C	1.674316	-0.724311	-0.376556
C41	C	1.674355	-0.778918	-0.376581
C42	C	1.606260	-0.806224	-0.444606
C43	C	1.606286	-0.860815	-0.444599
N44	N	1.538203	-0.888123	-0.512627
C45	C	1.470076	-0.860827	-0.580636
C46	C	1.606037	-0.527739	-0.444511
C47	C	1.605988	-0.473137	-0.444486
C48	C	1.469772	-0.473150	-0.580529
C49	C	1.469816	-0.527753	-0.580547
C50	C	1.537954	-0.555047	-0.512539
C51	C	1.470161	-0.975492	-0.580653
C52	C	1.470202	-1.030098	-0.580655
C53	C	1.606422	-1.030080	-0.444617
C54	C	1.606377	-0.975480	-0.444611
C55	C	1.538243	-0.948187	-0.512638
O56	O	1.664173	-0.889092	-0.386769
O57	O	1.412189	-0.889075	-0.638500
C58	C	1.815648	-0.251900	-0.512523
C59	C	1.933954	-0.251909	-0.512516
C60	C	1.538098	-0.251820	-0.790159
C61	C	1.538128	-0.251794	-0.908465
C62	C	1.538239	-0.115507	-0.512613
C63	C	1.538329	-0.057393	-0.512645
C64	C	1.609312	-0.216867	-0.977733
C65	C	1.512247	-0.204065	-1.048544
C66	C	1.635250	-0.264559	-1.048453
C67	C	1.441010	-0.238969	-0.977717
C68	C	1.564079	-0.299484	-0.977621
C69	C	1.466947	-0.286701	-1.048399
C70	C	1.538019	-0.251903	-0.235997
C71	C	1.538195	-0.251781	-0.117692
H72	H	1.104963	-0.316375	-0.643619
F73	F	1.483586	-0.151345	-1.089266
H74	H	1.406708	-0.316233	-1.079232
H75	H	1.669405	-0.187312	-0.946701
F76	F	1.742569	-0.278679	-1.089067
H77	H	1.729845	-0.801139	-0.321202
F78	F	1.746802	-0.695263	-0.304162
F79	F	1.114637	-0.278669	-0.308084
H80	H	0.972045	-0.228420	-0.691864
H81	H	0.972395	-0.187295	-0.381547
F82	F	1.114455	-0.151436	-0.567889
H83	H	0.972039	-0.339907	-0.464236
F84	F	1.397723	-1.059155	-0.653059
H85	H	1.661815	-0.953248	-0.389208
H86	H	1.358880	-0.228120	-0.946775
F87	F	1.678926	-1.059140	-0.372243
H88	H	1.414682	-0.953277	-0.636048
F89	F	1.592778	-0.352191	-0.936870
H90	H	1.346454	-0.801156	-0.704019
F91	F	1.329353	-0.695287	-0.721010
F92	F	1.397342	-0.556808	-0.652948
H93	H	1.414301	-0.450916	-0.635907
H94	H	1.661521	-0.549959	-0.389122
F95	F	1.678452	-0.444083	-0.372073
