data_functionalizedCrystal
_audit_creation_method	'MofGen! by Chris Wilmer'
_symmetry_space_group_name_H-M	'P1'
_symmetry_Int_Tables_number	1
_symmetry_cell_setting	triclinic
loop_
_symmetry_equiv_pos_as_xyz
  x,y,z
_cell_length_a	11.792241
_cell_length_b	16.109301
_cell_length_c	14.586319
_cell_angle_alpha	90.005214
_cell_angle_beta	89.999304
_cell_angle_gamma	83.827448
loop_
_atom_site_label
_atom_site_type_symbol
_atom_site_fract_x
_atom_site_fract_y
_atom_site_fract_z
O1	O	-1.505908	-0.113953	-0.076154
O2	O	-1.175464	-0.125697	-0.076176
O3	O	-1.349763	0.001163	-0.076155
O4	O	-1.331608	-0.240814	-0.076175
O5	O	-1.349751	0.001165	0.076325
O6	O	-1.175452	-0.125695	0.076305
O7	O	-1.505896	-0.113951	0.076326
Cu8	Cu	-1.340673	-0.119823	0.090238
Cu9	Cu	-1.340687	-0.119825	-0.090088
O10	O	-1.331596	-0.240812	0.076306
C11	C	-1.349022	0.032142	0.000085
C12	C	-1.346817	0.124448	0.000087
C13	C	-1.133173	-0.124959	0.000062
C14	C	-1.007179	-0.122751	0.000054
C15	C	-1.548186	-0.114690	0.000087
C16	C	-1.674181	-0.116898	0.000088
C17	C	-0.776502	-0.118690	0.000080
C18	C	-0.904868	-0.120946	0.000066
C19	C	-1.332338	-0.271791	0.000063
C20	C	-1.334542	-0.364097	0.000055
N21	N	-1.340671	-0.119821	0.217070
C22	C	-1.445116	0.346258	0.000078
C23	C	-1.443036	0.432988	0.000071
C24	C	-1.236235	0.414087	0.000061
C25	C	-1.238317	0.327358	0.000062
C26	C	-1.342761	0.293446	0.000075
C27	C	-1.338599	0.466905	0.000067
C28	C	-1.336342	0.560942	0.000058
C29	C	-1.345018	0.199404	0.000082
N30	N	-1.340698	-0.119821	-0.216920
C31	C	-1.417876	-0.063666	0.452086
C32	C	-1.417879	-0.063664	0.548067
C33	C	-1.263484	-0.175978	0.548058
C34	C	-1.263476	-0.175976	0.452078
C35	C	-1.340679	-0.119821	0.404095
C36	C	-1.340690	-0.119821	0.596055
C37	C	-1.340693	-0.119820	0.700123
C38	C	-1.340675	-0.119821	0.300021
H39	H	-1.530161	0.318650	0.000088
H40	H	-1.200629	-0.221700	0.587136
H41	H	-1.151201	0.441709	0.000052
O42	O	-1.492716	-0.009035	0.594726
C43	C	-1.431964	0.042546	0.650268
H44	H	-1.342460	0.044391	0.621347
H45	H	-1.478298	0.108401	0.651361
H46	H	-1.426010	0.016556	0.723007
O47	O	-1.492682	-0.009046	0.405393
C48	C	-1.431874	0.042556	0.349931
H49	H	-1.343076	0.009846	0.335530
H50	H	-1.479244	0.055533	0.282447
H51	H	-1.424132	0.104014	0.386967
O52	O	-1.542569	0.484170	0.000117
C53	C	-1.635193	0.435636	0.000105
H54	H	-1.606360	0.371046	0.028974
H55	H	-1.706906	0.467308	0.044377
H56	H	-1.667213	0.429308	-0.073046
O57	O	-1.138777	0.276170	0.000100
C58	C	-1.046146	0.324697	0.000073
H59	H	-1.074967	0.389294	0.028944
H60	H	-0.974431	0.293029	0.044337
H61	H	-1.014136	0.331009	-0.073082
H62	H	-1.200607	-0.221704	0.413002
