data_functionalizedCrystal
_audit_creation_method	'MofGen! by Chris Wilmer'
_symmetry_space_group_name_H-M	'P1'
_symmetry_Int_Tables_number	1
_symmetry_cell_setting	triclinic
loop_
_symmetry_equiv_pos_as_xyz
  x,y,z
_cell_length_a	9.065218
_cell_length_b	11.792254
_cell_length_c	7.540329
_cell_angle_alpha	89.996229
_cell_angle_beta	89.996962
_cell_angle_gamma	84.607241
loop_
_atom_site_label
_atom_site_type_symbol
_atom_site_fract_x
_atom_site_fract_y
_atom_site_fract_z
O1	O	1.958849	0.166429	-0.147488
O2	O	1.529437	0.180080	-0.147491
O3	O	1.754553	0.008143	-0.147477
O4	O	1.733732	0.338366	-0.147502
O5	O	1.754540	0.008141	0.147488
O6	O	1.529423	0.180078	0.147474
O7	O	1.958835	0.166427	0.147477
Cu8	Cu	1.744128	0.173252	0.174408
Cu9	Cu	1.744144	0.173255	-0.174422
O10	O	1.733718	0.338364	0.147463
C11	C	1.474455	0.178767	-0.000008
C12	C	1.310649	0.174844	-0.000009
C13	C	1.753235	-0.034156	0.000005
C14	C	1.749309	-0.160191	0.000004
C15	C	1.746119	-0.262545	-0.000003
C16	C	1.742131	-0.390954	-0.000019
C17	C	2.013816	0.167740	-0.000009
C18	C	2.177623	0.171663	-0.000020
C19	C	1.735037	0.380663	-0.000023
C20	C	1.738962	0.506698	-0.000033
N21	N	1.744127	0.173250	0.419757
N22	N	1.744156	0.173248	-0.419771
