data_functionalizedCrystal
_audit_creation_method	'MofGen! by Chris Wilmer'
_symmetry_space_group_name_H-M	'P1'
_symmetry_Int_Tables_number	1
_symmetry_cell_setting	triclinic
loop_
_symmetry_equiv_pos_as_xyz
  x,y,z
_cell_length_a	17.077404
_cell_length_b	12.827892
_cell_length_c	17.077396
_cell_angle_alpha	89.975123
_cell_angle_beta	89.980499
_cell_angle_gamma	90.015617
loop_
_atom_site_label
_atom_site_type_symbol
_atom_site_fract_x
_atom_site_fract_y
_atom_site_fract_z
Zn1	Zn	1.200096	-0.416027	-0.443862
Zn2	Zn	1.200020	-0.590789	-0.312605
Zn3	Zn	1.068827	-0.416063	-0.312610
Zn4	Zn	1.068812	-0.590727	-0.443828
O5	O	1.134439	-0.503402	-0.378226
O6	O	1.309932	-0.439220	-0.426463
O7	O	1.182591	-0.567653	-0.202758
O8	O	1.086278	-0.269823	-0.330038
O9	O	1.309877	-0.567617	-0.330028
O10	O	1.182720	-0.269796	-0.426468
O11	O	1.086205	-0.439282	-0.202763
O12	O	0.958978	-0.439222	-0.330005
O13	O	1.086253	-0.567511	-0.553680
O14	O	0.958968	-0.567547	-0.426410
O15	O	1.182706	-0.439160	-0.553705
O16	O	1.182577	-0.737017	-0.329995
O17	O	1.086179	-0.736971	-0.426404
C18	C	0.930491	-0.503383	-0.378205
C19	C	0.843241	-0.503400	-0.378214
C20	C	0.802266	-0.570319	-0.428332
C21	C	0.720285	-0.570321	-0.428344
C22	C	0.679282	-0.503409	-0.378235
C23	C	0.720263	-0.436482	-0.328115
C24	C	0.802242	-0.436475	-0.328107
C25	C	0.549393	-0.436502	-0.328134
C26	C	0.467408	-0.436510	-0.328140
C27	C	0.467436	-0.570349	-0.428371
C28	C	0.549415	-0.570342	-0.428363
C29	C	0.590391	-0.503416	-0.378242
C30	C	1.134390	-0.774912	-0.378213
C31	C	1.134440	-0.891065	-0.378233
C32	C	1.182198	-0.942837	-0.330579
C33	C	1.182251	-1.062888	-0.330599
C34	C	1.339183	-0.503421	-0.378249
C35	C	1.426433	-0.503430	-0.378258
C36	C	1.134486	-0.503325	-0.582971
C37	C	1.134506	-0.503292	-0.670221
C38	C	1.134509	-0.230831	-0.378257
C39	C	1.134540	-0.114678	-0.378271
C40	C	1.184731	-0.436454	-0.711225
C41	C	1.184741	-0.436419	-0.793206
C42	C	1.134529	-0.503228	-0.834180
C43	C	1.084298	-0.570069	-0.793170
C44	C	1.084285	-0.570098	-0.711191
C45	C	1.084330	-0.570007	-0.964040
C46	C	1.084344	-0.569980	-1.046025
C47	C	1.184785	-0.436327	-1.046055
C48	C	1.184772	-0.436356	-0.964076
C49	C	1.134543	-0.503199	-0.923071
C50	C	1.134437	-0.503403	-0.174279
C51	C	1.134568	-0.503141	-0.087029
H52	H	0.434070	-0.624839	-0.469184
H53	H	1.225641	-0.381995	-0.826588
F54	F	1.235691	-1.121079	-0.277268
F55	F	1.081053	-0.949292	-0.431584
F56	F	0.676621	-0.365261	-0.274789
F57	F	0.423770	-0.365299	-0.274805
F58	F	1.030896	-0.641077	-1.089631
F59	F	0.593000	-0.365271	-0.274790
H60	H	0.835603	-0.381977	-0.287300
H61	H	1.223048	-0.898288	-0.289769
H62	H	1.225622	-0.382053	-0.677870
F63	F	1.081089	-1.056494	-0.431597
H64	H	1.225664	-0.381960	-0.930716
F65	F	1.238244	-0.365188	-1.089695
F66	F	1.030868	-0.641147	-0.920402
F67	F	1.030855	-0.641169	-0.836780
F68	F	1.030827	-0.641234	-0.667551
H69	H	0.686927	-0.624815	-0.469154
H70	H	0.582798	-0.624834	-0.469163
F71	F	0.845898	-0.641543	-0.481662
