data_functionalizedCrystal
_audit_creation_method	'MofGen! by Chris Wilmer'
_symmetry_space_group_name_H-M	'P1'
_symmetry_Int_Tables_number	1
_symmetry_cell_setting	triclinic
loop_
_symmetry_equiv_pos_as_xyz
  x,y,z
_cell_length_a	11.792241
_cell_length_b	10.268362
_cell_length_c	14.971486
_cell_angle_alpha	90.001555
_cell_angle_beta	83.903772
_cell_angle_gamma	90.000426
loop_
_atom_site_label
_atom_site_type_symbol
_atom_site_fract_x
_atom_site_fract_y
_atom_site_fract_z
O1	O	1.506119	0.108175	0.122593
O2	O	2.006119	0.608175	0.622593
O3	O	1.175696	0.108205	0.135228
O4	O	1.675696	0.608205	0.635228
O5	O	1.349764	0.108180	-0.001255
O6	O	1.849764	0.608180	0.498745
O7	O	1.332051	0.108200	0.259075
O8	O	1.832051	0.608200	0.759075
O9	O	1.349747	-0.108421	-0.001250
O10	O	1.849747	0.391579	0.498750
O11	O	1.175679	-0.108396	0.135232
O12	O	1.675679	0.391604	0.635232
O13	O	1.506102	-0.108426	0.122597
O14	O	2.006102	0.391574	0.622597
Cu15	Cu	1.340889	-0.128188	0.128915
Cu16	Cu	1.840889	0.371812	0.628915
Cu17	Cu	1.340909	0.127967	0.128910
Cu18	Cu	1.840909	0.627967	0.628910
O19	O	1.332034	-0.108401	0.259079
O20	O	1.832034	0.391599	0.759079
C21	C	1.133402	-0.000092	0.134436
C22	C	1.633402	0.499908	0.634436
C23	C	1.007404	-0.000080	0.132061
C24	C	1.507404	0.499920	0.632061
N25	N	1.340884	-0.308354	0.128918
N26	N	1.840884	0.191646	0.628918
C27	C	1.340892	-0.426196	0.128919
C28	C	1.840892	0.073804	0.628919
C29	C	1.340906	-0.574034	0.128911
C30	C	1.840906	-0.074034	0.628911
C31	C	0.776720	-0.000118	0.127692
C32	C	1.276720	0.499882	0.627692
C33	C	0.905089	-0.000097	0.130120
C34	C	1.405089	0.499903	0.630120
C35	C	1.548396	-0.000127	0.123389
C36	C	2.048396	0.499873	0.623389
C37	C	1.674395	-0.000130	0.125764
C38	C	2.174395	0.499870	0.625764
C39	C	1.348963	-0.000120	-0.034580
C40	C	1.848963	0.499880	0.465420
C41	C	1.346589	-0.000119	-0.133887
C42	C	1.846589	0.499881	0.366113
N43	N	1.340923	0.308133	0.128899
N44	N	1.840923	0.808133	0.628899
C45	C	1.448849	-0.000129	-0.190702
C46	C	1.948849	0.499871	0.309298
C47	C	1.446612	-0.000116	-0.284011
C48	C	1.946612	0.499884	0.215989
C49	C	1.342114	-0.000102	-0.320502
C50	C	1.842114	0.499898	0.179498
C51	C	1.239846	-0.000087	-0.263679
C52	C	1.739846	0.499913	0.236321
C53	C	1.242084	-0.000091	-0.170372
C54	C	1.742084	0.499909	0.329628
C55	C	1.235188	-0.000082	-0.458160
C56	C	1.735188	0.499918	0.041840
C57	C	1.232949	-0.000081	-0.551473
C58	C	1.732949	0.499919	-0.051473
C59	C	1.439715	-0.000107	-0.571798
C60	C	1.939715	0.499893	-0.071798
C61	C	1.441954	-0.000111	-0.478492
C62	C	1.941954	0.499889	0.021508
C63	C	1.339685	-0.000099	-0.421675
C64	C	1.839685	0.499901	0.078325
C65	C	1.332835	-0.000098	0.292405
C66	C	1.832835	0.499902	0.792405
C67	C	1.335209	-0.000091	0.391711
C68	C	1.835209	0.499909	0.891711
H69	H	1.533944	-0.000149	-0.160999
H70	H	2.033944	0.499851	0.339001
Br71	Br	1.091128	-0.000067	-0.600997
Br72	Br	1.591128	0.499933	-0.100997
H73	H	1.154761	-0.000067	-0.293397
H74	H	1.654761	0.499933	0.206603
Br75	Br	1.096394	-0.000061	-0.381052
Br76	Br	1.596394	0.499939	0.118948
H77	H	1.158814	-0.000083	-0.124113
H78	H	1.658814	0.499917	0.375887
H79	H	1.529883	-0.000127	-0.330267
H80	H	2.029883	0.499873	0.169733
Br81	Br	1.583774	-0.000127	-0.428968
Br82	Br	2.083774	0.499873	0.071032
Br83	Br	1.578509	-0.000120	-0.648905
Br84	Br	2.078509	0.499880	-0.148905
