data_functionalizedCrystal
_audit_creation_method	'MofGen! by Chris Wilmer'
_symmetry_space_group_name_H-M	'P1'
_symmetry_Int_Tables_number	1
_symmetry_cell_setting	triclinic
loop_
_symmetry_equiv_pos_as_xyz
  x,y,z
_cell_length_a	6.394989
_cell_length_b	10.723024
_cell_length_c	9.798715
_cell_angle_alpha	90.003391
_cell_angle_beta	90.000171
_cell_angle_gamma	85.482790
loop_
_atom_site_label
_atom_site_type_symbol
_atom_site_fract_x
_atom_site_fract_y
_atom_site_fract_z
O1	O	-0.293022	-1.660297	-0.113473
O2	O	-0.321070	-1.297442	-0.113476
O3	O	-0.003055	-1.484020	-0.113475
O4	O	-0.611036	-1.473719	-0.113474
O5	O	-0.003054	-1.484006	0.113507
O6	O	-0.321069	-1.297428	0.113506
O7	O	-0.293021	-1.660283	0.113510
Zn8	Zn	-0.307045	-1.478853	0.149546
Zn9	Zn	-0.307046	-1.478872	-0.149513
O10	O	-0.611035	-1.473705	0.113509
C11	C	-0.319028	-1.250914	0.000014
C12	C	-0.312921	-1.112295	0.000012
C13	C	-0.295062	-1.706811	0.000016
C14	C	-0.301169	-1.845430	0.000009
N15	N	-0.307043	-1.478850	0.353646
C16	C	0.074796	-1.481977	0.000011
C17	C	0.311120	-1.475752	0.000009
N18	N	-0.307031	-1.478885	-0.353612
C19	C	-0.490865	-1.039201	0.000012
C20	C	-0.484558	-0.895931	0.000010
C21	C	-0.172929	-1.557182	0.421423
C22	C	-0.172922	-1.557202	0.578586
H23	H	-0.636892	-0.833115	0.000004
O24	O	-0.119556	-0.920480	-0.000174
C25	C	-0.111635	-0.996512	-0.117748
H26	H	-0.277594	-1.005581	-0.156941
H27	H	-0.035406	-1.093177	-0.091311
H28	H	-0.015501	-0.952261	-0.200065
O29	O	-0.444116	-1.399045	0.576723
C30	C	-0.573602	-1.468201	0.494086
H31	H	-0.491422	-1.564456	0.472798
H32	H	-0.605955	-1.416743	0.393560
H33	H	-0.728132	-1.479324	0.549074
O34	O	-0.125543	-1.060485	0.000251
C35	C	-0.011185	-1.099475	0.117787
H36	H	-0.123920	-1.128412	0.199955
H37	H	0.078641	-1.019130	0.157243
H38	H	0.104194	-1.182406	0.091206
H39	H	-0.058109	-1.624271	0.636871
H40	H	-0.058105	-1.624227	0.363101
O41	O	-0.443812	-1.398679	0.423154
C42	C	-0.408633	-1.274480	0.388336
H43	H	-0.241465	-1.270928	0.348962
H44	H	-0.431845	-1.212338	0.482381
H45	H	-0.524141	-1.239744	0.305513
O46	O	-0.678013	-1.091274	-0.000041
C47	C	-0.642647	-1.222730	0.000001
H48	H	-0.480003	-1.250613	-0.042976
H49	H	-0.766145	-1.264748	-0.065891
H50	H	-0.653198	-1.259128	0.108899
