data_functionalizedCrystal
_audit_creation_method	'MofGen! by Chris Wilmer'
_symmetry_space_group_name_H-M	'P1'
_symmetry_Int_Tables_number	1
_symmetry_cell_setting	triclinic
loop_
_symmetry_equiv_pos_as_xyz
  x,y,z
_cell_length_a	14.519709
_cell_length_b	10.654550
_cell_length_c	9.730223
_cell_angle_alpha	89.995747
_cell_angle_beta	90.002325
_cell_angle_gamma	84.082538
loop_
_atom_site_label
_atom_site_type_symbol
_atom_site_fract_x
_atom_site_fract_y
_atom_site_fract_z
O1	O	1.224719	0.164623	-0.114110
O2	O	1.724719	0.664623	0.385890
O3	O	0.956343	0.184009	-0.114152
O4	O	1.456343	0.684009	0.385848
O5	O	1.096702	-0.008483	-0.114122
O6	O	1.596702	0.491517	0.385878
O7	O	1.084361	0.357114	-0.114141
O8	O	1.584361	0.857114	0.385859
O9	O	1.096693	-0.008488	0.114458
O10	O	1.596693	0.491512	0.614458
O11	O	0.956334	0.184004	0.114428
O12	O	1.456334	0.684004	0.614428
O13	O	1.224710	0.164617	0.114470
O14	O	1.724710	0.664617	0.614470
Zn15	Zn	1.090521	0.174310	0.150741
Zn16	Zn	1.590521	0.674310	0.650741
Zn17	Zn	1.090533	0.174317	-0.150423
Zn18	Zn	1.590533	0.674317	0.349577
O19	O	1.084352	0.357109	0.114439
O20	O	1.584352	0.857109	0.614439
C21	C	1.095791	-0.055275	0.000167
C22	C	1.595791	0.444725	0.500167
C23	C	1.093080	-0.194692	0.000165
C24	C	1.593080	0.305308	0.500165
C25	C	0.921974	0.183103	0.000132
C26	C	1.421974	0.683103	0.500132
C27	C	0.819579	0.180396	0.000116
C28	C	1.319579	0.680396	0.500116
C29	C	1.175721	-0.274972	0.000177
C30	C	1.675721	0.225028	0.500177
C31	C	1.173168	-0.405968	0.000160
C32	C	1.673168	0.094032	0.500160
C33	C	1.005326	-0.376391	0.000124
C34	C	1.505326	0.123609	0.500124
C35	C	1.007880	-0.245397	0.000131
C36	C	1.507880	0.254603	0.500131
C37	C	0.444631	0.170428	0.000179
C38	C	0.944631	0.670428	0.500179
C39	C	0.548954	0.173196	0.000162
C40	C	1.048954	0.673196	0.500162
C41	C	0.632102	0.175412	0.000147
C42	C	1.132102	0.675412	0.500147
C43	C	0.736431	0.178180	0.000131
C44	C	1.236431	0.678180	0.500131
C45	C	1.259079	0.165524	0.000182
C46	C	1.759079	0.665524	0.500182
C47	C	1.361475	0.168231	0.000189
C48	C	1.861475	0.668231	0.500189
C49	C	1.085262	0.403901	0.000147
C50	C	1.585262	0.903901	0.500147
C51	C	1.087973	0.543318	0.000140
C52	C	1.587973	1.043318	0.500140
N53	N	1.090519	0.174304	0.356277
N54	N	1.590519	0.674304	0.856277
N55	N	1.090541	0.174312	-0.355960
N56	N	1.590541	0.674312	0.144040
C57	C	1.152691	0.089105	0.428216
C58	C	1.652691	0.589105	0.928216
C59	C	1.152701	0.089105	0.572099
C60	C	1.652701	0.589105	1.072099
C61	C	1.028363	0.259516	0.572091
C62	C	1.528363	0.759516	1.072091
C63	C	1.028350	0.259508	0.428210
C64	C	1.528350	0.759508	0.928210
H65	H	1.240463	-0.471328	0.000167
H66	H	1.740463	0.028672	0.500167
H67	H	1.203326	0.019727	0.630669
H68	H	1.703326	0.519727	1.130669
H69	H	1.245096	-0.233692	0.000202
H70	H	1.745096	0.266308	0.500202
H71	H	0.935959	-0.417692	0.000099
H72	H	1.435959	0.082308	0.500099
O73	O	0.918742	-0.158794	0.000133
O74	O	1.418742	0.341206	0.500133
H75	H	0.859068	-0.216057	0.000134
H76	H	1.359068	0.283943	0.500134
H77	H	1.203313	0.019725	0.369652
H78	H	1.703313	0.519725	0.869652
H79	H	0.977747	0.328889	0.630673
H80	H	1.477747	0.828889	1.130673
H81	H	0.977717	0.328889	0.369633
H82	H	1.477717	0.828889	0.869633
