data_functionalizedCrystal
_audit_creation_method	'MofGen! by Chris Wilmer'
_symmetry_space_group_name_H-M	'P1'
_symmetry_Int_Tables_number	1
_symmetry_cell_setting	triclinic
loop_
_symmetry_equiv_pos_as_xyz
  x,y,z
_cell_length_a	13.635800
_cell_length_b	15.866433
_cell_length_c	17.982968
_cell_angle_alpha	67.139637
_cell_angle_beta	102.451960
_cell_angle_gamma	77.342831
loop_
_atom_site_label
_atom_site_type_symbol
_atom_site_fract_x
_atom_site_fract_y
_atom_site_fract_z
V1	V	2.019463	-0.133687	0.275104
O2	O	2.000921	0.005499	0.231482
O3	O	2.006897	-0.264189	0.310141
O4	O	1.992570	-0.132036	0.378244
O5	O	2.015348	-0.127568	0.162907
V6	V	2.260118	-0.116991	0.257200
O7	O	2.152518	-0.170311	0.314379
O8	O	2.352162	-0.080366	0.217925
O9	O	2.161081	0.013511	0.222163
O10	O	2.337359	-0.256177	0.300822
O11	O	2.322932	-0.123109	0.369397
O12	O	2.175409	-0.118641	0.154060
V13	V	2.519463	-0.133687	0.275104
O14	O	2.500921	0.005499	0.231482
O15	O	2.506897	-0.264189	0.310141
O16	O	2.492570	-0.132036	0.378244
O17	O	2.515348	-0.127568	0.162907
V18	V	2.760118	-0.116991	0.257200
O19	O	2.652518	-0.170311	0.314379
O20	O	2.852162	-0.080366	0.217925
O21	O	2.661081	0.013511	0.222163
O22	O	2.837359	-0.256177	0.300822
O23	O	2.822932	-0.123109	0.369397
O24	O	2.675409	-0.118641	0.154060
C25	C	1.932315	-0.295990	0.315327
C26	C	1.962667	-0.402680	0.344661
C27	C	2.025098	-0.567024	0.459696
C28	C	1.996576	-0.466771	0.432123
C29	C	1.957262	-0.438824	0.284735
C30	C	1.985776	-0.539076	0.312295
C31	C	2.019694	-0.603169	0.399776
C32	C	1.980373	-0.575221	0.252375
C33	C	2.008889	-0.675464	0.279933
C34	C	2.042810	-0.739563	0.367411
C35	C	2.048211	-0.703412	0.427334
C36	C	1.946462	-0.511126	0.164894
C37	C	1.941058	-0.547271	0.104975
C38	C	1.969568	-0.647516	0.132532
C39	C	2.003489	-0.711615	0.220010
C40	C	1.964168	-0.683667	0.072609
C41	C	1.992685	-0.783911	0.100167
C42	C	2.032006	-0.811859	0.247568
C43	C	1.914038	-0.127415	0.402198
C44	C	1.932768	-0.126929	0.486757
C45	C	2.067334	0.045307	0.216977
C46	C	2.026602	0.151996	0.187648
C47	C	2.085612	-0.123266	0.130103
C48	C	2.056500	-0.123747	0.045542
C49	C	2.432315	-0.295990	0.315327
C50	C	2.462667	-0.402680	0.344661
C51	C	2.414038	-0.127415	0.402198
C52	C	2.432768	-0.126929	0.486757
C53	C	2.032957	-0.131510	0.531716
C54	C	2.050550	-0.131053	0.611168
C55	C	1.967955	-0.126022	0.645663
C56	C	1.867758	-0.121437	0.600697
C57	C	1.850164	-0.121888	0.521244
C58	C	1.938709	-0.119620	0.921124
C59	C	1.956312	-0.119173	1.000584
C60	C	2.139095	-0.128785	1.011048
C61	C	2.121502	-0.129235	0.931594
C62	C	2.021305	-0.124646	0.886634
C63	C	2.002229	-0.125140	0.800482
C64	C	1.987032	-0.125534	0.731816
C65	C	2.567334	0.045307	0.216977
C66	C	2.526602	0.151996	0.187648
C67	C	2.585612	-0.123266	0.130103
C68	C	2.556500	-0.123747	0.045542
C69	C	2.568331	-0.457690	0.363622
C70	C	2.596867	-0.557940	0.391196
C71	C	2.519736	-0.603175	0.399804
C72	C	2.414064	-0.548158	0.380843
C73	C	2.385531	-0.447911	0.353275
C74	C	2.532961	-0.131501	0.531699
C75	C	2.550570	-0.131032	0.611147
C76	C	2.467988	-0.125998	0.645655
C77	C	2.367786	-0.121423	0.600706
C78	C	2.350176	-0.121885	0.521256
C79	C	2.593432	0.207006	0.168689
C80	C	2.555168	0.307255	0.141118
C81	C	2.450076	0.352490	0.132513
C82	C	2.383241	0.297473	0.151471
C83	C	2.421503	0.197228	0.179036
C84	C	2.456851	-0.128770	0.011051
C85	C	2.429479	-0.129210	-0.068408
C86	C	2.501761	-0.124635	-0.113372
C87	C	2.601417	-0.119609	-0.078877
C88	C	2.628785	-0.119161	0.000578
H89	H	2.059612	-0.864047	0.318803
O90	O	2.002395	-0.427782	0.496754
H91	H	2.030763	-0.489193	0.562212
H92	H	2.351271	-0.585004	0.387856
H93	H	1.913444	-0.495074	0.033747
H94	H	2.660261	-0.115881	-0.115499
H95	H	2.609603	0.352036	0.125687
H96	H	2.709932	-0.115076	0.028656
H97	H	2.299487	-0.403128	0.337834
O98	O	2.622035	-0.136915	0.494482
H99	H	2.694652	-0.140000	0.539085
O100	O	1.742092	-0.116922	0.472743
H101	H	1.743727	-0.118061	0.411691
H102	H	2.418933	0.434118	0.110067
O103	O	2.378881	-0.133763	0.059541
H104	H	2.304428	-0.070416	0.020209
H105	H	1.857136	-0.115917	0.884540
H106	H	2.632166	-0.134761	0.647736
H107	H	2.268588	-0.118164	0.484671
O108	O	2.486992	-0.125516	0.731354
H109	H	2.570545	-0.129554	0.756807
H110	H	2.631147	-0.420872	0.356612
O111	O	2.472235	-0.125114	-0.199072
H112	H	2.530093	-0.188905	-0.195683
H113	H	2.100219	-0.135614	0.503639
O114	O	2.210584	-0.134663	0.894388
H115	H	2.186238	-0.069351	0.831832
O116	O	2.278723	-0.116008	0.637934
H117	H	2.307818	-0.116469	0.700735
O118	O	2.269900	0.346271	0.142203
H119	H	2.226383	0.402167	0.074794
O120	O	2.073558	-0.847685	0.397139
H121	H	2.140927	-0.871757	0.376459
O122	O	2.349423	0.137894	0.199501
H123	H	2.269927	0.186196	0.188895
O124	O	2.706779	0.158229	0.177958
H125	H	2.746804	0.213338	0.160127
H126	H	2.348329	-0.133303	-0.096482
O127	O	2.158614	-0.135995	0.659656
H128	H	2.156972	-0.134824	0.720695
H129	H	2.542983	-0.684803	0.422253
O130	O	2.247162	-0.133718	1.059539
H131	H	2.301640	-0.137301	1.022207
H132	H	2.075817	-0.755601	0.498569
O133	O	1.986846	-0.822898	0.035538
H134	H	1.930561	-0.864240	0.040708
H135	H	2.052704	-0.619212	0.530931
H136	H	1.923247	-0.429503	0.142460
O137	O	1.920670	-0.369694	0.190382
H138	H	1.901739	-0.293915	0.181283
H139	H	1.889047	-0.115073	1.028666
O140	O	1.927585	-0.614537	-0.021744
H141	H	1.908660	-0.538758	-0.030839
O142	O	1.778669	-0.116015	0.637898
H143	H	1.807737	-0.116484	0.700706
H144	H	2.682914	-0.602721	0.406629
