data_functionalizedCrystal
_audit_creation_method	'MofGen! by Chris Wilmer'
_symmetry_space_group_name_H-M	'P1'
_symmetry_Int_Tables_number	1
_symmetry_cell_setting	triclinic
loop_
_symmetry_equiv_pos_as_xyz
  x,y,z
_cell_length_a	12.759401
_cell_length_b	12.759399
_cell_length_c	11.169409
_cell_angle_alpha	89.969407
_cell_angle_beta	90.020582
_cell_angle_gamma	89.984485
loop_
_atom_site_label
_atom_site_type_symbol
_atom_site_fract_x
_atom_site_fract_y
_atom_site_fract_z
Zn1	Zn	1.606265	0.418182	0.678582
Zn2	Zn	1.606152	0.593907	0.477905
Zn3	Zn	1.430562	0.418243	0.477913
Zn4	Zn	1.430553	0.593819	0.678547
O5	O	1.518383	0.506038	0.578237
O6	O	1.753271	0.441503	0.651972
O7	O	1.582816	0.570668	0.309956
O8	O	1.453921	0.271214	0.504551
O9	O	1.753188	0.570608	0.504536
O10	O	1.583009	0.271169	0.651981
O11	O	1.453811	0.441608	0.309962
O12	O	1.283540	0.441522	0.504517
O13	O	1.453905	0.570458	0.846501
O14	O	1.283533	0.570517	0.651921
O15	O	1.582999	0.441418	0.846527
O16	O	1.582807	0.740917	0.504502
O17	O	1.453795	0.740852	0.651913
C18	C	1.245416	0.506018	0.578217
C19	C	1.128639	0.506034	0.578237
C20	C	0.964090	0.438944	0.655136
C21	C	1.073814	0.438930	0.655125
C22	C	1.073734	0.573165	0.501363
C23	C	0.964012	0.573184	0.501381
C24	C	0.909271	0.371828	0.732021
C25	C	0.964169	0.304698	0.808897
C26	C	1.073893	0.304683	0.808886
C27	C	1.128719	0.371799	0.731999
C28	C	1.518317	0.779005	0.578229
C29	C	1.518384	0.895782	0.578266
C30	C	1.585634	0.950643	0.501597
C31	C	1.585697	1.060367	0.501641
C32	C	1.451251	1.060359	0.655026
C33	C	1.451194	0.950637	0.654987
C34	C	1.652825	0.895787	0.424876
C35	C	1.720080	0.950648	0.348200
C36	C	1.720143	1.060372	0.348244
C37	C	1.652951	1.115235	0.424964
C38	C	1.792416	0.506059	0.578257
C39	C	1.909193	0.506068	0.578266
C40	C	1.518464	0.505921	0.891279
C41	C	1.518498	0.505871	1.024679
C42	C	1.518474	1.232004	0.578286
C43	C	1.518504	1.115228	0.578349
C44	C	1.518363	0.506078	0.266412
C45	C	1.518532	0.505832	0.133012
H46	H	1.218064	0.371774	0.731988
Br47	Br	1.811427	1.134825	0.244201
Br48	Br	1.148395	0.213594	0.913229
Br49	Br	0.889765	0.213631	0.913254
H50	H	1.653016	1.204580	0.425003
Br51	Br	1.653067	0.746877	0.425182
Br52	Br	1.811277	0.876195	0.244102
Br53	Br	1.148141	0.664242	0.397022
Br54	Br	0.889501	0.664303	0.397079
H55	H	0.819929	0.371827	0.732033
H56	H	1.396545	1.105037	0.717486
Br57	Br	1.359930	0.876176	0.759044
