data_functionalizedCrystal
_audit_creation_method	'MofGen! by Chris Wilmer'
_symmetry_space_group_name_H-M	'P1'
_symmetry_Int_Tables_number	1
_symmetry_cell_setting	triclinic
loop_
_symmetry_equiv_pos_as_xyz
  x,y,z
_cell_length_a	12.759401
_cell_length_b	18.050590
_cell_length_c	12.759393
_cell_angle_alpha	90.034679
_cell_angle_beta	90.020938
_cell_angle_gamma	90.020077
loop_
_atom_site_label
_atom_site_type_symbol
_atom_site_fract_x
_atom_site_fract_y
_atom_site_fract_z
Zn1	Zn	1.606238	-0.295593	0.593990
Zn2	Zn	2.106238	0.204407	1.093990
Zn3	Zn	1.606118	-0.419801	0.418297
Zn4	Zn	2.106118	0.080199	0.918297
Zn5	Zn	1.430537	-0.295633	0.418325
Zn6	Zn	1.930537	0.204367	0.918325
Zn7	Zn	1.430517	-0.419749	0.593934
Zn8	Zn	1.930517	0.080251	1.093934
O9	O	1.518352	-0.357694	0.506136
O10	O	2.018352	0.142306	1.006136
O11	O	1.753243	-0.312075	0.570695
O12	O	2.253243	0.187925	1.070695
O13	O	1.582784	-0.403368	0.271279
O14	O	2.082784	0.096632	0.771279
O15	O	1.453903	-0.191703	0.441662
O16	O	1.953903	0.308297	0.941662
O17	O	1.753155	-0.403330	0.441614
O18	O	2.253155	0.096670	0.941614
O19	O	1.582990	-0.191674	0.570722
O20	O	2.082990	0.308326	1.070722
O21	O	1.453786	-0.312142	0.271300
O22	O	1.953786	0.187858	0.771300
O23	O	1.283513	-0.312092	0.441608
O24	O	1.783513	0.187908	0.941608
O25	O	1.453869	-0.403241	0.740963
O26	O	1.953869	0.096759	1.240963
O27	O	1.283499	-0.403280	0.570628
O28	O	1.783499	0.096720	1.070628
O29	O	1.582971	-0.312025	0.741003
O30	O	2.082971	0.187975	1.241003
O31	O	1.582765	-0.523719	0.441561
O32	O	2.082765	-0.023719	0.941561
O33	O	1.453752	-0.523681	0.570601
O34	O	1.953752	-0.023681	1.070601
C35	C	1.245385	-0.357685	0.506115
C36	C	1.745385	0.142315	1.006115
C37	C	1.128608	-0.357699	0.506131
C38	C	1.628608	0.142301	1.006131
C39	C	1.073766	-0.405253	0.573206
C40	C	1.573766	0.094747	1.073206
C41	C	0.964042	-0.405256	0.573227
C42	C	1.464042	0.094744	1.073227
C43	C	0.964012	-0.310149	0.439089
C44	C	1.464012	0.189851	0.939089
C45	C	1.073734	-0.310143	0.439075
C46	C	1.573734	0.189857	0.939075
C47	C	1.518272	-0.550646	0.506094
C48	C	2.018272	-0.050646	1.006094
C49	C	1.518333	-0.633192	0.506112
C50	C	2.018333	-0.133192	1.006112
C51	C	1.588636	-0.832636	0.436038
C52	C	2.088636	-0.332636	0.936038
C53	C	1.614306	-0.881961	0.531925
C54	C	2.114306	-0.381961	1.031925
C55	C	1.518393	-0.784322	0.506154
C56	C	2.018393	-0.284322	1.006154
C57	C	1.492831	-0.882079	0.410310
C58	C	1.992831	-0.382079	0.910310
C59	C	1.518452	-0.930307	0.506186
C60	C	2.018452	-0.430307	1.006186
C61	C	1.544111	-0.832560	0.602091
C62	C	2.044111	-0.332560	1.102091
C63	C	1.422592	-0.832674	0.480411
C64	C	1.922592	-0.332674	0.980411
C65	C	1.448224	-0.881976	0.576364
C66	C	1.948224	-0.381976	1.076364
C67	C	1.518361	-0.700224	0.506134
C68	C	2.018361	-0.200224	1.006134
C69	C	1.518484	-1.014404	0.506216
C70	C	2.018484	-0.514404	1.006216
C71	C	1.792386	-0.357704	0.506158
C72	C	2.292386	0.142296	1.006158
C73	C	1.909162	-0.357708	0.506167
C74	C	2.409162	0.142292	1.006167
C75	C	1.518431	-0.357623	0.780170
C76	C	2.018431	0.142377	1.280170
C77	C	1.518465	-0.357592	0.896947
C78	C	2.018465	0.142408	1.396947
C79	C	1.518462	-0.163989	0.506201
C80	C	2.018462	0.336011	1.006201
C81	C	1.518509	-0.081443	0.506229
C82	C	2.018509	0.418557	1.006229
C83	C	1.518335	-0.357712	0.233169
C84	C	2.018335	0.142288	0.733169
C85	C	1.518505	-0.357533	0.116393
C86	C	2.018505	0.142467	0.616393
C87	C	1.585693	-0.310088	0.951831
C88	C	2.085693	0.189912	1.451831
C89	C	1.585711	-0.310056	1.061556
C90	C	2.085711	0.189944	1.561556
C91	C	1.451269	-0.405039	1.061500
C92	C	1.951269	0.094961	1.561500
C93	C	1.451247	-0.405067	0.951778
C94	C	1.951247	0.094933	1.451778
H95	H	1.118442	-0.443974	0.627811
H96	H	1.618442	0.056026	1.127811
C97	C	1.659615	-0.257860	0.891520
C98	C	2.159615	0.242140	1.391520
H99	H	1.699648	-0.229558	0.939926
H100	H	2.199648	0.270442	1.439926
H101	H	1.705370	-0.286275	0.848711
H102	H	2.205370	0.213725	1.348711
H103	H	1.619424	-0.225509	0.848727
H104	H	2.119424	0.274491	1.348727
C105	C	1.377342	-0.457264	1.121813
C106	C	1.877342	0.042736	1.621813
H107	H	1.337293	-0.485555	1.073408
H108	H	1.837293	0.014445	1.573408
H109	H	1.417521	-0.489613	1.164610
H110	H	1.917521	0.010387	1.664610
H111	H	1.331586	-0.428838	1.164618
H112	H	1.831586	0.071162	1.664618
H113	H	0.919320	-0.271431	0.384493
H114	H	1.419320	0.228569	0.884493
H115	H	1.640453	-0.271372	1.106238
H116	H	2.140453	0.228628	1.606238
C117	C	1.573487	-0.803310	0.711638
C118	C	2.073487	-0.303310	1.211638
H119	H	1.585733	-0.843910	0.757375
H120	H	2.085733	-0.343910	1.257375
H121	H	1.635135	-0.773989	0.706841
H122	H	2.135135	-0.273989	1.206841
H123	H	1.517701	-0.773994	0.738287
H124	H	2.017701	-0.273994	1.238287
C125	C	1.377299	-0.457329	0.891401
C126	C	1.877299	0.042671	1.391401
H127	H	1.337282	-0.485607	0.939769
H128	H	1.837282	0.014393	1.439769
H129	H	1.331531	-0.428931	0.848597
H130	H	1.831531	0.071069	1.348597
H131	H	1.417473	-0.489700	0.848597
H132	H	1.917473	0.010300	1.348597
H133	H	0.919395	-0.443978	0.627847
H134	H	1.419395	0.056022	1.127847
H135	H	1.118388	-0.271414	0.384454
H136	H	1.618388	0.228586	0.884454
H137	H	1.648059	-0.810971	0.376804
H138	H	2.148059	-0.310971	0.876804
H139	H	1.695348	-0.903613	0.553718
H140	H	2.195348	-0.403613	1.053718
H141	H	1.341572	-0.811006	0.458589
H142	H	1.841572	-0.311006	0.958589
H143	H	1.388847	-0.903504	0.635741
H144	H	1.888847	-0.403504	1.135741
C145	C	1.463581	-0.911458	0.300798
C146	C	1.963581	-0.411458	0.800798
H147	H	1.513538	-0.894554	0.251059
H148	H	2.013538	-0.394554	0.751059
H149	H	1.463182	-0.964079	0.301745
H150	H	1.963182	-0.464079	0.801745
H151	H	1.395982	-0.893849	0.282020
H152	H	1.895982	-0.393849	0.782020
