data_functionalizedCrystal
_audit_creation_method	'MofGen! by Chris Wilmer'
_symmetry_space_group_name_H-M	'P1'
_symmetry_Int_Tables_number	1
_symmetry_cell_setting	triclinic
loop_
_symmetry_equiv_pos_as_xyz
  x,y,z
_cell_length_a	10.654543
_cell_length_b	9.198806
_cell_length_c	10.654550
_cell_angle_alpha	90.003030
_cell_angle_beta	95.516448
_cell_angle_gamma	90.000711
loop_
_atom_site_label
_atom_site_type_symbol
_atom_site_fract_x
_atom_site_fract_y
_atom_site_fract_z
O1	O	-1.667845	0.120736	0.176356
O2	O	-1.302366	0.120773	0.193171
O3	O	-1.493509	0.120744	0.002024
O4	O	-1.476703	0.120764	0.367503
O5	O	-1.493493	-0.121041	0.002023
O6	O	-1.302351	-0.121012	0.193170
O7	O	-1.667830	-0.121049	0.176355
Cu8	Cu	-1.485089	-0.143108	0.184763
Cu9	Cu	-1.485107	0.142831	0.184763
O10	O	-1.476687	-0.121021	0.367502
C11	C	-1.255560	-0.000115	0.191938
C12	C	-1.116116	-0.000101	0.188249
C13	C	-1.036631	-0.000097	0.300793
C14	C	-0.905609	-0.000119	0.297319
C15	C	-0.933573	-0.000143	0.068749
C16	C	-1.064591	-0.000131	0.072224
N17	N	-1.485085	-0.344222	0.184762
C18	C	-1.565341	-0.416431	0.104151
C19	C	-1.565360	-0.583843	0.104146
C20	C	-0.714635	-0.000151	0.177595
C21	C	-0.854077	-0.000134	0.181301
C22	C	-1.492267	-0.000147	-0.044774
C23	C	-1.488575	-0.000145	-0.184217
N24	N	-1.485120	0.343945	0.184755
C25	C	-1.601117	-0.000156	-0.263706
C26	C	-1.597641	-0.000138	-0.394726
C27	C	-1.369070	-0.000104	-0.366758
C28	C	-1.372548	-0.000111	-0.235740
C29	C	-1.477929	-0.000126	0.414301
C30	C	-1.481621	-0.000119	0.553744
H31	H	-0.891604	-0.000176	-0.025715
H32	H	-1.274605	-0.000080	-0.408724
O33	O	-1.141633	-0.000069	-0.037226
C34	C	-1.155554	-0.000183	-0.264303
C35	C	-1.068161	-0.000212	-0.140456
H36	H	-1.096187	-0.000330	-0.347797
H37	H	-1.217564	0.101030	-0.268479
H38	H	-1.217623	-0.101343	-0.268312
H39	H	-1.006013	0.100879	-0.136364
H40	H	-1.006237	-0.101492	-0.136332
O41	O	-1.647173	-0.342370	0.021667
C42	C	-1.718325	-0.295481	-0.196110
C43	C	-1.625555	-0.379433	-0.102850
H44	H	-1.700897	-0.325438	-0.296802
H45	H	-1.703682	-0.173656	-0.181512
H46	H	-1.819146	-0.325274	-0.179046
H47	H	-1.524697	-0.349762	-0.119858
H48	H	-1.640308	-0.501238	-0.117471
O49	O	-1.647507	-0.657845	0.021929
C50	C	-1.865061	-0.704601	-0.050259
C51	C	-1.772168	-0.620728	0.042948
H52	H	-1.965868	-0.674599	-0.033316
H53	H	-1.850583	-0.826439	-0.035597
H54	H	-1.847487	-0.674781	-0.150939
H55	H	-1.789686	-0.650426	0.143665
H56	H	-1.786668	-0.498911	0.028176
H57	H	-1.280897	-0.000098	-0.171016
O58	O	-1.403074	-0.418476	0.266922
C59	C	-1.231925	-0.590456	0.292389
C60	C	-1.324753	-0.506484	0.199202
H61	H	-1.168562	-0.661607	0.237673
H62	H	-1.286879	-0.661808	0.355383
H63	H	-1.171553	-0.510025	0.353110
H64	H	-1.385148	-0.586810	0.138398
H65	H	-1.269723	-0.435110	0.136294
O66	O	-0.828578	-0.000045	0.406762
C67	C	-0.814677	-0.000099	0.633839
C68	C	-0.902060	-0.000146	0.509985
H69	H	-0.874052	-0.000212	0.717326
H70	H	-0.752652	0.101103	0.638010
H71	H	-0.752623	-0.101270	0.637864
H72	H	-0.964192	0.100957	0.505877
H73	H	-0.964000	-0.101415	0.505865
O74	O	-1.403316	-0.581836	0.267152
C75	C	-1.378666	-0.409881	0.438372
C76	C	-1.471446	-0.493830	0.345110
H77	H	-1.433712	-0.338732	0.501443
H78	H	-1.315356	-0.338529	0.383772
H79	H	-1.318231	-0.490327	0.499004
H80	H	-1.531964	-0.413490	0.284454
H81	H	-1.534669	-0.565204	0.399786
H82	H	-1.078578	-0.000083	0.395268
H83	H	-1.695593	-0.000180	-0.221761
H84	H	-1.689284	-0.000143	-0.459441
