data_functionalizedCrystal
_audit_creation_method	'MofGen! by Chris Wilmer'
_symmetry_space_group_name_H-M	'P1'
_symmetry_Int_Tables_number	1
_symmetry_cell_setting	triclinic
loop_
_symmetry_equiv_pos_as_xyz
  x,y,z
_cell_length_a	11.169417
_cell_length_b	19.805405
_cell_length_c	11.169409
_cell_angle_alpha	89.960201
_cell_angle_beta	89.979436
_cell_angle_gamma	90.027289
loop_
_atom_site_label
_atom_site_type_symbol
_atom_site_fract_x
_atom_site_fract_y
_atom_site_fract_z
Zn1	Zn	1.834837	-0.269393	-0.678480
Zn2	Zn	2.334837	0.230607	-0.178480
Zn3	Zn	1.834668	-0.382602	-0.477771
Zn4	Zn	2.334668	0.117398	0.022229
Zn5	Zn	1.634120	-0.269434	-0.477814
Zn6	Zn	2.134120	0.230566	0.022186
Zn7	Zn	1.634074	-0.382547	-0.678415
Zn8	Zn	2.134074	0.117453	-0.178415
O9	O	1.734425	-0.325994	-0.578120
O10	O	2.234425	0.174006	-0.078120
O11	O	2.002764	-0.284416	-0.651864
O12	O	2.502764	0.215584	-0.151864
O13	O	1.808013	-0.367630	-0.309827
O14	O	2.308013	0.132370	0.190173
O15	O	1.660836	-0.174712	-0.504478
O16	O	2.160836	0.325288	-0.004478
O17	O	2.002640	-0.367590	-0.504404
O18	O	2.502640	0.132410	-0.004404
O19	O	1.808302	-0.174682	-0.651907
O20	O	2.308302	0.325318	-0.151907
O21	O	1.660672	-0.284486	-0.309859
O22	O	2.160672	0.215514	0.190141
O23	O	1.466165	-0.284433	-0.504416
O24	O	1.966165	0.215567	-0.004416
O25	O	1.660757	-0.367497	-0.846374
O26	O	2.160757	0.132503	-0.346374
O27	O	1.466131	-0.367537	-0.651797
O28	O	1.966131	0.132463	-0.151797
O29	O	1.808257	-0.284363	-0.846421
O30	O	2.308257	0.215637	-0.346421
O31	O	1.807968	-0.477311	-0.504341
O32	O	2.307968	0.022689	-0.004341
O33	O	1.660593	-0.477271	-0.651754
O34	O	2.160593	0.022729	-0.151754
C35	C	1.422600	-0.325984	-0.578105
C36	C	1.922600	0.174016	-0.078105
C37	C	1.289200	-0.325996	-0.578127
C38	C	1.789200	0.174004	-0.078127
C39	C	1.734290	-0.501850	-0.578062
C40	C	2.234290	-0.001850	-0.078062
C41	C	1.734342	-0.577082	-0.578077
C42	C	2.234342	-0.077082	-0.078077
C43	C	1.811154	-0.612425	-0.501400
C44	C	2.311154	-0.112425	-0.001400
C45	C	1.811205	-0.683113	-0.501426
C46	C	2.311205	-0.183113	-0.001426
C47	C	1.734437	-0.718458	-0.578125
C48	C	2.234437	-0.218458	-0.078125
C49	C	1.657621	-0.683110	-0.654811
C50	C	2.157621	-0.183110	-0.154811
C51	C	1.657577	-0.612423	-0.654790
C52	C	2.157577	-0.112423	-0.154790
C53	C	1.657798	-0.968183	-0.654900
C54	C	2.157798	-0.468183	-0.154900
C55	C	1.657845	-1.038875	-0.654913
C56	C	2.157845	-0.538875	-0.154913
C57	C	1.811427	-1.038874	-0.501537
C58	C	2.311427	-0.538874	-0.001537
C59	C	1.811382	-0.968186	-0.501515
C60	C	2.311382	-0.468186	-0.001515
C61	C	1.734571	-0.932845	-0.578205
C62	C	2.234571	-0.432845	-0.078205
C63	C	1.734519	-0.856197	-0.578177
C64	C	2.234519	-0.356197	-0.078177
C65	C	1.734483	-0.795105	-0.578148
C66	C	2.234483	-0.295105	-0.078148
C67	C	2.047467	-0.326005	-0.578136
C68	C	2.547467	0.173995	-0.078136
C69	C	2.180867	-0.326009	-0.578143
C70	C	2.680867	0.173991	-0.078143
C71	C	1.734521	-0.325919	-0.891163
C72	C	2.234521	0.174081	-0.391163
C73	C	1.734562	-0.325887	-1.024563
C74	C	2.234562	0.174113	-0.524563
C75	C	1.734593	-0.149451	-0.578205
C76	C	2.234593	0.350549	-0.078205
C77	C	1.734665	-0.074219	-0.578241
C78	C	2.234665	0.425781	-0.078241
C79	C	1.734398	-0.326020	-0.266295
C80	C	2.234398	0.173980	0.233705
C81	C	1.734590	-0.325861	-0.132896
C82	C	2.234590	0.174139	0.367104
H83	H	1.873663	-0.583652	-0.438938
H84	H	2.373663	-0.083652	0.061062
Cl85	Cl	1.561233	-0.923763	-0.751308
Cl86	Cl	2.061233	-0.423763	-0.251308
Cl87	Cl	1.561331	-1.083307	-0.751345
Cl88	Cl	2.061331	-0.583307	-0.251345
Cl89	Cl	1.561012	-0.567992	-0.751193
Cl90	Cl	2.061012	-0.067992	-0.251193
H91	H	1.873890	-0.939411	-0.439056
H92	H	2.373890	-0.439411	0.060944
Cl93	Cl	1.907778	-0.727541	-0.405031
Cl94	Cl	2.407778	-0.227541	0.094969
Cl95	Cl	1.907998	-1.083307	-0.405131
Cl96	Cl	2.407998	-0.583307	0.094869
H97	H	1.595119	-0.711893	-0.717266
H98	H	2.095119	-0.211893	-0.217266
