data_functionalizedCrystal
_audit_creation_method	'MofGen! by Chris Wilmer'
_symmetry_space_group_name_H-M	'P1'
_symmetry_Int_Tables_number	1
_symmetry_cell_setting	triclinic
loop_
_symmetry_equiv_pos_as_xyz
  x,y,z
_cell_length_a	31.640172
_cell_length_b	18.760492
_cell_length_c	31.640172
_cell_angle_alpha	60.010564
_cell_angle_beta	90.002706
_cell_angle_gamma	59.992230
loop_
_atom_site_label
_atom_site_type_symbol
_atom_site_fract_x
_atom_site_fract_y
_atom_site_fract_z
Zr1	Zr	0.407159	0.780158	-0.055486
O2	O	0.339664	0.928859	-0.122964
O3	O	0.427852	0.631450	-0.034799
O4	O	0.427845	0.780132	-0.122966
O5	O	0.339673	0.780200	0.034748
O6	O	0.497401	0.780120	-0.122969
O7	O	0.339671	0.780177	-0.034798
O8	O	0.497413	0.514155	0.034746
O9	O	0.339662	1.046165	-0.122966
O10	O	0.488583	0.692610	-0.025980
O11	O	0.436676	0.692636	0.025923
O12	O	0.436669	0.867690	-0.077882
O13	O	0.384762	0.867716	-0.025978
Zr14	Zr	0.518097	0.780176	0.055427
Zr15	Zr	0.518093	0.780139	-0.055491
Zr16	Zr	0.407163	0.780196	0.055431
Zr17	Zr	0.407155	0.967248	-0.055489
Zr18	Zr	0.518101	0.593086	0.055429
O19	O	0.497404	0.928884	0.034740
O20	O	0.497398	0.928831	-0.122971
O21	O	0.339670	0.928912	0.034746
O22	O	0.585592	0.631476	0.122905
O23	O	0.585586	0.631423	-0.034805
O24	O	0.427858	0.631503	0.122911
O25	O	0.585583	0.780134	-0.034808
O26	O	0.497411	0.780203	0.122906
O27	O	0.427855	0.780215	0.122909
O28	O	0.585585	0.780158	0.034738
O29	O	0.427840	1.046150	-0.122970
O30	O	0.497417	0.514185	0.122910
O31	O	0.585594	0.514170	0.122907
O32	O	0.585591	0.514140	0.034742
O33	O	0.339665	1.046195	-0.034801
O34	O	0.427843	1.046179	-0.034805
O35	O	0.488587	0.692645	0.077822
O36	O	0.540494	0.692618	0.025919
O37	O	0.488580	0.867698	-0.025983
O38	O	0.436673	0.867725	0.025921
C39	C	0.462633	0.546146	-0.000026
C40	C	0.462635	0.466722	-0.000025
C41	C	0.323866	0.780191	-0.000024
C42	C	0.276772	0.780200	-0.000022
C43	C	0.500947	0.066296	0.038282
C44	C	0.424299	0.195554	-0.038347
C45	C	0.424302	0.270173	-0.038347
C46	C	0.462627	0.242855	-0.000031
C47	C	0.500949	0.140919	0.038284
C48	C	0.385977	0.372113	-0.076658
C49	C	0.385977	0.446739	-0.076659
C50	C	0.424305	0.419422	-0.038345
C51	C	0.462629	0.317479	-0.000028
C52	C	0.500955	0.290162	0.038287
C53	C	0.539282	0.188219	0.076602
C54	C	0.539277	0.113603	0.076598
C55	C	0.424309	0.494039	-0.038341
C56	C	0.500957	0.364786	0.038290
C57	C	-0.015235	0.780136	-0.038342
C58	C	-0.192222	0.780124	-0.038346
O59	O	-0.215095	0.780068	-0.070917
N60	N	-0.214351	0.780139	-0.000033
C61	C	-0.192229	0.780150	0.038285
O62	O	-0.215109	0.780152	0.070876
C63	C	-0.015241	0.780155	0.038291
C64	C	0.006883	0.780151	-0.000027
C65	C	0.006889	0.780130	-0.076657
C66	C	0.051132	0.780139	-0.076657
C67	C	0.073250	0.780154	-0.038343
C68	C	0.051125	0.780159	-0.000028
C69	C	0.006883	0.780160	0.076611
C70	C	0.051133	0.780158	0.076610
C71	C	0.073257	0.780154	0.038291
C72	C	0.117486	0.780183	0.038287
N73	N	0.139615	0.780168	-0.000026
C74	C	0.117497	0.780153	-0.038341
C75	C	-0.285150	0.780149	0.038279
C76	C	-0.329398	0.780150	0.038277
C77	C	-0.329387	0.780121	-0.038353
C78	C	-0.285141	0.780128	-0.038353
C79	C	-0.263021	0.780134	-0.000034
C80	C	0.210409	0.780172	-0.038339
C81	C	0.254654	0.780185	-0.038337
C82	C	0.254641	0.780208	0.038295
C83	C	0.210398	0.780200	0.038292
C84	C	0.188284	0.780179	-0.000027
O85	O	0.140390	0.780227	0.070844
O86	O	0.140391	0.780129	-0.070920
C87	C	-0.059477	0.780128	-0.038342
C88	C	-0.081602	0.780133	-0.000027
C89	C	-0.059484	0.780148	0.038288
C90	C	-0.125849	0.780134	-0.000029
C91	C	-0.147967	0.780119	-0.038343
C92	C	-0.125838	0.780104	-0.076656
C93	C	-0.081596	0.780113	-0.076656
C94	C	-0.081613	0.780163	0.076600
C95	C	-0.125855	0.780155	0.076597
C96	C	-0.147974	0.780141	0.038283
C97	C	0.601390	0.780143	-0.000035
C98	C	0.648484	0.780135	-0.000037
C99	C	0.462623	0.780121	-0.138771
C100	C	0.462621	0.780105	-0.185858
C101	C	0.462623	1.014188	-0.000033
C102	C	0.462622	1.093613	-0.000034
C103	C	0.489738	0.688769	-0.495071
C104	C	0.489730	0.688739	-0.318072
O105	O	0.512792	0.611013	-0.272147
N106	N	0.462630	0.780127	-0.323030
C107	C	0.435532	0.871529	-0.372243
O108	O	0.412486	0.949259	-0.372399
C109	C	0.435544	0.871558	-0.549241
C110	C	0.462641	0.780164	-0.544279
C111	C	0.516835	0.597383	-0.490111
C112	C	0.516834	0.597392	-0.534359
C113	C	0.489737	0.688786	-0.583566
C114	C	0.462641	0.780173	-0.588526
C115	C	0.408449	0.962959	-0.598453
C116	C	0.408455	0.962958	-0.642703
C117	C	0.435553	0.871564	-0.637741
C118	C	0.435543	0.871576	-0.681981
N119	N	0.462644	0.780188	-0.677023
C120	C	0.489741	0.688793	-0.627815
C121	C	0.435528	0.871507	-0.279315
C122	C	0.435524	0.871500	-0.235065
C123	C	0.489723	0.688710	-0.180897
C124	C	0.489723	0.688718	-0.225148
C125	C	0.462628	0.780119	-0.274356
C126	C	0.489737	0.688818	-0.720740
C127	C	0.489732	0.688835	-0.764994
C128	C	0.435536	0.871624	-0.819158
C129	C	0.435538	0.871608	-0.774909
C130	C	0.462642	0.780197	-0.725698
O131	O	0.412498	0.949261	-0.727921
O132	O	0.512793	0.611075	-0.627670
C133	C	0.489739	0.688761	-0.450824
C134	C	0.462643	0.780147	-0.455784
C135	C	0.435546	0.871542	-0.504992
C136	C	0.462639	0.780140	-0.411535
C137	C	0.489736	0.688745	-0.362327
C138	C	0.516836	0.597357	-0.357369
C139	C	0.516836	0.597366	-0.401616
C140	C	0.408445	0.962930	-0.509950
C141	C	0.408448	0.962914	-0.465700
C142	C	0.435545	0.871519	-0.416493
C143	C	0.462633	0.780214	0.138711
C144	C	0.462635	0.780230	0.185798
C145	C	0.601395	0.546122	-0.000032
C146	C	0.648491	0.466690	-0.000033
C147	C	0.462638	0.546193	0.138714
C148	C	0.462642	0.466784	0.185803
C149	C	0.601400	0.546169	0.138709
C150	C	0.648498	0.466752	0.185795
C151	C	0.323856	1.014166	-0.138768
C152	C	0.276758	1.093583	-0.185855
C153	C	0.323861	1.014212	-0.000028
C154	C	0.276765	1.093645	-0.000027
C155	C	0.462618	1.014142	-0.138774
C156	C	0.462614	1.093550	-0.185862
C157	C	0.643511	0.429383	-0.027129
C158	C	0.687758	0.354757	-0.027140
C159	C	0.736985	0.317435	-0.000052
C160	C	0.741965	0.354750	0.027045
C161	C	0.697718	0.429379	0.027053
C162	C	0.489741	0.429497	0.235012
C163	C	0.489742	0.354895	0.279260
C164	C	0.462647	0.317575	0.274299
C165	C	0.435545	0.354870	0.225086
C166	C	0.435541	0.429476	0.180838
C167	C	0.697715	0.429443	0.180815
C168	C	0.741973	0.354833	0.225053
C169	C	0.737012	0.317528	0.274272
C170	C	0.687790	0.354844	0.279252
C171	C	0.643533	0.429458	0.235014
C172	C	0.227541	1.130900	-0.180874
C173	C	0.183283	1.205534	-0.225113
C174	C	0.188244	1.242843	-0.274332
C175	C	0.237466	1.205522	-0.279311
C176	C	0.281723	1.130895	-0.235073
C177	C	0.281746	1.130960	0.027064
C178	C	0.237498	1.205606	0.027063
C179	C	0.188271	1.242930	-0.000026
C180	C	0.183292	1.205612	-0.027121
C181	C	0.227539	1.130973	-0.027122
C182	C	0.489714	1.130846	-0.180885
C183	C	0.489721	1.205449	-0.225125
C184	C	0.462625	1.242760	-0.274343
C185	C	0.435524	1.205457	-0.279319
C186	C	0.435520	1.130850	-0.235079
H187	H	0.570484	0.165988	0.107801
H188	H	0.683694	0.324385	-0.049205
O189	O	0.576551	0.014628	0.113844
C190	C	0.652551	-0.105709	0.189877
C191	C	0.610380	0.006418	0.147718
H192	H	0.679906	-0.112383	0.217282
H193	H	0.675303	-0.143928	0.171021
H194	H	0.633637	-0.143828	0.212560
H195	H	0.629251	0.044624	0.125021
H196	H	0.587632	0.044563	0.166606
H197	H	0.143205	1.236014	-0.049177
O198	O	0.538125	-0.032770	0.075475
C199	C	0.572116	-0.205015	0.109415
C200	C	0.529975	-0.092861	0.067271
H201	H	0.565547	-0.253630	0.102791
H202	H	0.570214	-0.222267	0.149121
H203	H	0.611811	-0.222175	0.107513
H204	H	0.490259	-0.075622	0.069125
H205	H	0.531922	-0.075667	0.027583
H206	H	0.321825	1.100576	0.049127
H207	H	-0.267130	0.780123	-0.069555
O208	O	0.516002	1.094781	-0.133106
C209	C	0.525894	1.133369	-0.073245
C210	C	0.496085	1.174348	-0.127372
H211	H	0.509796	1.197675	-0.068588
H212	H	0.568678	1.098463	-0.068575
H213	H	0.521254	1.073606	-0.042484
H214	H	0.500683	1.234146	-0.158166
H215	H	0.453313	1.209191	-0.131998
H216	H	0.386376	1.037343	-0.469749
O217	O	0.242370	1.241678	0.053472
C218	C	0.275198	1.203054	0.136202
C219	C	0.269705	1.162081	0.106358
H220	H	0.297307	1.138717	0.178964
H221	H	0.235134	1.262780	0.131598
H222	H	0.297251	1.237999	0.120126
H223	H	0.247672	1.127084	0.122415
H224	H	0.309783	1.102402	0.110962
O225	O	0.222605	1.094800	-0.053443
C226	C	0.164158	1.102733	-0.107203
C227	C	0.169676	1.143766	-0.077405
H228	H	0.121368	1.142320	-0.126592
H229	H	0.183484	1.018196	-0.079154
H230	H	0.183543	1.117355	-0.137954
H231	H	0.150288	1.129216	-0.046653
H232	H	0.150364	1.228291	-0.105485
H233	H	0.603460	0.459825	0.239076
O234	O	0.348787	0.398455	-0.113829
C235	C	0.278612	0.389144	-0.132642
C236	C	0.320683	0.359267	-0.090477
H237	H	0.255871	0.357492	-0.113779
H238	H	0.297562	0.357320	-0.155299
H239	H	0.251232	0.474813	-0.160073
H240	H	0.348076	0.273609	-0.063012
H241	H	0.301698	0.391164	-0.067859
O242	O	0.348712	0.545773	-0.113816
C243	C	0.278507	0.705081	-0.132547
C244	C	0.320676	0.592937	-0.090413
H245	H	0.255835	0.743251	-0.113641
H246	H	0.251078	0.711851	-0.159932
H247	H	0.297417	0.743179	-0.155263
H248	H	0.301811	0.554768	-0.067660
H249	H	0.348100	0.586239	-0.063064
O250	O	0.387143	0.221915	-0.075560
C251	C	0.353198	0.164239	-0.109551
C252	C	0.395302	0.134245	-0.067369
H253	H	0.359774	0.093377	-0.102936
H254	H	0.355137	0.210703	-0.149238
H255	H	0.313484	0.210857	-0.107686
H256	H	0.435036	0.087593	-0.069185
H257	H	0.393317	0.087833	-0.027699
O258	O	0.409299	0.960374	-0.866973
C259	C	0.414277	1.066400	-0.948372
C260	C	0.444051	0.965866	-0.894231
H261	H	0.442360	1.070864	-0.970429
H262	H	0.394923	1.131766	-0.944354
H263	H	0.383494	1.070967	-0.970427
H264	H	0.474858	0.961201	-0.872146
H265	H	0.463369	0.900548	-0.898286
H266	H	0.462655	0.256826	0.310333
H267	H	0.773010	0.256667	-0.000062
O268	O	0.135445	1.241756	-0.220335
C269	C	0.054045	1.264534	-0.238796
C270	C	0.108199	1.223493	-0.244256
H271	H	0.032005	1.249765	-0.258123
H272	H	0.031936	1.349098	-0.258169
H273	H	0.058119	1.225058	-0.196016
H274	H	0.104172	1.262893	-0.287023
H275	H	0.130288	1.138924	-0.224851
H276	H	0.393097	0.577036	-0.069529
H277	H	0.462631	1.303510	-0.310361
H278	H	0.152246	1.303706	-0.000021
O279	O	0.515968	1.241858	-0.220350
C280	C	0.510993	1.387510	-0.238815
C281	C	0.481209	1.346416	-0.244272
H282	H	0.482901	1.472046	-0.258143
H283	H	0.541760	1.372896	-0.258189
H284	H	0.530367	1.347984	-0.196035
H285	H	0.461803	1.385916	-0.287038
H286	H	0.450471	1.361016	-0.224865
O287	O	0.789824	0.318343	0.053352
C288	C	0.882010	0.203386	0.077330
C289	C	0.827840	0.244519	0.047523
H290	H	0.912761	0.143707	0.072619
H291	H	0.886715	0.168378	0.120118
H292	H	0.886656	0.267686	0.061288
H293	H	0.823158	0.180275	0.063521
H294	H	0.823160	0.279557	0.004738
H295	H	0.701764	0.459806	0.140742
H296	H	0.511785	0.614292	-0.140824
O297	O	0.702651	0.465464	0.053426
C298	C	0.761098	0.457588	0.107151
C299	C	0.755580	0.416621	0.077314
H300	H	0.803888	0.418132	0.126463
H301	H	0.741777	0.442879	0.137954
H302	H	0.741709	0.542145	0.079090
H303	H	0.774972	0.332059	0.105335
H304	H	0.774887	0.431408	0.046504
H305	H	0.603431	0.459769	-0.049193
O306	O	0.409209	1.241853	-0.327169
C307	C	0.385217	1.356779	-0.419339
C308	C	0.415034	1.315656	-0.365179
H309	H	0.389926	1.416440	-0.450085
H310	H	0.342422	1.391806	-0.424039
H311	H	0.401261	1.292469	-0.423986
H312	H	0.399034	1.379910	-0.360495
H313	H	0.457826	1.280600	-0.360505
O314	O	0.276199	0.780216	-0.075534
C315	C	0.344384	0.780142	-0.109479
C316	C	0.320030	0.780136	-0.067335
H317	H	0.379832	0.780056	-0.102859
H318	H	0.314905	0.850311	-0.149186
H319	H	0.356464	0.709982	-0.107574
H320	H	0.307951	0.850248	-0.069192
H321	H	0.349525	0.709920	-0.027647
H322	H	-0.347404	0.780112	-0.069551
H323	H	-0.347413	0.780169	0.069475
H324	H	0.782048	0.324458	0.220990
O325	O	0.780059	0.245011	0.317189
C326	C	0.873300	0.137975	0.350922
C327	C	0.824591	0.220084	0.302279
H328	H	0.909316	0.117811	0.338885
H329	H	0.873354	0.068048	0.374949
H330	H	0.873286	0.167334	0.374949
H331	H	0.824573	0.190819	0.278212
H332	H	0.824556	0.289996	0.278291
H333	H	0.223492	1.100527	-0.140802
O334	O	0.409282	0.318454	0.220363
C335	C	0.385278	0.203497	0.264534
C336	C	0.415043	0.244648	0.269954
H337	H	0.389916	0.143833	0.304622
H338	H	0.401349	0.168466	0.242509
H339	H	0.342497	0.267792	0.242450
H340	H	0.457828	0.180409	0.292049
H341	H	0.398930	0.279708	0.291958
O342	O	0.188964	0.779978	-0.075499
C343	C	0.164749	0.693139	-0.094237
C344	C	0.189060	0.693213	-0.052100
H345	H	0.164809	0.623008	-0.075334
H346	H	0.188167	0.693074	-0.121616
H347	H	0.123236	0.763333	-0.116958
H348	H	0.230571	0.623031	-0.029341
H349	H	0.165603	0.693331	-0.024756
H350	H	0.069142	0.780160	0.107816
H351	H	0.069143	0.780131	-0.107858
H352	H	-0.267144	0.780155	0.069485
H353	H	-0.011114	0.780115	-0.107857
O354	O	-0.014520	0.780110	0.113888
C355	C	-0.009849	0.780165	0.189886
C356	C	0.014446	0.780202	0.147704
H357	H	0.013553	0.780260	0.217231
H358	H	-0.009736	0.709978	0.212636
H359	H	-0.051380	0.850308	0.170994
H360	H	0.055986	0.710107	0.166553
H361	H	0.014292	0.850435	0.124958
O362	O	0.682883	0.318745	0.327026
C363	C	0.624483	0.326564	0.376128
C364	C	0.629964	0.367556	0.321992
H365	H	0.581700	0.365995	0.372077
H366	H	0.643816	0.341282	0.398198
H367	H	0.643883	0.242004	0.398189
H368	H	0.610561	0.452121	0.299888
H369	H	0.610645	0.352760	0.299961
O370	O	0.516037	0.318845	0.327035
C371	C	0.525932	0.357461	0.386880
C372	C	0.496120	0.398423	0.332759
H373	H	0.509834	0.421776	0.391530
H374	H	0.568715	0.322558	0.391546
H375	H	0.521296	0.297699	0.417648
H376	H	0.500714	0.458219	0.301958
H377	H	0.453349	0.433262	0.328138
H378	H	0.192380	0.780219	0.069490
O379	O	0.409213	0.465541	0.133076
C380	C	0.355442	0.457650	0.084025
C381	C	0.385248	0.416706	0.138144
H382	H	0.336049	0.418199	0.088104
H383	H	0.383494	0.442915	0.061950
H384	H	0.324684	0.542211	0.061951
H385	H	0.416006	0.332140	0.160261
H386	H	0.357164	0.431518	0.160180
H387	H	0.152203	1.303609	-0.310349
O388	O	0.409143	1.094776	-0.240011
C389	C	0.355405	1.102650	-0.298445
C390	C	0.385247	1.143604	-0.292929
H391	H	0.336086	1.142094	-0.341226
H392	H	0.324599	1.117383	-0.279123
H393	H	0.383473	1.018088	-0.279061
H394	H	0.357220	1.228170	-0.312315
H395	H	0.416060	1.128792	-0.312236
H396	H	0.241499	1.235909	-0.319390
H397	H	0.272655	0.780224	0.069489
H398	H	0.532168	0.342530	0.069491
O399	O	0.543207	0.508496	-0.396701
C400	C	0.596939	0.327195	-0.338291
C401	C	0.567103	0.427771	-0.343788
H402	H	0.616258	0.261903	-0.295513
H403	H	0.627745	0.322546	-0.357612
H404	H	0.568868	0.322683	-0.357685
H405	H	0.595135	0.432351	-0.324390
H406	H	0.536291	0.432378	-0.324480
O407	O	-0.060158	0.780057	-0.113902
C408	C	-0.064851	0.780088	-0.189925
C409	C	-0.089172	0.780130	-0.147767
H410	H	-0.088304	0.780168	-0.217323
H411	H	-0.023335	0.709907	-0.171068
H412	H	-0.064928	0.850236	-0.212617
H413	H	-0.089132	0.710029	-0.125062
H414	H	-0.130675	0.850357	-0.166656
H415	H	-0.143855	0.780098	-0.107855
H416	H	0.511804	0.459875	0.239061
H417	H	0.321797	1.100511	-0.239135
H418	H	-0.143868	0.780167	0.107800
O419	O	0.409288	0.960323	-0.779662
C420	C	0.414267	1.066420	-0.761172
C421	C	0.444050	0.965903	-0.755736
H422	H	0.442360	1.070973	-0.741841
H423	H	0.383507	1.071017	-0.741790
H424	H	0.394884	1.131723	-0.803948
H425	H	0.463465	0.900543	-0.712973
H426	H	0.474781	0.961394	-0.775150
H427	H	0.538897	0.522940	-0.317295
H428	H	-0.063607	0.780173	0.107801
H429	H	0.511798	0.614408	-0.760947
H430	H	0.511808	0.614383	-0.680676
H431	H	0.538903	0.522954	-0.450047
O432	O	0.543244	0.508587	-0.529510
C433	C	0.625987	0.352327	-0.496706
C434	C	0.596140	0.452876	-0.502175
H435	H	0.668757	0.307247	-0.474597
H436	H	0.621383	0.367961	-0.536770
H437	H	0.609905	0.307303	-0.474672
H438	H	0.612202	0.497950	-0.524189
H439	H	0.600743	0.437171	-0.462096
O440	O	0.516094	0.599849	-0.220234
C441	C	0.569824	0.418547	-0.161826
C442	C	0.539988	0.519122	-0.167320
H443	H	0.589141	0.353253	-0.119048
H444	H	0.600631	0.413898	-0.181145
H445	H	0.541753	0.414040	-0.181223
H446	H	0.568020	0.523697	-0.147920
H447	H	0.509174	0.523728	-0.148015
H448	H	0.413451	0.945922	-0.239112
O449	O	0.409239	0.960366	-0.327087
C450	C	0.399349	1.116574	-0.386918
C451	C	0.429158	1.015989	-0.332800
H452	H	0.415450	1.161565	-0.391559
H453	H	0.356566	1.161710	-0.391587
H454	H	0.403988	1.100877	-0.417690
H455	H	0.424561	1.031594	-0.301995
H456	H	0.471929	0.970884	-0.328176
H457	H	0.386384	1.037382	-0.602504
O458	O	0.382074	1.051806	-0.557709
C459	C	0.328336	1.233105	-0.606755
C460	C	0.358176	1.132519	-0.552638
H461	H	0.309016	1.298388	-0.602673
H462	H	0.297532	1.237757	-0.628839
H463	H	0.356406	1.237630	-0.628822
H464	H	0.330146	1.127926	-0.530528
H465	H	0.388987	1.127909	-0.530593
O466	O	0.382096	1.051685	-0.690532
C467	C	0.314199	1.157829	-0.771925
C468	C	0.344017	1.057303	-0.717781
H469	H	0.283399	1.162413	-0.793968
H470	H	0.342240	1.162410	-0.794023
H471	H	0.294859	1.223123	-0.767852
H472	H	0.363359	0.991951	-0.721807
H473	H	0.315953	1.052810	-0.695703
