data_functionalizedCrystal
_audit_creation_method	'MofGen! by Chris Wilmer'
_symmetry_space_group_name_H-M	'P1'
_symmetry_Int_Tables_number	1
_symmetry_cell_setting	triclinic
loop_
_symmetry_equiv_pos_as_xyz
  x,y,z
_cell_length_a	19.077115
_cell_length_b	21.295417
_cell_length_c	19.076919
_cell_angle_alpha	92.267699
_cell_angle_beta	90.076897
_cell_angle_gamma	87.725900
loop_
_atom_site_label
_atom_site_type_symbol
_atom_site_fract_x
_atom_site_fract_y
_atom_site_fract_z
Zn1	Zn	1.058240	-0.304535	-0.440381
Zn2	Zn	1.308240	-0.054535	-0.190381
Zn3	Zn	1.558240	0.195465	0.059619
Zn4	Zn	1.808240	0.445465	0.309619
Zn5	Zn	1.062869	-0.405748	-0.322866
Zn6	Zn	1.312869	-0.155748	-0.072866
Zn7	Zn	1.562869	0.094252	0.177134
Zn8	Zn	1.812869	0.344252	0.427134
Zn9	Zn	0.945458	-0.296102	-0.318176
Zn10	Zn	1.195458	-0.046102	-0.068176
Zn11	Zn	1.445458	0.203898	0.181824
Zn12	Zn	1.695458	0.453898	0.431824
Zn13	Zn	0.940691	-0.405368	-0.435620
Zn14	Zn	1.190691	-0.155368	-0.185620
Zn15	Zn	1.440691	0.094632	0.064380
Zn16	Zn	1.690691	0.344632	0.314380
O17	O	1.001815	-0.352938	-0.379261
O18	O	1.251815	-0.102938	-0.129261
O19	O	1.501815	0.147062	0.120739
O20	O	1.751815	0.397062	0.370739
O21	O	1.157185	-0.321649	-0.428748
O22	O	1.407185	-0.071649	-0.178748
O23	O	1.657185	0.178351	0.071252
O24	O	1.907185	0.428351	0.321252
O25	O	1.051227	-0.387833	-0.223913
O26	O	1.301227	-0.137833	0.026087
O27	O	1.551227	0.112167	0.276087
O28	O	1.801227	0.362167	0.526087
O29	O	0.960476	-0.209134	-0.334417
O30	O	1.210476	0.040866	-0.084417
O31	O	1.460476	0.290866	0.165583
O32	O	1.710476	0.540866	0.415583
O33	O	1.160587	-0.396009	-0.342410
O34	O	1.410587	-0.146009	-0.092410
O35	O	1.660587	0.103991	0.157590
O36	O	1.910587	0.353991	0.407590
O37	O	1.043336	-0.215330	-0.424200
O38	O	1.293336	0.034670	-0.174200
O39	O	1.543336	0.284670	0.075800
O40	O	1.793336	0.534670	0.325800
O41	O	0.964966	-0.307276	-0.220468
O42	O	1.214966	-0.057276	0.029532
O43	O	1.464966	0.192724	0.279532
O44	O	1.714966	0.442724	0.529532
O45	O	0.846495	-0.306908	-0.329801
O46	O	1.096495	-0.056908	-0.079801
O47	O	1.346495	0.193092	0.170199
O48	O	1.596495	0.443092	0.420199
O49	O	0.952352	-0.395363	-0.534583
O50	O	1.202352	-0.145363	-0.284583
O51	O	1.452352	0.104637	-0.034583
O52	O	1.702352	0.354637	0.215417
O53	O	0.842992	-0.387186	-0.416086
O54	O	1.092992	-0.137186	-0.166086
O55	O	1.342992	0.112814	0.083914
O56	O	1.592992	0.362814	0.333914
O57	O	1.038714	-0.321281	-0.538081
O58	O	1.288714	-0.071281	-0.288081
O59	O	1.538714	0.178719	-0.038081
O60	O	1.788714	0.428719	0.211919
O61	O	1.046605	-0.493784	-0.337794
O62	O	1.296605	-0.243784	-0.087794
O63	O	1.546605	0.006216	0.162206
O64	O	1.796605	0.256216	0.412206
O65	O	0.956841	-0.493505	-0.420633
O66	O	1.206841	-0.243505	-0.170633
O67	O	1.456841	0.006495	0.079367
O68	O	1.706841	0.256495	0.329367
C69	C	0.819247	-0.346091	-0.371918
C70	C	1.069247	-0.096091	-0.121918
C71	C	1.319247	0.153909	0.128082
C72	C	1.569247	0.403909	0.378082
C73	C	0.741143	-0.343178	-0.368794
C74	C	0.991143	-0.093178	-0.118794
C75	C	1.241143	0.156822	0.131206
C76	C	1.491143	0.406822	0.381206
C77	C	0.301695	-0.322256	-0.346390
C78	C	0.551695	-0.072256	-0.096390
C79	C	0.801695	0.177744	0.153610
C80	C	1.051695	0.427744	0.403610
C81	C	0.375081	-0.324997	-0.349330
C82	C	0.625081	-0.074997	-0.099330
C83	C	0.875081	0.175003	0.150670
C84	C	1.125081	0.425003	0.400670
C85	C	0.409970	-0.368227	-0.395651
C86	C	0.659970	-0.118227	-0.145651
C87	C	0.909970	0.131773	0.104349
C88	C	1.159970	0.381773	0.354349
C89	C	0.371468	-0.408714	-0.439040
C90	C	0.621468	-0.158714	-0.189040
C91	C	0.871468	0.091286	0.060960
C92	C	1.121468	0.341286	0.310960
C93	C	0.298083	-0.405970	-0.436103
C94	C	0.548083	-0.155970	-0.186103
C95	C	0.798083	0.094030	0.063897
C96	C	1.048083	0.344030	0.313897
C97	C	0.629256	-0.380921	-0.409246
C98	C	0.879256	-0.130921	-0.159246
C99	C	1.129256	0.119079	0.090754
C100	C	1.379256	0.369079	0.340754
C101	C	0.702647	-0.383664	-0.412178
C102	C	0.952647	-0.133664	-0.162178
C103	C	1.202647	0.116336	0.087822
C104	C	1.452647	0.366336	0.337822
C105	C	0.706255	-0.299945	-0.322468
C106	C	0.956255	-0.049945	-0.072468
C107	C	1.206255	0.200055	0.177532
C108	C	1.456255	0.450055	0.427532
C109	C	0.632868	-0.297207	-0.319533
C110	C	0.882868	-0.047207	-0.069533
C111	C	1.132868	0.202793	0.180467
C112	C	1.382868	0.452793	0.430467
C113	C	0.594372	-0.337692	-0.362925
C114	C	0.844372	-0.087692	-0.112925
C115	C	1.094372	0.162308	0.137075
C116	C	1.344372	0.412308	0.387075
N117	N	0.484983	-0.371031	-0.398655
N118	N	0.734983	-0.121031	-0.148655
N119	N	0.984983	0.128969	0.101345
N120	N	1.234983	0.378969	0.351345
N121	N	0.519360	-0.334884	-0.359923
N122	N	0.769360	-0.084884	-0.109923
N123	N	1.019360	0.165116	0.140077
N124	N	1.269360	0.415116	0.390077
C125	C	1.001727	-0.516485	-0.379222
C126	C	1.251727	-0.266485	-0.129222
C127	C	1.501727	-0.016485	0.120778
C128	C	1.751727	0.233515	0.370778
C129	C	1.001752	-0.586454	-0.379231
C130	C	1.251752	-0.336454	-0.129231
C131	C	1.501752	-0.086454	0.120769
C132	C	1.751752	0.163546	0.370769
C133	C	1.044870	-0.622490	-0.426012
C134	C	1.294870	-0.372490	-0.176012
C135	C	1.544870	-0.122490	0.073988
C136	C	1.794870	0.127510	0.323988
C137	C	1.044894	-0.688234	-0.426031
C138	C	1.294894	-0.438234	-0.176031
C139	C	1.544894	-0.188234	0.073969
C140	C	1.794894	0.061766	0.323969
C141	C	1.001808	-0.717940	-0.379256
C142	C	1.251808	-0.467940	-0.129256
C143	C	1.501808	-0.217940	0.120744
C144	C	1.751808	0.032060	0.370744
C145	C	0.958682	-0.681896	-0.332471
C146	C	1.208682	-0.431896	-0.082471
C147	C	1.458682	-0.181896	0.167529
C148	C	1.708682	0.068104	0.417529
C149	C	0.958653	-0.616153	-0.332459
C150	C	1.208653	-0.366153	-0.082459
C151	C	1.458653	-0.116153	0.167541
C152	C	1.708653	0.133847	0.417541
N153	N	0.998974	-0.818882	-0.317547
N154	N	1.248974	-0.568882	-0.067547
N155	N	1.498974	-0.318882	0.182453
N156	N	1.748974	-0.068882	0.432453
N157	N	0.999005	-0.881335	-0.317561
N158	N	1.249005	-0.631335	-0.067561
N159	N	1.499005	-0.381335	0.182439
N160	N	1.749005	-0.131335	0.432439
C161	C	1.001889	-0.916019	-0.379291
C162	C	1.251889	-0.666019	-0.129291
C163	C	1.501889	-0.416019	0.120709
C164	C	1.751889	-0.166019	0.370709
N165	N	1.004755	-0.885891	-0.441008
N166	N	1.254755	-0.635891	-0.191008
N167	N	1.504755	-0.385891	0.058992
N168	N	1.754755	-0.135891	0.308992
N169	N	1.004728	-0.823432	-0.440994
N170	N	1.254728	-0.573432	-0.190994
N171	N	1.504728	-0.323432	0.059006
N172	N	1.754728	-0.073432	0.309006
C173	C	1.001834	-0.789226	-0.379264
C174	C	1.251834	-0.539226	-0.129264
C175	C	1.501834	-0.289226	0.120736
C176	C	1.751834	-0.039226	0.370736
C177	C	1.045036	-1.023342	-0.426096
C178	C	1.295036	-0.773342	-0.176096
C179	C	1.545036	-0.523342	0.073904
C180	C	1.795036	-0.273342	0.323904
C181	C	1.045055	-1.089087	-0.426115
C182	C	1.295055	-0.839087	-0.176115
C183	C	1.545055	-0.589087	0.073885
C184	C	1.795055	-0.339087	0.323885
C185	C	0.958846	-1.082747	-0.332549
C186	C	1.208846	-0.832747	-0.082549
C187	C	1.458846	-0.582747	0.167451
C188	C	1.708846	-0.332747	0.417451
C189	C	0.958823	-1.017004	-0.332536
C190	C	1.208823	-0.767004	-0.082536
C191	C	1.458823	-0.517004	0.167464
C192	C	1.708823	-0.267004	0.417464
C193	C	1.001921	-0.987305	-0.379308
C194	C	1.251921	-0.737305	-0.129308
C195	C	1.501921	-0.487305	0.120692
C196	C	1.751921	-0.237305	0.370692
C197	C	1.185095	-0.359812	-0.386633
C198	C	1.435095	-0.109812	-0.136633
C199	C	1.685095	0.140188	0.113367
C200	C	1.935095	0.390188	0.363367
C201	C	1.263198	-0.362741	-0.389774
C202	C	1.513198	-0.112741	-0.139774
C203	C	1.763198	0.137259	0.110226
C204	C	2.013198	0.387259	0.360226
C205	C	0.994485	-0.359220	-0.562541
C206	C	1.244485	-0.109220	-0.312541
C207	C	1.494485	0.140780	-0.062541
C208	C	1.744485	0.390780	0.187459
C209	C	0.991361	-0.361897	-0.640644
C210	C	1.241361	-0.111897	-0.390644
C211	C	1.491361	0.138103	-0.140644
C212	C	1.741361	0.388103	0.109356
C213	C	1.001922	-0.188754	-0.379316
C214	C	1.251922	0.061246	-0.129316
C215	C	1.501922	0.311246	0.120684
C216	C	1.751922	0.561246	0.370684
C217	C	1.001967	-0.118788	-0.379340
C218	C	1.251967	0.131212	-0.129340
C219	C	1.501967	0.381212	0.120660
C220	C	1.751967	0.631212	0.370660
C221	C	1.034855	-0.324586	-0.679159
C222	C	1.284855	-0.074586	-0.429159
C223	C	1.534855	0.175414	-0.179159
C224	C	1.784855	0.425414	0.070841
C225	C	1.031912	-0.327098	-0.752544
C226	C	1.281912	-0.077098	-0.502544
C227	C	1.531912	0.172902	-0.252544
C228	C	1.781912	0.422902	-0.002544
C229	C	0.985477	-0.366926	-0.787414
C230	C	1.235477	-0.116926	-0.537414
C231	C	1.485477	0.133074	-0.287414
C232	C	1.735477	0.383074	-0.037414
C233	C	0.941978	-0.404238	-0.748893
C234	C	1.191978	-0.154238	-0.498893
C235	C	1.441978	0.095762	-0.248893
C236	C	1.691978	0.345762	0.001107
C237	C	0.944918	-0.401722	-0.675509
C238	C	1.194918	-0.151722	-0.425509
C239	C	1.444918	0.098278	-0.175509
C240	C	1.694918	0.348278	0.074491
C241	C	0.971858	-0.378584	-1.006694
C242	C	1.221858	-0.128584	-0.756694
C243	C	1.471858	0.121416	-0.506694
C244	C	1.721858	0.371416	-0.256694
C245	C	0.968922	-0.381099	-1.080084
C246	C	1.218922	-0.131099	-0.830084
C247	C	1.468922	0.118901	-0.580084
C248	C	1.718922	0.368901	-0.330084
C249	C	1.058856	-0.303958	-1.083730
C250	C	1.308856	-0.053958	-0.833730
C251	C	1.558856	0.196042	-0.583730
C252	C	1.808856	0.446042	-0.333730
C253	C	1.061795	-0.301448	-1.010344
C254	C	1.311795	-0.051448	-0.760344
C255	C	1.561795	0.198552	-0.510344
C256	C	1.811795	0.448552	-0.260344
C257	C	1.018293	-0.338758	-0.971830
C258	C	1.268293	-0.088758	-0.721830
C259	C	1.518293	0.161242	-0.471830
C260	C	1.768293	0.411242	-0.221830
N261	N	0.982469	-0.369496	-0.862426
N262	N	1.232469	-0.119496	-0.612426
N263	N	1.482469	0.130504	-0.362426
N264	N	1.732469	0.380504	-0.112426
N265	N	1.021298	-0.336183	-0.896819
N266	N	1.271298	-0.086183	-0.646819
N267	N	1.521298	0.163817	-0.396819
N268	N	1.771298	0.413817	-0.146819
C269	C	1.009157	-0.346637	-0.196696
C270	C	1.259157	-0.096637	0.053304
C271	C	1.509157	0.153363	0.303304
C272	C	1.759157	0.403363	0.553304
C273	C	1.012416	-0.343788	-0.118599
C274	C	1.262416	-0.093788	0.131401
C275	C	1.512416	0.156212	0.381401
C276	C	1.762416	0.406212	0.631401
H277	H	0.604467	-0.262008	-0.281808
H278	H	0.854467	-0.012008	-0.031808
H279	H	1.104467	0.237992	0.218192
H280	H	1.354467	0.487992	0.468192
O281	O	0.416606	-0.281346	-0.302518
O282	O	0.666606	-0.031346	-0.052518
O283	O	0.916606	0.218654	0.197482
O284	O	1.166606	0.468654	0.447482
H285	H	0.380018	-0.250836	-0.269803
H286	H	0.630018	-0.000836	-0.019803
H287	H	0.880018	0.249164	0.230197
H288	H	1.130018	0.499164	0.480197
O289	O	1.105751	-0.263704	-1.125278
O290	O	1.355751	-0.013704	-0.875278
O291	O	1.605751	0.236296	-0.625278
O292	O	1.855751	0.486296	-0.375278
H293	H	1.140141	-0.294355	-1.160154
H294	H	1.390141	-0.044355	-0.910154
H295	H	1.640141	0.205645	-0.660154
H296	H	1.890141	0.455645	-0.410154
O297	O	0.747781	-0.256281	-0.275675
O298	O	0.997781	-0.006281	-0.025675
O299	O	1.247781	0.243719	0.224325
O300	O	1.497781	0.493719	0.474325
H301	H	0.735890	-0.264585	-0.219939
H302	H	0.985890	-0.014585	0.030061
H303	H	1.235890	0.235415	0.280061
H304	H	1.485890	0.485415	0.530061
O305	O	0.740281	-0.430288	-0.462146
O306	O	0.990281	-0.180288	-0.212146
O307	O	1.240281	0.069712	0.037854
O308	O	1.490281	0.319712	0.287854
H309	H	0.701184	-0.457975	-0.491831
H310	H	0.951184	-0.207975	-0.241831
H311	H	1.201184	0.042025	0.008169
H312	H	1.451184	0.292025	0.258169
H313	H	0.931107	-0.413532	-1.108472
H314	H	1.181107	-0.163532	-0.858472
H315	H	1.431107	0.086468	-0.608472
H316	H	1.681107	0.336468	-0.358472
H317	H	1.072670	-0.292156	-0.650774
H318	H	1.322670	-0.042156	-0.400774
H319	H	1.572670	0.207844	-0.150774
H320	H	1.822670	0.457844	0.099226
O321	O	0.256562	-0.449638	-0.482899
O322	O	0.506562	-0.199638	-0.232899
O323	O	0.756562	0.050362	0.017101
O324	O	1.006562	0.300362	0.267101
H325	H	0.199671	-0.440462	-0.473082
H326	H	0.449671	-0.190462	-0.223082
H327	H	0.699671	0.059538	0.026918
H328	H	0.949671	0.309538	0.276918
O329	O	0.587745	-0.424708	-0.455901
O330	O	0.837745	-0.174708	-0.205901
O331	O	1.087745	0.075292	0.044099
O332	O	1.337745	0.325292	0.294099
H333	H	0.624339	-0.455276	-0.488546
H334	H	0.874339	-0.205276	-0.238546
H335	H	1.124339	0.044724	0.011454
H336	H	1.374339	0.294724	0.261454
H337	H	0.399881	-0.443911	-0.476759
H338	H	0.649881	-0.193911	-0.226759
H339	H	0.899881	0.056089	0.023241
H340	H	1.149881	0.306089	0.273241
H341	H	1.080166	-1.118426	-0.464213
H342	H	1.330166	-0.868426	-0.214213
H343	H	1.580166	-0.618426	0.035787
H344	H	1.830166	-0.368426	0.285787
O345	O	1.091366	-0.590456	-0.476446
O346	O	1.341366	-0.340456	-0.226446
O347	O	1.591366	-0.090456	0.023554
O348	O	1.841366	0.159544	0.273554
H349	H	1.121355	-0.626564	-0.508977
H350	H	1.371355	-0.376564	-0.258977
H351	H	1.621355	-0.126564	-0.008977
H352	H	1.871355	0.123436	0.241023
H353	H	0.923541	-0.586812	-0.294363
H354	H	1.173541	-0.336812	-0.044363
H355	H	1.423541	-0.086812	0.205637
H356	H	1.673541	0.163188	0.455637
O357	O	1.091407	-0.727114	-0.476484
O358	O	1.341407	-0.477114	-0.226484
O359	O	1.591407	-0.227114	0.023516
O360	O	1.841407	0.022886	0.273516
H361	H	1.121375	-0.695417	-0.509001
H362	H	1.371375	-0.445417	-0.259001
H363	H	1.621375	-0.195417	-0.009001
H364	H	1.871375	0.054583	0.240999
O365	O	0.264079	-0.275631	-0.296417
O366	O	0.514079	-0.025631	-0.046417
O367	O	0.764079	0.224369	0.203583
O368	O	1.014079	0.474369	0.453583
H369	H	0.232065	-0.301280	-0.259262
H370	H	0.482065	-0.051280	-0.009262
H371	H	0.732065	0.198720	0.240738
H372	H	0.982065	0.448720	0.490738
H373	H	0.923760	-1.106933	-0.294468
H374	H	1.173760	-0.856933	-0.044468
H375	H	1.423760	-0.606933	0.205532
H376	H	1.673760	-0.356933	0.455532
H377	H	0.923599	-0.706087	-0.294388
H378	H	1.173599	-0.456087	-0.044388
H379	H	1.423599	-0.206087	0.205612
H380	H	1.673599	0.043913	0.455612
O381	O	1.091511	-0.991301	-0.476545
O382	O	1.341511	-0.741301	-0.226545
O383	O	1.591511	-0.491301	0.023455
O384	O	1.841511	-0.241301	0.273455
H385	H	1.121491	-1.027408	-0.509087
H386	H	1.371491	-0.777408	-0.259087
H387	H	1.621491	-0.527408	-0.009087
H388	H	1.871491	-0.277408	0.240913
O389	O	0.912330	-0.978130	-0.282066
O390	O	1.162330	-0.728130	-0.032066
O391	O	1.412330	-0.478130	0.217934
O392	O	1.662330	-0.228130	0.467934
H393	H	0.882379	-1.009829	-0.249536
H394	H	1.132379	-0.759829	0.000464
H395	H	1.382379	-0.509829	0.250464
H396	H	1.632379	-0.259829	0.500464
H397	H	1.067331	-0.296717	-0.783900
H398	H	1.317331	-0.046717	-0.533900
H399	H	1.567331	0.203283	-0.283900
H400	H	1.817331	0.453283	-0.033900
O401	O	1.111881	-0.258494	-0.972734
O402	O	1.361881	-0.008494	-0.722734
O403	O	1.611881	0.241506	-0.472734
O404	O	1.861881	0.491506	-0.222734
H405	H	1.141630	-0.232969	-1.011846
H406	H	1.391630	0.017031	-0.761846
H407	H	1.641630	0.267031	-0.511846
H408	H	1.891630	0.517031	-0.261846
H409	H	0.936446	-0.408974	-0.975345
H410	H	1.186446	-0.158974	-0.725345
H411	H	1.436446	0.091026	-0.475345
H412	H	1.686446	0.341026	-0.225345
H413	H	0.904167	-0.436664	-0.777290
H414	H	1.154167	-0.186664	-0.527290
H415	H	1.404167	0.063336	-0.277290
H416	H	1.654167	0.313336	-0.027290
H417	H	0.909493	-0.432098	-0.644150
H418	H	1.159493	-0.182098	-0.394150
H419	H	1.409493	0.067902	-0.144150
H420	H	1.659493	0.317902	0.105850
