data_functionalizedCrystal
_audit_creation_method	'MofGen! by Chris Wilmer'
_symmetry_space_group_name_H-M	'P1'
_symmetry_Int_Tables_number	1
_symmetry_cell_setting	triclinic
loop_
_symmetry_equiv_pos_as_xyz
  x,y,z
_cell_length_a	15.995350
_cell_length_b	15.072220
_cell_length_c	15.995350
_cell_angle_alpha	90.007147
_cell_angle_beta	83.492375
_cell_angle_gamma	90.000308
loop_
_atom_site_label
_atom_site_type_symbol
_atom_site_fract_x
_atom_site_fract_y
_atom_site_fract_z
O1	O	1.110984	0.073703	0.107932
O2	O	1.610984	0.573703	0.607932
O3	O	0.867209	0.073721	0.121260
O4	O	1.367209	0.573721	0.621260
O5	O	0.995760	0.073710	-0.007292
O6	O	1.495760	0.573710	0.492708
O7	O	0.982433	0.073713	0.236484
O8	O	1.482433	0.573713	0.736484
O9	O	0.995752	-0.073855	-0.007307
O10	O	1.495752	0.426145	0.492693
O11	O	0.867200	-0.073844	0.121244
O12	O	1.367200	0.426156	0.621244
O13	O	1.110976	-0.073862	0.107917
O14	O	1.610976	0.426138	0.607917
Zn15	Zn	0.989087	-0.097283	0.114578
Zn16	Zn	1.489087	0.402717	0.614578
Zn17	Zn	0.989098	0.097141	0.114599
Zn18	Zn	1.489098	0.597141	0.614599
O19	O	0.982424	-0.073852	0.236468
O20	O	1.482424	0.426148	0.736468
C21	C	0.836010	-0.000060	0.120701
C22	C	1.336010	0.499940	0.620701
C23	C	0.743060	-0.000053	0.119049
C24	C	1.243060	0.499947	0.619049
N25	N	0.989085	-0.229971	0.114564
N26	N	1.489085	0.270029	0.614564
C27	C	0.405312	-0.000071	0.113117
C28	C	0.905312	0.499929	0.613117
C29	C	0.452746	-0.000401	0.021565
C30	C	0.952746	0.499599	0.521565
C31	C	0.549436	-0.000063	0.023217
C32	C	1.049436	0.499937	0.523217
C33	C	0.572873	-0.000063	0.116060
C34	C	1.072873	0.499937	0.616060
C35	C	0.531790	0.084201	0.161225
C36	C	1.031790	0.584201	0.661225
C37	C	0.435155	0.084266	0.158925
C38	C	0.935155	0.584266	0.658925
C39	C	0.434806	-0.083543	0.160799
C40	C	0.934806	0.416457	0.660799
C41	C	0.531751	-0.084651	0.160777
C42	C	1.031751	0.415349	0.660777
C43	C	0.667570	-0.000055	0.117727
C44	C	1.167570	0.499945	0.617727
C45	C	0.310614	-0.000073	0.111452
C46	C	0.810614	0.499927	0.611452
C47	C	0.989099	-0.589173	0.114592
C48	C	1.489099	-0.089173	0.614592
C49	C	1.058107	-0.551544	0.046036
C50	C	1.558107	-0.051544	0.546036
C51	C	1.057927	-0.448718	0.045783
C52	C	1.557927	0.051282	0.545783
C53	C	0.989093	-0.410969	0.114578
C54	C	1.489093	0.089031	0.614578
C55	C	0.901736	-0.448305	0.095497
C56	C	1.401736	0.051695	0.595497
C57	C	0.902144	-0.551163	0.095013
C58	C	1.402144	-0.051163	0.595013
C59	C	1.006660	-0.551250	0.202431
C60	C	1.506660	-0.051250	0.702431
C61	C	1.008643	-0.448386	0.201842
C62	C	1.508643	0.051614	0.701842
C63	C	0.989084	-0.310255	0.114572
C64	C	1.489084	0.189745	0.614572
C65	C	0.989102	-0.689886	0.114597
C66	C	1.489102	-0.189886	0.614597
C67	C	1.142175	-0.000080	0.108476
C68	C	1.642175	0.499920	0.608476
C69	C	1.235125	-0.000081	0.110127
C70	C	1.735125	0.499919	0.610127
C71	C	0.995205	-0.000070	-0.038494
C72	C	1.495205	0.499930	0.461506
C73	C	0.993553	-0.000065	-0.131444
C74	C	1.493553	0.499935	0.368556
N75	N	0.989106	0.229830	0.114606
N76	N	1.489106	0.729830	0.614606
C77	C	0.987621	-0.000068	-0.469192
C78	C	1.487621	0.499932	0.030808
C79	C	0.896069	0.000270	-0.421758
C80	C	1.396069	0.500270	0.078242
C81	C	0.897721	-0.000063	-0.325068
C82	C	1.397721	0.499937	0.174932
C83	C	0.990564	-0.000066	-0.301631
C84	C	1.490564	0.499934	0.198369
C85	C	1.035715	-0.084335	-0.342718
C86	C	1.535715	0.415665	0.157282
C87	C	1.033416	-0.084405	-0.439353
C88	C	1.533416	0.415595	0.060647
C89	C	1.035316	0.083404	-0.439694
C90	C	1.535316	0.583404	0.060306
C91	C	1.035295	0.084518	-0.342748
C92	C	1.535295	0.584518	0.157252
C93	C	0.992231	-0.000068	-0.206934
C94	C	1.492231	0.499932	0.293066
C95	C	0.985956	-0.000072	-0.563890
C96	C	1.485956	0.499928	-0.063890
C97	C	0.982980	-0.000069	0.267671
C98	C	1.482980	0.499931	0.767671
C99	C	0.984631	-0.000069	0.360621
C100	C	1.484631	0.499931	0.860621
H101	H	0.577862	-0.060467	-0.012284
H102	H	1.077862	0.439533	0.487716
H103	H	1.123261	-0.576278	0.057215
H104	H	1.623261	-0.076278	0.557215
O105	O	0.994174	-0.167403	-0.305134
O106	O	1.494174	0.332597	0.194866
H107	H	0.927088	-0.168234	-0.316815
H108	H	1.427088	0.331766	0.183185
H109	H	1.046706	-0.424120	-0.019403
H110	H	1.546706	0.075880	0.480597
H111	H	0.434221	-0.060830	-0.015037
H112	H	0.934221	0.439170	0.484963
H113	H	1.102817	0.083968	-0.471455
H114	H	1.602817	0.583968	0.028545
O115	O	0.880729	-0.414201	0.011607
O116	O	1.380729	0.085799	0.511607
H117	H	0.818825	-0.441055	-0.001180
H118	H	1.318825	0.058945	0.498820
O119	O	0.426795	0.079190	-0.026692
O120	O	0.926795	0.579190	0.473308
H121	H	0.380262	0.118985	0.014246
H122	H	0.880262	0.618985	0.514246
O123	O	0.407609	-0.168153	0.121147
O124	O	0.907609	0.331847	0.621147
H125	H	0.463958	-0.208303	0.098960
H126	H	0.963958	0.291697	0.598960
O127	O	0.991632	0.167102	-0.306583
O128	O	1.491632	0.667102	0.193417
H129	H	0.994295	0.168867	-0.237563
H130	H	1.494295	0.668867	0.262437
O131	O	0.586353	0.080090	-0.024100
O132	O	1.086353	0.580090	0.475900
H133	H	0.535133	0.118766	-0.048246
H134	H	1.035133	0.618766	0.451754
O135	O	0.995674	0.168013	-0.466880
O136	O	1.495674	0.668013	0.033120
H137	H	0.941528	0.151511	-0.501725
H138	H	1.441528	0.651511	-0.001725
H139	H	0.859636	-0.059819	-0.441358
H140	H	1.359636	0.440181	0.058642
H141	H	0.416850	0.147255	0.126002
H142	H	0.916850	0.647255	0.626002
H143	H	0.402906	0.088090	0.226141
H144	H	0.902906	0.588090	0.726141
H145	H	0.403045	-0.084113	0.228300
H146	H	0.903045	0.415887	0.728300
O147	O	0.550502	0.088369	0.251575
O148	O	1.050502	0.588369	0.751575
H149	H	0.589377	0.030288	0.265277
H150	H	1.089377	0.530288	0.765277
H151	H	0.560168	0.146912	0.129868
H152	H	1.060168	0.646912	0.629868
H153	H	0.559064	-0.146989	0.127807
H154	H	1.059064	0.353011	0.627807
H155	H	1.103000	0.089603	-0.327386
H156	H	1.603000	0.589603	0.172614
O157	O	0.552107	-0.091401	0.250457
O158	O	1.052107	0.408599	0.750457
H159	H	0.527765	-0.031844	0.286098
H160	H	1.027765	0.468156	0.786098
O161	O	0.940011	-0.583489	0.270017
O162	O	1.440011	-0.083489	0.770017
H163	H	0.894592	-0.626314	0.241242
H164	H	1.394592	-0.126314	0.741242
O165	O	1.122446	-0.089504	-0.482073
O166	O	1.622446	0.410496	0.017927
H167	H	1.121472	-0.089594	-0.551348
H168	H	1.621472	0.410406	-0.051348
H169	H	1.047051	-0.577402	-0.018780
H170	H	1.547051	-0.077402	0.481220
H171	H	1.122863	-0.423474	0.057145
H172	H	1.622863	0.076526	0.557145
H173	H	0.886666	-0.575163	0.030953
H174	H	1.386666	-0.075163	0.530953
O175	O	0.989794	-0.167839	-0.463614
O176	O	1.489794	0.332161	0.036386
H177	H	0.933305	-0.149793	-0.494304
H178	H	1.433305	0.350207	0.005696
O179	O	0.832063	-0.584149	0.158611
O180	O	1.332063	-0.084149	0.658611
H181	H	0.798028	-0.526631	0.189573
H182	H	1.298028	-0.026631	0.689573
H183	H	1.068999	-0.577189	0.220770
H184	H	1.568999	-0.077189	0.720770
H185	H	1.103924	-0.087471	-0.328592
H186	H	1.603924	0.412529	0.171408
H187	H	0.859480	0.060701	-0.440283
H188	H	1.359480	0.560701	0.059717
O189	O	0.832067	-0.415927	0.159874
O190	O	1.332067	0.084073	0.659874
H191	H	0.859030	-0.372773	0.206259
H192	H	1.359030	0.127227	0.706259
O193	O	0.946365	-0.414365	0.272582
O194	O	1.446365	0.085635	0.772582
H195	H	0.949520	-0.340842	0.274616
H196	H	1.449520	0.159158	0.774616
H197	H	1.072906	-0.423984	0.216320
H198	H	1.572906	0.076016	0.716320
O199	O	0.850692	0.079939	-0.287398
O200	O	1.350692	0.579939	0.212602
H201	H	0.826559	0.119214	-0.338237
H202	H	1.326559	0.619214	0.161763
O203	O	0.850402	-0.080218	-0.288156
O204	O	1.350402	0.419782	0.211844
H205	H	0.826254	-0.118898	-0.339378
H206	H	1.326254	0.381102	0.160622
