data_functionalizedCrystal
_audit_creation_method	'MofGen! by Chris Wilmer'
_symmetry_space_group_name_H-M	'P1'
_symmetry_Int_Tables_number	1
_symmetry_cell_setting	triclinic
loop_
_symmetry_equiv_pos_as_xyz
  x,y,z
_cell_length_a	17.077404
_cell_length_b	12.827892
_cell_length_c	17.077396
_cell_angle_alpha	90.025067
_cell_angle_beta	90.018362
_cell_angle_gamma	90.013362
loop_
_atom_site_label
_atom_site_type_symbol
_atom_site_fract_x
_atom_site_fract_y
_atom_site_fract_z
Zn1	Zn	1.200095	-0.416090	0.443837
Zn2	Zn	1.700095	0.083910	0.943837
Zn3	Zn	1.200020	-0.590852	0.312579
Zn4	Zn	1.700020	-0.090852	0.812579
Zn5	Zn	1.068827	-0.416119	0.312588
Zn6	Zn	1.568827	0.083881	0.812588
Zn7	Zn	1.068812	-0.590783	0.443805
Zn8	Zn	1.568812	-0.090783	0.943805
O9	O	1.134439	-0.503461	0.378203
O10	O	1.634439	-0.003461	0.878203
O11	O	1.309932	-0.439289	0.426436
O12	O	1.809932	0.060711	0.926436
O13	O	1.182591	-0.567715	0.202733
O14	O	1.682591	-0.067715	0.702733
O15	O	1.086278	-0.269879	0.330016
O16	O	1.586278	0.230121	0.830016
O17	O	1.309877	-0.567686	0.330001
O18	O	1.809877	-0.067686	0.830001
O19	O	1.182720	-0.269858	0.426444
O20	O	1.682720	0.230142	0.926444
O21	O	1.086205	-0.439339	0.202740
O22	O	1.586205	0.060661	0.702740
O23	O	0.958978	-0.439273	0.329985
O24	O	1.458978	0.060727	0.829985
O25	O	1.086253	-0.567568	0.553657
O26	O	1.586253	-0.067568	1.053657
O27	O	0.958968	-0.567597	0.426389
O28	O	1.458968	-0.067597	0.926389
O29	O	1.182706	-0.439222	0.553680
O30	O	1.682706	0.060778	1.053680
O31	O	1.182577	-0.737079	0.329970
O32	O	1.682577	-0.237079	0.829970
O33	O	1.086179	-0.737028	0.426381
O34	O	1.586179	-0.237028	0.926381
C35	C	0.930491	-0.503431	0.378185
C36	C	1.430491	-0.003431	0.878185
C37	C	0.843241	-0.503444	0.378196
C38	C	1.343241	-0.003444	0.878196
C39	C	0.802281	-0.436706	0.428486
C40	C	1.302281	0.063294	0.928486
C41	C	0.720300	-0.436713	0.428490
C42	C	1.220300	0.063287	0.928490
C43	C	0.679282	-0.503463	0.378207
C44	C	1.179282	-0.003463	0.878207
C45	C	0.720248	-0.570204	0.327911
C46	C	1.220248	-0.070204	0.827911
C47	C	0.802227	-0.570191	0.327904
C48	C	1.302227	-0.070191	0.827904
C49	C	0.549378	-0.570228	0.327930
C50	C	1.049378	-0.070228	0.827930
C51	C	0.467393	-0.570242	0.327938
C52	C	0.967393	-0.070242	0.827938
C53	C	0.467451	-0.436750	0.428516
C54	C	0.967451	0.063250	0.928516
C55	C	0.549430	-0.436737	0.428509
C56	C	1.049430	0.063263	0.928509
C57	C	0.590391	-0.503479	0.378214
C58	C	1.090391	-0.003479	0.878214
C59	C	1.134390	-0.774971	0.378188
C60	C	1.634390	-0.274971	0.878188
C61	C	1.134440	-0.891124	0.378208
C62	C	1.634440	-0.391124	0.878208
C63	C	1.182142	-0.942815	0.425967
C64	C	1.682142	-0.442815	0.925967
C65	C	1.182195	-1.062865	0.425989
C66	C	1.682195	-0.562865	0.925989
C67	C	1.339183	-0.503492	0.378221
C68	C	1.839183	-0.003492	0.878221
C69	C	1.426433	-0.503505	0.378228
C70	C	1.926433	-0.003505	0.878228
C71	C	1.134486	-0.503384	0.582947
C72	C	1.634486	-0.003384	1.082947
C73	C	1.134506	-0.503351	0.670197
C74	C	1.634506	-0.003351	1.170197
C75	C	1.134509	-0.230891	0.378234
C76	C	1.634509	0.269109	0.878234
C77	C	1.134540	-0.114738	0.378248
C78	C	1.634540	0.385262	0.878248
C79	C	1.134437	-0.503462	0.174255
C80	C	1.634437	-0.003462	0.674255
C81	C	1.134568	-0.503201	0.087005
C82	C	1.634568	-0.003201	0.587005
C83	C	1.184731	-0.436516	0.711200
C84	C	1.684731	0.063484	1.211200
C85	C	1.184741	-0.436481	0.793181
C86	C	1.684741	0.063519	1.293181
C87	C	1.134529	-0.503288	0.834156
C88	C	1.634529	-0.003288	1.334156
C89	C	1.084298	-0.570126	0.793147
C90	C	1.584298	-0.070126	1.293147
C91	C	1.084285	-0.570155	0.711168
C92	C	1.584285	-0.070155	1.211168
C93	C	1.084330	-0.570063	0.964017
C94	C	1.584330	-0.070063	1.464017
C95	C	1.084344	-0.570036	1.046002
C96	C	1.584344	-0.070036	1.546002
C97	C	1.184785	-0.436389	1.046030
C98	C	1.684785	0.063611	1.546030
C99	C	1.184772	-0.436418	0.964051
C100	C	1.684772	0.063582	1.464051
C101	C	1.134543	-0.503258	0.923047
C102	C	1.634543	-0.003258	1.423047
H103	H	0.582825	-0.382389	0.469459
H104	H	1.082825	0.117611	0.969459
O105	O	1.238892	-0.364464	0.667005
O106	O	1.738892	0.135536	1.167005
H107	H	1.225450	-0.282439	0.682741
H108	H	1.725450	0.217561	1.182741
H109	H	1.093638	-0.935747	0.337340
H110	H	1.593638	-0.435747	0.837340
O111	O	1.080442	-1.055864	0.324082
O112	O	1.580442	-0.555864	0.824082
H113	H	1.093942	-1.076789	0.262476
H114	H	1.593942	-0.576789	0.762476
O115	O	1.238916	-0.364401	0.837410
O116	O	1.738916	0.135599	1.337410
H117	H	1.273838	-0.317962	0.795144
H118	H	1.773838	0.182038	1.295144
H119	H	0.434097	-0.382404	0.469467
H120	H	0.934097	0.117596	0.969467
O121	O	1.238932	-0.364370	0.919851
O122	O	1.738932	0.135630	1.419851
H123	H	1.273858	-0.317881	0.962134
H124	H	1.773858	0.182119	1.462134
O125	O	1.030150	-0.642146	0.919787
O126	O	1.530150	-0.142146	1.419787
H127	H	0.995240	-0.688603	0.962050
H128	H	1.495240	-0.188603	1.462050
H129	H	1.043412	-0.624518	0.826516
H130	H	1.543412	-0.124518	1.326516
H131	H	1.225683	-0.381964	1.079419
H132	H	1.725683	0.118036	1.579419
H133	H	1.043379	-0.624569	0.677784
H134	H	1.543379	-0.124569	1.177784
H135	H	0.835672	-0.382353	0.469435
H136	H	1.335672	0.117647	0.969435
H137	H	0.686954	-0.382371	0.469443
H138	H	1.186954	0.117629	0.969443
H139	H	1.043455	-0.624434	1.079362
H140	H	1.543455	-0.124434	1.579362
H141	H	0.433998	-0.624597	0.286994
H142	H	0.933998	-0.124597	0.786994
H143	H	0.582725	-0.624574	0.286973
H144	H	1.082725	-0.124574	0.786973
H145	H	0.686844	-0.624548	0.286966
H146	H	1.186844	-0.124548	0.786966
H147	H	1.222939	-0.898195	0.466842
H148	H	1.722939	-0.398195	0.966842
O149	O	0.846412	-0.642173	0.273664
O150	O	1.346412	-0.142173	0.773664
H151	H	0.804118	-0.688598	0.238704
H152	H	1.304118	-0.188598	0.738704
H153	H	1.223037	-1.107318	0.466874
H154	H	1.723037	-0.607318	0.966874
