data_functionalizedCrystal
_audit_creation_method	'MofGen! by Chris Wilmer'
_symmetry_space_group_name_H-M	'P1'
_symmetry_Int_Tables_number	1
_symmetry_cell_setting	triclinic
loop_
_symmetry_equiv_pos_as_xyz
  x,y,z
_cell_length_a	16.120530
_cell_length_b	16.120484
_cell_length_c	16.120728
_cell_angle_alpha	84.367400
_cell_angle_beta	89.860094
_cell_angle_gamma	90.167327
loop_
_atom_site_label
_atom_site_type_symbol
_atom_site_fract_x
_atom_site_fract_y
_atom_site_fract_z
Zn1	Zn	1.224873	-0.422442	0.554816
Zn2	Zn	1.224796	-0.555083	0.422120
Zn3	Zn	1.093642	-0.408310	0.408058
Zn4	Zn	1.078766	-0.554358	0.554054
O5	O	1.155519	-0.485048	0.484762
O6	O	1.340897	-0.446254	0.543418
O7	O	1.213591	-0.530003	0.303622
O8	O	1.117308	-0.293553	0.421960
O9	O	1.340840	-0.543706	0.445927
O10	O	1.213723	-0.303935	0.529782
O11	O	1.117234	-0.422170	0.293290
O12	O	0.975634	-0.421466	0.421220
O13	O	1.091953	-0.542469	0.670788
O14	O	0.964704	-0.528767	0.528483
O15	O	1.199298	-0.445551	0.671348
O16	O	1.199166	-0.671619	0.445188
O17	O	1.091879	-0.671086	0.542118
C18	C	0.940083	-0.473505	0.473243
C19	C	0.847916	-0.468588	0.468336
C20	C	1.143921	-0.701596	0.495115
C21	C	1.139034	-0.794242	0.499577
C22	C	0.679167	-0.459591	0.459384
C23	C	0.632705	-0.510570	0.510204
C24	C	0.538807	-0.505564	0.505223
C25	C	0.773073	-0.464596	0.464364
C26	C	1.130115	-0.963868	0.507739
C27	C	1.181071	-1.005397	0.461807
C28	C	1.176108	-1.099782	0.466348
C29	C	1.135076	-0.869474	0.503198
C30	C	1.371796	-0.496637	0.496326
C31	C	1.463961	-0.501576	0.501254
C32	C	1.143975	-0.495505	0.702155
C33	C	1.139055	-0.499962	0.794795
C34	C	1.167184	-0.267657	0.474387
C35	C	1.172154	-0.175017	0.469967
C36	C	1.130044	-0.508077	0.964408
C37	C	1.180964	-0.462098	1.005970
C38	C	1.175950	-0.466613	1.100348
C39	C	1.135057	-0.503563	0.870021
C40	C	1.167018	-0.474654	1.268215
C41	C	1.171956	-0.470211	1.175577
H42	H	0.663448	-0.557972	0.557455
H43	H	1.082688	-0.550831	0.999703
H44	H	1.082767	-0.999197	0.550470
C45	C	0.637642	-0.395561	0.395548
C46	C	0.542376	-0.390590	0.390593
C47	C	0.500839	-0.326564	0.326756
C48	C	0.554570	-0.267508	0.267874
C49	C	0.649842	-0.272476	0.272826
C50	C	0.691379	-0.336502	0.336664
H51	H	0.502596	-0.434309	0.434184
H52	H	0.430312	-0.322887	0.323090
H53	H	0.523823	-0.220111	0.220618
H54	H	0.689622	-0.228757	0.229236
H55	H	0.761906	-0.340180	0.340329
C56	C	1.245034	-0.957670	0.404066
C57	C	1.338323	-0.974818	0.416528
C58	C	1.402281	-0.927086	0.358788
C59	C	1.372950	-0.862206	0.288586
C60	C	1.279656	-0.845055	0.276121
C61	C	1.215698	-0.892787	0.333861
H62	H	1.360040	-1.022848	0.468499
H63	H	1.471343	-0.939782	0.368016
H64	H	1.420295	-0.826872	0.245843
H65	H	1.257939	-0.797025	0.224150
H66	H	1.146636	-0.880091	0.324633
H67	H	1.228324	-0.419341	0.970673
