data_functionalizedCrystal
_audit_creation_method	'MofGen! by Chris Wilmer'
_symmetry_space_group_name_H-M	'P1'
_symmetry_Int_Tables_number	1
_symmetry_cell_setting	triclinic
loop_
_symmetry_equiv_pos_as_xyz
  x,y,z
_cell_length_a	10.540539
_cell_length_b	11.026607
_cell_length_c	9.482900
_cell_angle_alpha	78.636152
_cell_angle_beta	80.569012
_cell_angle_gamma	83.444246
loop_
_atom_site_label
_atom_site_type_symbol
_atom_site_fract_x
_atom_site_fract_y
_atom_site_fract_z
O1	O	0.517017	-1.633556	0.120883
O2	O	0.456370	-1.279725	0.120886
O3	O	0.303756	-1.464712	0.120883
O4	O	0.669632	-1.448568	0.120886
O5	O	0.334914	-1.427139	-0.120909
O6	O	0.487529	-1.242151	-0.120905
O7	O	0.548176	-1.595982	-0.120909
Cu8	Cu	0.520697	-1.415636	-0.142985
Cu9	Cu	0.483849	-1.460071	0.142962
O10	O	0.700790	-1.410994	-0.120905
C11	C	0.460761	-1.215630	-0.000009
C12	C	0.427408	-1.080627	-0.000008
C13	C	0.271766	-1.444715	-0.000011
C14	C	0.130024	-1.441094	-0.000003
C15	C	0.543785	-1.660077	-0.000010
C16	C	0.577136	-1.795082	-0.000002
C17	C	-0.083877	-1.302374	0.000541
C18	C	0.063616	-1.305961	-0.000003
C19	C	0.100404	-1.484669	-0.138078
C20	C	-0.047136	-1.480039	-0.138195
C21	C	-0.082485	-1.525516	0.136768
C22	C	0.064534	-1.527044	0.138593
C23	C	0.732779	-1.430992	-0.000009
C24	C	0.874520	-1.434615	-0.000007
N25	N	0.546616	-1.384391	-0.344104
C26	C	0.519500	-1.007620	-0.000006
C27	C	0.485031	-0.868087	-0.000004
C28	C	0.491485	-1.450847	-0.416305
C29	C	0.513061	-1.424860	-0.583722
N30	N	0.457922	-1.491325	0.344082
H31	H	0.082256	-1.270172	0.098975
H32	H	0.623863	-1.048415	-0.000013
Cl33	Cl	0.092082	-1.478705	0.296323
Cl34	Cl	0.323893	-0.805116	-0.000016
H35	H	0.145156	-1.583109	-0.143213
H36	H	0.609784	-1.308252	-0.406233
Cl37	Cl	0.360710	-1.609142	-0.560017
H38	H	-0.136929	-1.264380	0.099558
H39	H	0.681507	-0.835869	-0.000011
Cl40	Cl	0.133592	-1.681158	0.151476
H41	H	0.576233	-1.348716	-0.645845
H42	H	-0.108451	-1.623266	0.137695
H43	H	0.323041	-1.039837	0.000029
H44	H	-0.113041	-1.233910	-0.097919
H45	H	0.106861	-1.239026	-0.099145
H46	H	0.428305	-1.526977	-0.354178
H47	H	-0.137104	-1.498043	0.241420
Cl48	Cl	-0.086399	-1.381067	-0.297542
Cl49	Cl	-0.087087	-1.628574	-0.147888
H50	H	0.146349	-1.423527	-0.240829
