data_functionalizedCrystal
_audit_creation_method	'MofGen! by Chris Wilmer'
_symmetry_space_group_name_H-M	'P1'
_symmetry_Int_Tables_number	1
_symmetry_cell_setting	triclinic
loop_
_symmetry_equiv_pos_as_xyz
  x,y,z
_cell_length_a	23.532356
_cell_length_b	23.532361
_cell_length_c	13.448316
_cell_angle_alpha	89.997511
_cell_angle_beta	89.998461
_cell_angle_gamma	97.171287
loop_
_atom_site_label
_atom_site_type_symbol
_atom_site_fract_x
_atom_site_fract_y
_atom_site_fract_z
O1	O	-0.069012	0.755266	-0.082575
O2	O	0.430988	1.255266	0.417425
O3	O	-0.079043	0.589397	-0.082597
O4	O	0.420957	1.089397	0.417403
O5	O	0.008907	0.677348	-0.082599
O6	O	0.508907	1.177348	0.417401
O7	O	-0.156962	0.667314	-0.082572
O8	O	0.343038	1.167314	0.417428
O9	O	0.008913	0.677337	0.082785
O10	O	0.508913	1.177337	0.582785
O11	O	-0.079037	0.589386	0.082787
O12	O	0.420963	1.089386	0.582787
O13	O	-0.069006	0.755255	0.082809
O14	O	0.430994	1.255255	0.582809
Cu15	Cu	-0.074021	0.672319	0.097899
Cu16	Cu	0.425979	1.172319	0.597899
Cu17	Cu	-0.074028	0.672332	-0.097687
Cu18	Cu	0.425972	1.172332	0.402313
O19	O	-0.156956	0.667303	0.082811
O20	O	0.343044	1.167303	0.582811
C21	C	-0.078789	0.568175	0.000092
C22	C	0.421211	1.068175	0.500092
C23	C	-0.078034	0.504956	0.000083
C24	C	0.421966	1.004956	0.500083
C25	C	-0.074733	0.231719	-0.090062
C26	C	0.425267	0.731719	0.409938
C27	C	-0.075448	0.291119	-0.090064
C28	C	0.424552	0.791119	0.409936
O29	O	-0.075800	0.321850	-0.166732
O30	O	0.424200	0.821850	0.333268
N31	N	-0.075806	0.320819	0.000087
N32	N	0.424194	0.820819	0.500087
C33	C	-0.075444	0.291116	0.090246
C34	C	0.424556	0.791116	0.590246
O35	O	-0.075814	0.321832	0.166926
O36	O	0.424186	0.821832	0.666926
C37	C	-0.074725	0.231718	0.090247
C38	C	0.425275	0.731718	0.590247
C39	C	-0.074372	0.202021	0.000090
C40	C	0.425628	0.702021	0.500090
C41	C	-0.074380	0.202022	-0.180212
C42	C	0.425620	0.702022	0.319788
C43	C	-0.073666	0.142626	-0.180209
C44	C	0.426334	0.642626	0.319791
C45	C	-0.073305	0.112928	-0.090057
C46	C	0.426695	0.612928	0.409943
C47	C	-0.073658	0.142625	0.000093
C48	C	0.426342	0.642625	0.500093
C49	C	-0.074358	0.202018	0.180406
C50	C	0.425642	0.702018	0.680406
C51	C	-0.073638	0.142616	0.180399
C52	C	0.426362	0.642616	0.680399
C53	C	-0.073286	0.112918	0.090242
C54	C	0.426714	0.612918	0.590242
C55	C	-0.072584	0.053531	0.090248
C56	C	0.427416	0.553531	0.590248
N57	N	-0.072226	0.023832	0.000097
N58	N	0.427774	0.523832	0.500097
C59	C	-0.072586	0.053530	-0.090055
C60	C	0.427414	0.553530	0.409945
C61	C	-0.076953	0.415856	0.090236
C62	C	0.423047	0.915856	0.590236
C63	C	-0.077676	0.475252	0.090236
C64	C	0.422324	0.975252	0.590236
C65	C	-0.077679	0.475251	-0.090075
C66	C	0.422321	0.975251	0.409925
C67	C	-0.076960	0.415853	-0.090073
C68	C	0.423040	0.915853	0.409927
C69	C	-0.076594	0.386157	0.000085
C70	C	0.423406	0.886157	0.500085
C71	C	-0.071088	-0.071205	-0.090043
C72	C	0.428912	0.428795	0.409957
C73	C	-0.070376	-0.130607	-0.090032
C74	C	0.429624	0.369393	0.409968
C75	C	-0.070370	-0.130600	0.090278
C76	C	0.429630	0.369400	0.590278
C77	C	-0.071085	-0.071204	0.090268
C78	C	0.428915	0.428796	0.590268
C79	C	-0.071441	-0.041508	0.000099
C80	C	0.428559	0.458492	0.500099
O81	O	-0.072228	0.022763	0.166877
O82	O	0.427772	0.522763	0.666877
O83	O	-0.072209	0.022808	-0.166723
O84	O	0.427791	0.522808	0.333277
C85	C	-0.178176	0.667560	0.000123
C86	C	0.321824	1.167560	0.500123
C87	C	-0.241394	0.668314	0.000134
C88	C	0.258606	1.168314	0.500134
C89	C	-0.633410	0.673058	-0.090065
C90	C	-0.133410	1.173058	0.409935
C91	C	-0.692809	0.673775	-0.090069
C92	C	-0.192809	1.173775	0.409931
O93	O	-0.723530	0.674170	-0.166738
O94	O	-0.223530	1.174170	0.333262
N95	N	-0.722515	0.674125	0.000081
N96	N	-0.222515	1.174125	0.500081
C97	C	-0.692817	0.673763	0.090241
C98	C	-0.192817	1.173763	0.590241
O99	O	-0.723538	0.674127	0.166920
O100	O	-0.223538	1.174127	0.666920
C101	C	-0.633419	0.673050	0.090245
C102	C	-0.133419	1.173050	0.590245
C103	C	-0.603717	0.672694	0.000089
C104	C	-0.103717	1.172694	0.500089
C105	C	-0.603708	0.672703	-0.180213
C106	C	-0.103708	1.172703	0.319787
C107	C	-0.544313	0.671984	-0.180208
C108	C	-0.044313	1.171984	0.319792
C109	C	-0.514620	0.671621	-0.090054
C110	C	-0.014620	1.171621	0.409946
C111	C	-0.544322	0.671976	0.000094
C112	C	-0.044322	1.171976	0.500094
C113	C	-0.603721	0.672692	0.180404
C114	C	-0.103721	1.172692	0.680404
C115	C	-0.544319	0.671979	0.180400
C116	C	-0.044319	1.171979	0.680400
C117	C	-0.514617	0.671623	0.090245
C118	C	-0.014617	1.171623	0.590245
C119	C	-0.455234	0.670894	0.090253
C120	C	0.044766	1.170894	0.590253
N121	N	-0.425528	0.670544	0.000103
N122	N	0.074472	1.170544	0.500103
C123	C	-0.455221	0.670907	-0.090051
C124	C	0.044779	1.170907	0.409949
C125	C	-0.817559	0.675262	0.090227
C126	C	-0.317559	1.175262	0.590227
C127	C	-0.876957	0.675971	0.090224
C128	C	-0.376957	1.175971	0.590224
C129	C	-0.876945	0.675984	-0.090087
C130	C	-0.376945	1.175984	0.409913
C131	C	-0.817546	0.675271	-0.090083
C132	C	-0.317546	1.175271	0.409917
C133	C	-0.787853	0.674912	0.000077
C134	C	-0.287853	1.174912	0.500077
C135	C	-0.330487	0.669398	-0.090033
C136	C	0.169513	1.169398	0.409967
C137	C	-0.271087	0.668677	-0.090020
C138	C	0.228913	1.168677	0.409980
C139	C	-0.271104	0.668667	0.090290
C140	C	0.228896	1.168667	0.590290
C141	C	-0.330500	0.669385	0.090278
C142	C	0.169500	1.169385	0.590278
C143	C	-0.360189	0.669752	0.000108
C144	C	0.139811	1.169752	0.500108
O145	O	-0.424475	0.670500	0.166883
O146	O	0.075525	1.170500	0.666883
O147	O	-0.424492	0.670551	-0.166717
O148	O	0.075508	1.170551	0.333283
C149	C	0.030127	0.677092	0.000087
C150	C	0.530127	1.177092	0.500087
C151	C	0.093345	0.676338	0.000070
C152	C	0.593345	1.176338	0.500070
C153	C	-0.069260	0.776477	0.000118
C154	C	0.430740	1.276477	0.500118
C155	C	-0.070015	0.839695	0.000120
C156	C	0.429985	1.339695	0.500120
N157	N	-0.074017	0.672314	0.235463
N158	N	0.425983	1.172314	0.735463
N159	N	-0.074028	0.672342	-0.235251
N160	N	0.425972	1.172342	0.264749
C161	C	-0.035088	0.711271	0.287502
C162	C	0.464912	1.211271	0.787502
C163	C	-0.035088	0.711275	0.391605
C164	C	0.464912	1.211275	0.891605
C165	C	-0.074019	0.672324	0.443668
C166	C	0.425981	1.172324	0.943668
C167	C	-0.112949	0.633363	0.391621
C168	C	0.387051	1.133363	0.891621
C169	C	-0.112946	0.633357	0.287520
C170	C	0.387054	1.133357	0.787520
C171	C	-0.112953	0.633379	0.608601
C172	C	0.387047	1.133379	1.108601
C173	C	-0.112956	0.633385	0.712710
C174	C	0.387044	1.133385	1.212710
C175	C	-0.035094	0.711296	0.712687
C176	C	0.464906	1.211296	1.212687
C177	C	-0.035091	0.711291	0.608586
C178	C	0.464909	1.211291	1.108586
C179	C	-0.074023	0.672330	0.556546
C180	C	0.425977	1.172330	1.056546
H181	H	-0.070091	-0.154784	-0.163452
H182	H	0.429909	0.345216	0.336548
C183	C	0.007733	0.754151	0.769932
C184	C	0.507733	1.254151	1.269932
N185	N	0.039988	0.786429	0.813054
N186	N	0.539988	1.286429	1.313054
H187	H	-0.003389	0.742996	0.433975
H188	H	0.496611	1.242996	0.933975
C189	C	-0.155774	0.590514	0.551361
C190	C	0.344226	1.090514	1.051361
N191	N	-0.188026	0.558229	0.508247
N192	N	0.311974	1.058229	1.008247
C193	C	-0.069971	-0.163279	0.189441
C194	C	0.430029	0.336721	0.689441
N195	N	-0.069666	-0.187894	0.264131
N196	N	0.430334	0.312106	0.764131
C197	C	-0.155779	0.590534	0.769976
C198	C	0.344221	1.090534	1.269976
N199	N	-0.188034	0.558256	0.813109
N200	N	0.311966	1.058256	1.313109
C201	C	-0.071484	-0.038549	-0.189233
C202	C	0.428516	0.461451	0.310767
N203	N	-0.071786	-0.013953	-0.263943
N204	N	0.428214	0.486047	0.236057
C205	C	-0.076564	0.383193	0.189425
C206	C	0.423436	0.883193	0.689425
N207	N	-0.076273	0.358594	0.264133
N208	N	0.423727	0.858594	0.764133
C209	C	-0.073240	0.109953	0.279584
C210	C	0.426760	0.609953	0.779584
N211	N	-0.072942	0.085352	0.354289
N212	N	0.427058	0.585352	0.854289
C213	C	0.007735	0.754139	0.551319
C214	C	0.507735	1.254139	1.051319
N215	N	0.039994	0.786411	0.508186
N216	N	0.539994	1.286411	1.008186
H217	H	-0.077972	0.499442	-0.163482
H218	H	0.422028	0.999442	0.336518
H219	H	-0.246907	0.668386	-0.163439
H220	H	0.253093	1.168386	0.336561
C221	C	-0.511661	0.671582	0.279586
C222	C	-0.011661	1.171582	0.779586
N223	N	-0.487064	0.671280	0.354293
N224	N	0.012936	1.171280	0.854293
H225	H	-0.074672	0.226196	-0.253629
H226	H	0.425328	0.726196	0.246371
C227	C	-0.155775	0.590506	0.230277
C228	C	0.344225	1.090506	0.730277
N229	N	-0.188036	0.558229	0.187164
N230	N	0.311964	1.058229	0.687164
H231	H	-0.354654	0.669698	-0.163458
H232	H	0.145346	1.169698	0.336542
H233	H	-0.073377	0.118452	-0.253624
H234	H	0.426623	0.618452	0.246376
H235	H	-0.144646	0.601645	0.434016
H236	H	0.355354	1.101645	0.934016
H237	H	-0.627878	0.673001	-0.253631
H238	H	-0.127878	1.173001	0.246369
C239	C	-0.076566	0.383193	-0.189252
C240	C	0.423434	0.883193	0.310748
N241	N	-0.076267	0.358596	-0.263958
N242	N	0.423733	0.858596	0.236042
H243	H	-0.077972	0.499426	0.163651
H244	H	0.422028	0.999426	0.663651
C245	C	-0.784903	0.674856	0.189416
C246	C	-0.284903	1.174856	0.689416
N247	N	-0.760310	0.674550	0.264126
N248	N	-0.260310	1.174550	0.764126
C249	C	0.007740	0.754121	0.230243
C250	C	0.507740	1.254121	0.730243
N251	N	0.040002	0.786395	0.187119
N252	N	0.540002	1.286395	0.687119
C253	C	-0.363173	0.669773	0.189453
C254	C	0.136827	1.169773	0.689453
N255	N	-0.387777	0.670072	0.264154
N256	N	0.112223	1.170072	0.764154
H257	H	-0.074643	0.226187	0.253821
H258	H	0.425357	0.726187	0.753821
C259	C	-0.071477	-0.038537	0.189445
C260	C	0.428523	0.461463	0.689445
N261	N	-0.071766	-0.013935	0.264147
N262	N	0.428234	0.486065	0.764147
H263	H	-0.627894	0.672987	0.253819
H264	H	-0.127894	1.172987	0.753819
H265	H	-0.520135	0.671699	-0.253622
H266	H	-0.020135	1.171699	0.246378
C267	C	-0.784878	0.674893	-0.189261
C268	C	-0.284878	1.174893	0.310739
N269	N	-0.760274	0.674613	-0.263966
N270	N	-0.260274	1.174613	0.236034
H271	H	-0.901136	0.676250	0.163638
H272	H	-0.401136	1.176250	0.663638
C273	C	-0.909618	0.676390	-0.189259
C274	C	-0.409618	1.176390	0.310741
N275	N	-0.934229	0.676696	-0.263950
N276	N	-0.434229	1.176696	0.236050
C277	C	-0.238431	0.668265	0.189455
C278	C	0.261569	1.168265	0.689455
N279	N	-0.213819	0.667966	0.264146
N280	N	0.286181	1.167966	0.764146
