data_functionalizedCrystal
_audit_creation_method	'MofGen! by Chris Wilmer'
_symmetry_space_group_name_H-M	'P1'
_symmetry_Int_Tables_number	1
_symmetry_cell_setting	triclinic
loop_
_symmetry_equiv_pos_as_xyz
  x,y,z
_cell_length_a	19.805407
_cell_length_b	16.120484
_cell_length_c	19.805398
_cell_angle_alpha	87.130307
_cell_angle_beta	90.013121
_cell_angle_gamma	92.925608
loop_
_atom_site_label
_atom_site_type_symbol
_atom_site_fract_x
_atom_site_fract_y
_atom_site_fract_z
Zn1	Zn	1.021031	-0.331919	0.396377
Zn2	Zn	1.521031	0.168081	0.896377
Zn3	Zn	1.015220	-0.471340	0.288925
Zn4	Zn	1.515220	0.028660	0.788925
Zn5	Zn	0.907857	-0.331944	0.283202
Zn6	Zn	1.407857	0.168056	0.783202
Zn7	Zn	0.902073	-0.471293	0.402070
Zn8	Zn	1.402073	0.028707	0.902070
O9	O	0.961545	-0.401624	0.342643
O10	O	1.461545	0.098376	0.842643
O11	O	1.114976	-0.350422	0.382135
O12	O	1.614976	0.149578	0.882135
O13	O	1.000967	-0.452879	0.193451
O14	O	1.500967	0.047121	0.693451
O15	O	0.927723	-0.215275	0.293438
O16	O	1.427723	0.284725	0.793438
O17	O	1.110707	-0.452854	0.303191
O18	O	1.610707	0.047146	0.803191
O19	O	1.010871	-0.215256	0.376586
O20	O	1.510871	0.284744	0.876586
O21	O	0.922088	-0.350466	0.189246
O22	O	1.422088	0.149534	0.689246
O23	O	0.812374	-0.350420	0.298958
O24	O	1.312374	0.149580	0.798958
O25	O	0.917864	-0.452774	0.496030
O26	O	1.417864	0.047226	0.996030
O27	O	0.808124	-0.452799	0.386289
O28	O	1.308124	0.047201	0.886289
O29	O	1.005262	-0.350377	0.491847
O30	O	1.505262	0.149623	0.991847
O31	O	0.995358	-0.587999	0.308711
O32	O	1.495358	-0.087999	0.808711
O33	O	0.912229	-0.587965	0.391838
O34	O	1.412229	-0.087965	0.891838
C35	C	0.785690	-0.401608	0.342621
C36	C	1.285690	0.098392	0.842621
C37	C	0.710457	-0.401621	0.342628
C38	C	1.210457	0.098379	0.842628
C39	C	0.672915	-0.455010	0.388035
C40	C	1.172915	0.044990	0.888035
C41	C	0.602226	-0.455011	0.388044
C42	C	1.102226	0.044989	0.888044
C43	C	0.569081	-0.401628	0.342644
C44	C	1.069081	0.098372	0.842644
C45	C	0.606629	-0.348233	0.297235
C46	C	1.106629	0.151767	0.797235
C47	C	0.677317	-0.348228	0.297229
C48	C	1.177317	0.151772	0.797229
C49	C	0.321555	-0.348251	0.297258
C50	C	0.821555	0.151749	0.797258
C51	C	0.250863	-0.348262	0.297266
C52	C	0.750863	0.151738	0.797266
C53	C	0.246465	-0.455035	0.388073
C54	C	0.746465	0.044965	0.888073
C55	C	0.317152	-0.455030	0.388068
C56	C	0.817152	0.044970	0.888068
C57	C	0.354694	-0.401632	0.342661
C58	C	0.854694	0.098368	0.842661
C59	C	0.431342	-0.401630	0.342652
C60	C	0.931342	0.098370	0.842652
C61	C	0.492434	-0.401633	0.342649
C62	C	0.992434	0.098367	0.842649
C63	C	0.952554	-0.618232	0.351529
C64	C	1.452554	-0.118232	0.851529
C65	C	0.948769	-0.710898	0.355352
C66	C	1.448769	-0.210898	0.855352
C67	C	0.941863	-0.880560	0.362347
C68	C	1.441863	-0.380560	0.862347
C69	C	0.981349	-0.921847	0.322951
C70	C	1.481349	-0.421847	0.822951
C71	C	0.977506	-1.016253	0.326843
C72	C	1.477506	-0.516253	0.826843
C73	C	0.945704	-0.786146	0.358456
C74	C	1.445704	-0.286146	0.858456
C75	C	1.138087	-0.401640	0.342666
C76	C	1.638087	0.098360	0.842666
C77	C	1.213319	-0.401648	0.342676
C78	C	1.713319	0.098352	0.842676
C79	C	0.961566	-0.401567	0.519184
C80	C	1.461566	0.098433	1.019184
C81	C	0.961574	-0.401543	0.594415
C82	C	1.461574	0.098457	1.094415
C83	C	0.970590	-0.184170	0.333739
C84	C	1.470590	0.315830	0.833739
C85	C	0.974445	-0.091503	0.329944
C86	C	1.474445	0.408497	0.829944
C87	C	0.961566	-0.401620	0.166787
C88	C	1.461566	0.098380	0.666787
C89	C	0.961698	-0.401409	0.091547
C90	C	1.461698	0.098591	0.591547
C91	C	1.002759	-0.454737	1.058388
C92	C	1.502759	0.045263	1.558388
C93	C	1.002739	-0.454760	0.987700
C94	C	1.502739	0.045240	1.487700
C95	C	0.961662	-0.401449	0.950173
C96	C	1.461662	0.098551	1.450173
C97	C	0.920597	-0.348119	0.983337
C98	C	1.420597	0.151881	1.483337
C99	C	0.920614	-0.348101	1.054024
C100	C	1.420614	0.151899	1.554024
C101	C	0.920529	-0.348190	0.698267
C102	C	1.420529	0.151810	1.198267
C103	C	0.920517	-0.348210	0.627576
C104	C	1.420517	0.151790	1.127576
C105	C	1.002654	-0.454849	0.631943
C106	C	1.502654	0.045151	1.131943
C107	C	1.002671	-0.454831	0.702630
C108	C	1.502671	0.045169	1.202630
C109	C	0.961604	-0.401504	0.735788
C110	C	1.461604	0.098496	1.235788
C111	C	0.961624	-0.401481	0.812435
C112	C	1.461624	0.098519	1.312435
C113	C	0.961645	-0.401467	0.873527
C114	C	1.461645	0.098533	1.373527
H115	H	0.223879	-0.304786	0.260295
H116	H	0.723879	0.195214	0.760295
Cl117	Cl	0.868869	-0.281187	0.739944
Cl118	Cl	1.368869	0.218813	1.239944
H119	H	0.352113	-0.304778	0.260280
H120	H	0.852113	0.195222	0.760280
Cl121	Cl	1.054313	-0.521852	0.749803
Cl122	Cl	1.554313	-0.021852	1.249803
H123	H	1.018039	-0.886293	0.286299
H124	H	1.518039	-0.386293	0.786299
H125	H	0.905174	-0.916112	0.398995
H126	H	1.405174	-0.416112	0.898995
H127	H	1.036212	-0.498145	1.088937
H128	H	1.536212	0.001855	1.588937
H129	H	1.036166	-0.498195	0.960705
H130	H	1.536166	0.001805	1.460705
Cl131	Cl	0.564962	-0.281116	0.240163
Cl132	Cl	1.064962	0.218884	0.740163
Cl133	Cl	1.054281	-0.521893	0.590254
Cl134	Cl	1.554281	-0.021893	1.090254
H135	H	0.571662	-0.498487	0.425019
H136	H	1.071662	0.001513	0.925019
Cl137	Cl	0.868997	-0.281052	1.095710
Cl138	Cl	1.368997	0.218948	1.595710
Cl139	Cl	0.868967	-0.281088	0.936160
Cl140	Cl	1.368967	0.218912	1.436160
Cl141	Cl	0.714575	-0.522129	0.445111
Cl142	Cl	1.214575	-0.022129	0.945111
H143	H	0.887065	-0.304796	0.597023
H144	H	1.387065	0.195204	1.097023
H145	H	0.344135	-0.498503	0.425036
H146	H	0.844135	0.001497	0.925036
Cl147	Cl	0.724514	-0.281105	0.240145
Cl148	Cl	1.224514	0.218895	0.740145
Cl149	Cl	0.199265	-0.522164	0.445157
Cl150	Cl	0.699265	-0.022164	0.945157
