data_functionalizedCrystal
_audit_creation_method	'MofGen! by Chris Wilmer'
_symmetry_space_group_name_H-M	'P1'
_symmetry_Int_Tables_number	1
_symmetry_cell_setting	triclinic
loop_
_symmetry_equiv_pos_as_xyz
  x,y,z
_cell_length_a	6.817900
_cell_length_b	11.168121
_cell_length_c	10.992410
_cell_angle_alpha	91.928971
_cell_angle_beta	108.764651
_cell_angle_gamma	108.508496
loop_
_atom_site_label
_atom_site_type_symbol
_atom_site_fract_x
_atom_site_fract_y
_atom_site_fract_z
V1	V	-4.112913	-0.174705	-0.400604
O2	O	-4.072440	0.008395	-0.392967
O3	O	-4.089180	-0.346410	-0.397874
O4	O	-4.090526	-0.172017	-0.575316
O5	O	-4.071085	-0.167205	-0.214297
V6	V	-4.589974	-0.152804	-0.378319
O7	O	-4.388347	-0.222746	-0.449488
O8	O	-4.764738	-0.104762	-0.329435
O9	O	-4.390501	0.018902	-0.381048
O10	O	-4.747844	-0.335904	-0.385956
O11	O	-4.749199	-0.160304	-0.564625
O12	O	-4.389155	-0.155491	-0.203606
C13	C	-3.939340	-0.388268	-0.391557
C14	C	-4.001396	-0.528639	-0.390491
C15	C	-4.203947	-0.597332	-0.396109
C16	C	-4.268089	-0.742413	-0.395006
C17	C	-3.941055	-0.165811	-0.617900
C18	C	-4.004198	-0.164750	-0.760729
C19	C	-3.871395	-0.155083	-0.955851
C20	C	-3.805832	-0.156709	-0.807368
C21	C	-4.201263	-0.289253	-0.837840
C22	C	-4.265585	-0.288151	-0.986407
C23	C	-4.145193	-0.047070	-0.948360
C24	C	-4.074488	-0.046480	-0.799347
C25	C	-4.203683	0.060753	-0.387361
C26	C	-4.120867	0.201123	-0.388437
C27	C	-4.201968	-0.161701	-0.161015
C28	C	-4.118062	-0.162756	-0.018186
H29	H	-3.947342	-0.739834	-0.383623
N30	N	-4.016986	0.071551	-0.973857
N31	N	-4.017863	0.174496	-0.926171
H32	H	-3.927300	0.258269	-0.944177
N33	N	-3.843428	-0.589611	-0.383419
N34	N	-3.788165	-0.647871	-0.290447
H35	H	-3.676595	-0.690932	-0.285450
H36	H	-4.441600	-0.801461	-0.399801
N37	N	-3.620459	-0.044399	-0.740456
N38	N	-3.538711	0.035735	-0.803351
H39	H	-3.407783	0.115059	-0.756100
N40	N	-4.245244	-0.398029	-1.044493
N41	N	-4.410034	-0.478485	-1.128867
H42	H	-4.395663	-0.556087	-1.169888
H43	H	-3.754880	-0.064945	-0.974675
N44	N	-3.839329	-0.259357	-1.016073
N45	N	-3.997354	-0.339299	-1.104700
H46	H	-3.974717	-0.412946	-1.147236
H47	H	-3.748008	-0.240985	-0.782559
N48	N	-4.361948	-0.536383	-0.403191
N49	N	-4.417228	-0.478131	-0.496167
H50	H	-4.528824	-0.435087	-0.501171
N51	N	-4.493790	-0.301727	-1.039929
N52	N	-4.549082	-0.216477	-1.097369
H53	H	-4.710253	-0.226076	-1.135172
N54	N	-4.389802	-0.302263	-0.801706
N55	N	-4.381010	-0.219724	-0.718517
H56	H	-4.514164	-0.228908	-0.692994
H57	H	-4.154830	-0.377063	-0.812240
N58	N	-3.895651	0.069054	-0.733651
N59	N	-3.717039	0.064407	-0.658649
H60	H	-3.590731	0.146001	-0.612238
H61	H	-4.216612	-0.045018	-0.766835
N62	N	-4.369674	-0.052740	-0.999623
N63	N	-4.456456	-0.049159	-1.117767
H64	H	-4.614997	-0.053171	-1.153981
