data_functionalizedCrystal
_audit_creation_method	'MofGen! by Chris Wilmer'
_symmetry_space_group_name_H-M	'P1'
_symmetry_Int_Tables_number	1
_symmetry_cell_setting	triclinic
loop_
_symmetry_equiv_pos_as_xyz
  x,y,z
_cell_length_a	10.540539
_cell_length_b	19.188930
_cell_length_c	9.016244
_cell_angle_alpha	89.992636
_cell_angle_beta	89.994699
_cell_angle_gamma	83.835137
loop_
_atom_site_label
_atom_site_type_symbol
_atom_site_fract_x
_atom_site_fract_y
_atom_site_fract_z
O1	O	1.683725	0.098388	-0.123289
O2	O	1.314108	0.107659	-0.123309
O3	O	1.509583	0.001439	-0.123270
O4	O	1.488250	0.204608	-0.123329
O5	O	1.509554	0.001441	0.123411
O6	O	1.314079	0.107661	0.123372
O7	O	1.683697	0.098391	0.123392
Cu8	Cu	1.498885	0.103026	0.145905
Cu9	Cu	1.498919	0.103023	-0.145823
O10	O	1.488222	0.204611	0.123352
C11	C	1.266806	0.106965	0.000029
C12	C	1.125904	0.104885	0.000023
C13	C	0.944233	0.025184	0.000622
C14	C	1.090805	0.027292	0.000050
C15	C	1.063424	0.142224	-0.140849
C16	C	0.916938	0.139576	-0.140951
C17	C	0.916383	0.141157	0.139570
C18	C	1.063349	0.141872	0.141417
C19	C	1.508878	-0.024575	0.000075
C20	C	1.506804	-0.102094	0.000088
C21	C	1.621502	-0.146253	0.000101
C22	C	1.619554	-0.219090	0.000077
C23	C	1.502901	-0.247764	0.000070
C24	C	1.388187	-0.203595	0.000048
C25	C	1.390139	-0.130760	0.000057
N26	N	1.413724	-0.356363	0.084015
N27	N	1.411878	-0.425553	0.084010
C28	C	1.497014	-0.467212	0.000039
N29	N	1.584085	-0.437067	-0.083907
N30	N	1.585935	-0.367870	-0.083895
C31	C	1.500772	-0.326741	0.000059
C32	C	1.609608	-0.590350	0.000025
C33	C	1.607655	-0.663188	-0.000008
C34	C	1.376285	-0.647691	-0.000023
C35	C	1.378241	-0.574855	-0.000004
C36	C	1.494906	-0.546189	0.000026
C37	C	1.730998	0.099085	0.000050
C38	C	1.871901	0.101165	0.000047
C39	C	1.488927	0.230625	0.000004
C40	C	1.491000	0.308143	-0.000018
N41	N	1.498871	0.103028	0.351092
N42	N	1.498944	0.103016	-0.351009
C43	C	1.393992	0.159658	0.586103
C44	C	1.394216	0.159870	0.414212
C45	C	1.631229	0.119601	0.413432
C46	C	1.630654	0.120002	0.585376
C47	C	1.472714	0.029640	0.585655
C48	C	1.469658	0.030115	0.413700
H49	H	0.916311	-0.005469	0.101650
H50	H	0.867740	0.195380	-0.147361
Cl51	Cl	1.756269	-0.554309	0.000072
H52	H	1.541159	-0.014060	0.370740
H53	H	1.293208	-0.226946	0.000039
H54	H	1.133214	-0.002297	-0.101092
H55	H	0.889348	0.111977	-0.246239
Cl56	Cl	1.127343	0.099687	0.302320
Cl57	Cl	1.751861	-0.718704	-0.000002
H58	H	1.084522	0.199206	-0.146107
Cl59	Cl	1.768166	-0.110219	0.000097
H60	H	1.086328	0.198442	0.149905
Cl61	Cl	1.157585	-0.018071	0.155959
Cl62	Cl	1.130071	0.102175	-0.302696
H63	H	0.885377	0.116048	0.246350
Cl64	Cl	1.763757	-0.274615	0.000093
Cl65	Cl	1.590884	-0.035450	0.648443
H66	H	1.281303	-0.671037	-0.000036
H67	H	1.654960	0.172529	0.370340
H68	H	0.914710	-0.005341	-0.099826
Cl69	Cl	1.326957	0.005300	0.652682
Cl70	Cl	1.234040	-0.519337	-0.000014
Cl71	Cl	1.242275	0.144520	0.349135
Cl72	Cl	1.245934	-0.075242	0.000041
Cl73	Cl	0.841563	0.227685	0.141017
H74	H	1.295283	0.149839	0.627495
Cl75	Cl	1.419439	0.243236	0.652732
H76	H	1.410916	0.214309	0.373051
H77	H	1.653829	0.173535	0.625451
Cl78	Cl	1.319340	0.010717	0.350799
H79	H	1.711169	0.080409	0.626974
H80	H	1.711168	0.079472	0.372542
