data_functionalizedCrystal
_audit_creation_method	'MofGen! by Chris Wilmer'
_symmetry_space_group_name_H-M	'P1'
_symmetry_Int_Tables_number	1
_symmetry_cell_setting	triclinic
loop_
_symmetry_equiv_pos_as_xyz
  x,y,z
_cell_length_a	14.044220
_cell_length_b	19.188930
_cell_length_c	13.101039
_cell_angle_alpha	93.345801
_cell_angle_beta	86.340132
_cell_angle_gamma	88.166830
loop_
_atom_site_label
_atom_site_type_symbol
_atom_site_fract_x
_atom_site_fract_y
_atom_site_fract_z
O1	O	1.262233	0.164759	-0.085127
O2	O	1.762233	0.664759	0.414873
O3	O	0.986290	0.158685	-0.085152
O4	O	1.486290	0.658685	0.414848
O5	O	1.132223	0.060581	-0.085119
O6	O	1.632223	0.560581	0.414881
O7	O	1.116300	0.262863	-0.085160
O8	O	1.616300	0.762863	0.414840
O9	O	1.121753	0.067633	0.085309
O10	O	1.621753	0.567633	0.585309
O11	O	0.975820	0.165737	0.085275
O12	O	1.475820	0.665737	0.585275
O13	O	1.251762	0.171810	0.085300
O14	O	1.751762	0.671810	0.585300
Zn15	Zn	1.112128	0.169893	0.112347
Zn16	Zn	1.612128	0.669893	0.612347
Zn17	Zn	1.125924	0.160602	-0.112199
Zn18	Zn	1.625924	0.660602	0.387801
O19	O	1.105829	0.269914	0.085267
O20	O	1.605829	0.769914	0.585267
C21	C	0.945752	0.159553	0.000059
C22	C	1.445752	0.659553	0.500059
C23	C	0.840559	0.151623	0.000050
C24	C	1.340559	0.651623	0.500050
C25	C	0.647957	0.137129	0.000073
C26	C	1.147957	0.637129	0.500073
C27	C	0.590091	0.193363	0.000066
C28	C	1.090091	0.693363	0.500066
C29	C	0.482920	0.185298	0.000079
C30	C	0.982920	0.685298	0.500079
C31	C	0.755137	0.145193	0.000060
C32	C	1.255137	0.645193	0.500060
C33	C	1.126472	0.038063	0.000098
C34	C	1.626472	0.538063	0.500098
C35	C	1.124923	-0.039541	0.000106
C36	C	1.624923	0.460459	0.500106
C37	C	1.210553	-0.078939	0.000119
C38	C	1.710553	0.421061	0.500119
C39	C	1.209099	-0.151857	0.000103
C40	C	1.709099	0.348143	0.500103
C41	C	1.122010	-0.185374	0.000094
C42	C	1.622010	0.314626	0.500094
C43	C	1.036370	-0.145968	0.000075
C44	C	1.536370	0.354032	0.500075
C45	C	1.037827	-0.073051	0.000082
C46	C	1.537827	0.426949	0.500082
N47	N	1.051878	-0.295275	0.058088
N48	N	1.551878	0.204725	0.558088
N49	N	1.050500	-0.364543	0.058084
N50	N	1.550500	0.135457	0.558084
C51	C	1.117617	-0.405067	0.000073
C52	C	1.617617	0.094933	0.500073
N53	N	1.186177	-0.373707	-0.057921
N54	N	1.686177	0.126293	0.442079
N55	N	1.187558	-0.304433	-0.057913
N56	N	1.687558	0.195567	0.442087
C57	C	1.120421	-0.264440	0.000086
C58	C	1.620421	0.235560	0.500086
C59	C	1.201676	-0.523532	0.000066
C60	C	1.701676	-0.023532	0.500066
C61	C	1.200219	-0.596452	0.000043
C62	C	1.700219	-0.096452	0.500043
C63	C	1.027487	-0.590560	0.000026
C64	C	1.527487	-0.090560	0.500026
C65	C	1.028947	-0.517642	0.000039
C66	C	1.528947	-0.017642	0.500039
C67	C	1.116043	-0.484132	0.000064
C68	C	1.616043	0.015868	0.500064
C69	C	1.292301	0.170943	0.000087
C70	C	1.792301	0.670943	0.500087
C71	C	1.397494	0.178872	0.000089
C72	C	1.897494	0.678872	0.500089
C73	C	1.111580	0.292433	0.000048
C74	C	1.611580	0.792433	0.500048
C75	C	1.113129	0.370037	0.000033
C76	C	1.613129	0.870037	0.500033
N77	N	1.102720	0.176234	0.265593
N78	N	1.602720	0.676234	0.765593
N79	N	1.135340	0.154257	-0.265445
N80	N	1.635340	0.654257	0.234555
C81	C	1.089920	0.184867	0.474633
C82	C	1.589920	0.684867	0.974633
C83	C	1.148137	0.145626	0.525522
C84	C	1.648137	0.645626	1.025522
C85	C	1.141014	0.150429	0.641839
C86	C	1.641014	0.650429	1.141839
C87	C	1.097041	0.180064	0.358306
C88	C	1.597041	0.680064	0.858306
H89	H	0.621038	0.247564	0.000050
H90	H	1.121038	0.747564	0.500050
H91	H	0.968095	-0.040974	0.000072
H92	H	1.468095	0.459026	0.500072
H93	H	1.269952	-0.628529	0.000048
H94	H	1.769952	-0.128529	0.500048
C95	C	1.022712	0.230193	0.639194
C96	C	1.522712	0.730193	1.139194
C97	C	1.015428	0.235095	0.533739
C98	C	1.515428	0.735095	1.033739
H99	H	0.976729	0.261206	0.675690
H100	H	1.476729	0.761206	1.175690
H101	H	1.011440	0.183696	0.656718
H102	H	1.511440	0.683696	1.156718
H103	H	1.084905	0.242365	0.656694
H104	H	1.584905	0.742365	1.156694
H105	H	0.953237	0.222917	0.516238
H106	H	1.453237	0.722917	1.016238
H107	H	1.026693	0.281602	0.516208
H108	H	1.526693	0.781602	1.016208
H109	H	0.959218	-0.485564	0.000034
H110	H	1.459218	0.014436	0.500034
H111	H	1.272595	-0.496247	0.000082
H112	H	1.772595	0.003753	0.500082
H113	H	1.203327	0.108423	0.481732
H114	H	1.703327	0.608423	0.981732
C115	C	0.506565	0.070036	0.000084
C116	C	1.006565	0.570036	0.500084
C117	C	0.606187	0.063962	0.000082
C118	C	1.106187	0.563962	0.500082
H119	H	0.480772	0.024865	0.000080
H120	H	0.980772	0.524865	0.500080
H121	H	0.482036	0.097126	0.059513
H122	H	0.982036	0.597126	0.559513
H123	H	0.489325	0.092225	-0.059351
H124	H	0.989325	0.592225	0.440649
H125	H	0.623427	0.041778	0.059521
H126	H	1.123427	0.541778	0.559521
H127	H	0.630725	0.036861	-0.059353
H128	H	1.130725	0.536861	0.440647
C129	C	1.381142	-0.092092	0.000140
C130	C	1.881142	0.407908	0.500140
C131	C	1.306289	-0.042107	0.000135
C132	C	1.806289	0.457893	0.500135
H133	H	1.440245	-0.069351	0.000142
H134	H	1.940245	0.430649	0.500142
H135	H	1.373328	-0.117956	0.059566
H136	H	1.873328	0.382044	0.559566
H137	H	1.380627	-0.122863	-0.059298
H138	H	1.880627	0.377137	0.440702
H139	H	1.306800	-0.011338	0.059577
H140	H	1.806800	0.488662	0.559577
H141	H	1.314106	-0.016231	-0.059297
H142	H	1.814106	0.483769	0.440703
H143	H	1.278831	-0.183941	0.000109
H144	H	1.778831	0.316059	0.500109
C145	C	0.939917	-0.228172	-0.087543
C146	C	1.439917	0.271828	0.412457
C147	C	0.940641	-0.182808	0.000068
C148	C	1.440641	0.317192	0.500068
H149	H	0.880818	-0.250918	-0.087546
H150	H	1.380818	0.249082	0.412454
H151	H	0.947722	-0.202300	-0.146962
H152	H	1.447722	0.297700	0.353038
H153	H	0.990714	-0.262070	-0.087525
H154	H	1.490714	0.237930	0.412475
H155	H	0.889849	-0.148907	0.000047
H156	H	1.389849	0.351093	0.500047
H157	H	0.932826	-0.208681	0.059502
H158	H	1.432826	0.291319	0.559502
C159	C	0.948558	-0.699716	0.000008
C160	C	1.448558	-0.199716	0.500008
C161	C	0.931756	-0.627393	0.000014
C162	C	1.431756	-0.127393	0.500014
H163	H	0.889454	-0.722456	0.000003
H164	H	1.389454	-0.222456	0.500003
H165	H	0.987451	-0.715320	-0.059417
H166	H	1.487451	-0.215320	0.440583
H167	H	0.980151	-0.710419	0.059447
H168	H	1.480151	-0.210419	0.559447
H169	H	0.900169	-0.616690	-0.059429
H170	H	1.400169	-0.116690	0.440571
H171	H	0.892848	-0.611783	0.059445
H172	H	1.392848	-0.111783	0.559445
