data_functionalizedCrystal
_audit_creation_method	'MofGen! by Chris Wilmer'
_symmetry_space_group_name_H-M	'P1'
_symmetry_Int_Tables_number	1
_symmetry_cell_setting	triclinic
loop_
_symmetry_equiv_pos_as_xyz
  x,y,z
_cell_length_a	19.077236
_cell_length_b	12.759394
_cell_length_c	19.077569
_cell_angle_alpha	87.678206
_cell_angle_beta	85.479541
_cell_angle_gamma	92.307717
loop_
_atom_site_label
_atom_site_type_symbol
_atom_site_fract_x
_atom_site_fract_y
_atom_site_fract_z
Zn1	Zn	1.093786	-0.326332	-0.441990
Zn2	Zn	1.088989	-0.509381	-0.324105
Zn3	Zn	0.971166	-0.341052	-0.319371
Zn4	Zn	0.975882	-0.509312	-0.437211
O5	O	1.032456	-0.421519	-0.380669
O6	O	1.191802	-0.344483	-0.430333
O7	O	1.069378	-0.493241	-0.224825
O8	O	0.987466	-0.192075	-0.335656
O9	O	1.188278	-0.478968	-0.343724
O10	O	1.077554	-0.181261	-0.425743
O11	O	0.982814	-0.369570	-0.221348
O12	O	0.873139	-0.369503	-0.331022
O13	O	0.995504	-0.478850	-0.536497
O14	O	0.876604	-0.493123	-0.417599
O15	O	1.082127	-0.344416	-0.540008
O16	O	1.073951	-0.656396	-0.339090
O17	O	0.990852	-0.656345	-0.422189
C18	C	0.849292	-0.432903	-0.373279
C19	C	0.770935	-0.437798	-0.370134
C20	C	0.735961	-0.370180	-0.413818
C21	C	0.662335	-0.374774	-0.410856
C22	C	0.623685	-0.446992	-0.364214
C23	C	0.658665	-0.514613	-0.320525
C24	C	0.732289	-0.510013	-0.323483
C25	C	0.403296	-0.468242	-0.350521
C26	C	0.329667	-0.472839	-0.347567
C27	C	0.333343	-0.332999	-0.437898
C28	C	0.406968	-0.328410	-0.440855
C29	C	0.441941	-0.396027	-0.397164
N30	N	0.548428	-0.451692	-0.361188
N31	N	0.517196	-0.391321	-0.400187
C32	C	1.032413	-0.694491	-0.380651
C33	C	1.032460	-0.811263	-0.380669
C34	C	1.119061	-0.811255	-0.294208
C35	C	1.162381	-0.866109	-0.250987
C36	C	1.162423	-0.975827	-0.251008
C37	C	1.119142	-1.030693	-0.294256
C38	C	1.075823	-0.975838	-0.337477
C39	C	1.075784	-0.866118	-0.337450
C40	C	0.989226	-0.975846	-0.423941
C41	C	0.989179	-0.866129	-0.423917
C42	C	0.945946	-1.030711	-0.467189
C43	C	0.902622	-0.975857	-0.510407
C44	C	0.902581	-0.866133	-0.510384
C45	C	0.945860	-0.811274	-0.467138
C46	C	1.216335	-0.410092	-0.388090
C47	C	1.294693	-0.405222	-0.391252
C48	C	1.039876	-0.409983	-0.564547
C49	C	1.043039	-0.405067	-0.642904
C50	C	1.032519	-0.147480	-0.380704
C51	C	1.032546	-0.030701	-0.380719
C52	C	0.999425	-0.472745	-0.677890
C53	C	1.002402	-0.468126	-0.751516
C54	C	1.048990	-0.395822	-0.790154
C55	C	1.092608	-0.328141	-0.755163
C56	C	1.089634	-0.332766	-0.681539
C57	C	1.062724	-0.374488	-1.010543
C58	C	1.065693	-0.369866	-1.084172
C59	C	0.975487	-0.509852	-1.080519
C60	C	0.972515	-0.514467	-1.006894
C61	C	1.016135	-0.446790	-0.971909
N62	N	1.052032	-0.391096	-0.865411
N63	N	1.013096	-0.451521	-0.896654
C64	C	1.025105	-0.432932	-0.197509
C65	C	1.022079	-0.437544	-0.119157
H66	H	0.627190	-0.573409	-0.282545
H67	H	0.760763	-0.565074	-0.287911
C68	C	0.910578	-0.610674	-0.681684
C69	C	0.948223	-0.552238	-0.635423
H70	H	0.878975	-0.659760	-0.655466
H71	H	0.884775	-0.564776	-0.709310
H72	H	0.942456	-0.647132	-0.711641
H73	H	0.916345	-0.515774	-0.605469
H74	H	0.974028	-0.598143	-0.607785
H75	H	1.197701	-1.020489	-0.215817
C76	C	1.166145	-0.654079	-0.247094
C77	C	1.119012	-0.690652	-0.294180
H78	H	1.166117	-0.579623	-0.247081
H79	H	1.152156	-0.682559	-0.201115
H80	H	1.212131	-0.675240	-0.261163
H81	H	1.073025	-0.669497	-0.280109
H82	H	1.132998	-0.662161	-0.340169
H83	H	0.867390	-1.020537	-0.545620
C84	C	0.966644	-1.182486	-0.535021
C85	C	0.945997	-1.151314	-0.467215
H86	H	0.966679	-1.256942	-0.535035
H87	H	0.934651	-1.157676	-0.566943
H88	H	1.012613	-1.153994	-0.549064
H89	H	0.900026	-1.179801	-0.453174
H90	H	0.977992	-1.176137	-0.435282
C91	C	0.864063	-0.697948	-0.548748
C92	C	0.854964	-0.805838	-0.557897
H93	H	0.834669	-0.660730	-0.578085
H94	H	0.851856	-0.683630	-0.500962
H95	H	0.911836	-0.676312	-0.561006
H96	H	0.807192	-0.827476	-0.545634
H97	H	0.867166	-0.820163	-0.605694
H98	H	0.438432	-0.269606	-0.478839
H99	H	0.945826	-0.721936	-0.467110
H100	H	0.966888	-0.523238	-0.779998
H101	H	1.197621	-0.821428	-0.215776
H102	H	1.119187	-1.120030	-0.294276
C103	C	1.152177	-0.235645	-1.021558
C104	C	1.110664	-0.300088	-0.972094
H105	H	1.181771	-0.189707	-0.997818
H106	H	1.180291	-0.277941	-1.051356
H107	H	1.122620	-0.195569	-1.049040
H108	H	1.140222	-0.340171	-0.944615
H109	H	1.082548	-0.257787	-0.942284
H110	H	0.934589	-0.573360	-0.975440
C111	C	0.939997	-0.564930	-1.191758
C112	C	0.927549	-0.584251	-1.118976
H113	H	0.910404	-0.610871	-1.215497
H114	H	0.930178	-0.494232	-1.203412
H115	H	0.987850	-0.576603	-1.205724
H116	H	0.879697	-0.572570	-1.105009
H117	H	0.937363	-0.654965	-1.107317
C118	C	0.254390	-0.317841	-0.529415
C119	C	0.294897	-0.258672	-0.485916
H120	H	0.230652	-0.271948	-0.559055
H121	H	0.284199	-0.360183	-0.557482
H122	H	0.220838	-0.361506	-0.501207
H123	H	0.328452	-0.215012	-0.514124
H124	H	0.265085	-0.216311	-0.457846
H125	H	1.103628	-0.310978	-1.115629
H126	H	1.130544	-0.269275	-0.786628
C127	C	1.179090	-0.193924	-0.692540
C128	C	1.137572	-0.258368	-0.643080
H129	H	1.208684	-0.147991	-0.668795
H130	H	1.207204	-0.236220	-0.722337
H131	H	1.149536	-0.153842	-0.720022
H132	H	1.167126	-0.298456	-0.615601
H133	H	1.109456	-0.216068	-0.613270
C134	C	0.485668	-0.604998	-0.343886
C135	C	0.441731	-0.542576	-0.302502
H136	H	0.509400	-0.650888	-0.314238
H137	H	0.458187	-0.645118	-0.373397
H138	H	0.519224	-0.561319	-0.372079
H139	H	0.408172	-0.586255	-0.274312
H140	H	0.469214	-0.502453	-0.272978
H141	H	0.767424	-0.311375	-0.451801
H142	H	0.298200	-0.531653	-0.309585
C143	C	0.673364	-0.236098	-0.500446
C144	C	0.623892	-0.300449	-0.458878
H145	H	0.649629	-0.190215	-0.530095
H146	H	0.700840	-0.195971	-0.470933
H147	H	0.703166	-0.278469	-0.528510
H148	H	0.594092	-0.258079	-0.430810
H149	H	0.596404	-0.340580	-0.488394
