data_functionalizedCrystal
_audit_creation_method	'MofGen! by Chris Wilmer'
_symmetry_space_group_name_H-M	'P1'
_symmetry_Int_Tables_number	1
_symmetry_cell_setting	triclinic
loop_
_symmetry_equiv_pos_as_xyz
  x,y,z
_cell_length_a	15.944551
_cell_length_b	22.610064
_cell_length_c	15.944551
_cell_angle_alpha	90.003119
_cell_angle_beta	96.501262
_cell_angle_gamma	90.003741
loop_
_atom_site_label
_atom_site_type_symbol
_atom_site_fract_x
_atom_site_fract_y
_atom_site_fract_z
O1	O	1.114530	0.049124	-0.108321
O2	O	0.869980	0.049139	-0.121677
O3	O	0.998933	0.049126	0.007276
O4	O	0.985577	0.049137	-0.237274
O5	O	0.998910	-0.049243	0.007257
O6	O	0.869958	-0.049230	-0.121696
O7	O	1.114507	-0.049245	-0.108339
Zn8	Zn	0.992229	-0.064856	-0.115021
Zn9	Zn	0.992259	0.064750	-0.114996
O10	O	0.985554	-0.049232	-0.237292
C11	C	0.838675	-0.000044	-0.121132
C12	C	0.745429	-0.000038	-0.119470
C13	C	0.530572	-0.000054	-0.035565
C14	C	0.469563	0.048449	-0.074518
C15	C	0.574703	-0.000045	-0.116462
C16	C	0.469563	-0.048535	-0.074556
C17	C	0.409790	-0.000055	-0.113551
C18	C	0.514922	0.048498	-0.155438
C19	C	0.514929	-0.048530	-0.155464
C20	C	0.453937	-0.000015	-0.194476
C21	C	0.669705	-0.000039	-0.118137
C22	C	0.314789	-0.000057	-0.111883
N23	N	0.992214	-0.153308	-0.115037
C24	C	1.049362	-0.561956	-0.057904
C25	C	1.049366	-0.623875	-0.057898
O26	O	1.097919	-0.655899	-0.009334
N27	N	0.992258	-0.654845	-0.114978
C28	C	0.935136	-0.623892	-0.172063
O29	O	0.886562	-0.655920	-0.220613
C30	C	0.935129	-0.561974	-0.172064
C31	C	0.992246	-0.531007	-0.114986
C32	C	1.106474	-0.530989	-0.000830
C33	C	1.106470	-0.469073	-0.000837
C34	C	1.049355	-0.438124	-0.057919
C35	C	0.992243	-0.469091	-0.114993
C36	C	0.878004	-0.531022	-0.229144
C37	C	0.878001	-0.469099	-0.229140
C38	C	0.935118	-0.438132	-0.172062
C39	C	0.935124	-0.376227	-0.172082
N40	N	0.992232	-0.345257	-0.115002
C41	C	1.049347	-0.376205	-0.057920
C42	C	0.935156	-0.753926	-0.172054
C43	C	0.935167	-0.815844	-0.172058
C44	C	1.049396	-0.815822	-0.057892
C45	C	1.049388	-0.753904	-0.057893
C46	C	0.992264	-0.722956	-0.114974
C47	C	1.049336	-0.246178	-0.057941
C48	C	1.049330	-0.184257	-0.057955
C49	C	0.935099	-0.184284	-0.172118
C50	C	0.935107	-0.246199	-0.172106
C51	C	0.992229	-0.277145	-0.115011
O52	O	0.886593	-0.344164	-0.220619
O53	O	1.097906	-0.344170	-0.009371
C54	C	1.145813	-0.000061	-0.108885
C55	C	1.239059	-0.000063	-0.110547
C56	C	0.998367	-0.000059	0.038561
C57	C	0.996705	-0.000059	0.131807
N58	N	0.992280	0.153202	-0.114973
C59	C	0.986120	-0.000046	-0.268577
C60	C	0.987782	-0.000042	-0.361823
C61	C	0.912801	-0.000046	0.346663
C62	C	0.951752	-0.048550	0.407671
C63	C	0.993698	-0.000054	0.302533
C64	C	0.951793	0.048434	0.407673
C65	C	0.990787	-0.000047	0.467445
C66	C	1.032671	-0.048599	0.362312
C67	C	1.032701	0.048429	0.362308
C68	C	1.071711	-0.000087	0.423298
C69	C	0.995372	-0.000059	0.207530
C70	C	0.989119	-0.000047	0.562446
H71	H	0.563905	0.000003	0.031573
H72	H	0.888605	-0.271413	-0.218593
N73	N	1.160728	-0.000130	0.467235
H74	H	1.170059	0.036503	0.503339
H75	H	1.202037	-0.000519	0.423670
H76	H	0.449463	0.089452	-0.040294
N77	N	0.442954	-0.102855	-0.029233
H78	H	0.402901	-0.127159	-0.069002
H79	H	0.413796	-0.090440	0.020973
H80	H	1.095901	-0.841032	-0.011412
N81	N	0.906416	-0.102864	0.434289
H82	H	0.856216	-0.090491	0.463488
H83	H	0.946240	-0.127142	0.474309
H84	H	1.066849	-0.089650	0.342314
N85	N	1.110940	-0.150857	0.003607
H86	H	1.147119	-0.179863	0.039770
H87	H	1.078785	-0.125165	0.040762
N88	N	0.541401	0.102875	-0.200716
H89	H	0.604645	0.102553	-0.201534
H90	H	0.524463	0.139432	-0.170358
H91	H	1.066898	0.089434	0.342185
N92	N	0.873565	-0.849241	-0.233622
H93	H	0.883234	-0.838468	-0.293246
H94	H	0.813984	-0.838450	-0.223831
H95	H	1.095849	-0.271367	-0.011447
N96	N	1.168072	-0.435677	0.060729
H97	H	1.204248	-0.464687	0.096888
H98	H	1.135915	-0.409989	0.097886
H99	H	0.888598	-0.159075	-0.218596
N100	N	0.410006	0.000020	-0.283495
H101	H	0.426484	0.036673	-0.313925
H102	H	0.346878	-0.000350	-0.281819
N103	N	1.168095	-0.564360	0.060733
H104	H	1.136022	-0.590054	0.097961
H105	H	1.204252	-0.535297	0.096821
N106	N	0.541557	-0.102842	-0.200784
H107	H	0.525238	-0.139464	-0.170185
H108	H	0.604735	-0.102191	-0.202057
H109	H	1.095897	-0.728694	-0.011415
H110	H	0.917576	0.089444	0.427758
H111	H	0.888641	-0.728731	-0.218543
H112	H	0.831494	-0.556226	-0.275621
H113	H	0.831481	-0.443904	-0.275621
N114	N	0.823857	-0.000097	0.302542
H115	H	0.793400	-0.036767	0.318914
H116	H	0.825673	0.000301	0.239434
