data_functionalizedCrystal
_audit_creation_method	'MofGen! by Chris Wilmer'
_symmetry_space_group_name_H-M	'P1'
_symmetry_Int_Tables_number	1
_symmetry_cell_setting	triclinic
loop_
_symmetry_equiv_pos_as_xyz
  x,y,z
_cell_length_a	16.120297
_cell_length_b	14.908571
_cell_length_c	14.909042
_cell_angle_alpha	83.236050
_cell_angle_beta	90.254815
_cell_angle_gamma	90.247904
loop_
_atom_site_label
_atom_site_type_symbol
_atom_site_fract_x
_atom_site_fract_y
_atom_site_fract_z
Zn1	Zn	-0.519832	-1.377690	0.467320
Zn2	Zn	-0.019832	-0.877690	0.967320
Zn3	Zn	-0.373629	-1.393915	0.611097
Zn4	Zn	0.126371	-0.893915	1.111097
Zn5	Zn	-0.373650	-1.233904	0.451013
Zn6	Zn	0.126350	-0.733904	0.951013
Zn7	Zn	-0.504685	-1.235815	0.609103
Zn8	Zn	-0.004685	-0.735815	1.109103
O9	O	-0.442949	-1.310331	0.534633
O10	O	0.057051	-0.810331	1.034633
O11	O	-0.506767	-1.506182	0.494051
O12	O	-0.006767	-1.006182	0.994051
O13	O	-0.257606	-1.378680	0.583871
O14	O	0.242394	-0.878680	1.083871
O15	O	-0.399389	-1.245387	0.326844
O16	O	0.100611	-0.745387	0.826844
O17	O	-0.399353	-1.518103	0.599683
O18	O	0.100647	-1.018103	1.099683
O19	O	-0.506788	-1.351025	0.338824
O20	O	-0.006788	-0.851025	0.838824
O21	O	-0.257622	-1.261120	0.466258
O22	O	0.242378	-0.761120	0.966258
O23	O	-0.384703	-1.107817	0.464325
O24	O	0.115297	-0.607817	0.964325
O25	O	-0.622719	-1.248645	0.596285
O26	O	-0.122719	-0.748645	1.096285
O27	O	-0.480973	-1.109221	0.580473
O28	O	0.019027	-0.609221	1.080473
O29	O	-0.633847	-1.352879	0.492117
O30	O	-0.133847	-0.852879	0.992117
O31	O	-0.384666	-1.380533	0.737164
O32	O	0.115334	-0.880533	1.237164
O33	O	-0.480953	-1.264378	0.735699
O34	O	0.019047	-0.764378	1.235699
C35	C	-0.431197	-1.075761	0.520414
C36	C	0.068803	-0.575761	1.020414
C37	C	-0.426188	-0.975411	0.514354
C38	C	0.073812	-0.475411	1.014354
C39	C	-0.659209	-1.299165	0.545798
C40	C	-0.159209	-0.799165	1.045798
C41	C	-0.751366	-1.294407	0.550555
C42	C	-0.251366	-0.794407	1.050555
C43	C	-0.431183	-1.324447	0.769191
C44	C	0.068817	-0.824447	1.269191
C45	C	-0.426181	-1.330568	0.869542
C46	C	0.073819	-0.830568	1.369542
C47	C	-0.920097	-1.285685	0.559220
C48	C	-0.420097	-0.785685	1.059220
C49	C	-0.966675	-1.335138	0.509786
C50	C	-0.466675	-0.835138	1.009786
C51	C	-1.060563	-1.330285	0.514607
C52	C	-0.560563	-0.830285	1.014607
C53	C	-0.826201	-1.290537	0.554400
C54	C	-0.326201	-0.790537	1.054400
C55	C	-0.227536	-1.321501	0.523450
C56	C	0.272464	-0.821501	1.023450
C57	C	-0.135401	-1.326419	0.518448
C58	C	0.364599	-0.826419	1.018448
C59	C	-0.454747	-1.545817	0.548908
C60	C	0.045253	-1.045817	1.048908
C61	C	-0.459775	-1.646167	0.554991
C62	C	0.040225	-1.146167	1.054991
C63	C	-0.516872	-0.788371	0.624082
C64	C	-0.016872	-0.288371	1.124082
C65	C	-0.512168	-0.694084	0.618391
C66	C	-0.012168	-0.194084	1.118391
C67	C	-0.412083	-0.692545	0.497277
C68	C	0.087917	-0.192545	0.997277
C69	C	-0.416786	-0.786833	0.502968
C70	C	0.083214	-0.286833	1.002968
C71	C	-0.469182	-0.834743	0.566374
C72	C	0.030818	-0.334743	1.066374
C73	C	-0.473880	-0.929033	0.572069
C74	C	0.026120	-0.429033	1.072069
C75	C	-0.373800	-0.927492	0.450950
C76	C	0.126200	-0.427492	0.950950
C77	C	-0.369096	-0.833204	0.445259
C78	C	0.130904	-0.333204	0.945259
C79	C	-0.454781	-1.296183	0.299162
C80	C	0.045219	-0.796183	0.799162
C81	C	-0.459823	-1.290154	0.198818
C82	C	0.040177	-0.790154	0.698818
C83	C	-0.516948	-1.221010	1.056641
C84	C	-0.016948	-0.721010	1.556641
C85	C	-0.512251	-1.226757	1.150930
C86	C	-0.012251	-0.726757	1.650930
C87	C	-0.412086	-1.347805	1.152410
C88	C	0.087914	-0.847805	1.652410
C89	C	-0.416783	-1.342058	1.058121
C90	C	0.083217	-0.842058	1.558121
C91	C	-0.469216	-1.278659	1.010240
C92	C	0.030784	-0.778659	1.510240
C93	C	-0.473917	-1.272916	0.915950
C94	C	0.026083	-0.772916	1.415950
C95	C	-0.373749	-1.393960	0.917432
C96	C	0.126251	-0.893960	1.417432
C97	C	-0.369052	-1.399707	1.011721
C98	C	0.130948	-0.899707	1.511721
H99	H	-0.936038	-1.381119	0.463844
H100	H	-0.436038	-0.881119	0.963844
O101	O	-0.312500	-1.468091	1.063357
O102	O	0.187500	-0.968091	1.563357
H103	H	-0.331238	-1.537085	1.050206
H104	H	0.168762	-1.037085	1.550206
O105	O	-0.960668	-1.224779	0.620075
O106	O	-0.460668	-0.724779	1.120075
H107	H	-1.029114	-1.230487	0.614360
H108	H	-0.529114	-0.730487	1.114360
O109	O	-0.530394	-0.980713	0.640447
O110	O	-0.030394	-0.480713	1.140447
H111	H	-0.562773	-0.932622	0.679611
H112	H	-0.062773	-0.432622	1.179611
O113	O	-0.573379	-0.840056	0.692465
O114	O	-0.073379	-0.340056	1.192465
H115	H	-0.605754	-0.791969	0.731637
H116	H	-0.105754	-0.291969	1.231637
O117	O	-0.322344	-0.977514	0.388719
O118	O	0.177656	-0.477514	0.888719
H119	H	-0.285112	-0.928356	0.343686
H120	H	0.214888	-0.428356	0.843686
O121	O	-0.563527	-0.644073	0.680709
O122	O	-0.063527	-0.144073	1.180709
H123	H	-0.600717	-0.693235	0.725783
H124	H	-0.100717	-0.193235	1.225783
O125	O	-0.563726	-1.164574	1.200979
O126	O	-0.063726	-0.664574	1.700979
H127	H	-0.605823	-1.205375	1.248516
H128	H	-0.105823	-0.705375	1.748516
O129	O	-0.355545	-0.640869	0.428921
O130	O	0.144455	-0.140869	0.928921
H131	H	-0.360276	-0.567516	0.434676
H132	H	0.139724	-0.067516	0.934676
H133	H	-0.369389	-1.399414	1.191411
H134	H	0.130611	-0.899414	1.691411
O135	O	-0.573494	-1.152632	1.004987
O136	O	-0.073494	-0.652632	1.504987
H137	H	-0.605893	-1.113505	1.053094
H138	H	-0.105893	-0.613505	1.553094
H139	H	-0.326440	-0.794183	0.393634
H140	H	0.173560	-0.294183	0.893634
H141	H	-0.516614	-1.221296	0.876966
H142	H	-0.016614	-0.721296	1.376966
H143	H	-0.334885	-1.440904	0.879642
H144	H	0.165115	-0.940904	1.379642
