data_functionalizedCrystal
_audit_creation_method	'MofGen! by Chris Wilmer'
_symmetry_space_group_name_H-M	'P1'
_symmetry_Int_Tables_number	1
_symmetry_cell_setting	triclinic
loop_
_symmetry_equiv_pos_as_xyz
  x,y,z
_cell_length_a	9.065218
_cell_length_b	10.654550
_cell_length_c	9.130313
_cell_angle_alpha	90.004369
_cell_angle_beta	89.995312
_cell_angle_gamma	95.249592
loop_
_atom_site_label
_atom_site_type_symbol
_atom_site_fract_x
_atom_site_fract_y
_atom_site_fract_z
O1	O	1.959393	-0.184159	-0.121840
O2	O	1.530025	-0.199265	-0.121834
O3	O	1.754581	-0.009012	-0.121828
O4	O	1.734837	-0.374412	-0.121846
O5	O	1.754566	-0.009006	0.121771
O6	O	1.530010	-0.199259	0.121765
O7	O	1.959377	-0.184153	0.121759
Cu8	Cu	1.744692	-0.191706	0.144004
Cu9	Cu	1.744711	-0.191712	-0.144080
O10	O	1.734822	-0.374406	0.121753
C11	C	1.475039	-0.197810	-0.000034
C12	C	1.311220	-0.193469	-0.000031
C13	C	2.014364	-0.185608	-0.000045
C14	C	2.178183	-0.189949	-0.000057
C15	C	1.753124	0.037795	-0.000029
C16	C	1.748786	0.177255	-0.000031
C17	C	1.736279	-0.421213	-0.000049
C18	C	1.740616	-0.560673	-0.000057
N19	N	1.744690	-0.191700	0.346627
C20	C	1.881001	0.256217	-0.000034
C21	C	1.876917	0.387254	-0.000052
C22	C	1.608391	0.360354	-0.000059
C23	C	1.612477	0.229320	-0.000051
N24	N	1.744724	-0.191708	-0.346702
C25	C	1.844157	-0.107492	0.423281
C26	C	1.844171	-0.107493	0.576618
C27	C	1.645246	-0.275920	0.576633
C28	C	1.645226	-0.275913	0.423299
H29	H	1.984580	0.451541	-0.000057
N30	N	1.461381	0.416516	-0.000050
H31	H	1.378243	0.346606	-0.000049
H32	H	1.453840	0.470292	-0.090354
N33	N	1.469868	0.144142	-0.000059
H34	H	1.382897	0.197006	-0.000062
H35	H	1.465707	0.089195	0.090247
N36	N	1.537948	-0.366743	0.340600
H37	H	1.472133	-0.317960	0.277007
H38	H	1.475046	-0.420081	0.412522
H39	H	1.564267	-0.344485	0.639074
H40	H	1.925165	-0.038922	0.639026
H41	H	1.991993	0.213831	-0.000021
H42	H	1.925145	-0.038920	0.360859
