data_functionalizedCrystal
_audit_creation_method	'MofGen! by Chris Wilmer'
_symmetry_space_group_name_H-M	'P1'
_symmetry_Int_Tables_number	1
_symmetry_cell_setting	triclinic
loop_
_symmetry_equiv_pos_as_xyz
  x,y,z
_cell_length_a	19.805407
_cell_length_b	19.805405
_cell_length_c	11.169409
_cell_angle_alpha	90.037171
_cell_angle_beta	90.022348
_cell_angle_gamma	90.024042
loop_
_atom_site_label
_atom_site_type_symbol
_atom_site_fract_x
_atom_site_fract_y
_atom_site_fract_z
Zn1	Zn	1.034765	-0.269457	0.678583
Zn2	Zn	1.034670	-0.382666	0.477883
Zn3	Zn	0.921570	-0.269491	0.477909
Zn4	Zn	0.921542	-0.382604	0.678519
O5	O	0.978137	-0.326054	0.578224
O6	O	1.129469	-0.284486	0.651976
O7	O	1.019639	-0.367693	0.309937
O8	O	0.936637	-0.174770	0.504566
O9	O	1.129399	-0.367660	0.504522
O10	O	1.019801	-0.174745	0.652001
O11	O	0.936545	-0.284544	0.309955
O12	O	0.826850	-0.284484	0.504504
O13	O	0.936589	-0.367554	0.846477
O14	O	0.826829	-0.367588	0.651892
O15	O	1.019773	-0.284426	0.846524
O16	O	1.019612	-0.477374	0.504460
O17	O	0.936497	-0.477329	0.651867
C18	C	0.802281	-0.326033	0.578194
C19	C	0.727049	-0.326040	0.578210
C20	C	0.691741	-0.282808	0.655106
C21	C	0.621053	-0.282812	0.655111
C22	C	0.585673	-0.326052	0.578225
C23	C	0.620985	-0.369286	0.501321
C24	C	0.691672	-0.369278	0.501311
C25	C	0.335912	-0.369316	0.501357
C26	C	0.265220	-0.369322	0.501376
C27	C	0.265293	-0.282850	0.655157
C28	C	0.335980	-0.282842	0.655148
C29	C	0.371286	-0.326074	0.578239
C30	C	0.447934	-0.326068	0.578234
C31	C	0.509026	-0.326061	0.578236
C32	C	0.978060	-0.501911	0.578180
C33	C	0.978088	-0.577142	0.578202
C34	C	1.021366	-0.612415	0.655031
C35	C	1.021390	-0.683104	0.655053
C36	C	0.978140	-0.718518	0.578239
C37	C	0.934858	-0.683240	0.501407
C38	C	0.934831	-0.612553	0.501391
C39	C	0.934967	-0.968314	0.501468
C40	C	0.934999	-1.039006	0.501487
C41	C	1.021526	-1.038864	0.655130
C42	C	1.021499	-0.968177	0.655115
C43	C	0.978215	-0.932905	0.578287
C44	C	0.978188	-0.856257	0.578265
C45	C	0.978170	-0.795165	0.578254
C46	C	1.154679	-0.326076	0.578253
C47	C	1.229911	-0.326085	0.578266
C48	C	0.978189	-0.325979	0.891266
C49	C	0.978211	-0.325947	1.024666
C50	C	0.978233	-0.149512	0.578293
C51	C	0.978273	-0.074280	0.578323
C52	C	0.978124	-0.326080	0.266399
C53	C	0.978233	-0.325922	0.132999
H54	H	0.364782	-0.247634	0.717760
H55	H	0.899640	-0.712080	0.438868
C56	C	0.226455	-0.235286	0.739750
C57	C	0.236203	-0.158335	0.730204
C58	C	0.197369	-0.110774	0.814797
C59	C	0.148787	-0.140166	0.908936
C60	C	0.139036	-0.217122	0.918486
C61	C	0.177871	-0.264682	0.833893
H62	H	0.272169	-0.136574	0.660513
H63	H	0.204587	-0.053806	0.807727
H64	H	0.120039	-0.104959	0.971557
H65	H	0.103071	-0.238883	0.988176
H66	H	0.170653	-0.321650	0.840963
C67	C	0.887416	-1.077963	0.416994
C68	C	0.834289	-1.126584	0.468938
C69	C	0.786710	-1.165542	0.384449
C70	C	0.792259	-1.155880	0.248016
C71	C	0.845388	-1.107257	0.196065
C72	C	0.892967	-1.068299	0.280553
H73	H	0.830180	-1.133739	0.569940
H74	H	0.747380	-1.201536	0.422908
H75	H	0.757038	-1.184719	0.185473
H76	H	0.849497	-1.100102	0.095063
H77	H	0.932297	-1.032305	0.242095
C78	C	0.887226	-0.573750	0.416875
C79	C	0.839652	-0.612701	0.332376
C80	C	0.792044	-0.573899	0.247862
C81	C	0.792009	-0.496146	0.247845
C82	C	0.839585	-0.457191	0.332347
C83	C	0.887193	-0.495993	0.416861
H84	H	0.839676	-0.670262	0.332386
H85	H	0.756825	-0.602737	0.185309
H86	H	0.756766	-0.467422	0.185283
H87	H	0.839560	-0.399629	0.332337
H88	H	0.922412	-0.467155	0.479415
C89	C	0.582222	-0.235258	0.739713
C90	C	0.591984	-0.240880	0.876128
C91	C	0.553157	-0.193324	0.960738
C92	C	0.504568	-0.140144	0.908933
C93	C	0.494804	-0.134520	0.772510
C94	C	0.533631	-0.182076	0.687900
H95	H	0.627954	-0.280249	0.914484
H96	H	0.560385	-0.197488	1.061727
H97	H	0.475826	-0.104940	0.971566
H98	H	0.458834	-0.095151	0.734154
H99	H	0.526403	-0.177912	0.586911
H100	H	0.720419	-0.404482	0.438694
C101	C	1.068943	-0.573462	0.739528
C102	C	1.145895	-0.583126	0.729864
C103	C	1.193472	-0.544175	0.814366
C104	C	1.164097	-0.495560	0.908533
C105	C	1.087141	-0.485895	0.918201
C106	C	1.039564	-0.524846	0.833698
H107	H	1.167643	-0.619115	0.660153
H108	H	1.250440	-0.551330	0.807209
H109	H	1.199317	-0.466726	0.971086
H110	H	1.065393	-0.449905	0.987912
H111	H	0.982597	-0.517690	0.840856
C112	C	0.226300	-0.416884	0.416788
C113	C	0.177684	-0.387493	0.322676
C114	C	0.138764	-0.435053	0.238095
C115	C	0.148461	-0.512005	0.247626
C116	C	0.197079	-0.541400	0.341741
C117	C	0.235999	-0.493840	0.426323
H118	H	0.170505	-0.330526	0.315617
H119	H	0.102774	-0.413292	0.168424
H120	H	0.119650	-0.547211	0.185014
H121	H	0.204258	-0.598367	0.348800
H122	H	0.271989	-0.515601	0.495993
H123	H	1.056720	-0.939345	0.717660
C124	C	1.068998	-0.721904	0.739565
C125	C	1.116577	-0.682951	0.824051
C126	C	1.164186	-0.721751	0.908568
C127	C	1.164216	-0.799504	0.908599
C128	C	1.116636	-0.838461	0.824110
C129	C	1.069027	-0.799661	0.739592
H130	H	1.116556	-0.625389	0.824031
H131	H	1.199408	-0.692911	0.971112
H132	H	1.199459	-0.828226	0.971163
H133	H	1.116656	-0.896023	0.824130
H134	H	1.033805	-0.828501	0.677048
H135	H	0.899724	-0.939601	0.438910
C136	C	0.730656	-0.235243	0.739684
C137	C	0.691815	-0.187685	0.824262
C138	C	0.730728	-0.140116	0.908839
C139	C	0.808481	-0.140105	0.908837
C140	C	0.847326	-0.187665	0.824256
C141	C	0.808413	-0.235234	0.739679
H142	H	0.634254	-0.187692	0.824266
H143	H	0.701972	-0.104910	0.971451
H144	H	0.837286	-0.104892	0.971446
H145	H	0.904887	-0.187658	0.824252
H146	H	0.837170	-0.270440	0.677066
C147	C	0.374743	-0.416879	0.416777
C148	C	0.335824	-0.464447	0.332220
C149	C	0.374658	-0.512015	0.247640
C150	C	0.452411	-0.512015	0.247618
C151	C	0.491334	-0.464444	0.332179
C152	C	0.452500	-0.416876	0.416758
H153	H	0.278262	-0.464449	0.332233
H154	H	0.345844	-0.547230	0.185043
H155	H	0.481158	-0.547227	0.185007
H156	H	0.548896	-0.464442	0.332165
H157	H	0.481314	-0.381662	0.479356
H158	H	0.592173	-0.404489	0.438713
H159	H	1.056769	-1.067591	0.717691
