data_functionalizedCrystal
_audit_creation_method	'MofGen! by Chris Wilmer'
_symmetry_space_group_name_H-M	'P1'
_symmetry_Int_Tables_number	1
_symmetry_cell_setting	triclinic
loop_
_symmetry_equiv_pos_as_xyz
  x,y,z
_cell_length_a	16.959455
_cell_length_b	18.101395
_cell_length_c	16.959447
_cell_angle_alpha	90.029468
_cell_angle_beta	90.020374
_cell_angle_gamma	90.028124
loop_
_atom_site_label
_atom_site_type_symbol
_atom_site_fract_x
_atom_site_fract_y
_atom_site_fract_z
Zn1	Zn	1.208323	-0.294874	0.447041
Zn2	Zn	1.708323	0.205126	0.947041
Zn3	Zn	1.208220	-0.418727	0.314864
Zn4	Zn	1.708220	0.081273	0.814864
Zn5	Zn	1.076152	-0.294897	0.314865
Zn6	Zn	1.576152	0.205103	0.814865
Zn7	Zn	1.076091	-0.418672	0.446989
Zn8	Zn	1.576091	0.081328	0.946989
O9	O	1.142197	-0.356792	0.380940
O10	O	1.642197	0.143208	0.880940
O11	O	1.318920	-0.311317	0.429529
O12	O	1.818920	0.188683	0.929529
O13	O	1.190683	-0.402333	0.204253
O14	O	1.690683	0.097667	0.704253
O15	O	1.093753	-0.191261	0.332420
O16	O	1.593753	0.308739	0.832420
O17	O	1.318845	-0.402311	0.332420
O18	O	1.818845	0.097689	0.832420
O19	O	1.190859	-0.191244	0.429529
O20	O	1.690859	0.308756	0.929529
O21	O	1.093653	-0.311356	0.204254
O22	O	1.593653	0.188644	0.704254
O23	O	0.965533	-0.311303	0.332369
O24	O	1.465533	0.188697	0.832369
O25	O	1.093649	-0.402217	0.557607
O26	O	1.593649	0.097783	1.057607
O27	O	0.965488	-0.402239	0.429441
O28	O	1.465488	0.097761	0.929441
O29	O	1.190800	-0.311263	0.557645
O30	O	1.690800	0.188737	1.057645
O31	O	1.190625	-0.522352	0.332369
O32	O	1.690625	-0.022352	0.832369
O33	O	1.093550	-0.522312	0.429441
O34	O	1.593550	-0.022312	0.929441
C35	C	0.936830	-0.356768	0.380900
C36	C	1.436830	0.143232	0.880900
C37	C	0.848974	-0.356776	0.380902
C38	C	1.348974	0.143224	0.880902
C39	C	0.477448	-0.404126	0.330349
C40	C	0.977448	0.095874	0.830349
C41	C	0.477548	-0.309520	0.431627
C42	C	0.977548	0.190480	0.931627
C43	C	0.560094	-0.309508	0.431607
C44	C	1.060094	0.190492	0.931607
C45	C	0.601321	-0.356806	0.380959
C46	C	1.101321	0.143194	0.880959
C47	C	0.560002	-0.404117	0.330330
C48	C	1.060002	0.095883	0.830330
C49	C	0.601419	-0.262203	0.482241
C50	C	1.101419	0.237797	0.982241
C51	C	0.683970	-0.262190	0.482225
C52	C	1.183970	0.237810	0.982225
C53	C	0.725198	-0.309485	0.431572
C54	C	1.225198	0.190515	0.931572
C55	C	0.683874	-0.356797	0.380940
C56	C	1.183874	0.143203	0.880940
C57	C	0.725101	-0.404096	0.330292
C58	C	1.225101	0.095904	0.830292
C59	C	0.683778	-0.451404	0.279655
C60	C	1.183778	0.048596	0.779655
C61	C	0.601230	-0.451412	0.279677
C62	C	1.101230	0.048588	0.779677
C63	C	0.807747	-0.309477	0.431550
C64	C	1.307747	0.190523	0.931550
C65	C	0.807655	-0.404086	0.330272
C66	C	1.307655	0.095914	0.830272
C67	C	1.142091	-0.549203	0.380916
C68	C	1.642091	-0.049203	0.880916
C69	C	1.142118	-0.631517	0.380933
C70	C	1.642118	-0.131517	0.880933
C71	C	1.142291	-0.930608	0.380976
C72	C	1.642291	-0.430608	0.880976
C73	C	1.081356	-0.899288	0.442202
C74	C	1.581356	-0.399288	0.942202
C75	C	1.081066	-0.813670	0.442010
C76	C	1.581066	-0.313670	0.942010
C77	C	1.142205	-0.782225	0.380955
C78	C	1.642205	-0.282225	0.880955
C79	C	1.119658	-0.813379	0.297648
C80	C	1.619658	-0.313379	0.797648
C81	C	1.119266	-0.899024	0.298015
C82	C	1.619266	-0.399024	0.798015
C83	C	1.225907	-0.898955	0.402323
C84	C	1.725907	-0.398955	0.902323
C85	C	1.225415	-0.813304	0.404150
C86	C	1.725415	-0.313304	0.904150
C87	C	1.142158	-0.698366	0.380938
C88	C	1.642158	-0.198366	0.880938
C89	C	1.142337	-1.014467	0.380987
C90	C	1.642337	-0.514467	0.880987
C91	C	1.348365	-0.356817	0.380980
C92	C	1.848365	0.143183	0.880980
C93	C	1.436221	-0.356828	0.380997
C94	C	1.936221	0.143172	0.880997
C95	C	1.142229	-0.356731	0.587108
C96	C	1.642229	0.143269	1.087108
C97	C	1.142243	-0.356705	0.674965
C98	C	1.642243	0.143295	1.174965
C99	C	1.142324	-0.163630	0.380980
C100	C	1.642324	0.336370	0.880980
C101	C	1.142379	-0.081316	0.380998
C102	C	1.642379	0.418684	0.880998
C103	C	1.142209	-0.356800	0.175573
C104	C	1.642209	0.143200	0.675573
C105	C	1.142348	-0.356618	0.087717
C106	C	1.642348	0.143382	0.587717
C107	C	1.091756	-0.403982	1.046423
C108	C	1.591756	0.096018	1.546423
C109	C	1.192920	-0.309271	1.046458
C110	C	1.692920	0.190729	1.546458
C111	C	1.192899	-0.309287	0.963912
C112	C	1.692899	0.190713	1.463912
C113	C	1.142306	-0.356652	0.922618
C114	C	1.642306	0.143348	1.422618
C115	C	1.091735	-0.404001	0.963870
C116	C	1.591735	0.095999	1.463870
C117	C	1.243475	-0.261944	0.922654
C118	C	1.743475	0.238056	1.422654
C119	C	1.243456	-0.261959	0.840103
C120	C	1.743456	0.238041	1.340103
C121	C	1.192859	-0.309320	0.798807
C122	C	1.692859	0.190680	1.298807
C123	C	1.142285	-0.356671	0.840064
C124	C	1.642285	0.143329	1.340064
C125	C	1.091693	-0.404035	0.798770
C126	C	1.591693	0.095965	1.298770
C127	C	1.041115	-0.451383	0.840025
C128	C	1.541115	0.048617	1.340025
C129	C	1.041138	-0.451363	0.922574
C130	C	1.541138	0.048637	1.422574
C131	C	1.192836	-0.309340	0.716259
C132	C	1.692836	0.190660	1.216259
C133	C	1.091672	-0.404054	0.716216
C134	C	1.591672	0.095946	1.216216
H135	H	0.841388	-0.270961	0.472779
H136	H	1.341388	0.229039	0.972779
Br137	Br	1.104575	-0.778555	0.544966
Br138	Br	1.604575	-0.278555	1.044966
H139	H	1.095322	-0.919834	0.504173
H140	H	1.595322	-0.419834	1.004173
Br141	Br	1.301579	-0.932727	0.328011
Br142	Br	1.801579	-0.432727	0.828011
Br143	Br	1.190021	-0.933565	0.219383
Br144	Br	1.690021	-0.433565	0.719383
H145	H	0.567846	-0.223700	0.523482
H146	H	1.067846	0.276300	1.023482
H147	H	1.050466	-0.442618	0.682600
H148	H	1.550466	0.057382	1.182600
Br149	Br	1.191304	-0.779438	0.219536
Br150	Br	1.691304	-0.279438	0.719536
H151	H	1.242418	-0.792939	0.465459
H152	H	1.742418	-0.292939	0.965459
H153	H	0.999926	-0.489950	0.806393
H154	H	1.499926	0.010050	1.306393
Br155	Br	0.977764	-0.779619	0.418448
Br156	Br	1.477764	-0.279619	0.918448
Br157	Br	0.863599	-0.468274	0.261525
Br158	Br	1.363599	0.031726	0.761525
Br159	Br	0.972505	-0.515616	0.978567
Br160	Br	1.472505	-0.015616	1.478567
Br161	Br	1.305093	-0.777615	0.335249
Br162	Br	1.805093	-0.277615	0.835249
H163	H	1.284669	-0.223387	0.956282
H164	H	1.784669	0.276613	1.456282
H165	H	1.234018	-0.270793	0.682673
H166	H	1.734018	0.229207	1.182673
Br167	Br	1.023113	-0.468232	1.102408
Br168	Br	1.523113	0.031768	1.602408
H169	H	0.717356	-0.489919	0.238421
H170	H	1.217356	0.010081	0.738421
H171	H	1.058143	-0.919064	0.279932
H172	H	1.558143	-0.419064	0.779932
Br173	Br	0.545145	-0.515612	0.210963
Br174	Br	1.045145	-0.015612	0.710963
H175	H	1.234114	-0.270713	1.080085
H176	H	1.734114	0.229287	1.580085
H177	H	0.717608	-0.223668	0.523456
H178	H	1.217608	0.276332	1.023456
Br179	Br	1.312095	-0.197702	0.784121
Br180	Br	1.812095	0.302298	1.284121
H181	H	1.019755	-0.920872	0.428239
H182	H	1.519755	-0.420872	0.928239
H183	H	1.059184	-0.791992	0.279242
H184	H	1.559184	-0.291992	0.779242
H185	H	1.246464	-0.920502	0.462035
H186	H	1.746464	-0.420502	0.962035
H187	H	0.443976	-0.271016	0.472867
H188	H	0.943976	0.228984	0.972867
Br189	Br	0.421371	-0.468323	0.261626
Br190	Br	0.921371	0.031677	0.761626
