data_functionalizedCrystal
_audit_creation_method	'MofGen! by Chris Wilmer'
_symmetry_space_group_name_H-M	'P1'
_symmetry_Int_Tables_number	1
_symmetry_cell_setting	triclinic
loop_
_symmetry_equiv_pos_as_xyz
  x,y,z
_cell_length_a	21.295418
_cell_length_b	21.295417
_cell_length_c	21.295411
_cell_angle_alpha	90.020597
_cell_angle_beta	90.043738
_cell_angle_gamma	90.045515
loop_
_atom_site_label
_atom_site_type_symbol
_atom_site_fract_x
_atom_site_fract_y
_atom_site_fract_z
Zn1	Zn	0.962359	-0.250415	0.356238
Zn2	Zn	1.295693	0.082918	0.689572
Zn3	Zn	1.629026	0.416251	1.022905
Zn4	Zn	0.962263	-0.355667	0.250965
Zn5	Zn	1.295597	-0.022334	0.584299
Zn6	Zn	1.628930	0.311000	0.917632
Zn7	Zn	0.857082	-0.250445	0.250948
Zn8	Zn	1.190416	0.082889	0.584281
Zn9	Zn	1.523749	0.416222	0.917615
Zn10	Zn	0.857053	-0.355680	0.356162
Zn11	Zn	1.190387	-0.022346	0.689495
Zn12	Zn	1.523720	0.310987	1.022829
O13	O	0.909690	-0.303052	0.303578
O14	O	1.243023	0.030282	0.636912
O15	O	1.576356	0.363615	0.970245
O16	O	1.050436	-0.264360	0.342313
O17	O	1.383769	0.068974	0.675646
O18	O	1.717103	0.402307	1.008979
O19	O	0.948283	-0.341716	0.162874
O20	O	1.281616	-0.008383	0.496207
O21	O	1.614949	0.324950	0.829540
O22	O	0.871100	-0.162351	0.264940
O23	O	1.204433	0.170982	0.598273
O24	O	1.537767	0.504315	0.931606
O25	O	1.050365	-0.341688	0.264969
O26	O	1.383699	-0.008354	0.598303
O27	O	1.717032	0.324979	0.931636
O28	O	0.948447	-0.162330	0.342296
O29	O	1.281780	0.171004	0.675629
O30	O	1.615113	0.504337	1.008962
O31	O	0.871007	-0.264410	0.162861
O32	O	1.204340	0.068923	0.496194
O33	O	1.537674	0.402257	0.829528
O34	O	0.768989	-0.264422	0.264866
O35	O	1.102323	0.068911	0.598199
O36	O	1.435656	0.402245	0.931532
O37	O	0.871050	-0.341709	0.444262
O38	O	1.204384	-0.008376	0.777595
O39	O	1.537717	0.324958	1.110928
O40	O	0.768968	-0.341738	0.342166
O41	O	1.102301	-0.008404	0.675499
O42	O	1.435634	0.324929	1.008833
O43	O	0.948418	-0.264372	0.444318
O44	O	1.281752	0.068962	0.777651
O45	O	1.615085	0.402295	1.110984
O46	O	0.948254	-0.443758	0.264895
O47	O	1.281588	-0.110425	0.598229
O48	O	1.614921	0.222909	0.931562
O49	O	0.870957	-0.443767	0.342183
O50	O	1.204291	-0.110434	0.675516
O51	O	1.537624	0.222899	1.008850
C52	C	0.746138	-0.303085	0.303506
C53	C	1.079471	0.030249	0.636839
C54	C	1.412805	0.363582	0.970173
C55	C	0.676170	-0.303114	0.303490
C56	C	1.009503	0.030219	0.636823
C57	C	1.342836	0.363553	0.970157
C58	C	0.909609	-0.466603	0.303547
C59	C	1.242943	-0.133270	0.636880
C60	C	1.576276	0.200063	0.970213
C61	C	0.909633	-0.536571	0.303554
C62	C	1.242966	-0.203238	0.636887
C63	C	1.576299	0.130095	0.970221
C64	C	0.643308	-0.343426	0.343680
C65	C	0.976642	-0.010092	0.677013
C66	C	1.309975	0.323241	1.010347
C67	C	0.577566	-0.343410	0.343708
C68	C	0.910899	-0.010077	0.677042
C69	C	1.244233	0.323257	1.010375
C70	C	0.544687	-0.303090	0.303535
C71	C	0.878021	0.030244	0.636869
C72	C	1.211354	0.363577	0.970202
C73	C	0.577557	-0.262770	0.263342
C74	C	0.910890	0.070563	0.596676
C75	C	1.244223	0.403896	0.930009
C76	C	0.643298	-0.262783	0.263320
C77	C	0.976631	0.070551	0.596653
C78	C	1.309964	0.403884	0.929986
N79	N	0.441411	-0.298163	0.248477
N80	N	0.774745	0.035171	0.581811
N81	N	1.108078	0.368504	0.915144
N82	N	0.378960	-0.298155	0.248501
N83	N	0.712293	0.035179	0.581834
N84	N	1.045626	0.368512	0.915167
C85	C	0.346613	-0.303050	0.303602
C86	C	0.679946	0.030284	0.636935
C87	C	1.013279	0.363617	0.970269
N88	N	0.379076	-0.307965	0.358680
N89	N	0.712410	0.025368	0.692013
N90	N	1.045743	0.358702	1.025347
N91	N	0.441533	-0.307976	0.358656
N92	N	0.774867	0.025357	0.691989
N93	N	1.108200	0.358691	1.025323
C94	C	0.473402	-0.303072	0.303556
C95	C	0.806735	0.030262	0.636889
C96	C	1.140069	0.363595	0.970222
C97	C	0.242466	-0.343346	0.343826
C98	C	0.575799	-0.010013	0.677159
C99	C	0.909133	0.323320	1.010493
C100	C	0.176722	-0.343326	0.343855
C101	C	0.510055	-0.009993	0.677189
C102	C	0.843389	0.323340	1.010522
C103	C	0.176714	-0.262690	0.263484
C104	C	0.510047	0.070643	0.596817
C105	C	0.843381	0.403977	0.930150
C106	C	0.242456	-0.262707	0.263460
C107	C	0.575790	0.070627	0.596793
C108	C	0.909123	0.403960	0.930127
C109	C	0.275328	-0.303038	0.303630
C110	C	0.608662	0.030295	0.636964
C111	C	0.941995	0.363628	0.970297
C112	C	0.949884	-0.569370	0.343862
C113	C	1.283217	-0.236036	0.677195
C114	C	1.616551	0.097297	1.010529
C115	C	0.949906	-0.635112	0.343878
C116	C	1.283239	-0.301779	0.677211
C117	C	1.616573	0.031555	1.010544
C118	C	0.909684	-0.668054	0.303574
C119	C	1.243017	-0.334721	0.636907
C120	C	1.576350	-0.001387	0.970240
C121	C	0.869425	-0.635248	0.263263
C122	C	1.202758	-0.301914	0.596596
C123	C	1.536091	0.031419	0.929929
C124	C	0.869399	-0.569507	0.263253
C125	C	1.202732	-0.236173	0.596586
C126	C	1.536066	0.097160	0.929920
N127	N	0.904924	-0.771307	0.248481
N128	N	1.238258	-0.437974	0.581814
N129	N	1.571591	-0.104641	0.915148
N130	N	0.904952	-0.833759	0.248492
N131	N	1.238285	-0.500426	0.581826
N132	N	1.571619	-0.167092	0.915159
C133	C	0.909757	-0.866129	0.303602
C134	C	1.243091	-0.532795	0.636936
C135	C	1.576424	-0.199462	0.970269
N136	N	0.914546	-0.833687	0.358702
N137	N	1.247879	-0.500354	0.692035
N138	N	1.581212	-0.167021	1.025368
N139	N	0.914521	-0.771230	0.358690
N140	N	1.247854	-0.437897	0.692023
N141	N	1.581188	-0.104564	1.025356
C142	C	0.909707	-0.739339	0.303580
C143	C	1.243040	-0.406006	0.636914
C144	C	1.576373	-0.072673	0.970247
C145	C	0.950035	-0.970212	0.343931
C146	C	1.283368	-0.636879	0.677264
C147	C	1.616701	-0.303546	1.010597
C148	C	0.950052	-1.035956	0.343947
C149	C	1.283386	-0.702623	0.677281
C150	C	1.616719	-0.369289	1.010614
C151	C	0.869574	-1.036090	0.263327
C152	C	1.202908	-0.702757	0.596660
C153	C	1.536241	-0.369424	0.929993
C154	C	0.869553	-0.970348	0.263316
C155	C	1.202887	-0.637015	0.596649
C156	C	1.536220	-0.303681	0.929982
C157	C	0.909787	-0.937413	0.303617
C158	C	1.243120	-0.604079	0.636950
C159	C	1.576453	-0.270746	0.970284
C160	C	1.073880	-0.303019	0.303652
C161	C	1.407213	0.030314	0.636985
C162	C	1.740547	0.363648	0.970318
C163	C	1.143848	-0.303005	0.303683
C164	C	1.477181	0.030328	0.637016
C165	C	1.810515	0.363662	0.970349
C166	C	0.909742	-0.303038	0.467769
C167	C	1.243075	0.030295	0.801102
C168	C	1.576408	0.363628	1.134435
C169	C	0.909764	-0.303033	0.537737
C170	C	1.243097	0.030301	0.871070
C171	C	1.576431	0.363634	1.204404
C172	C	0.909787	-0.138861	0.303624
C173	C	1.243121	0.194472	0.636958
C174	C	1.576454	0.527805	0.970291
C175	C	0.909829	-0.068893	0.303644
C176	C	1.243162	0.264440	0.636977
C177	C	1.576496	0.597773	0.970310
C178	C	0.909674	-0.303019	0.140027
C179	C	1.243007	0.030314	0.473360
C180	C	1.576340	0.363647	0.806694
C181	C	0.909774	-0.302848	0.070059
C182	C	1.243107	0.030486	0.403392
C183	C	1.576440	0.363819	0.736726
C184	C	0.950048	-0.262761	0.570634
C185	C	1.283381	0.070572	0.903967
C186	C	1.616714	0.403905	1.237300
C187	C	0.950047	-0.262734	0.636376
C188	C	1.283380	0.070599	0.969710
C189	C	1.616714	0.403933	1.303043
C190	C	0.909769	-0.302989	0.669219
C191	C	1.243102	0.030344	1.002553
C192	C	1.576436	0.363677	1.335886
C193	C	0.869477	-0.343263	0.636315
C194	C	1.202811	-0.009930	0.969648
C195	C	1.536144	0.323403	1.302981
C196	C	0.869475	-0.343285	0.570573
C197	C	1.202808	-0.009952	0.903907
C198	C	1.536142	0.323382	1.237240
N199	N	0.904913	-0.358058	0.772434
N200	N	1.238246	-0.024725	1.105768
N201	N	1.571580	0.308608	1.439101
N202	N	0.904919	-0.358036	0.834886
N203	N	1.238252	-0.024703	1.168219
N204	N	1.571586	0.308631	1.501552
C205	C	0.909773	-0.302926	0.867294
C206	C	1.243106	0.030408	1.200628
C207	C	1.576440	0.363741	1.533961
N208	N	0.914633	-0.247837	0.834892
N209	N	1.247966	0.085496	1.168225
N210	N	1.581300	0.418830	1.501559
N211	N	0.914630	-0.247860	0.772435
N212	N	1.247964	0.085473	1.105768
N213	N	1.581297	0.418807	1.439102
C214	C	0.909767	-0.302970	0.740505
C215	C	1.243100	0.030363	1.073838
C216	C	1.576434	0.363697	1.407172
C217	C	0.950058	-0.262621	0.971477
C218	C	1.283391	0.070712	1.304810
C219	C	1.616725	0.404045	1.638143
C220	C	0.950053	-0.262593	1.037220
C221	C	1.283386	0.070740	1.370554
C222	C	1.616719	0.404074	1.703887
C223	C	0.869486	-0.343128	1.037158
C224	C	1.202820	-0.009795	1.370491
C225	C	1.536153	0.323539	1.703824
C226	C	0.869488	-0.343151	0.971415
C227	C	1.202822	-0.009817	1.304748
C228	C	1.536155	0.323516	1.638082
C229	C	0.909777	-0.302898	0.938579
C230	C	1.243111	0.030435	1.271912
C231	C	1.576444	0.363769	1.605245
H232	H	0.670069	-0.376266	0.376391
H233	H	1.003402	-0.042932	0.709724
H234	H	1.336735	0.290401	1.043057
Br235	Br	1.004732	-0.207992	0.926909
Br236	Br	1.338066	0.125341	1.260242
Br237	Br	1.671399	0.458674	1.593576
H238	H	0.836668	-0.376078	0.543789
H239	H	1.170002	-0.042745	0.877123
H240	H	1.503335	0.290589	1.210456
H241	H	0.982855	-0.229795	1.064004
H242	H	1.316189	0.103538	1.397337
H243	H	1.649522	0.436871	1.730671
H244	H	0.836820	-1.062911	0.230515
H245	H	1.170154	-0.729578	0.563848
H246	H	1.503487	-0.396244	0.897181
H247	H	0.149945	-0.229857	0.230777
H248	H	0.483278	0.103476	0.564110
H249	H	0.816612	0.436809	0.897444
Br250	Br	0.814814	-0.397753	1.081723
Br251	Br	1.148148	-0.064420	1.415057
Br252	Br	1.481481	0.268913	1.748390
Br253	Br	1.004634	-0.925511	0.398625
Br254	Br	1.337968	-0.592177	0.731958
Br255	Br	1.671301	-0.258844	1.065292
H256	H	0.836689	-0.375948	0.944630
H257	H	1.170022	-0.042614	1.277964
H258	H	1.503355	0.290719	1.611297
H259	H	0.982830	-1.062659	0.376774
H260	H	1.316163	-0.729326	0.710107
H261	H	1.649496	-0.395992	1.043441
Br262	Br	0.532958	-0.398121	0.398257
Br263	Br	0.866292	-0.064788	0.731590
Br264	Br	1.199625	0.268545	1.064924
H265	H	0.550783	-0.229940	0.230634
H266	H	0.884116	0.103393	0.563968
H267	H	1.217449	0.436727	0.897301
H268	H	0.982854	-0.229984	0.543902
H269	H	1.316187	0.103349	0.877236
H270	H	1.649520	0.436683	1.210569
H271	H	0.836779	-0.943642	0.230490
H272	H	1.170113	-0.610309	0.563824
H273	H	1.503446	-0.276975	0.897157
H274	H	0.982643	-0.542556	0.376679
H275	H	1.315976	-0.209222	0.710012
H276	H	1.649309	0.124111	1.043346
Br277	Br	1.004706	-0.208061	0.681032
Br278	Br	1.338039	0.125273	1.014365
Br279	Br	1.671373	0.458606	1.347699
H280	H	0.836681	-0.376038	0.663060
H281	H	1.170014	-0.042704	0.996393
H282	H	1.503348	0.290629	1.329727
H283	H	0.670053	-0.229954	0.230592
H284	H	1.003386	0.103379	0.563925
H285	H	1.336720	0.436713	0.897259
Br286	Br	0.814831	-0.679953	0.208570
Br287	Br	1.148164	-0.346619	0.541903
Br288	Br	1.481497	-0.013286	0.875237
Br289	Br	0.287082	-0.398078	0.398344
Br290	Br	0.620415	-0.064744	0.731677
Br291	Br	0.953748	0.268589	1.065010
H292	H	0.269212	-0.229884	0.230730
H293	H	0.602546	0.103450	0.564063
H294	H	0.935879	0.436783	0.897396
Br295	Br	0.132123	-0.398035	0.398410
Br296	Br	0.465456	-0.064701	0.731743
Br297	Br	0.798790	0.268632	1.065076
H298	H	0.836621	-0.542802	0.230429
H299	H	1.169954	-0.209468	0.563762
H300	H	1.503288	0.123865	0.897095
Br301	Br	1.004540	-0.679634	0.398582
Br302	Br	1.337873	-0.346301	0.731916
Br303	Br	1.671206	-0.012967	1.065249
