data_functionalizedCrystal
_audit_creation_method	'MofGen! by Chris Wilmer'
_symmetry_space_group_name_H-M	'P1'
_symmetry_Int_Tables_number	1
_symmetry_cell_setting	triclinic
loop_
_symmetry_equiv_pos_as_xyz
  x,y,z
_cell_length_a	19.188930
_cell_length_b	19.188940
_cell_length_c	16.098538
_cell_angle_alpha	92.713234
_cell_angle_beta	87.256730
_cell_angle_gamma	83.146747
loop_
_atom_site_label
_atom_site_type_symbol
_atom_site_fract_x
_atom_site_fract_y
_atom_site_fract_z
O1	O	0.929296	0.084025	-0.069526
O2	O	0.725982	0.095762	-0.069469
O3	O	0.833502	-0.011761	-0.069492
O4	O	0.821776	0.191549	-0.069502
O5	O	0.827222	-0.005505	0.069022
O6	O	0.719702	0.102018	0.069046
O7	O	0.923015	0.090282	0.068989
Zn8	Zn	0.820361	0.097143	0.091009
Zn9	Zn	0.828636	0.088900	-0.091489
O10	O	0.815495	0.197805	0.069012
C11	C	0.696831	0.098511	-0.000204
C12	C	0.619325	0.097371	-0.000182
C13	C	0.574404	0.160461	-0.000198
C14	C	0.501581	0.159389	-0.000207
C15	C	0.473682	0.095222	-0.000217
C16	C	0.518613	0.032124	-0.000196
C17	C	0.591434	0.033199	-0.000179
N18	N	0.367839	0.044045	-0.047391
N19	N	0.298662	0.043029	-0.047409
C20	C	0.254276	0.091982	-0.000268
N21	N	0.281680	0.142000	0.046882
N22	N	0.350864	0.143018	0.046897
C23	C	0.394720	0.094050	-0.000236
C24	C	0.130391	0.153914	-0.000293
C25	C	0.057566	0.152839	-0.000297
C26	C	0.074600	0.025573	-0.000294
C27	C	0.147423	0.026650	-0.000282
C28	C	0.175314	0.090822	-0.000285
C29	C	0.829981	-0.034644	-0.000235
C30	C	0.828838	-0.112148	-0.000235
C31	C	0.817280	-0.661998	0.075251
C32	C	0.818347	-0.589173	0.075256
C33	C	0.822307	-0.556164	-0.000248
C34	C	0.825183	-0.595983	-0.075761
C35	C	0.824109	-0.668806	-0.075763
N36	N	0.866272	-0.449679	-0.056458
N37	N	0.867293	-0.380501	-0.056451
C38	C	0.825541	-0.336755	-0.000246
N39	N	0.782736	-0.364801	0.055965
N40	N	0.781718	-0.433985	0.055960
C41	C	0.823471	-0.477201	-0.000254
C42	C	0.823816	-0.217979	0.075268
C43	C	0.824879	-0.145152	0.075269
C44	C	0.831722	-0.151965	-0.075750
C45	C	0.830653	-0.224789	-0.075749
C46	C	0.826703	-0.257792	-0.000238
C47	C	0.952167	0.087533	-0.000278
C48	C	1.029673	0.088672	-0.000305
C49	C	0.819016	0.220688	-0.000247
C50	C	0.820160	0.298192	-0.000252
N51	N	0.814719	0.102769	0.215560
N52	N	0.834284	0.083269	-0.216040
C53	C	0.860371	0.057148	0.259135
C54	C	0.856430	0.061089	0.346325
C55	C	0.806840	0.110656	0.389938
C56	C	0.761183	0.156279	0.346357
C57	C	0.765121	0.152334	0.259169
C58	C	0.792565	0.124947	0.653191
C59	C	0.788632	0.128891	0.740385
C60	C	0.883879	0.033699	0.740347
C61	C	0.887815	0.029761	0.653157
C62	C	0.842156	0.075382	0.609584
C63	C	0.802812	0.114688	0.479060
C64	C	0.846180	0.071346	0.520463
H65	H	0.183999	-0.024725	-0.000273
H66	H	0.822532	-0.112739	0.136755
H67	H	0.833002	-0.257204	-0.137232
H68	H	0.762436	0.155047	0.514577
H69	H	0.815989	-0.556751	0.136742
H70	H	0.153100	0.206167	-0.000283
H71	H	0.814063	-0.688864	0.136739
H72	H	0.900756	0.016788	0.223631
H73	H	0.834938	-0.125089	-0.137226
H74	H	0.826453	-0.701219	-0.137249
H75	H	0.893604	0.023941	0.381803
H76	H	0.727945	0.189482	0.223691
H77	H	0.748247	0.169257	0.775891
H78	H	0.828405	-0.569102	-0.137236
H79	H	0.597108	0.212715	-0.000202
H80	H	0.755388	0.162095	0.617720
H81	H	0.921052	-0.003444	0.775833
H82	H	0.051889	-0.026675	-0.000354
H83	H	0.720802	0.196635	0.381872
H84	H	0.820594	-0.244851	0.136753
H85	H	0.886555	0.030986	0.484951
H86	H	0.928196	-0.010600	0.617649
H87	H	0.495894	-0.020121	-0.000216
H88	H	0.464999	0.210766	-0.000218
H89	H	0.628010	-0.018178	-0.000166
H90	H	0.020991	0.204217	-0.000305
