data_functionalizedCrystal
_audit_creation_method	'MofGen! by Chris Wilmer'
_symmetry_space_group_name_H-M	'P1'
_symmetry_Int_Tables_number	1
_symmetry_cell_setting	triclinic
loop_
_symmetry_equiv_pos_as_xyz
  x,y,z
_cell_length_a	16.959455
_cell_length_b	25.639240
_cell_length_c	16.959455
_cell_angle_alpha	90.019493
_cell_angle_beta	90.011839
_cell_angle_gamma	90.029777
loop_
_atom_site_label
_atom_site_type_symbol
_atom_site_fract_x
_atom_site_fract_y
_atom_site_fract_z
Zn1	Zn	1.208247	-0.208289	0.446981
Zn2	Zn	1.208160	-0.295698	0.314780
Zn3	Zn	1.076096	-0.208274	0.314805
Zn4	Zn	1.076011	-0.295691	0.446905
O5	O	1.142129	-0.251988	0.380868
O6	O	1.318847	-0.219894	0.429466
O7	O	1.190641	-0.284098	0.204172
O8	O	1.093698	-0.135111	0.332381
O9	O	1.318783	-0.284113	0.332338
O10	O	1.190789	-0.135122	0.429491
O11	O	1.093613	-0.219868	0.204191
O12	O	0.965474	-0.219861	0.332307
O13	O	1.093554	-0.284100	0.557526
O14	O	0.965412	-0.284085	0.429360
O15	O	1.190707	-0.219887	0.557582
O16	O	1.190559	-0.368862	0.332264
O17	O	1.093469	-0.368857	0.429335
C18	C	0.936762	-0.251971	0.380828
C19	C	0.848906	-0.251976	0.380830
C20	C	0.477386	-0.285394	0.330268
C21	C	0.477474	-0.218626	0.431564
C22	C	0.560020	-0.218617	0.431545
C23	C	0.601253	-0.251998	0.380887
C24	C	0.559940	-0.285387	0.330248
C25	C	0.601339	-0.185232	0.482188
C26	C	0.683890	-0.185223	0.482172
C27	C	0.725125	-0.218601	0.431509
C28	C	0.683806	-0.251991	0.380868
C29	C	0.725039	-0.285372	0.330210
C30	C	0.683723	-0.318760	0.279564
C31	C	0.601174	-0.318766	0.279586
C32	C	0.807673	-0.218596	0.431488
C33	C	0.807593	-0.285366	0.330191
C34	C	1.142017	-0.387831	0.380806
C35	C	1.142042	-0.445945	0.380806
C36	C	1.192709	-0.806275	0.431524
C37	C	1.192733	-0.860879	0.431540
O38	O	1.235679	-0.889088	0.474599
N39	N	1.142238	-0.888227	0.380944
C40	C	1.091712	-0.860968	0.330335
O41	O	1.048764	-0.889243	0.287301
C42	C	1.091685	-0.806364	0.330323
C43	C	1.142188	-0.779019	0.380917
C44	C	1.243208	-0.778930	0.482114
C45	C	1.243185	-0.724330	0.482096
C46	C	1.192664	-0.697074	0.431489
C47	C	1.142166	-0.724419	0.380899
C48	C	1.041155	-0.779106	0.279718
C49	C	1.041132	-0.724499	0.279712
C50	C	1.091636	-0.697154	0.330305
C51	C	1.091623	-0.642563	0.330275
N52	N	1.142117	-0.615215	0.380871
C53	C	1.192638	-0.642471	0.431478
C54	C	1.091771	-0.975638	0.330364
C55	C	1.091801	-1.030241	0.330371
C56	C	1.192821	-1.030149	0.431577
C57	C	1.192794	-0.975545	0.431566
C58	C	1.142265	-0.948291	0.380959
C59	C	1.192587	-0.527806	0.431437
C60	C	1.192562	-0.473200	0.431413
C61	C	1.091540	-0.473297	0.330210
C62	C	1.091567	-0.527898	0.330231
C63	C	1.142093	-0.555151	0.380851
O64	O	1.048695	-0.614319	0.287240
O65	O	1.235571	-0.614189	0.474511
C66	C	1.348297	-0.252006	0.380908
C67	C	1.436153	-0.252013	0.380925
C68	C	1.142131	-0.251994	0.587036
C69	C	1.142132	-0.251997	0.674893
C70	C	1.142262	-0.115615	0.380947
C71	C	1.142319	-0.057501	0.380981
C72	C	1.091550	-0.285432	0.716139
C73	C	1.192710	-0.218561	0.716200
C74	C	1.192710	-0.218560	0.798746
C75	C	1.142128	-0.251995	0.839992
C76	C	1.091546	-0.285431	0.798692
C77	C	1.243284	-0.185122	0.840052
C78	C	1.243285	-0.185119	0.922603
C79	C	1.192707	-0.218557	0.963850
C80	C	1.142124	-0.251994	0.922545
C81	C	1.091542	-0.285429	0.963792
C82	C	1.040963	-0.318870	0.922488
C83	C	1.040968	-0.318869	0.839940
C84	C	1.192702	-0.218558	1.046399
C85	C	1.091538	-0.285429	1.046345
C86	C	1.142121	-0.251994	1.175501
C87	C	1.142120	-0.251993	1.087645
H88	H	0.443743	-0.312576	0.289031
H89	H	1.000030	-0.801361	0.238519
O90	O	0.991860	-0.351298	0.799696
C91	C	0.947062	-0.380949	0.672495
C92	C	1.002705	-0.344191	0.717976
H93	H	0.955822	-0.375224	0.606417
H94	H	0.883316	-0.371763	0.688657
H95	H	0.960893	-0.423104	0.688750
H96	H	0.988945	-0.302024	0.701746
H97	H	1.066433	-0.353422	0.701810
O98	O	1.241709	-0.554329	0.480498
C99	C	1.348494	-0.615879	0.491267
C100	C	1.292897	-0.585885	0.435621
H101	H	1.389904	-0.641391	0.455006
H102	H	1.312234	-0.641483	0.532565
H103	H	1.384540	-0.586936	0.527432
H104	H	1.256839	-0.614791	0.399405
H105	H	1.329202	-0.560274	0.394376
H106	H	0.443897	-0.191452	0.472812
H107	H	1.284307	-0.702068	0.523296
H108	H	0.567761	-0.158059	0.523436
O109	O	0.723899	-0.152739	0.531386
C110	C	0.715267	-0.086533	0.631891
C111	C	0.669858	-0.123287	0.576186
H112	H	0.671595	-0.062720	0.668138
H113	H	0.753889	-0.059117	0.595706
H114	H	0.753945	-0.110583	0.673108
H115	H	0.631138	-0.099279	0.534958
H116	H	0.631286	-0.150705	0.612420
O117	O	1.241735	-0.186062	0.676046
C118	C	1.252442	-0.115459	0.582910
C119	C	1.196827	-0.152238	0.628326
H120	H	1.216156	-0.088095	0.544329
H121	H	1.293733	-0.139443	0.544208
H122	H	1.288616	-0.091587	0.626620
H123	H	1.160602	-0.176118	0.584673
H124	H	1.155589	-0.128223	0.667040
H125	H	0.999775	-0.346089	0.956082
O126	O	1.292404	-0.152704	0.799865
C127	C	1.337243	-0.123075	0.672716
C128	C	1.281574	-0.159818	0.718133
H129	H	1.328494	-0.128806	0.606627
H130	H	1.400981	-0.132271	0.688911
H131	H	1.323426	-0.080916	0.688994
H132	H	1.295320	-0.201990	0.701879
H133	H	1.217853	-0.150577	0.701934
O134	O	1.292495	-0.152624	0.962599
C135	C	1.392803	-0.086277	0.953941
C136	C	1.337125	-0.123058	0.908546
H137	H	1.428889	-0.062355	0.910259
H138	H	1.434165	-0.110259	0.992560
H139	H	1.356527	-0.058959	0.992618
H140	H	1.373337	-0.150383	0.869825
H141	H	1.295761	-0.099042	0.869976
H142	H	0.567527	-0.345948	0.238352
O143	O	0.991964	-0.698001	0.230663
C144	C	0.885257	-0.636391	0.219904
C145	C	0.940875	-0.666376	0.275541
H146	H	0.843948	-0.610807	0.256165
H147	H	0.849111	-0.665294	0.183764
H148	H	0.921582	-0.610846	0.178584
H149	H	0.904610	-0.691922	0.316909
H150	H	0.977024	-0.637445	0.311626
O151	O	0.847685	-0.186120	0.480707
C152	C	0.839057	-0.119928	0.581232
C153	C	0.793646	-0.156672	0.525514
H154	H	0.795385	-0.096118	0.617485
H155	H	0.877683	-0.092509	0.545059
H156	H	0.877729	-0.143986	0.622444
H157	H	0.754931	-0.132657	0.484291
H158	H	0.755069	-0.184093	0.561737
H159	H	1.233918	-0.953284	0.472763
H160	H	1.050450	-0.550163	0.289027
O161	O	1.241754	-0.186095	1.086643
C162	C	1.286618	-0.156481	1.213840
C163	C	1.231009	-0.193264	1.168363
H164	H	1.277962	-0.162272	1.279919
H165	H	1.272770	-0.114310	1.197688
H166	H	1.350338	-0.165657	1.197570
H167	H	1.167270	-0.184135	1.184608
H168	H	1.244925	-0.235424	1.184518
H169	H	0.841159	-0.312547	0.288936
H170	H	0.717305	-0.345941	0.238323
H171	H	1.233691	-0.450938	0.472612
O172	O	1.292251	-0.805343	0.531385
C173	C	1.330508	-0.821994	0.665883
C174	C	1.274919	-0.792045	0.610174
H175	H	1.316504	-0.811262	0.729595
H176	H	1.394259	-0.811210	0.652121
H177	H	1.321880	-0.865717	0.657170
H178	H	1.283477	-0.748316	0.618855
H179	H	1.211190	-0.802873	0.623949
O180	O	1.242007	-1.056607	0.480659
C181	C	1.376430	-1.073218	0.519207
C182	C	1.320821	-1.043229	0.463566
H183	H	1.440161	-1.062404	0.505419
H184	H	1.367835	-1.116946	0.510519
H185	H	1.362450	-1.062476	0.582922
H186	H	1.334767	-1.053926	0.399831
H187	H	1.329426	-0.999507	0.472323
H188	H	1.050685	-1.052500	0.289164
O189	O	1.042666	-0.949246	0.281119
C190	C	0.942441	-0.955112	0.180770
C191	C	0.998025	-0.985062	0.236483
H192	H	0.906323	-0.984056	0.144678
H193	H	0.978711	-0.929556	0.139414
H194	H	0.901098	-0.929545	0.217019
H195	H	1.039379	-1.010657	0.200297
H196	H	0.961705	-1.010584	0.277840
H197	H	1.050409	-0.451097	0.289003
O198	O	1.042328	-0.317925	1.086286
C199	C	0.942028	-0.384278	1.077513
C200	C	0.997705	-0.347494	1.032183
H201	H	0.905948	-0.408202	1.033790
H202	H	0.900661	-0.360297	1.116138
H203	H	0.978305	-0.411593	1.116181
H204	H	0.961492	-0.320171	0.993472
H205	H	1.039075	-0.371507	0.993608
H206	H	1.050372	-0.312659	0.682506
