data_functionalizedCrystal
_audit_creation_method	'MofGen! by Chris Wilmer'
_symmetry_space_group_name_H-M	'P1'
_symmetry_Int_Tables_number	1
_symmetry_cell_setting	triclinic
loop_
_symmetry_equiv_pos_as_xyz
  x,y,z
_cell_length_a	16.992695
_cell_length_b	17.699083
_cell_length_c	16.776229
_cell_angle_alpha	90.007545
_cell_angle_beta	89.994951
_cell_angle_gamma	93.024381
loop_
_atom_site_label
_atom_site_type_symbol
_atom_site_fract_x
_atom_site_fract_y
_atom_site_fract_z
O1	O	1.040088	-0.160469	-0.066259
O2	O	1.540088	0.339531	0.433741
O3	O	0.811806	-0.158709	-0.066268
O4	O	1.311806	0.341291	0.433732
O5	O	0.932397	-0.049801	-0.066256
O6	O	1.432397	0.450199	0.433744
O7	O	0.919498	-0.269377	-0.066271
O8	O	1.419498	0.230623	0.433729
O9	O	0.932381	-0.049793	0.066320
O10	O	1.432381	0.450207	0.566320
O11	O	0.811790	-0.158701	0.066309
O12	O	1.311790	0.341299	0.566309
O13	O	1.040072	-0.160461	0.066317
O14	O	1.540072	0.339539	0.566317
Zn15	Zn	0.925929	-0.159580	0.087362
Zn16	Zn	1.425929	0.340420	0.587362
Zn17	Zn	0.925950	-0.159590	-0.087313
Zn18	Zn	1.425950	0.340410	0.412687
O19	O	0.919482	-0.269369	0.066306
O20	O	1.419482	0.230631	0.566306
C21	C	0.782590	-0.156440	0.000019
C22	C	1.282590	0.343560	0.500019
C23	C	0.695559	-0.149683	0.000016
C24	C	1.195559	0.350317	0.500016
C25	C	0.931927	-0.021572	0.000032
C26	C	1.431927	0.478428	0.500032
C27	C	0.930540	0.062533	0.000032
C28	C	1.430540	0.562533	0.500032
C29	C	1.069289	-0.162730	0.000028
C30	C	1.569289	0.337270	0.500028
C31	C	1.156320	-0.169487	0.000026
C32	C	1.656320	0.330513	0.500026
C33	C	1.206685	-0.104290	0.000028
C34	C	1.706685	0.395710	0.500028
C35	C	1.288459	-0.110643	0.000030
C36	C	1.788459	0.389357	0.500030
C37	C	1.319867	-0.182195	0.000025
C38	C	1.819867	0.317805	0.500025
C39	C	1.269496	-0.247398	0.000026
C40	C	1.769496	0.252602	0.500026
C41	C	1.187723	-0.241043	0.000029
C42	C	1.687723	0.258957	0.500029
C43	C	1.563415	-0.208531	0.000020
C44	C	2.063415	0.291469	0.500020
C45	C	1.645194	-0.214881	0.000015
C46	C	2.145194	0.285119	0.500015
C47	C	1.664152	-0.078125	0.000020
C48	C	2.164152	0.421875	0.500020
C49	C	1.582376	-0.071777	0.000019
C50	C	2.082376	0.428223	0.500019
C51	C	1.532012	-0.136980	0.000024
C52	C	2.032012	0.363020	0.500024
N53	N	1.403454	-0.188691	0.000025
N54	N	1.903454	0.311309	0.500025
N55	N	1.448427	-0.130483	0.000030
N56	N	1.948427	0.369517	0.500030
C57	C	0.919952	-0.297598	0.000016
C58	C	1.419952	0.202402	0.500016
C59	C	0.921339	-0.381703	0.000010
C60	C	1.421339	0.118297	0.500010
N61	N	0.925920	-0.159572	0.206574
N62	N	1.425920	0.340428	0.706574
C63	C	1.001324	0.106747	0.000036
C64	C	1.501324	0.606747	0.500036
C65	C	1.000017	0.185771	0.000029
C66	C	1.500017	0.685771	0.500029
C67	C	0.927924	0.220581	0.000024
C68	C	1.427924	0.720581	0.500024
C69	C	0.857135	0.176361	0.000018
C70	C	1.357135	0.676361	0.500018
C71	C	0.858443	0.097338	0.000019
C72	C	1.358443	0.597338	0.500019
C73	C	0.851857	0.495053	0.000011
C74	C	1.351857	0.995053	0.500011
C75	C	0.850554	0.574082	0.000012
C76	C	1.350554	1.074082	0.500012
C77	C	0.993430	0.583486	0.000021
C78	C	1.493430	1.083486	0.500021
C79	C	0.994739	0.504463	0.000022
C80	C	1.494739	1.004463	0.500022
C81	C	0.923950	0.460250	0.000012
C82	C	1.423950	0.960250	0.500012
C83	C	0.925368	0.374563	0.000018
C84	C	1.425368	0.874563	0.500018
C85	C	0.926505	0.306267	0.000023
C86	C	1.426505	0.806267	0.500023
N87	N	0.925965	-0.159592	-0.206524
N88	N	1.425965	0.340408	0.293476
C89	C	0.979334	-0.111370	0.248296
C90	C	1.479334	0.388630	0.748296
C91	C	0.979338	-0.111370	0.331748
C92	C	1.479338	0.388630	0.831748
C93	C	0.925932	-0.159576	0.373476
C94	C	1.425932	0.340424	0.873476
C95	C	0.872513	-0.207780	0.331748
C96	C	1.372513	0.292220	0.831748
C97	C	0.872505	-0.207776	0.248298
C98	C	1.372505	0.292224	0.748298
C99	C	0.872541	-0.207797	0.668296
C100	C	1.372541	0.292203	1.168296
C101	C	0.872554	-0.207799	0.751752
C102	C	1.372554	0.292201	1.251752
C103	C	0.979374	-0.111390	0.751746
C104	C	1.479374	0.388610	1.251746
C105	C	0.979367	-0.111386	0.668295
C106	C	1.479367	0.388614	1.168295
C107	C	0.925945	-0.159587	0.626574
C108	C	1.425945	0.340413	1.126574
C109	C	0.925940	-0.159586	0.536086
C110	C	1.425940	0.340414	1.036086
C111	C	0.925940	-0.159582	0.463963
C112	C	1.425940	0.340418	0.963963
H113	H	1.181119	-0.046024	0.000027
H114	H	1.681119	0.453976	0.500027
H115	H	1.329463	-0.057552	0.000035
H116	H	1.829463	0.442448	0.500035
C117	C	1.609332	0.062761	0.000042
C118	C	2.109332	0.562761	0.500042
C119	C	1.547855	0.006875	0.000035
C120	C	2.047855	0.506875	0.500035
H121	H	1.588018	0.111318	0.000056
H122	H	2.088018	0.611318	0.500056
H123	H	1.640831	0.057441	-0.046190
H124	H	2.140831	0.557441	0.453810
H125	H	1.640832	0.057433	0.046275
H126	H	2.140832	0.557433	0.546275
H127	H	1.516358	0.012200	-0.046201
H128	H	2.016358	0.512200	0.453799
H129	H	1.516343	0.012198	0.046272
H130	H	2.016343	0.512198	0.546272
C131	C	0.770431	0.400735	0.068154
C132	C	1.270431	0.900735	0.568154
C133	C	0.774050	0.446455	0.000005
C134	C	1.274050	0.946455	0.500005
H135	H	0.722396	0.370726	0.068145
H136	H	1.222396	0.870726	0.568145
H137	H	0.772880	0.431762	0.114378
H138	H	1.272880	0.931762	0.614378
H139	H	0.813558	0.368699	0.068146
H140	H	1.313558	0.868699	0.568146
H141	H	0.730926	0.478495	0.000015
H142	H	1.230926	0.978495	0.500015
H143	H	0.771593	0.415424	-0.046232
H144	H	1.271593	0.915424	0.453768
C145	C	1.654224	-0.333417	-0.068130
C146	C	2.154224	0.166583	0.431870
C147	C	1.679725	-0.293534	0.000017
C148	C	2.179725	0.206466	0.500017
H149	H	1.675541	-0.381972	-0.068124
H150	H	2.175541	0.118028	0.431876
H151	H	1.671520	-0.306370	-0.114356
H152	H	2.171520	0.193630	0.385644
H153	H	1.598315	-0.338968	-0.068116
H154	H	2.098315	0.161032	0.431884
H155	H	1.735634	-0.287978	0.000001
H156	H	2.235634	0.212022	0.500001
H157	H	1.662433	-0.320588	0.046255
H158	H	2.162433	0.179412	0.546255
C159	C	0.765770	-0.217680	0.154473
C160	C	1.265770	0.282320	0.654473
C161	C	0.813792	-0.260763	0.202434
C162	C	1.313792	0.239237	0.702434
H163	H	0.729517	-0.250392	0.126165
H164	H	1.229517	0.249608	0.626165
H165	H	0.797575	-0.188977	0.117683
H166	H	1.297575	0.311023	0.617683
H167	H	0.737639	-0.184461	0.187050
H168	H	1.237639	0.315539	0.687050
H169	H	0.841927	-0.293978	0.169857
H170	H	1.341927	0.206022	0.669857
H171	H	0.781983	-0.289478	0.239229
H172	H	1.281983	0.210522	0.739229
C173	C	1.460470	-0.280727	-0.068138
C174	C	1.960470	0.219273	0.431862
C175	C	1.508063	-0.280202	0.000012
C176	C	2.008063	0.219798	0.500012
H177	H	1.426294	-0.324975	-0.068141
H178	H	1.926294	0.175025	0.431859
H179	H	1.492769	-0.280361	-0.114362
H180	H	1.992769	0.219639	0.385638
H181	H	1.430060	-0.237205	-0.068121
H182	H	1.930060	0.262795	0.431879
H183	H	1.538478	-0.323722	-0.000008
H184	H	2.038478	0.176278	0.499992
H185	H	1.475761	-0.280575	0.046248
H186	H	1.975761	0.219425	0.546248
C187	C	1.146380	-0.355650	-0.068135
C188	C	1.646380	0.144350	0.431865
C189	C	1.132357	-0.312709	0.000022
C190	C	1.632357	0.187291	0.500022
H191	H	1.112195	-0.399892	-0.068138
H192	H	1.612195	0.100108	0.431862
H193	H	1.199569	-0.369674	-0.068133
H194	H	1.699569	0.130326	0.431867
H195	H	1.136874	-0.326508	-0.114359
H196	H	1.636874	0.173492	0.385641
H197	H	1.141869	-0.341849	0.046246
H198	H	1.641869	0.158151	0.546246
H199	H	1.079156	-0.298686	0.000027
H200	H	1.579156	0.201314	0.500027
C201	C	1.278511	-0.365910	0.068175
C202	C	1.778511	0.134090	0.568175
C203	C	1.304017	-0.326050	0.000022
C204	C	1.804017	0.173950	0.500022
H205	H	1.299827	-0.414466	0.068172
H206	H	1.799827	0.085534	0.568172
H207	H	1.222609	-0.371455	0.068172
H208	H	1.722609	0.128545	0.568172
H209	H	1.295814	-0.338847	0.114402
H210	H	1.795814	0.161153	0.614402
H211	H	1.286710	-0.353111	-0.046205
H212	H	1.786710	0.146889	0.453795
H213	H	1.359932	-0.320509	0.000018
H214	H	1.859932	0.179491	0.500018
H215	H	0.798436	0.204709	0.000009
H216	H	1.298436	0.704709	0.500009
H217	H	1.022857	-0.072135	0.634322
H218	H	1.522857	0.427865	1.134322
H219	H	1.060030	0.078411	0.000045
H220	H	1.560030	0.578411	0.500045
C221	C	0.996601	-0.009427	0.845602
C222	C	1.496601	0.490573	1.345602
C223	C	1.038089	-0.058397	0.797608
C224	C	1.538089	0.441603	1.297608
H225	H	1.032850	0.023289	0.873910
H226	H	1.532850	0.523289	1.373910
H227	H	0.964803	-0.038136	0.882393
H228	H	1.464803	0.461864	1.382393
H229	H	0.964023	0.019785	0.813047
H230	H	1.464023	0.519785	1.313047
H231	H	1.070664	-0.087613	0.830164
H232	H	1.570664	0.412387	1.330164
H233	H	1.069901	-0.029685	0.760813
H234	H	1.569901	0.470315	1.260813
H235	H	1.705166	-0.025041	0.000017
H236	H	2.205166	0.474959	0.500017
H237	H	1.051070	0.619494	0.000025
H238	H	1.551070	1.119494	0.500025
H239	H	1.057656	0.221767	0.000034
H240	H	1.557656	0.721767	0.500034
C241	C	1.116929	0.488139	-0.068130
C242	C	1.616929	0.988139	0.431870
C243	C	1.073984	0.466200	0.000024
C244	C	1.573984	0.966200	0.500024
H245	H	1.165850	0.464514	-0.068132
H246	H	1.665850	0.964514	0.431868
H247	H	1.126281	0.541523	-0.068123
H248	H	1.626281	1.041523	0.431877
H249	H	1.087785	0.473246	-0.114356
H250	H	1.587785	0.973246	0.385644
H251	H	1.103126	0.481099	0.046251
H252	H	1.603126	0.981099	0.546251
H253	H	1.064635	0.412804	0.000025
H254	H	1.564635	0.912804	0.500025
H255	H	0.791844	0.602420	0.000009
H256	H	1.291844	1.102420	0.500009
C257	C	0.777035	0.003006	-0.068140
C258	C	1.277035	0.503006	0.431860
C259	C	0.780635	0.048735	0.000015
C260	C	1.280635	0.548735	0.500015
H261	H	0.728995	-0.026995	-0.068147
H262	H	1.228995	0.473005	0.431853
H263	H	0.820153	-0.029030	-0.068131
H264	H	1.320153	0.470970	0.431869
H265	H	0.779502	0.034034	-0.114366
H266	H	1.279502	0.534034	0.385634
H267	H	0.778173	0.017707	0.046241
H268	H	1.278173	0.517707	0.546241
H269	H	0.737505	0.080774	0.000013
H270	H	1.237505	0.580774	0.500013
C271	C	1.084919	-0.016067	0.256680
C272	C	1.584919	0.483933	0.756680
C273	C	1.038039	-0.058378	0.202432
C274	C	1.538039	0.441622	0.702432
H275	H	1.121157	0.016654	0.228366
H276	H	1.621157	0.516654	0.728366
H277	H	1.113060	-0.049291	0.289215
H278	H	1.613060	0.450709	0.789215
H279	H	1.052332	0.013143	0.289243
H280	H	1.552332	0.513143	0.789243
H281	H	1.070626	-0.087592	0.169873
H282	H	1.570626	0.412408	0.669873
H283	H	1.009897	-0.025149	0.169884
H284	H	1.509897	0.474851	0.669884
H285	H	1.022831	-0.072120	0.365718
H286	H	1.522831	0.427880	0.865718
H287	H	0.829062	-0.247055	0.785726
H288	H	1.329062	0.252945	1.285726
C289	C	0.766960	-0.303100	0.676696
C290	C	1.266960	0.196900	1.176696
C291	C	0.813827	-0.260785	0.622443
C292	C	1.313827	0.239215	1.122443
H293	H	0.730714	-0.335818	0.648384
H294	H	1.230714	0.164182	1.148384
H295	H	0.738827	-0.269878	0.709255
H296	H	1.238827	0.230122	1.209255
H297	H	0.799554	-0.332313	0.709233
H298	H	1.299554	0.167687	1.209233
H299	H	0.781233	-0.231568	0.589910
H300	H	1.281233	0.268432	1.089910
H301	H	0.841961	-0.294011	0.589870
H302	H	1.341961	0.205989	1.089870
H303	H	0.829024	-0.247028	0.365729
H304	H	1.329024	0.252972	0.865729
