data_functionalizedCrystal
_audit_creation_method	'MofGen! by Chris Wilmer'
_symmetry_space_group_name_H-M	'P1'
_symmetry_Int_Tables_number	1
_symmetry_cell_setting	triclinic
loop_
_symmetry_equiv_pos_as_xyz
  x,y,z
_cell_length_a	14.044220
_cell_length_b	14.853558
_cell_length_c	13.330367
_cell_angle_alpha	89.992972
_cell_angle_beta	90.003147
_cell_angle_gamma	91.589994
loop_
_atom_site_label
_atom_site_type_symbol
_atom_site_fract_x
_atom_site_fract_y
_atom_site_fract_z
O1	O	-0.123725	1.206176	-0.083409
O2	O	0.376275	1.706176	0.416591
O3	O	-0.138477	0.944885	-0.083414
O4	O	0.361523	1.444885	0.416586
O5	O	0.006889	1.071609	-0.083407
O6	O	0.506889	1.571609	0.416593
O7	O	-0.269091	1.079453	-0.083416
O8	O	0.230909	1.579453	0.416584
O9	O	0.006892	1.071588	0.083440
O10	O	0.506892	1.571588	0.583440
O11	O	-0.138474	0.944864	0.083434
O12	O	0.361526	1.444864	0.583434
O13	O	-0.123721	1.206156	0.083438
O14	O	0.376279	1.706156	0.583438
Cu15	Cu	-0.131097	1.075508	0.098670
Cu16	Cu	0.368903	1.575508	0.598670
Cu17	Cu	-0.131101	1.075532	-0.098646
Cu18	Cu	0.368899	1.575532	0.401354
O19	O	-0.269087	1.079432	0.083431
O20	O	0.230913	1.579432	0.583431
C21	C	-0.137809	0.911233	0.000009
C22	C	0.362191	1.411233	0.500009
C23	C	-0.135810	0.810990	0.000008
C24	C	0.364190	1.310990	0.500008
C25	C	-0.134875	0.763907	-0.090944
C26	C	0.365125	1.263907	0.409056
C27	C	-0.134860	0.763882	0.090959
C28	C	0.365140	1.263882	0.590959
C29	C	-0.132978	0.669700	0.090960
C30	C	0.367022	1.169700	0.590960
C31	C	-0.132042	0.622616	0.000008
C32	C	0.367958	1.122616	0.500008
C33	C	-0.132989	0.669716	-0.090946
C34	C	0.367011	1.169716	0.409054
C35	C	-0.132021	0.622593	0.181913
C36	C	0.367979	1.122593	0.681913
C37	C	-0.130137	0.528405	0.181918
C38	C	0.369863	1.028405	0.681918
C39	C	-0.129208	0.481320	0.090965
C40	C	0.370792	0.981320	0.590965
C41	C	-0.130156	0.528425	0.000007
C42	C	0.369844	1.028425	0.500007
C43	C	-0.129221	0.481341	-0.090945
C44	C	0.370779	0.981341	0.409055
C45	C	-0.130176	0.528445	-0.181904
C46	C	0.369824	1.028445	0.318096
C47	C	-0.132061	0.622630	-0.181899
C48	C	0.367939	1.122630	0.318101
C49	C	-0.127324	0.387134	0.090960
C50	C	0.372676	0.887134	0.590960
C51	C	-0.127335	0.387150	-0.090946
C52	C	0.372665	0.887150	0.409054
C53	C	-0.304408	1.082876	0.000007
C54	C	0.195592	1.582876	0.500007
C55	C	-0.409647	1.093118	0.000003
C56	C	0.090353	1.593118	0.500003
C57	C	-0.602332	1.111842	0.000008
C58	C	-0.102332	1.611842	0.500008
C59	C	-0.659872	1.039203	0.000008
C60	C	-0.159872	1.539203	0.500008
C61	C	-0.767089	1.049621	0.000010
C62	C	-0.267089	1.549621	0.500010
C63	C	-0.495105	1.101425	0.000005
C64	C	0.004895	1.601425	0.500005
C65	C	0.042209	1.068165	0.000016
C66	C	0.542209	1.568165	0.500016
C67	C	0.147448	1.057923	0.000012
C68	C	0.647448	1.557923	0.500012
C69	C	-0.124390	1.239808	0.000013
C70	C	0.375610	1.739808	0.500013
C71	C	-0.126388	1.340050	0.000008
C72	C	0.373612	1.840050	0.500008
N73	N	-0.131094	1.075498	0.237452
N74	N	0.368906	1.575498	0.737452
N75	N	-0.131097	1.075549	-0.237427
N76	N	0.368903	1.575549	0.262573
C77	C	-0.195444	1.019414	0.710072
C78	C	0.304556	1.519414	1.210072
C79	C	-0.066751	1.131674	0.710046
C80	C	0.433249	1.631674	1.210046
C81	C	-0.066748	1.131664	0.605027
C82	C	0.433252	1.631664	1.105027
C83	C	-0.131095	1.075529	0.552526
C84	C	0.368905	1.575529	1.052526
C85	C	-0.195445	1.019404	0.605044
C86	C	0.304555	1.519404	1.105044
C87	C	-0.002406	1.187794	0.552502
C88	C	0.497594	1.687794	1.052502
C89	C	-0.002401	1.187786	0.447477
C90	C	0.497599	1.687786	0.947477
C91	C	-0.066744	1.131646	0.394974
C92	C	0.433256	1.631646	0.894974
C93	C	-0.131096	1.075519	0.447498
C94	C	0.368904	1.575519	0.947498
C95	C	-0.195443	1.019384	0.394997
C96	C	0.304557	1.519384	0.894997
C97	C	-0.259791	0.963251	0.447519
C98	C	0.240209	1.463251	0.947519
C99	C	-0.259788	0.963264	0.552541
C100	C	0.240212	1.463264	1.052541
C101	C	-0.066747	1.131633	0.289953
C102	C	0.433253	1.631633	0.789953
C103	C	-0.195444	1.019373	0.289969
C104	C	0.304556	1.519373	0.789969
H105	H	-0.135614	0.802224	0.165008
H106	H	0.364386	1.302224	0.665008
F107	F	-0.643190	1.203348	0.000013
F108	F	-0.143190	1.703348	0.500013
H109	H	-0.247840	0.973658	0.247229
H110	H	0.252160	1.473658	0.747229
F111	F	-0.328277	0.903515	0.391633
F112	F	0.171723	1.403515	0.891633
H113	H	-0.312179	0.917563	0.595311
H114	H	0.187821	1.417563	1.095311
H115	H	0.049979	1.233502	0.595252
H116	H	0.549979	1.733502	1.095252
H117	H	-0.129409	0.490097	-0.255957
H118	H	0.370591	0.990097	0.244043
F119	F	-0.133068	0.672767	-0.278694
F120	F	0.366932	1.172767	0.221306
H121	H	-0.247833	0.973709	0.752838
H122	H	0.252167	1.473709	1.252838
F123	F	0.066084	1.247524	0.391587
F124	F	0.566084	1.747524	0.891587
F125	F	0.001723	1.191420	0.765920
F126	F	0.501723	1.691420	1.265920
H127	H	-0.628611	0.969190	0.000007
H128	H	-0.128611	1.469190	0.500007
F129	F	-0.133018	0.672707	0.278703
F130	F	0.366982	1.172707	0.778703
H131	H	-0.126579	0.348821	-0.165011
H132	H	0.373421	0.848821	0.334989
F133	F	-0.135893	0.814037	-0.187744
F134	F	0.364107	1.314037	0.312256
H135	H	-0.014360	1.177340	0.247194
H136	H	0.485640	1.677340	0.747194
H137	H	-0.126555	0.348786	0.165017
H138	H	0.373445	0.848786	0.665017
F139	F	-0.129130	0.478282	0.278723
F140	F	0.370870	0.978282	0.778723
