data_functionalizedCrystal
_audit_creation_method	'MofGen! by Chris Wilmer'
_symmetry_space_group_name_H-M	'P1'
_symmetry_Int_Tables_number	1
_symmetry_cell_setting	triclinic
loop_
_symmetry_equiv_pos_as_xyz
  x,y,z
_cell_length_a	10.654548
_cell_length_b	11.892095
_cell_length_c	12.837943
_cell_angle_alpha	85.689438
_cell_angle_beta	89.656620
_cell_angle_gamma	93.928748
loop_
_atom_site_label
_atom_site_type_symbol
_atom_site_fract_x
_atom_site_fract_y
_atom_site_fract_z
O1	O	0.319512	-0.093974	1.384375
O2	O	0.303370	-0.093981	1.082454
O3	O	0.129459	-0.093975	1.240357
O4	O	0.493422	-0.093980	1.226473
O5	O	0.143935	0.094032	1.227192
O6	O	0.317846	0.094026	1.069289
O7	O	0.333987	0.094033	1.371210
Zn8	Zn	0.328215	0.123879	1.218159
Zn9	Zn	0.309143	-0.123828	1.235505
O10	O	0.507898	0.094027	1.213307
C11	C	0.305155	0.000021	1.037212
C12	C	0.288893	0.000018	0.922018
C13	C	0.089788	0.000026	1.232755
C14	C	-0.049989	0.000021	1.229706
N15	N	0.341231	0.292933	1.206328
C16	C	-0.254882	-0.102463	1.232569
C17	C	-0.123548	-0.102463	1.235447
C18	C	-0.107770	0.102512	1.221098
C19	C	-0.239102	0.102511	1.218228
C20	C	-0.328434	-0.204954	1.238299
C21	C	-0.270662	-0.307446	1.246909
C22	C	-0.139328	-0.307446	1.249787
C23	C	-0.065766	-0.204955	1.244055
C24	C	0.547569	0.000023	1.220909
C25	C	0.687345	0.000021	1.223958
N26	N	0.296117	-0.292882	1.247344
C27	C	0.205471	0.529585	1.329669
C28	C	0.214579	0.647927	1.321407
C29	C	0.368549	0.647960	1.181537
C30	C	0.359441	0.529618	1.189799
C31	C	0.277900	0.470435	1.263869
C32	C	0.268799	0.352091	1.272135
C33	C	0.422762	0.352126	1.132261
C34	C	0.431870	0.470468	1.123999
C35	C	0.484398	0.000032	0.682463
C36	C	0.469124	0.000030	0.574228
C37	C	0.243071	0.000021	0.597309
C38	C	0.258346	0.000023	0.705545
C39	C	0.379013	0.000027	0.748118
C40	C	0.394285	0.000020	0.856356
C41	C	0.168235	0.000019	0.879434
C42	C	0.152960	0.000018	0.771199
C43	C	0.332202	0.000028	1.416452
C44	C	0.348464	0.000023	1.531647
H45	H	-0.435374	-0.204965	1.235953
O46	O	-0.083089	-0.406945	1.257959
C47	C	-0.004163	-0.413052	1.170309
H48	H	0.023561	-0.324055	1.134661
H49	H	-0.056274	-0.463553	1.109908
C50	C	0.080942	-0.581032	1.248095
C51	C	0.115002	-0.471723	1.204316
H52	H	0.154446	-0.617228	1.269069
H53	H	0.027765	-0.576921	1.307145
H54	H	0.037514	-0.623102	1.197754
H55	H	0.158414	-0.429651	1.254661
H56	H	0.168189	-0.475829	1.145274
H57	H	0.041174	-0.204964	1.246408
H58	H	0.202409	0.303906	1.332449
O59	O	0.447574	0.705591	1.109536
C60	C	0.377806	0.774029	1.040260
H61	H	0.285783	0.791728	1.079643
H62	H	0.356538	0.728441	0.966703
C63	C	0.567656	0.864723	0.962380
C64	C	0.454636	0.886469	1.010754
H65	H	0.615049	0.934079	0.944174
H66	H	0.614661	0.818612	1.009049
H67	H	0.549916	0.826730	0.901088
H68	H	0.472377	0.924448	1.072051
H69	H	0.407636	0.932588	0.964094
O70	O	0.065992	0.000060	0.943358
C71	C	0.105340	0.000026	1.048022
H72	H	0.207297	0.035630	1.050399
H73	H	0.097385	-0.090174	1.085591
C74	C	-0.103884	0.030010	1.105473
C75	C	0.021337	0.073748	1.108393
H76	H	-0.155704	0.075480	1.142715
H77	H	-0.130396	0.030029	1.034959
H78	H	-0.110495	-0.045156	1.136779
H79	H	0.027949	0.148907	1.077076
H80	H	0.047848	0.073743	1.178903
H81	H	0.144837	0.000111	0.562620
O82	O	0.510906	0.528090	1.052000
C83	C	0.441159	0.596534	0.982713
H84	H	0.349135	0.614248	1.022086
H85	H	0.419893	0.550943	0.909157
C86	C	0.631031	0.687198	0.904847
C87	C	0.518010	0.708963	0.953208
H88	H	0.678437	0.756548	0.886642
H89	H	0.678022	0.641084	0.951524
H90	H	0.613293	0.649203	0.843556
H91	H	0.535749	0.746944	1.014504
H92	H	0.471024	0.755087	0.906541
O93	O	0.126104	0.472126	1.401513
C94	C	0.001867	0.501046	1.381777
H95	H	-0.006262	0.533607	1.296442
H96	H	-0.022849	0.569712	1.434235
C97	C	-0.079488	0.355906	1.509437
C98	C	-0.089475	0.395889	1.404625
H99	H	-0.135834	0.291043	1.523535
H100	H	0.004213	0.336424	1.522737
H101	H	-0.100083	0.413137	1.553140
H102	H	-0.068865	0.338664	1.360924
H103	H	-0.173174	0.415359	1.391317
O104	O	-0.295027	0.202163	1.209811
C105	C	-0.201950	0.292624	1.205385
H106	H	-0.109365	0.262585	1.176744
H107	H	-0.188794	0.324137	1.286572
C108	C	-0.356829	0.426343	1.164744
C109	C	-0.243118	0.389450	1.129559
H110	H	-0.382224	0.486072	1.117975
H111	H	-0.419539	0.365398	1.167730
H112	H	-0.345851	0.452596	1.232400
H113	H	-0.254102	0.363185	1.061910
H114	H	-0.180411	0.450393	1.126560
H115	H	-0.047866	0.185955	1.216430
H116	H	0.492538	0.000025	0.891016
O117	O	0.144274	0.705561	1.385216
C118	C	0.169819	0.822704	1.362063
H119	H	0.208119	0.838888	1.278788
H120	H	0.242509	0.856273	1.418895
C121	C	0.000753	0.863581	1.474771
C122	C	0.047784	0.883459	1.372488
H123	H	-0.074521	0.901059	1.481206
H124	H	-0.016454	0.784660	1.490373
H125	H	0.061340	0.891556	1.522120
H126	H	-0.012796	0.855472	1.325143
H127	H	0.064979	0.962377	1.356878
O128	O	0.601698	0.000078	0.723651
C129	C	0.691439	0.000044	0.642495
H130	H	0.650162	0.035639	0.566230
H131	H	0.717618	-0.090155	0.633752
C132	C	0.860559	0.030049	0.762344
C133	C	0.809866	0.073777	0.668676
H134	H	0.933613	0.075526	0.778495
H135	H	0.800100	0.030068	0.817022
H136	H	0.882365	-0.045115	0.755046
H137	H	0.788047	0.148934	0.675979
H138	H	0.870324	0.073772	0.613999
O139	O	0.493003	0.294492	1.068393
C140	C	0.467515	0.177349	1.091589
H141	H	0.371000	0.161170	1.130765
H142	H	0.542328	0.143767	1.146492
C143	C	0.587531	0.136476	0.941726
C144	C	0.468985	0.116605	0.989835
H145	H	0.588443	0.099005	0.878960
H146	H	0.604707	0.215398	0.926099
H147	H	0.649863	0.108491	0.987489
H148	H	0.406658	0.144603	0.944077
H149	H	0.451798	0.037687	1.005451
H150	H	0.554940	0.000038	0.520775
H151	H	-0.330564	-0.390890	1.251584
H152	H	0.054717	0.000027	0.736519
