data_functionalizedCrystal
_audit_creation_method	'MofGen! by Chris Wilmer'
_symmetry_space_group_name_H-M	'P1'
_symmetry_Int_Tables_number	1
_symmetry_cell_setting	triclinic
loop_
_symmetry_equiv_pos_as_xyz
  x,y,z
_cell_length_a	16.109301
_cell_length_b	14.853567
_cell_length_c	14.586319
_cell_angle_alpha	90.000002
_cell_angle_beta	89.999213
_cell_angle_gamma	83.548205
loop_
_atom_site_label
_atom_site_type_symbol
_atom_site_fract_x
_atom_site_fract_y
_atom_site_fract_z
O1	O	1.103294	0.115881	-0.076175
O2	O	1.436627	0.449214	0.257159
O3	O	1.769960	0.782547	0.590492
O4	O	0.861252	0.130302	-0.076188
O5	O	1.194585	0.463635	0.257145
O6	O	1.527919	0.796969	0.590479
O7	O	0.988738	-0.008149	-0.076184
O8	O	1.322071	0.325184	0.257150
O9	O	1.655405	0.658517	0.590483
O10	O	0.975807	0.254332	-0.076179
O11	O	1.309141	0.587665	0.257154
O12	O	1.642474	0.920998	0.590488
O13	O	0.988729	-0.008151	0.076297
O14	O	1.322062	0.325182	0.409630
O15	O	1.655396	0.658515	0.742964
O16	O	0.861243	0.130300	0.076293
O17	O	1.194576	0.463633	0.409626
O18	O	1.527910	0.796966	0.742959
O19	O	1.103285	0.115879	0.076306
O20	O	1.436618	0.449212	0.409640
O21	O	1.769951	0.782545	0.742973
Cu22	Cu	0.982263	0.123089	0.090222
Cu23	Cu	1.315596	0.456422	0.423555
Cu24	Cu	1.648930	0.789756	0.756889
Cu25	Cu	0.982274	0.123091	-0.090104
Cu26	Cu	1.315607	0.456425	0.243229
Cu27	Cu	1.648940	0.789758	0.576563
O28	O	0.975799	0.254330	0.076302
O29	O	1.309132	0.587663	0.409635
O30	O	1.642465	0.920996	0.742969
C31	C	0.830272	0.129717	0.000050
C32	C	1.163605	0.463050	0.333384
C33	C	1.496938	0.796383	0.666717
C34	C	0.737974	0.127965	0.000045
C35	C	1.071307	0.461299	0.333378
C36	C	1.404641	0.794632	0.666712
C37	C	0.988148	-0.041738	0.000054
C38	C	1.321481	0.291595	0.333387
C39	C	1.654814	0.624929	0.666721
C40	C	0.986392	-0.141819	0.000046
C41	C	1.319725	0.191515	0.333379
C42	C	1.653059	0.524848	0.666713
C43	C	0.515811	0.206047	0.000057
C44	C	0.849145	0.539380	0.333390
C45	C	1.182478	0.872714	0.666724
C46	C	0.429089	0.204395	0.000063
C47	C	0.762422	0.537728	0.333396
C48	C	1.095755	0.871061	0.666729
C49	C	0.448732	0.040127	0.000056
C50	C	0.782065	0.373460	0.333389
C51	C	1.115399	0.706794	0.666723
C52	C	0.535453	0.041781	0.000057
C53	C	0.868787	0.375114	0.333390
C54	C	1.202120	0.708447	0.666723
C55	C	0.568990	0.124743	0.000052
C56	C	0.902323	0.458077	0.333386
C57	C	1.235657	0.791410	0.666719
C58	C	0.395546	0.121437	0.000058
C59	C	0.728880	0.454770	0.333391
C60	C	1.062213	0.788104	0.666724
C61	C	0.301518	0.119645	0.000064
C62	C	0.634851	0.452978	0.333397
C63	C	0.968185	0.786311	0.666731
C64	C	0.663025	0.126536	0.000048
C65	C	0.996358	0.459870	0.333381
C66	C	1.329691	0.793203	0.666714
C67	C	0.903241	-0.554215	0.000059
C68	C	1.236574	-0.220882	0.333392
C69	C	1.569907	0.112451	0.666725
C70	C	1.054697	-0.575746	0.000067
C71	C	1.388030	-0.242413	0.333400
C72	C	1.721364	0.090920	0.666734
C73	C	1.056348	-0.481715	0.000062
C74	C	1.389681	-0.148382	0.333395
C75	C	1.723015	0.184951	0.666728
C76	C	0.981444	-0.423930	0.000056
C77	C	1.314777	-0.090596	0.333390
C78	C	1.648111	0.242737	0.666723
C79	C	0.904889	-0.460175	0.000056
C80	C	1.238223	-0.126842	0.333389
C81	C	1.571556	0.206491	0.666723
C82	C	1.132901	-0.445463	0.000071
C83	C	1.466235	-0.112129	0.333405
C84	C	1.799568	0.221204	0.666738
C85	C	1.134555	-0.351426	0.000067
C86	C	1.467889	-0.018093	0.333400
C87	C	1.801222	0.315240	0.666734
C88	C	1.059650	-0.293639	0.000055
C89	C	1.392984	0.039694	0.333388
C90	C	1.726317	0.373028	0.666722
C91	C	0.983093	-0.329890	0.000054
C92	C	1.316426	0.003444	0.333387
C93	C	1.649759	0.336777	0.666720
C94	C	0.908189	-0.272104	0.000048
C95	C	1.241522	0.061229	0.333382
C96	C	1.574855	0.394563	0.666715
C97	C	0.831630	-0.308353	0.000040
C98	C	1.164963	0.024980	0.333374
C99	C	1.498296	0.358314	0.666707
C100	C	0.829984	-0.402388	0.000044
C101	C	1.163318	-0.069054	0.333377
C102	C	1.496651	0.264279	0.666711
C103	C	1.061296	-0.199604	0.000051
C104	C	1.394629	0.133729	0.333385
C105	C	1.727963	0.467062	0.666718
C106	C	0.909837	-0.178064	0.000046
C107	C	1.243171	0.155269	0.333379
C108	C	1.576504	0.488603	0.666712
C109	C	1.134265	0.116464	0.000066
C110	C	1.467598	0.449797	0.333399
C111	C	1.800932	0.783130	0.666732
C112	C	1.226563	0.118215	0.000065
C113	C	1.559896	0.451549	0.333399
C114	C	1.893229	0.784882	0.666732
C115	C	0.976389	0.287918	0.000062
C116	C	1.309722	0.621252	0.333395
C117	C	1.643056	0.954585	0.666729
C118	C	0.978145	0.387999	0.000064
C119	C	1.311478	0.721333	0.333397
C120	C	1.644811	1.054666	0.666731
N121	N	0.982262	0.123087	0.217054
N122	N	1.315595	0.456420	0.550387
N123	N	1.648928	0.789753	0.883721
N124	N	0.982281	0.123087	-0.216936
N125	N	1.315615	0.456420	0.116398
N126	N	1.648948	0.789753	0.449731
C127	C	1.038731	0.061801	0.452062
C128	C	1.372065	0.395135	0.785396
C129	C	1.705398	0.728468	1.118729
C130	C	1.038734	0.061799	0.548044
C131	C	1.372067	0.395132	0.881377
C132	C	1.705400	0.728466	1.214710
C133	C	0.925806	0.184375	0.548049
C134	C	1.259139	0.517708	0.881382
C135	C	1.592472	0.851042	1.214716
C136	C	0.925800	0.184372	0.452070
C137	C	1.259133	0.517706	0.785403
C138	C	1.592467	0.851039	1.118736
C139	C	0.982268	0.123086	0.404079
C140	C	1.315601	0.456420	0.737412
C141	C	1.648934	0.789753	1.070745
C142	C	0.982276	0.123087	0.596039
C143	C	1.315609	0.456420	0.929373
C144	C	1.648942	0.789754	1.262706
C145	C	0.982278	0.123085	0.700107
C146	C	1.315611	0.456418	1.033440
C147	C	1.648944	0.789752	1.366773
C148	C	0.982265	0.123087	0.300005
C149	C	1.315598	0.456420	0.633338
C150	C	1.648931	0.789754	0.966672
H151	H	0.543114	0.273601	0.000060
H152	H	0.876447	0.606934	0.333394
H153	H	1.209781	0.940267	0.666727
H154	H	1.193884	-0.492518	0.000084
H155	H	1.527217	-0.159185	0.333418
H156	H	1.860551	0.174149	0.666751
F157	F	0.748512	-0.440973	0.000033
F158	F	1.081846	-0.107640	0.333366
F159	F	1.415179	0.225693	0.666700
F160	F	0.865714	0.249599	0.599131
F161	F	1.199047	0.582932	0.932464
F162	F	1.532381	0.916266	1.265797
H163	H	0.385793	0.270600	0.000068
H164	H	0.719126	0.603934	0.333402
H165	H	1.052460	0.937267	0.666735
H166	H	1.084711	0.011894	0.587109
H167	H	1.418044	0.345227	0.920443
H168	H	1.751377	0.678561	1.253776
H169	H	0.421415	-0.027418	0.000065
H170	H	0.754749	0.305915	0.333398
H171	H	1.088082	0.639248	0.666731
F172	F	0.592054	-0.044759	0.000058
F173	F	0.925387	0.288575	0.333391
F174	F	1.258721	0.621908	0.666725
F175	F	0.865697	0.249600	0.400998
F176	F	1.199031	0.582933	0.734331
F177	F	1.532364	0.916267	1.067665
H178	H	1.123629	-0.170094	0.000064
H179	H	1.456962	0.163239	0.333397
H180	H	1.790295	0.496572	0.666730
F181	F	0.830112	-0.116571	0.000033
F182	F	1.163445	0.216763	0.333367
F183	F	1.496779	0.550096	0.666700
H184	H	0.770643	-0.261292	0.000042
H185	H	1.103977	0.072042	0.333376
H186	H	1.437310	0.405375	0.666709
F187	F	0.821765	-0.592794	0.000043
F188	F	1.155099	-0.259460	0.333376
F189	F	1.488432	0.073873	0.666709
H190	H	1.115680	-0.622800	0.000079
H191	H	1.449014	-0.289467	0.333412
H192	H	1.782347	0.043866	0.666746
F193	F	1.098827	-0.003427	0.400990
F194	F	1.432160	0.329906	0.734324
F195	F	1.765494	0.663240	1.067657
H196	H	1.196894	-0.321921	0.000072
H197	H	1.530227	0.011412	0.333405
H198	H	1.863561	0.344746	0.666739
