data_functionalizedCrystal
_audit_creation_method	'MofGen! by Chris Wilmer'
_symmetry_space_group_name_H-M	'P1'
_symmetry_Int_Tables_number	1
_symmetry_cell_setting	triclinic
loop_
_symmetry_equiv_pos_as_xyz
  x,y,z
_cell_length_a	6.817900
_cell_length_b	16.418042
_cell_length_c	10.992421
_cell_angle_alpha	93.841620
_cell_angle_beta	108.764763
_cell_angle_gamma	103.389568
loop_
_atom_site_label
_atom_site_type_symbol
_atom_site_fract_x
_atom_site_fract_y
_atom_site_fract_z
V1	V	-4.052658	-0.261142	-0.178805
O2	O	-4.011955	-0.256183	0.007518
O3	O	-4.030660	-0.259344	-0.353507
O4	O	-4.003387	-0.375040	-0.176526
O5	O	-4.039417	-0.139686	-0.170688
V6	V	-4.532977	-0.246616	-0.156463
O7	O	-4.320943	-0.293005	-0.227814
O8	O	-4.714889	-0.214753	-0.107454
O9	O	-4.331768	-0.248414	0.018239
O10	O	-4.691077	-0.251575	-0.342785
O11	O	-4.663614	-0.368072	-0.164580
O12	O	-4.359042	-0.132718	-0.158742
C13	C	-3.882112	-0.255222	-0.396080
C14	C	-3.945408	-0.254511	-0.538904
C15	C	-3.847321	-0.402802	-0.170322
C16	C	-3.888495	-0.495915	-0.169615
C17	C	-4.166240	-0.714400	-0.174394
C18	C	-4.204906	-0.801888	-0.173719
C19	C	-3.838750	-0.793346	-0.160867
C20	C	-3.800082	-0.705859	-0.161533
C21	C	-3.963837	-0.666389	-0.168304
C22	C	-4.041171	-0.841364	-0.166962
C23	C	-4.083094	-0.936222	-0.166229
C24	C	-3.921912	-0.571525	-0.169034
C25	C	-3.814423	-0.248783	-0.734169
C26	C	-3.748245	-0.249190	-0.585526
C27	C	-4.034439	-0.176401	-0.577227
C28	C	-4.098870	-0.175574	-0.725767
C29	C	-4.192611	-0.335695	-0.764989
C30	C	-4.123157	-0.337390	-0.616482
C31	C	-4.143659	-0.252534	0.060806
C32	C	-4.059602	-0.253250	0.203628
C33	C	-4.178450	-0.104952	-0.164949
C34	C	-4.116514	-0.011838	-0.165650
H35	H	-4.369718	-0.840975	-0.178677
N36	N	-4.342847	-0.671827	-0.181693
H37	H	-4.476934	-0.715520	-0.185445
H38	H	-4.295337	-0.627582	-0.102200
H39	H	-3.705434	-0.825493	-0.155357
H40	H	-4.060528	-0.395179	-0.592817
N41	N	-3.581757	-0.654076	-0.154966
H42	H	-3.596989	-0.625716	-0.235001
H43	H	-3.518231	-0.609504	-0.074858
N44	N	-4.429560	-0.341122	-0.819472
H45	H	-4.514203	-0.394210	-0.799013
H46	H	-4.457427	-0.289861	-0.779058
H47	H	-3.677958	-0.305003	-0.559985
N48	N	-3.762915	-0.322308	-0.795834
H49	H	-3.897998	-0.359220	-0.864709
H50	H	-3.652199	-0.300116	-0.836887
N51	N	-4.332445	-0.175584	-0.779833
H52	H	-4.415825	-0.227595	-0.847178
H53	H	-4.392699	-0.176073	-0.707035
H54	H	-3.712653	-0.189326	-0.754491
N55	N	-3.569838	-0.170385	-0.515732
H56	H	-3.533941	-0.135243	-0.581517
H57	H	-3.617976	-0.136191	-0.456541
N58	N	-3.971491	-0.093427	-0.748651
H59	H	-3.874811	-0.057927	-0.662332
H60	H	-3.881139	-0.106012	-0.800739
N61	N	-4.227065	-0.177585	-0.537189
H62	H	-4.258543	-0.228889	-0.493716
H63	H	-4.195643	-0.124457	-0.474462
H64	H	-3.908321	-0.115044	-0.522744
H65	H	-4.172333	-0.394799	-0.814742
N66	N	-4.318844	-0.348954	-0.576523
H67	H	-4.294946	-0.300413	-0.507261
H68	H	-4.448490	-0.350113	-0.654584
