data_functionalizedCrystal
_audit_creation_method	'MofGen! by Chris Wilmer'
_symmetry_space_group_name_H-M	'P1'
_symmetry_Int_Tables_number	1
_symmetry_cell_setting	triclinic
loop_
_symmetry_equiv_pos_as_xyz
  x,y,z
_cell_length_a	16.109302
_cell_length_b	23.532357
_cell_length_c	15.186229
_cell_angle_alpha	89.990735
_cell_angle_beta	89.994701
_cell_angle_gamma	83.145036
loop_
_atom_site_label
_atom_site_type_symbol
_atom_site_fract_x
_atom_site_fract_y
_atom_site_fract_z
O1	O	1.102535	0.073206	-0.073279
O2	O	1.602535	0.573206	0.426721
O3	O	0.860400	0.082315	-0.073273
O4	O	1.360400	0.582315	0.426727
O5	O	0.988791	-0.005146	-0.073258
O6	O	1.488791	0.494854	0.426742
O7	O	0.974144	0.160667	-0.073294
O8	O	1.474144	0.660667	0.426706
O9	O	0.988782	-0.005147	0.073199
O10	O	1.488782	0.494853	0.573199
O11	O	0.860391	0.082314	0.073184
O12	O	1.360391	0.582314	0.573184
O13	O	1.102527	0.073204	0.073178
O14	O	1.602527	0.573204	0.573178
Zn15	Zn	0.981458	0.077759	0.096434
Zn16	Zn	1.481458	0.577759	0.596434
Zn17	Zn	0.981469	0.077761	-0.096529
Zn18	Zn	1.481469	0.577761	0.403471
O19	O	0.974136	0.160666	0.073163
O20	O	1.474136	0.660666	0.573163
C21	C	0.829423	0.081946	-0.000044
C22	C	1.329423	0.581946	0.499956
C23	C	0.737137	0.080839	-0.000041
C24	C	1.237137	0.580839	0.499959
C25	C	0.524812	0.078280	0.079785
C26	C	1.024812	0.578280	0.579785
C27	C	0.438101	0.077234	0.079782
C28	C	0.938101	0.577234	0.579782
C29	C	0.438121	0.077238	-0.079894
C30	C	0.938121	0.577238	0.420106
C31	C	0.524831	0.078280	-0.079890
C32	C	1.024831	0.578280	0.420110
C33	C	0.568174	0.078804	-0.000048
C34	C	1.068174	0.578804	0.499952
C35	C	0.394752	0.076716	-0.000055
C36	C	0.894752	0.576716	0.499945
C37	C	0.300736	0.075582	-0.000058
C38	C	0.800736	0.575582	0.499942
C39	C	0.662197	0.079937	-0.000044
C40	C	1.162197	0.579937	0.499956
C41	C	0.988420	-0.026365	-0.000027
C42	C	1.488420	0.473635	0.499973
C43	C	0.987319	-0.089587	-0.000019
C44	C	1.487319	0.410413	0.499981
C45	C	0.980408	-0.481624	-0.079900
C46	C	1.480408	0.018376	0.420100
C47	C	0.979361	-0.541027	-0.079905
C48	C	1.479361	-0.041027	0.420095
O49	O	0.978796	-0.571745	-0.147800
O50	O	1.478796	-0.071745	0.352200
N51	N	0.978838	-0.570741	-0.000072
N52	N	1.478838	-0.070741	0.499928
C53	C	0.979352	-0.541047	0.079771
C54	C	1.479352	-0.041047	0.579771
O55	O	0.978810	-0.571776	0.147674
O56	O	1.478810	-0.071776	0.647674
C57	C	0.980393	-0.481644	0.079775
C58	C	1.480393	0.018356	0.579775
C59	C	0.980926	-0.451935	-0.000063
C60	C	1.480926	0.048065	0.499937
C61	C	0.980940	-0.451913	-0.159731
C62	C	1.480940	0.048087	0.340269
C63	C	0.981988	-0.392514	-0.159726
C64	C	1.481988	0.107486	0.340274
C65	C	0.982506	-0.362825	-0.079889
C66	C	1.482506	0.137175	0.420111
C67	C	0.981974	-0.392535	-0.000058
C68	C	1.481974	0.107465	0.499942
C69	C	0.980902	-0.451952	0.159617
C70	C	1.480902	0.048048	0.659617
C71	C	0.981943	-0.392545	0.159614
C72	C	1.481943	0.107455	0.659614
C73	C	0.982475	-0.362835	0.079776
C74	C	1.482475	0.137165	0.579776
C75	C	0.983540	-0.303447	0.079785
C76	C	1.483540	0.196553	0.579785
N77	N	0.984064	-0.273734	-0.000048
N78	N	1.484064	0.226266	0.499952
C79	C	0.983547	-0.303423	-0.079885
C80	C	1.483547	0.196577	0.420115
C81	C	0.977165	-0.665797	0.079756
C82	C	1.477165	-0.165797	0.579756
C83	C	0.976130	-0.725199	0.079753
C84	C	1.476130	-0.225199	0.579753
C85	C	0.976137	-0.725174	-0.079923
C86	C	1.476137	-0.225174	0.420077
C87	C	0.977178	-0.665772	-0.079919
C88	C	1.477178	-0.165772	0.420081
C89	C	0.977688	-0.636083	-0.000076
C90	C	1.477688	-0.136083	0.499924
C91	C	0.985749	-0.178680	-0.079868
C92	C	1.485749	0.321320	0.420132
C93	C	0.986802	-0.119276	-0.079855
C94	C	1.486802	0.380724	0.420145
C95	C	0.986789	-0.119306	0.079820
C96	C	1.486789	0.380694	0.579820
C97	C	0.985742	-0.178705	0.079808
C98	C	1.485742	0.321295	0.579808
C99	C	0.985219	-0.208391	-0.000043
C100	C	1.485219	0.291609	0.499957
O101	O	0.984103	-0.272692	0.147645
O102	O	1.484103	0.227308	0.647645
O103	O	0.984078	-0.272686	-0.147777
O104	O	1.484078	0.227314	0.352223
C105	C	1.133503	0.073574	-0.000053
C106	C	1.633503	0.573574	0.499947
C107	C	1.225789	0.074681	-0.000062
C108	C	1.725789	0.574681	0.499938
C109	C	0.974506	0.181884	-0.000070
C110	C	1.474506	0.681884	0.499930
C111	C	0.975608	0.245107	-0.000084
C112	C	1.475608	0.745107	0.499916
N113	N	0.981456	0.077758	0.228127
N114	N	1.481456	0.577758	0.728127
N115	N	0.981477	0.077758	-0.228222
N116	N	1.481477	0.577758	0.271778
C117	C	1.038327	0.039043	0.453857
C118	C	1.538327	0.539043	0.953857
C119	C	1.038329	0.039041	0.546046
C120	C	1.538329	0.539041	1.046046
C121	C	0.924600	0.116474	0.546042
C122	C	1.424600	0.616474	1.046042
C123	C	0.924594	0.116473	0.453854
C124	C	1.424594	0.616473	0.953854
C125	C	0.981462	0.077757	0.407764
C126	C	1.481462	0.577757	0.907764
C127	C	0.981471	0.077758	0.592141
C128	C	1.481471	0.577758	1.092141
C129	C	0.981473	0.077757	0.692097
C130	C	1.481473	0.577757	1.192097
C131	C	0.981459	0.077758	0.307801
C132	C	1.481459	0.577758	0.807801
H133	H	0.402820	0.076813	-0.144898
H134	H	0.902820	0.576813	0.355102
H135	H	0.560138	0.078705	-0.144904
H136	H	1.060138	0.578705	0.355096
N137	N	0.866505	0.156030	0.406780
N138	N	1.366505	0.656030	0.906780
N139	N	0.867195	0.208672	0.417059
N140	N	1.367195	0.708672	0.917059
H141	H	0.826169	0.236608	0.383814
H142	H	1.326169	0.736608	0.883814
H143	H	0.402799	0.076808	0.144790
H144	H	0.902799	0.576808	0.644790
N145	N	0.987352	-0.088939	-0.161420
N146	N	1.487352	0.411061	0.338580
N147	N	0.986889	-0.115458	-0.232695
N148	N	1.486889	0.384542	0.267305
H149	H	0.987278	-0.094035	-0.290299
H150	H	1.487278	0.405965	0.209701
H151	H	0.560100	0.078706	0.144797
H152	H	1.060100	0.578706	0.644797
H153	H	0.980470	-0.476131	0.224630
H154	H	1.480470	0.023869	0.724630
H155	H	0.985316	-0.202897	0.144819
H156	H	1.485316	0.297103	0.644819
H157	H	0.985320	-0.202843	-0.144890
H158	H	1.485320	0.297157	0.355110
N159	N	0.982529	-0.362180	-0.241287
N160	N	1.482529	0.137820	0.258713
N161	N	0.982064	-0.388704	-0.312558
N162	N	1.482064	0.111296	0.187442
H163	H	0.982442	-0.367284	-0.370166
H164	H	1.482442	0.132716	0.129834
N165	N	0.980406	-0.482225	-0.241298
N166	N	1.480406	0.017775	0.258702
N167	N	0.980878	-0.455679	-0.312563
N168	N	1.480878	0.044321	0.187437
H169	H	0.980506	-0.477083	-0.370175
H170	H	1.480506	0.022917	0.129825
N171	N	0.977725	-0.635436	-0.161479
N172	N	1.477725	-0.135436	0.338521
N173	N	0.977270	-0.661958	-0.232751
N174	N	1.477270	-0.161958	0.267249
H175	H	0.977656	-0.640537	-0.290357
H176	H	1.477656	-0.140537	0.209643
N177	N	0.975620	-0.755517	-0.161469
N178	N	1.475620	-0.255517	0.338531
N179	N	0.974695	-0.808555	-0.161452
N180	N	1.474695	-0.308555	0.338548
H181	H	0.974335	-0.829988	-0.219040
H182	H	1.474335	-0.329988	0.280960
H183	H	0.977583	-0.641628	0.144778
H184	H	1.477583	-0.141628	0.644778
N185	N	0.975604	-0.755536	0.161314
N186	N	1.475604	-0.255536	0.661314
N187	N	0.976071	-0.729014	0.232586
N188	N	1.476071	-0.229014	0.732586
H189	H	0.975697	-0.750437	0.290193
H190	H	1.475697	-0.250437	0.790193
H191	H	0.982346	-0.368374	0.224633
H192	H	1.482346	0.131626	0.724633
H193	H	1.084631	0.007518	0.416332
H194	H	1.584631	0.507518	0.916332
H195	H	1.084633	0.007516	0.583573
H196	H	1.584633	0.507516	1.083573
H197	H	0.878301	0.147996	0.583578
H198	H	1.378301	0.647996	1.083578
N199	N	0.987326	-0.088965	0.161360
N200	N	1.487326	0.411035	0.661360
N201	N	0.988259	-0.035928	0.161343
N202	N	1.488259	0.464072	0.661343
H203	H	0.988634	-0.014497	0.218931
H204	H	1.488634	0.485503	0.718931
