data_functionalizedCrystal
_audit_creation_method	'MofGen! by Chris Wilmer'
_symmetry_space_group_name_H-M	'P1'
_symmetry_Int_Tables_number	1
_symmetry_cell_setting	triclinic
loop_
_symmetry_equiv_pos_as_xyz
  x,y,z
_cell_length_a	6.817900
_cell_length_b	16.306099
_cell_length_c	16.305550
_cell_angle_alpha	95.377095
_cell_angle_beta	103.455250
_cell_angle_gamma	103.465342
loop_
_atom_site_label
_atom_site_type_symbol
_atom_site_fract_x
_atom_site_fract_y
_atom_site_fract_z
V1	V	-4.026242	-0.117433	-0.263339
O2	O	-4.013841	0.004911	-0.258011
O3	O	-3.977690	-0.232145	-0.261841
O4	O	-3.977649	-0.115948	-0.378053
O5	O	-4.013883	-0.112091	-0.140996
V6	V	-4.509915	-0.102761	-0.248669
O7	O	-4.287172	-0.149616	-0.295519
O8	O	-4.699183	-0.070578	-0.216489
O9	O	-4.335261	0.011951	-0.250167
O10	O	-4.639713	-0.225104	-0.253997
O11	O	-4.639671	-0.108103	-0.371013
O12	O	-4.335303	-0.104246	-0.133956
C13	C	-3.822660	-0.260099	-0.257765
C14	C	-3.864249	-0.353879	-0.257305
C15	C	-3.940317	-0.525576	-0.256434
C16	C	-4.176204	-0.566502	-0.261357
C17	C	-4.219361	-0.663995	-0.260545
C18	C	-4.015214	-0.694623	-0.255578
C19	C	-3.847661	-0.643781	-0.172400
C20	C	-3.805831	-0.546231	-0.172859
C21	C	-3.886227	-0.571637	-0.334028
C22	C	-3.934127	-0.669482	-0.334692
C23	C	-4.057530	-0.790160	-0.255091
C24	C	-3.897992	-0.430037	-0.256915
C25	C	-3.822606	-0.111877	-0.406003
C26	C	-3.864158	-0.111422	-0.499784
C27	C	-4.015245	-0.109659	-0.840524
C28	C	-3.779197	-0.104424	-0.799582
C29	C	-3.736003	-0.105247	-0.702089
C30	C	-3.940287	-0.110533	-0.671479
C31	C	-4.107318	-0.193849	-0.722324
C32	C	-4.149182	-0.193378	-0.819872
C33	C	-4.070002	-0.032243	-0.794478
C34	C	-4.022073	-0.031584	-0.696634
C35	C	-3.897938	-0.111030	-0.575942
C36	C	-4.057604	-0.109168	-0.936062
C37	C	-4.153633	0.039901	-0.254241
C38	C	-4.091283	0.133680	-0.254707
C39	C	-4.153687	-0.108319	-0.106001
C40	C	-4.091374	-0.108770	-0.012220
H41	H	-4.220813	-0.534831	-0.205603
C42	C	-3.921844	-0.666263	-0.093044
C43	C	-4.126949	-0.649025	-0.081136
C44	C	-4.201146	-0.671507	-0.001782
C45	C	-4.070238	-0.711227	0.065662
C46	C	-3.865121	-0.728467	0.053755
C47	C	-3.790924	-0.705986	-0.025598
H48	H	-4.223866	-0.619620	-0.131064
H49	H	-4.352988	-0.658744	0.007031
H50	H	-4.125163	-0.727869	0.124404
H51	H	-3.768204	-0.757872	0.103684
H52	H	-3.639082	-0.718749	-0.034412
H53	H	-4.285290	-0.680131	-0.204153
H54	H	-3.978602	0.030885	-0.807680
H55	H	-3.609508	-0.045343	-0.666909
H56	H	-4.242067	-0.035337	-0.821302
C57	C	-4.314225	-0.203156	-0.696799
C58	C	-4.516625	-0.206536	-0.764550
C59	C	-4.723528	-0.215840	-0.739023
C60	C	-4.728032	-0.221764	-0.645746
C61	C	-4.525625	-0.218384	-0.577990
C62	C	-4.318721	-0.209080	-0.603517
H63	H	-4.513297	-0.202150	-0.833604
H64	H	-4.873364	-0.218342	-0.789181
H65	H	-4.881195	-0.228651	-0.626850
H66	H	-4.528952	-0.222769	-0.508935
H67	H	-4.168886	-0.206578	-0.553358
H68	H	-3.978047	-0.558432	-0.397064
H69	H	-3.786993	-0.690855	-0.335969
C70	C	-4.320246	-0.550065	-0.342505
C71	C	-4.467756	-0.625805	-0.408832
C72	C	-4.611854	-0.609391	-0.489983
C73	C	-4.608443	-0.517238	-0.504808
C74	C	-4.460928	-0.441492	-0.438480
C75	C	-4.316830	-0.457906	-0.357328
H76	H	-4.470286	-0.694028	-0.397859
H77	H	-4.721054	-0.665464	-0.539084
H78	H	-4.715113	-0.505087	-0.564881
H79	H	-4.458398	-0.373269	-0.449452
H80	H	-4.207629	-0.401833	-0.308228
H81	H	-4.346231	-0.699173	-0.320337
H82	H	-3.841473	-0.515686	-0.114128
H83	H	-4.113035	-0.251984	-0.850407
H84	H	-3.632090	-0.518234	-0.165792
H85	H	-3.694585	-0.662687	-0.165753
H86	H	-4.051883	-0.252471	-0.705665
C87	C	-3.635793	-0.023119	-0.816072
C88	C	-3.731260	0.039518	-0.866918
C89	C	-3.587855	0.120827	-0.883413
C90	C	-3.348983	0.139498	-0.849063
C91	C	-3.253503	0.076858	-0.798214
C92	C	-3.396908	-0.004450	-0.781719
H93	H	-3.908099	0.025699	-0.892348
H94	H	-3.658538	0.167196	-0.921055
H95	H	-3.242826	0.199687	-0.861274
H96	H	-3.076664	0.090678	-0.772784
H97	H	-3.326225	-0.050819	-0.744077
H98	H	-4.055571	-0.704012	-0.396217
H99	H	-3.714287	-0.544822	-0.331167
C100	C	-3.858560	0.051676	-0.649983
C101	C	-3.915631	0.114749	-0.589041
C102	C	-3.752115	0.198008	-0.542387
C103	C	-3.531527	0.218194	-0.556676
C104	C	-3.474445	0.155119	-0.617622
C105	C	-3.637961	0.071860	-0.664276
H106	H	-4.078933	0.099807	-0.578460
H107	H	-3.794372	0.244700	-0.497271
H108	H	-3.410482	0.279827	-0.522140
H109	H	-3.311143	0.170060	-0.628202
H110	H	-3.595704	0.025168	-0.709392
C111	C	-3.718275	-0.179566	-0.842343
C112	C	-3.543156	-0.162239	-0.888462
C113	C	-3.482247	-0.237384	-0.931225
C114	C	-3.596458	-0.329854	-0.927868
C115	C	-3.771588	-0.347184	-0.881746
C116	C	-3.832496	-0.272040	-0.838984
H117	H	-3.458601	-0.093784	-0.890949
H118	H	-3.352604	-0.224554	-0.965367
H119	H	-3.551369	-0.385480	-0.959523
H120	H	-3.856143	-0.415640	-0.879260
H121	H	-3.962139	-0.284870	-0.804842
H122	H	-3.669576	-0.161508	-0.685944
H123	H	-4.169361	-0.030547	-0.675283
H124	H	-4.323018	-0.200685	-0.847883
