data_functionalizedCrystal
_audit_creation_method	'MofGen! by Chris Wilmer'
_symmetry_space_group_name_H-M	'P1'
_symmetry_Int_Tables_number	1
_symmetry_cell_setting	triclinic
loop_
_symmetry_equiv_pos_as_xyz
  x,y,z
_cell_length_a	13.339070
_cell_length_b	16.992694
_cell_length_c	16.053919
_cell_angle_alpha	87.284492
_cell_angle_beta	92.047789
_cell_angle_gamma	76.851241
loop_
_atom_site_label
_atom_site_type_symbol
_atom_site_fract_x
_atom_site_fract_y
_atom_site_fract_z
O1	O	0.222435	-1.091728	0.069314
O2	O	0.220041	-0.862923	0.069339
O3	O	0.071851	-0.951066	0.069327
O4	O	0.370624	-1.003585	0.069326
O5	O	0.063654	-0.943373	-0.069529
O6	O	0.211843	-0.855230	-0.069517
O7	O	0.214237	-1.084036	-0.069542
Zn8	Zn	0.211739	-0.968412	-0.091576
Zn9	Zn	0.222539	-0.978547	0.091373
O10	O	0.362427	-0.995893	-0.069530
C11	C	0.212861	-0.829194	-0.000086
C12	C	0.203667	-0.740150	-0.000076
C13	C	0.029346	-0.938348	-0.000099
C14	C	-0.085093	-0.911905	-0.000093
N15	N	0.204368	-0.961501	-0.216434
C16	C	-0.433264	-1.117517	-0.000116
C17	C	-0.325744	-1.142364	-0.000126
C18	C	-0.265576	-1.084751	-0.000117
C19	C	-0.312939	-1.002287	-0.000099
C20	C	-0.420471	-0.977437	-0.000095
C21	C	-0.252782	-0.944671	-0.000097
C22	C	-0.300146	-0.862207	-0.000078
C23	C	-0.407667	-0.837361	-0.000074
C24	C	-0.467835	-0.894974	-0.000082
C25	C	-0.145250	-0.969522	-0.000101
C26	C	-0.132457	-0.829442	-0.000080
C27	C	-0.239978	-0.804594	-0.000070
C28	C	0.404932	-1.008610	-0.000102
C29	C	0.519372	-1.035054	-0.000103
C30	C	0.221418	-1.117765	-0.000115
C31	C	0.230612	-1.206809	-0.000120
C32	C	0.292380	-0.709210	-0.000077
C33	C	0.283734	-0.625541	-0.000089
C34	C	0.186374	-0.572815	-0.000093
C35	C	0.097654	-0.603761	-0.000095
C36	C	0.106301	-0.687427	-0.000090
C37	C	0.150538	-0.321420	-0.000116
C38	C	0.141898	-0.237749	-0.000119
C39	C	0.327979	-0.259536	-0.000114
C40	C	0.336618	-0.343203	-0.000103
C41	C	0.247897	-0.374141	-0.000109
N42	N	0.177535	-0.487293	-0.000103
N43	N	0.256737	-0.459661	-0.000106
C44	C	0.166098	-0.925886	-0.740053
C45	C	0.171293	-0.930723	-0.652648
C46	C	0.240301	-0.995135	-0.608961
C47	C	0.304108	-1.054718	-0.652683
C48	C	0.298907	-1.049882	-0.740087
C49	C	0.262974	-1.016248	-0.347559
C50	C	0.268173	-1.021077	-0.260150
C51	C	0.135356	-0.897083	-0.260121
C52	C	0.130165	-0.892251	-0.347526
C53	C	0.193969	-0.951835	-0.391241
N54	N	0.245615	-1.000081	-0.519619
N55	N	0.188648	-0.946893	-0.480581
N56	N	0.229903	-0.985462	0.216231
H57	H	-0.106698	-1.036664	-0.000116
O58	O	0.360844	-1.107860	-0.782464
C59	C	0.340179	-1.183856	-0.761107
H60	H	0.304301	-1.182108	-0.697633
H61	H	0.415122	-1.232393	-0.758140
H62	H	0.284408	-1.198520	-0.810278
H63	H	0.073970	-0.839801	-0.383090
O64	O	0.324916	-1.074229	-0.389921
C65	C	0.304258	-1.150226	-0.368558
H66	H	0.268369	-1.148472	-0.305087
H67	H	0.379205	-1.198758	-0.365578
H68	H	0.248497	-1.164901	-0.417732
O69	O	-0.286105	-0.724520	0.000054
C70	C	-0.343649	-0.709944	0.071984
H71	H	-0.363888	-0.768363	0.095952
H72	H	-0.417513	-0.661936	0.055818
H73	H	-0.296079	-0.687745	0.122344
O74	O	-0.453787	-0.757286	0.000052
C75	C	-0.511331	-0.742706	0.071980
H76	H	-0.531580	-0.801122	0.095946
H77	H	-0.585189	-0.694692	0.055815
H78	H	-0.463756	-0.720514	0.122342
H79	H	0.371661	-0.752134	-0.000073
H80	H	-0.287188	-1.209506	-0.000142
O81	O	0.369953	-0.595537	0.000062
C82	C	0.432914	-0.626596	0.071972
H83	H	0.383811	-0.645993	0.122236
H84	H	0.470859	-0.577849	0.096108
H85	H	0.494981	-0.681057	0.055722
O86	O	-0.073866	-0.773578	-0.000032
C87	C	0.031193	-0.813192	-0.000056
H88	H	0.041929	-0.878235	0.026223
H89	H	0.078528	-0.780142	0.040264
H90	H	0.058077	-0.813231	-0.066673
H91	H	-0.482263	-1.164416	-0.000129
H92	H	-0.178028	-1.104987	-0.000126
H93	H	0.415899	-0.386129	-0.000090
H94	H	0.360291	-1.107166	-0.617106
H95	H	-0.555388	-0.874747	-0.000071
O96	O	0.047269	-0.186613	-0.000014
C97	C	-0.002972	-0.204389	0.071909
H98	H	0.031163	-0.269561	0.095885
H99	H	-0.088746	-0.196385	0.055731
H100	H	0.008038	-0.161598	0.122267
H101	H	0.083410	-0.848573	-0.224519
H102	H	0.400210	-0.234337	-0.000111
H103	H	0.109910	-0.873431	-0.775617
O104	O	0.335343	-1.083633	-0.217800
C105	C	0.436792	-1.083060	-0.239173
H106	H	0.434916	-1.049561	-0.302641
H107	H	0.483347	-1.147956	-0.242162
H108	H	0.474148	-1.051200	-0.189999
H109	H	0.119333	-0.882211	-0.617058
O110	O	0.064437	-0.351566	0.000000
C111	C	0.068099	-0.403266	0.071929
H112	H	0.151589	-0.426589	0.095901
H113	H	0.033835	-0.456592	0.055760
H114	H	0.021836	-0.368425	0.122286
H115	H	0.018381	-0.560824	-0.000111
H116	H	0.034060	-0.712616	-0.000088
