data_functionalizedCrystal
_audit_creation_method	'MofGen! by Chris Wilmer'
_symmetry_space_group_name_H-M	'P1'
_symmetry_Int_Tables_number	1
_symmetry_cell_setting	triclinic
loop_
_symmetry_equiv_pos_as_xyz
  x,y,z
_cell_length_a	10.489746
_cell_length_b	12.837942
_cell_length_c	11.295483
_cell_angle_alpha	94.530417
_cell_angle_beta	85.855585
_cell_angle_gamma	89.685121
loop_
_atom_site_label
_atom_site_type_symbol
_atom_site_fract_x
_atom_site_fract_y
_atom_site_fract_z
O1	O	1.717935	0.139493	-0.098943
O2	O	1.348256	0.153227	-0.098963
O3	O	1.524898	-0.004604	-0.098946
O4	O	1.541293	0.297324	-0.098960
O5	O	1.509380	0.009237	0.099103
O6	O	1.332739	0.167068	0.099086
O7	O	1.702418	0.153334	0.099106
Cu8	Cu	1.516161	0.161465	0.117180
Cu9	Cu	1.534512	0.145096	-0.117037
O10	O	1.525776	0.311165	0.099089
C11	C	1.511601	-0.036345	0.000077
C12	C	1.495083	-0.151546	0.000075
C13	C	1.292851	0.159109	0.000059
C14	C	1.150880	0.156001	0.000052
C15	C	1.693660	-0.391020	0.000060
C16	C	1.678146	-0.499262	0.000058
C17	C	1.448543	-0.476275	0.000058
C18	C	1.464057	-0.368033	0.000060
C19	C	1.586619	-0.325410	0.000064
C20	C	1.602131	-0.217165	0.000075
C21	C	1.372530	-0.194180	0.000067
C22	C	1.357017	-0.302422	0.000064
C23	C	0.986747	0.053740	0.000073
C24	C	1.062127	0.111691	0.097716
C25	C	1.077384	0.098069	-0.097545
C26	C	0.973298	0.208476	0.097805
C27	C	0.988555	0.194833	-0.097544
C28	C	1.063892	0.252857	0.000123
C29	C	1.757822	0.147452	0.000081
C30	C	1.899794	0.150559	0.000081
C31	C	1.539073	0.342906	0.000063
C32	C	1.555591	0.458106	0.000058
N33	N	1.503263	0.172977	0.281915
N34	N	1.547419	0.133576	-0.281772
C35	C	1.640259	0.050646	0.531217
C36	C	1.630522	0.059354	0.655880
C37	C	1.474046	0.199093	0.655905
C38	C	1.483783	0.190386	0.531243
C39	C	1.566894	0.116161	0.468903
C40	C	1.576637	0.107460	0.344238
C41	C	1.420155	0.247194	0.344265
C42	C	1.410417	0.255901	0.468928
H43	H	1.701927	-0.182463	0.000082
N44	N	1.224828	-0.348393	0.000073
H45	H	1.183081	-0.329657	-0.073340
H46	H	1.231341	-0.426909	0.000116
H47	H	1.793453	-0.356315	0.000075
N48	N	0.945445	0.241289	-0.206892
H49	H	1.022520	0.263854	-0.256984
H50	H	0.896786	0.187241	-0.254860
H51	H	1.765310	-0.552679	0.000051
H52	H	1.122787	0.051409	-0.180097
H53	H	1.644313	0.047025	0.293482
N54	N	1.384417	0.279155	0.723140
H55	H	1.294049	0.264980	0.701458
H56	H	1.389484	0.274695	0.811549
H57	H	1.342746	0.316331	0.519699
N58	N	1.341027	0.317870	0.277056
H59	H	1.359807	0.301096	0.188623
H60	H	1.247298	0.306694	0.298856
N61	N	1.316362	-0.522258	0.000041
H62	H	1.322783	-0.600785	0.000034
H63	H	1.263190	-0.493199	0.073462
N64	N	1.257068	-0.123415	0.000077
H65	H	1.285489	-0.048375	0.000082
H66	H	1.209973	-0.142440	-0.073343
H67	H	0.952736	-0.030441	0.000175
H68	H	1.690262	0.006004	0.706613
N69	N	1.105155	0.065213	0.207090
H70	H	1.077201	-0.009949	0.207031
H71	H	1.201371	0.068338	0.206630
N72	N	1.729908	-0.029394	0.463970
H73	H	1.774915	-0.069573	0.522364
H74	H	1.679503	-0.079266	0.412253
N75	N	0.913372	0.270231	0.207280
H76	H	0.817205	0.267732	0.206635
H77	H	0.940821	0.239070	0.280884
N78	N	1.108603	0.364461	0.000166
H79	H	1.070304	0.406055	0.073951
H80	H	1.204914	0.365824	-0.000589
