data_functionalizedCrystal
_audit_creation_method	'MofGen! by Chris Wilmer'
_symmetry_space_group_name_H-M	'P1'
_symmetry_Int_Tables_number	1
_symmetry_cell_setting	triclinic
loop_
_symmetry_equiv_pos_as_xyz
  x,y,z
_cell_length_a	21.295418
_cell_length_b	13.897448
_cell_length_c	21.295412
_cell_angle_alpha	90.025362
_cell_angle_beta	89.964379
_cell_angle_gamma	89.966493
loop_
_atom_site_label
_atom_site_type_symbol
_atom_site_fract_x
_atom_site_fract_y
_atom_site_fract_z
Zn1	Zn	0.962361	0.383627	-0.356259
Zn2	Zn	0.962302	0.544934	-0.250995
Zn3	Zn	0.857099	0.383699	-0.250969
Zn4	Zn	0.857077	0.544926	-0.356192
O5	O	0.909710	0.464296	-0.303604
O6	O	1.050443	0.404998	-0.342335
O7	O	0.948331	0.523579	-0.162902
O8	O	0.871097	0.248708	-0.264953
O9	O	1.050399	0.523509	-0.264998
O10	O	0.948432	0.248655	-0.342309
O11	O	0.871039	0.405120	-0.162883
O12	O	0.769007	0.405113	-0.264888
O13	O	0.871059	0.523496	-0.444290
O14	O	0.768991	0.523566	-0.342194
O15	O	0.948411	0.404990	-0.444340
O16	O	0.948310	0.679914	-0.264932
O17	O	0.871002	0.679909	-0.342220
C18	C	0.746158	0.464347	-0.303531
C19	C	0.676190	0.464392	-0.303515
C20	C	0.909664	0.714911	-0.303585
C21	C	0.909702	0.822125	-0.303599
C22	C	0.909739	0.464234	-0.467794
C23	C	0.909751	0.464208	-0.537762
C24	C	0.643332	0.526152	-0.343709
C25	C	0.577589	0.526128	-0.343737
C26	C	0.544708	0.464355	-0.303560
C27	C	0.577574	0.402583	-0.263364
C28	C	0.643316	0.402601	-0.263342
N29	N	0.441439	0.456819	-0.248502
N30	N	0.378987	0.456807	-0.248526
C31	C	0.346633	0.464293	-0.303627
N32	N	0.379090	0.471811	-0.358706
N33	N	0.441547	0.471828	-0.358682
C34	C	0.473423	0.464327	-0.303581
C35	C	0.242489	0.526031	-0.343855
C36	C	0.176745	0.526000	-0.343884
C37	C	0.176732	0.402459	-0.263506
C38	C	0.242474	0.402485	-0.263482
C39	C	0.275349	0.464276	-0.303656
C40	C	1.073900	0.464246	-0.303677
C41	C	1.143869	0.464225	-0.303708
C42	C	0.909773	0.212703	-0.303636
C43	C	0.909800	0.105489	-0.303649
C44	C	0.909768	1.018420	-0.303638
C45	C	0.909730	0.909187	-0.303618
C46	C	0.950088	0.402349	-1.037247
C47	C	0.950083	0.402372	-0.971505
C48	C	0.909806	0.464080	-0.938602
C49	C	0.869542	0.525787	-0.971447
C50	C	0.869553	0.525769	-1.037188
N51	N	0.854686	0.471526	-0.835355
N52	N	0.854678	0.471537	-0.772904
C53	C	0.909773	0.464140	-0.740527
N54	N	0.964878	0.456712	-0.772961
N55	N	0.964886	0.456696	-0.835418
C56	C	0.909790	0.464107	-0.867316
C57	C	0.950032	0.402468	-0.636404
C58	C	0.950028	0.402498	-0.570660
C59	C	0.869482	0.525907	-0.570604
C60	C	0.869491	0.525882	-0.636347
C61	C	0.909765	0.464157	-0.669243
C62	C	0.909717	0.464289	-0.140052
C63	C	0.909827	0.464043	-0.070084
H64	H	0.670094	0.576466	-0.376422
H65	H	0.836766	0.576009	-1.063924
F66	F	0.141741	0.336709	-0.220750
F67	F	0.992886	0.336762	-0.671417
F68	F	0.542612	0.591864	-0.386518
H69	H	0.982868	0.352129	-0.944763
H70	H	0.269257	0.576340	-0.376570
H71	H	0.149993	0.576291	-0.376618
F72	F	0.542579	0.336835	-0.220608
F73	F	0.992886	0.336835	-0.535713
H74	H	0.670069	0.352306	-0.230611
H75	H	0.269228	0.352198	-0.230749
H76	H	0.982886	0.352092	-1.064027
F77	F	0.826678	0.591463	-0.936429
F78	F	0.826621	0.591591	-0.535591
F79	F	0.826638	0.591545	-0.671296
