data_functionalizedCrystal
_audit_creation_method	'MofGen! by Chris Wilmer'
_symmetry_space_group_name_H-M	'P1'
_symmetry_Int_Tables_number	1
_symmetry_cell_setting	triclinic
loop_
_symmetry_equiv_pos_as_xyz
  x,y,z
_cell_length_a	6.817900
_cell_length_b	16.418049
_cell_length_c	11.102280
_cell_angle_alpha	93.884930
_cell_angle_beta	108.605459
_cell_angle_gamma	103.389670
loop_
_atom_site_label
_atom_site_type_symbol
_atom_site_fract_x
_atom_site_fract_y
_atom_site_fract_z
V1	V	-4.085020	-0.115879	-0.396702
O2	O	-4.071827	0.005575	-0.388690
O3	O	-4.035751	-0.229776	-0.394432
O4	O	-4.062205	-0.114094	-0.569516
O5	O	-4.045191	-0.110907	-0.212394
V6	V	-4.565446	-0.101352	-0.374604
O7	O	-4.353074	-0.147746	-0.445177
O8	O	-4.747589	-0.069486	-0.326129
O9	O	-4.391508	0.012544	-0.376874
O10	O	-4.696035	-0.222807	-0.382616
O11	O	-4.722672	-0.106324	-0.558912
O12	O	-4.365054	-0.103138	-0.201790
C13	C	-3.879713	-0.257541	-0.388288
C14	C	-3.920887	-0.350653	-0.387584
C15	C	-3.913456	-0.109976	-0.611623
C16	C	-3.976080	-0.109270	-0.752902
C17	C	-4.198624	-0.569143	-0.392345
C18	C	-4.237302	-0.656632	-0.391694
C19	C	-3.871201	-0.648088	-0.378969
C20	C	-3.832530	-0.560601	-0.379629
C21	C	-3.996246	-0.521130	-0.386311
C22	C	-4.073594	-0.696106	-0.385000
C23	C	-4.115529	-0.790966	-0.384295
C24	C	-3.954311	-0.426265	-0.387019
C25	C	-3.962880	-0.032239	-0.800834
C26	C	-4.021712	-0.031583	-0.933582
C27	C	-4.106952	-0.184997	-0.970456
C28	C	-4.048105	-0.185652	-0.837710
C29	C	-3.933272	0.064153	-1.088678
C30	C	-3.920107	0.141188	-1.136615
C31	C	-3.981055	0.206011	-1.081424
C32	C	-4.055217	0.193801	-0.978299
C33	C	-4.068405	0.116765	-0.930370
C34	C	-4.007407	0.051946	-0.985557
C35	C	-4.136558	-0.281383	-0.682611
C36	C	-4.149760	-0.358420	-0.634680
C37	C	-4.088826	-0.423251	-0.689871
C38	C	-4.014701	-0.411050	-0.793003
C39	C	-4.001500	-0.334013	-0.840933
C40	C	-4.062425	-0.269182	-0.785733
C41	C	-4.210888	0.040305	-0.383014
C42	C	-4.148953	0.133416	-0.383727
C43	C	-4.177144	-0.107258	-0.159676
C44	C	-4.093759	-0.107960	-0.018396
H45	H	-4.402096	-0.695720	-0.396610
C46	C	-3.609906	-0.507780	-0.372990
H47	H	-3.610334	-0.450025	-0.374353
H48	H	-3.504288	-0.512710	-0.295782
H49	H	-3.577778	-0.528013	-0.444764
H50	H	-4.186144	-0.228589	-0.637647
C51	C	-3.691124	-0.691507	-0.371605
H52	H	-3.743130	-0.750487	-0.372062
H53	H	-3.646305	-0.683066	-0.443582
H54	H	-3.572842	-0.667762	-0.294601
C55	C	-3.838511	0.154621	-1.250035
H56	H	-3.804054	0.104987	-1.276027
H57	H	-3.947173	0.165954	-1.319942
H58	H	-3.713936	0.201206	-1.224094
H59	H	-4.128790	0.106824	-0.846410
C60	C	-3.883629	0.051777	-0.707549
H61	H	-3.884177	0.097748	-0.755113
H62	H	-3.976003	0.052040	-0.659145
H63	H	-3.741778	0.057383	-0.650852
C64	C	-4.122278	0.265107	-0.917599
H65	H	-4.103786	0.312738	-0.960907
H66	H	-4.268814	0.245673	-0.925132
H67	H	-4.035559	0.280914	-0.829304
C68	C	-3.865887	-0.007102	-1.149248
H69	H	-3.884234	-0.054713	-1.105885
H70	H	-3.952425	-0.022969	-1.237561
H71	H	-3.719312	0.012428	-1.141608
H72	H	-4.331934	-0.537008	-0.397783
H73	H	-3.970337	0.268734	-1.120463
C74	C	-4.186205	-0.269010	-1.063748
H75	H	-4.219385	-0.257590	-1.149673
H76	H	-4.076972	-0.297963	-1.045422
H77	H	-4.311197	-0.303306	-1.053714
H78	H	-3.941134	-0.324082	-0.924909
H79	H	-3.965089	-0.463842	-0.837944
H80	H	-4.099599	-0.485981	-0.650841
C81	C	-4.231304	-0.371843	-0.521239
H82	H	-4.265679	-0.322195	-0.495219
H83	H	-4.355886	-0.418416	-0.547157
H84	H	-4.122620	-0.383183	-0.451341
