data_functionalizedCrystal
_audit_creation_method	'MofGen! by Chris Wilmer'
_symmetry_space_group_name_H-M	'P1'
_symmetry_Int_Tables_number	1
_symmetry_cell_setting	triclinic
loop_
_symmetry_equiv_pos_as_xyz
  x,y,z
_cell_length_a	6.817900
_cell_length_b	11.168121
_cell_length_c	14.125465
_cell_angle_alpha	94.659390
_cell_angle_beta	100.398878
_cell_angle_gamma	108.508496
loop_
_atom_site_label
_atom_site_type_symbol
_atom_site_fract_x
_atom_site_fract_y
_atom_site_fract_z
V1	V	-4.016762	-0.173620	-0.299984
O2	O	-3.978122	0.009459	-0.294266
O3	O	-3.993684	-0.345333	-0.297941
O4	O	-3.952441	-0.170460	-0.430814
O5	O	-4.019650	-0.166624	-0.160472
V6	V	-4.499172	-0.151779	-0.283297
O7	O	-4.280462	-0.221529	-0.336590
O8	O	-4.685669	-0.103870	-0.246691
O9	O	-4.299043	0.019933	-0.285340
O10	O	-4.655209	-0.334859	-0.289015
O11	O	-4.613680	-0.158775	-0.422809
O12	O	-4.340286	-0.154940	-0.152467
C13	C	-3.845360	-0.387208	-0.293210
C14	C	-3.907672	-0.527582	-0.292411
C15	C	-4.108875	-0.596259	-0.296618
C16	C	-4.173281	-0.741343	-0.295793
C17	C	-3.792749	-0.164138	-0.462703
C18	C	-3.821611	-0.162690	-0.569657
C19	C	-3.874512	-0.160035	-0.765480
C20	C	-4.060790	-0.165361	-0.817801
C21	C	-4.090227	-0.163884	-0.926764
C22	C	-3.845067	-0.161513	-0.656507
C23	C	-4.110711	0.061802	-0.290068
C24	C	-4.027637	0.202175	-0.290873
C25	C	-4.163321	-0.161265	-0.120573
C26	C	-4.113697	-0.162707	-0.013618
H27	H	-3.783099	-0.576196	-0.288204
C28	C	-4.275157	-0.531583	-0.302080
C29	C	-4.368936	-0.550755	-0.221647
C30	C	-4.522146	-0.491209	-0.226648
H31	H	-4.210039	-0.442664	-0.301844
H32	H	-4.380622	-0.567125	-0.360269
H33	H	-4.263489	-0.515207	-0.163473
H34	H	-4.434096	-0.639660	-0.221866
H35	H	-4.627610	-0.526751	-0.284837
H36	H	-4.457010	-0.402293	-0.226414
H37	H	-4.585807	-0.504219	-0.172081
C38	C	-3.691263	-0.152680	-0.814755
C39	C	-3.626904	-0.258296	-0.800392
C40	C	-3.458093	-0.251558	-0.845772
H41	H	-3.735457	-0.152735	-0.882504
H42	H	-3.576188	-0.076411	-0.787516
H43	H	-3.741956	-0.334545	-0.827636
H44	H	-3.582670	-0.258262	-0.732654
H45	H	-3.343018	-0.175289	-0.818532
H46	H	-3.502304	-0.251610	-0.913518
H47	H	-3.414392	-0.323210	-0.836025
C48	C	-4.402985	-0.820174	-0.300433
C49	C	-4.416486	-0.879574	-0.217129
C50	C	-4.628057	-0.952216	-0.221373
H51	H	-4.486214	-0.766055	-0.303579
H52	H	-4.454105	-0.883297	-0.356672
H53	H	-4.365393	-0.816458	-0.160904
H54	H	-4.333303	-0.933714	-0.213966
H55	H	-4.679178	-1.015340	-0.277613
H56	H	-4.711270	-0.898088	-0.224522
H57	H	-4.637244	-0.992537	-0.164858
H58	H	-3.855267	-0.738795	-0.287268
H59	H	-4.198166	-0.171043	-0.780763
