data_functionalizedCrystal
_audit_creation_method	'MofGen! by Chris Wilmer'
_symmetry_space_group_name_H-M	'P1'
_symmetry_Int_Tables_number	1
_symmetry_cell_setting	triclinic
loop_
_symmetry_equiv_pos_as_xyz
  x,y,z
_cell_length_a	6.817900
_cell_length_b	11.168129
_cell_length_c	12.200737
_cell_angle_alpha	92.529547
_cell_angle_beta	107.141108
_cell_angle_gamma	108.508637
loop_
_atom_site_label
_atom_site_type_symbol
_atom_site_fract_x
_atom_site_fract_y
_atom_site_fract_z
V1	V	-4.093939	-0.175000	-0.357671
O2	O	-4.053826	0.008106	-0.350852
O3	O	-4.070336	-0.346703	-0.355235
O4	O	-4.063276	-0.172441	-0.513660
O5	O	-4.060935	-0.167362	-0.191331
V6	V	-4.572055	-0.153082	-0.337774
O7	O	-4.367057	-0.223077	-0.401317
O8	O	-4.749135	-0.105005	-0.294129
O9	O	-4.372452	0.018621	-0.340211
O10	O	-4.729565	-0.336188	-0.344593
O11	O	-4.722456	-0.160719	-0.504115
O12	O	-4.379512	-0.155641	-0.181786
C13	C	-3.920795	-0.388556	-0.349595
C14	C	-3.982902	-0.528927	-0.348643
C15	C	-3.958229	-0.574290	-0.248384
C16	C	-4.022418	-0.719370	-0.247398
C17	C	-3.911788	-0.166266	-0.551680
C18	C	-3.968165	-0.165310	-0.679201
C19	C	-4.013947	-0.164532	-0.782763
C20	C	-4.071397	-0.163551	-0.912684
C21	C	-4.185335	0.060468	-0.345847
C22	C	-4.102467	0.200837	-0.346807
C23	C	-4.194342	-0.161820	-0.143760
C24	C	-4.117202	-0.162769	-0.016237
H25	H	-4.001387	-0.758447	-0.161561
H26	H	-4.051555	-0.597497	-0.433748
C27	C	-3.865433	-0.481667	-0.133403
C28	C	-3.801287	-0.336620	-0.134554
C29	C	-3.708462	-0.243999	-0.019568
C30	C	-3.679782	-0.296426	0.096569
C31	C	-3.743930	-0.441480	0.097723
C32	C	-3.836755	-0.534101	-0.017263
H33	H	-3.822516	-0.297804	-0.220528
H34	H	-3.660976	-0.136620	-0.020423
H35	H	-3.611067	-0.227862	0.181688
H36	H	-3.722701	-0.480296	0.183698
H37	H	-3.884241	-0.641480	-0.016408
C38	C	-4.130876	-0.746394	-0.462779
C39	C	-3.930825	-0.654518	-0.486730
C40	C	-3.959229	-0.601738	-0.602702
C41	C	-4.187684	-0.640834	-0.694724
C42	C	-4.387752	-0.732715	-0.670776
C43	C	-4.359348	-0.785495	-0.554804
H44	H	-3.761694	-0.625572	-0.418607
H45	H	-3.811125	-0.533722	-0.620429
H46	H	-4.208711	-0.601764	-0.780573
H47	H	-4.556882	-0.761661	-0.738898
H48	H	-4.507452	-0.853511	-0.537077
