data_functionalizedCrystal
_audit_creation_method	'MofGen! by Chris Wilmer'
_symmetry_space_group_name_H-M	'P1'
_symmetry_Int_Tables_number	1
_symmetry_cell_setting	triclinic
loop_
_symmetry_equiv_pos_as_xyz
  x,y,z
_cell_length_a	23.196402
_cell_length_b	23.196402
_cell_length_c	23.196401
_cell_angle_alpha	90.011712
_cell_angle_beta	60.008822
_cell_angle_gamma	60.000268
loop_
_atom_site_label
_atom_site_type_symbol
_atom_site_fract_x
_atom_site_fract_y
_atom_site_fract_z
Zr1	Zr	0.631008	0.555361	-0.075647
O2	O	0.751273	0.463292	-0.167690
O3	O	0.510742	0.583583	-0.047434
O4	O	0.631009	0.583557	-0.167699
O5	O	0.631004	0.463340	0.047447
O6	O	0.631011	0.678427	-0.167703
O7	O	0.631006	0.463318	-0.047425
O8	O	0.415875	0.678473	0.047430
O9	O	0.846140	0.463295	-0.167686
O10	O	0.560210	0.666422	-0.035400
O11	O	0.560208	0.595639	0.035404
O12	O	0.701807	0.595609	-0.106193
O13	O	0.701805	0.524825	-0.035389
Zr14	Zr	0.631008	0.706704	0.075657
Zr15	Zr	0.631010	0.706668	-0.075652
Zr16	Zr	0.631005	0.555397	0.075662
Zr17	Zr	0.782310	0.555365	-0.075640
Zr18	Zr	0.479705	0.706700	0.075650
O19	O	0.751273	0.678482	0.047444
O20	O	0.751276	0.678431	-0.167697
O21	O	0.751269	0.463344	0.047452
O22	O	0.510742	0.798773	0.167700
O23	O	0.510746	0.798721	-0.047442
O24	O	0.510739	0.583634	0.167708
O25	O	0.631011	0.798725	-0.047436
O26	O	0.631006	0.678508	0.167710
O27	O	0.631004	0.583638	0.167713
O28	O	0.631009	0.798747	0.047435
O29	O	0.846142	0.583563	-0.167690
O30	O	0.415873	0.678502	0.167700
O31	O	0.415875	0.798770	0.167696
O32	O	0.415877	0.798741	0.047426
O33	O	0.846138	0.463323	-0.047416
O34	O	0.846140	0.583592	-0.047420
O35	O	0.560208	0.666456	0.106203
O36	O	0.560210	0.737239	0.035399
O37	O	0.701807	0.666426	-0.035394
O38	O	0.701805	0.595643	0.035410
C39	C	0.441751	0.631027	-0.000003
C40	C	0.377519	0.631025	-0.000006
C41	C	0.347350	0.667969	-0.036967
C42	C	0.286989	0.667976	-0.036962
C43	C	0.256811	0.631025	-0.000004
C44	C	0.286985	0.594080	0.036966
C45	C	0.347339	0.594080	0.036965
C46	C	0.194781	0.569120	-0.005276
C47	C	0.134432	0.569118	-0.005280
C48	C	0.070656	0.631026	0.000003
C49	C	0.067246	0.692936	0.005277
C50	C	0.127600	0.692936	0.005276
C51	C	0.191367	0.631022	0.000002
C52	C	-0.024964	0.667980	-0.036954
C53	C	-0.085330	0.667989	-0.036943
C54	C	-0.085327	0.594087	0.036980
C55	C	-0.024969	0.594085	0.036974
C56	C	0.005212	0.631030	0.000003
C57	C	0.631005	0.441771	0.000012
C58	C	0.631004	0.377537	0.000014
C59	C	0.557094	0.384326	0.036960
C60	C	0.557093	0.323972	0.036963
C61	C	0.631006	0.256829	0.000006
C62	C	0.704925	0.250043	-0.036942
C63	C	0.704924	0.310397	-0.036938
C64	C	0.687634	0.132887	-0.061903
C65	C	0.687632	0.072535	-0.061908
C66	C	0.631012	0.070675	-0.000005
C67	C	0.574380	0.129181	0.061904
C68	C	0.574379	0.189535	0.061908
C69	C	0.631015	0.191381	-0.000002
C70	C	0.557096	0.012023	0.036948
C71	C	0.557098	-0.048334	0.036953
C72	C	0.704932	-0.122262	-0.036959
C73	C	0.704928	-0.061906	-0.036957
C74	C	0.631008	0.005235	-0.000005
C75	C	0.820264	0.631038	0.000013
C76	C	0.884496	0.631039	0.000016
C77	C	0.631010	0.630987	-0.189259
C78	C	0.631011	0.630972	-0.253494
C79	C	0.631010	0.820294	-0.000001
C80	C	0.631011	0.884527	-0.000004
C81	C	0.704921	0.594011	-0.320620
C82	C	0.704922	0.594029	-0.380975
C83	C	0.631009	0.630998	-0.374200
C84	C	0.557090	0.667967	-0.307062
C85	C	0.557091	0.667953	-0.246709
C86	C	0.574381	0.625747	-0.441520
C87	C	0.574383	0.625755	-0.501873
C88	C	0.631003	0.631043	-0.560348
C89	C	0.687635	0.636308	-0.558468
C90	C	0.687636	0.636295	-0.498115
C91	C	0.631000	0.631017	-0.439639
C92	C	0.704919	0.594100	-0.692921
C93	C	0.704917	0.594123	-0.753276
C94	C	0.557083	0.668056	-0.679360
C95	C	0.557087	0.668037	-0.619007
C96	C	0.631007	0.631056	-0.625792
C97	C	0.631005	0.631078	0.189270
C98	C	0.631004	0.631093	0.253504
C99	C	0.441754	0.820289	-0.000010
C100	C	0.377523	0.884521	-0.000015
C101	C	0.441748	0.631073	0.189261
C102	C	0.377516	0.631086	0.253493
C103	C	0.441751	0.820334	0.189255
C104	C	0.377519	0.884581	0.253484
C105	C	0.820264	0.441731	-0.189245
C106	C	0.884496	0.377484	-0.253474
C107	C	0.820261	0.441776	0.000020
C108	C	0.884492	0.377544	0.000025
C109	C	0.820267	0.630992	-0.189251
C110	C	0.884500	0.630979	-0.253483
C111	C	0.347360	0.877719	-0.036980
C112	C	0.287017	0.938065	-0.036998
C113	C	0.256834	1.005214	-0.000048
C114	C	0.287003	1.012014	0.036918
C115	C	0.347349	0.951668	0.036933
C116	C	0.347351	0.668058	0.320620
C117	C	0.287006	0.668068	0.380978
C118	C	0.256822	0.631110	0.374209
C119	C	0.286993	0.594133	0.307075
C120	C	0.347341	0.594119	0.246718
C121	C	0.347357	0.951707	0.246688
C122	C	0.287012	1.012080	0.307033
C123	C	0.256828	1.005325	0.374173
C124	C	0.286997	0.938193	0.380968
C125	C	0.347344	0.877821	0.320624
C126	C	0.914666	0.310358	-0.246678
C127	C	0.975029	0.249985	-0.307023
C128	C	1.005216	0.256740	-0.374163
C129	C	0.975044	0.323872	-0.380958
C130	C	0.914686	0.384244	-0.320614
C131	C	0.914662	0.384346	0.036984
C132	C	0.975022	0.323999	0.036986
C133	C	1.005207	0.256851	0.000033
C134	C	0.975034	0.250051	-0.036930
C135	C	0.914679	0.310397	-0.036936
C136	C	0.914664	0.667944	-0.246691
C137	C	0.975010	0.667945	-0.307037
C138	C	1.005194	0.630976	-0.374176
C139	C	0.975023	0.594009	-0.380967
C140	C	0.914675	0.594013	-0.320621
H141	H	-0.000402	0.563999	0.067069
H142	H	0.371924	0.957220	0.192025
N143	N	0.882118	0.303067	-0.174266
H144	H	0.821537	0.326458	-0.147580
H145	H	0.910456	0.251366	-0.179184
N146	N	0.748745	0.641975	-0.621537
H147	H	0.741225	0.687653	-0.607256
H148	H	0.805760	0.600842	-0.639511
N149	N	0.477367	0.456738	0.076828
H150	H	0.488579	0.493945	0.071227
H151	H	0.445089	0.462327	0.057421
N152	N	0.123914	0.759708	0.010977
H153	H	0.171825	0.750311	0.010175
H154	H	0.125922	0.775663	-0.030099
N155	N	0.263564	0.502342	-0.010973
H156	H	0.294974	0.464195	-0.056665
H157	H	0.301221	0.511799	-0.010140
H158	H	0.999630	0.329364	-0.435630
H159	H	0.262412	0.932703	0.435641
H160	H	0.528272	0.237167	0.112317
N161	N	1.007589	0.554133	-0.453384
H162	H	0.979327	0.530713	-0.448538
H163	H	0.997086	0.588065	-0.480033
H164	H	1.054351	0.207719	0.000043
H165	H	1.054363	0.207576	-0.423293
N166	N	0.379856	0.805423	0.327962
H167	H	0.422664	0.768197	0.279551
H168	H	0.404847	0.799838	0.354655
N169	N	0.882128	0.303060	-0.076789
H170	H	0.892624	0.326441	-0.113985
H171	H	0.910422	0.251352	-0.100148
N172	N	0.254472	0.930726	-0.076860
H173	H	0.264982	0.954098	-0.114062
H174	H	0.282759	0.879018	-0.100213
H175	H	0.999620	0.195371	-0.067016
N176	N	0.477367	0.707889	-0.546603
H177	H	0.488583	0.702271	-0.509398
H178	H	0.445088	0.759579	-0.540997
H179	H	0.890121	0.563908	-0.326161
N180	N	0.882133	0.456641	-0.327952
H181	H	0.839312	0.493868	-0.279541
H182	H	0.928222	0.462231	-0.354641
H183	H	0.765113	0.563901	-0.326151
N184	N	0.138087	0.502358	-0.010930
H185	H	0.187631	0.463145	-0.014255
H186	H	0.087268	0.510782	0.032240
H187	H	0.496901	0.698157	-0.673842
N188	N	0.379897	0.707925	0.327932
H189	H	0.351626	0.731343	0.379619
H190	H	0.440481	0.673987	0.304501
N191	N	0.191725	0.631140	0.439315
H192	H	0.141641	0.652176	0.439346
H193	H	0.212788	0.581076	0.439320
N194	N	0.784649	0.554273	-0.825673
H195	H	0.816972	0.502565	-0.831349
H196	H	0.773383	0.559948	-0.862845
N197	N	0.379892	0.554227	0.076824
H198	H	0.369396	0.588131	0.114010
H199	H	0.351604	0.530821	0.100196
H200	H	0.765111	0.563930	-0.435640
H201	H	0.262408	0.564043	0.301573
N202	N	0.477372	0.707839	-0.299755
H203	H	0.445053	0.688459	-0.273107
H204	H	0.445127	0.759533	-0.273103
H205	H	-0.000392	0.698066	-0.067055
H206	H	0.890098	0.698049	-0.192028
H207	H	0.999585	0.195329	-0.301477
H208	H	0.890089	0.439016	0.067080
N209	N	0.513305	0.127188	0.128678
H210	H	0.521899	0.080076	0.119285
H211	H	0.520888	0.133956	0.166786
H212	H	0.371893	0.564014	0.192063
H213	H	0.207689	1.054489	0.423304
H214	H	0.371920	0.698054	-0.067069
H215	H	0.999578	0.329550	0.067088
N216	N	0.191747	1.070298	-0.000068
H217	H	0.177222	1.055794	-0.029093
H218	H	0.141705	1.099333	0.050001
N219	N	1.007541	0.707820	-0.299704
H220	H	0.979264	0.731233	-0.248014
H221	H	1.068126	0.673888	-0.323133
N222	N	1.070280	0.630986	-0.439255
H223	H	1.120353	0.609960	-0.439271
H224	H	1.084764	0.601971	-0.482789
N225	N	0.254438	0.707824	-0.076827
H226	H	0.282715	0.731229	-0.100247
H227	H	0.264941	0.673876	-0.113976
H228	H	0.262419	1.066694	0.067002
N229	N	0.513295	0.620091	-0.503894
H230	H	0.477416	0.616754	-0.457689
H231	H	0.478532	0.663261	-0.511538
N232	N	-0.001532	0.759714	0.010973
H233	H	-0.039253	0.750324	0.010178
H234	H	-0.032876	0.797832	0.056661
H235	H	-0.109898	0.564001	0.067071
N236	N	-0.117876	0.707841	-0.076807
H237	H	-0.089595	0.731242	-0.100227
H238	H	-0.107379	0.673897	-0.113955
N239	N	0.254432	0.554231	0.076830
H240	H	0.264934	0.517031	0.042938
H241	H	0.282718	0.530872	0.100246
N242	N	0.477373	0.331285	0.076815
H243	H	0.430546	0.382976	0.100225
H244	H	0.474162	0.307845	0.042873
H245	H	0.262455	1.066737	0.301488
N246	N	0.477373	0.084442	0.076803
H247	H	0.430549	0.079582	0.100215
H248	H	0.474153	0.111101	0.113958
N249	N	0.477377	-0.041013	0.076809
H250	H	0.430552	0.010679	0.100215
H251	H	0.474163	-0.064454	0.042870
H252	H	0.371901	0.957216	0.067038
H253	H	0.765114	-0.176930	-0.067051
H254	H	0.765106	0.195371	-0.067032
N255	N	0.784646	-0.069223	-0.076817
H256	H	0.831471	-0.120915	-0.100232
H257	H	0.787859	-0.045797	-0.113969
H258	H	0.371934	0.823049	-0.067078
N259	N	0.748706	0.009445	-0.128684
H260	H	0.805768	-0.008587	-0.144669
H261	H	0.740045	-0.029026	-0.119252
N262	N	0.748700	0.134898	-0.128670
H263	H	0.805767	0.095862	-0.144664
H264	H	0.741073	0.128193	-0.166762
N265	N	0.784643	0.303080	-0.076795
H266	H	0.816960	0.276424	-0.057410
H267	H	0.816891	0.276430	-0.128486
H268	H	0.765110	0.563988	-0.698446
N269	N	0.748708	0.641978	-0.496082
H270	H	0.784579	0.645330	-0.542281
H271	H	0.718860	0.685591	-0.456107
H272	H	0.528275	0.621435	-0.393911
N273	N	0.477368	0.707821	-0.174305
H274	H	0.445050	0.688443	-0.168665
H275	H	0.488651	0.702190	-0.137144
N276	N	0.254470	0.707955	0.453380
H277	H	0.282745	0.731370	0.448505
H278	H	0.193886	0.745113	0.480031
