data_functionalizedCrystal
_audit_creation_method	'MofGen! by Chris Wilmer'
_symmetry_space_group_name_H-M	'P1'
_symmetry_Int_Tables_number	1
_symmetry_cell_setting	triclinic
loop_
_symmetry_equiv_pos_as_xyz
  x,y,z
_cell_length_a	16.120297
_cell_length_b	16.120490
_cell_length_c	18.215405
_cell_angle_alpha	92.882919
_cell_angle_beta	87.131114
_cell_angle_gamma	90.129683
loop_
_atom_site_label
_atom_site_type_symbol
_atom_site_fract_x
_atom_site_fract_y
_atom_site_fract_z
Zn1	Zn	-0.534507	1.247438	0.372902
Zn2	Zn	-0.395441	1.254386	0.490057
Zn3	Zn	-0.388429	1.115428	0.360460
Zn4	Zn	-0.527414	1.108342	0.489373
O5	O	-0.461448	1.181398	0.428198
O6	O	-0.521963	1.364727	0.393937
O7	O	-0.278145	1.241826	0.467945
O8	O	-0.407841	1.132997	0.259130
O9	O	-0.419791	1.369831	0.480010
O10	O	-0.515164	1.229985	0.268272
O11	O	-0.272994	1.139735	0.372731
O12	O	-0.400963	0.998121	0.372067
O13	O	-0.644720	1.120920	0.478843
O14	O	-0.503074	0.992915	0.466778
O15	O	-0.649931	1.223113	0.393273
O16	O	-0.412913	1.234955	0.592947
O17	O	-0.509873	1.127657	0.592444
C18	C	-0.450488	0.965346	0.417999
C19	C	-0.445820	0.872916	0.413654
C20	C	-0.485667	0.659953	0.450729
C21	C	-0.437294	0.703692	0.405728
C22	C	-0.442039	0.797857	0.410140
C23	C	-0.480923	0.565779	0.446319
C24	C	-0.678341	1.170451	0.437369
C25	C	-0.770769	1.165786	0.441278
C26	C	-0.939993	1.157238	0.448396
C27	C	-0.983762	1.205723	0.407788
C28	C	-1.077925	1.200967	0.411748
C29	C	-0.845822	1.161993	0.444436
C30	C	-0.245400	1.192351	0.419011
C31	C	-0.152982	1.197177	0.414903
C32	C	-0.461403	1.181313	0.619399
C33	C	-0.461416	1.181351	0.701200
C34	C	-0.472450	1.398295	0.438438
C35	C	-0.477139	1.490724	0.442801
C36	C	-0.461512	1.181506	0.236253
C37	C	-0.461539	1.181552	0.154457
C38	C	-0.411033	1.237341	0.889641
C39	C	-0.411055	1.237377	0.966502
C40	C	-0.511927	1.125560	0.966011
C41	C	-0.511909	1.125528	0.889151
C42	C	-0.461457	1.181418	0.850968
C43	C	-0.461497	1.181485	1.004689
C44	C	-0.461522	1.181524	1.088025
C45	C	-0.461434	1.181380	0.767626
H46	H	-0.950517	1.250803	0.370047
C47	C	-0.546416	0.704905	0.507255
N48	N	-0.592167	0.738772	0.549833
H49	H	-0.553002	1.080055	0.997108
H50	H	-0.973237	1.112161	0.486133
C51	C	-0.567401	1.064021	0.846610
N52	N	-0.609203	1.017703	0.814568
C53	C	-0.355539	1.298825	0.847643
N54	N	-0.313742	1.345139	0.816012
H55	H	-0.392318	0.670417	0.363889
C56	C	-0.355581	1.298894	1.009039
N57	N	-0.313794	1.345230	1.041077
