data_functionalizedCrystal
_audit_creation_method	'MofGen! by Chris Wilmer'
_symmetry_space_group_name_H-M	'P1'
_symmetry_Int_Tables_number	1
_symmetry_cell_setting	triclinic
loop_
_symmetry_equiv_pos_as_xyz
  x,y,z
_cell_length_a	14.519731
_cell_length_b	13.596369
_cell_length_c	9.065215
_cell_angle_alpha	90.005011
_cell_angle_beta	84.351775
_cell_angle_gamma	90.005416
loop_
_atom_site_label
_atom_site_type_symbol
_atom_site_fract_x
_atom_site_fract_y
_atom_site_fract_z
O1	O	1.225272	0.081791	0.193547
O2	O	0.956964	0.081793	0.216289
O3	O	1.096666	0.081788	-0.009828
O4	O	1.085571	0.081796	0.419664
O5	O	1.096651	-0.081795	-0.009840
O6	O	0.956950	-0.081790	0.216277
O7	O	1.225258	-0.081791	0.193535
Zn8	Zn	1.091102	-0.107763	0.204904
Zn9	Zn	1.091121	0.107764	0.204920
O10	O	1.085557	-0.081787	0.419652
C11	C	0.922590	0.000001	0.215217
C12	C	0.820186	0.000002	0.212024
C13	C	0.737023	0.000006	0.209429
C14	C	0.632691	0.000006	0.206187
C15	C	0.549533	0.000006	0.203614
C16	C	0.445194	0.000008	0.200373
N17	N	1.091096	-0.254855	0.204892
C18	C	1.091119	-0.656146	0.204921
C19	C	1.091110	-0.544495	0.204918
C20	C	1.091108	-0.455504	0.204908
C21	C	1.091098	-0.343846	0.204903
C22	C	1.259632	0.000002	0.194607
C23	C	1.362036	0.000008	0.197800
C24	C	1.095593	-0.000003	-0.064801
C25	C	1.092407	0.000000	-0.228585
N26	N	1.091134	0.254856	0.204920
C27	C	1.086630	0.000006	0.474625
C28	C	1.089816	0.000009	0.638408
