data_functionalizedCrystal
_audit_creation_method	'MofGen! by Chris Wilmer'
_symmetry_space_group_name_H-M	'P1'
_symmetry_Int_Tables_number	1
_symmetry_cell_setting	triclinic
loop_
_symmetry_equiv_pos_as_xyz
  x,y,z
_cell_length_a	12.784890
_cell_length_b	10.723024
_cell_length_c	9.198806
_cell_angle_alpha	90.002277
_cell_angle_beta	89.997083
_cell_angle_gamma	101.212786
loop_
_atom_site_label
_atom_site_type_symbol
_atom_site_fract_x
_atom_site_fract_y
_atom_site_fract_z
O1	O	1.410375	-0.007798	-0.120848
O2	O	1.101308	-0.061197	-0.120859
O3	O	1.262971	0.147924	-0.120848
O4	O	1.248712	-0.216919	-0.120859
O5	O	1.262958	0.147924	0.120937
O6	O	1.101295	-0.061197	0.120926
O7	O	1.410362	-0.007798	0.120937
Cu8	Cu	1.255827	-0.034498	0.143009
Cu9	Cu	1.255843	-0.034498	-0.142930
O10	O	1.248700	-0.216919	0.120926
C11	C	1.061728	-0.064670	0.000032
C12	C	0.943809	-0.075004	0.000028
C13	C	0.765777	-0.204514	0.000022
C14	C	0.876571	-0.194813	0.000022
C15	C	0.900246	0.035112	0.000029
C16	C	0.789452	0.025410	0.000028
C17	C	0.722221	-0.094407	0.000027
C18	C	0.611424	-0.104107	0.000037
C19	C	0.635101	0.125816	0.000033
C20	C	0.745895	0.135518	0.000034
C21	C	1.261927	0.194300	0.000043
C22	C	1.258822	0.332487	0.000038
C23	C	1.449942	-0.004325	0.000043
C24	C	1.567861	0.006009	0.000038
C25	C	1.249744	-0.263296	0.000032
C26	C	1.252848	-0.401482	0.000028
N27	N	1.255825	-0.034496	0.344123
C28	C	1.349280	0.418195	0.000039
C29	C	1.346073	0.561018	0.000034
N30	N	1.255854	-0.034488	-0.344044
C31	C	1.317752	-0.099515	0.416321
C32	C	1.317768	-0.099511	0.583733
H33	H	0.556686	-0.201668	0.000043
Br34	Br	1.475152	0.683707	0.000053
H35	H	0.955004	0.132660	0.000019
Br36	Br	1.406132	-0.192308	0.687207
Br37	Br	1.482323	0.364278	0.000029
H38	H	1.202828	0.021173	0.593877
Br39	Br	0.575984	0.275258	0.000062
H40	H	0.711036	-0.302074	0.000038
Br41	Br	0.935681	-0.344250	0.000004
H42	H	1.202821	0.021175	0.406251
H43	H	1.370763	-0.155176	0.354192
Br44	Br	0.837145	0.298118	0.000033
Br45	Br	1.123765	0.475836	0.000043
H46	H	1.179004	0.364845	0.000025
