data_functionalizedCrystal
_audit_creation_method	'MofGen! by Chris Wilmer'
_symmetry_space_group_name_H-M	'P1'
_symmetry_Int_Tables_number	1
_symmetry_cell_setting	triclinic
loop_
_symmetry_equiv_pos_as_xyz
  x,y,z
_cell_length_a	12.827893
_cell_length_b	13.031981
_cell_length_c	13.034356
_cell_angle_alpha	76.643358
_cell_angle_beta	82.798910
_cell_angle_gamma	97.191988
loop_
_atom_site_label
_atom_site_type_symbol
_atom_site_fract_x
_atom_site_fract_y
_atom_site_fract_z
Zn1	Zn	1.623146	-0.346595	-0.546792
Zn2	Zn	1.572178	-0.546842	-0.346588
Zn3	Zn	1.422949	-0.369210	-0.369186
Zn4	Zn	1.422950	-0.524204	-0.524169
O5	O	1.510306	-0.446713	-0.446684
O6	O	1.762621	-0.373167	-0.520244
O7	O	1.531052	-0.542217	-0.200938
O8	O	1.470835	-0.217540	-0.411671
O9	O	1.725175	-0.520288	-0.373155
O10	O	1.617920	-0.200925	-0.542157
O11	O	1.421413	-0.411712	-0.217542
O12	O	1.276713	-0.389761	-0.389735
O13	O	1.470837	-0.481705	-0.675817
O14	O	1.276713	-0.503634	-0.503601
O15	O	1.617921	-0.351216	-0.692438
O16	O	1.531053	-0.692509	-0.351219
O17	O	1.421415	-0.675877	-0.481688
C18	C	1.238796	-0.446696	-0.446666
C19	C	1.122642	-0.446711	-0.446680
C20	C	0.932286	-0.519436	-0.373839
C21	C	1.052336	-0.519422	-0.373823
C22	C	1.470735	-0.722738	-0.411569
C23	C	1.453907	-0.840818	-0.396583
C24	C	1.519147	-0.885150	-0.454527
C25	C	1.501756	-1.007192	-0.439039
C26	C	1.782876	-0.446730	-0.446702
C27	C	1.899029	-0.446738	-0.446710
C28	C	1.550064	-0.411413	-0.723748
C29	C	1.567007	-0.396370	-0.841816
C30	C	1.550063	-0.169606	-0.481958
C31	C	1.567005	-0.051520	-0.496990
C32	C	1.519294	-0.438686	-1.008260
C33	C	1.501780	-0.454234	-0.886230
C34	C	1.470773	-0.481798	-0.170707
C35	C	1.454075	-0.496542	-0.052678
H36	H	1.093978	-0.384471	-0.509074
H37	H	1.635736	-0.999127	-0.558073
H38	H	1.385174	-0.893215	-0.335514
C39	C	1.659964	-0.313898	-0.912479
N40	N	1.729978	-0.251780	-0.965704
C41	C	0.980627	-0.362636	-0.530978
N42	N	1.042087	-0.299290	-0.594451
H43	H	1.587873	-0.832755	-0.515605
C44	C	1.361124	-0.579009	-0.982009
N45	N	1.291110	-0.641124	-0.928782
H46	H	1.432977	-0.515285	-0.833919
H47	H	1.433018	-1.059585	-0.377966
C48	C	0.850688	-0.603535	-0.289569
N49	N	0.789229	-0.666881	-0.226095
C50	C	1.091066	-0.603507	-0.289536
N51	N	1.120240	-0.666841	-0.226047
H52	H	1.588099	-0.377648	-1.060573
