data_functionalizedCrystal
_audit_creation_method	'MofGen! by Chris Wilmer'
_symmetry_space_group_name_H-M	'P1'
_symmetry_Int_Tables_number	1
_symmetry_cell_setting	triclinic
loop_
_symmetry_equiv_pos_as_xyz
  x,y,z
_cell_length_a	16.109296
_cell_length_b	17.699083
_cell_length_c	14.586319
_cell_angle_alpha	90.002525
_cell_angle_beta	90.004442
_cell_angle_gamma	96.628848
loop_
_atom_site_label
_atom_site_type_symbol
_atom_site_fract_x
_atom_site_fract_y
_atom_site_fract_z
O1	O	-0.105137	1.004223	-0.076113
O2	O	0.228197	1.337556	0.257220
O3	O	0.561530	1.670890	0.590554
O4	O	-0.118816	0.783864	-0.076143
O5	O	0.214518	1.117197	0.257190
O6	O	0.547851	1.450531	0.590523
O7	O	0.009066	0.900099	-0.076120
O8	O	0.342399	1.233432	0.257213
O9	O	0.675732	1.566766	0.590547
O10	O	-0.233018	0.887988	-0.076137
O11	O	0.100315	1.221321	0.257197
O12	O	0.433649	1.554655	0.590530
O13	O	0.009067	0.900091	0.076361
O14	O	0.342401	1.233424	0.409694
O15	O	0.675734	1.566758	0.743028
O16	O	-0.118814	0.783856	0.076337
O17	O	0.214520	1.117189	0.409671
O18	O	0.547853	1.450523	0.743004
O19	O	-0.105135	1.004215	0.076368
O20	O	0.228198	1.337548	0.409701
O21	O	0.561532	1.670882	0.743034
Cu22	Cu	-0.111974	0.894035	0.090275
Cu23	Cu	0.221359	1.227368	0.423609
Cu24	Cu	0.554692	1.560701	0.756942
Cu25	Cu	-0.111976	0.894044	-0.090051
Cu26	Cu	0.221357	1.227378	0.243282
Cu27	Cu	0.554690	1.560711	0.576616
O28	O	-0.233016	0.887980	0.076344
O29	O	0.100317	1.221313	0.409678
O30	O	0.433651	1.554647	0.743011
C31	C	-0.118325	0.755662	0.000093
C32	C	0.215009	1.088996	0.333427
C33	C	0.548342	1.422329	0.666760
C34	C	-0.116854	0.671642	0.000082
C35	C	0.216479	1.004975	0.333415
C36	C	0.549813	1.338309	0.666749
C37	C	-0.191918	0.623127	0.000077
C38	C	0.141416	0.956460	0.333410
C39	C	0.474749	1.289794	0.666744
C40	C	-0.190531	0.544182	0.000089
C41	C	0.142802	0.877515	0.333422
C42	C	0.476136	1.210848	0.666756
C43	C	-0.114080	0.513753	0.000099
C44	C	0.219253	0.847086	0.333433
C45	C	0.552587	1.180420	0.666766
C46	C	-0.039011	0.562274	0.000107
C47	C	0.294323	0.895608	0.333440
C48	C	0.627656	1.228941	0.666774
C49	C	-0.040398	0.641218	0.000102
C50	C	0.292935	0.974551	0.333435
C51	C	0.626268	1.307885	0.666768
C52	C	-0.033414	0.243903	0.000130
C53	C	0.299920	0.577237	0.333463
C54	C	0.633253	0.910570	0.666797
C55	C	-0.032032	0.164954	0.000133
C56	C	0.301301	0.498287	0.333466
C57	C	0.634635	0.831620	0.666799
C58	C	-0.183547	0.146867	0.000117
C59	C	0.149787	0.480200	0.333451
C60	C	0.483120	0.813534	0.666784
C61	C	-0.184934	0.225811	0.000112
C62	C	0.148399	0.559144	0.333445
C63	C	0.481733	0.892477	0.666779
C64	C	-0.109865	0.274325	0.000125
C65	C	0.223468	0.607658	0.333458
C66	C	0.556802	0.940992	0.666791
C67	C	-0.111370	0.359926	0.000113
C68	C	0.221964	0.693260	0.333447
C69	C	0.555297	1.026593	0.666780
C70	C	-0.112575	0.428153	0.000104
C71	C	0.220759	0.761487	0.333437
C72	C	0.554092	1.094820	0.666771
C73	C	0.040041	0.899605	0.000120
C74	C	0.373374	1.232939	0.333454
C75	C	0.706707	1.566272	0.666787
C76	C	0.132334	0.898136	0.000120
C77	C	0.465667	1.231470	0.333454
C78	C	0.799000	1.564803	0.666787
C79	C	0.441443	0.962306	0.000117
C80	C	0.774777	1.295639	0.333450
C81	C	1.108110	1.628972	0.666784
C82	C	0.354725	0.963693	0.000121
C83	C	0.688058	1.297026	0.333455
C84	C	1.021392	1.630359	0.666788
C85	C	0.334614	0.825786	0.000114
C86	C	0.667948	1.159119	0.333448
C87	C	1.001281	1.492453	0.666781
C88	C	0.421331	0.824400	0.000117
C89	C	0.754664	1.157733	0.333450
C90	C	1.087998	1.491067	0.666783
C91	C	0.474743	0.892662	0.000113
C92	C	0.808077	1.225995	0.333447
C93	C	1.141410	1.559329	0.666780
C94	C	0.301309	0.895435	0.000115
C95	C	0.634642	1.228769	0.333449
C96	C	0.967975	1.562102	0.666782
C97	C	0.207285	0.896939	0.000120
C98	C	0.540618	1.230272	0.333454
C99	C	0.873952	1.563605	0.666787
C100	C	0.568773	0.891159	0.000110
C101	C	0.902106	1.224492	0.333443
C102	C	1.235440	1.557826	0.666777
C103	C	0.736010	0.888478	0.000105
C104	C	1.069343	1.221812	0.333438
C105	C	1.402676	1.555145	0.666772
C106	C	0.643719	0.889961	0.000108
C107	C	0.977052	1.223294	0.333442
C108	C	1.310385	1.556627	0.666775
C109	C	-0.105626	1.032417	0.000129
C110	C	0.227707	1.365750	0.333462
C111	C	0.561041	1.699083	0.666796
C112	C	-0.107096	1.116437	0.000134
C113	C	0.226237	1.449770	0.333468
C114	C	0.559570	1.783104	0.666801
N115	N	-0.111972	0.894034	0.217107
N116	N	0.221361	1.227367	0.550440
N117	N	0.554695	1.560700	0.883774
N118	N	-0.111972	0.894051	-0.216883
N119	N	0.221361	1.227385	0.116451
N120	N	0.554695	1.560718	0.449784
C121	C	-0.055365	0.945519	0.452124
C122	C	0.277968	1.278853	0.785457
C123	C	0.611301	1.612186	1.118791
C124	C	-0.055363	0.945522	0.548105
C125	C	0.277970	1.278855	0.881438
C126	C	0.611303	1.612188	1.214772
C127	C	-0.168581	0.842560	0.548094
C128	C	0.164752	1.175893	0.881427
C129	C	0.498085	1.509227	1.214760
C130	C	-0.168579	0.842555	0.452114
C131	C	0.164754	1.175888	0.785448
C132	C	0.498088	1.509221	1.118781
C133	C	-0.111972	0.894039	0.404132
C134	C	0.221362	1.227372	0.737465
C135	C	0.554695	1.560705	1.070798
C136	C	-0.111972	0.894046	0.596093
C137	C	0.221361	1.227379	0.929426
C138	C	0.554694	1.560713	1.262759
C139	C	-0.111971	0.894048	0.700160
C140	C	0.221363	1.227381	1.033493
C141	C	0.554696	1.560715	1.366826
C142	C	-0.111972	0.894036	0.300058
C143	C	0.221361	1.227369	0.633391
C144	C	0.554695	1.560703	0.966725
H145	H	-0.244671	0.107357	0.000112
H146	H	0.088662	0.440690	0.333446
H147	H	0.421995	0.774023	0.666779
H148	H	-0.214675	0.800629	0.413036
H149	H	0.118658	1.133963	0.746370
H150	H	0.451992	1.467296	1.079703
H151	H	0.027712	0.283395	0.000141
H152	H	0.361046	0.616728	0.333474
H153	H	0.694379	0.950062	0.666808
C154	C	0.109512	0.651172	0.000102
C155	C	0.442845	0.984506	0.333436
C156	C	0.776178	1.317839	0.666769
C157	C	0.042114	0.694549	0.000098
C158	C	0.375447	1.027883	0.333432
C159	C	0.708781	1.361216	0.666765
H160	H	0.160452	0.684098	0.000097
H161	H	0.493785	1.017431	0.333430
H162	H	0.827118	1.350765	0.666763
H163	H	0.106904	0.620012	0.053275
H164	H	0.440237	0.953345	0.386608
H165	H	0.773571	1.286679	0.719941
H166	H	0.106893	0.619998	-0.053073
H167	H	0.440227	0.953331	0.280261
H168	H	0.773560	1.286664	0.613594
H169	H	0.044729	0.725720	0.053277
H170	H	0.378062	1.059053	0.386610
H171	H	0.711396	1.392387	0.719944
H172	H	0.044723	0.725723	-0.053079
H173	H	0.378056	1.059056	0.280254
H174	H	0.711390	1.392389	0.613587
C175	C	0.550638	1.040749	0.078505
C176	C	0.883971	1.374082	0.411838
C177	C	1.217305	1.707415	0.745172
C178	C	0.500157	1.037337	0.000122
C179	C	0.833490	1.370670	0.333455
C180	C	1.166824	1.704004	0.666788
H181	H	0.586887	1.087069	0.078505
H182	H	0.920220	1.420403	0.411838
H183	H	1.253553	1.753736	0.745171
H184	H	0.516394	1.038425	0.131668
H185	H	0.849727	1.371759	0.465001
H186	H	1.183061	1.705092	0.798334
H187	H	0.582880	0.999070	0.078491
H188	H	0.916213	1.332403	0.411825
H189	H	1.249546	1.665736	0.745158
H190	H	0.467911	1.079013	0.000139
H191	H	0.801244	1.412346	0.333472
H192	H	1.134577	1.745680	0.666805
H193	H	0.534405	1.039668	-0.053055
H194	H	0.867738	1.373001	0.280278
H195	H	1.201072	1.706334	0.613612
C196	C	0.430895	0.706426	-0.078281
C197	C	0.764228	1.039759	0.255053
C198	C	1.097562	1.373092	0.588386
C199	C	0.457942	0.747842	0.000109
C200	C	0.791275	1.081175	0.333442
C201	C	1.124608	1.414508	0.666775
H202	H	0.453503	0.659167	-0.078284
H203	H	0.786836	0.992500	0.255049
H204	H	1.120169	1.325834	0.588383
H205	H	0.371613	0.697481	-0.078276
H206	H	0.704947	1.030814	0.255057
H207	H	1.038280	1.364147	0.588390
H208	H	0.449240	0.734539	-0.131445
H209	H	0.782574	1.067872	0.201888
H210	H	1.115907	1.401206	0.535222
H211	H	0.439591	0.719731	0.053273
H212	H	0.772924	1.053064	0.386607
H213	H	1.106258	1.386398	0.719940
H214	H	0.517236	0.756785	0.000113
H215	H	0.850569	1.090118	0.333446
H216	H	1.183903	1.423451	0.666780
H217	H	0.327617	1.020404	0.000126
H218	H	0.660950	1.353737	0.333459
H219	H	0.994284	1.687070	0.666793
C220	C	0.030395	0.449292	0.000114
C221	C	0.363728	0.782625	0.333447
C222	C	0.697062	1.115959	0.666780
C223	C	0.045027	0.528829	0.000116
C224	C	0.378360	0.862163	0.333450
C225	C	0.711693	1.195496	0.666783
H226	H	0.082279	0.428648	0.000112
H227	H	0.415612	0.761981	0.333445
H228	H	0.748945	1.095314	0.666779
H229	H	-0.000498	0.432645	0.053282
H230	H	0.332835	0.765979	0.386615
H231	H	0.666168	1.099312	0.719949
H232	H	-0.000507	0.432643	-0.053065
H233	H	0.332826	0.765976	0.280268
H234	H	0.666159	1.099309	0.613601
H235	H	0.075924	0.545479	0.053299
H236	H	0.409257	0.878812	0.386633
H237	H	0.742591	1.212146	0.719966
H238	H	0.075933	0.545483	-0.053057
H239	H	0.409267	0.878816	0.280276
H240	H	0.742600	1.212149	0.613609
H241	H	-0.009271	0.987440	0.413059
H242	H	0.324062	1.320773	0.746392
H243	H	0.657396	1.654106	1.079725
H244	H	0.291116	0.770210	0.000115
H245	H	0.624449	1.103543	0.333448
H246	H	0.957782	1.436876	0.666782
C247	C	0.056539	1.047300	0.538469
C248	C	0.389872	1.380633	0.871802
C249	C	0.723205	1.713966	1.205136
C250	C	0.006857	1.002114	0.600858
C251	C	0.340190	1.335448	0.934191
C252	C	0.673524	1.668781	1.267525
H253	H	0.094949	1.082241	0.571038
H254	H	0.428282	1.415574	0.904372
H255	H	0.761616	1.748908	1.237705
H256	H	0.086401	1.015805	0.501039
H257	H	0.419735	1.349138	0.834372
H258	H	0.753068	1.682471	1.167706
H259	H	0.021957	1.074508	0.501029
H260	H	0.355290	1.407841	0.834362
H261	H	0.688624	1.741174	1.167695
H262	H	0.041438	0.974902	0.638294
H263	H	0.374772	1.308235	0.971628
H264	H	0.708105	1.641568	1.304961
H265	H	-0.023008	1.033613	0.638304
H266	H	0.310326	1.366947	0.971637
H267	H	0.643659	1.700280	1.304970
H268	H	-0.214671	0.800644	0.587171
H269	H	0.118662	1.133977	0.920504
H270	H	0.451996	1.467311	1.253837
H271	H	-0.254173	0.647895	0.000068
H272	H	0.079160	0.981229	0.333401
H273	H	0.412494	1.314562	0.666735
H274	H	-0.251656	0.504683	0.000084
H275	H	0.081678	0.838017	0.333417
H276	H	0.415011	1.171350	0.666751
H277	H	0.030227	0.140182	0.000142
H278	H	0.363561	0.473516	0.333476
H279	H	0.696894	0.806849	0.666809
C280	C	-0.334566	0.200001	0.000109
C281	C	-0.001233	0.533334	0.333442
C282	C	0.332100	0.866667	0.666776
C283	C	-0.268971	0.259257	0.000105
C284	C	0.064362	0.592590	0.333439
C285	C	0.397696	0.925923	0.666772
H286	H	-0.386447	0.220650	0.000113
H287	H	-0.053114	0.553983	0.333447
H288	H	0.280220	0.887317	0.666780
H289	H	-0.330879	0.169585	-0.053060
H290	H	0.002455	0.502918	0.280273
H291	H	0.335788	0.836251	0.613607
H292	H	-0.330865	0.169588	0.053287
H293	H	0.002468	0.502922	0.386621
H294	H	0.335802	0.836255	0.719954
H295	H	-0.272669	0.289666	-0.053077
H296	H	0.060665	0.622999	0.280257
H297	H	0.393998	0.956333	0.613590
H298	H	-0.272661	0.289686	0.053280
H299	H	0.060673	0.623019	0.386613
H300	H	0.394006	0.956352	0.719947
