data_functionalizedCrystal
_audit_creation_method	'MofGen! by Chris Wilmer'
_symmetry_space_group_name_H-M	'P1'
_symmetry_Int_Tables_number	1
_symmetry_cell_setting	triclinic
loop_
_symmetry_equiv_pos_as_xyz
  x,y,z
_cell_length_a	10.654558
_cell_length_b	10.489711
_cell_length_c	9.565339
_cell_angle_alpha	89.996064
_cell_angle_beta	90.002965
_cell_angle_gamma	84.507663
loop_
_atom_site_label
_atom_site_type_symbol
_atom_site_fract_x
_atom_site_fract_y
_atom_site_fract_z
O1	O	1.667899	0.179206	0.116228
O2	O	1.302428	0.196264	0.116234
O3	O	1.493500	0.002131	0.116235
O4	O	1.476828	0.373339	0.116227
O5	O	1.493484	0.002143	-0.116286
O6	O	1.302413	0.196276	-0.116286
O7	O	1.667884	0.179218	-0.116292
Zn8	Zn	1.485146	0.187749	-0.153207
Zn9	Zn	1.485166	0.187733	0.153148
O10	O	1.476813	0.373351	-0.116293
C11	C	1.255623	0.195016	-0.000025
C12	C	1.116179	0.191262	-0.000023
C13	C	0.919646	0.185978	0.126725
C14	C	1.050670	0.189494	0.126726
C15	C	1.050658	0.189500	-0.126780
C16	C	0.919637	0.185975	-0.126780
C17	C	0.854143	0.184223	0.253481
C18	C	0.919655	0.185982	0.380240
C19	C	1.050679	0.189498	0.380241
C20	C	1.116191	0.191255	0.253484
C21	C	1.492241	-0.045395	-0.000022
C22	C	1.488497	-0.187024	-0.000010
C23	C	1.603402	-0.369463	-0.000026
C24	C	1.545998	-0.277287	-0.114668
C25	C	1.545982	-0.277323	0.114579
C26	C	1.424361	-0.347183	-0.114774
C27	C	1.424362	-0.347228	0.114576
C28	C	1.366870	-0.255080	-0.000094
C29	C	1.714690	0.180467	-0.000030
C30	C	1.854134	0.184221	-0.000024
C31	C	1.478072	0.420877	-0.000034
C32	C	1.481815	0.562507	-0.000036
N33	N	1.485142	0.187759	-0.362286
C34	C	1.396751	0.277509	-0.453490
C35	C	1.510463	0.303268	-0.546671
C36	C	1.371479	0.162010	-0.546660
C37	C	1.598912	0.213576	-0.453416
C38	C	1.459852	0.072267	-0.453397
C39	C	1.573646	0.097978	-0.546536
N40	N	1.485181	0.187713	0.362228
H41	H	1.222881	0.194111	0.253495
H42	H	0.866308	0.184543	0.483440
H43	H	1.372964	-0.378230	0.211504
H44	H	1.531880	0.400917	-0.587641
N45	N	1.121345	0.191373	0.516948
H46	H	1.059965	0.189723	0.597242
H47	H	1.166242	0.271767	0.522471
N48	N	1.614154	-0.236342	0.242960
H49	H	1.703497	-0.278362	0.242850
H50	H	1.569038	-0.263015	0.329481
H51	H	0.866293	0.184568	-0.229990
N52	N	1.356267	-0.387931	-0.243312
H53	H	1.280277	-0.432170	-0.214244
H54	H	1.415022	-0.448799	-0.300277
H55	H	1.275340	0.140252	-0.587622
H56	H	1.266846	-0.205569	-0.000156
H57	H	1.648495	0.022056	-0.587134
N58	N	1.431438	-0.057040	-0.399085
H59	H	1.352866	-0.046774	-0.339498
H60	H	1.504748	-0.095377	-0.341028
N61	N	0.712827	0.180429	0.253479
H62	H	0.681270	0.179581	0.353008
H63	H	0.690840	0.100643	0.203657
H64	H	1.597439	-0.246318	-0.211592
H65	H	1.695073	0.235452	-0.412630
N66	N	1.297816	0.378125	-0.399376
H67	H	1.317103	0.465318	-0.433312
H68	H	1.297993	0.376779	-0.293800
N69	N	1.121309	0.191402	-0.263489
H70	H	1.214251	0.193906	-0.244255
H71	H	1.088930	0.269727	-0.318837
N72	N	1.735772	-0.435350	-0.000163
H73	H	1.781528	-0.410093	-0.086847
H74	H	1.732163	-0.531207	0.000773
