data_functionalizedCrystal
_audit_creation_method	'MofGen! by Chris Wilmer'
_symmetry_space_group_name_H-M	'P1'
_symmetry_Int_Tables_number	1
_symmetry_cell_setting	triclinic
loop_
_symmetry_equiv_pos_as_xyz
  x,y,z
_cell_length_a	18.215407
_cell_length_b	19.805405
_cell_length_c	18.215399
_cell_angle_alpha	89.966980
_cell_angle_beta	89.983176
_cell_angle_gamma	90.026858
loop_
_atom_site_label
_atom_site_type_symbol
_atom_site_fract_x
_atom_site_fract_y
_atom_site_fract_z
Zn1	Zn	1.125042	-0.269446	-0.416102
Zn2	Zn	1.458376	0.063887	-0.082769
Zn3	Zn	1.791709	0.397221	0.250564
Zn4	Zn	1.124954	-0.382642	-0.293030
Zn5	Zn	1.458287	-0.049308	0.040303
Zn6	Zn	1.791621	0.284025	0.373636
Zn7	Zn	1.001981	-0.269473	-0.293050
Zn8	Zn	1.335315	0.063860	0.040284
Zn9	Zn	1.668648	0.397194	0.373617
Zn10	Zn	1.001937	-0.382599	-0.416055
Zn11	Zn	1.335271	-0.049266	-0.082722
Zn12	Zn	1.668604	0.284067	0.250612
O13	O	1.063479	-0.326040	-0.354559
O14	O	1.396812	0.007293	-0.021226
O15	O	1.730145	0.340627	0.312107
O16	O	1.228015	-0.284468	-0.399788
O17	O	1.561348	0.048865	-0.066455
O18	O	1.894681	0.382199	0.266879
O19	O	1.108623	-0.367659	-0.190049
O20	O	1.441956	-0.034325	0.143285
O21	O	1.775289	0.299008	0.476618
O22	O	1.018361	-0.174753	-0.309401
O23	O	1.351694	0.158581	0.023933
O24	O	1.685028	0.491914	0.357266
O25	O	1.227950	-0.367633	-0.309368
O26	O	1.561283	-0.034299	0.023966
O27	O	1.894617	0.299034	0.357299
O28	O	1.108773	-0.174733	-0.399807
O29	O	1.442107	0.158600	-0.066474
O30	O	1.775440	0.491934	0.266860
O31	O	1.018275	-0.284514	-0.190063
O32	O	1.351609	0.048819	0.143271
O33	O	1.684942	0.382153	0.476604
O34	O	0.898991	-0.284473	-0.309355
O35	O	1.232325	0.048861	0.023978
O36	O	1.565658	0.382194	0.357312
O37	O	1.018286	-0.367560	-0.519046
O38	O	1.351620	-0.034227	-0.185712
O39	O	1.684953	0.299106	0.147621
O40	O	0.898959	-0.367586	-0.399727
O41	O	1.232292	-0.034253	-0.066393
O42	O	1.565626	0.299080	0.266940
O43	O	1.108731	-0.284427	-0.519080
O44	O	1.442064	0.048906	-0.185747
O45	O	1.775398	0.382240	0.147586
O46	O	1.108580	-0.477353	-0.309322
O47	O	1.441913	-0.144019	0.024011
O48	O	1.775247	0.189314	0.357345
O49	O	1.018201	-0.477321	-0.399708
O50	O	1.351534	-0.143988	-0.066374
O51	O	1.684867	0.189345	0.266959
C52	C	0.872272	-0.326028	-0.354538
C53	C	1.205606	0.007305	-0.021205
C54	C	1.538939	0.340638	0.312128
C55	C	0.790474	-0.326040	-0.354547
C56	C	1.123807	0.007294	-0.021213
C57	C	1.457140	0.340627	0.312120
C58	C	0.602282	-0.369385	-0.401544
C59	C	0.935615	-0.036052	-0.068211
C60	C	1.268949	0.297282	0.265123
C61	C	0.525423	-0.369387	-0.401553
C62	C	0.858757	-0.036054	-0.068220
C63	C	1.192090	0.297280	0.265113
C64	C	0.525427	-0.282707	-0.307591
C65	C	0.858761	0.050626	0.025743
C66	C	1.192094	0.383959	0.359076
C67	C	0.602285	-0.282702	-0.307586
C68	C	0.935618	0.050631	0.025748
C69	C	1.268951	0.383964	0.359081
C70	C	0.640710	-0.326045	-0.354561
C71	C	0.974043	0.007288	-0.021228
C72	C	1.307377	0.340622	0.312105
C73	C	0.486994	-0.326052	-0.354575
C74	C	0.820327	0.007281	-0.021242
C75	C	1.153661	0.340615	0.312091
C76	C	0.403660	-0.326054	-0.354585
C77	C	0.736994	0.007279	-0.021252
C78	C	1.070327	0.340613	0.312082
C79	C	0.724049	-0.326042	-0.354553
C80	C	1.057382	0.007291	-0.021220
C81	C	1.390716	0.340624	0.312114
C82	C	1.063396	-0.501896	-0.354524
C83	C	1.396729	-0.168563	-0.021190
C84	C	1.730063	0.164771	0.312143
C85	C	1.063428	-0.577128	-0.354533
C86	C	1.396761	-0.243795	-0.021200
C87	C	1.730095	0.089539	0.312134
C88	C	1.110534	-0.612466	-0.307518
C89	C	1.443868	-0.279133	0.025815
C90	C	1.777201	0.054201	0.359148
C91	C	1.110565	-0.683154	-0.307535
C92	C	1.443899	-0.349821	0.025799
C93	C	1.777232	-0.016488	0.359132
C94	C	1.063486	-0.718504	-0.354562
C95	C	1.396819	-0.385170	-0.021229
C96	C	1.730153	-0.051837	0.312104
C97	C	1.016378	-0.683161	-0.401582
C98	C	1.349711	-0.349827	-0.068249
C99	C	1.683044	-0.016494	0.265084
C100	C	1.016351	-0.612474	-0.401569
C101	C	1.349684	-0.279140	-0.068236
C102	C	1.683017	0.054193	0.265097
C103	C	1.016486	-0.968234	-0.401637
C104	C	1.349820	-0.634901	-0.068304
C105	C	1.683153	-0.301567	0.265030
C106	C	1.016515	-1.038926	-0.401645
C107	C	1.349849	-0.705593	-0.068311
C108	C	1.683182	-0.372259	0.265022
C109	C	1.110701	-1.038915	-0.307602
C110	C	1.444034	-0.705581	0.025731
C111	C	1.777368	-0.372248	0.359064
C112	C	1.110674	-0.968228	-0.307589
C113	C	1.444007	-0.634894	0.025744
C114	C	1.777341	-0.301561	0.359077
C115	C	1.063569	-0.932891	-0.354611
C116	C	1.396902	-0.599557	-0.021278
C117	C	1.730235	-0.266224	0.312055
C118	C	1.063536	-0.856242	-0.354594
C119	C	1.396870	-0.522909	-0.021261
C120	C	1.730203	-0.189576	0.312072
C121	C	1.063514	-0.795151	-0.354577
C122	C	1.396848	-0.461817	-0.021243
C123	C	1.730181	-0.128484	0.312090
C124	C	1.255432	-0.326052	-0.354581
C125	C	1.588765	0.007281	-0.021248
C126	C	1.922098	0.340615	0.312086
C127	C	1.337231	-0.326057	-0.354590
C128	C	1.670564	0.007276	-0.021257
C129	C	2.003897	0.340609	0.312077
C130	C	1.063514	-0.325986	-0.546512
C131	C	1.396847	0.007347	-0.213179
C132	C	1.730180	0.340681	0.120154
C133	C	1.063528	-0.325963	-0.628311
C134	C	1.396862	0.007371	-0.294978
C135	C	1.730195	0.340704	0.038355
C136	C	1.063582	-0.149497	-0.354611
C137	C	1.396915	0.183836	-0.021278
C138	C	1.730249	0.517169	0.312055
C139	C	1.063626	-0.074265	-0.354633
C140	C	1.396959	0.259068	-0.021300
C141	C	1.730293	0.592402	0.312033
C142	C	1.016524	-0.282640	-0.816514
C143	C	1.349858	0.050693	-0.483180
C144	C	1.683191	0.384026	-0.149847
C145	C	1.016537	-0.282627	-0.893372
C146	C	1.349870	0.050707	-0.560039
C147	C	1.683204	0.384040	-0.226706
C148	C	1.110620	-0.369205	-0.893347
C149	C	1.443954	-0.035871	-0.560014
C150	C	1.777287	0.297462	-0.226680
C151	C	1.110603	-0.369221	-0.816489
C152	C	1.443937	-0.035888	-0.483156
C153	C	1.777270	0.297445	-0.149823
C154	C	1.063556	-0.325935	-0.778075
C155	C	1.396890	0.007398	-0.444742
C156	C	1.730223	0.340732	-0.111408
C157	C	1.063586	-0.325905	-0.931791
C158	C	1.396920	0.007428	-0.598458
C159	C	1.730253	0.340762	-0.265124
C160	C	1.063600	-0.325891	-1.015125
C161	C	1.396934	0.007443	-0.681791
C162	C	1.730267	0.340776	-0.348458
C163	C	1.063541	-0.325950	-0.694736
C164	C	1.396874	0.007383	-0.361403
C165	C	1.730208	0.340716	-0.028069
C166	C	1.063486	-0.326045	-0.163353
C167	C	1.396820	0.007288	0.169980
C168	C	1.730153	0.340622	0.503314
C169	C	1.063614	-0.325877	-0.081555
C170	C	1.396948	0.007456	0.251779
C171	C	1.730281	0.340789	0.585112
H172	H	0.633574	-0.247405	-0.269327
H173	H	0.966907	0.085928	0.064007
H174	H	1.300240	0.419261	0.397340
H175	H	0.494132	-0.247420	-0.269344
H176	H	0.827465	0.085913	0.063990
H177	H	1.160799	0.419247	0.397323
Cl178	Cl	0.957398	-0.228205	-0.941692
Cl179	Cl	1.290732	0.105128	-0.608359
Cl180	Cl	1.624065	0.438462	-0.275026
H181	H	0.633566	-0.404676	-0.439797
H182	H	0.966899	-0.071342	-0.106463
H183	H	1.300233	0.261991	0.226870
H184	H	1.148904	-0.404480	-0.785192
H185	H	1.482238	-0.071147	-0.451858
H186	H	1.815571	0.262187	-0.118525
H187	H	1.149059	-1.067694	-0.269317
H188	H	1.482393	-0.734361	0.064016
H189	H	1.815726	-0.401028	0.397349
Cl190	Cl	0.957196	-0.727600	-0.460708
Cl191	Cl	1.290529	-0.394267	-0.127374
Cl192	Cl	1.623863	-0.060933	0.205959
H193	H	1.148868	-0.583689	-0.269220
H194	H	1.482202	-0.250356	0.064113
H195	H	1.815535	0.082978	0.397447
Cl196	Cl	1.169790	-0.727576	-0.248430
Cl197	Cl	1.503123	-0.394243	0.084903
Cl198	Cl	1.836457	-0.060909	0.418237
H199	H	0.978178	-1.067705	-0.439946
H200	H	1.311512	-0.734372	-0.106613
H201	H	1.644845	-0.401039	0.226721
Cl202	Cl	0.477117	-0.423873	-0.460622
Cl203	Cl	0.810450	-0.090540	-0.127288
Cl204	Cl	1.143784	0.242794	0.206045
Cl205	Cl	1.169862	-0.923792	-0.248467
Cl206	Cl	1.503195	-0.590459	0.084867
Cl207	Cl	1.836529	-0.257126	0.418200
H208	H	0.978215	-0.247394	-0.785239
H209	H	1.311549	0.085939	-0.451905
H210	H	1.644882	0.419273	-0.118572
Cl211	Cl	0.957266	-0.923820	-0.460749
Cl212	Cl	1.290600	-0.590486	-0.127416
Cl213	Cl	1.623933	-0.257153	0.205917
H214	H	0.977993	-0.583702	-0.439854
H215	H	1.311326	-0.250369	-0.106521
H216	H	1.644660	0.082965	0.226812
Cl217	Cl	1.169764	-0.423617	-0.941645
Cl218	Cl	1.503097	-0.090283	-0.608311
Cl219	Cl	1.836431	0.243050	-0.274978
