data_functionalizedCrystal
_audit_creation_method	'MofGen! by Chris Wilmer'
_symmetry_space_group_name_H-M	'P1'
_symmetry_Int_Tables_number	1
_symmetry_cell_setting	triclinic
loop_
_symmetry_equiv_pos_as_xyz
  x,y,z
_cell_length_a	13.897449
_cell_length_b	18.215405
_cell_length_c	13.897441
_cell_angle_alpha	89.965178
_cell_angle_beta	89.979267
_cell_angle_gamma	90.026165
loop_
_atom_site_label
_atom_site_type_symbol
_atom_site_fract_x
_atom_site_fract_y
_atom_site_fract_z
Zn1	Zn	1.474654	-0.292936	-0.545353
Zn2	Zn	1.474528	-0.416016	-0.384042
Zn3	Zn	1.313344	-0.292971	-0.384071
Zn4	Zn	1.313305	-0.415968	-0.545295
O5	O	1.393958	-0.354473	-0.464690
O6	O	1.609619	-0.309268	-0.523967
O7	O	1.453110	-0.399729	-0.249064
O8	O	1.334811	-0.189982	-0.405502
O9	O	1.609526	-0.399695	-0.405453
O10	O	1.453325	-0.189956	-0.523995
O11	O	1.334688	-0.309328	-0.249086
O12	O	1.178357	-0.309281	-0.405446
O13	O	1.334745	-0.399612	-0.680284
O14	O	1.178329	-0.399646	-0.523896
O15	O	1.453288	-0.309221	-0.680327
O16	O	1.453073	-0.518994	-0.405397
O17	O	1.334623	-0.518958	-0.523868
C18	C	1.393856	-0.545679	-0.464644
C19	C	1.393901	-0.627478	-0.464656
C20	C	1.143343	-0.354463	-0.464668
C21	C	1.036130	-0.354476	-0.464682
C22	C	1.455722	-0.815666	-0.403082
C23	C	1.455765	-0.892524	-0.403105
C24	C	1.332317	-0.892527	-0.526368
C25	C	1.332279	-0.815670	-0.526349
C26	C	1.393980	-0.777241	-0.464700
C27	C	1.394061	-0.930957	-0.464743
C28	C	1.394107	-1.014291	-0.464769
C29	C	1.393936	-0.693902	-0.464676
C30	C	0.839834	-0.354479	-0.464707
C31	C	0.949067	-0.354475	-0.464690
C32	C	1.645551	-0.354483	-0.464713
C33	C	1.752765	-0.354487	-0.464723
C34	C	1.394026	-0.354408	-0.716283
C35	C	1.394055	-0.354380	-0.823497
C36	C	1.394086	-0.162520	-0.464758
C37	C	1.394141	-0.080721	-0.464787
C38	C	1.394082	-0.354330	-1.019793
C39	C	1.394064	-0.354360	-0.910560
C40	C	1.393945	-0.354484	-0.214076
C41	C	1.394103	-0.354305	-0.106863
H42	H	1.505965	-0.784379	-0.352885
C43	C	1.523682	-0.934791	-0.335323
C44	C	1.591550	-0.892518	-0.267517
C45	C	1.659473	-0.934785	-0.199734
C46	C	1.659526	-1.019325	-0.199756
C47	C	1.591655	-1.061603	-0.267564
C48	C	1.523733	-1.019336	-0.335347
H49	H	1.591513	-0.829932	-0.267499
H50	H	1.709715	-0.903487	-0.149538
H51	H	1.709806	-1.050613	-0.149579
H52	H	1.591693	-1.124189	-0.267583
H53	H	1.473491	-1.050634	-0.385543
H54	H	1.282080	-0.923826	-0.576559
C55	C	1.264360	-0.773397	-0.594136
C56	C	1.196484	-0.815664	-0.661940
C57	C	1.128572	-0.773390	-0.729727
C58	C	1.128537	-0.688850	-0.729709
C59	C	1.196416	-0.646579	-0.661902
C60	C	1.264327	-0.688852	-0.594116
H61	H	1.196507	-0.878250	-0.661955
H62	H	1.078324	-0.804683	-0.779922
H63	H	1.078265	-0.657557	-0.779889
H64	H	1.196392	-0.583993	-0.661887
H65	H	1.314576	-0.657560	-0.543920
