data_functionalizedCrystal
_audit_creation_method	'MofGen! by Chris Wilmer'
_symmetry_space_group_name_H-M	'P1'
_symmetry_Int_Tables_number	1
_symmetry_cell_setting	triclinic
loop_
_symmetry_equiv_pos_as_xyz
  x,y,z
_cell_length_a	17.019372
_cell_length_b	17.038272
_cell_length_c	14.472310
_cell_angle_alpha	90.000702
_cell_angle_beta	86.136601
_cell_angle_gamma	87.242864
loop_
_atom_site_label
_atom_site_type_symbol
_atom_site_fract_x
_atom_site_fract_y
_atom_site_fract_z
O1	O	1.053347	0.099574	-0.006902
O2	O	1.553347	0.599574	0.493098
O3	O	0.824540	0.112279	0.011291
O4	O	1.324540	0.612279	0.511291
O5	O	0.937584	-0.007888	0.002295
O6	O	1.437584	0.492112	0.502295
O7	O	0.940304	0.219741	0.002093
O8	O	1.440304	0.719741	0.502093
O9	O	0.937553	-0.007881	-0.151385
O10	O	1.437553	0.492119	0.348615
O11	O	0.824510	0.112286	-0.142389
O12	O	1.324510	0.612286	0.357611
O13	O	1.053317	0.099581	-0.160582
O14	O	1.553317	0.599581	0.339418
Cu15	Cu	0.938910	0.105934	-0.165518
Cu16	Cu	1.438910	0.605934	0.334482
Cu17	Cu	0.938947	0.105926	0.016226
Cu18	Cu	1.438947	0.605926	0.516226
O19	O	0.940273	0.219748	-0.151586
O20	O	1.440273	0.719748	0.348414
C21	C	0.795104	0.111802	-0.063210
C22	C	1.295104	0.611802	0.436790
C23	C	0.707439	0.110359	-0.056240
C24	C	1.207439	0.610359	0.443760
C25	C	0.211626	0.102174	-0.012554
C26	C	0.711626	0.602174	0.487446
C27	C	0.293997	0.103530	-0.019115
C28	C	0.793997	0.603530	0.480885
C29	C	0.335157	0.104217	-0.106168
C30	C	0.835157	0.604217	0.393832
C31	C	0.293943	0.103541	-0.186664
C32	C	0.793943	0.603541	0.313336
C33	C	0.211574	0.102180	-0.180101
C34	C	0.711574	0.602180	0.319899
C35	C	0.583857	0.108322	-0.130173
C36	C	1.083857	0.608322	0.369827
C37	C	0.666231	0.109686	-0.136730
C38	C	1.166231	0.609686	0.363270
C39	C	0.666279	0.109673	0.030819
C40	C	1.166279	0.609673	0.530819
C41	C	0.583909	0.108316	0.037374
C42	C	1.083909	0.608316	0.537374
C43	C	0.542702	0.107636	-0.043122
C44	C	1.042702	0.607636	0.456878
C45	C	0.419353	0.105605	-0.112877
C46	C	0.919353	0.605605	0.387123
C47	C	0.458508	0.106243	-0.036412
C48	C	0.958508	0.606243	0.463588
C49	C	0.935095	-0.037010	-0.074348
C50	C	1.435095	0.462990	0.425652
C51	C	0.927715	-0.123797	-0.073761
C52	C	1.427715	0.376203	0.426239
C53	C	0.995473	-0.173970	-0.079150
C54	C	1.495473	0.326030	0.420850
C55	C	0.988534	-0.255515	-0.078589
C56	C	1.488534	0.244485	0.421411
C57	C	0.913836	-0.286884	-0.072647
C58	C	1.413836	0.213116	0.427353
C59	C	0.846072	-0.236704	-0.067255
C60	C	1.346072	0.263296	0.432745
C61	C	0.853012	-0.155161	-0.067809
C62	C	1.353012	0.344839	0.432191
C63	C	0.889319	-0.532620	-0.070684
C64	C	1.389319	-0.032620	0.429316
C65	C	0.882384	-0.614170	-0.070134
C66	C	1.382384	-0.114170	0.429866
C67	C	1.024846	-0.632975	-0.081466
C68	C	1.524846	-0.132975	0.418534
C69	C	1.031780	-0.551430	-0.082025
C70	C	1.531780	-0.051430	0.417975
C71	C	0.964016	-0.501257	-0.076629
C72	C	1.464016	-0.001257	0.423371
C73	C	0.906741	-0.370235	-0.072076
C74	C	1.406741	0.129765	0.427924
C75	C	0.971112	-0.417907	-0.077192
C76	C	1.471112	0.082093	0.422808
C77	C	1.082753	0.100058	-0.086079
C78	C	1.582753	0.600058	0.413921
C79	C	1.170418	0.101501	-0.093043
C80	C	1.670418	0.601501	0.406957
C81	C	0.942762	0.248870	-0.074941
C82	C	1.442762	0.748870	0.425059
C83	C	0.950142	0.335657	-0.075522
C84	C	1.450142	0.835657	0.424478
N85	N	0.938891	0.105939	-0.293347
N86	N	1.438891	0.605939	0.206653
C87	C	0.938945	0.105923	-0.667443
C88	C	1.438945	0.605923	-0.167443
C89	C	0.878226	0.170006	-0.623445
C90	C	1.378226	0.670006	-0.123445
C91	C	0.878392	0.170240	-0.516370
C92	C	1.378392	0.670240	-0.016370
C93	C	0.938918	0.105931	-0.481849
C94	C	1.438918	0.605931	0.018151
C95	C	1.022413	0.123654	-0.527324
C96	C	1.522413	0.623654	-0.027324
C97	C	1.022078	0.124109	-0.634419
C98	C	1.522078	0.624109	-0.134419
C99	C	0.916891	0.023925	-0.626224
C100	C	1.416891	0.523925	-0.126224
C101	C	0.915040	0.024474	-0.518949
C102	C	1.415040	0.524474	-0.018949
C103	C	0.938907	0.105934	-0.376960
C104	C	1.438907	0.605934	0.123040
C105	C	0.938962	0.105921	-0.772332
C106	C	1.438962	0.605921	-0.272332
N107	N	0.938972	0.105914	0.144055
N108	N	1.438972	0.605914	0.644055
H109	H	0.699741	0.110251	-0.207622
H110	H	1.199741	0.610251	0.292378
H111	H	0.845921	-0.395785	-0.067240
H112	H	1.345921	0.104215	0.432760
H113	H	0.816505	0.159694	-0.485194
H114	H	1.316505	0.659694	0.014806
N115	N	0.800357	0.156990	-0.649608
N116	N	1.300357	0.656990	-0.149608
N117	N	0.788699	0.100335	-0.700989
N118	N	1.288699	0.600335	-0.200989
H119	H	0.733702	0.091140	-0.719472
H120	H	1.233702	0.591140	-0.219472
H121	H	1.056301	-0.148437	-0.083994
H122	H	1.556301	0.351563	0.416006
H123	H	1.080015	-0.673834	-0.085858
H124	H	1.580015	-0.173834	0.414142
H125	H	1.031931	-0.392363	-0.082010
H126	H	1.531931	0.107637	0.417990
H127	H	0.834140	-0.491779	-0.066290
H128	H	1.334140	0.008221	0.433710
N129	N	1.057756	-0.306755	-0.084085
N130	N	1.557756	0.193245	0.415915
N131	N	1.124446	-0.278737	-0.089392
N132	N	1.624446	0.221263	0.410608
H133	H	1.173338	-0.314924	-0.093270
H134	H	1.673338	0.185076	0.406730
N135	N	0.896400	0.245910	-0.658649
N136	N	1.396400	0.745910	-0.158649
N137	N	0.953876	0.253014	-0.716001
N138	N	1.453876	0.753014	-0.216001
H139	H	0.966714	0.306620	-0.740866
H140	H	1.466714	0.806620	-0.240866
N141	N	1.108089	-0.519403	-0.088097
N142	N	1.608089	-0.019403	0.411903
N143	N	1.168583	-0.564210	-0.092906
N144	N	1.668583	-0.064210	0.407094
H145	H	1.222478	-0.541592	-0.097196
H146	H	1.722478	-0.041592	0.402804
N147	N	0.769775	-0.268757	-0.061174
N148	N	1.269775	0.231243	0.438826
N149	N	0.763587	-0.341563	-0.060680
N150	N	1.263587	0.158437	0.439320
H151	H	0.709701	-0.364200	-0.056387
H152	H	1.209701	0.135800	0.443613
H153	H	0.893045	0.231091	-0.491897
H154	H	1.393045	0.731091	0.008103
H155	H	1.040676	0.183907	-0.660869
H156	H	1.540676	0.683907	-0.160869
H157	H	1.068903	0.078216	-0.505540
H158	H	1.568903	0.578216	-0.005540
H159	H	0.178023	0.101639	-0.245645
H160	H	0.678023	0.601639	0.254355
H161	H	0.797836	-0.114310	-0.063421
H162	H	1.297836	0.385690	0.436579
N163	N	1.080815	0.067774	-0.671584
N164	N	1.580815	0.567774	-0.171584
N165	N	1.121928	0.028250	-0.618414
N166	N	1.621928	0.528250	-0.118414
H167	H	1.163414	-0.011535	-0.644658
H168	H	1.663414	0.488465	-0.144658
H169	H	0.857032	0.006860	-0.648533
H170	H	1.357032	0.506860	-0.148533
H171	H	1.041314	0.182769	-0.501985
H172	H	1.541314	0.682769	-0.001985
H173	H	0.550317	0.107757	-0.195719
H174	H	1.050317	0.607757	0.304281
H175	H	0.853592	0.011022	-0.488682
H176	H	1.353592	0.511022	0.011318
N177	N	0.708359	0.110367	0.113048
N178	N	1.208359	0.610367	0.613048
N179	N	0.695595	0.165289	0.170167
N180	N	1.195595	0.665289	0.670167
H181	H	0.725313	0.165777	0.228247
H182	H	1.225313	0.665777	0.728247
N183	N	0.966387	-0.038140	-0.489436
N184	N	1.466387	0.461860	0.010564
N185	N	1.021666	-0.023684	-0.440365
N186	N	1.521666	0.476316	0.059635
H187	H	1.057936	-0.067904	-0.419521
H188	H	1.557936	0.432096	0.080479
H189	H	0.178119	0.101620	0.058334
H190	H	0.678119	0.601620	0.558334
N191	N	0.972361	-0.035893	-0.662416
N192	N	1.472361	0.464107	-0.162416
N193	N	1.027916	-0.018320	-0.718323
N194	N	1.527916	0.481680	-0.218323
H195	H	1.067094	-0.060561	-0.743889
H196	H	1.567094	0.439439	-0.243889
H197	H	0.327546	0.104074	0.046428
H198	H	0.827546	0.604074	0.546428
H199	H	0.550402	0.107756	0.108261
H200	H	1.050402	0.607756	0.608261
H201	H	0.327463	0.104096	-0.257544
H202	H	0.827463	0.604096	0.242456
N203	N	0.416469	0.105524	0.052508
N204	N	0.916469	0.605524	0.552508
N205	N	0.374092	0.049679	0.074566
N206	N	0.874092	0.549679	0.574566
H207	H	0.344395	0.049172	0.137366
H208	H	0.844395	0.549172	0.637366
N209	N	0.806071	-0.646200	-0.064080
N210	N	1.306071	-0.146200	0.435920
N211	N	0.745574	-0.601396	-0.059273
N212	N	1.245574	-0.101396	0.440727
H213	H	0.691681	-0.624017	-0.055005
H214	H	1.191681	-0.124017	0.444995
N215	N	0.461419	0.106328	-0.201784
N216	N	0.961419	0.606328	0.298216
N217	N	0.503801	0.162175	-0.223816
N218	N	1.003801	0.662175	0.276184
H219	H	0.533517	0.162687	-0.286605
H220	H	1.033517	0.662687	0.213395
