data_functionalizedCrystal
_audit_creation_method	'MofGen! by Chris Wilmer'
_symmetry_space_group_name_H-M	'P1'
_symmetry_Int_Tables_number	1
_symmetry_cell_setting	triclinic
loop_
_symmetry_equiv_pos_as_xyz
  x,y,z
_cell_length_a	8.559649
_cell_length_b	8.559649
_cell_length_c	7.088929
_cell_angle_alpha	84.655564
_cell_angle_beta	95.324765
_cell_angle_gamma	69.778664
loop_
_atom_site_label
_atom_site_type_symbol
_atom_site_fract_x
_atom_site_fract_y
_atom_site_fract_z
O1	O	2.108184	-0.036317	-0.158969
O2	O	1.632698	0.047465	-0.158974
O3	O	1.912332	-0.232169	-0.158968
O4	O	1.828550	0.243317	-0.158975
O5	O	1.949711	-0.269615	0.159008
O6	O	1.670078	0.010019	0.159002
O7	O	2.145563	-0.073763	0.159007
Cu8	Cu	1.911233	-0.035291	0.188038
Cu9	Cu	1.867028	0.008993	-0.188005
O10	O	1.865929	0.205871	0.159001
C11	C	1.591079	0.035091	0.000013
C12	C	1.411379	0.053991	0.000011
C13	C	2.187182	-0.061389	0.000015
C14	C	2.366880	-0.080286	0.000005
N15	N	1.942337	-0.066440	0.452527
C16	C	1.937371	-0.311200	0.000017
C17	C	1.956269	-0.490899	0.000007
C18	C	1.840890	0.284903	0.000012
C19	C	1.821991	0.464603	0.000009
N20	N	1.835939	0.040128	-0.452494
H21	H	2.311999	0.183412	-0.000006
H22	H	2.085689	0.409722	0.000020
H23	H	1.725670	0.150564	0.465857
H24	H	2.466268	-0.209714	0.000002
H25	H	1.692564	0.563990	0.000017
H26	H	2.052624	-0.176873	0.534185
