data_functionalizedCrystal
_audit_creation_method	'MofGen! by Chris Wilmer'
_symmetry_space_group_name_H-M	'P1'
_symmetry_Int_Tables_number	1
_symmetry_cell_setting	triclinic
loop_
_symmetry_equiv_pos_as_xyz
  x,y,z
_cell_length_a	17.699077
_cell_length_b	16.992695
_cell_length_c	16.776229
_cell_angle_alpha	90.007866
_cell_angle_beta	90.000648
_cell_angle_gamma	86.974400
loop_
_atom_site_label
_atom_site_type_symbol
_atom_site_fract_x
_atom_site_fract_y
_atom_site_fract_z
O1	O	1.010246	0.099125	0.066278
O2	O	0.790671	0.112029	0.066282
O3	O	0.899578	-0.008564	0.066274
O4	O	0.901339	0.219718	0.066287
O5	O	0.899575	-0.008575	-0.066302
O6	O	0.790668	0.112018	-0.066294
O7	O	1.010244	0.099114	-0.066298
Zn8	Zn	0.900455	0.105564	-0.087345
Zn9	Zn	0.900459	0.105578	0.087330
O10	O	0.901336	0.219707	-0.066290
C11	C	0.762443	0.111562	-0.000005
C12	C	0.678339	0.110177	-0.000004
C13	C	0.638829	0.109519	-0.072272
C14	C	0.559805	0.108205	-0.072273
C15	C	0.520291	0.107555	-0.000005
C16	C	0.559807	0.108211	0.072269
C17	C	0.638830	0.109519	0.072269
C18	C	0.241115	0.102935	0.072270
C19	C	0.162086	0.101630	0.072265
C20	C	0.162090	0.101621	-0.072272
C21	C	0.241113	0.102929	-0.072272
C22	C	0.280622	0.103581	0.000001
C23	C	0.366309	0.105004	0.000002
C24	C	0.434605	0.106138	-0.000004
C25	C	0.897312	-0.037778	-0.000014
C26	C	0.890555	-0.124809	-0.000014
C27	C	0.955753	-0.175175	-0.000016
C28	C	0.949399	-0.256949	-0.000008
C29	C	0.877847	-0.288356	-0.000004
C30	C	0.812644	-0.237983	0.000000
C31	C	0.818999	-0.156211	-0.000002
C32	C	0.851511	-0.531903	0.000007
C33	C	0.845161	-0.613682	0.000007
C34	C	0.981917	-0.632642	0.000000
C35	C	0.988265	-0.550867	-0.000007
C36	C	0.923062	-0.500502	0.000002
N37	N	0.871351	-0.371942	0.000001
N38	N	0.929559	-0.416917	0.000002
C39	C	1.038471	0.099581	-0.000009
C40	C	1.122575	0.100966	-0.000005
C41	C	0.903602	0.248921	0.000000
C42	C	0.910359	0.335952	0.000005
N43	N	0.900461	0.105582	0.206541
N44	N	0.900458	0.105554	-0.206557
C45	C	0.948788	0.052289	0.248254
C46	C	0.948790	0.052287	0.331707
C47	C	0.900463	0.105575	0.373444
C48	C	0.852134	0.158875	0.331725
C49	C	0.852136	0.158880	0.248274
C50	C	0.852127	0.158856	0.668272
C51	C	0.852128	0.158845	0.751728
C52	C	0.948782	0.052263	0.751705
C53	C	0.948784	0.052268	0.668254
C54	C	0.900458	0.105570	0.626542
C55	C	0.900457	0.105572	0.536054
C56	C	0.900460	0.105570	0.463931
H57	H	0.670995	0.110054	-0.131122
O58	O	0.805152	0.210539	0.207662
C59	C	0.755998	0.168516	0.159394
H60	H	0.782538	0.107172	0.146882
H61	H	0.699759	0.163152	0.191550
C62	C	0.709824	0.288067	0.095498
C63	C	0.742425	0.212725	0.080126
H64	H	0.701448	0.315338	0.046604
H65	H	0.742938	0.316380	0.128019
H66	H	0.662962	0.283586	0.122297
H67	H	0.789290	0.217207	0.053337
H68	H	0.709318	0.184414	0.047598
O69	O	0.279605	0.103547	0.142402
C70	C	0.357826	0.104859	0.126914
H71	H	0.370258	0.080216	0.064806
H72	H	0.376108	0.168105	0.130339
C73	C	0.386509	0.084414	0.265548
C74	C	0.401779	0.054141	0.189269
H75	H	0.413623	0.053132	0.304013
H76	H	0.333810	0.083533	0.275984
H77	H	0.401744	0.137118	0.268391
H78	H	0.386535	0.001442	0.186423
H79	H	0.454477	0.055012	0.178834
H80	H	0.527641	0.107656	-0.131121
H81	H	0.273281	0.103462	-0.131120
H82	H	0.129913	0.101087	-0.131121
O83	O	0.995621	0.000426	0.627676
C84	C	0.952266	-0.047964	0.579377
H85	H	0.892513	-0.049331	0.604523
H86	H	0.949739	-0.023418	0.516137
C87	C	1.062426	-0.130454	0.547192
C88	C	0.989038	-0.132138	0.578080
H89	H	1.085110	-0.182376	0.546388
H90	H	1.091637	-0.097851	0.579729
H91	H	1.060310	-0.109995	0.494494
H92	H	0.991156	-0.152587	0.630780
H93	H	0.959829	-0.164746	0.545552
O94	O	0.677092	0.110198	0.142542
C95	C	0.625274	0.109327	0.206329
H96	H	0.567309	0.133203	0.185143
H97	H	0.621013	0.046316	0.228548
C98	C	0.723924	0.131913	0.300630
C99	C	0.652731	0.161245	0.274611
H100	H	0.740862	0.163936	0.342752
H101	H	0.758836	0.132497	0.257656
H102	H	0.720363	0.079405	0.319141
H103	H	0.656295	0.213748	0.256092
H104	H	0.617821	0.160671	0.317584
O105	O	0.755589	-0.107394	-0.000035
C106	C	0.691072	-0.152647	-0.000011
H107	H	0.706585	-0.213720	-0.025114
H108	H	0.669378	-0.158421	0.063595
C109	C	0.609893	-0.036767	-0.021163
C110	C	0.628945	-0.111776	-0.052002
H111	H	0.571569	-0.011556	-0.053230
H112	H	0.653359	-0.006279	-0.021177
H113	H	0.591819	-0.041590	0.031841
H114	H	0.647028	-0.106952	-0.105001
H115	H	0.585481	-0.142263	-0.051998
H116	H	0.527628	0.107677	0.131111
O117	O	0.123820	0.100962	0.142542
C118	C	0.175634	0.101836	0.206333
H119	H	0.233600	0.077954	0.185148
H120	H	0.179898	0.164848	0.228564
C121	C	0.076977	0.079265	0.300622
C122	C	0.148170	0.049926	0.274604
H123	H	0.060035	0.047248	0.342736
H124	H	0.042068	0.078679	0.257645
H125	H	0.080540	0.131774	0.319142
H126	H	0.144605	-0.002579	0.256075
H127	H	0.183078	0.050502	0.317579
H128	H	0.812787	0.202267	0.365712
H129	H	0.988134	0.008864	0.785675
O130	O	1.025317	-0.144801	0.000018
C131	C	1.081499	-0.206795	0.000000
H132	H	1.056922	-0.262301	0.025099
H133	H	1.101849	-0.218417	-0.063602
C134	C	1.178764	-0.115660	0.021168
C135	C	1.148580	-0.183832	0.052001
H136	H	1.220145	-0.101496	0.053241
H137	H	1.140915	-0.073893	0.021176
H138	H	1.195717	-0.125354	-0.031834
H139	H	1.131620	-0.174135	0.104998
H140	H	1.186429	-0.225598	0.052002
H141	H	1.002490	-0.297955	-0.000011
O142	O	0.995663	0.000553	0.207591
C143	C	0.985317	0.011995	0.124989
H144	H	0.926875	0.041264	0.113594
H145	H	1.030452	0.051356	0.101318
C146	C	1.063772	-0.104165	0.096127
C147	C	0.991990	-0.068221	0.082130
H148	H	1.067891	-0.153645	0.069688
H149	H	1.070745	-0.111873	0.151777
H150	H	1.101376	-0.071356	0.076400
H151	H	0.954388	-0.101026	0.101865
H152	H	0.985011	-0.060521	0.026482
O153	O	0.805265	0.210726	0.792237
C154	C	0.822112	0.288362	0.771852
H155	H	0.882717	0.288779	0.748912
H156	H	0.781522	0.311379	0.723418
C157	C	0.739040	0.340997	0.874173
C158	C	0.813479	0.341511	0.846004
H159	H	0.733711	0.373784	0.919912
H160	H	0.727687	0.288693	0.887905
H161	H	0.705224	0.360177	0.833804
H162	H	0.847292	0.322323	0.886368
H163	H	0.824837	0.393814	0.832280
H164	H	0.754385	-0.263561	0.000009
O165	O	0.805073	0.210552	0.627799
C166	C	0.729422	0.197767	0.648203
H167	H	0.725372	0.134977	0.671121
H168	H	0.709748	0.241209	0.696659
C169	C	0.683808	0.287056	0.545928
C170	C	0.678832	0.209935	0.574071
H171	H	0.652600	0.294565	0.500202
H172	H	0.734775	0.295673	0.532183
H173	H	0.667414	0.323249	0.586315
H174	H	0.695234	0.173744	0.533688
H175	H	0.627865	0.201313	0.587808
H176	H	1.046530	-0.525303	-0.000010
H177	H	1.035001	-0.673658	-0.000005
H178	H	0.786892	-0.639250	-0.000003
H179	H	0.798418	-0.490905	0.000014
H180	H	0.988142	0.008891	0.365669
