data_functionalizedCrystal
_audit_creation_method	'MofGen! by Chris Wilmer'
_symmetry_space_group_name_H-M	'P1'
_symmetry_Int_Tables_number	1
_symmetry_cell_setting	triclinic
loop_
_symmetry_equiv_pos_as_xyz
  x,y,z
_cell_length_a	10.723024
_cell_length_b	9.065218
_cell_length_c	8.140239
_cell_angle_alpha	89.998670
_cell_angle_beta	90.001171
_cell_angle_gamma	95.258123
loop_
_atom_site_label
_atom_site_type_symbol
_atom_site_fract_x
_atom_site_fract_y
_atom_site_fract_z
O1	O	1.658024	-0.206939	0.136596
O2	O	2.158024	0.293061	0.636596
O3	O	1.294952	-0.226747	0.136601
O4	O	1.794952	0.273253	0.636601
O5	O	1.483992	-0.002158	0.136595
O6	O	1.983992	0.497842	0.636595
O7	O	1.468983	-0.431528	0.136602
O8	O	1.968983	0.068472	0.636602
O9	O	1.483986	-0.002157	-0.136632
O10	O	1.983986	0.497843	0.363368
O11	O	1.294946	-0.226746	-0.136627
O12	O	1.794946	0.273254	0.363373
O13	O	1.658018	-0.206938	-0.136631
O14	O	2.158018	0.293062	0.363369
Zn15	Zn	1.476481	-0.216841	-0.180010
Zn16	Zn	1.976481	0.283159	0.319990
Zn17	Zn	1.476489	-0.216843	0.179979
Zn18	Zn	1.976489	0.283157	0.679979
O19	O	1.468977	-0.431527	-0.136626
O20	O	1.968977	0.068473	0.363374
C21	C	1.248443	-0.225305	-0.000012
C22	C	1.748443	0.274695	0.499988
C23	C	1.109872	-0.220992	-0.000010
C24	C	1.609872	0.279008	0.499990
C25	C	1.035399	-0.346660	-0.000007
C26	C	1.535399	0.153340	0.499993
C27	C	0.892178	-0.342206	-0.000005
C28	C	1.392178	0.157794	0.499995
C29	C	1.482547	0.052821	-0.000016
C30	C	1.982547	0.552821	0.499984
C31	C	1.478234	0.216639	-0.000008
C32	C	1.978234	0.716639	0.499992
C33	C	1.704526	-0.208380	-0.000015
C34	C	2.204526	0.291620	0.499985
C35	C	1.843098	-0.212693	-0.000006
C36	C	2.343098	0.287307	0.499994
C37	C	1.470423	-0.486506	-0.000011
C38	C	1.970423	0.013494	0.499989
C39	C	1.474736	-0.650324	-0.000008
C40	C	1.974736	-0.150324	0.499992
N41	N	1.476484	-0.216839	-0.425692
N42	N	1.976484	0.283161	0.074308
N43	N	1.476495	-0.216834	0.425661
N44	N	1.976495	0.283166	0.925661
H45	H	1.067599	-0.110105	0.000030
H46	H	1.567599	0.389895	0.500030
H47	H	0.907086	-0.105105	0.000002
H48	H	1.407086	0.394895	0.500002
H49	H	0.828182	-0.449788	0.000004
H50	H	1.328182	0.050212	0.500004
F51	F	1.090646	-0.491603	-0.000010
F52	F	1.590646	0.008397	0.499990
