data_functionalizedCrystal
_audit_creation_method	'MofGen! by Chris Wilmer'
_symmetry_space_group_name_H-M	'P1'
_symmetry_Int_Tables_number	1
_symmetry_cell_setting	triclinic
loop_
_symmetry_equiv_pos_as_xyz
  x,y,z
_cell_length_a	16.120530
_cell_length_b	16.120484
_cell_length_c	19.076919
_cell_angle_alpha	84.953390
_cell_angle_beta	90.500157
_cell_angle_gamma	90.167327
loop_
_atom_site_label
_atom_site_type_symbol
_atom_site_fract_x
_atom_site_fract_y
_atom_site_fract_z
Zn1	Zn	1.231083	-0.416729	0.468408
Zn2	Zn	1.229520	-0.550737	0.356379
Zn3	Zn	1.098210	-0.404109	0.344506
Zn4	Zn	1.084967	-0.548653	0.467764
O5	O	1.160945	-0.480057	0.409264
O6	O	1.346980	-0.440659	0.458785
O7	O	1.216990	-0.526877	0.256335
O8	O	1.122031	-0.289208	0.356243
O9	O	1.345832	-0.539114	0.376478
O10	O	1.219653	-0.298479	0.447273
O11	O	1.120516	-0.419150	0.247613
O12	O	0.980349	-0.417129	0.355619
O13	O	1.099462	-0.535562	0.566318
O14	O	0.970620	-0.523325	0.446176
O15	O	1.206812	-0.438638	0.566791
O16	O	1.204149	-0.667035	0.375853
O17	O	1.097947	-0.665504	0.457688
C18	C	0.945380	-0.468632	0.399540
C19	C	0.853158	-0.463765	0.395397
C20	C	0.684309	-0.454861	0.387838
C21	C	0.638416	-0.505316	0.430744
C22	C	0.544462	-0.500362	0.426539
C23	C	0.778271	-0.459814	0.392043
C24	C	1.149463	-0.696498	0.418005
C25	C	1.144626	-0.789098	0.421772
C26	C	1.135798	-0.958640	0.428663
C27	C	1.186240	-1.000641	0.389884
C28	C	1.181328	-1.094980	0.393718
C29	C	1.140709	-0.864292	0.424830
C30	C	1.377352	-0.491526	0.419028
C31	C	1.469571	-0.496414	0.423188
C32	C	1.151834	-0.488275	0.592801
C33	C	1.147951	-0.491777	0.671013
C34	C	1.172494	-0.262772	0.400506
C35	C	1.177415	-0.170178	0.396773
C36	C	1.170072	-0.471812	0.226442
C37	C	1.174127	-0.468084	0.148228
C38	C	1.202016	-0.442962	0.708004
C39	C	1.198358	-0.446249	0.781492
C40	C	1.140639	-0.498357	0.817988
C41	C	1.086568	-0.547174	0.780991
C42	C	1.090223	-0.543882	0.707504
C43	C	1.123711	-0.513609	1.037744
C44	C	1.120062	-0.516899	1.111236
C45	C	1.231852	-0.415973	1.111733
C46	C	1.235505	-0.412689	1.038244
C47	C	1.181431	-0.461503	1.001254
N48	N	1.136900	-0.501720	0.893105
N49	N	1.185167	-0.458135	0.926138
H50	H	0.669688	-0.552232	0.470636
H51	H	0.653039	-0.407948	0.347950
H52	H	1.233112	-0.965749	0.353804
C53	C	1.072474	-1.005768	0.477393
H54	H	1.077435	-1.063910	0.473601
H55	H	1.082940	-0.994285	0.524661
H56	H	1.017972	-0.988201	0.463967
H57	H	1.249020	-0.400533	0.678295
C58	C	1.257833	-0.392556	0.822181
H59	H	1.292739	-0.361060	0.789921
H60	H	1.226604	-0.355857	0.847951
H61	H	1.290864	-0.427631	0.853765
H62	H	1.282508	-0.370260	1.008535
H63	H	1.275874	-0.376230	1.141858
H64	H	1.073058	-0.559334	1.140949
C65	C	1.064241	-0.567307	0.997060
H66	H	1.074674	-0.557881	0.948066
H67	H	1.072810	-0.624462	1.011909
H68	H	1.008542	-0.552695	1.006097
C69	C	1.023079	-0.604492	0.821134
H70	H	1.028650	-0.599469	0.870199
H71	H	0.968579	-0.588808	0.806083
H72	H	1.032852	-0.660571	0.811893
C73	C	1.030771	-0.597600	0.666815
H74	H	0.995882	-0.629117	0.699075
H75	H	0.997734	-0.562550	0.635222
H76	H	1.062027	-0.634294	0.641054
