data_functionalizedCrystal
_audit_creation_method	'MofGen! by Chris Wilmer'
_symmetry_space_group_name_H-M	'P1'
_symmetry_Int_Tables_number	1
_symmetry_cell_setting	triclinic
loop_
_symmetry_equiv_pos_as_xyz
  x,y,z
_cell_length_a	14.044220
_cell_length_b	19.288840
_cell_length_c	18.366186
_cell_angle_alpha	90.016305
_cell_angle_beta	90.005656
_cell_angle_gamma	88.157446
loop_
_atom_site_label
_atom_site_type_symbol
_atom_site_fract_x
_atom_site_fract_y
_atom_site_fract_z
O1	O	0.118099	0.928952	0.060674
O2	O	0.134070	0.727715	0.060649
O3	O	-0.011887	0.825313	0.060654
O4	O	0.264056	0.831354	0.060669
O5	O	-0.011891	0.825294	-0.060445
O6	O	0.134066	0.727697	-0.060450
O7	O	0.118095	0.928933	-0.060425
Zn8	Zn	0.126080	0.828312	-0.079665
Zn9	Zn	0.126085	0.828337	0.079889
O10	O	0.264052	0.831336	-0.060430
C11	C	0.133559	0.701796	0.000096
C12	C	0.132028	0.624594	0.000087
C13	C	-0.047191	0.822659	0.000104
C14	C	-0.152383	0.814772	0.000102
C15	C	0.131295	0.588353	0.066100
C16	C	0.129846	0.515813	0.066109
C17	C	0.129111	0.479517	0.000101
C18	C	0.129850	0.515766	-0.065921
C19	C	0.131308	0.588304	-0.065928
C20	C	0.071294	0.366467	-0.050464
C21	C	0.069829	0.293930	-0.050454
C22	C	0.124617	0.255785	0.000119
C23	C	0.180856	0.290185	0.050695
C24	C	0.182315	0.362724	0.050688
C25	C	0.127530	0.400861	0.000101
C26	C	0.122314	0.140888	0.066147
C27	C	0.120871	0.068346	0.066153
C28	C	0.120865	0.068301	-0.065879
C29	C	0.122318	0.140841	-0.065883
C30	C	0.123037	0.177130	0.000132
C31	C	-0.344981	0.800351	0.000111
C32	C	-0.402860	0.856295	0.000120
C33	C	-0.510028	0.848271	0.000125
C34	C	-0.237802	0.808374	0.000106
C35	C	0.299357	0.833989	0.000122
C36	C	0.404548	0.841877	0.000129
C37	C	0.118607	0.954852	0.000129
C38	C	0.120138	1.032055	0.000144
N39	N	0.126076	0.828300	-0.188556
C40	C	0.183403	0.873972	-0.226641
C41	C	0.183401	0.873983	-0.302869
C42	C	0.126082	0.828310	-0.341009
C43	C	0.068743	0.782635	-0.302914
C44	C	0.068740	0.782630	-0.226687
C45	C	0.123692	0.765544	-0.461798
C46	C	0.123702	0.765548	-0.538022
C47	C	0.126085	0.828326	-0.576116
C48	C	0.128478	0.891102	-0.537975
C49	C	0.128475	0.891097	-0.461749
C50	C	0.126078	0.828311	-0.423663
C51	C	0.183412	0.874014	-0.696856
C52	C	0.183403	0.874026	-0.773086
C53	C	0.068750	0.782672	-0.773129
C54	C	0.068754	0.782666	-0.696901
C55	C	0.126090	0.828336	-0.658770
N56	N	0.126082	0.828354	0.188780
H57	H	0.131881	0.617895	0.119854
Br58	Br	0.128853	0.466618	0.155704
H59	H	0.120273	0.038749	-0.119624
Br60	Br	-0.396537	0.710484	0.000106
Br61	Br	-0.351306	0.946168	0.000125
H62	H	0.230087	0.911162	-0.195599
H63	H	0.230086	0.911175	-0.333884
H64	H	0.130421	0.942212	-0.430698
Br65	Br	0.131715	0.976307	-0.589663
Br66	Br	0.261202	0.936006	-0.645102
Br67	Br	0.261204	0.936019	-0.824775
Br68	Br	0.258638	0.409409	0.119321
Br69	Br	-0.009057	0.720697	-0.824881
Br70	Br	-0.009034	0.720668	-0.645210
Br71	Br	-0.009064	0.720640	-0.174996
Br72	Br	0.120469	0.680353	-0.589777
Br73	Br	0.120368	0.680342	-0.410107
Br74	Br	-0.009054	0.720655	-0.354672
H75	H	0.122910	0.170436	0.119900
Br76	Br	0.119888	0.019160	0.155750
Br77	Br	0.255218	0.238426	0.119335
H78	H	0.122909	0.170349	-0.119638
H79	H	0.129254	0.486209	-0.119665
H80	H	0.026677	0.397519	-0.091650
Br81	Br	-0.006471	0.247250	-0.119106
H82	H	0.131906	0.617811	-0.119686
