data_functionalizedCrystal
_audit_creation_method	'MofGen! by Chris Wilmer'
_symmetry_space_group_name_H-M	'P1'
_symmetry_Int_Tables_number	1
_symmetry_cell_setting	triclinic
loop_
_symmetry_equiv_pos_as_xyz
  x,y,z
_cell_length_a	14.044220
_cell_length_b	14.044220
_cell_length_c	12.503572
_cell_angle_alpha	93.843168
_cell_angle_beta	86.164750
_cell_angle_gamma	93.188878
loop_
_atom_site_label
_atom_site_type_symbol
_atom_site_fract_x
_atom_site_fract_y
_atom_site_fract_z
O1	O	1.282200	0.225116	-0.089210
O2	O	1.782200	0.725116	0.410790
O3	O	1.005530	0.216809	-0.089237
O4	O	1.505530	0.716809	0.410763
O5	O	1.139712	0.082627	-0.089213
O6	O	1.639712	0.582627	0.410787
O7	O	1.148019	0.359298	-0.089234
O8	O	1.648019	0.859298	0.410766
O9	O	1.129622	0.092737	0.089427
O10	O	1.629622	0.592737	0.589427
O11	O	0.995440	0.226918	0.089403
O12	O	1.495440	0.726918	0.589403
O13	O	1.272110	0.235226	0.089430
O14	O	1.772110	0.735226	0.589430
Cu15	Cu	1.132854	0.231995	0.105728
Cu16	Cu	1.632854	0.731995	0.605728
Cu17	Cu	1.144786	0.220040	-0.105535
Cu18	Cu	1.644786	0.720040	0.394465
O19	O	1.137929	0.369407	0.089406
O20	O	1.637929	0.869407	0.589406
C21	C	0.964864	0.218228	0.000080
C22	C	1.464864	0.718228	0.500080
C23	C	0.858721	0.207383	0.000070
C24	C	1.358721	0.707383	0.500070
C25	C	0.664382	0.187558	0.000092
C26	C	1.164382	0.687558	0.500092
C27	C	0.613253	0.264472	0.000091
C28	C	1.113253	0.764472	0.500091
C29	C	0.505116	0.253441	0.000104
C30	C	1.005116	0.753441	0.500104
C31	C	0.772529	0.198587	0.000080
C32	C	1.272529	0.698587	0.500080
C33	C	1.131031	0.052060	0.000107
C34	C	1.631031	0.552060	0.500107
C35	C	1.120187	-0.054082	0.000107
C36	C	1.620187	0.445918	0.500107
C37	C	1.100361	-0.248421	0.000090
C38	C	1.600361	0.251579	0.500090
C39	C	1.177275	-0.299551	0.000094
C40	C	1.677275	0.200449	0.500094
C41	C	1.166244	-0.407687	0.000084
C42	C	1.666244	0.092313	0.500084
C43	C	1.111391	-0.140274	0.000099
C44	C	1.611391	0.359726	0.500099
C45	C	1.312777	0.233807	0.000111
C46	C	1.812777	0.733807	0.500111
C47	C	1.418920	0.244651	0.000114
C48	C	1.918920	0.744651	0.500114
C49	C	1.146609	0.399974	0.000084
C50	C	1.646609	0.899974	0.500084
C51	C	1.157454	0.506117	0.000077
C52	C	1.657454	1.006117	0.500077
N53	N	1.124469	0.240404	0.254319
N54	N	1.624469	0.740404	0.754319
N55	N	1.153179	0.211624	-0.254126
N56	N	1.653179	0.711624	0.245874
C57	C	1.112134	0.252782	0.473432
C58	C	1.612134	0.752782	0.973432
C59	C	1.165511	0.199249	0.526768
C60	C	1.665511	0.699249	1.026768
C61	C	1.158648	0.206136	0.648690
C62	C	1.658648	0.706136	1.148690
C63	C	1.118996	0.245896	0.351499
C64	C	1.618996	0.745896	0.851499
H65	H	0.650692	0.338605	0.000081
H66	H	1.150692	0.838605	0.500081
C67	C	0.614296	0.088792	0.000042
C68	C	1.114296	0.588792	0.500042
C69	C	0.515446	0.097348	0.000021
C70	C	1.015446	0.597348	0.500021
C71	C	0.469265	0.006386	-0.000044
C72	C	0.969265	0.506386	0.499956
H73	H	0.628615	0.058524	0.062317
H74	H	1.128615	0.558524	0.562317
H75	H	0.635694	0.051554	-0.062282
H76	H	1.135694	0.551554	0.437718
H77	H	0.494055	0.134571	0.062339
H78	H	0.994055	0.634571	0.562339
H79	H	0.501098	0.127599	-0.062249
H80	H	1.001098	0.627599	0.437751
H81	H	0.490663	-0.030851	-0.062368
H82	H	0.990663	0.469149	0.437632
H83	H	0.483592	-0.023874	0.062232
H84	H	0.983592	0.476126	0.562232
H85	H	0.402191	0.012179	-0.000068
H86	H	0.902191	0.512179	0.499932
H87	H	1.251413	-0.262115	0.000029
H88	H	1.751413	0.237885	0.500029
C89	C	1.001595	-0.298508	0.000140
C90	C	1.501595	0.201492	0.500140
C91	C	1.010152	-0.397357	0.000164
C92	C	1.510152	0.102643	0.500164
C93	C	0.919190	-0.443539	0.000231
C94	C	1.419190	0.056461	0.500231
H95	H	0.971320	-0.284198	-0.062136
H96	H	1.471320	0.215802	0.437864
H97	H	0.964365	-0.277100	0.062464
H98	H	1.464365	0.222900	0.562464
H99	H	1.047367	-0.418758	-0.062152
H100	H	1.547367	0.081242	0.437848
H101	H	1.040410	-0.411695	0.062436
H102	H	1.540410	0.088305	0.562436
H103	H	0.881960	-0.422131	0.062554
H104	H	1.381960	0.077869	0.562554
H105	H	0.888922	-0.429222	-0.062047
H106	H	1.388922	0.070778	0.437953
H107	H	0.924982	-0.510612	0.000257
H108	H	1.424982	-0.010612	0.500257
H109	H	1.216364	0.148245	0.480864
H110	H	1.716364	0.648245	0.980864
C111	C	1.044430	0.320772	0.534823
C112	C	1.544430	0.820772	1.034823
C113	C	1.051028	0.314197	0.645298
C114	C	1.551028	0.814197	1.145298
C115	C	0.988688	0.376826	0.701899
C116	C	1.488688	0.876826	1.201899
H117	H	0.980786	0.304144	0.516597
H118	H	1.480786	0.804144	1.016597
H119	H	1.061324	0.384353	0.516516
H120	H	1.561324	0.884353	1.016516
H121	H	1.034128	0.250630	0.663598
H122	H	1.534128	0.750630	1.163598
H123	H	1.114657	0.330834	0.663556
H124	H	1.614657	0.830834	1.163556
H125	H	1.005582	0.440408	0.683592
H126	H	1.505582	0.940408	1.183592
H127	H	0.925048	0.360192	0.683664
H128	H	1.425048	0.860192	1.183664
H129	H	0.993162	0.372381	0.776861
H130	H	1.493162	0.872381	1.276861
