data_functionalizedCrystal
_audit_creation_method	'MofGen! by Chris Wilmer'
_symmetry_space_group_name_H-M	'P1'
_symmetry_Int_Tables_number	1
_symmetry_cell_setting	triclinic
loop_
_symmetry_equiv_pos_as_xyz
  x,y,z
_cell_length_a	16.974885
_cell_length_b	16.974885
_cell_length_c	18.366186
_cell_angle_alpha	93.647587
_cell_angle_beta	93.642976
_cell_angle_gamma	83.160210
loop_
_atom_site_label
_atom_site_type_symbol
_atom_site_fract_x
_atom_site_fract_y
_atom_site_fract_z
O1	O	1.049024	0.100747	0.007142
O2	O	0.818807	0.113590	-0.005656
O3	O	0.940334	-0.007940	-0.005654
O4	O	0.927497	0.222277	0.007140
O5	O	0.940314	-0.007946	0.115444
O6	O	0.818787	0.113584	0.115442
O7	O	1.049003	0.100741	0.128240
Zn8	Zn	0.933892	0.107162	0.141068
Zn9	Zn	0.933919	0.107170	-0.018484
O10	O	0.927476	0.222271	0.128238
C11	C	0.789340	0.113100	0.053130
C12	C	0.701566	0.111638	0.047876
C13	C	0.939836	-0.037401	0.053131
C14	C	0.938372	-0.125174	0.047873
C15	C	0.207499	0.103383	0.011164
C16	C	0.289971	0.104757	0.016111
C17	C	0.331188	0.105446	0.084596
C18	C	0.289928	0.104754	0.148137
C19	C	0.207458	0.103375	0.143190
C20	C	0.577836	0.109566	0.106470
C21	C	0.660312	0.110948	0.111413
C22	C	0.660350	0.110949	-0.020614
C23	C	0.577877	0.109575	-0.025555
C24	C	0.536625	0.108878	0.037986
N25	N	0.415488	0.106853	0.089653
N26	N	0.452328	0.107466	0.032928
C27	C	0.937672	-0.166421	0.111411
C28	C	0.936301	-0.248895	0.106465
C29	C	0.935626	-0.290119	0.037981
C30	C	0.936329	-0.248867	-0.025561
C31	C	0.937705	-0.166396	-0.020614
C32	C	0.931518	-0.536771	0.016109
C33	C	0.930139	-0.619248	0.011167
C34	C	0.930113	-0.619270	0.143193
C35	C	0.931484	-0.536796	0.148134
C36	C	0.932191	-0.495552	0.084592
N37	N	0.934223	-0.374420	0.032924
N38	N	0.933600	-0.411253	0.089650
C39	C	1.078471	0.101232	0.069453
C40	C	1.166245	0.102694	0.074702
N41	N	0.933879	0.107156	0.249958
C42	C	0.927975	0.251732	0.069452
C43	C	0.929438	0.339506	0.074704
N44	N	0.933938	0.107169	-0.127374
C45	C	0.987709	0.053369	0.288062
C46	C	0.987714	0.053365	0.364290
C47	C	0.933897	0.107162	0.402412
C48	C	0.880057	0.160954	0.364299
C49	C	0.880048	0.160950	0.288071
C50	C	0.923459	0.179185	0.526797
C51	C	0.923473	0.179189	0.603023
C52	C	0.933919	0.107172	0.637521
C53	C	0.944368	0.035148	0.595785
C54	C	0.944359	0.035144	0.519558
C55	C	0.933900	0.107172	0.485067
C56	C	0.987757	0.053377	0.758280
C57	C	0.987757	0.053372	0.834509
C58	C	0.880103	0.160968	0.834517
C59	C	0.880100	0.160965	0.758289
C60	C	0.933931	0.107171	0.720175
H61	H	0.173946	0.102828	-0.044603
H62	H	0.693867	0.111515	0.167185
Cl63	Cl	0.525985	0.108712	0.186353
Cl64	Cl	0.712215	0.111818	-0.100490
Cl65	Cl	0.812397	0.228581	0.412222
Cl66	Cl	0.938516	-0.114603	0.197509
H67	H	0.932051	-0.503239	0.203901
H68	H	0.323494	0.105310	0.203899
Cl69	Cl	0.935418	-0.300744	0.186345
Cl70	Cl	0.526068	0.108709	-0.111654
H71	H	0.929538	-0.652860	0.194925
Cl72	Cl	0.155596	0.102500	0.223069
Cl73	Cl	0.341831	0.105620	-0.063769
Cl74	Cl	0.929286	-0.671072	-0.074934
H75	H	0.932092	-0.503200	-0.035632
Cl76	Cl	0.935491	-0.300694	-0.111655
Cl77	Cl	0.910399	0.269732	0.483440
H78	H	0.938277	-0.132814	-0.072353
Cl79	Cl	1.055377	-0.014261	0.240147
Cl80	Cl	1.055392	-0.014258	0.412200
Cl81	Cl	0.957507	-0.055395	0.639146
Cl82	Cl	0.957485	-0.055396	0.467092
H83	H	1.031588	0.009572	0.727246
H84	H	1.031589	0.009568	0.865533
Cl85	Cl	0.812441	0.228593	0.882437
Cl86	Cl	0.812429	0.228591	0.710383
H87	H	0.914970	0.237836	0.636999
Cl88	Cl	0.812372	0.228575	0.240166
