data_functionalizedCrystal
_audit_creation_method	'MofGen! by Chris Wilmer'
_symmetry_space_group_name_H-M	'P1'
_symmetry_Int_Tables_number	1
_symmetry_cell_setting	triclinic
loop_
_symmetry_equiv_pos_as_xyz
  x,y,z
_cell_length_a	16.625548
_cell_length_b	16.120484
_cell_length_c	16.120704
_cell_angle_alpha	84.364775
_cell_angle_beta	87.110717
_cell_angle_gamma	92.926626
loop_
_atom_site_label
_atom_site_type_symbol
_atom_site_fract_x
_atom_site_fract_y
_atom_site_fract_z
Zn1	Zn	1.191057	-0.356910	0.489465
Zn2	Zn	1.691057	0.143090	0.989465
Zn3	Zn	1.190983	-0.489549	0.356773
Zn4	Zn	1.690983	0.010451	0.856773
Zn5	Zn	1.063450	-0.349795	0.349708
Zn6	Zn	1.563450	0.150205	0.849708
Zn7	Zn	1.048983	-0.496646	0.496498
Zn8	Zn	1.548983	0.003354	0.996498
O9	O	1.123618	-0.423225	0.423111
O10	O	1.623618	0.076775	0.923111
O11	O	1.303878	-0.374512	0.471876
O12	O	1.803878	0.125488	0.971876
O13	O	1.180089	-0.465063	0.238871
O14	O	1.680089	0.034937	0.738871
O15	O	1.086463	-0.233771	0.362347
O16	O	1.586463	0.266229	0.862347
O17	O	1.303824	-0.471962	0.374388
O18	O	1.803824	0.028038	0.874388
O19	O	1.180215	-0.238998	0.465026
O20	O	1.680215	0.261002	0.965026
O21	O	1.086391	-0.362387	0.233681
O22	O	1.586391	0.137613	0.733681
O23	O	0.948699	-0.369268	0.369167
O24	O	1.448699	0.130732	0.869167
O25	O	1.061806	-0.484057	0.612530
O26	O	1.561806	0.015943	1.112530
O27	O	0.938070	-0.477158	0.477013
O28	O	1.438070	0.022842	0.977013
O29	O	1.166187	-0.381393	0.607363
O30	O	1.666187	0.118607	1.107363
O31	O	1.166061	-0.607458	0.381208
O32	O	1.666061	-0.107458	0.881208
O33	O	1.061734	-0.612672	0.483863
O34	O	1.561734	-0.112672	0.983863
C35	C	0.914129	-0.423212	0.423087
C36	C	1.414129	0.076788	0.923087
C37	C	0.824506	-0.423227	0.423098
C38	C	1.324506	0.076773	0.923098
C39	C	0.496329	-0.423235	0.423134
C40	C	0.996329	0.076765	0.923134
C41	C	0.587638	-0.423230	0.423121
C42	C	1.087638	0.076770	0.923121
C43	C	0.660415	-0.423231	0.423115
C44	C	1.160415	0.076769	0.923115
C45	C	0.751730	-0.423226	0.423104
C46	C	1.251730	0.076774	0.923104
C47	C	1.112340	-0.640394	0.434083
C48	C	1.612340	-0.140394	0.934083
C49	C	1.107588	-0.733302	0.438805
C50	C	1.607588	-0.233302	0.938805
C51	C	1.098915	-0.903405	0.447444
C52	C	1.598915	-0.403405	0.947444
C53	C	1.148464	-0.942205	0.398792
C54	C	1.648464	-0.442205	0.898792
C55	C	1.143639	-1.036856	0.403599
C56	C	1.643639	-0.536856	0.903599
C57	C	1.103740	-0.808745	0.442638
C58	C	1.603740	-0.308745	0.942638
C59	C	1.333925	-0.423239	0.423136
C60	C	1.833925	0.076761	0.923136
C61	C	1.423545	-0.423245	0.423146
C62	C	1.923545	0.076755	0.923146
C63	C	1.112391	-0.434310	0.641122
C64	C	1.612391	0.065690	1.141122
C65	C	1.107606	-0.439034	0.734025
C66	C	1.607606	0.060966	1.234025
C67	C	1.134961	-0.205208	0.412114
C68	C	1.634961	0.294792	0.912114
C69	C	1.139794	-0.112303	0.407428
C70	C	1.639794	0.387697	0.907428
C71	C	1.148361	-0.398917	0.942954
C72	C	1.648361	0.101083	1.442954
C73	C	1.098846	-0.447624	0.904113
C74	C	1.598846	0.052376	1.404113
C75	C	1.103722	-0.442843	0.809467
C76	C	1.603722	0.057157	1.309467
C77	C	1.143486	-0.403697	1.037609
C78	C	1.643486	0.096303	1.537609
C79	C	1.134799	-0.412210	1.205950
C80	C	1.634799	0.087790	1.705950
C81	C	1.139598	-0.407509	1.113048
C82	C	1.639598	0.092491	1.613048
H83	H	1.052874	-0.941271	0.492701
H84	H	1.552874	-0.441271	0.992701
C85	C	1.255379	-0.293669	0.946161
C86	C	1.755379	0.206331	1.446161
C87	C	1.210533	-0.337784	0.891896
C88	C	1.710533	0.162216	1.391896
H89	H	1.293758	-0.255928	0.914630
H90	H	1.793758	0.244072	1.414630
H91	H	1.282602	-0.331776	0.982063
H92	H	1.782602	0.168224	1.482063
H93	H	1.220190	-0.263375	0.978581
H94	H	1.720190	0.236625	1.478581
H95	H	1.245722	-0.368083	0.859480
H96	H	1.745722	0.131917	1.359480
H97	H	1.183308	-0.299672	0.855980
H98	H	1.683308	0.200328	1.355980
H99	H	1.052788	-0.492909	0.941940
H100	H	1.552788	0.007091	1.441940
H101	H	1.194508	-0.904336	0.353530
H102	H	1.694508	-0.404336	0.853530
