data_functionalizedCrystal
_audit_creation_method	'MofGen! by Chris Wilmer'
_symmetry_space_group_name_H-M	'P1'
_symmetry_Int_Tables_number	1
_symmetry_cell_setting	triclinic
loop_
_symmetry_equiv_pos_as_xyz
  x,y,z
_cell_length_a	27.732048
_cell_length_b	27.732025
_cell_length_c	26.210047
_cell_angle_alpha	90.005231
_cell_angle_beta	90.015477
_cell_angle_gamma	82.638061
loop_
_atom_site_label
_atom_site_type_symbol
_atom_site_fract_x
_atom_site_fract_y
_atom_site_fract_z
O1	O	0.640933	0.057527	0.042348
O2	O	1.140933	0.557527	0.542348
O3	O	0.500139	0.066272	0.042361
O4	O	1.000139	0.566272	0.542361
O5	O	0.574914	-0.008498	0.042370
O6	O	1.074914	0.491502	0.542370
O7	O	0.566157	0.132297	0.042339
O8	O	1.066157	0.632297	0.542339
O9	O	0.574887	-0.008519	-0.042488
O10	O	1.074887	0.491481	0.457512
O11	O	0.500112	0.066252	-0.042497
O12	O	1.000112	0.566252	0.457503
O13	O	0.640906	0.057506	-0.042510
O14	O	1.140906	0.557506	0.457490
Cu15	Cu	0.570506	0.061877	-0.050252
Cu16	Cu	1.070506	0.561877	0.449748
Cu17	Cu	0.570538	0.061901	0.050103
Cu18	Cu	1.070538	0.561901	0.550103
O19	O	0.566130	0.132276	-0.042519
O20	O	1.066130	0.632276	0.457481
C21	C	0.574719	-0.026515	-0.000054
C22	C	1.074719	0.473485	0.499946
C23	C	0.574170	-0.080171	-0.000039
C24	C	1.074170	0.419829	0.499961
C25	C	0.482118	0.066078	-0.000066
C26	C	0.982118	0.566078	0.499934
C27	C	0.428463	0.065526	-0.000060
C28	C	0.928463	0.565526	0.499940
C29	C	0.570288	-0.463325	0.046188
C30	C	1.070288	0.036675	0.546188
C31	C	0.572341	-0.261666	0.046204
C32	C	1.072341	0.238334	0.546204
O33	O	0.572638	-0.235589	0.085544
O34	O	1.072638	0.264411	0.585544
N35	N	0.572582	-0.236456	-0.000051
N36	N	1.072582	0.263544	0.499949
C37	C	0.572314	-0.261664	-0.046313
C38	C	1.072314	0.238336	0.453687
O39	O	0.572572	-0.235595	-0.085655
O40	O	1.072572	0.264405	0.414345
C41	C	0.570265	-0.463323	-0.046329
C42	C	1.070265	0.036677	0.453671
C43	C	0.570019	-0.488530	-0.000071
C44	C	1.070019	0.011470	0.499929
C45	C	0.570042	-0.488532	0.092442
C46	C	1.070042	0.011468	0.592442
C47	C	0.569526	-0.538943	0.092437
C48	C	1.069526	-0.038943	0.592437
C49	C	0.569257	-0.564148	0.046179
C50	C	1.069257	-0.064148	0.546179
C51	C	0.569503	-0.538941	-0.000075
C52	C	1.069503	-0.038941	0.499925
C53	C	0.570001	-0.488531	-0.092590
C54	C	1.070001	0.011469	0.407410
C55	C	0.569490	-0.538949	-0.092590
C56	C	1.069490	-0.038949	0.407410
C57	C	0.569243	-0.564156	-0.046332
C58	C	1.069243	-0.064156	0.453668
C59	C	0.568717	-0.614557	-0.046339
C60	C	1.068717	-0.114557	0.453661
N61	N	0.568476	-0.639767	-0.000084
N62	N	1.068476	-0.139767	0.499916
C63	C	0.568745	-0.614563	0.046175
C64	C	1.068745	-0.114563	0.546175
C65	C	0.573389	-0.155790	-0.046301
C66	C	1.073389	0.344210	0.453699
C67	C	0.573900	-0.105375	-0.046298
C68	C	1.073900	0.394625	0.453702
C69	C	0.573928	-0.105381	0.046219
C70	C	1.073928	0.394619	0.546219
C71	C	0.573413	-0.155796	0.046215
C72	C	1.073413	0.344204	0.546215
C73	C	0.573147	-0.181000	-0.000047
C74	C	1.073147	0.319000	0.499953
C75	C	0.567662	-0.720430	0.046162
C76	C	1.067662	-0.220430	0.546162
C77	C	0.567144	-0.770846	0.046153
C78	C	1.067144	-0.270846	0.546153
C79	C	0.567119	-0.770837	-0.046364
C80	C	1.067119	-0.270837	0.453636
C81	C	0.567634	-0.720425	-0.046355
C82	C	1.067634	-0.220425	0.453645
C83	C	0.567907	-0.695223	-0.000088
C84	C	1.067907	-0.195223	0.499912
O85	O	0.568425	-0.640666	-0.085658
O86	O	1.068425	-0.140666	0.414342
O87	O	0.568498	-0.640642	0.085511
O88	O	1.068498	-0.140642	0.585511
C89	C	0.570804	-0.412914	0.046192
C90	C	1.070804	0.087086	0.546192
C91	C	0.571050	-0.387707	-0.000062
C92	C	1.071050	0.112293	0.499938
C93	C	0.570780	-0.412911	-0.046320
C94	C	1.070780	0.087089	0.453680
C95	C	0.571561	-0.337292	-0.000058
C96	C	1.071561	0.162708	0.499942
C97	C	0.571831	-0.312088	0.046201
C98	C	1.071831	0.187912	0.546201
C99	C	0.571589	-0.337298	0.092455
C100	C	1.071589	0.162702	0.592455
C101	C	0.571073	-0.387709	0.092451
C102	C	1.071073	0.112291	0.592451
C103	C	0.571022	-0.387702	-0.092575
C104	C	1.071022	0.112298	0.407425
C105	C	0.571537	-0.337290	-0.092567
C106	C	1.071537	0.162710	0.407433
C107	C	0.571807	-0.312085	-0.046308
C108	C	1.071807	0.187915	0.453692
C109	C	0.089645	0.106230	-0.000091
C110	C	0.589645	0.606230	0.499909
C111	C	-0.112014	0.104179	-0.000095
C112	C	0.387986	0.604179	0.499905
O113	O	-0.143273	0.141400	-0.000125
O114	O	0.356727	0.641400	0.499875
N115	N	-0.131135	0.059843	-0.000085
N116	N	0.368865	0.559843	0.499915
C117	C	-0.099836	0.016017	-0.000076
C118	C	0.400164	0.516017	0.499924
O119	O	-0.120726	-0.021740	-0.000073
O120	O	0.379274	0.478260	0.499927
C121	C	0.101822	0.018069	-0.000076
C122	C	0.601822	0.518069	0.499924
C123	C	0.120939	0.062407	-0.000081
C124	C	0.620939	0.562407	0.499919
C125	C	0.108763	0.150565	-0.000097
C126	C	0.608763	0.650565	0.499903
C127	C	0.159175	0.151077	-0.000093
C128	C	0.659175	0.651077	0.499907
C129	C	0.190469	0.107254	-0.000083
C130	C	0.690469	0.607254	0.499917
C131	C	0.171351	0.062920	-0.000077
C132	C	0.671351	0.562920	0.499923
C133	C	0.133119	-0.025757	-0.000072
C134	C	0.633119	0.474243	0.499928
C135	C	0.183537	-0.025240	-0.000073
C136	C	0.683537	0.474760	0.499927
C137	C	0.202654	0.019098	-0.000078
C138	C	0.702654	0.519098	0.499922
C139	C	0.253057	0.019609	-0.000064
C140	C	0.753057	0.519609	0.499936
N141	N	0.272177	0.063945	-0.000074
N142	N	0.772177	0.563945	0.499926
C143	C	0.240883	0.107767	-0.000084
C144	C	0.740883	0.607767	0.499916
C145	C	-0.205710	0.014943	-0.000076
C146	C	0.294290	0.514943	0.499924
C147	C	-0.256125	0.014430	-0.000075
C148	C	0.243875	0.514430	0.499925
C149	C	-0.268299	0.102592	-0.000094
C150	C	0.231701	0.602592	0.499906
C151	C	-0.217884	0.103105	-0.000092
C152	C	0.282116	0.603105	0.499908
C153	C	-0.186590	0.059279	-0.000086
C154	C	0.313410	0.559279	0.499914
C155	C	0.346752	0.108840	-0.000076
C156	C	0.846752	0.608840	0.499924
C157	C	0.397169	0.109348	-0.000070
C158	C	0.897169	0.609348	0.499930
C159	C	0.409339	0.021187	-0.000053
C160	C	0.909339	0.521187	0.499947
C161	C	0.358927	0.020678	-0.000056
C162	C	0.858927	0.520678	0.499944
C163	C	0.327634	0.064509	-0.000069
C164	C	0.827634	0.564509	0.499931
O165	O	0.284344	-0.017592	-0.000040
O166	O	0.784344	0.482408	0.499960
O167	O	0.261783	0.145519	-0.000099
O168	O	0.761783	0.645519	0.499901
C169	C	0.039233	0.105718	-0.000095
C170	C	0.539233	0.605718	0.499905
C171	C	0.020115	0.061383	-0.000089
C172	C	0.520115	0.561383	0.499911
C173	C	0.051410	0.017560	-0.000079
C174	C	0.551410	0.517560	0.499921
C175	C	-0.030299	0.060870	-0.000088
C176	C	0.469701	0.560870	0.499912
C177	C	-0.061593	0.104692	-0.000098
C178	C	0.438407	0.604692	0.499902
C179	C	-0.042473	0.149028	-0.000108
C180	C	0.457527	0.649028	0.499892
C181	C	0.007939	0.149540	-0.000104
C182	C	0.507939	0.649540	0.499896
C183	C	0.032289	-0.026776	-0.000069
C184	C	0.532289	0.473224	0.499931
C185	C	-0.018123	-0.027284	-0.000072
C186	C	0.481877	0.472716	0.499928
C187	C	-0.049417	0.016538	-0.000082
C188	C	0.450583	0.516538	0.499918
C189	C	0.658926	0.057700	-0.000082
C190	C	1.158926	0.557700	0.499918
C191	C	0.712581	0.058253	-0.000085
C192	C	1.212581	0.558253	0.499915
C193	C	0.566326	0.150294	-0.000094
C194	C	1.066326	0.650294	0.499906
C195	C	0.566874	0.203949	-0.000105
C196	C	1.066874	0.703949	0.499895
N197	N	0.570487	0.061860	-0.120836
N198	N	1.070487	0.561860	0.379164
C199	C	0.541437	0.032763	-0.526804
C200	C	1.041437	0.532763	-0.026804
C201	C	0.541415	0.032751	-0.313145
C202	C	1.041415	0.532751	0.186855
O203	O	0.516686	0.007973	-0.285527
O204	O	1.016686	0.507973	0.214473
N205	N	0.570505	0.061866	-0.286419
N206	N	1.070505	0.561866	0.213581
C207	C	0.599605	0.090984	-0.313112
C208	C	1.099605	0.590984	0.186888
O209	O	0.624352	0.115745	-0.285478
O210	O	1.124352	0.615745	0.214522
C211	C	0.599629	0.090993	-0.526769
C212	C	1.099629	0.590993	-0.026769
C213	C	0.570533	0.061880	-0.553492
C214	C	1.070533	0.561880	-0.053492
C215	C	0.512344	0.003651	-0.553526
C216	C	1.012344	0.503651	-0.053526
C217	C	0.512347	0.003656	-0.606938
C218	C	1.012347	0.503656	-0.106938
C219	C	0.541444	0.032773	-0.633626
C220	C	1.041444	0.532773	-0.133626
C221	C	0.570537	0.061885	-0.606904
C222	C	1.070537	0.561885	-0.106904
C223	C	0.628731	0.120109	-0.553461
C224	C	1.128731	0.620109	-0.053461
C225	C	0.628735	0.120107	-0.606879
C226	C	1.128735	0.620107	-0.106879
C227	C	0.599640	0.090994	-0.633601
C228	C	1.099640	0.590994	-0.133601
C229	C	0.599637	0.091007	-0.687004
C230	C	1.099637	0.591007	-0.187004
N231	N	0.570547	0.061892	-0.713729
N232	N	1.070547	0.561892	-0.213729
C233	C	0.541450	0.032775	-0.687041
C234	C	1.041450	0.532775	-0.187041
C235	C	0.599590	0.090978	-0.200938
C236	C	1.099590	0.590978	0.299062
C237	C	0.599584	0.090977	-0.147524
C238	C	1.099584	0.590977	0.352476
C239	C	0.541394	0.032742	-0.147561
C240	C	1.041394	0.532742	0.352439
C241	C	0.541398	0.032747	-0.200976
C242	C	1.041398	0.532747	0.299024
C243	C	0.570500	0.061863	-0.227664
C244	C	1.070500	0.561863	0.272336
C245	C	0.541460	0.032789	-0.799209
C246	C	1.041460	0.532789	-0.299209
C247	C	0.541464	0.032798	-0.852625
C248	C	1.041464	0.532798	-0.352625
C249	C	0.599656	0.091030	-0.852583
C250	C	1.099656	0.591030	-0.352583
C251	C	0.599649	0.091023	-0.799172
C252	C	1.099649	0.591023	-0.299172
C253	C	0.570550	0.061898	-0.772486
C254	C	1.070550	0.561898	-0.272486
O255	O	0.624358	0.115768	-0.714655
O256	O	1.124358	0.615768	-0.214655
O257	O	0.516716	0.008010	-0.714684
O258	O	1.016716	0.508010	-0.214684
C259	C	0.541433	0.032757	-0.473392
C260	C	1.041433	0.532757	0.026608
C261	C	0.570526	0.061869	-0.446669
C262	C	1.070526	0.561869	0.053331
C263	C	0.599623	0.090986	-0.473358
C264	C	1.099623	0.590986	0.026642
C265	C	0.570519	0.061868	-0.393255
C266	C	1.070519	0.561868	0.106745
C267	C	0.541423	0.032751	-0.366567
C268	C	1.041423	0.532751	0.133433
C269	C	0.512333	0.003635	-0.393292
C270	C	1.012333	0.503635	0.106708
C271	C	0.512336	0.003640	-0.446704
C272	C	1.012336	0.503640	0.053296
C273	C	0.628713	0.120102	-0.446632
C274	C	1.128713	0.620102	0.053368
C275	C	0.628706	0.120094	-0.393221
C276	C	1.128706	0.620094	0.106779
C277	C	0.599610	0.090977	-0.366532
C278	C	1.099610	0.590977	0.133468
N279	N	0.570561	0.061915	0.120687
N280	N	1.070561	0.561915	0.620687
H281	H	0.567884	-0.699917	0.083837
H282	H	1.067884	-0.199917	0.583837
H283	H	0.569329	-0.559463	0.130105
H284	H	1.069329	-0.059463	0.630105
H285	H	-0.180235	-0.020747	-0.000071
H286	H	0.319765	0.479253	0.499929
H287	H	0.117563	-0.061862	-0.000068
H288	H	0.617563	0.438138	0.499932
O289	O	0.570772	-0.412130	0.137418
O290	O	1.070772	0.087870	0.637418
C291	C	0.529020	-0.394030	0.165555
C292	C	1.029020	0.105970	0.665555
H293	H	0.515426	-0.355499	0.152399
H294	H	1.015426	0.144501	0.652399
H295	H	0.499403	-0.418354	0.159146
H296	H	0.999403	0.081646	0.659146
C297	C	0.558478	-0.440775	0.238876
C298	C	1.058478	0.059225	0.738876
C299	C	0.541784	-0.393449	0.222720
C300	C	1.041784	0.106551	0.722720
H301	H	0.566350	-0.440419	0.274138
H302	H	1.066350	0.059581	0.774138
H303	H	0.586607	-0.452971	0.219919
H304	H	1.086607	0.047029	0.719919
H305	H	0.533795	-0.461040	0.233531
H306	H	1.033795	0.038960	0.733531
H307	H	0.566470	-0.373187	0.228059
H308	H	1.066470	0.126813	0.728059
H309	H	0.513660	-0.381250	0.241679
H310	H	1.013660	0.118750	0.741679
H311	H	0.566941	-0.791367	0.083823
H312	H	1.066941	-0.291367	0.583823
H313	H	0.570263	-0.468016	0.130113
H314	H	1.070263	0.031984	0.630113
H315	H	0.574144	-0.084850	0.083885
H316	H	1.074144	0.415150	0.583885
H317	H	0.209014	-0.060929	-0.000069
H318	H	0.709014	0.439071	0.499931
H319	H	0.343361	-0.015426	-0.000044
H320	H	0.843361	0.484574	0.499956
H321	H	0.569274	-0.559468	-0.130263
H322	H	1.069274	-0.059468	0.369737
H323	H	0.488656	-0.020053	-0.628691
H324	H	0.988656	0.479947	-0.128691
O325	O	0.571797	-0.312885	-0.137551
O326	O	1.071797	0.187115	0.362449
C327	C	0.571437	-0.345946	-0.178377
C328	C	1.071437	0.154054	0.321623
H329	H	0.586379	-0.383998	-0.164813
H330	H	1.086379	0.116002	0.335187
H331	H	0.532585	-0.345946	-0.192603
H332	H	1.032585	0.154054	0.307397
C333	C	0.584991	-0.283924	-0.238739
C334	C	1.084991	0.216076	0.261261
C335	C	0.603347	-0.330659	-0.222080
C336	C	1.103347	0.169341	0.277920
H337	H	0.604672	-0.274494	-0.265698
H338	H	1.104672	0.225506	0.234302
H339	H	0.585232	-0.261649	-0.211234
H340	H	1.085232	0.238351	0.288766
H341	H	0.552615	-0.283930	-0.250590
H342	H	1.052615	0.216070	0.249410
H343	H	0.635720	-0.330651	-0.210224
H344	H	1.135720	0.169349	0.289776
H345	H	0.603112	-0.352934	-0.249585
H346	H	1.103112	0.147066	0.250415
O347	O	0.627989	0.119283	-0.878458
O348	O	1.127989	0.619283	-0.378458
C349	C	0.677153	0.105536	-0.865401
C350	C	1.177153	0.605536	-0.365401
H351	H	0.679367	0.086776	-0.826619
H352	H	1.179367	0.586776	-0.326619
H353	H	0.695149	0.079475	-0.895459
H354	H	1.195149	0.579475	-0.395459
C355	C	0.700838	0.174106	-0.910558
C356	C	1.200838	0.674106	-0.410558
C357	C	0.703557	0.151068	-0.862923
C358	C	1.203557	0.651068	-0.362923
H359	H	0.717126	0.202191	-0.909031
H360	H	1.217126	0.702191	-0.409031
H361	H	0.667716	0.183367	-0.919357
H362	H	1.167716	0.683367	-0.419357
H363	H	0.715834	0.152384	-0.935601
H364	H	1.215834	0.652384	-0.435601
H365	H	0.688555	0.172788	-0.837882
H366	H	1.188555	0.672788	-0.337882
H367	H	0.736677	0.141811	-0.854120
H368	H	1.236677	0.641811	-0.354120
O369	O	0.177679	0.194181	-0.000033
O370	O	0.677679	0.694181	0.499967
C371	C	0.161666	0.220874	0.043915
C372	C	0.661666	0.720874	0.543915
H373	H	0.126803	0.207959	0.058570
H374	H	0.626803	0.707959	0.558570
H375	H	0.190891	0.215070	0.074692
H376	H	0.690891	0.715070	0.574692
C377	C	0.194612	0.291181	0.012553
C378	C	0.694612	0.791181	0.512553
C379	C	0.151789	0.275321	0.030550
C380	C	0.651789	0.775321	0.530550
H381	H	0.188521	0.324767	0.004310
H382	H	0.688521	0.824767	0.504310
H383	H	0.205402	0.273197	-0.017055
H384	H	0.705402	0.773197	0.482945
H385	H	0.218962	0.286340	0.038203
H386	H	0.718962	0.786340	0.538203
H387	H	0.127442	0.280157	0.004898
H388	H	0.627442	0.780157	0.504898
H389	H	0.140995	0.293308	0.060154
H390	H	0.640995	0.793308	0.560154
O391	O	0.567794	-0.695973	-0.091318
O392	O	1.067794	-0.195973	0.408682
C393	C	0.525768	-0.702492	-0.119443
C394	C	1.025768	-0.202492	0.380557
H395	H	0.511441	-0.737171	-0.106295
H396	H	1.011441	-0.237171	0.393705
H397	H	0.496734	-0.670070	-0.113014
H398	H	0.996734	-0.170070	0.386986
C399	C	0.556032	-0.663973	-0.192760
C400	C	1.056032	-0.163973	0.307240
C401	C	0.538438	-0.706569	-0.176615
C402	C	1.038438	-0.206569	0.323385
H403	H	0.563846	-0.666486	-0.228026
H404	H	1.063846	-0.166486	0.271974
H405	H	0.584345	-0.659579	-0.173811
H406	H	1.084345	-0.159579	0.326189
H407	H	0.531834	-0.636959	-0.187398
H408	H	1.031834	-0.136959	0.312602
H409	H	0.562638	-0.733581	-0.181971
H410	H	1.062638	-0.233581	0.318029
H411	H	0.510129	-0.710967	-0.195566
H412	H	1.010129	-0.210967	0.304434
H413	H	0.321279	0.144531	-0.000088
H414	H	0.821279	0.644531	0.499912
O415	O	0.484042	-0.024562	-0.527553
O416	O	0.984042	0.475438	-0.027553
C417	C	0.450821	0.005146	-0.496683
C418	C	0.950821	0.505146	0.003317
H419	H	0.465599	0.040904	-0.488658
H420	H	0.965599	0.540904	0.011342
H421	H	0.414441	0.012810	-0.517294
H422	H	0.914441	0.512810	-0.017294
C423	C	0.425566	-0.064975	-0.455814
C424	C	0.925566	0.435025	0.044186
C425	C	0.443718	-0.021058	-0.445955
C426	C	0.943718	0.478942	0.054045
H427	H	0.421183	-0.081139	-0.424524
H428	H	0.921183	0.418861	0.075476
H429	H	0.447946	-0.084990	-0.476614
H430	H	0.947946	0.415010	0.023386
H431	H	0.395251	-0.058582	-0.472992
H432	H	0.895251	0.441418	0.027008
H433	H	0.474035	-0.027452	-0.428783
H434	H	0.974035	0.472548	0.071217
H435	H	0.421343	-0.001044	-0.425151
H436	H	0.921343	0.498956	0.074849
H437	H	0.517769	0.009090	-0.874380
H438	H	1.017769	0.509090	-0.374380
H439	H	0.434828	-0.014493	-0.000043
H440	H	0.934828	0.485507	0.499957
O441	O	0.026425	0.192654	-0.000135
O442	O	0.526425	0.692654	0.499865
C443	C	-0.012015	0.231217	-0.000132
C444	C	0.487985	0.731217	0.499868
H445	H	-0.046167	0.217919	-0.016195
H446	H	0.453833	0.717919	0.483805
H447	H	-0.019242	0.244726	0.040576
H448	H	0.480758	0.744726	0.540576
C449	C	0.043840	0.289392	-0.013691
C450	C	0.543840	0.789392	0.486309
C451	C	0.001895	0.273059	-0.033424
C452	C	0.501895	0.773059	0.466576
H453	H	0.052420	0.315203	-0.034225
H454	H	0.552420	0.815203	0.465775
H455	H	0.069738	0.263412	-0.013691
H456	H	0.569738	0.763412	0.486309
H457	H	0.037812	0.300646	0.020232
H458	H	0.537812	0.800646	0.520232
H459	H	0.007926	0.261800	-0.067343
H460	H	0.507926	0.761800	0.432657
H461	H	-0.024002	0.299039	-0.033430
H462	H	0.475998	0.799039	0.466570
O463	O	0.570683	-0.412219	-0.137484
O464	O	1.070683	0.087781	0.362516
C465	C	0.528491	-0.435573	-0.140253
C466	C	1.028491	0.064427	0.359747
H467	H	0.514475	-0.441209	-0.100088
H468	H	1.014475	0.058791	0.399912
H469	H	0.499354	-0.412077	-0.163060
H470	H	0.999354	0.087923	0.336940
C471	C	0.557912	-0.478287	-0.216058
C472	C	1.057912	0.021713	0.283942
C473	C	0.540699	-0.485214	-0.166726
C474	C	1.040699	0.014786	0.333274
H475	H	0.565441	-0.508907	-0.232390
H476	H	1.065441	-0.008907	0.267610
H477	H	0.586337	-0.462552	-0.214194
H478	H	1.086337	0.037448	0.285806
H479	H	0.533628	-0.458706	-0.235057
H480	H	1.033628	0.041294	0.264943
H481	H	0.564985	-0.504790	-0.147727
H482	H	1.064985	-0.004790	0.352273
H483	H	0.512279	-0.500954	-0.168588
H484	H	1.012279	-0.000954	0.331412
O485	O	0.513125	0.004419	-0.226854
O486	O	1.013125	0.504419	0.273146
C487	C	0.487434	-0.021268	-0.191838
C488	C	0.987434	0.478732	0.308162
H489	H	0.507462	-0.024225	-0.153755
H490	H	1.007462	0.475775	0.346245
H491	H	0.449341	-0.001091	-0.186171
H492	H	0.949341	0.498909	0.313829
C493	C	0.459174	-0.068957	-0.259462
C494	C	0.959174	0.431043	0.240538
C495	C	0.483774	-0.072593	-0.212689
C496	C	0.983774	0.427407	0.287311
H497	H	0.456914	-0.100616	-0.272324
H498	H	0.956914	0.399384	0.227676
H499	H	0.476481	-0.051651	-0.283053
H500	H	0.976481	0.448349	0.216947
H501	H	0.427432	-0.052141	-0.254733
H502	H	0.927432	0.447859	0.245267
H503	H	0.515517	-0.089404	-0.217419
H504	H	1.015517	0.410596	0.282581
H505	H	0.466472	-0.089904	-0.189098
H506	H	0.966472	0.410096	0.310902
H507	H	0.571805	-0.316767	0.130121
H508	H	1.071805	0.183233	0.630121
H509	H	0.566898	-0.791367	-0.084026
H510	H	1.066898	-0.291367	0.415974
H511	H	-0.202323	0.139209	-0.000099
H512	H	0.297677	0.639209	0.499901
O513	O	0.573190	-0.180207	0.091195
O514	O	1.073190	0.319793	0.591195
C515	C	0.573518	-0.147141	0.132021
C516	C	1.073518	0.352859	0.632021
H517	H	0.589195	-0.113322	0.118462
H518	H	1.089195	0.386678	0.618462
H519	H	0.534779	-0.136416	0.146235
H520	H	1.034779	0.363584	0.646235
C521	C	0.585775	-0.212731	0.192387
C522	C	1.085775	0.287269	0.692387
C523	C	0.605033	-0.171195	0.175734
C524	C	1.105033	0.328805	0.675734
H525	H	0.605213	-0.227569	0.219352
H526	H	1.105213	0.272431	0.719352
H527	H	0.585552	-0.235008	0.164882
H528	H	1.085552	0.264992	0.664882
H529	H	0.553493	-0.203788	0.204228
H530	H	1.053493	0.296212	0.704228
H531	H	0.637312	-0.180140	0.163887
H532	H	1.137312	0.319860	0.663887
H533	H	0.605262	-0.148920	0.203238
H534	H	1.105262	0.351080	0.703238
H535	H	0.574092	-0.084855	-0.083965
H536	H	1.074092	0.415145	0.416035
O537	O	0.513098	0.004527	-0.121578
O538	O	1.013098	0.504527	0.378422
C539	C	0.479881	0.034232	-0.090701
C540	C	0.979881	0.534232	0.409299
H541	H	0.494650	0.069997	-0.082690
H542	H	0.994650	0.569997	0.417310
H543	H	0.443493	0.041883	-0.111301
H544	H	0.943493	0.541883	0.388699
C545	C	0.454659	-0.035891	-0.049807
C546	C	0.954659	0.464109	0.450193
C547	C	0.472801	0.008033	-0.039965
C548	C	0.972801	0.508033	0.460035
H549	H	0.450290	-0.052052	-0.018511
H550	H	0.950290	0.447948	0.481489
H551	H	0.477037	-0.055905	-0.070610
H552	H	0.977037	0.444095	0.429390
H553	H	0.424338	-0.029510	-0.066975
H554	H	0.924338	0.470490	0.433025
H555	H	0.503125	0.001651	-0.022803
H556	H	1.003125	0.501651	0.477197
H557	H	0.450428	0.028045	-0.019157
H558	H	0.950428	0.528045	0.480843
H559	H	0.623270	0.114690	-0.125771
H560	H	1.123270	0.614690	0.374229
H561	H	-0.067962	0.184710	-0.000114
H562	H	0.432038	0.684710	0.499886
H563	H	0.412731	0.145456	-0.000074
H564	H	0.912731	0.645456	0.499926
H565	H	-0.033683	-0.063393	-0.000064
H566	H	0.466317	0.436607	0.499936
H567	H	0.573173	-0.176307	-0.083976
H568	H	1.073173	0.323693	0.416024
O569	O	0.627871	0.119312	-0.226780
O570	O	1.127871	0.619312	0.273220
C571	C	0.653549	0.144998	-0.191731
C572	C	1.153549	0.644998	0.308269
H573	H	0.633510	0.147949	-0.153666
H574	H	1.133510	0.647949	0.346334
H575	H	0.691641	0.124823	-0.186036
H576	H	1.191641	0.624823	0.313964
C577	C	0.681825	0.192697	-0.259312
C578	C	1.181825	0.692697	0.240688
C579	C	0.657210	0.196325	-0.212561
C580	C	1.157210	0.696325	0.287439
H581	H	0.684086	0.224357	-0.272161
H582	H	1.184086	0.724357	0.227839
H583	H	0.664527	0.175390	-0.282926
H584	H	1.164527	0.675390	0.217074
H585	H	0.713566	0.175882	-0.254560
H586	H	1.213566	0.675882	0.245440
H587	H	0.625468	0.213134	-0.217315
H588	H	1.125468	0.713134	0.282685
H589	H	0.674504	0.213636	-0.188948
H590	H	1.174504	0.713636	0.311052
H591	H	0.623334	0.114737	-0.777413
H592	H	1.123334	0.614737	-0.277413
O593	O	0.657043	0.148400	-0.527590
O594	O	1.157043	0.648400	-0.027590
C595	C	0.682716	0.174101	-0.562610
C596	C	1.182716	0.674101	-0.062610
H597	H	0.685681	0.154069	-0.600686
H598	H	1.185681	0.654069	-0.100686
H599	H	0.662521	0.212186	-0.568293
H600	H	1.162521	0.712186	-0.068293
C601	C	0.730390	0.202393	-0.494988
C602	C	1.230390	0.702393	0.005012
C603	C	0.734036	0.177788	-0.541753
C604	C	1.234036	0.677788	-0.041753
H605	H	0.762046	0.204670	-0.482122
H606	H	1.262046	0.704670	0.017878
H607	H	0.713093	0.185080	-0.471394
H608	H	1.213093	0.685080	0.028606
H609	H	0.713559	0.234128	-0.499730
H610	H	1.213559	0.734128	0.000270
H611	H	0.750861	0.146052	-0.537009
H612	H	1.250861	0.646052	-0.037009
H613	H	0.751337	0.195096	-0.565346
H614	H	1.251337	0.695096	-0.065346
O615	O	0.484131	-0.024716	-0.472636
O616	O	0.984131	0.475284	0.027364
C617	C	0.497888	-0.073873	-0.459573
C618	C	0.997888	0.426127	0.040427
H619	H	0.536903	-0.078815	-0.444879
H620	H	1.036903	0.421185	0.055121
H621	H	0.472633	-0.084917	-0.428576
H622	H	0.972633	0.415083	0.071424
C623	C	0.446408	-0.099905	-0.525073
C624	C	0.946408	0.400095	-0.025073
C625	C	0.494329	-0.105976	-0.507029
C626	C	0.994329	0.394024	-0.007029
H627	H	0.444210	-0.119708	-0.554345
H628	H	0.944210	0.380292	-0.054345
H629	H	0.437138	-0.066787	-0.533873
H630	H	0.937138	0.433213	-0.033873
H631	H	0.425367	-0.109108	-0.499238
H632	H	0.925367	0.390892	0.000762
H633	H	0.515367	-0.096767	-0.532862
H634	H	1.015367	0.403233	-0.032862
H635	H	0.503602	-0.139094	-0.498235
H636	H	1.003602	0.360906	0.001765
O637	O	-0.298772	0.145118	-0.000127
O638	O	0.201228	0.645118	0.499873
C639	C	-0.347366	0.135152	-0.000112
C640	C	0.152634	0.635152	0.499888
H641	H	-0.349016	0.097192	-0.016165
H642	H	0.150984	0.597192	0.483835
H643	H	-0.361953	0.137108	0.040598
H644	H	0.138047	0.637108	0.540598
C645	C	-0.376487	0.219523	-0.013686
C646	C	0.123513	0.719523	0.486314
C647	C	-0.378515	0.172902	-0.033407
C648	C	0.121485	0.672902	0.466593
H649	H	-0.395702	0.242810	-0.034221
H650	H	0.104298	0.742810	0.465779
H651	H	-0.343749	0.226239	-0.013694
H652	H	0.156251	0.726239	0.486306
H653	H	-0.388642	0.221146	0.020239
H654	H	0.111358	0.721146	0.520239
H655	H	-0.366354	0.171278	-0.067328
H656	H	0.133646	0.671278	0.432672
H657	H	-0.411252	0.166187	-0.033405
H658	H	0.088748	0.666187	0.466595
H659	H	0.652435	0.143817	-0.628605
H660	H	1.152435	0.643817	-0.128605
H661	H	-0.271685	-0.021675	-0.000063
H662	H	0.228315	0.478325	0.499937
O663	O	0.483995	-0.024594	-0.367385
O664	O	0.983995	0.475406	0.132615
C665	C	0.434831	-0.010871	-0.380459
C666	C	0.934831	0.489129	0.119541
H667	H	0.429861	0.028145	-0.395140
H668	H	0.929861	0.528145	0.104860
H669	H	0.423804	-0.036136	-0.411470
H670	H	0.923804	0.463864	0.088530
C671	C	0.408841	-0.062374	-0.314988
C672	C	0.908841	0.437626	0.185012
C673	C	0.402736	-0.014453	-0.333015
C674	C	0.902736	0.485547	0.166985
H675	H	0.389043	-0.064586	-0.285723
H676	H	0.889043	0.435414	0.214277
H677	H	0.441964	-0.071622	-0.306181
H678	H	0.941964	0.428378	0.193819
H679	H	0.399653	-0.083423	-0.340834
H680	H	0.899653	0.416577	0.159166
H681	H	0.411930	0.006593	-0.307171
H682	H	0.911930	0.506593	0.192829
H683	H	0.369614	-0.005203	-0.341817
H684	H	0.869614	0.494797	0.158183
H685	H	0.652398	0.143807	-0.371468
H686	H	1.152398	0.643807	0.128532
O687	O	0.513161	0.004570	-0.773235
O688	O	1.013161	0.504570	-0.273235
C689	C	0.479944	0.034273	-0.742357
C690	C	0.979944	0.534273	-0.242357
H691	H	0.494718	0.070032	-0.734335
H692	H	0.994718	0.570032	-0.234335
H693	H	0.443559	0.041932	-0.762962
H694	H	0.943559	0.541932	-0.262962
C695	C	0.454706	-0.035855	-0.701485
C696	C	0.954706	0.464145	-0.201485
C697	C	0.472854	0.008065	-0.691629
C698	C	0.972854	0.508065	-0.191629
H699	H	0.450330	-0.052021	-0.670194
H700	H	0.950330	0.447979	-0.170194
H701	H	0.477084	-0.055867	-0.722290
H702	H	0.977084	0.444133	-0.222290
H703	H	0.424387	-0.029465	-0.718657
H704	H	0.924387	0.470535	-0.218657
H705	H	0.503174	0.001674	-0.674463
H706	H	1.003174	0.501674	-0.174463
H707	H	0.450480	0.028075	-0.670820
H708	H	0.950480	0.528075	-0.170820
H709	H	0.570207	-0.468017	-0.130258
H710	H	1.070207	0.031983	0.369742
H711	H	0.083287	0.186253	-0.000106
H712	H	0.583287	0.686253	0.499894
H713	H	0.057765	-0.062462	-0.000062
H714	H	0.557765	0.437538	0.499938
H715	H	0.652408	0.143812	-0.468357
H716	H	1.152408	0.643812	0.031643
