data_functionalizedCrystal
_audit_creation_method	'MofGen! by Chris Wilmer'
_symmetry_space_group_name_H-M	'P1'
_symmetry_Int_Tables_number	1
_symmetry_cell_setting	triclinic
loop_
_symmetry_equiv_pos_as_xyz
  x,y,z
_cell_length_a	16.992694
_cell_length_b	19.188930
_cell_length_c	15.455313
_cell_angle_alpha	92.650876
_cell_angle_beta	87.142206
_cell_angle_gamma	86.906503
loop_
_atom_site_label
_atom_site_type_symbol
_atom_site_fract_x
_atom_site_fract_y
_atom_site_fract_z
O1	O	1.043326	0.145160	-0.072038
O2	O	1.543326	0.645160	0.427962
O3	O	0.815047	0.143535	-0.072064
O4	O	1.315047	0.643535	0.427936
O5	O	0.935773	0.043078	-0.072033
O6	O	1.435773	0.543078	0.427967
O7	O	0.922600	0.245617	-0.072069
O8	O	1.422600	0.745617	0.427931
O9	O	0.928870	0.048798	0.072227
O10	O	1.428870	0.548798	0.572227
O11	O	0.808144	0.149255	0.072197
O12	O	1.308144	0.649255	0.572197
O13	O	1.036422	0.150879	0.072222
O14	O	1.536422	0.650879	0.572222
Cu15	Cu	0.921653	0.150589	0.085382
Cu16	Cu	1.421653	0.650589	0.585382
Cu17	Cu	0.929817	0.143825	-0.085223
Cu18	Cu	1.429817	0.643825	0.414777
O19	O	0.915696	0.251336	0.072192
O20	O	1.415696	0.751336	0.572192
C21	C	0.782390	0.144306	0.000064
C22	C	1.282390	0.644306	0.500064
C23	C	0.695368	0.138072	0.000055
C24	C	1.195368	0.638072	0.500055
C25	C	0.644922	0.198212	0.000045
C26	C	1.144922	0.698212	0.500045
C27	C	0.563155	0.192351	0.000058
C28	C	1.063155	0.692351	0.500058
C29	C	0.531836	0.126351	0.000075
C30	C	1.031836	0.626351	0.500075
C31	C	0.582288	0.066208	0.000087
C32	C	1.082288	0.566208	0.500087
C33	C	0.664053	0.072069	0.000080
C34	C	1.164053	0.572069	0.500080
C35	C	0.288320	0.102059	0.000102
C36	C	0.788320	0.602059	0.500102
C37	C	0.206548	0.096203	0.000106
C38	C	0.706548	0.596203	0.500106
C39	C	0.187420	0.222347	0.000079
C40	C	0.687420	0.722347	0.500079
C41	C	0.269188	0.228202	0.000067
C42	C	0.769188	0.728202	0.500067
C43	C	0.319633	0.168059	0.000084
C44	C	0.819633	0.668059	0.500084
N45	N	0.448257	0.120360	0.000085
N46	N	0.948257	0.620360	0.500085
N47	N	0.403210	0.174051	0.000079
N48	N	0.903210	0.674051	0.500079
C49	C	0.931895	0.019902	0.000099
C50	C	1.431895	0.519902	0.500099
C51	C	0.930614	-0.057677	0.000107
C52	C	1.430614	0.442323	0.500107
C53	C	1.001452	-0.098455	0.000119
C54	C	1.501452	0.401545	0.500119
C55	C	1.000250	-0.171350	0.000105
C56	C	1.500250	0.328650	0.500105
C57	C	0.928204	-0.203463	0.000096
C58	C	1.428204	0.296537	0.500096
C59	C	0.857356	-0.162676	0.000079
C60	C	1.357356	0.337324	0.500079
C61	C	0.858561	-0.089783	0.000085
C62	C	1.358561	0.410217	0.500085
N63	N	0.870784	-0.312744	0.049185
N64	N	1.370784	0.187256	0.549185
N65	N	0.869644	-0.381990	0.049181
N66	N	1.369644	0.118010	0.549181
C67	C	0.924569	-0.423085	0.000078
C68	C	1.424569	0.076915	0.500078
N69	N	0.980688	-0.392319	-0.049011
N70	N	1.480688	0.107681	0.450989
N71	N	0.981830	-0.323067	-0.049004
N72	N	1.481830	0.176933	0.450996
C73	C	0.926889	-0.282503	0.000090
C74	C	1.426889	0.217497	0.500090
C75	C	0.994108	-0.542904	0.000074
C76	C	1.494108	-0.042904	0.500074
C77	C	0.992903	-0.615801	0.000054
C78	C	1.492903	-0.115801	0.500054
C79	C	0.850007	-0.607124	0.000038
C80	C	1.350007	-0.107124	0.500038
C81	C	0.851215	-0.534230	0.000048
C82	C	1.351215	-0.034230	0.500048
C83	C	0.923267	-0.502124	0.000070
C84	C	1.423267	-0.002124	0.500070
C85	C	1.069079	0.150109	0.000093
C86	C	1.569079	0.650109	0.500093
C87	C	1.156102	0.156342	0.000096
C88	C	1.656102	0.656342	0.500096
C89	C	0.919575	0.274513	0.000057
C90	C	1.419575	0.774513	0.500057
C91	C	0.920856	0.352092	0.000044
C92	C	1.420856	0.852092	0.500044
N93	N	0.915916	0.155346	0.205376
N94	N	1.415916	0.655346	0.705376
N95	N	0.935560	0.139063	-0.205217
N96	N	1.435560	0.639063	0.294783
C97	C	0.967222	0.112686	0.250783
C98	C	1.467222	0.612686	0.750783
C99	C	0.962891	0.116291	0.341590
C100	C	1.462891	0.616291	0.841590
C101	C	0.907257	0.162559	0.386988
C102	C	1.407257	0.662559	0.886988
C103	C	0.855945	0.205221	0.341574
C104	C	1.355945	0.705221	0.841574
C105	C	0.860273	0.201613	0.250769
C106	C	1.360273	0.701613	0.750769
C107	C	0.888576	0.178116	0.658564
C108	C	1.388576	0.678116	1.158564
C109	C	0.884253	0.181723	0.749376
C110	C	1.384253	0.681723	1.249376
C111	C	0.991199	0.092792	0.749385
C112	C	1.491199	0.592792	1.249385
C113	C	0.995525	0.089190	0.658578
C114	C	1.495525	0.589190	1.158578
C115	C	0.944211	0.131849	0.613173
C116	C	1.444211	0.631849	1.113173
N117	N	0.902830	0.166246	0.479807
N118	N	1.402830	0.666246	0.979807
N119	N	0.948634	0.128158	0.520355
N120	N	1.448634	0.628158	1.020355
H121	H	0.294682	0.281946	0.000043
H122	H	0.794682	0.781946	0.500043
C123	C	0.131933	0.288501	0.000064
C124	C	0.631933	0.788501	0.500064
H125	H	0.162297	0.328646	0.000047
H126	H	0.662297	0.828646	0.500047
H127	H	0.097237	0.290834	0.050372
H128	H	0.597237	0.790834	0.550372
H129	H	0.102042	0.286840	-0.050248
H130	H	0.602042	0.786840	0.449752
C131	C	0.832139	0.225046	0.608630
C132	C	1.332139	0.725046	1.108630
H133	H	0.798393	0.253123	0.648675
H134	H	1.298393	0.753123	1.148675
H135	H	0.801279	0.196693	0.573219
H136	H	1.301279	0.696693	1.073219
H137	H	0.861930	0.254288	0.573194
H138	H	1.361930	0.754288	1.073194
C139	C	0.780635	-0.044925	0.000080
C140	C	1.280635	0.455075	0.500080
H141	H	0.737553	-0.074487	0.000076
H142	H	1.237553	0.425513	0.500076
H143	H	0.780542	-0.018291	-0.050222
H144	H	1.280542	0.481709	0.449778
H145	H	0.775730	-0.014326	0.050398
H146	H	1.275730	0.485674	0.550398
C147	C	1.073361	-0.507585	0.000088
C148	C	1.573361	-0.007585	0.500088
H149	H	1.115380	-0.542315	0.000081
H150	H	1.615380	-0.042315	0.500081
H151	H	1.074395	-0.477345	0.050399
H152	H	1.574395	0.022655	0.550399
H153	H	1.079207	-0.481316	-0.050221
H154	H	1.579207	0.018684	0.449779
H155	H	1.057937	-0.204558	0.000111
H156	H	1.557937	0.295442	0.500111
H157	H	0.810642	0.242891	0.378543
H158	H	1.310642	0.742891	0.878543
C159	C	0.343803	0.035906	0.000108
C160	C	0.843803	0.535906	0.500108
H161	H	0.396986	0.048845	0.000110
H162	H	0.896986	0.548845	0.500110
H163	H	0.336731	0.007038	-0.050194
H164	H	0.836731	0.507038	0.449806
H165	H	0.331931	0.011025	0.050425
H166	H	0.831931	0.511025	0.550425
H167	H	0.798696	-0.188827	0.000070
H168	H	1.298696	0.311173	0.500070
H169	H	1.050591	-0.649002	0.000059
H170	H	1.550591	-0.149002	0.500059
C171	C	0.507667	0.258505	0.000044
C172	C	1.007667	0.758505	0.500044
H173	H	0.538031	0.298650	0.000023
H174	H	1.038031	0.798650	0.500023
H175	H	0.472973	0.260839	0.050354
H176	H	0.972973	0.760839	0.550354
H177	H	0.477773	0.256842	-0.050266
H178	H	0.977773	0.756842	0.449734
H179	H	0.181052	0.042455	0.000119
H180	H	0.681052	0.542455	0.500119
C181	C	0.770758	-0.642440	0.000025
C182	C	1.270758	-0.142440	0.500025
H183	H	0.780184	-0.691693	0.000028
H184	H	1.280184	-0.191693	0.500028
H185	H	0.744007	-0.630696	-0.050284
H186	H	1.244007	-0.130696	0.449716
H187	H	0.739193	-0.626726	0.050336
H188	H	1.239193	-0.126726	0.550336
C189	C	1.080704	-0.063140	0.000140
C190	C	1.580704	0.436860	0.500140
H191	H	1.071279	-0.013886	0.000149
H192	H	1.571279	0.486114	0.500149
H193	H	1.112275	-0.078855	-0.050160
H194	H	1.612275	0.421145	0.449840
H195	H	1.107447	-0.074882	0.050460
H196	H	1.607447	0.425118	0.550460
C197	C	0.547839	-0.006391	0.000104
C198	C	1.047839	0.493609	0.500104
H199	H	0.491918	-0.001270	0.000097
H200	H	0.991918	0.498730	0.500097
H201	H	0.562769	-0.029352	0.050413
H202	H	1.062769	0.470648	0.550413
H203	H	0.567573	-0.033338	-0.050206
H204	H	1.067573	0.466662	0.449794
H205	H	0.705127	0.023097	0.000088
H206	H	1.205127	0.523097	0.500088
H207	H	0.793530	-0.501027	0.000043
H208	H	1.293530	-0.001027	0.500043
H209	H	1.032976	0.058060	0.786362
H210	H	1.532976	0.558060	1.286362
H211	H	1.012529	0.075013	0.213826
H212	H	1.512529	0.575013	0.713826
C213	C	1.019336	0.069372	0.391534
C214	C	1.519336	0.569372	0.891534
H215	H	1.053097	0.041307	0.351491
H216	H	1.553097	0.541307	0.851491
H217	H	0.989558	0.040129	0.426972
H218	H	1.489558	0.540129	0.926972
H219	H	1.050191	0.097738	0.426941
H220	H	1.550191	0.597738	0.926941
C221	C	0.823053	0.232618	0.799317
C222	C	1.323053	0.732618	1.299317
H223	H	0.827834	0.228662	0.859900
H224	H	1.327834	0.728662	1.359900
H225	H	0.771469	0.221499	0.784452
H226	H	1.271469	0.721499	1.284452
H227	H	0.832115	0.279098	0.784418
H228	H	1.332115	0.779098	1.284418
H229	H	0.818493	0.236350	0.213800
H230	H	1.318493	0.736350	0.713800
C231	C	0.679365	0.270812	0.000026
C232	C	1.179365	0.770812	0.500026
H233	H	0.637607	0.305789	0.000030
H234	H	1.137607	0.805789	0.500030
H235	H	0.713265	0.273728	-0.050283
H236	H	1.213265	0.773728	0.449717
H237	H	0.708463	0.277715	0.050337
H238	H	1.208463	0.777715	0.550337
C239	C	1.056718	0.038291	0.608646
C240	C	1.556718	0.538291	1.108646
H241	H	1.086651	0.013395	0.648695
H242	H	1.586651	0.513395	1.148695
H243	H	1.090951	0.063830	0.573208
H244	H	1.590951	0.563830	1.073208
H245	H	1.030301	0.006235	0.573239
H246	H	1.530301	0.506235	1.073239
