data_functionalizedCrystal
_audit_creation_method	'MofGen! by Chris Wilmer'
_symmetry_space_group_name_H-M	'P1'
_symmetry_Int_Tables_number	1
_symmetry_cell_setting	triclinic
loop_
_symmetry_equiv_pos_as_xyz
  x,y,z
_cell_length_a	15.944564
_cell_length_b	15.944493
_cell_length_c	15.021413
_cell_angle_alpha	89.993251
_cell_angle_beta	89.997162
_cell_angle_gamma	96.510511
loop_
_atom_site_label
_atom_site_type_symbol
_atom_site_fract_x
_atom_site_fract_y
_atom_site_fract_z
O1	O	-0.108088	1.114564	-0.074023
O2	O	-0.121495	0.870008	-0.074027
O3	O	0.007484	0.998959	-0.074016
O4	O	-0.237067	0.985614	-0.074034
O5	O	0.007465	0.998938	0.074048
O6	O	-0.121514	0.869988	0.074037
O7	O	-0.108107	1.114544	0.074042
Zn8	Zn	-0.114813	0.992262	0.097548
Zn9	Zn	-0.114789	0.992290	-0.097533
O10	O	-0.237086	0.985593	0.074031
C11	C	-0.120957	0.838703	0.000004
C12	C	-0.119314	0.745455	0.000003
C13	C	-0.195234	0.509698	-0.000003
C14	C	-0.154302	0.459128	0.073007
C15	C	-0.116270	0.574733	0.000005
C16	C	-0.154265	0.459153	-0.072973
C17	C	-0.113335	0.409824	0.000003
C18	C	-0.075359	0.525391	0.073075
C19	C	-0.075334	0.525420	-0.072970
C20	C	-0.034345	0.474882	0.000058
C21	C	-0.117962	0.669733	0.000007
C22	C	-0.111636	0.314827	0.000007
C23	C	0.038768	0.998393	0.000016
C24	C	0.132013	0.996726	0.000017
C25	C	0.346851	0.912810	0.000004
C26	C	0.407867	0.951760	0.073010
C27	C	0.302738	0.993711	0.000011
C28	C	0.407869	0.951800	-0.072970
C29	C	0.467649	0.990793	0.000001
C30	C	0.362525	1.032684	0.073077
C31	C	0.362521	1.032712	-0.072969
C32	C	0.423519	1.071721	0.000055
C33	C	0.207736	0.995390	0.000017
C34	C	0.562649	0.989120	0.000001
C35	C	0.731628	0.986148	-0.000003
C36	C	0.638379	0.987780	-0.000006
N37	N	-0.114829	0.992250	0.230685
C38	C	-0.108645	1.145849	0.000008
C39	C	-0.110288	1.239097	0.000004
N40	N	-0.114766	0.992309	-0.230671
C41	C	-0.174441	0.932614	0.470363
C42	C	-0.190732	1.008517	0.529698
C43	C	-0.114808	0.992272	0.412292
C44	C	-0.098536	0.916389	0.529699
C45	C	-0.114790	0.992286	0.587716
C46	C	-0.131137	1.068213	0.470320
C47	C	-0.038908	0.976035	0.470316
C48	C	-0.055167	1.051993	0.529624
C49	C	-0.114821	0.992262	0.311235
C50	C	-0.114776	0.992304	0.688771
H51	H	-0.042004	0.554373	-0.134692
C52	C	-0.199320	0.420077	-0.156352
C53	C	-0.205326	0.324142	-0.172040
C54	C	-0.250388	0.285068	-0.255413
C55	C	-0.289443	0.341931	-0.323099
C56	C	-0.283438	0.437872	-0.307413
C57	C	-0.238376	0.476945	-0.224039
H58	H	-0.176415	0.282044	-0.121933
H59	H	-0.254834	0.214046	-0.267025
H60	H	-0.322800	0.313006	-0.384817
H61	H	-0.312349	0.479970	-0.357519
H62	H	-0.233930	0.547968	-0.212428
C63	C	0.335337	1.078910	-0.156349
C64	C	0.401909	1.114406	-0.224916
C65	C	0.374722	1.160596	-0.308304
C66	C	0.280962	1.171291	-0.323126
C67	C	0.214384	1.135795	-0.254558
C68	C	0.241571	1.089604	-0.171169
H69	H	0.471321	1.106489	-0.213945
H70	H	0.424009	1.186872	-0.359063
H71	H	0.260837	1.205484	-0.384856
H72	H	0.144972	1.143711	-0.265528
H73	H	0.192284	1.063328	-0.120410
C74	C	-0.079939	0.829690	0.564927
C75	C	-0.001781	0.822809	0.623541
C76	C	0.016810	0.736108	0.658762
C77	C	-0.042758	0.656287	0.635367
C78	C	-0.120922	0.663164	0.576750
C79	C	-0.139512	0.749866	0.541529
H80	H	0.042320	0.881900	0.640862
H81	H	0.074672	0.731017	0.702155
H82	H	-0.028996	0.592105	0.661440
H83	H	-0.165022	0.604073	0.559429
H84	H	-0.197375	0.754957	0.498137
C85	C	0.301829	0.822100	0.000095
C86	C	0.316050	0.761906	0.077436
C87	C	0.271026	0.671199	0.077532
C88	C	0.211781	0.640688	0.000287
C89	C	0.197557	0.700883	-0.077059
C90	C	0.242581	0.791590	-0.077155
H91	H	0.359909	0.784491	0.134622
H92	H	0.281556	0.626639	0.134789
H93	H	0.178452	0.573542	0.000358
H94	H	0.153698	0.678298	-0.134246
H95	H	0.232051	0.836150	-0.134413
C96	C	0.047766	0.957437	0.435042
C97	C	0.063843	0.954797	0.334049
C98	C	0.150516	0.936188	0.298773
C99	C	0.221111	0.920218	0.364490
C100	C	0.205036	0.922857	0.465490
C101	C	0.118363	0.941466	0.500766
H102	H	0.011582	0.966620	0.285396
H103	H	0.162415	0.934235	0.224006
H104	H	0.285272	0.906443	0.338376
H105	H	0.257297	0.911035	0.514143
H106	H	0.106464	0.943419	0.575533
H107	H	0.427961	0.917534	0.134729
H108	H	-0.224911	0.882215	0.444344
H109	H	-0.263253	0.525325	0.000060
H110	H	-0.187658	0.430183	0.134726
C111	C	-0.277430	1.027089	0.564944
C112	C	-0.357243	0.967502	0.541568
C113	C	-0.443942	0.986068	0.576810
C114	C	-0.450828	1.064220	0.635427
C115	C	-0.371012	1.123812	0.658805
C116	C	-0.284312	1.105247	0.623564
H117	H	-0.352148	0.909645	0.498174
H118	H	-0.503028	0.941953	0.559503
H119	H	-0.515008	1.077963	0.661515
H120	H	-0.376106	1.181670	0.702200
H121	H	-0.225227	1.149362	0.640870
H122	H	-0.004726	1.102504	0.555481
H123	H	-0.042039	0.554209	0.134861
H124	H	0.033726	0.459413	0.000105
C125	C	-0.149827	1.154934	0.435242
C126	C	-0.153327	1.170940	0.334281
C127	C	-0.172020	1.257658	0.299200
C128	C	-0.187213	1.328370	0.365080
C129	C	-0.183713	1.312366	0.466048
C130	C	-0.165021	1.225649	0.501128
H131	H	-0.142080	1.118593	0.285506
H132	H	-0.174611	1.269504	0.224457
H133	H	-0.201051	1.392564	0.339112
H134	H	-0.194961	1.364714	0.514822
H135	H	-0.162430	1.213802	0.575871
H136	H	0.342534	1.066865	0.134865
H137	H	0.456691	1.138929	0.000097
H138	H	0.427946	0.917580	-0.134695
