data_functionalizedCrystal
_audit_creation_method	'MofGen! by Chris Wilmer'
_symmetry_space_group_name_H-M	'P1'
_symmetry_Int_Tables_number	1
_symmetry_cell_setting	triclinic
loop_
_symmetry_equiv_pos_as_xyz
  x,y,z
_cell_length_a	19.288840
_cell_length_b	19.288865
_cell_length_c	17.766277
_cell_angle_alpha	89.988481
_cell_angle_beta	89.983087
_cell_angle_gamma	83.131131
loop_
_atom_site_label
_atom_site_type_symbol
_atom_site_fract_x
_atom_site_fract_y
_atom_site_fract_z
O1	O	0.921364	0.086566	-0.062729
O2	O	1.421364	0.586566	0.437271
O3	O	0.719101	0.098273	-0.062704
O4	O	1.219101	0.598273	0.437296
O5	O	0.826077	-0.008712	-0.062702
O6	O	1.326077	0.491288	0.437298
O7	O	0.814389	0.193550	-0.062730
O8	O	1.314389	0.693550	0.437270
O9	O	0.826058	-0.008717	0.062487
O10	O	1.326058	0.491283	0.562487
O11	O	0.719082	0.098268	0.062485
O12	O	1.219082	0.598268	0.562485
O13	O	0.921345	0.086561	0.062460
O14	O	1.421345	0.586561	0.562460
Cu15	Cu	0.820212	0.092414	0.073903
Cu16	Cu	1.320212	0.592414	0.573903
Cu17	Cu	0.820235	0.092420	-0.074147
Cu18	Cu	1.320235	0.592420	0.425853
O19	O	0.814369	0.193545	0.062458
O20	O	1.314369	0.693545	0.562458
C21	C	0.693215	0.097896	-0.000106
C22	C	1.193215	0.597896	0.499894
C23	C	0.616110	0.096774	-0.000096
C24	C	1.116110	0.596774	0.499904
C25	C	0.579917	0.096238	-0.068338
C26	C	1.079917	0.596238	0.431662
C27	C	0.507471	0.095176	-0.068347
C28	C	1.007471	0.595176	0.431653
C29	C	0.471221	0.094636	-0.000110
C30	C	0.971221	0.594636	0.499890
C31	C	0.507422	0.095176	0.068141
C32	C	1.007422	0.595176	0.568141
C33	C	0.579867	0.096246	0.068148
C34	C	1.079867	0.596246	0.568148
C35	C	0.361885	0.052256	0.052164
C36	C	0.861885	0.552256	0.552164
C37	C	0.289443	0.051183	0.052155
C38	C	0.789443	0.551183	0.552155
C39	C	0.247778	0.091342	-0.000129
C40	C	0.747778	0.591342	0.499871
C41	C	0.278565	0.132566	-0.052416
C42	C	0.778565	0.632566	0.447584
C43	C	0.351010	0.133635	-0.052408
C44	C	0.851010	0.633635	0.447592
C45	C	0.392667	0.093477	-0.000110
C46	C	0.892667	0.593477	0.499890
C47	C	0.133029	0.089655	-0.068386
C48	C	0.633029	0.589655	0.431614
C49	C	0.060581	0.088598	-0.068392
C50	C	0.560581	0.588598	0.431608
C51	C	0.060535	0.088591	0.068098
C52	C	0.560535	0.588591	0.568098
C53	C	0.132981	0.089656	0.068102
C54	C	0.632981	0.589656	0.568102
C55	C	0.169225	0.090185	-0.000142
C56	C	0.669225	0.590185	0.499858
C57	C	0.825692	-0.034591	-0.000105
C58	C	1.325692	0.465409	0.499895
C59	C	0.824563	-0.111694	-0.000099
C60	C	1.324563	0.388306	0.499901
C61	C	0.947232	0.086937	-0.000139
C62	C	1.447232	0.586937	0.499861
C63	C	1.024336	0.088059	-0.000154
C64	C	1.524336	0.588059	0.499846
C65	C	0.887331	-0.156396	-0.000103
C66	C	1.387331	0.343604	0.499897
C67	C	0.886270	-0.228843	-0.000114
C68	C	1.386270	0.271157	0.499886
C69	C	0.822438	-0.256585	-0.000107
C70	C	1.322438	0.243415	0.499893
C71	C	0.759661	-0.211873	-0.000107
C72	C	1.259661	0.288127	0.499893
C73	C	0.760723	-0.139428	-0.000103
C74	C	1.260723	0.360572	0.499897
C75	C	0.772251	-0.364869	0.043750
C76	C	1.272251	0.135131	0.543750
C77	C	0.771191	-0.437314	0.043750
C78	C	1.271191	0.062686	0.543750
C79	C	0.819158	-0.480030	-0.000123
C80	C	1.319158	0.019970	0.499877
C81	C	0.868197	-0.450295	-0.043988
C82	C	1.368197	0.049705	0.456012
C83	C	0.869259	-0.377849	-0.043984
C84	C	1.369259	0.122151	0.456016
C85	C	0.821278	-0.335139	-0.000112
C86	C	1.321278	0.164861	0.499888
C87	C	0.880781	-0.603288	-0.000141
C88	C	1.380781	-0.103288	0.499859
C89	C	0.879717	-0.675736	-0.000158
C90	C	1.379717	-0.175736	0.499842
C91	C	0.753106	-0.658764	-0.000143
C92	C	1.253106	-0.158764	0.499857
C93	C	0.754171	-0.586318	-0.000134
C94	C	1.254171	-0.086318	0.499866
C95	C	0.818010	-0.558584	-0.000130
C96	C	1.318010	-0.058584	0.499870
C97	C	0.814755	0.219424	-0.000140
C98	C	1.314755	0.719424	0.499860
C99	C	0.815884	0.296527	-0.000152
C100	C	1.315884	0.796527	0.499848
N101	N	0.820201	0.092409	0.178034
N102	N	1.320201	0.592409	0.678034
C103	C	0.867585	0.045059	0.217421
C104	C	1.367585	0.545059	0.717421
C105	C	0.867588	0.045056	0.296223
C106	C	1.367588	0.545056	0.796223
C107	C	0.820214	0.092415	0.335634
C108	C	1.320214	0.592415	0.835634
C109	C	0.772822	0.139768	0.296237
C110	C	1.272822	0.639768	0.796237
C111	C	0.772815	0.139765	0.217437
C112	C	1.272815	0.639765	0.717437
C113	C	0.810915	0.155703	0.460464
C114	C	1.310915	0.655703	0.960464
C115	C	0.810927	0.155707	0.539263
C116	C	1.310927	0.655707	1.039263
C117	C	0.820232	0.092424	0.578680
C118	C	1.320232	0.592424	1.078680
C119	C	0.829540	0.029133	0.539290
C120	C	1.329540	0.529133	1.039290
C121	C	0.829533	0.029130	0.460489
C122	C	1.329533	0.529130	0.960489
C123	C	0.820216	0.092423	0.421080
C124	C	1.320216	0.592423	0.921080
C125	C	0.867622	0.045067	0.703514
C126	C	1.367622	0.545067	1.203514
C127	C	0.867621	0.045063	0.782317
C128	C	1.367621	0.545063	1.282317
C129	C	0.772857	0.139780	0.782330
C130	C	1.272857	0.639780	1.282330
C131	C	0.772855	0.139778	0.703528
C132	C	1.272855	0.639778	1.203528
C133	C	0.820241	0.092422	0.664125
C134	C	1.320241	0.592422	1.164125
N135	N	0.820246	0.092421	0.821723
N136	N	1.320246	0.592421	1.321723
H137	H	0.477903	0.094739	0.123700
H138	H	0.977903	0.594739	0.623700
O139	O	0.690814	-0.241795	-0.000093
O140	O	1.190814	0.258205	0.499907
H141	H	0.660672	-0.223820	-0.051117
H142	H	1.160672	0.276180	0.448883
H143	H	0.031113	0.088165	-0.123965
H144	H	0.531113	0.588165	0.376035
O145	O	0.686467	-0.538101	-0.000121
O146	O	1.186467	-0.038101	0.499879
H147	H	0.697929	-0.483066	-0.000125
H148	H	1.197929	0.016934	0.499875
H149	H	0.937386	-0.265246	-0.000121
H150	H	1.437386	0.234754	0.499879
H151	H	0.803352	0.207242	0.571329
H152	H	1.303352	0.707242	1.071329
H153	H	0.477996	0.094740	-0.123920
H154	H	0.977996	0.594740	0.376080
H155	H	0.837110	-0.022403	0.428420
H156	H	1.337110	0.477597	0.928420
O157	O	0.693017	-0.091211	-0.000094
O158	O	1.193017	0.408789	0.499906
H159	H	0.704480	-0.036176	-0.000094
H160	H	1.204480	0.463824	0.499906
O161	O	0.721701	0.190840	0.174957
O162	O	1.221701	0.690840	0.674957
H163	H	0.688032	0.161685	0.139084
H164	H	1.188032	0.661685	0.639084
O165	O	0.721737	0.190858	0.338744
O166	O	1.221737	0.690858	0.838744
H167	H	0.688786	0.223785	0.298113
H168	H	1.188786	0.723785	0.798113
O169	O	0.922141	-0.345780	-0.091303
O170	O	1.422141	0.154220	0.408697
H171	H	0.955368	-0.317173	-0.054319
H172	H	1.455368	0.182827	0.445681
H173	H	0.907256	-0.485073	-0.079715
H174	H	1.407256	0.014927	0.420285
O175	O	0.956186	-0.126487	-0.000104
O176	O	1.456186	0.373513	0.499896
H177	H	0.946383	-0.068601	-0.000094
H178	H	1.446383	0.431399	0.499906
H179	H	0.837116	-0.022399	0.571382
H180	H	1.337116	0.477601	1.071382
H181	H	0.803325	0.207240	0.428377
H182	H	1.303325	0.707240	0.928377
O183	O	0.721782	0.190881	0.824831
O184	O	1.221782	0.690881	1.324831
H185	H	0.688838	0.223813	0.784199
H186	H	1.188838	0.723813	1.284199
O187	O	0.021387	0.088111	0.141670
O188	O	0.521387	0.588111	0.641670
H189	H	-0.005320	0.040325	0.144987
H190	H	0.494680	0.540325	0.644987
H191	H	0.731258	-0.461518	0.079463
H192	H	1.231258	0.038482	0.579463
O193	O	0.949631	-0.573366	-0.000152
O194	O	1.449631	-0.073366	0.499848
H195	H	0.993102	-0.616625	-0.000171
H196	H	1.493102	-0.116625	0.499829
O197	O	0.947421	-0.723956	-0.000156
O198	O	1.447421	-0.223956	0.499844
H199	H	0.991987	-0.692497	-0.000143
H200	H	1.491987	-0.192497	0.499857
O201	O	0.720515	-0.318798	0.091078
O202	O	1.220515	0.181202	0.591078
H203	H	0.686247	-0.351645	0.121588
H204	H	1.186247	0.148355	0.621588
H205	H	0.162450	0.090088	0.123672
H206	H	0.662450	0.590088	0.623672
O207	O	0.256236	0.006727	0.108549
O208	O	0.756236	0.506727	0.608549
H209	H	0.297376	-0.021006	0.144917
H210	H	0.797376	0.478994	0.644917
O211	O	0.618902	0.096828	0.141760
O212	O	1.118902	0.596828	0.641760
H213	H	0.658258	0.049986	0.145040
H214	H	1.158258	0.549986	0.645040
H215	H	0.906205	0.006505	0.671431
H216	H	1.406205	0.506505	1.171431
H217	H	0.906205	0.006502	0.814387
H218	H	1.406205	0.506502	1.314387
O219	O	0.918682	-0.006024	0.174920
O220	O	1.418682	0.493976	0.674920
H221	H	0.951627	-0.038955	0.215553
H222	H	1.451627	0.461045	0.715553
O223	O	0.684254	-0.688673	-0.000132
O224	O	1.184254	-0.188673	0.499868
H225	H	0.694059	-0.746560	-0.000130
H226	H	1.194059	-0.246560	0.499870
O227	O	0.918704	-0.006008	0.338721
O228	O	1.418704	0.493992	0.838721
H229	H	0.951656	-0.038933	0.298082
H230	H	1.451656	0.461067	0.798082
H231	H	0.376074	0.167202	-0.094980
H232	H	0.876074	0.667202	0.405020
H233	H	0.395804	0.019552	0.094744
H234	H	0.895804	0.519552	0.594744
O235	O	0.721756	0.190856	0.661037
O236	O	1.221756	0.690856	1.161037
H237	H	0.688818	0.223792	0.701678
H238	H	1.188818	0.723792	1.201678
H239	H	0.609422	0.096669	-0.123907
H240	H	1.109422	0.596669	0.376093
H241	H	0.162539	0.090093	-0.123954
H242	H	0.662539	0.590093	0.376046
O243	O	0.233638	0.175890	-0.108810
O244	O	0.733638	0.675890	0.391190
H245	H	0.178090	0.168232	-0.100026
H246	H	0.678090	0.668232	0.399974
