data_functionalizedCrystal
_audit_creation_method	'MofGen! by Chris Wilmer'
_symmetry_space_group_name_H-M	'P1'
_symmetry_Int_Tables_number	1
_symmetry_cell_setting	triclinic
loop_
_symmetry_equiv_pos_as_xyz
  x,y,z
_cell_length_a	16.625548
_cell_length_b	16.625546
_cell_length_c	16.625539
_cell_angle_alpha	90.028532
_cell_angle_beta	90.018832
_cell_angle_gamma	90.022327
loop_
_atom_site_label
_atom_site_type_symbol
_atom_site_fract_x
_atom_site_fract_y
_atom_site_fract_z
Zn1	Zn	-1.232653	0.321018	-0.455936
Zn2	Zn	-0.732653	0.821018	0.044064
Zn3	Zn	-1.232564	0.455857	-0.321098
Zn4	Zn	-0.732564	0.955857	0.178902
Zn5	Zn	-1.097823	0.321042	-0.321112
Zn6	Zn	-0.597823	0.821042	0.178888
Zn7	Zn	-1.097785	0.455812	-0.455884
Zn8	Zn	-0.597785	0.955812	0.044116
O9	O	-1.165206	0.388432	-0.388507
O10	O	-0.665206	0.888432	0.111493
O11	O	-1.345473	0.338914	-0.438065
O12	O	-0.845473	0.838914	0.061935
O13	O	-1.214669	0.438002	-0.208268
O14	O	-0.714669	0.938002	0.291732
O15	O	-1.115761	0.208206	-0.339024
O16	O	-0.615761	0.708206	0.160976
O17	O	-1.345408	0.437979	-0.339001
O18	O	-0.845408	0.937979	0.160999
O19	O	-1.214820	0.208189	-0.438079
O20	O	-0.714820	0.708189	0.061921
O21	O	-1.115675	0.338954	-0.208278
O22	O	-0.615675	0.838954	0.291722
O23	O	-0.984985	0.338910	-0.338974
O24	O	-0.484985	0.838910	0.161026
O25	O	-1.115696	0.437903	-0.568723
O26	O	-0.615696	0.937903	-0.068723
O27	O	-0.984957	0.437926	-0.437990
O28	O	-0.484957	0.937926	0.062010
O29	O	-1.214783	0.338870	-0.568761
O30	O	-0.714783	0.838870	-0.068761
O31	O	-1.214632	0.568683	-0.338950
O32	O	-0.714632	1.068683	0.161050
O33	O	-1.115611	0.568650	-0.437977
O34	O	-0.615611	1.068650	0.062023
C35	C	-0.955715	0.388416	-0.388478
C36	C	-0.455715	0.888416	0.111522
C37	C	-0.866094	0.388429	-0.388485
C38	C	-0.366094	0.888429	0.111515
C39	C	-1.165245	0.388379	-0.598816
C40	C	-0.665245	0.888379	-0.098816
C41	C	-1.165262	0.388356	-0.688438
C42	C	-0.665262	0.888356	-0.188438
C43	C	-1.165130	0.597923	-0.388474
C44	C	-0.665130	1.097923	0.111526
C45	C	-1.165171	0.687544	-0.388486
C46	C	-0.665171	1.187544	0.111514
C47	C	-0.537918	0.388427	-0.388509
C48	C	-0.037918	0.888427	0.111491
C49	C	-0.629227	0.388425	-0.388500
C50	C	-0.129227	0.888425	0.111500
C51	C	-0.702003	0.388428	-0.388497
C52	C	-0.202003	0.888428	0.111503
C53	C	-0.793318	0.388426	-0.388489
C54	C	-0.293318	0.888426	0.111511
C55	C	-0.375515	0.388443	-0.388529
C56	C	0.124485	0.888443	0.111471
C57	C	-0.465136	0.388435	-0.388519
C58	C	0.034864	0.888435	0.111481
C59	C	-1.165305	0.178123	-0.388559
C60	C	-0.665305	0.678123	0.111441
C61	C	-1.165347	0.088502	-0.388581
C62	C	-0.665347	0.588502	0.111419
C63	C	-1.165311	1.015720	-0.388570
C64	C	-0.665311	1.515720	0.111430
C65	C	-1.165270	0.924411	-0.388549
C66	C	-0.665270	1.424411	0.111451
C67	C	-1.165240	0.851635	-0.388528
C68	C	-0.665240	1.351635	0.111472
C69	C	-1.165200	0.760321	-0.388508
C70	C	-0.665200	1.260321	0.111492
C71	C	-1.165275	0.388338	-0.761220
C72	C	-0.665275	0.888338	-0.261220
C73	C	-1.165294	0.388308	-0.852529
C74	C	-0.665294	0.888308	-0.352529
C75	C	-1.165313	0.388280	-0.925305
C76	C	-0.665313	0.888280	-0.425305
C77	C	-1.165333	0.388251	-1.016620
C78	C	-0.665333	0.888251	-0.516620
C79	C	-1.165213	0.388427	-0.179017
C80	C	-0.665213	0.888427	0.320983
C81	C	-1.165352	0.388222	-0.089396
C82	C	-0.665352	0.888222	0.410604
