data_functionalizedCrystal
_audit_creation_method	'MofGen! by Chris Wilmer'
_symmetry_space_group_name_H-M	'P1'
_symmetry_Int_Tables_number	1
_symmetry_cell_setting	triclinic
loop_
_symmetry_equiv_pos_as_xyz
  x,y,z
_cell_length_a	6.817900
_cell_length_b	16.418049
_cell_length_c	12.000082
_cell_angle_alpha	91.596242
_cell_angle_beta	119.141654
_cell_angle_gamma	103.389670
loop_
_atom_site_label
_atom_site_type_symbol
_atom_site_fract_x
_atom_site_fract_y
_atom_site_fract_z
V1	V	-4.222706	-0.119069	-0.399028
O2	O	-4.206733	0.002450	-0.390969
O3	O	-4.172650	-0.232947	-0.396744
O4	O	-4.259871	-0.118673	-0.572855
O5	O	-4.118908	-0.112615	-0.213640
V6	V	-4.695462	-0.104364	-0.376800
O7	O	-4.507584	-0.151325	-0.447787
O8	O	-4.860781	-0.072108	-0.328041
O9	O	-4.522312	0.009514	-0.379084
O10	O	-4.828832	-0.225883	-0.384859
O11	O	-4.916657	-0.110818	-0.562188
O12	O	-4.435091	-0.104760	-0.202973
C13	C	-4.014479	-0.260663	-0.390565
C14	C	-4.055409	-0.353769	-0.389856
C15	C	-4.334798	-0.572297	-0.394645
C16	C	-4.373250	-0.659781	-0.393991
C17	C	-4.002732	-0.651135	-0.381191
C18	C	-3.964291	-0.563654	-0.381855
C19	C	-4.130326	-0.524236	-0.388576
C20	C	-4.207219	-0.699202	-0.387257
C21	C	-4.248909	-0.794056	-0.386548
C22	C	-4.088636	-0.429377	-0.389288
C23	C	-4.125736	-0.114894	-0.615209
C24	C	-4.237395	-0.115324	-0.757316
C25	C	-4.226462	-0.111938	-0.961346
C26	C	-4.111053	-0.111493	-0.814470
C27	C	-4.343823	0.037226	-0.385260
C28	C	-4.282136	0.130331	-0.385977
C29	C	-4.232564	-0.108542	-0.160612
C30	C	-4.100144	-0.108108	-0.018504
H31	H	-3.797782	-0.524521	-0.376917
H32	H	-3.906561	-0.104504	-0.958704
C33	C	-4.487977	-0.116810	-1.042119
H34	H	-4.531234	-0.116464	-1.130238
H35	H	-4.578392	-0.167647	-1.034850
H36	H	-4.515635	-0.069311	-1.011107
H37	H	-3.917461	-0.107889	-0.754675
C38	C	-4.598171	-0.712649	-0.400675
H39	H	-4.597309	-0.770398	-0.399335
H40	H	-4.605416	-0.691845	-0.328494
H41	H	-4.730571	-0.708332	-0.478347
H42	H	-3.867556	-0.683239	-0.375717
C43	C	-4.498920	-0.120198	-0.838083
H44	H	-4.542182	-0.119852	-0.926203
H45	H	-4.589330	-0.171035	-0.830812
H46	H	-4.526579	-0.072699	-0.807070
H47	H	-4.469995	-0.540206	-0.400115
