data_functionalizedCrystal
_audit_creation_method	'MofGen! by Chris Wilmer'
_symmetry_space_group_name_H-M	'P1'
_symmetry_Int_Tables_number	1
_symmetry_cell_setting	triclinic
loop_
_symmetry_equiv_pos_as_xyz
  x,y,z
_cell_length_a	13.032891
_cell_length_b	14.908579
_cell_length_c	13.032268
_cell_angle_alpha	80.011775
_cell_angle_beta	90.886842
_cell_angle_gamma	93.474614
loop_
_atom_site_label
_atom_site_type_symbol
_atom_site_fract_x
_atom_site_fract_y
_atom_site_fract_z
Zn1	Zn	1.453312	0.608110	-0.815741
Zn2	Zn	1.465092	0.742273	-0.651461
Zn3	Zn	1.305965	0.570495	-0.619822
Zn4	Zn	1.271702	0.737407	-0.801307
O5	O	1.374018	0.664571	-0.722083
O6	O	1.597474	0.643686	-0.813230
O7	O	1.463252	0.705781	-0.502561
O8	O	1.334920	0.449484	-0.638611
O9	O	1.606128	0.742255	-0.692535
O10	O	1.443176	0.477120	-0.782551
O11	O	1.346342	0.579576	-0.479316
O12	O	1.158820	0.574857	-0.624615
O13	O	1.276524	0.733961	-0.947925
O14	O	1.133648	0.697487	-0.757951
O15	O	1.409953	0.638967	-0.958529
O16	O	1.430029	0.867629	-0.678539
O17	O	1.287946	0.864053	-0.788630
C18	C	1.109259	0.631563	-0.686284
C19	C	0.995990	0.617466	-0.670995
C20	C	0.815998	0.657365	-0.714270
C21	C	0.933068	0.671939	-0.730070
C22	C	1.356572	0.898517	-0.735478
C23	C	1.349198	0.998615	-0.741256
C24	C	1.483411	1.190398	-0.637600
C25	C	1.476485	1.284449	-0.643025
C26	C	1.328428	1.280771	-0.757538
C27	C	1.335353	1.186720	-0.752113
C28	C	1.412846	1.141537	-0.692140
C29	C	1.419766	1.047483	-0.686709
C30	C	1.271713	1.043807	-0.801227
C31	C	1.264788	1.137858	-0.806653
C32	C	1.639810	0.697709	-0.758022
C33	C	1.753074	0.711831	-0.773337
C34	C	1.338103	0.690117	-0.991796
C35	C	1.322798	0.701003	-1.106732
C36	C	1.391547	1.429718	-0.708674
C37	C	1.398996	1.329639	-0.702992
C38	C	1.381992	0.658855	-1.163221
C39	C	1.366175	0.670106	-1.282013
C40	C	1.409856	0.639067	-0.453423
C41	C	1.425378	0.627952	-0.338500
H42	H	0.785873	0.769247	-0.835607
H43	H	0.783198	0.599942	-0.652008
C44	C	1.508419	0.568623	-1.285590
C45	C	1.463214	0.497899	-1.212474
C46	C	1.539674	0.443228	-1.163708
H47	H	1.543539	0.543546	-1.336324
H48	H	1.555823	0.604591	-1.251354
H49	H	1.415828	0.461937	-1.246709
H50	H	1.428100	0.522950	-1.161720
H51	H	1.587078	0.479196	-1.129472
H52	H	1.574789	0.418158	-1.214449
H53	H	1.509015	0.395241	-1.114087
C54	C	1.180615	1.186762	-0.871861
C55	C	1.120314	1.123840	-0.918483
C56	C	1.042770	1.168856	-0.978571
H57	H	1.138712	1.214225	-0.828491
H58	H	1.210827	1.232511	-0.924385
H59	H	1.090103	1.078108	-0.865967
H60	H	1.162187	1.096374	-0.961871
H61	H	1.072981	1.214605	-1.031094
H62	H	1.000875	1.196318	-0.935193
H63	H	1.001852	1.126173	-1.010219
C64	C	0.976918	0.748385	-0.813174
C65	C	1.033023	0.711332	-0.884808
C66	C	1.073444	0.781724	-0.961367
H67	H	0.922362	0.780711	-0.848298
H68	H	1.020855	0.788938	-0.781386
H69	H	0.989089	0.670795	-0.916593
H70	H	1.087594	0.679012	-0.849715
H71	H	1.117381	0.822277	-0.929580
H72	H	1.018882	0.814046	-0.996484
H73	H	1.111524	0.756594	-1.009975
H74	H	1.546502	1.153608	-0.588759
H75	H	1.214252	1.004013	-0.845634
H76	H	1.444376	0.614439	-1.123637
H77	H	1.482862	1.010695	-0.637873
C78	C	1.283073	0.729333	-1.334977
C79	C	1.283931	0.728744	-1.442277
C80	C	1.207405	0.783304	-1.491103
H81	H	1.217858	0.706029	-1.307441
H82	H	1.295809	0.790056	-1.322863
H83	H	1.271188	0.668033	-1.454384
H84	H	1.349128	0.752056	-1.469842
H85	H	1.220141	0.844028	-1.478989
H86	H	1.142196	0.759995	-1.463559
H87	H	1.207984	0.782919	-1.563912
C88	C	1.553162	1.337331	-0.583689
C89	C	1.622490	1.277623	-0.529990
C90	C	1.693135	1.326303	-0.475306
H91	H	1.589664	1.383257	-0.631294
H92	H	1.517551	1.364919	-0.535399
H93	H	1.658099	1.250050	-0.578275
H94	H	1.586019	1.231697	-0.482368
H95	H	1.657523	1.353891	-0.427016
H96	H	1.729628	1.372227	-0.522918
H97	H	1.740176	1.285798	-0.438857
H98	H	0.963196	0.560038	-0.608729
C99	C	1.244342	1.329993	-0.822550
C100	C	1.253373	1.422813	-0.815607
C101	C	1.175921	1.468183	-0.875469
H102	H	1.250997	1.323084	-0.893198
H103	H	1.179014	1.304722	-0.797202
H104	H	1.318684	1.448077	-0.840959
H105	H	1.246706	1.429750	-0.744973
H106	H	1.110594	1.442912	-0.850121
H107	H	1.182583	1.461266	-0.946113
H108	H	1.182033	1.531164	-0.870758
H109	H	1.260404	0.745409	-1.146314
