data_functionalizedCrystal
_audit_creation_method	'MofGen! by Chris Wilmer'
_symmetry_space_group_name_H-M	'P1'
_symmetry_Int_Tables_number	1
_symmetry_cell_setting	triclinic
loop_
_symmetry_equiv_pos_as_xyz
  x,y,z
_cell_length_a	29.019771
_cell_length_b	29.019011
_cell_length_c	29.015668
_cell_angle_alpha	60.004890
_cell_angle_beta	60.009825
_cell_angle_gamma	59.993818
loop_
_atom_site_label
_atom_site_type_symbol
_atom_site_fract_x
_atom_site_fract_y
_atom_site_fract_z
O1	O	0.063866	-0.673289	0.563007
O2	O	0.024059	-0.524205	0.453633
O3	O	0.118464	-0.618532	0.453552
O4	O	-0.030540	-0.578962	0.563088
O5	O	0.149785	-0.587215	0.484789
O6	O	0.055379	-0.492888	0.484869
O7	O	0.095186	-0.641972	0.594244
Cu8	Cu	0.078143	-0.564571	0.542409
Cu9	Cu	0.041102	-0.601606	0.505468
O10	O	0.000781	-0.547645	0.594325
N11	N	0.104196	-0.538525	0.568394
N12	N	0.015054	-0.627656	0.479483
C13	C	0.143783	-0.499167	0.850823
C14	C	0.386758	-0.499111	0.607645
C15	C	0.143618	-0.499136	0.607763
C16	C	0.143598	-0.256029	0.607770
C17	C	0.182748	-0.373362	0.646852
C18	C	0.182758	-0.460025	0.646847
C19	C	0.204440	-0.438361	0.668500
C20	C	0.298958	-0.422064	0.618723
C21	C	0.358043	-0.441753	0.599006
C22	C	0.358069	-0.537354	0.635461
C23	C	0.298985	-0.517664	0.655180
C24	C	0.196983	-0.343808	0.588767
C25	C	0.177262	-0.284720	0.569090
C26	C	0.129075	-0.284743	0.665586
C27	C	0.148797	-0.343831	0.685263
C28	C	0.124666	-0.445760	0.661149
C29	C	0.104961	-0.465454	0.641458
C30	C	0.201435	-0.513678	0.593176
C31	C	0.221143	-0.493984	0.612860
C32	C	0.124738	-0.445777	0.763064
C33	C	0.105085	-0.465488	0.822151
C34	C	0.201594	-0.513722	0.822097
C35	C	0.221247	-0.494012	0.763009
C36	C	0.182817	-0.460038	0.733494
C37	C	0.269432	-0.460018	0.646809
C38	C	0.121399	-0.520450	0.915812
C39	C	0.451745	-0.520012	0.585655
C40	C	0.121177	-0.520429	0.586502
C41	C	0.121544	-0.191035	0.586883
C42	C	-0.110592	-0.666601	0.440035
C43	C	-0.023978	-0.666709	0.440231
C44	C	-0.045598	-0.688342	0.418486
C45	C	-0.061967	-0.782825	0.468184
C46	C	-0.042323	-0.841914	0.487907
C47	C	0.053280	-0.842025	0.451623
C48	C	0.033634	-0.782937	0.431899
C49	C	-0.140218	-0.680832	0.498102
C50	C	-0.199302	-0.661065	0.517690
C51	C	-0.199129	-0.612843	0.421140
C52	C	-0.140045	-0.632610	0.401552
C53	C	-0.038209	-0.608622	0.425941
C54	C	-0.018555	-0.588961	0.445716
C55	C	0.029562	-0.685470	0.494059
C56	C	0.009908	-0.705133	0.474291
C57	C	-0.038037	-0.608631	0.323917
C58	C	-0.018247	-0.588973	0.264830
C59	C	0.029955	-0.685489	0.264893
C60	C	0.010165	-0.705145	0.323981
C61	C	-0.023833	-0.666715	0.353492
C62	C	-0.023990	-0.753339	0.440182
N63	N	0.504925	-0.538487	0.568205
O64	O	0.685342	-0.543679	0.433426
O65	O	0.685533	-0.653395	0.582361
O66	O	0.685457	-0.653145	0.487904
O67	O	0.685418	-0.543929	0.527882
O68	O	0.591592	-0.621921	0.519268
O69	O	0.591667	-0.622171	0.613725
O70	O	0.591477	-0.512455	0.464790
Cu71	Cu	0.583001	-0.564462	0.542121
Cu72	Cu	0.694008	-0.601388	0.505029
O73	O	0.591553	-0.512705	0.559246
N74	N	0.772084	-0.627363	0.478939
N75	N	0.104168	-0.137853	0.568408
O76	O	-0.030538	0.042663	0.563097
O77	O	0.118403	0.042683	0.453379
O78	O	0.023918	0.042657	0.453664
O79	O	0.063947	0.042689	0.562813
O80	O	0.055242	-0.051215	0.484950
O81	O	0.149727	-0.051189	0.484666
O82	O	0.000787	-0.051210	0.594384
Cu83	Cu	0.078117	-0.059771	0.542381
Cu84	Cu	0.041072	0.051244	0.505382
O85	O	0.095272	-0.051184	0.594099
N86	N	0.015015	0.129326	0.479356
N87	N	0.104469	-0.538576	0.968995
O88	O	0.099171	-0.673268	1.149499
O89	O	-0.010519	-0.524279	1.149527
O90	O	-0.010265	-0.618748	1.149494
O91	O	0.098916	-0.578799	1.149533
O92	O	0.021008	-0.587443	1.055625
O93	O	0.020753	-0.492974	1.055659
O94	O	0.130444	-0.641963	1.055630
Cu95	Cu	0.078454	-0.564610	1.047074
Cu96	Cu	0.041470	-0.601632	1.158084
O97	O	0.130189	-0.547494	1.055664
N98	N	0.015455	-0.627672	1.236163
C99	C	0.035988	-0.489761	0.454182
C100	C	0.152897	-0.606574	0.454082
C101	C	0.083257	-0.676417	0.593694
C102	C	-0.033653	-0.559604	0.593794
C103	C	0.638623	-0.652892	0.616806
C104	C	0.638531	-0.652583	0.499833
C105	C	0.638384	-0.512957	0.430345
C106	C	0.638480	-0.513267	0.547317
C107	C	0.152789	-0.004135	0.453875
C108	C	0.035820	-0.004282	0.454266
C109	C	-0.033639	-0.004275	0.593849
C110	C	0.083370	-0.004245	0.593498
C111	C	-0.009989	-0.489856	1.102597
C112	C	-0.009667	-0.606839	1.102536
C113	C	0.129914	-0.676386	1.102561
C114	C	0.129599	-0.559396	1.102601
H115	H	0.093440	-0.418108	0.739036
O116	O	-0.032443	-0.532539	0.431926
C117	C	-0.077900	-0.454268	0.465826
C118	C	-0.062220	-0.518170	0.481525
H119	H	-0.101967	-0.442632	0.505917
H120	H	-0.105523	-0.430159	0.438112
H121	H	-0.037777	-0.442709	0.441822
H122	H	-0.102312	-0.529780	0.505549
H123	H	-0.034575	-0.542243	0.509213
H124	H	0.195476	-0.003868	0.419344
O125	O	0.025888	-0.438719	0.413128
C126	C	0.020644	-0.388189	0.319119
C127	C	0.032108	-0.446029	0.365559
H128	H	0.025657	-0.394078	0.280652
H129	H	0.051928	-0.367838	0.306718
H130	H	-0.024186	-0.359822	0.335625
H131	H	0.076922	-0.474439	0.349092
H132	H	0.000789	-0.466335	0.377952
H133	H	0.163899	-0.550848	1.102605
O134	O	0.203911	-0.616546	0.412973
C135	C	0.261824	-0.579375	0.317832
C136	C	0.204022	-0.568011	0.364333
H137	H	0.261936	-0.540139	0.278499
H138	H	0.270072	-0.616276	0.307189
H139	H	0.296272	-0.590116	0.333401
H140	H	0.169537	-0.557246	0.348802
H141	H	0.195822	-0.531126	0.374969
O142	O	0.093304	-0.727509	0.634697
C143	C	0.066081	-0.810501	0.696324
C144	C	0.054633	-0.752644	0.649900
H145	H	0.034830	-0.830844	0.708622
H146	H	0.060993	-0.804660	0.734852
H147	H	0.110928	-0.838849	0.679836
H148	H	0.009788	-0.724265	0.666336
H149	H	0.059758	-0.758528	0.611381
H150	H	0.057789	-0.453866	0.846219
H151	H	0.027247	-0.004286	0.419974
O152	O	0.638540	-0.472404	0.557561
C153	C	0.687198	-0.445428	0.582337
C154	C	0.687192	-0.491757	0.570763
H155	H	0.726534	-0.461053	0.593002
H156	H	0.647964	-0.434919	0.619329
H157	H	0.687114	-0.405993	0.543204
H158	H	0.687296	-0.531221	0.609863
H159	H	0.726422	-0.502218	0.533749
O160	O	-0.084709	-0.004247	0.634871
C161	C	-0.177683	-0.004279	0.661140
C162	C	-0.119875	-0.004305	0.614632
H163	H	-0.206126	-0.004339	0.644799
H164	H	-0.197982	0.035023	0.673432
H165	H	-0.171722	-0.043548	0.699641
H166	H	-0.125787	0.034937	0.576101
H167	H	-0.099596	-0.043633	0.602388
O168	O	-0.084730	-0.549445	0.634779
C169	C	-0.177684	-0.482582	0.660868
C170	C	-0.119862	-0.494008	0.614407
H171	H	-0.206108	-0.437767	0.644411
H172	H	-0.171801	-0.487633	0.699356
H173	H	-0.197962	-0.513910	0.673222
H174	H	-0.099552	-0.462690	0.602005
H175	H	-0.125781	-0.488977	0.575950
O176	O	0.638710	-0.693933	0.667858
C177	C	0.638757	-0.720162	0.760832
C178	C	0.638672	-0.673639	0.703038
H179	H	0.638715	-0.703768	0.789295
H180	H	0.678070	-0.758642	0.754908
H181	H	0.599505	-0.732508	0.781092
H182	H	0.677898	-0.661244	0.682746
H183	H	0.599333	-0.635190	0.708999
H184	H	0.164353	-0.719173	1.102545
O185	O	0.638522	-0.693446	0.489546
C186	C	0.638517	-0.719277	0.422488
C187	C	0.638514	-0.672946	0.434066
H188	H	0.638523	-0.702725	0.377629
H189	H	0.599256	-0.731641	0.453719
H190	H	0.677821	-0.757785	0.427534
H191	H	0.599238	-0.634408	0.429012
H192	H	0.677802	-0.660630	0.402836
O193	O	-0.050643	-0.616928	1.102500
C194	C	-0.145704	-0.579953	1.102386
C195	C	-0.099354	-0.568456	1.102440
H196	H	-0.185094	-0.540768	1.102325
H197	H	-0.156303	-0.616879	1.141658
H198	H	-0.130009	-0.590717	1.063091
H199	H	-0.115010	-0.557669	1.141708
H200	H	-0.088762	-0.531546	1.063142
O201	O	0.638336	-0.471929	0.379280
C202	C	0.638199	-0.445670	0.286337
C203	C	0.638268	-0.492188	0.344136
H204	H	0.638132	-0.462028	0.257910
H205	H	0.677467	-0.433329	0.266003
H206	H	0.598902	-0.407195	0.292323
H207	H	0.677539	-0.530693	0.338198
H208	H	0.598974	-0.504481	0.364450
O209	O	0.093650	-0.004344	0.634429
C210	C	0.150987	-0.052957	0.693728
C211	C	0.139398	-0.052919	0.647379
H212	H	0.187981	-0.092220	0.704204
H213	H	0.111880	-0.053001	0.733183
H214	H	0.161702	-0.013651	0.678078
H215	H	0.128697	-0.092219	0.662975
H216	H	0.178514	-0.052846	0.607934
O217	O	0.239002	-0.546728	0.850676
C218	C	0.336803	-0.592446	0.844379
C219	C	0.294499	-0.555073	0.811943
H220	H	0.381682	-0.599194	0.813077
H221	H	0.330067	-0.634979	0.872023
H222	H	0.329975	-0.570798	0.872056
H223	H	0.301302	-0.576671	0.784235
H224	H	0.301246	-0.512542	0.784334
O225	O	0.087303	-0.412757	0.694134
C226	C	-0.010469	-0.367029	0.739973
C227	C	0.031784	-0.404398	0.702600
H228	H	-0.055365	-0.360269	0.746839
H229	H	-0.003720	-0.324501	0.718336
H230	H	-0.003596	-0.388688	0.782450
H231	H	0.024937	-0.382789	0.660117
H232	H	0.025024	-0.446923	0.724281
H233	H	-0.073247	-0.865920	0.510699
O234	O	0.048549	-0.451633	0.655274
C235	C	-0.024564	-0.460631	0.646367
C236	C	0.039335	-0.476316	0.630668
H237	H	-0.032034	-0.480590	0.626490
H238	H	-0.044525	-0.412789	0.630058
H239	H	-0.044441	-0.476933	0.694214
H240	H	0.059261	-0.460052	0.582827
H241	H	0.059255	-0.524160	0.647017
O242	O	0.238753	-0.546579	0.560082
C243	C	0.315186	-0.554102	0.473111
C244	C	0.272939	-0.516781	0.510533
H245	H	0.342844	-0.530030	0.433047
H246	H	0.291166	-0.565723	0.461437
H247	H	0.342850	-0.594204	0.497169
H248	H	0.245264	-0.476655	0.486509
H249	H	0.296993	-0.505206	0.522209
O250	O	0.270390	-0.554607	0.682428
C251	C	0.276653	-0.651513	0.716532
C252	C	0.309107	-0.609735	0.685652
H253	H	0.307942	-0.696095	0.719159
H254	H	0.248984	-0.639695	0.692390
H255	H	0.249000	-0.649680	0.760948
H256	H	0.336791	-0.611547	0.641236
H257	H	0.336740	-0.621567	0.709837
O258	O	0.386868	-0.593331	0.643521
C259	C	0.477904	-0.666037	0.629331
C260	C	0.445360	-0.602629	0.620152
H261	H	0.525200	-0.673576	0.610453
H262	H	0.466315	-0.680731	0.607891
H263	H	0.466282	-0.690753	0.676485
H264	H	0.456964	-0.577868	0.573010
H265	H	0.456952	-0.587980	0.641629
O266	O	0.386639	-0.404805	0.571712
C267	C	0.380380	-0.307908	0.537659
C268	C	0.347923	-0.349689	0.568567
H269	H	0.349093	-0.263339	0.535117
H270	H	0.408004	-0.309668	0.493214
H271	H	0.408078	-0.319798	0.561800
H272	H	0.320195	-0.337827	0.544473
H273	H	0.320335	-0.347921	0.613014
O274	O	0.270191	-0.366090	0.610691
C275	C	0.203526	-0.294594	0.654237
C276	C	0.236061	-0.358002	0.663414
H277	H	0.175933	-0.288034	0.696856
H278	H	0.175803	-0.277939	0.628304
H279	H	0.234793	-0.270860	0.630751
H280	H	0.204834	-0.381782	0.686915
H281	H	0.263792	-0.374614	0.689323
H282	H	0.268542	-0.505632	0.738936
H283	H	-0.044426	-0.447066	1.102605
H284	H	0.268446	-0.505593	0.601208
H285	H	0.224626	-0.367851	0.557490
H286	H	0.188851	-0.260656	0.521790
H287	H	0.137197	-0.367895	0.732563
O288	O	0.096085	-0.256140	0.702972
C289	C	0.050416	-0.262396	0.800761
C290	C	0.087770	-0.294857	0.758483
H291	H	0.043692	-0.293684	0.845650
H292	H	0.007875	-0.234756	0.794025
H293	H	0.072062	-0.234709	0.793902
H294	H	0.066174	-0.322574	0.765317
H295	H	0.130309	-0.322461	0.765230
H296	H	-0.029822	-0.541673	0.240758
H297	H	0.021738	-0.752445	0.348058
O298	O	-0.071028	-0.571221	0.352496
C299	C	-0.116757	-0.473416	0.346196
C300	C	-0.079390	-0.515717	0.313761
H301	H	-0.123540	-0.428532	0.314894
H302	H	-0.095163	-0.480209	0.373907
H303	H	-0.159270	-0.480196	0.373807
H304	H	-0.036871	-0.508962	0.286119
H305	H	-0.101028	-0.508913	0.286086
H306	H	-0.065797	-0.577331	0.398207
O307	O	0.062985	-0.722897	0.236319
C308	C	0.108665	-0.820704	0.242626
C309	C	0.071263	-0.778399	0.275056
H310	H	0.115360	-0.865587	0.273931
H311	H	0.151215	-0.814001	0.215053
H312	H	0.087073	-0.813839	0.214877
H313	H	0.092805	-0.785239	0.302835
H314	H	0.028715	-0.785113	0.302593
H315	H	0.057158	-0.716762	0.521784
H316	H	0.021495	-0.752433	0.485928
H317	H	0.100203	-0.866125	0.444882
O318	O	0.070600	-0.754381	0.404731
C319	C	0.167504	-0.760730	0.370795
C320	C	0.125700	-0.793139	0.401585
H321	H	0.212062	-0.792052	0.368232
H322	H	0.155658	-0.733076	0.394963
H323	H	0.165740	-0.733062	0.326356
H324	H	0.127442	-0.820837	0.446025
H325	H	0.137559	-0.820758	0.377374
H326	H	-0.116238	-0.708516	0.529438
O327	O	-0.117931	-0.754094	0.476138
C328	C	-0.199354	-0.735947	0.458630
C329	C	-0.135972	-0.768516	0.449580
H330	H	-0.213962	-0.747604	0.437173
H331	H	-0.206892	-0.688644	0.439693
H332	H	-0.224143	-0.747509	0.505766
H333	H	-0.111142	-0.757000	0.402455
H334	H	-0.128478	-0.815810	0.468554
O335	O	-0.227997	-0.674964	0.574119
C336	C	-0.221937	-0.724863	0.667819
C337	C	-0.189370	-0.709171	0.603931
H338	H	-0.190721	-0.752511	0.691941
H339	H	-0.249589	-0.748910	0.679410
H340	H	-0.249616	-0.684743	0.679404
H341	H	-0.161660	-0.749261	0.592301
H342	H	-0.161754	-0.685101	0.592375
H343	H	-0.115923	-0.621016	0.354266
O344	O	-0.227657	-0.579815	0.383683
C345	C	-0.221253	-0.534117	0.285850
C346	C	-0.188877	-0.571515	0.328207
H347	H	-0.189914	-0.527405	0.240989
H348	H	-0.248885	-0.491571	0.292575
H349	H	-0.248935	-0.555726	0.292634
H350	H	-0.161164	-0.549956	0.321449
H351	H	-0.161280	-0.614060	0.321472
