data_functionalizedCrystal
_audit_creation_method	'MofGen! by Chris Wilmer'
_symmetry_space_group_name_H-M	'P1'
_symmetry_Int_Tables_number	1
_symmetry_cell_setting	triclinic
loop_
_symmetry_equiv_pos_as_xyz
  x,y,z
_cell_length_a	15.944499
_cell_length_b	15.944545
_cell_length_c	13.596369
_cell_angle_alpha	89.991909
_cell_angle_beta	89.992083
_cell_angle_gamma	83.486891
loop_
_atom_site_label
_atom_site_type_symbol
_atom_site_fract_x
_atom_site_fract_y
_atom_site_fract_z
O1	O	1.114550	0.108127	-0.081855
O2	O	1.614550	0.608127	0.418145
O3	O	0.869994	0.121529	-0.081845
O4	O	1.369994	0.621529	0.418155
O5	O	0.998953	-0.007449	-0.081838
O6	O	1.498953	0.492551	0.418162
O7	O	0.985591	0.237104	-0.081861
O8	O	1.485591	0.737104	0.418139
O9	O	0.998940	-0.007455	0.081745
O10	O	1.498940	0.492545	0.581745
O11	O	0.869981	0.121522	0.081738
O12	O	1.369981	0.621522	0.581738
O13	O	1.114537	0.108120	0.081728
O14	O	1.614537	0.608120	0.581728
Zn15	Zn	0.992257	0.114820	0.107705
Zn16	Zn	1.492257	0.614820	0.607705
Zn17	Zn	0.992274	0.114829	-0.107822
Zn18	Zn	1.492274	0.614829	0.392178
O19	O	0.985578	0.237097	0.081722
O20	O	1.485578	0.737097	0.581722
C21	C	0.838693	0.120977	-0.000052
C22	C	1.338693	0.620977	0.499948
C23	C	0.745444	0.119332	-0.000047
C24	C	1.245444	0.619332	0.499953
C25	C	0.453907	0.194264	-0.000069
C26	C	0.953907	0.694264	0.499931
C27	C	0.514943	0.155316	-0.080722
C28	C	1.014943	0.655316	0.419278
C29	C	0.409808	0.113355	-0.000069
C30	C	0.909808	0.613355	0.499931
C31	C	0.514916	0.155287	0.080558
C32	C	1.014916	0.655287	0.580558
C33	C	0.574717	0.116296	-0.000057
C34	C	1.074717	0.616296	0.499943
C35	C	0.469616	0.074385	-0.080789
C36	C	0.969616	0.574385	0.419211
C37	C	0.469583	0.074367	0.080563
C38	C	0.969583	0.574367	0.580563
C39	C	0.530602	0.035360	-0.000110
C40	C	1.030602	0.535360	0.499890
C41	C	0.314808	0.111664	-0.000078
C42	C	0.814808	0.611664	0.499922
C43	C	0.669716	0.117981	-0.000056
C44	C	1.169716	0.617981	0.499944
C45	C	0.998393	-0.038746	-0.000046
C46	C	1.498393	0.461254	0.499954
C47	C	0.996732	-0.131992	-0.000043
C48	C	1.496732	0.368008	0.499957
C49	C	0.911837	-0.402609	-0.000059
C50	C	1.411837	0.097391	0.499941
C51	C	0.952773	-0.352028	-0.080717
C52	C	1.452773	0.147972	0.419283
C53	C	0.990811	-0.467635	-0.000071
C54	C	1.490811	0.032365	0.499929
C55	C	0.952781	-0.352062	0.080563
C56	C	1.452781	0.147938	0.580563
C57	C	0.993716	-0.302722	-0.000056
C58	C	1.493716	0.197278	0.499944
C59	C	1.031727	-0.418282	-0.080795
C60	C	1.531727	0.081718	0.419205
C61	C	1.031724	-0.418319	0.080558
C62	C	1.531724	0.081681	0.580558
C63	C	1.072718	-0.367771	-0.000119
C64	C	1.572718	0.132229	0.499881
C65	C	0.989136	-0.562637	-0.000080
C66	C	1.489136	-0.062637	0.499920
C67	C	0.995398	-0.207723	-0.000053
C68	C	1.495398	0.292277	0.499947
C69	C	1.145838	0.108672	-0.000067
C70	C	1.645838	0.608672	0.499933
C71	C	1.239086	0.110317	-0.000078
C72	C	1.739086	0.610317	0.499922
C73	C	0.986138	0.268395	-0.000073
C74	C	1.486138	0.768395	0.499927
C75	C	0.987798	0.361641	-0.000082
C76	C	1.487798	0.861641	0.499918
N77	N	0.992251	0.114813	0.254797
N78	N	1.492251	0.614813	0.754797
N79	N	0.992286	0.114829	-0.254914
N80	N	1.492286	0.614829	0.245086
C81	C	0.992273	0.114830	0.656088
C82	C	1.492273	0.614830	1.156088
C83	C	0.992264	0.114828	0.544437
C84	C	1.492264	0.614828	1.044437
C85	C	0.992262	0.114822	0.455446
C86	C	1.492262	0.614822	0.955446
C87	C	0.992253	0.114819	0.343788
C88	C	1.492253	0.614819	0.843788
H89	H	0.449643	0.040198	-0.149051
H90	H	0.949643	0.540198	0.350949
F91	F	0.443281	0.029670	0.169698
F92	F	0.943281	0.529670	0.669698
F93	F	1.075297	-0.455934	-0.170022
F94	F	1.575297	0.044066	0.329978
F95	F	0.573977	-0.052480	-0.000158
F96	F	1.073977	0.447520	0.499842
F97	F	0.541151	0.200030	0.169677
F98	F	1.041151	0.700030	0.669677
H99	H	0.843822	-0.418249	-0.000135
H100	H	1.343822	0.081751	0.499865
H101	H	0.919409	-0.323144	0.148751
H102	H	1.419409	0.176856	0.648751
H103	H	0.919425	-0.323084	-0.148904
H104	H	1.419425	0.176916	0.351096
F105	F	0.410338	0.282027	-0.000176
F106	F	0.910338	0.782027	0.499824
H107	H	1.140785	-0.352292	-0.000167
H108	H	1.640785	0.147708	0.499833
F109	F	1.075274	-0.456173	0.169687
F110	F	1.575274	0.043827	0.669687
H111	H	0.535046	0.189542	-0.148910
H112	H	1.035046	0.689542	0.351090
