data_functionalizedCrystal
_audit_creation_method	'MofGen! by Chris Wilmer'
_symmetry_space_group_name_H-M	'P1'
_symmetry_Int_Tables_number	1
_symmetry_cell_setting	triclinic
loop_
_symmetry_equiv_pos_as_xyz
  x,y,z
_cell_length_a	19.288864
_cell_length_b	14.519709
_cell_length_c	18.366186
_cell_angle_alpha	89.992822
_cell_angle_beta	89.977106
_cell_angle_gamma	83.408195
loop_
_atom_site_label
_atom_site_type_symbol
_atom_site_fract_x
_atom_site_fract_y
_atom_site_fract_z
O1	O	0.921767	0.115045	-0.060785
O2	O	1.421767	0.615045	0.439215
O3	O	0.719562	0.130564	-0.060735
O4	O	1.219562	0.630564	0.439265
O5	O	0.826026	-0.011468	-0.060755
O6	O	1.326026	0.488532	0.439245
O7	O	0.815303	0.257077	-0.060765
O8	O	1.315303	0.757077	0.439235
O9	O	0.826007	-0.011475	0.060345
O10	O	1.326007	0.488525	0.560345
O11	O	0.719544	0.130557	0.060364
O12	O	1.219544	0.630557	0.560364
O13	O	0.921749	0.115038	0.060315
O14	O	1.421749	0.615038	0.560315
Zn15	Zn	0.820643	0.122797	0.079567
Zn16	Zn	1.320643	0.622797	0.579567
Zn17	Zn	0.820667	0.122806	-0.079987
Zn18	Zn	1.320667	0.622806	0.420013
O19	O	0.815285	0.257070	0.060334
O20	O	1.315285	0.757070	0.560334
C21	C	0.693675	0.130061	-0.000179
C22	C	1.193675	0.630061	0.499821
C23	C	0.616566	0.128562	-0.000160
C24	C	1.116566	0.628562	0.499840
C25	C	0.572169	0.211900	-0.000175
C26	C	1.072169	0.711900	0.499825
C27	C	0.499717	0.210492	-0.000183
C28	C	0.999717	0.710492	0.499817
C29	C	0.471665	0.125741	-0.000191
C30	C	0.971665	0.625741	0.499809
C31	C	0.516071	0.042392	-0.000172
C32	C	1.016071	0.542392	0.499828
C33	C	0.588521	0.043803	-0.000156
C34	C	1.088521	0.543803	0.499844
C35	C	0.363169	0.059120	-0.042639
C36	C	0.863169	0.559120	0.457361
C37	C	0.290720	0.057713	-0.042659
C38	C	0.790720	0.557713	0.457341
C39	C	0.248203	0.121387	-0.000234
C40	C	0.748203	0.621387	0.499766
C41	C	0.278144	0.186484	0.042200
C42	C	0.778144	0.686484	0.542200
C43	C	0.350595	0.187894	0.042215
C44	C	0.850595	0.687894	0.542215
C45	C	0.393105	0.124202	-0.000207
C46	C	0.893105	0.624202	0.499793
C47	C	0.125246	0.203203	-0.000257
C48	C	0.625246	0.703203	0.499743
C49	C	0.052792	0.201792	-0.000260
C50	C	0.552792	0.701792	0.499740
C51	C	0.069148	0.033689	-0.000257
C52	C	0.569148	0.533689	0.499743
C53	C	0.141599	0.035103	-0.000246
C54	C	0.641599	0.535103	0.499754
C55	C	0.169644	0.119863	-0.000249
C56	C	0.669644	0.619863	0.499751
C57	C	0.825517	-0.045828	-0.000205
C58	C	1.325517	0.454172	0.499795
C59	C	0.824019	-0.148200	-0.000204
C60	C	1.324019	0.351800	0.499796
C61	C	0.818507	-0.523061	-0.000222
C62	C	1.318507	-0.023061	0.499778
C63	C	0.820037	-0.418762	-0.000216
C64	C	1.320037	0.081238	0.499784
C65	C	0.821263	-0.335633	-0.000212
C66	C	1.321263	0.164367	0.499788
C67	C	0.822794	-0.231329	-0.000208
C68	C	1.322794	0.268671	0.499792
C69	C	0.947636	0.115541	-0.000243
C70	C	1.447636	0.615541	0.499757
C71	C	1.024745	0.117040	-0.000267
C72	C	1.524745	0.617040	0.499733
C73	C	0.815794	0.291430	-0.000217
C74	C	1.315794	0.791430	0.499783
C75	C	0.817291	0.393802	-0.000223
C76	C	1.317291	0.893802	0.499777
N77	N	0.820632	0.122790	0.188458
N78	N	1.320632	0.622790	0.688458
N79	N	0.820684	0.122805	-0.188878
N80	N	1.320684	0.622805	0.311122
C81	C	0.867790	0.059929	0.226549
C82	C	1.367790	0.559929	0.726549
C83	C	0.867794	0.059925	0.302777
C84	C	1.367794	0.559925	0.802777
C85	C	0.820648	0.122797	0.340910
C86	C	1.320648	0.622797	0.840910
C87	C	0.773481	0.185663	0.302809
C88	C	1.273481	0.685663	0.802809
C89	C	0.773473	0.185659	0.226583
C90	C	1.273473	0.685659	0.726583
C91	C	0.811652	0.206826	0.461669
C92	C	1.311652	0.706826	0.961669
C93	C	0.811664	0.206831	0.537894
C94	C	1.311664	0.706831	1.037894
C95	C	0.820667	0.122809	0.576018
C96	C	1.320667	0.622809	1.076018
C97	C	0.829673	0.038778	0.537908
C98	C	1.329673	0.538778	1.037908
C99	C	0.829665	0.038775	0.461681
C100	C	1.329665	0.538775	0.961681
C101	C	0.820650	0.122808	0.423565
C102	C	1.320650	0.622808	0.923565
C103	C	0.867832	0.059938	0.696765
C104	C	1.367832	0.559938	1.196765
C105	C	0.867832	0.059933	0.772994
C106	C	1.367832	0.559933	1.272994
C107	C	0.773522	0.185679	0.773025
C108	C	1.273522	0.685679	1.273025
C109	C	0.773519	0.185677	0.696797
C110	C	1.273519	0.685677	1.196797
C111	C	0.820678	0.122807	0.658671
C112	C	1.320678	0.622807	1.158671
H113	H	0.016645	0.269658	-0.000268
H114	H	0.516645	0.769658	0.499732
O115	O	0.801946	0.297454	0.420550
O116	O	1.301946	0.797454	0.920550
H117	H	0.795699	0.355884	0.459854
H118	H	1.295699	0.855884	0.959854
H119	H	0.906231	0.008739	0.804009
H120	H	1.406231	0.508739	1.304009
H121	H	0.463563	0.278358	-0.000193
H122	H	0.963563	0.778358	0.499807
O123	O	0.038897	-0.057721	-0.000256
O124	O	0.538897	0.442279	0.499744
H125	H	0.081945	-0.115436	-0.000239
H126	H	0.581945	0.384564	0.499761
O127	O	0.918678	-0.007903	0.655650
O128	O	1.418678	0.492097	1.155650
H129	H	0.889369	-0.052617	0.620949
H130	H	1.389369	0.447383	1.120949
O131	O	0.155500	0.294618	-0.000252
O132	O	0.655500	0.794618	0.499748
H133	H	0.188096	0.299271	0.049108
H134	H	0.688096	0.799271	0.549108
H135	H	0.177748	-0.032760	-0.000238
H136	H	0.677748	0.467240	0.499762
O137	O	0.382880	0.258078	0.088012
O138	O	0.882880	0.758078	0.588012
H139	H	0.362052	0.329086	0.070566
H140	H	0.862052	0.829086	0.570566
O141	O	0.258428	-0.012504	-0.088415
O142	O	0.758428	0.487496	0.411585
H143	H	0.300163	-0.056559	-0.117898
H144	H	0.800163	0.443441	0.382102
H145	H	0.735071	0.236849	0.195568
H146	H	1.235071	0.736849	0.695568
H147	H	0.624670	-0.024063	-0.000145
H148	H	1.124670	0.475937	0.499855
O149	O	0.409025	-0.009557	-0.088403
O150	O	0.909025	0.490443	0.411597
H151	H	0.376035	-0.055046	-0.117922
H152	H	0.876035	0.444954	0.382078
H153	H	0.493226	-0.026613	-0.000188
H154	H	0.993226	0.473387	0.499812
H155	H	0.804336	0.275253	0.568917
H156	H	1.304336	0.775253	1.068917
O157	O	0.602419	0.303315	-0.000157
O158	O	1.102419	0.803315	0.499843
H159	H	0.559371	0.361029	-0.000158
H160	H	1.059371	0.861029	0.499842
H161	H	0.735132	0.236868	0.804072
H162	H	1.235132	0.736868	1.304072
O163	O	0.918642	-0.007889	0.185426
O164	O	1.418642	0.492111	0.685426
H165	H	0.951430	-0.051608	0.224726
H166	H	1.451430	0.448392	0.724726
O167	O	0.839364	-0.051849	0.420573
O168	O	1.339364	0.448151	0.920573
H169	H	0.845621	-0.110279	0.459883
H170	H	1.345621	0.389721	0.959883
H171	H	0.906197	0.008734	0.333797
H172	H	1.406197	0.508734	0.833797
O173	O	0.722664	0.253488	0.655704
O174	O	1.222664	0.753488	1.155704
H175	H	0.689884	0.297213	0.695024
H176	H	1.189884	0.797213	1.195024
O177	O	0.839388	-0.051862	0.579005
O178	O	1.339388	0.448138	1.079005
H179	H	0.792991	-0.057639	0.613752
H180	H	1.292991	0.442361	1.113752
O181	O	0.232300	0.255164	0.087968
O182	O	0.732300	0.755164	0.587968
H183	H	0.176891	0.243242	0.080839
H184	H	0.676891	0.743242	0.580839
H185	H	0.735092	0.236854	0.333861
H186	H	1.235092	0.736854	0.833861
