data_functionalizedCrystal
_audit_creation_method	'MofGen! by Chris Wilmer'
_symmetry_space_group_name_H-M	'P1'
_symmetry_Int_Tables_number	1
_symmetry_cell_setting	triclinic
loop_
_symmetry_equiv_pos_as_xyz
  x,y,z
_cell_length_a	17.077404
_cell_length_b	16.625545
_cell_length_c	17.077396
_cell_angle_alpha	89.970470
_cell_angle_beta	89.982940
_cell_angle_gamma	90.025783
loop_
_atom_site_label
_atom_site_type_symbol
_atom_site_fract_x
_atom_site_fract_y
_atom_site_fract_z
Zn1	Zn	1.200021	-0.320984	-0.443846
Zn2	Zn	1.199928	-0.455831	-0.312581
Zn3	Zn	1.068759	-0.321016	-0.312594
Zn4	Zn	1.068715	-0.455779	-0.443805
O5	O	1.134356	-0.388402	-0.378206
O6	O	1.309856	-0.338880	-0.426445
O7	O	1.182507	-0.437982	-0.202736
O8	O	1.086228	-0.208179	-0.330027
O9	O	1.309787	-0.437951	-0.330005
O10	O	1.182666	-0.208156	-0.426457
O11	O	1.086138	-0.338935	-0.202745
O12	O	0.958906	-0.338884	-0.329987
O13	O	1.086154	-0.437863	-0.553657
O14	O	0.958874	-0.437894	-0.426387
O15	O	1.182624	-0.338830	-0.553687
O16	O	1.182465	-0.568656	-0.329966
O17	O	1.086063	-0.568618	-0.426375
C18	C	0.930408	-0.388388	-0.378185
C19	C	0.843158	-0.388401	-0.378194
C20	C	0.802172	-0.440033	-0.428309
C21	C	0.720191	-0.440035	-0.428322
C22	C	0.679198	-0.388408	-0.378214
C23	C	0.720191	-0.336770	-0.328097
C24	C	0.802170	-0.336765	-0.328089
C25	C	0.549321	-0.336786	-0.328116
C26	C	0.467336	-0.336792	-0.328123
C27	C	0.467342	-0.440056	-0.428348
C28	C	0.549321	-0.440051	-0.428340
C29	C	0.590307	-0.388414	-0.378222
C30	C	1.134270	-0.597893	-0.378182
C31	C	1.134306	-0.687514	-0.378197
C32	C	1.134336	-0.760297	-0.378213
C33	C	1.134382	-0.851605	-0.378230
C34	C	1.134423	-0.924382	-0.378240
C35	C	1.134467	-1.015696	-0.378256
C36	C	1.339100	-0.388418	-0.378228
C37	C	1.426350	-0.388424	-0.378238
C38	C	1.134394	-0.388337	-0.582951
C39	C	1.134411	-0.388309	-0.670200
C40	C	1.134463	-0.178093	-0.378248
C41	C	1.134508	-0.088472	-0.378266
C42	C	1.184662	-0.439789	-1.046013
C43	C	1.184642	-0.439813	-0.964032
C44	C	1.134461	-0.388252	-0.923050
C45	C	1.084292	-0.336671	-0.964052
C46	C	1.084308	-0.336652	-1.046031
C47	C	1.084262	-0.336712	-0.793182
C48	C	1.084247	-0.336730	-0.711197
C49	C	1.184596	-0.439873	-0.711183
C50	C	1.184613	-0.439855	-0.793162
C51	C	1.134444	-0.388272	-0.834158
C52	C	1.134362	-0.388409	-0.174258
C53	C	1.134498	-0.388210	-0.087009
H54	H	0.582695	-0.482094	-0.469138
H55	H	1.043430	-0.294693	-0.930677
H56	H	1.225445	-0.481874	-0.677800
H57	H	1.225528	-0.481772	-1.079375
N58	N	0.593530	-0.281089	-0.274065
H59	H	0.555123	-0.248386	-0.242321
H60	H	0.627517	-0.313863	-0.237679
H61	H	0.433967	-0.482098	-0.469159
H62	H	1.225481	-0.481824	-0.930656
H63	H	1.225478	-0.481836	-0.826528
H64	H	1.043388	-0.294742	-0.677831
H65	H	1.043410	-0.294708	-0.826558
N66	N	1.030200	-0.281024	-1.090252
H67	H	0.998408	-0.248362	-1.051852
H68	H	1.062177	-0.243705	-1.124282
N69	N	0.423119	-0.281110	-0.274081
H70	H	0.461522	-0.248393	-0.242334
H71	H	0.389130	-0.243846	-0.306107
H72	H	0.835542	-0.482076	-0.469109
H73	H	0.686824	-0.482080	-0.469129
N74	N	0.675984	-0.281091	-0.274044
H75	H	0.690236	-0.293548	-0.217940
H76	H	0.690295	-0.223516	-0.286396
N77	N	0.846380	-0.281071	-0.274043
H78	H	0.807974	-0.248366	-0.242301
H79	H	0.880371	-0.313838	-0.237655
