data_functionalizedCrystal
_audit_creation_method	'MofGen! by Chris Wilmer'
_symmetry_space_group_name_H-M	'P1'
_symmetry_Int_Tables_number	1
_symmetry_cell_setting	triclinic
loop_
_symmetry_equiv_pos_as_xyz
  x,y,z
_cell_length_a	10.654550
_cell_length_b	15.625429
_cell_length_c	14.185292
_cell_angle_alpha	59.451664
_cell_angle_beta	103.285154
_cell_angle_gamma	84.351240
loop_
_atom_site_label
_atom_site_type_symbol
_atom_site_fract_x
_atom_site_fract_y
_atom_site_fract_z
O1	O	1.618039	0.161146	-0.142114
O2	O	1.250799	0.174375	-0.146909
O3	O	1.462043	0.023870	-0.092171
O4	O	1.406794	0.311651	-0.196852
O5	O	1.524466	-0.020591	0.090842
O6	O	1.313221	0.129914	0.036104
O7	O	1.680461	0.116685	0.040899
Cu8	Cu	1.502541	0.119240	0.055212
Cu9	Cu	1.428719	0.171820	-0.161222
O10	O	1.469216	0.267190	-0.013839
C11	C	1.235342	0.151172	-0.055047
C12	C	1.096290	0.148264	-0.053983
C13	C	1.004961	0.236884	-0.086233
C14	C	0.874299	0.234151	-0.085256
C15	C	0.926308	0.054171	-0.019781
C16	C	1.056969	0.056903	-0.020750
C17	C	0.974931	0.340795	-0.124040
C18	C	0.844270	0.338062	-0.123063
C19	C	1.496942	-0.035209	0.012737
C20	C	1.507916	-0.145006	0.052670
C21	C	1.373852	-0.384947	-0.314756
C22	C	1.384169	-0.488126	-0.277199
C23	C	1.452218	-0.536581	-0.077691
C24	C	1.441913	-0.433405	-0.115231
C25	C	1.402727	-0.357595	-0.233765
C26	C	1.470788	-0.406052	-0.034240
C27	C	1.460477	-0.302884	-0.071778
C28	C	1.421290	-0.227069	-0.190307
C29	C	1.392416	-0.254427	-0.271303
C30	C	1.509964	-0.481863	0.084292
C31	C	1.538840	-0.454511	0.165283
C32	C	1.528538	-0.351342	0.127746
C33	C	1.489351	-0.275526	0.009217
C34	C	1.557412	-0.323984	0.208742
C35	C	1.547101	-0.220816	0.171204
C36	C	1.479040	-0.172358	-0.028321
C37	C	1.695916	0.139888	-0.050965
C38	C	1.834967	0.142799	-0.052037
C39	C	1.434316	0.326270	-0.118750
C40	C	1.423341	0.436069	-0.158690
N41	N	1.554472	0.082257	0.207440
N42	N	1.376798	0.208796	-0.313447
C43	C	1.706994	-0.026338	0.404461
C44	C	1.667662	0.001659	0.289252
C45	C	1.480565	0.134885	0.240814
C46	C	1.519877	0.106895	0.356023
C47	C	1.633093	0.026283	0.437838
C48	C	1.445976	0.159516	0.389400
C49	C	1.485289	0.131532	0.504597
C50	C	1.598503	0.050926	0.586417
C51	C	1.672406	-0.001701	0.553035
C52	C	1.332766	0.240132	0.307581
C53	C	1.258865	0.292754	0.340957
C54	C	1.298172	0.264765	0.456158
C55	C	1.411386	0.184159	0.537979
C56	C	1.224269	0.317392	0.489540
C57	C	1.263582	0.289407	0.604738
C58	C	1.450699	0.156174	0.653176
H59	H	1.447143	-0.110629	-0.124842
H60	H	0.979217	0.393077	-0.215089
H61	H	1.360640	-0.510387	-0.343161
O62	O	1.145757	-0.029083	0.010416
C63	C	1.190574	-0.009883	-0.082974
H64	H	1.176807	0.076332	-0.143148
H65	H	1.300724	-0.051228	-0.048479
H66	H	1.130434	-0.039225	-0.132811
H67	H	1.589304	-0.385721	0.305252
H68	H	1.388385	0.200522	0.174187
H69	H	1.024959	0.362825	-0.062227
H70	H	1.360519	-0.192698	-0.367825
O71	O	0.817142	0.352497	-0.042285
C72	C	0.905165	0.274440	0.068599
H73	H	0.998923	0.241289	0.059993
H74	H	0.933508	0.308004	0.123086
H75	H	0.854245	0.210908	0.112381
H76	H	0.771181	0.395822	-0.213901
H77	H	1.412882	-0.143062	-0.220869
H78	H	1.203405	0.332258	0.631911
H79	H	1.341955	-0.323218	-0.411277
H80	H	1.300765	0.262917	0.213780
O81	O	1.490105	-0.610303	0.037411
C82	C	1.388124	-0.660960	0.061313
H83	H	1.323448	-0.651892	-0.020942
H84	H	1.434516	-0.746114	0.130781
H85	H	1.323946	-0.625840	0.093429
H86	H	1.518345	-0.565866	0.114852
H87	H	0.894271	-0.020207	0.007259
H88	H	1.570740	-0.516248	0.261794
H89	H	1.570587	-0.198544	0.237154
H90	H	1.542883	0.090525	0.719798
O91	O	1.114175	0.395627	0.410196
C92	C	1.001552	0.371786	0.444524
H93	H	1.034916	0.313344	0.542031
H94	H	0.932000	0.444709	0.421600
H95	H	0.946670	0.338029	0.397700
H96	H	1.630514	0.028145	0.680216
H97	H	1.764590	-0.067350	0.619657
H98	H	1.799177	-0.091987	0.471083
O99	O	1.739571	-0.049601	0.257037
C100	C	1.847945	-0.126730	0.353949
H101	H	1.824671	-0.148177	0.436620
H102	H	1.865416	-0.197481	0.349342
H103	H	1.941380	-0.096902	0.354250
H104	H	1.166685	0.358391	0.274330
