data_functionalizedCrystal
_audit_creation_method	'MofGen! by Chris Wilmer'
_symmetry_space_group_name_H-M	'P1'
_symmetry_Int_Tables_number	1
_symmetry_cell_setting	triclinic
loop_
_symmetry_equiv_pos_as_xyz
  x,y,z
_cell_length_a	16.704494
_cell_length_b	31.640172
_cell_length_c	16.704494
_cell_angle_alpha	90.005263
_cell_angle_beta	60.174770
_cell_angle_gamma	56.638926
loop_
_atom_site_label
_atom_site_type_symbol
_atom_site_fract_x
_atom_site_fract_y
_atom_site_fract_z
Zr1	Zr	0.790221	-0.053614	0.858085
O2	O	0.970555	-0.129379	0.732752
O3	O	0.619467	-0.027429	0.890239
O4	O	0.785965	-0.119863	0.899273
O5	O	0.804073	0.032604	0.723721
O6	O	0.771711	-0.115724	1.037756
O7	O	0.804057	-0.036944	0.723718
O8	O	0.473876	0.049624	1.021596
O9	O	1.101908	-0.132744	0.739881
O10	O	0.675514	-0.016747	1.014872
O11	O	0.686165	0.032066	0.911526
O12	O	0.882195	-0.076763	0.922162
O13	O	0.892845	-0.027950	0.818816
Zr14	Zr	0.767513	0.063909	1.078954
Zr15	Zr	0.767487	-0.047011	1.078949
Zr16	Zr	0.790247	0.057307	0.858089
Zr17	Zr	0.999714	-0.058982	0.869454
Zr18	Zr	0.558020	0.069278	1.067584
O19	O	0.938267	0.037725	1.046800
O20	O	0.938230	-0.119991	1.046793
O21	O	0.970592	0.028337	0.732759
O22	O	0.587179	0.139674	1.204286
O23	O	0.587142	-0.018041	1.204280
O24	O	0.619504	0.130286	0.890245
O25	O	0.753661	-0.022308	1.213317
O26	O	0.771769	0.130159	1.037766
O27	O	0.786023	0.126019	0.899283
O28	O	0.753677	0.047240	1.213320
O29	O	1.083837	-0.127496	0.915439
O30	O	0.473896	0.137792	1.021600
O31	O	0.455826	0.143040	1.197158
O32	O	0.455805	0.054873	1.197154
O33	O	1.101929	-0.044577	0.739885
O34	O	1.083858	-0.039329	0.915443
O35	O	0.675539	0.087059	1.014876
O36	O	0.664889	0.038245	1.118223
O37	O	0.871569	-0.021771	1.025513
O38	O	0.882219	0.027042	0.922166
C39	C	0.516823	0.011863	0.954298
C40	C	0.427888	0.014141	0.949471
C41	C	0.249631	-0.032533	1.048319
C42	C	0.166068	-0.030393	1.043786
C43	C	0.177191	0.020565	0.935880
C44	C	0.260754	0.018425	0.940412
C45	C	0.296972	-0.008126	0.996632
C46	C	0.380543	-0.010269	1.001158
C47	C	0.391658	0.040692	0.893259
C48	C	0.308095	0.042832	0.888726
C49	C	0.778834	-0.133597	0.968514
C50	C	0.778823	-0.180686	0.968512
C51	C	0.886762	-0.504050	0.920136
C52	C	0.886781	-0.681046	0.920138
O53	O	0.978530	-0.730574	0.879018
N54	N	0.778897	-0.671848	0.968530
C55	C	0.671000	-0.618397	1.016930
O56	O	0.579237	-0.614634	1.058099
C57	C	0.670981	-0.441402	1.016933
C58	C	0.778873	-0.450604	0.968530
C59	C	0.994645	-0.513250	0.871737
C60	C	0.994639	-0.469003	0.871732
C61	C	0.886751	-0.415557	0.920126
C62	C	0.778867	-0.406357	0.968525
C63	C	0.563084	-0.387951	1.065339
C64	C	0.563089	-0.343702	1.065337
C65	C	0.670981	-0.352904	1.016934
C66	C	0.670973	-0.308665	1.016914
N67	N	0.778857	-0.317862	0.968522
C68	C	0.886746	-0.371309	0.920128
C69	C	0.671017	-0.711324	1.016923
C70	C	0.671022	-0.755572	1.016921
C71	C	0.886804	-0.818219	0.920130
C72	C	0.886798	-0.773969	0.920127
C73	C	0.778901	-0.720521	0.968531
C74	C	0.886727	-0.278385	0.920122
C75	C	0.886712	-0.234132	0.920118
C76	C	0.670930	-0.171490	1.016912
C77	C	0.670945	-0.215739	1.016912
C78	C	0.778852	-0.269188	0.968515
O79	O	0.579271	-0.259123	1.058022
O80	O	0.978493	-0.375059	0.878984
C81	C	0.886767	-0.548297	0.920140
C82	C	0.778884	-0.539097	0.968539
C83	C	0.670995	-0.485651	1.016933
C84	C	0.778888	-0.583345	0.968537
C85	C	0.886777	-0.636792	0.920143
C86	C	0.994661	-0.645989	0.871751
C87	C	0.994656	-0.601743	0.871746
C88	C	0.563111	-0.476453	1.065325
C89	C	0.563125	-0.520702	1.065324
C90	C	0.671014	-0.574148	1.016930
C91	C	1.040911	-0.001567	0.982741
C92	C	1.129846	-0.003846	0.987568
C93	C	0.807304	-0.003111	0.692251
C94	C	0.816955	-0.005914	0.598489
C95	C	0.778899	0.143893	0.968525
C96	C	0.778911	0.190982	0.968527
C97	C	0.619297	0.051489	0.519095
C98	C	0.628360	0.048857	0.430999
C99	C	0.844142	-0.013807	0.334200
C100	C	0.835079	-0.011175	0.422296
C101	C	0.722653	0.021474	0.514742
C102	C	0.713592	0.024102	0.602839
C103	C	0.929373	-0.038558	0.506039
C104	C	0.938435	-0.041190	0.417943
C105	C	0.750430	0.013407	1.244787
C106	C	0.740778	0.016209	1.338550
C107	C	0.488386	0.020121	1.230565
C108	C	0.389799	0.025203	1.319501
C109	C	0.516856	0.150608	0.954303
C110	C	0.427931	0.199975	0.949478
C111	C	0.488418	0.158866	1.230571
C112	C	0.389843	0.211037	1.319509
C113	C	1.069315	-0.148571	0.706467
C114	C	1.167891	-0.200742	0.617529
C115	C	1.069348	-0.009826	0.706473
C116	C	1.167934	-0.014908	0.617537
C117	C	1.040878	-0.140312	0.982735
C118	C	1.129802	-0.189680	0.987560
C119	C	0.349048	-0.001120	1.307319
C120	C	0.256428	0.003644	1.390876
C121	C	0.204555	0.034735	1.486614
C122	C	0.245314	0.061059	1.498795
C123	C	0.337938	0.056291	1.415240
C124	C	0.380625	0.251869	1.001160
C125	C	0.297083	0.298259	0.996624
C126	C	0.260843	0.292755	0.940410
C127	C	0.308158	0.240855	0.888722
C128	C	0.391705	0.194466	0.893253
C129	C	0.337991	0.210057	1.415230
C130	C	0.245379	0.259073	1.498806
C131	C	0.204616	0.309068	1.486658
C132	C	0.256478	0.310046	1.390927
C133	C	0.349093	0.261031	1.307354
C134	C	1.219753	-0.199762	0.521809
C135	C	1.312391	-0.248778	0.438234
C136	C	1.353158	-0.298773	0.450383
C137	C	1.301291	-0.299752	0.546113
C138	C	1.208661	-0.250736	0.629686
C139	C	1.208694	0.011411	0.629720
C140	C	1.301337	0.006634	0.546164
C141	C	1.353214	-0.024459	0.450426
C142	C	1.312450	-0.050780	0.438245
C143	C	1.219815	-0.046007	0.521800
C144	C	1.166015	-0.184158	1.043783
C145	C	1.249556	-0.230539	1.048336
C146	C	1.296888	-0.282442	0.996660
C147	C	1.260668	-0.287963	0.940435
C148	C	1.177122	-0.241582	0.935888
H149	H	0.278590	0.064450	0.842957
H150	H	0.258568	0.340513	1.038719
H151	H	0.622048	0.050690	0.678110
H152	H	0.223275	0.350759	1.381051
H153	H	0.223254	-0.017793	1.380938
C154	C	0.102658	0.039978	1.578519
N155	N	0.025906	0.043927	1.647737
C156	C	1.137315	-0.247666	0.874021
N157	N	1.107340	-0.252253	0.827416
C158	C	1.455046	-0.352687	0.358439
N159	N	1.531784	-0.393294	0.289183
H160	H	1.082509	-0.689514	0.832341
H161	H	0.430217	0.060564	0.851167
C162	C	0.382742	0.085258	1.428657
N163	N	0.416482	0.107079	1.438770
C164	C	0.420379	-0.039473	1.063004
N165	N	0.450376	-0.061468	1.109592
H166	H	0.527755	0.078076	0.594367
H167	H	1.334496	-0.340464	0.555993
H168	H	1.279037	-0.226033	1.094118
H169	H	0.203162	0.258267	1.576747
H170	H	0.279129	-0.054156	1.094087
C171	C	1.312702	-0.345059	0.883636
N172	N	1.351884	-0.388065	0.840866
H173	H	0.544197	0.073299	0.434551
C174	C	0.137329	0.049771	0.874049
N175	N	0.107306	0.071769	0.827476
H176	H	1.029969	-0.067769	0.342663
H177	H	0.974575	-0.241632	0.880697
C178	C	1.346150	0.035598	0.559586
N179	N	1.379898	0.057414	0.569697
H180	H	0.371166	0.169354	1.425140
C181	C	0.114005	-0.057248	1.100636
N182	N	0.074794	-0.077478	1.143456
C183	C	0.268275	0.234810	0.826895
N184	N	0.238225	0.230258	0.780333
H185	H	1.166463	0.036733	0.707668
H186	H	1.364916	-0.320204	1.000370
H187	H	0.974595	-0.321902	0.880713
H188	H	1.166435	-0.251540	0.707624
C189	C	0.406119	0.262118	1.202062
N190	N	0.449068	0.262941	1.122756
H191	H	1.428643	-0.028341	0.382398
C192	C	1.369512	-0.084972	0.332922
N193	N	1.412485	-0.110720	0.253591
C194	C	1.174977	-0.074955	0.508381
N195	N	1.141209	-0.096759	0.498266
H196	H	1.186567	-0.159058	0.511898
C197	C	0.188232	0.095262	1.604117
N198	N	0.145228	0.121028	1.683447
H199	H	0.430211	0.152214	0.851170
H200	H	1.082496	-0.476503	0.832322
H201	H	1.013533	-0.063000	0.502500
H202	H	1.127489	-0.141900	1.085865
C203	C	1.113344	-0.572040	0.818473
N204	N	1.202757	-0.616320	0.778337
H205	H	0.974654	-0.781467	0.880712
H206	H	0.583167	-0.748073	1.056322
C207	C	0.552315	-0.652532	1.070166
N208	N	0.462908	-0.608252	1.110264
C209	C	0.444427	-0.510570	1.118572
N210	N	0.355025	-0.502937	1.158684
H211	H	0.974651	-0.861743	0.880721
C212	C	0.444392	-0.377816	1.118587
N213	N	0.354986	-0.370179	1.158698
H214	H	0.475224	-0.300183	1.104756
H215	H	0.410122	0.256361	1.046936
H216	H	0.391283	-0.026444	1.229372
C217	C	0.102727	0.362982	1.578602
N218	N	0.025979	0.403588	1.647857
C219	C	0.552259	-0.205616	1.070156
N220	N	0.462862	-0.197987	1.110270
H221	H	0.583091	-0.127967	1.056310
H222	H	1.354606	-0.247971	0.360294
H223	H	1.082513	-0.609242	0.832331
C224	C	0.168926	0.343791	0.935446
N225	N	0.099688	0.382233	0.931716
H226	H	0.475253	-0.432937	1.104736
H227	H	0.935674	-0.040380	0.258918
