data_functionalizedCrystal
_audit_creation_method	'MofGen! by Chris Wilmer'
_symmetry_space_group_name_H-M	'P1'
_symmetry_Int_Tables_number	1
_symmetry_cell_setting	triclinic
loop_
_symmetry_equiv_pos_as_xyz
  x,y,z
_cell_length_a	14.853567
_cell_length_b	14.853559
_cell_length_c	14.048226
_cell_angle_alpha	89.995761
_cell_angle_beta	89.996514
_cell_angle_gamma	83.633192
loop_
_atom_site_label
_atom_site_type_symbol
_atom_site_fract_x
_atom_site_fract_y
_atom_site_fract_z
O1	O	1.196364	0.117707	-0.079090
O2	O	0.933904	0.131728	-0.079106
O3	O	1.072148	-0.006513	-0.079097
O4	O	1.058119	0.255948	-0.079100
O5	O	1.072132	-0.006521	0.079225
O6	O	0.933887	0.131720	0.079215
O7	O	1.196347	0.117698	0.079231
Zn8	Zn	1.065114	0.124708	0.104360
Zn9	Zn	1.065136	0.124719	-0.104235
O10	O	1.058102	0.255939	0.079222
C11	C	0.900307	0.131089	0.000053
C12	C	0.800223	0.129185	0.000046
C13	C	0.387692	0.039019	0.000069
C14	C	0.366406	0.203252	0.000066
C15	C	0.460440	0.205042	0.000063
C16	C	0.518104	0.123819	0.000061
C17	C	0.481735	0.040806	0.000063
C18	C	0.496816	0.288054	0.000052
C19	C	0.590855	0.289847	0.000048
C20	C	0.648521	0.208623	0.000053
C21	C	0.612147	0.125607	0.000055
C22	C	0.669811	0.044384	0.000054
C23	C	0.633438	-0.038633	0.000063
C24	C	0.539401	-0.040418	0.000068
C25	C	0.742559	0.210408	0.000048
C26	C	0.763854	0.046172	0.000048
C27	C	1.071506	-0.040106	0.000062
C28	C	1.069605	-0.140190	0.000057
C29	C	1.061550	-0.563361	-0.086245
C30	C	1.061532	-0.563364	0.086363
C31	C	1.063325	-0.469331	0.086364
C32	C	1.064230	-0.422308	0.000059
C33	C	1.063341	-0.469318	-0.086247
C34	C	1.064205	-0.422312	0.172668
C35	C	1.065998	-0.328273	0.172673
C36	C	1.066909	-0.281249	0.086367
C37	C	1.066021	-0.328266	0.000058
C38	C	1.066925	-0.281243	-0.086247
C39	C	1.066044	-0.328258	-0.172558
C40	C	1.064252	-0.422294	-0.172553
C41	C	1.068700	-0.187213	0.086362
C42	C	1.068716	-0.187200	-0.086249
C43	C	1.229944	0.118338	0.000070
C44	C	1.330028	0.120242	0.000070
C45	C	1.058745	0.289532	0.000061
C46	C	1.060646	0.389616	0.000060
N47	N	1.065106	0.124700	0.246721
N48	N	1.065152	0.124719	-0.246596
C49	C	1.126340	0.063512	0.296543
C50	C	1.126346	0.063512	0.396201
C51	C	1.065122	0.124704	0.446034
C52	C	1.003881	0.185895	0.396205
C53	C	1.003871	0.185890	0.296549
C54	C	1.003907	0.185901	0.603919
C55	C	1.003918	0.185907	0.703582
C56	C	1.126382	0.063523	0.703571
C57	C	1.126372	0.063518	0.603915
C58	C	1.065132	0.124710	0.554093
H59	H	0.680401	-0.104765	0.000055
H60	H	1.069398	-0.148935	0.156634
H61	H	1.176230	0.013695	0.563340
C62	C	1.138420	-0.602326	-0.233393
C63	C	1.060555	-0.615019	-0.181122
H64	H	1.137799	-0.634218	-0.291966
H65	H	1.139614	-0.539596	-0.245726
H66	H	1.190656	-0.624571	-0.197940
H67	H	1.008319	-0.592767	-0.216572
H68	H	1.059353	-0.677762	-0.168792
H69	H	1.176245	0.013698	0.744142
C70	C	0.319304	0.342685	-0.081328
C71	C	0.303021	0.292527	0.000061
H72	H	0.280164	0.397799	-0.081331
H73	H	0.380506	0.355633	-0.081320
H74	H	0.308269	0.308643	-0.136530
H75	H	0.314062	0.326567	0.055265
H76	H	0.241805	0.279582	0.000062
H77	H	0.954062	0.235735	0.744152
C78	C	0.882865	0.306887	0.613936
C79	C	0.936596	0.253169	0.549153
H80	H	0.841319	0.348419	0.580123
H81	H	0.850394	0.269303	0.652811
H82	H	0.920443	0.339381	0.652798
H83	H	0.899018	0.220670	0.510295
H84	H	0.969069	0.290757	0.510261
C85	C	0.404701	-0.116077	0.000064
C86	C	0.499417	-0.131664	0.000068
H87	H	0.380017	-0.172409	0.000056
H88	H	0.384921	-0.082641	0.055271
H89	H	0.384930	-0.082623	-0.055149
H90	H	0.519188	-0.165112	0.055285
H91	H	0.519205	-0.165115	-0.055146
H92	H	1.176207	0.013687	0.436765
C93	C	0.449700	0.427480	-0.081349
C94	C	0.433428	0.377327	0.000046
H95	H	0.410557	0.482592	-0.081353
H96	H	0.510900	0.440432	-0.081349
H97	H	0.438662	0.393433	-0.136547
H98	H	0.444472	0.411371	0.055245
H99	H	0.372213	0.364377	0.000055
C100	C	0.882831	0.306870	0.306564
C101	C	0.936565	0.253154	0.241781
H102	H	0.841281	0.348398	0.272751
H103	H	0.850366	0.269284	0.345442
H104	H	0.920408	0.339368	0.345424
H105	H	0.898989	0.220650	0.202926
H106	H	0.969033	0.290744	0.202886
H107	H	0.954027	0.235716	0.436785
C108	C	0.775448	-0.116350	0.000048
C109	C	0.827235	-0.043113	0.000041
H110	H	0.814579	-0.171469	0.000037
H111	H	0.738334	-0.113634	0.055260
H112	H	0.738320	-0.113621	-0.055161
H113	H	0.864359	-0.045839	0.055254
H114	H	0.864365	-0.045830	-0.055176
C115	C	0.725550	0.365517	0.000012
C116	C	0.630833	0.381096	0.000024
H117	H	0.750230	0.421851	-0.000012
H118	H	0.745332	0.332086	0.055225
H119	H	0.745324	0.332060	-0.055195
H120	H	0.611059	0.414547	0.055236
H121	H	0.611044	0.414542	-0.055195
C122	C	1.068554	-0.196643	-0.256869
C123	C	1.069708	-0.135516	-0.181120
H124	H	1.069160	-0.164733	-0.315437
H125	H	1.120386	-0.240126	-0.253274
H126	H	1.015322	-0.226515	-0.253275
H127	H	1.122943	-0.105648	-0.184711
H128	H	1.017870	-0.092016	-0.184717
C129	C	0.990569	-0.212489	0.272818
C130	C	1.066975	-0.276602	0.267544
H131	H	0.991174	-0.180595	0.331391
H132	H	0.991372	-0.171028	0.221428
H133	H	0.937343	-0.242369	0.269227
H134	H	1.120202	-0.246722	0.271128
H135	H	1.066180	-0.318070	0.318948
C136	C	1.141097	-0.461274	-0.319717
C137	C	1.063237	-0.473951	-0.267429
H138	H	1.140457	-0.493165	-0.378289
H139	H	1.142301	-0.398546	-0.332051
H140	H	1.193336	-0.483531	-0.284275
H141	H	1.010998	-0.451689	-0.302868
H142	H	1.062024	-0.536692	-0.255098
C143	C	1.058797	-0.707520	0.163001
C144	C	1.060552	-0.615051	0.181226
H145	H	1.058203	-0.739431	0.221570
H146	H	1.005973	-0.716114	0.127556
H147	H	1.111036	-0.729727	0.127531
H148	H	1.008309	-0.592842	0.216690
H149	H	1.113381	-0.606452	0.216687
C150	C	0.986201	-0.441269	0.319783
C151	C	1.063214	-0.474013	0.267522
H152	H	0.985592	-0.473199	0.378339
H153	H	0.987395	-0.378546	0.332149
H154	H	0.933387	-0.449869	0.284307
H155	H	1.116029	-0.465406	0.302995
H156	H	1.062028	-0.536751	0.255158
H157	H	1.176199	0.013686	0.255975
H158	H	0.772169	0.277999	0.000042
H159	H	0.358073	-0.028572	0.000080
H160	H	1.066774	-0.289959	-0.242827
