data_functionalizedCrystal
_audit_creation_method	'MofGen! by Chris Wilmer'
_symmetry_space_group_name_H-M	'P1'
_symmetry_Int_Tables_number	1
_symmetry_cell_setting	triclinic
loop_
_symmetry_equiv_pos_as_xyz
  x,y,z
_cell_length_a	17.699083
_cell_length_b	17.699083
_cell_length_c	16.176319
_cell_angle_alpha	90.001389
_cell_angle_beta	89.992304
_cell_angle_gamma	96.716985
loop_
_atom_site_label
_atom_site_type_symbol
_atom_site_fract_x
_atom_site_fract_y
_atom_site_fract_z
O1	O	0.095713	-1.004079	-0.068632
O2	O	0.429046	-0.670745	0.264701
O3	O	0.762380	-0.337412	0.598034
O4	O	0.108166	-0.783700	-0.068660
O5	O	0.441499	-0.450367	0.264674
O6	O	0.774832	-0.117034	0.598007
O7	O	-0.008250	-0.900116	-0.068638
O8	O	0.325083	-0.566782	0.264695
O9	O	0.658417	-0.233449	0.598029
O10	O	0.212129	-0.887663	-0.068654
O11	O	0.545462	-0.554330	0.264679
O12	O	0.878795	-0.220997	0.598013
O13	O	-0.008257	-0.900100	0.068855
O14	O	0.325076	-0.566766	0.402189
O15	O	0.658409	-0.233433	0.735522
O16	O	0.108158	-0.783684	0.068834
O17	O	0.441492	-0.450351	0.402167
O18	O	0.774825	-0.117018	0.735500
O19	O	0.095706	-1.004063	0.068861
O20	O	0.429039	-0.670729	0.402194
O21	O	0.762372	-0.337396	0.735528
Cu22	Cu	0.101931	-0.893872	0.081401
Cu23	Cu	0.435265	-0.560539	0.414735
Cu24	Cu	0.768598	-0.227205	0.748068
Cu25	Cu	0.101940	-0.893891	-0.081200
Cu26	Cu	0.435273	-0.560558	0.252133
Cu27	Cu	0.768607	-0.227224	0.585467
O28	O	0.212121	-0.887647	0.068839
O29	O	0.545454	-0.554314	0.402173
O30	O	0.878788	-0.220981	0.735506
C31	C	-0.036451	-0.899662	0.000109
C32	C	0.296883	-0.566328	0.333442
C33	C	0.630216	-0.232995	0.666775
C34	C	-0.120469	-0.898323	0.000109
C35	C	0.212865	-0.564990	0.333442
C36	C	0.546198	-0.231656	0.666776
C37	C	0.107716	-0.755495	0.000084
C38	C	0.441049	-0.422162	0.333417
C39	C	0.774382	-0.088829	0.666750
C40	C	0.106377	-0.671477	0.000073
C41	C	0.439710	-0.338144	0.333407
C42	C	0.773044	-0.004811	0.666740
C43	C	0.096156	-1.032268	0.000116
C44	C	0.429489	-0.698934	0.333449
C45	C	0.762822	-0.365601	0.666783
C46	C	0.097494	-1.116286	0.000121
C47	C	0.430828	-0.782953	0.333454
C48	C	0.764161	-0.449619	0.666787
C49	C	-0.169090	-0.966656	0.000119
C50	C	0.164244	-0.633323	0.333452
C51	C	0.497577	-0.299990	0.666785
C52	C	-0.248033	-0.965394	0.000111
C53	C	0.085300	-0.632061	0.333444
C54	C	0.418634	-0.298727	0.666778
C55	C	-0.278354	-0.895798	0.000100
C56	C	0.054980	-0.562464	0.333433
C57	C	0.388313	-0.229131	0.666767
C58	C	-0.229727	-0.827459	0.000088
C59	C	0.103607	-0.494126	0.333421
C60	C	0.436940	-0.160792	0.666754
C61	C	-0.150785	-0.828722	0.000089
C62	C	0.182549	-0.495389	0.333423
C63	C	0.515882	-0.162055	0.666756
C64	C	-0.548090	-0.822364	0.000080
C65	C	-0.214756	-0.489030	0.333414
C66	C	0.118577	-0.155697	0.666747
C67	C	-0.627038	-0.821106	0.000081
C68	C	-0.293704	-0.487773	0.333415
C69	C	0.039629	-0.154439	0.666748
C70	C	-0.645338	-0.959036	0.000102
C71	C	-0.312004	-0.625703	0.333436
C72	C	0.021329	-0.292369	0.666769
C73	C	-0.566396	-0.960299	0.000104
C74	C	-0.233063	-0.626966	0.333437
C75	C	0.100271	-0.293632	0.666770
C76	C	-0.517776	-0.891961	0.000087
C77	C	-0.184442	-0.558627	0.333421
C78	C	0.148891	-0.225294	0.666754
C79	C	-0.432177	-0.893330	0.000094
C80	C	-0.098843	-0.559997	0.333427
C81	C	0.234490	-0.226664	0.666760
C82	C	-0.363951	-0.894427	0.000099
C83	C	-0.030618	-0.561094	0.333433
C84	C	0.302715	-0.227761	0.666766
C85	C	0.240322	-0.888102	0.000091
C86	C	0.573655	-0.554768	0.333424
C87	C	0.906989	-0.221435	0.666757
C88	C	0.324340	-0.889440	0.000085
C89	C	0.657673	-0.556107	0.333418
C90	C	0.991007	-0.222773	0.666752
N91	N	0.101925	-0.893864	0.195767
N92	N	0.435258	-0.560531	0.529100
N93	N	0.768591	-0.227198	0.862433
C94	C	0.174710	-0.622856	0.000069
C95	C	0.508044	-0.289523	0.333402
C96	C	0.841377	0.043810	0.666735
C97	C	0.173448	-0.543913	0.000079
C98	C	0.506782	-0.210580	0.333413
C99	C	0.840115	0.122754	0.666746
C100	C	0.103852	-0.513592	0.000089
C101	C	0.437185	-0.180259	0.333422
C102	C	0.770518	0.153074	0.666756
C103	C	0.035513	-0.562219	0.000096
C104	C	0.368846	-0.228886	0.333430
C105	C	0.702180	0.104447	0.666763
C106	C	0.036776	-0.641161	0.000091
C107	C	0.370109	-0.307828	0.333425
C108	C	0.703443	0.025505	0.666758
C109	C	0.030418	-0.243856	0.000117
C110	C	0.363751	0.089477	0.333450
C111	C	0.697085	0.422810	0.666784
C112	C	0.029160	-0.164908	0.000120
C113	C	0.362493	0.168425	0.333453
C114	C	0.695827	0.501758	0.666786
C115	C	0.167090	-0.146608	0.000105
C116	C	0.500423	0.186725	0.333438
C117	C	0.833757	0.520058	0.666772
C118	C	0.168353	-0.225550	0.000100
C119	C	0.501686	0.107783	0.333434
C120	C	0.835020	0.441117	0.666767
C121	C	0.100015	-0.274170	0.000112
C122	C	0.433348	0.059163	0.333445
C123	C	0.766681	0.392496	0.666778
C124	C	0.101384	-0.359769	0.000102
C125	C	0.434718	-0.026436	0.333435
C126	C	0.768051	0.306897	0.666768
C127	C	0.102481	-0.427995	0.000093
C128	C	0.435815	-0.094661	0.333427
C129	C	0.769148	0.238672	0.666760
N130	N	0.101941	-0.893905	-0.195565
N131	N	0.435274	-0.560571	0.137768
N132	N	0.768607	-0.227238	0.471101
C133	C	0.050397	-0.945429	0.239040
C134	C	0.383730	-0.612095	0.572374
C135	C	0.717064	-0.278762	0.905707
C136	C	0.050396	-0.945432	0.325588
C137	C	0.383729	-0.612099	0.658921
C138	C	0.717063	-0.278766	0.992254
C139	C	0.101927	-0.893875	0.368859
C140	C	0.435261	-0.560542	0.702193
C141	C	0.768594	-0.227208	1.035526
C142	C	0.153457	-0.842305	0.325579
C143	C	0.486791	-0.508972	0.658913
C144	C	0.820124	-0.175639	0.992246
C145	C	0.153454	-0.842299	0.239034
C146	C	0.486787	-0.508965	0.572367
C147	C	0.820121	-0.175632	0.905701
C148	C	0.153472	-0.842331	0.674608
C149	C	0.486805	-0.508998	1.007941
C150	C	0.820138	-0.175665	1.341274
C151	C	0.153473	-0.842344	0.761159
C152	C	0.486806	-0.509010	1.094493
C153	C	0.820139	-0.175677	1.427826
C154	C	0.050414	-0.945465	0.761161
C155	C	0.383747	-0.612132	1.094495
C156	C	0.717080	-0.278799	1.427828
C157	C	0.050410	-0.945458	0.674616
C158	C	0.383744	-0.612125	1.007949
C159	C	0.717077	-0.278792	1.341283
C160	C	0.101937	-0.893886	0.631344
C161	C	0.435271	-0.560553	0.964677
C162	C	0.768604	-0.227220	1.298010
C163	C	0.101937	-0.893882	0.537499
C164	C	0.435270	-0.560548	0.870833
C165	C	0.768603	-0.227215	1.204166
C166	C	0.101932	-0.893883	0.462702
C167	C	0.435265	-0.560549	0.796035
C168	C	0.768599	-0.227216	1.129369
H169	H	-0.287618	-1.021038	0.000121
H170	H	0.045716	-0.687705	0.333454
H171	H	0.379049	-0.354372	0.666787
H172	H	0.008451	-0.987444	0.639387
H173	H	0.341785	-0.654110	0.972720
H174	H	0.675118	-0.320777	1.306053
O175	O	-0.533700	-1.035368	0.000110
O176	O	-0.200367	-0.702034	0.333443
O177	O	0.132967	-0.368701	0.666776
H178	H	-0.498183	-1.039244	0.056153
H179	H	-0.164850	-0.705911	0.389486
H180	H	0.168483	-0.372577	0.722820
H181	H	0.225025	-0.250232	0.000089
H182	H	0.558359	0.083101	0.333422
H183	H	0.891692	0.416434	0.666755
O184	O	-0.005173	-1.001086	0.807832
O185	O	0.328161	-0.667753	1.141165
O186	O	0.661494	-0.334419	1.474498
H187	H	0.003477	-0.992426	0.875282
H188	H	0.336810	-0.659093	1.208616
H189	H	0.670144	-0.325760	1.541949
H190	H	-0.027517	-0.140225	0.000128
H191	H	0.305816	0.193108	0.333462
H192	H	0.639150	0.526442	0.666795
O193	O	-0.495652	-0.748661	0.000067
O194	O	-0.162319	-0.415328	0.333400
O195	O	0.171015	-0.081994	0.666734
H196	H	-0.459249	-0.745935	0.056103
H197	H	-0.125916	-0.412601	0.389436
H198	H	0.207417	-0.079268	0.722769
O199	O	-0.043286	-0.296293	0.000129
O200	O	0.290048	0.037041	0.333463
O201	O	0.623381	0.370374	0.666796
H202	H	-0.091890	-0.261944	0.000130
H203	H	0.241443	0.071390	0.333463
H204	H	0.574777	0.404723	0.666796
H205	H	0.195428	-0.800341	0.639382
H206	H	0.528761	-0.467008	0.972715
H207	H	0.862095	-0.133674	1.306049
O208	O	-0.005166	-1.001061	0.372265
O209	O	0.328167	-0.667728	0.705598
O210	O	0.661501	-0.334395	1.038931
H211	H	-0.040988	-1.036922	0.327636
H212	H	0.292345	-0.703588	0.660969
H213	H	0.625679	-0.370255	0.994302
H214	H	-0.018868	-0.680748	0.000095
H215	H	0.314465	-0.347415	0.333428
H216	H	0.647799	-0.014082	0.666761
H217	H	-0.144409	-1.023330	0.000133
H218	H	0.188924	-0.689997	0.333466
H219	H	0.522258	-0.356663	0.666799
O220	O	-0.697783	-1.032745	0.000116
O221	O	-0.364450	-0.699411	0.333449
O222	O	-0.031116	-0.366078	0.666783
H223	H	-0.663435	-1.081350	0.000136
H224	H	-0.330102	-0.748017	0.333469
H225	H	0.003232	-0.414683	0.666803
H226	H	-0.651721	-0.764429	0.000074
H227	H	-0.318388	-0.431096	0.333407
H228	H	0.014946	-0.097762	0.666741
O229	O	0.209066	-0.786745	0.807836
O230	O	0.542399	-0.453411	1.141170
O231	O	0.875733	-0.120078	1.474503
H232	H	0.244897	-0.750882	0.763208
H233	H	0.578230	-0.417549	1.096541
H234	H	0.911563	-0.084216	1.429874
H235	H	-0.254420	-0.770792	0.000073
H236	H	0.078913	-0.437459	0.333407
H237	H	0.412247	-0.104126	0.666740
O238	O	-0.005186	-1.001034	0.192369
O239	O	0.328147	-0.667701	0.525703
O240	O	0.661480	-0.334368	0.859036
H241	H	-0.041022	-1.036884	0.237004
H242	H	0.292311	-0.703551	0.570338
H243	H	0.625644	-0.370218	0.903671
O244	O	-0.098338	-0.755021	0.000088
O245	O	0.234996	-0.421687	0.333421
O246	O	0.568329	-0.088354	0.666755
H247	H	-0.132682	-0.706413	0.000090
H248	H	0.200651	-0.373080	0.333423
H249	H	0.533985	-0.039746	0.666756
O250	O	-0.039555	-0.529522	0.000110
O251	O	0.293778	-0.196189	0.333443
O252	O	0.627112	0.137144	0.666776
H253	H	-0.028955	-0.466461	0.000105
H254	H	0.304378	-0.133127	0.333438
H255	H	0.637712	0.200206	0.666771
H256	H	0.195413	-0.800323	0.360816
H257	H	0.528746	-0.466989	0.694150
H258	H	0.862079	-0.133656	1.027483
H259	H	0.231384	-0.647537	0.000060
H260	H	0.564717	-0.314204	0.333394
H261	H	0.898051	0.019130	0.666727
H262	H	0.195412	-0.800309	0.203801
H263	H	0.528746	-0.466975	0.537134
H264	H	0.862079	-0.133642	0.870468
O265	O	0.247150	-0.491469	0.000075
O266	O	0.580483	-0.158136	0.333408
O267	O	0.913817	0.175198	0.666741
H268	H	0.295756	-0.525815	0.000057
H269	H	0.629090	-0.192482	0.333391
H270	H	0.962423	0.140851	0.666724
O271	O	0.240803	-0.094169	0.000111
O272	O	0.574136	0.239164	0.333444
O273	O	0.907469	0.572498	0.666777
H274	H	0.228237	-0.034181	0.000128
H275	H	0.561570	0.299152	0.333461
H276	H	0.894904	0.632486	0.666795
