data_functionalizedCrystal
_audit_creation_method	'MofGen! by Chris Wilmer'
_symmetry_space_group_name_H-M	'P1'
_symmetry_Int_Tables_number	1
_symmetry_cell_setting	triclinic
loop_
_symmetry_equiv_pos_as_xyz
  x,y,z
_cell_length_a	38.077441
_cell_length_b	38.067025
_cell_length_c	38.076290
_cell_angle_alpha	90.000892
_cell_angle_beta	60.001272
_cell_angle_gamma	119.999932
loop_
_atom_site_label
_atom_site_type_symbol
_atom_site_fract_x
_atom_site_fract_y
_atom_site_fract_z
O1	O	0.309783	-0.240982	-0.010457
O2	O	0.237868	-0.189899	0.010390
O3	O	0.309775	-0.189899	-0.061524
O4	O	0.237876	-0.240982	0.061458
O5	O	0.251363	-0.248327	-0.061523
O6	O	0.179457	-0.248326	0.010391
O7	O	0.251371	-0.299409	-0.010456
Cu8	Cu	0.210080	-0.279202	-0.000032
Cu9	Cu	0.279159	-0.210106	-0.000033
O10	O	0.179465	-0.299409	0.061459
C11	C	0.057332	-0.025600	0.031586
C12	C	0.014770	-0.046936	0.031882
C13	C	0.057330	-0.089214	0.031589
C14	C	0.014768	-0.110453	0.031886
C15	C	-0.006264	-0.089213	0.031586
C16	C	0.078267	-0.046937	0.031885
C17	C	0.171860	0.127802	0.020069
C18	C	0.195274	0.171244	0.016812
C19	C	0.175179	0.193038	0.015176
C20	C	0.200569	0.240143	0.011637
C21	C	0.131666	0.171385	0.016800
C22	C	0.108252	0.127944	0.020063
C23	C	0.128351	0.106153	0.021697
C24	C	-0.148108	-0.128057	0.020069
C25	C	-0.188283	-0.148080	0.016813
C26	C	-0.208436	-0.189973	0.015178
C27	C	-0.251990	-0.211684	0.011642
C28	C	-0.188415	-0.211846	0.016805
C29	C	-0.148248	-0.191828	0.020068
C30	C	-0.128095	-0.149929	0.021698
C31	C	0.171851	-0.128062	0.020082
C32	C	0.195267	-0.148084	0.016823
C33	C	0.175169	-0.189979	0.015190
C34	C	0.200557	-0.211689	0.011655
C35	C	0.131660	-0.211849	0.016813
C36	C	0.108248	-0.191826	0.020070
C37	C	0.128346	-0.149933	0.021708
C38	C	0.102961	0.059050	0.025230
C39	C	0.082722	0.021503	0.028049
C40	C	0.082718	-0.110923	0.028055
C41	C	0.102954	-0.128226	0.025240
C42	C	-0.049818	-0.110921	0.028050
C43	C	-0.084537	-0.128223	0.025232
O44	O	-0.266249	-0.248318	0.010372
O45	O	-0.368381	-0.299399	-0.010483
O46	O	-0.368390	-0.299401	0.061435
O47	O	-0.266240	-0.248316	-0.061546
O48	O	-0.368389	-0.240974	0.061434
O49	O	-0.368380	-0.240972	-0.010484
O50	O	-0.266248	-0.189891	0.010371
Cu51	Cu	-0.317314	-0.210097	-0.000057
Cu52	Cu	-0.317315	-0.279194	-0.000055
O53	O	-0.266240	-0.189889	-0.061547
C54	C	0.057355	-0.025599	-0.406329
C55	C	0.078292	-0.046934	-0.427561
C56	C	-0.006243	-0.089212	-0.342736
C57	C	0.014791	-0.110451	-0.364065
C58	C	0.057355	-0.089212	-0.406329
C59	C	0.014791	-0.046934	-0.364065
C60	C	0.107702	0.127803	-0.445161
C61	C	0.130975	0.171245	-0.465177
C62	C	0.174494	0.193037	-0.507058
C63	C	0.199735	0.240142	-0.528760
C64	C	0.194736	0.171384	-0.528924
C65	C	0.171460	0.127944	-0.508910
C66	C	0.127941	0.106153	-0.467026
C67	C	0.171883	-0.128057	-0.509335
C68	C	0.195297	-0.148080	-0.529492
C69	C	0.175203	-0.189973	-0.507763
C70	C	0.200589	-0.211684	-0.529611
C71	C	0.131689	-0.211845	-0.465876
C72	C	0.108271	-0.191826	-0.445723
C73	C	0.128376	-0.149928	-0.467457
C74	C	-0.148095	-0.128056	-0.189380
C75	C	-0.188268	-0.148076	-0.145950
C76	C	-0.208421	-0.189971	-0.124163
C77	C	-0.251978	-0.211680	-0.077073
C78	C	-0.188398	-0.211842	-0.145808
C79	C	-0.148225	-0.191819	-0.189237
C80	C	-0.128079	-0.149927	-0.211021
C81	C	0.102708	0.059050	-0.445326
C82	C	0.082592	0.021504	-0.428029
C83	C	-0.049799	-0.110919	-0.295647
C84	C	-0.084519	-0.128221	-0.258112
C85	C	0.082745	-0.110919	-0.428180
C86	C	0.102983	-0.128222	-0.445600
C87	C	0.449898	-0.361071	-0.025332
C88	C	0.428866	-0.403348	-0.025630
C89	C	0.386299	-0.361073	-0.025327
C90	C	0.365364	-0.403350	-0.025625
C91	C	0.386302	-0.424685	-0.025331
C92	C	0.428864	-0.339833	-0.025627
C93	C	0.513473	-0.297314	-0.020173
C94	C	0.553649	-0.277152	-0.016918
C95	C	0.573800	-0.298887	-0.015286
C96	C	0.617360	-0.277029	-0.011755
C97	C	0.553782	-0.340786	-0.016914
C98	C	0.513609	-0.360946	-0.020171
C99	C	0.493455	-0.339211	-0.021799
C100	C	0.381310	-0.493436	-0.020174
C101	C	0.358035	-0.536879	-0.016918
C102	C	0.314520	-0.558669	-0.015282
C103	C	0.289281	-0.605774	-0.011749
C104	C	0.294277	-0.537019	-0.016906
C105	C	0.317552	-0.493577	-0.020164
C106	C	0.361066	-0.471787	-0.021796
C107	C	0.381302	-0.297318	-0.020163
C108	C	0.358020	-0.277159	-0.016897
C109	C	0.314505	-0.298897	-0.015261
C110	C	0.289263	-0.277041	-0.011724
C111	C	0.294264	-0.340793	-0.016887
C112	C	0.317542	-0.360954	-0.020151
C113	C	0.361061	-0.339215	-0.021789
O114	O	0.251388	0.378693	-0.010478
O115	O	0.179475	0.255676	0.010365
O116	O	0.251384	0.327603	-0.061548
O117	O	0.179478	0.306766	0.061435
O118	O	0.309793	0.327601	-0.061546
O119	O	0.237883	0.255675	0.010367
O120	O	0.309797	0.378691	-0.010476
Cu121	Cu	0.279173	0.317183	-0.000054
Cu122	Cu	0.210098	0.317185	-0.000057
O123	O	0.237887	0.306765	0.061437
O124	O	0.251398	-0.299409	-0.558307
O125	O	0.179492	-0.248317	-0.507245
O126	O	0.251395	-0.248322	-0.507233
O127	O	0.179495	-0.299404	-0.558318
O128	O	0.309809	-0.189897	-0.565643
O129	O	0.237906	-0.189892	-0.565655
O130	O	0.309812	-0.240984	-0.616717
Cu131	Cu	0.279193	-0.210103	-0.596519
Cu132	Cu	0.210111	-0.279198	-0.527442
O133	O	0.237910	-0.240979	-0.616729
O134	O	0.309551	0.378694	-0.616442
O135	O	0.237633	0.255675	-0.565381
O136	O	0.309531	0.327598	-0.565359
O137	O	0.237653	0.306771	-0.616464
O138	O	0.251112	0.327596	-0.506954
O139	O	0.179214	0.255673	-0.506976
O140	O	0.251132	0.378691	-0.558037
Cu141	Cu	0.209839	0.317182	-0.527174
Cu142	Cu	0.278926	0.317185	-0.596244
O143	O	0.179234	0.306769	-0.558059
C144	C	0.039384	-0.424686	0.321621
C145	C	0.060418	-0.403350	0.342854
C146	C	0.102973	-0.361074	0.258027
C147	C	0.123911	-0.339835	0.279356
C148	C	0.102979	-0.361073	0.321621
C149	C	0.060412	-0.403351	0.279356
C150	C	-0.024189	-0.493438	0.321455
C151	C	-0.064362	-0.536882	0.341473
C152	C	-0.084507	-0.558670	0.383351
C153	C	-0.128063	-0.605774	0.405057
C154	C	-0.064486	-0.537018	0.405220
C155	C	-0.024317	-0.493577	0.385204
C156	C	-0.004169	-0.471789	0.343321
C157	C	0.107980	-0.361238	0.385359
C158	C	0.131258	-0.341214	0.405515
C159	C	0.174770	-0.299323	0.383784
C160	C	0.200013	-0.277610	0.405635
C161	C	0.195008	-0.277449	0.341898
C162	C	0.171730	-0.297472	0.321744
C163	C	0.128218	-0.339366	0.343475
C164	C	0.107963	-0.361240	0.189294
C165	C	0.131238	-0.341218	0.145860
C166	C	0.174750	-0.299328	0.124078
C167	C	0.199986	-0.277616	0.076986
C168	C	0.194993	-0.277455	0.145722
C169	C	0.171721	-0.297475	0.189153
C170	C	0.128206	-0.339368	0.210937
C171	C	-0.613708	-0.361071	0.321593
C172	C	-0.634644	-0.403348	0.342825
C173	C	-0.550110	-0.361070	0.258000
C174	C	-0.571143	-0.403348	0.279329
C175	C	-0.613707	-0.424683	0.321593
C176	C	-0.571144	-0.339831	0.279329
C177	C	-0.618704	-0.297315	0.321427
C178	C	-0.641980	-0.277153	0.341445
C179	C	-0.685495	-0.298890	0.383323
C180	C	-0.710736	-0.277033	0.405028
C181	C	-0.705737	-0.340789	0.405190
C182	C	-0.682460	-0.360948	0.385174
C183	C	-0.638946	-0.339211	0.343293
C184	C	-0.682608	-0.493436	0.385328
C185	C	-0.706021	-0.536880	0.405483
C186	C	-0.685923	-0.558668	0.383753
C187	C	-0.711309	-0.605773	0.405603
C188	C	-0.642408	-0.537017	0.341867
C189	C	-0.618995	-0.493575	0.321714
C190	C	-0.639096	-0.471786	0.343445
C191	C	-0.486534	-0.297314	0.189268
C192	C	-0.446362	-0.277154	0.145836
C193	C	-0.426212	-0.298890	0.124053
C194	C	-0.382652	-0.277033	0.076962
C195	C	-0.446231	-0.340787	0.145696
C196	C	-0.486404	-0.360949	0.189127
C197	C	-0.506554	-0.339210	0.210911
C198	C	0.102998	0.291951	0.321595
C199	C	0.060439	0.291659	0.342826
C200	C	0.102991	0.291940	0.258001
C201	C	0.060432	0.291648	0.279328
C202	C	0.039405	0.291953	0.321592
C203	C	0.123929	0.291646	0.279331
C204	C	0.171896	0.297112	0.321432
C205	C	0.195311	0.300373	0.341450
C206	C	0.175219	0.302015	0.383328
C207	C	0.200607	0.305554	0.405035
C208	C	0.131709	0.300393	0.405194
C209	C	0.108294	0.297130	0.385177
C210	C	0.128389	0.295491	0.343296
C211	C	-0.024159	0.297128	0.385326
C212	C	-0.064330	0.300391	0.405479
C213	C	-0.084480	0.302022	0.383747
C214	C	-0.128034	0.305562	0.405596
C215	C	-0.064467	0.300387	0.341863
C216	C	-0.024299	0.297122	0.321711
C217	C	-0.004146	0.295495	0.343443
C218	C	0.171881	0.297088	0.189271
C219	C	0.195293	0.300344	0.145838
C220	C	0.175195	0.301976	0.124055
C221	C	0.200575	0.305502	0.076964
C222	C	0.131689	0.300355	0.145696
C223	C	0.108277	0.297101	0.189127
C224	C	0.128375	0.295468	0.210912
C225	C	0.431877	-0.088954	-0.406312
C226	C	0.474438	-0.046677	-0.427545
C227	C	0.431883	-0.088952	-0.342718
C228	C	0.474444	-0.046675	-0.364047
C229	C	0.495472	-0.025341	-0.406312
C230	C	0.410945	-0.110192	-0.364047
C231	C	0.317346	-0.191995	-0.445144
C232	C	0.293930	-0.212159	-0.465160
C233	C	0.314022	-0.190423	-0.507043
C234	C	0.288631	-0.212281	-0.528745
C235	C	0.357534	-0.148524	-0.528909
C236	C	0.380950	-0.128365	-0.508895
C237	C	0.360854	-0.150103	-0.467010
C238	C	0.637309	0.128059	-0.509322
C239	C	0.677481	0.171500	-0.529480
C240	C	0.697636	0.193295	-0.507751
C241	C	0.741188	0.240398	-0.529600
C242	C	0.677618	0.171643	-0.465863
C243	C	0.637453	0.128201	-0.445710
C244	C	0.617298	0.106412	-0.467444
C245	C	0.317372	-0.191990	-0.189359
C246	C	0.293959	-0.212151	-0.145928
C247	C	0.314058	-0.190414	-0.124142
C248	C	0.288673	-0.212270	-0.077050
C249	C	0.357566	-0.148516	-0.145787
C250	C	0.380975	-0.128357	-0.189217
C251	C	0.360876	-0.150099	-0.211001
C252	C	0.386245	-0.128239	-0.445310
C253	C	0.406485	-0.110813	-0.428012
C254	C	0.406499	-0.110811	-0.295628
C255	C	0.386264	-0.128235	-0.258093
C256	C	0.539025	0.021762	-0.428165
C257	C	0.573742	0.059308	-0.445585
O258	O	-0.244455	-0.744323	0.492749
O259	O	-0.142317	-0.621308	0.441678
O260	O	-0.142314	-0.693237	0.441674
O261	O	-0.244458	-0.672393	0.492753
O262	O	-0.142320	-0.693239	0.383265
O263	O	-0.142323	-0.621309	0.383269
O264	O	-0.244461	-0.744325	0.434339
Cu265	Cu	-0.193393	-0.682817	0.403471
Cu266	Cu	-0.193386	-0.682815	0.472547
O267	O	-0.244464	-0.672395	0.434344
C268	C	0.495209	0.348754	-0.406326
C269	C	0.474175	0.349048	-0.427560
C270	C	0.431622	0.348767	-0.342735
C271	C	0.410685	0.349060	-0.364065
C272	C	0.431615	0.348755	-0.406329
C273	C	0.474182	0.349059	-0.364062
C274	C	0.637047	0.337228	-0.445152
C275	C	0.677218	0.333967	-0.465166
C276	C	0.697365	0.332324	-0.507047
C277	C	0.740915	0.328781	-0.528747
C278	C	0.677341	0.333946	-0.528914
C279	C	0.637177	0.337212	-0.508902
C280	C	0.617030	0.338853	-0.467019
C281	C	0.381256	0.337220	-0.509339
C282	C	0.357982	0.333960	-0.529497
C283	C	0.314468	0.332328	-0.507770
C284	C	0.289225	0.328788	-0.529620
C285	C	0.294232	0.333962	-0.465883
C286	C	0.317510	0.337229	-0.445729
C287	C	0.361024	0.338855	-0.467462
C288	C	0.381292	0.337278	-0.189379
C289	C	0.358021	0.334024	-0.145948
C290	C	0.314507	0.332394	-0.124163
C291	C	0.289272	0.328864	-0.077073
C292	C	0.294264	0.334014	-0.145809
C293	C	0.317535	0.337266	-0.189238
C294	C	0.361053	0.338902	-0.211021
C295	C	0.573476	0.342391	-0.445321
C296	C	0.538760	0.345213	-0.428025
C297	C	0.406391	0.345239	-0.295646
C298	C	0.386280	0.342428	-0.258111
C299	C	0.406376	0.345215	-0.428182
C300	C	0.386259	0.342394	-0.445603
H301	H	-0.131952	-0.209640	0.021395
H302	H	0.072529	-0.395350	0.207029
H303	H	0.230715	0.301661	0.128222
C304	C	-0.125944	-0.081973	0.021866
C305	C	-0.081756	-0.059947	0.025448
C306	C	-0.059589	-0.013863	0.027244
C307	C	-0.081610	0.010195	0.025458
C308	C	-0.125800	-0.011831	0.021875
C309	C	-0.147967	-0.057915	0.020080
H310	H	-0.065452	-0.077756	0.026771
H311	H	-0.026876	0.002442	0.029896
H312	H	-0.065200	0.044309	0.026787
H313	H	-0.142104	0.005978	0.020553
H314	H	-0.180680	-0.074220	0.017428
C315	C	0.193963	-0.081977	0.021876
C316	C	0.241825	-0.057916	0.020084
C317	C	0.263936	-0.011831	0.021875
C318	C	0.238184	0.010194	0.025459
C319	C	0.190318	-0.013867	0.027252
C320	C	0.168208	-0.059953	0.025460
H321	H	0.260891	-0.074220	0.017431
H322	H	0.299369	0.005981	0.020548
H323	H	0.254551	0.044309	0.026785
H324	H	0.171253	0.002437	0.029905
H325	H	0.132775	-0.077764	0.026787
H326	H	-0.625496	-0.243040	0.323638
C327	C	0.380237	0.332158	-0.575566
C328	C	0.386291	0.295542	-0.585406
C329	C	0.408546	0.293738	-0.631476
C330	C	0.424746	0.328551	-0.667705
C331	C	0.418692	0.365171	-0.657866
C332	C	0.396437	0.366974	-0.611797
H333	H	0.374299	0.269768	-0.558587
H334	H	0.413027	0.266630	-0.638759
H335	H	0.441220	0.327216	-0.701808
H336	H	0.430684	0.390944	-0.684686
H337	H	0.391956	0.394082	-0.604513
H338	H	-0.204580	-0.130268	0.015487
H339	H	0.301032	0.338559	-0.411626
H340	H	0.258503	-0.246273	-0.447354
H341	H	0.693750	0.332611	-0.563014
C342	C	0.575666	-0.231068	-0.015126
C343	C	0.597314	-0.193971	-0.052623
C344	C	0.619335	-0.147885	-0.050834
C345	C	0.619709	-0.138896	-0.011547
C346	C	0.598061	-0.175994	0.025953
C347	C	0.576040	-0.222080	0.024164
H348	H	0.597038	-0.200624	-0.081708
H349	H	0.635361	-0.120423	-0.078594
H350	H	0.636011	-0.104780	-0.010223
H351	H	0.598337	-0.169341	0.055038
H352	H	0.560014	-0.249543	0.051924
H353	H	0.072866	0.295806	0.402983
C354	C	0.615152	0.338996	-0.532953
C355	C	0.637308	0.337188	-0.579019
C356	C	0.615281	0.338969	-0.603069
C357	C	0.571098	0.342558	-0.581054
C358	C	0.548939	0.344366	-0.534986
C359	C	0.570966	0.342585	-0.510935
H360	H	0.670017	0.334530	-0.595318
H361	H	0.631685	0.337630	-0.637172
H362	H	0.554793	0.343877	-0.598858
H363	H	0.516230	0.347024	-0.518687
H364	H	0.554562	0.343924	-0.476832
C365	C	-0.001995	0.295331	0.409233
C366	C	-0.034696	0.258719	0.451865
C367	C	-0.012530	0.256926	0.475772
C368	C	0.042338	0.291744	0.457047
C369	C	0.075043	0.328359	0.414412
C370	C	0.052877	0.330153	0.390505
H371	H	-0.075316	0.232942	0.465729
H372	H	-0.036740	0.229821	0.507333
H373	H	0.058747	0.290417	0.474744
H374	H	0.115663	0.354137	0.400549
H375	H	0.077087	0.357257	0.358944
H376	H	0.114774	-0.359027	0.439619
C377	C	-0.571134	-0.469755	0.275642
C378	C	-0.571546	-0.485599	0.238549
C379	C	-0.523686	-0.461779	0.192476
C380	C	-0.475414	-0.422115	0.183494
C381	C	-0.475001	-0.406269	0.220588
C382	C	-0.522860	-0.430089	0.266662
H383	H	-0.607281	-0.514963	0.245197
H384	H	-0.523992	-0.473509	0.165017
H385	H	-0.439985	-0.404482	0.149388
H386	H	-0.439265	-0.376906	0.213941
H387	H	-0.522554	-0.418359	0.294121
H388	H	0.230428	-0.243344	0.127982
H389	H	0.072852	0.295782	0.206746
C390	C	0.246101	-0.258237	-0.122119
C391	C	0.199648	-0.268097	-0.118331
C392	C	0.151791	-0.314184	-0.094522
C393	C	0.150387	-0.350412	-0.074501
C394	C	0.196841	-0.340553	-0.078288
C395	C	0.244699	-0.294465	-0.102097
H396	H	0.200686	-0.241278	-0.133152
H397	H	0.117402	-0.321482	-0.091719
H398	H	0.114960	-0.384529	-0.056877
H399	H	0.195803	-0.367372	-0.063467
H400	H	0.279087	-0.287167	-0.104900
C401	C	0.243126	-0.124028	0.015039
C402	C	0.289577	-0.081351	-0.021556
C403	C	0.337435	-0.057296	-0.023338
C404	C	0.338842	-0.075916	0.011475
C405	C	0.292389	-0.118594	0.048073
C406	C	0.244531	-0.142650	0.049855
H407	H	0.288538	-0.067566	-0.047330
H408	H	0.371823	-0.025702	-0.050430
H409	H	0.374269	-0.058108	0.010156
H410	H	0.293428	-0.132380	0.073847
H411	H	0.210143	-0.174244	0.076947
C412	C	0.036648	-0.426486	0.389767
C413	C	0.031792	-0.468180	0.401295
C414	C	0.008025	-0.491314	0.448205
C415	C	-0.010886	-0.472753	0.483587
C416	C	-0.006031	-0.431057	0.472060
C417	C	0.017736	-0.407924	0.425149
H418	H	0.045792	-0.481922	0.375102
H419	H	0.004432	-0.522180	0.456738
H420	H	-0.028480	-0.489878	0.518313
H421	H	-0.020031	-0.417315	0.498252
H422	H	0.021329	-0.377057	0.416616
H423	H	0.570195	-0.358482	-0.015585
C424	C	0.243139	0.195062	0.015020
C425	C	0.289585	0.198846	-0.021582
C426	C	0.337451	0.222664	-0.023376
C427	C	0.338870	0.242697	0.011432
C428	C	0.292421	0.238913	0.048036
C429	C	0.244556	0.215095	0.049830
H430	H	0.288536	0.184016	-0.047351
H431	H	0.371835	0.225465	-0.050473
H432	H	0.374302	0.260328	0.010104
H433	H	0.293470	0.253743	0.073806
H434	H	0.210172	0.212294	0.076927
H435	H	0.491778	0.349524	-0.462287
H436	H	0.042805	-0.420482	0.262234
H437	H	-0.204567	-0.130265	-0.128329
C438	C	0.193980	-0.273416	0.275674
C439	C	0.210170	-0.292034	0.239450
C440	C	0.232417	-0.267978	0.193381
C441	C	0.238474	-0.225306	0.183536
C442	C	0.222283	-0.206686	0.219762
C443	C	0.200036	-0.230741	0.265831
H444	H	0.205687	-0.323625	0.246737
H445	H	0.244402	-0.281762	0.166564
H446	H	0.254942	-0.207499	0.149433
H447	H	0.226767	-0.175095	0.212475
H448	H	0.188051	-0.216957	0.292647
C449	C	-0.680914	-0.426493	0.389737
C450	C	-0.678838	-0.407938	0.425125
C451	C	-0.725106	-0.431085	0.472035
C452	C	-0.773450	-0.472787	0.483557
C453	C	-0.775528	-0.491345	0.448169
C454	C	-0.729260	-0.468198	0.401259
H455	H	-0.643049	-0.377065	0.416596
H456	H	-0.723567	-0.417347	0.498232
H457	H	-0.807700	-0.489922	0.518283
H458	H	-0.811317	-0.522218	0.456697
H459	H	-0.730799	-0.481936	0.375062
C460	C	0.429181	-0.469465	-0.021976
C461	C	0.430516	-0.449403	0.012836
C462	C	0.478385	-0.425433	0.011038
C463	C	0.524918	-0.421526	-0.025572
C464	C	0.523583	-0.441589	-0.060387
C465	C	0.475715	-0.465558	-0.058589
H466	H	0.396069	-0.452295	0.039940
H467	H	0.479372	-0.410581	0.036810
H468	H	0.560353	-0.403782	-0.026904
H469	H	0.558031	-0.438697	-0.087491
H470	H	0.474728	-0.480410	-0.084362
H471	H	0.620904	0.110320	-0.527022
H472	H	0.188247	0.295756	0.207007
H473	H	0.416728	0.338612	-0.207113
H474	H	-0.008021	-0.475948	0.403012
C475	C	0.246369	0.332170	-0.441982
C476	C	0.245034	0.366985	-0.460713
C477	C	0.197169	0.365191	-0.436810
C478	C	0.150639	0.328581	-0.394176
C479	C	0.151972	0.293763	-0.375443
C480	C	0.199838	0.295558	-0.399345
H481	H	0.279480	0.394088	-0.492275
H482	H	0.196182	0.390965	-0.450678
H483	H	0.115206	0.327253	-0.376482
H484	H	0.117527	0.266660	-0.343880
H485	H	0.200825	0.269783	-0.385477
H486	H	0.072818	-0.209638	0.021396
C487	C	0.380303	-0.560692	-0.015131
C488	C	0.433236	-0.544843	-0.052632
C489	C	0.455501	-0.568659	-0.050845
C490	C	0.424833	-0.608324	-0.011557
C491	C	0.371898	-0.624175	0.025946
C492	C	0.349633	-0.600359	0.024160
H493	H	0.455940	-0.515478	-0.081717
H494	H	0.494687	-0.556924	-0.078608
H495	H	0.441315	-0.625954	-0.010234
H496	H	0.349193	-0.653539	0.055032
H497	H	0.310447	-0.612093	0.051922
H498	H	0.188230	0.110063	0.021400
H499	H	0.187942	0.110317	-0.526716
C500	C	0.699496	0.195317	-0.575551
C501	C	0.721151	0.179471	-0.612644
C502	C	0.743164	0.203288	-0.658715
C503	C	0.743523	0.242951	-0.667693
C504	C	0.721867	0.258799	-0.630598
C505	C	0.699854	0.234982	-0.584527
H506	H	0.720886	0.150108	-0.605999
H507	H	0.759195	0.191556	-0.686175
H508	H	0.759819	0.260581	-0.701797
H509	H	0.722132	0.288161	-0.637243
H510	H	0.683823	0.246714	-0.557068
C511	C	0.295277	-0.407040	-0.021939
C512	C	0.325941	-0.416030	-0.061230
C513	C	0.303674	-0.462117	-0.063017
C514	C	0.250744	-0.499213	-0.025515
C515	C	0.220077	-0.490224	0.013779
C516	C	0.242343	-0.444138	0.015566
H517	H	0.365126	-0.388568	-0.088994
H518	H	0.326376	-0.468771	-0.092105
H519	H	0.234260	-0.533329	-0.026838
H520	H	0.180891	-0.517686	0.041543
H521	H	0.219641	-0.437484	0.044654
H522	H	0.072841	-0.209638	-0.411621
C523	C	0.109562	0.195356	0.015001
C524	C	0.140343	0.235055	-0.024293
C525	C	0.118237	0.259026	-0.026093
C526	C	0.065351	0.243298	0.011401
C527	C	0.034568	0.203597	0.050698
C528	C	0.056673	0.179626	0.052498
H529	H	0.179495	0.246700	-0.052052
H530	H	0.141025	0.288415	-0.055184
H531	H	0.048988	0.261042	0.010069
H532	H	-0.004584	0.191952	0.078457
H533	H	0.033885	0.150236	0.081589
C534	C	0.295270	0.339052	-0.213049
C535	C	0.247410	0.337262	-0.189090
C536	C	0.225145	0.339049	-0.212901
C537	C	0.250740	0.342625	-0.260670
C538	C	0.298603	0.344416	-0.284631
C539	C	0.320869	0.342629	-0.260821
H540	H	0.228460	0.334614	-0.153726
H541	H	0.189713	0.337723	-0.195163
H542	H	0.234258	0.343947	-0.278296
H543	H	0.317553	0.347063	-0.319995
H544	H	0.356300	0.343955	-0.278559
H545	H	-0.007789	-0.475699	0.287353
C546	C	0.380288	-0.231074	-0.015111
C547	C	0.433214	-0.193975	-0.052617
C548	C	0.455480	-0.147889	-0.050828
C549	C	0.424819	-0.138902	-0.011532
C550	C	0.371889	-0.176002	0.025977
C551	C	0.349624	-0.222088	0.024187
H552	H	0.455914	-0.200626	-0.081709
H553	H	0.494662	-0.120425	-0.078595
H554	H	0.441301	-0.104786	-0.010208
H555	H	0.349189	-0.169351	0.055068
H556	H	0.310441	-0.249552	0.051955
C557	C	0.246398	0.332222	-0.121851
C558	C	0.245068	0.367047	-0.101799
C559	C	0.197205	0.365255	-0.077842
C560	C	0.150671	0.328638	-0.073938
C561	C	0.151999	0.293810	-0.093990
C562	C	0.199863	0.295602	-0.117947
H563	H	0.279517	0.394156	-0.104689
H564	H	0.196222	0.391037	-0.062998
H565	H	0.115239	0.327312	-0.056204
H566	H	0.117551	0.266702	-0.091100
H567	H	0.200846	0.269820	-0.132791
C568	C	-0.086646	-0.560989	0.451289
C569	C	-0.053935	-0.564886	0.461210
C570	C	-0.076093	-0.588854	0.507279
C571	C	-0.130961	-0.608924	0.543426
C572	C	-0.163675	-0.605027	0.533506
C573	C	-0.141517	-0.581059	0.487437
H574	H	-0.013316	-0.550029	0.434451
H575	H	-0.051876	-0.591738	0.514623
H576	H	-0.147363	-0.626666	0.577529
H577	H	-0.204294	-0.619884	0.560265
H578	H	-0.165734	-0.578174	0.480094
H579	H	-0.002834	-0.145190	0.032364
C580	C	-0.210582	-0.257929	0.015009
C581	C	-0.265451	-0.294081	0.049815
C582	C	-0.287617	-0.340164	0.048016
C583	C	-0.254914	-0.350095	0.011411
C584	C	-0.200042	-0.313942	-0.023398
C585	C	-0.177876	-0.267859	-0.021599
H586	H	-0.289663	-0.286731	0.076915
H587	H	-0.328237	-0.366927	0.073784
H588	H	-0.271322	-0.384208	0.010079
H589	H	-0.175830	-0.321292	-0.050498
H590	H	-0.137256	-0.241096	-0.047367
C591	C	0.498225	-0.023534	-0.340913
C592	C	0.503093	0.018167	-0.334251
C593	C	0.526873	0.041308	-0.311118
C594	C	0.545784	0.022748	-0.294646
C595	C	0.540916	-0.018955	-0.301308
C596	C	0.517136	-0.042096	-0.324441
H597	H	0.489094	0.031908	-0.346445
H598	H	0.530476	0.072180	-0.306187
H599	H	0.563386	0.039879	-0.277521
H600	H	0.554915	-0.032696	-0.289114
H601	H	0.513533	-0.072967	-0.329372
C602	C	0.109545	-0.257935	0.015016
C603	C	0.093454	-0.294093	0.049825
C604	C	0.071338	-0.340176	0.048027
C605	C	0.065313	-0.350101	0.011419
C606	C	0.081405	-0.313941	-0.023394
C607	C	0.103521	-0.267858	-0.021595
H608	H	0.097913	-0.286747	0.076927
H609	H	0.059426	-0.366944	0.073798
H610	H	0.048942	-0.384214	0.010087
H611	H	0.076946	-0.321287	-0.050496
H612	H	0.115433	-0.241091	-0.047366
C613	C	0.295252	-0.215899	-0.213318
C614	C	0.247386	-0.261978	-0.189508
C615	C	0.225264	-0.285881	-0.213466
C616	C	0.251008	-0.263705	-0.261234
C617	C	0.298877	-0.217624	-0.285047
C618	C	0.320999	-0.193720	-0.261089
H619	H	0.228326	-0.278396	-0.154144
H620	H	0.189828	-0.319994	-0.195838
H621	H	0.234632	-0.281400	-0.278970
H622	H	0.317936	-0.201205	-0.320411
H623	H	0.356434	-0.159608	-0.278717
C624	C	-0.086341	0.302189	0.451550
C625	C	-0.053526	0.338805	0.461395
C626	C	-0.075542	0.340603	0.507467
C627	C	-0.130372	0.305786	0.543692
C628	C	-0.163191	0.269168	0.533847
C629	C	-0.141175	0.267370	0.487776
H630	H	-0.012934	0.364581	0.434578
H631	H	-0.051247	0.367710	0.514754
H632	H	-0.146669	0.307117	0.577797
H633	H	-0.203782	0.243392	0.560665
H634	H	-0.165470	0.240263	0.480488
H635	H	0.374505	0.332702	-0.128326
C636	C	-0.008989	-0.157378	-0.340934
C637	C	-0.055902	-0.180842	-0.294345
C638	C	-0.079680	-0.227768	-0.271218
C639	C	-0.056547	-0.251230	-0.294679
C640	C	-0.009632	-0.227765	-0.341271
C641	C	0.014147	-0.180839	-0.364398
H642	H	-0.073029	-0.163475	-0.276976
H643	H	-0.114410	-0.245138	-0.236727
H644	H	-0.074149	-0.285967	-0.277558
H645	H	0.007495	-0.245133	-0.358640
H646	H	0.048876	-0.163470	-0.398889
C647	C	0.699787	0.195612	-0.441960
C648	C	0.721559	0.179882	-0.426570
C649	C	0.743727	0.203853	-0.402666
C650	C	0.744124	0.243554	-0.394151
C651	C	0.722352	0.259286	-0.409542
C652	C	0.700183	0.235315	-0.433446
H653	H	0.721266	0.150491	-0.432872
H654	H	0.759845	0.192206	-0.391273
H655	H	0.760534	0.261298	-0.376456
H656	H	0.722645	0.288677	-0.403239
H657	H	0.684066	0.246961	-0.444839
C658	C	-0.547355	-0.292904	0.256190
C659	C	-0.577496	-0.281360	0.249508
C660	C	-0.553703	-0.234434	0.226368
C661	C	-0.499770	-0.199052	0.209909
C662	C	-0.469625	-0.210595	0.216591
C663	C	-0.493418	-0.257521	0.239731
H664	H	-0.617423	-0.307553	0.261692
H665	H	-0.576019	-0.225889	0.221422
H666	H	-0.482157	-0.164314	0.192779
H667	H	-0.429698	-0.184402	0.204407
H668	H	-0.471103	-0.266065	0.244677
C669	C	-0.086382	-0.560698	0.317420
C670	C	-0.108038	-0.544849	0.301986
C671	C	-0.130063	-0.568668	0.277935
C672	C	-0.130431	-0.608335	0.269318
C673	C	-0.108774	-0.624186	0.284752
C674	C	-0.086750	-0.600367	0.308803
H675	H	-0.107766	-0.515484	0.308364
H676	H	-0.146094	-0.556934	0.266510
H677	H	-0.146735	-0.625967	0.251514
H678	H	-0.109046	-0.653552	0.278374
H679	H	-0.070718	-0.612101	0.320228
C680	C	0.193996	0.295303	0.275365
C681	C	0.200011	0.258680	0.265445
C682	C	0.222115	0.256875	0.219376
C683	C	0.238204	0.291692	0.183227
C684	C	0.232189	0.328317	0.193145
C685	C	0.210086	0.330122	0.239214
H686	H	0.188101	0.232904	0.292206
H687	H	0.226567	0.229763	0.212034
H688	H	0.254566	0.290356	0.149124
H689	H	0.244100	0.354093	0.166385
H690	H	0.205634	0.357235	0.246557
H691	H	0.373929	-0.130815	-0.128045
C692	C	-0.753609	-0.364701	0.451259
C693	C	-0.754954	-0.345974	0.487408
C694	C	-0.802825	-0.369888	0.533475
C695	C	-0.849351	-0.412531	0.543394
C696	C	-0.848008	-0.431261	0.507244
C697	C	-0.800137	-0.407346	0.461176
H698	H	-0.720511	-0.314405	0.480066
H699	H	-0.803818	-0.356023	0.560236
H700	H	-0.884788	-0.430234	0.577496
H701	H	-0.882451	-0.462829	0.514586
H702	H	-0.799143	-0.421211	0.434416
H703	H	0.416688	0.338547	-0.527038
C704	C	-0.008975	-0.023787	-0.340921
C705	C	0.014172	0.022823	-0.364366
C706	C	-0.009586	0.045973	-0.341218
C707	C	-0.056491	0.022511	-0.294625
C708	C	-0.079640	-0.024102	-0.271178
C709	C	-0.055883	-0.047251	-0.294326
H710	H	0.048896	0.040193	-0.398859
H711	H	0.007552	0.080479	-0.358576
H712	H	-0.074077	0.039647	-0.277490
H713	H	-0.114365	-0.041472	-0.236685
H714	H	-0.073020	-0.081758	-0.276968
C715	C	0.246394	-0.364709	-0.015087
C716	C	0.198193	-0.373224	0.024207
C717	C	0.150324	-0.397137	0.026005
C718	C	0.150657	-0.412536	-0.011491
C719	C	0.198860	-0.404022	-0.050787
C720	C	0.246729	-0.380108	-0.052585
H721	H	0.197944	-0.361824	0.051966
H722	H	0.114641	-0.403440	0.055095
H723	H	0.115222	-0.430238	-0.010160
H724	H	0.199109	-0.415421	-0.078546
H725	H	0.282412	-0.373806	-0.081675
C726	C	0.243168	0.302158	0.317400
C727	C	0.242750	0.264643	0.301971
C728	C	0.290607	0.266425	0.277922
C729	C	0.338882	0.305722	0.269303
C730	C	0.339302	0.343240	0.284732
C731	C	0.291445	0.341458	0.308780
H732	H	0.207012	0.235550	0.308352
H733	H	0.290296	0.238651	0.266501
H734	H	0.374309	0.307041	0.251500
H735	H	0.375040	0.372332	0.278351
H736	H	0.291756	0.369231	0.320202
C737	C	0.497953	0.349697	-0.340922
C738	C	0.544853	0.350001	-0.364368
C739	C	0.568619	0.350633	-0.341226
C740	C	0.545484	0.350960	-0.294636
C741	C	0.498582	0.350656	-0.271187
C742	C	0.474817	0.350025	-0.294330
H743	H	0.561981	0.349758	-0.398859
H744	H	0.603339	0.350858	-0.358584
H745	H	0.563077	0.351428	-0.277505
H746	H	0.481455	0.350899	-0.236697
H747	H	0.440097	0.349800	-0.276971
C748	C	0.243163	-0.124020	-0.575561
C749	C	0.242761	-0.108579	-0.612657
C750	C	0.290629	-0.084519	-0.658726
C751	C	0.338897	-0.075899	-0.667700
C752	C	0.339301	-0.091340	-0.630604
C753	C	0.291433	-0.115401	-0.584534
H754	H	0.207029	-0.114960	-0.606015
H755	H	0.290330	-0.073088	-0.686188
H756	H	0.374331	-0.058087	-0.701804
H757	H	0.375033	-0.084959	-0.637246
H758	H	0.291732	-0.126831	-0.557073
H759	H	0.230439	-0.243336	0.324207
H760	H	-0.698947	-0.395064	0.402978
H761	H	0.042840	0.291184	0.377553
H762	H	-0.002832	-0.029805	0.032362
H763	H	0.115325	0.301687	0.127956
H764	H	0.072549	-0.395349	0.403057
H765	H	0.497312	-0.395060	-0.021497
C766	C	-0.424343	-0.231068	0.122033
C767	C	-0.457158	-0.221213	0.118252
C768	C	-0.435140	-0.175127	0.094448
C769	C	-0.380308	-0.138895	0.074424
C770	C	-0.347489	-0.148750	0.078204
C771	C	-0.369507	-0.194836	0.102009
H772	H	-0.497751	-0.248034	0.133076
H773	H	-0.459435	-0.167832	0.091649
H774	H	-0.364009	-0.104780	0.056802
H775	H	-0.306896	-0.121928	0.063381
H776	H	-0.345212	-0.202131	0.104807
H777	H	0.114751	-0.359031	0.128242
H778	H	-0.698977	-0.475697	0.403026
H779	H	0.112515	-0.029806	0.032365
H780	H	-0.502704	-0.395064	0.206747
C781	C	-0.753885	-0.560693	0.451553
C782	C	-0.753481	-0.544846	0.488647
C783	C	-0.801345	-0.568664	0.534718
C784	C	-0.849614	-0.608329	0.543696
C785	C	-0.850020	-0.624178	0.506601
C786	C	-0.802156	-0.600360	0.460530
H787	H	-0.717748	-0.515482	0.482002
H788	H	-0.801045	-0.556931	0.562177
H789	H	-0.885046	-0.625960	0.577800
H790	H	-0.885753	-0.653542	0.513246
H791	H	-0.802457	-0.612093	0.433071
H792	H	-0.080881	0.301713	0.324171
H793	H	0.072823	0.110317	0.021387
H794	H	0.620648	0.338565	-0.411050
C795	C	0.124560	-0.023797	-0.474474
C796	C	0.147700	0.022807	-0.497931
C797	C	0.193966	0.045942	-0.544842
C798	C	0.217092	0.022473	-0.568295
C799	C	0.193953	-0.024133	-0.544838
C800	C	0.147687	-0.047268	-0.497927
H801	H	0.130580	0.040182	-0.480569
H802	H	0.211095	0.080443	-0.562206
H803	H	0.251341	0.039599	-0.603022
H804	H	0.211072	-0.041508	-0.562200
H805	H	0.130557	-0.081770	-0.480563
C806	C	0.109610	0.302203	0.451262
C807	C	0.103588	0.338822	0.461180
C808	C	0.081486	0.340631	0.507247
C809	C	0.065405	0.305821	0.543397
C810	C	0.071426	0.269199	0.533481
C811	C	0.093528	0.267390	0.487413
H812	H	0.115493	0.364593	0.434418
H813	H	0.077029	0.367742	0.514588
H814	H	0.049044	0.307160	0.577499
H815	H	0.059521	0.243427	0.560242
H816	H	0.097985	0.240279	0.480073
H817	H	-0.131703	-0.093949	-0.207118
H818	H	0.492036	-0.029550	-0.462272
H819	H	0.446465	-0.305097	-0.026101
H820	H	0.072268	0.110065	-0.411059
C821	C	-0.424067	-0.364702	0.121736
C822	C	-0.423662	-0.373215	0.082041
C823	C	-0.401496	-0.397127	0.058080
C824	C	-0.379734	-0.412526	0.073815
C825	C	-0.380138	-0.404013	0.113512
C826	C	-0.402304	-0.380101	0.137472
H827	H	-0.439773	-0.361815	0.070392
H828	H	-0.401197	-0.403428	0.028694
H829	H	-0.363325	-0.430227	0.056077
H830	H	-0.364027	-0.415413	0.125161
H831	H	-0.402603	-0.373800	0.166859
C832	C	0.379633	-0.124616	-0.574977
C833	C	0.395712	-0.143347	-0.611123
C834	C	0.417812	-0.119436	-0.657191
C835	C	0.423834	-0.076795	-0.667114
C836	C	0.407755	-0.058062	-0.630967
C837	C	0.385655	-0.081972	-0.584898
H838	H	0.391254	-0.174915	-0.603778
H839	H	0.429715	-0.133304	-0.683950
H840	H	0.440195	-0.059095	-0.701217
H841	H	0.412213	-0.026494	-0.638312
H842	H	0.373752	-0.068104	-0.558140
C843	C	0.108713	0.195063	-0.441125
C844	C	0.139382	0.234725	-0.432502
C845	C	0.117120	0.258543	-0.408450
C846	C	0.064190	0.242699	-0.393021
C847	C	0.033518	0.203034	-0.401645
C848	C	0.055780	0.179216	-0.425697
H849	H	0.178567	0.246456	-0.443923
H850	H	0.139825	0.287906	-0.402066
H851	H	0.047710	0.260330	-0.375217
H852	H	-0.005667	0.191303	-0.390223
H853	H	0.033074	0.149854	-0.432080
C854	C	0.109579	-0.257928	-0.441973
C855	C	0.093502	-0.294081	-0.460702
C856	C	0.071394	-0.340164	-0.436798
C857	C	0.065365	-0.350094	-0.394164
C858	C	0.081442	-0.313940	-0.375432
C859	C	0.103550	-0.267858	-0.399336
H860	H	0.097965	-0.286731	-0.492265
H861	H	0.059493	-0.366927	-0.450665
H862	H	0.048999	-0.384207	-0.376468
H863	H	0.076979	-0.321291	-0.343869
H864	H	0.115452	-0.241094	-0.385469
C865	C	-0.002283	0.295322	0.275641
C866	C	-0.035099	0.258709	0.265794
C867	C	-0.013082	0.256908	0.219724
C868	C	0.041752	0.291720	0.183501
C869	C	0.074571	0.328336	0.193347
C870	C	0.052554	0.330136	0.239417
H871	H	-0.075693	0.232937	0.292610
H872	H	-0.037377	0.229803	0.212436
H873	H	0.058050	0.290387	0.149397
H874	H	0.115165	0.354108	0.166531
H875	H	0.076849	0.357242	0.246705
C876	C	0.242603	0.195354	-0.574991
C877	C	0.243943	0.215424	-0.611137
C878	C	0.291813	0.239394	-0.657206
C879	C	0.338342	0.243295	-0.667128
C880	C	0.337004	0.223225	-0.630980
C881	C	0.289135	0.199255	-0.584911
H882	H	0.209498	0.212537	-0.603794
H883	H	0.292803	0.254251	-0.683965
H884	H	0.373778	0.261039	-0.701230
H885	H	0.371450	0.226112	-0.638324
H886	H	0.288144	0.184397	-0.558153
H887	H	0.188254	-0.093944	-0.527035
C888	C	0.428808	-0.082279	-0.532945
C889	C	0.450910	-0.058367	-0.579012
C890	C	0.498768	-0.012280	-0.603061
C891	C	0.524522	0.009896	-0.581044
C892	C	0.502420	-0.014016	-0.534975
C893	C	0.454563	-0.060103	-0.510925
H894	H	0.431845	-0.074783	-0.595313
H895	H	0.515129	0.005421	-0.637165
H896	H	0.559949	0.044012	-0.598847
H897	H	0.521486	0.002400	-0.518674
H898	H	0.438201	-0.077804	-0.476821
H899	H	-0.131925	-0.209630	-0.206857
H900	H	-0.204812	-0.245957	-0.128068
H901	H	0.158159	-0.305099	0.262230
H902	H	-0.502937	-0.279610	0.207004
H903	H	0.331112	-0.420479	-0.026100
C904	C	0.429171	-0.273405	-0.021964
C905	C	0.475700	-0.230762	-0.058567
C906	C	0.523567	-0.206849	-0.060364
C907	C	0.524906	-0.225579	-0.025557
C908	C	0.478376	-0.268224	0.011049
C909	C	0.430508	-0.292137	0.012846
H910	H	0.474710	-0.216895	-0.084336
H911	H	0.558012	-0.175280	-0.087463
H912	H	0.560341	-0.207877	-0.026887
H913	H	0.479365	-0.282091	0.036818
H914	H	0.396064	-0.323706	0.039945
H915	H	0.376688	-0.144924	-0.346920
H916	H	0.446472	-0.420475	-0.026110
C917	C	0.246406	-0.560990	-0.015104
C918	C	0.198205	-0.600689	0.024190
C919	C	0.150336	-0.624658	0.025990
C920	C	0.150666	-0.608927	-0.011505
C921	C	0.198869	-0.569226	-0.050802
C922	C	0.246738	-0.545258	-0.052601
H923	H	0.197959	-0.612336	0.051948
H924	H	0.114653	-0.654047	0.055080
H925	H	0.115231	-0.626670	-0.010172
H926	H	0.199115	-0.557580	-0.078560
H927	H	0.282421	-0.515868	-0.081692
H928	H	0.497067	-0.279612	-0.021501
H929	H	0.188207	-0.279664	0.206774
H930	H	0.301066	-0.475951	-0.021483
H931	H	-0.553538	-0.420475	0.262203
H932	H	-0.583269	-0.279611	0.287327
H933	H	0.158182	0.291174	0.262206
H934	H	-0.626046	-0.554763	0.324177
H935	H	0.042831	0.291168	0.262201
H936	H	0.300979	-0.209700	-0.411041
H937	H	0.621158	0.110575	-0.411606
H938	H	0.416400	-0.094242	-0.206838
H939	H	0.376436	0.349539	-0.346939
H940	H	0.693512	0.332639	-0.447357
