data_functionalizedCrystal
_audit_creation_method	'MofGen! by Chris Wilmer'
_symmetry_space_group_name_H-M	'P1'
_symmetry_Int_Tables_number	1
_symmetry_cell_setting	triclinic
loop_
_symmetry_equiv_pos_as_xyz
  x,y,z
_cell_length_a	12.827893
_cell_length_b	12.759394
_cell_length_c	12.827885
_cell_angle_alpha	90.031224
_cell_angle_beta	90.019272
_cell_angle_gamma	90.014808
loop_
_atom_site_label
_atom_site_type_symbol
_atom_site_fract_x
_atom_site_fract_y
_atom_site_fract_z
Zn1	Zn	1.597674	-0.418216	0.590838
Zn2	Zn	1.597569	-0.593932	0.416094
Zn3	Zn	1.422915	-0.418268	0.416112
Zn4	Zn	1.422902	-0.593854	0.590794
O5	O	1.510265	-0.506068	0.503460
O6	O	1.743896	-0.441537	0.567669
O7	O	1.574363	-0.570684	0.269860
O8	O	1.446146	-0.271240	0.439316
O9	O	1.743819	-0.570634	0.439285
O10	O	1.574541	-0.271202	0.567686
O11	O	1.446045	-0.441624	0.269873
O12	O	1.276677	-0.441548	0.439273
O13	O	1.446124	-0.570501	0.737036
O14	O	1.276668	-0.570551	0.567611
O15	O	1.574528	-0.441461	0.737069
O16	O	1.574350	-0.740943	0.439243
O17	O	1.446023	-0.740885	0.567594
C18	C	1.238755	-0.506047	0.503440
C19	C	1.122602	-0.506064	0.503456
C20	C	1.070840	-0.569998	0.566864
C21	C	0.950790	-0.570017	0.566882
C22	C	1.510202	-0.779035	0.503434
C23	C	1.510271	-0.895812	0.503458
C24	C	1.643999	-0.895818	0.369906
C25	C	1.710890	-0.950682	0.303143
C26	C	1.710951	-1.060404	0.303171
C27	C	1.644116	-1.115264	0.369973
C28	C	1.577225	-1.060400	0.436736
C29	C	1.577169	-0.950676	0.436698
C30	C	1.443504	-1.060393	0.570292
C31	C	1.443436	-0.950672	0.570260
C32	C	1.376670	-1.115253	0.637094
C33	C	1.309772	-1.060389	0.703854
C34	C	1.309712	-0.950661	0.703822
C35	C	1.376545	-0.895808	0.637024
C36	C	1.782835	-0.506089	0.503480
C37	C	1.898988	-0.506098	0.503489
C38	C	1.510336	-0.505967	0.776030
C39	C	1.510366	-0.505924	0.892183
C40	C	1.510356	-0.232034	0.503508
C41	C	1.510395	-0.115257	0.503528
C42	C	1.510254	-0.506092	0.231950
C43	C	1.510426	-0.505839	0.115797
C44	C	1.573912	-0.442058	0.943984
C45	C	1.573944	-0.442012	1.064034
H46	H	1.765308	-0.906006	0.248755
H47	H	1.765425	-1.105074	0.248811
H48	H	1.628351	-0.387338	1.108582
O49	O	1.069571	-0.440828	0.438555
C50	C	1.096099	-0.463662	0.334337
H51	H	1.175366	-0.503967	0.332026
H52	H	1.034669	-0.517699	0.299110
C53	C	1.003626	-0.311659	0.274040
C54	C	1.100987	-0.361155	0.271201
H55	H	1.006636	-0.248429	0.235093
H56	H	0.985750	-0.296277	0.344254
H57	H	0.952444	-0.356700	0.244687
H58	H	1.152164	-0.316119	0.300566
H59	H	1.118871	-0.376527	0.200991
O60	O	0.897533	-0.635222	0.631615
C61	C	0.789525	-0.620738	0.617210
H62	H	0.774715	-0.539606	0.583111
H63	H	0.758517	-0.682967	0.561430
C64	C	0.751629	-0.730094	0.764765
C65	C	0.733438	-0.630444	0.722893
H66	H	0.717030	-0.736087	0.829953
H67	H	0.824396	-0.739857	0.774468
H68	H	0.725789	-0.781941	0.718272
H69	H	0.759290	-0.578600	0.769379
H70	H	0.660674	-0.620674	0.713199
O71	O	1.638646	-0.376817	0.890755
C72	C	1.579100	-0.309017	0.827645
H73	H	1.499872	-0.346082	0.811392
H74	H	1.567700	-0.231102	0.869655
C75	C	1.733791	-0.244618	0.743874
C76	C	1.636484	-0.290145	0.723905
H77	H	1.769188	-0.232971	0.679884
H78	H	1.773909	-0.290292	0.786395
H79	H	1.724277	-0.179693	0.778885
H80	H	1.645999	-0.355074	0.688907
H81	H	1.596368	-0.244480	0.681375
O82	O	1.644281	-1.221847	0.369843
C83	C	1.717677	-1.258507	0.296618
H84	H	1.732304	-1.195319	0.235552
H85	H	1.793867	-1.277872	0.338125
C86	C	1.657205	-1.435359	0.318053
C87	C	1.675164	-1.357754	0.243046
H88	H	1.630985	-1.496582	0.285010
H89	H	1.607760	-1.410662	0.367389
H90	H	1.720702	-1.451484	0.352636
H91	H	1.611666	-1.341621	0.208474
H92	H	1.724599	-1.382451	0.193703
H93	H	1.115402	-0.624717	0.621140
H94	H	1.456024	-0.560524	1.071256
O95	O	1.376632	-1.221836	0.637293
C96	C	1.303285	-1.258488	0.710549
H97	H	1.288589	-1.195215	0.771572
H98	H	1.227114	-1.278057	0.669062
C99	C	1.363959	-1.435277	0.689233
C100	C	1.345916	-1.357566	0.764187
H101	H	1.390253	-1.496395	0.722317
H102	H	1.413372	-1.410585	0.639876
H103	H	1.300479	-1.451571	0.654667
H104	H	1.409399	-1.341264	0.798743
H105	H	1.296515	-1.382258	0.813552
H106	H	1.376497	-0.806467	0.636984
O107	O	1.244969	-1.113632	0.768889
C108	C	1.267724	-1.086690	0.873050
H109	H	1.351185	-1.056444	0.878384
H110	H	1.211642	-1.023030	0.900301
C111	C	1.153087	-1.221258	0.936263
C112	C	1.255599	-1.184118	0.942815
H113	H	1.145604	-1.281354	0.979299
H114	H	1.137754	-1.239408	0.866088
H115	H	1.106364	-1.168199	0.958970
H116	H	1.302319	-1.237172	0.920096
H117	H	1.270940	-1.165980	1.012989
O118	O	1.244884	-0.897321	0.768790
C119	C	1.304315	-0.833726	0.836293
H120	H	1.386636	-0.866717	0.842818
H121	H	1.307879	-0.750594	0.803960
C122	C	1.152108	-0.791472	0.936876
C123	C	1.253214	-0.831997	0.944897
H124	H	1.120585	-0.790401	1.003867
H125	H	1.112067	-0.834314	0.891395
H126	H	1.155092	-0.722199	0.909928
H127	H	1.250228	-0.901273	0.971832
H128	H	1.293254	-0.789167	0.990385
O129	O	1.445341	-0.571006	0.945250
C130	C	1.341164	-0.548093	0.918635
H131	H	1.335877	-0.464201	0.888573
H132	H	1.313756	-0.604504	0.855352
C133	C	1.278029	-0.663227	1.052575
C134	C	1.271533	-0.560186	1.015661
H135	H	1.235075	-0.670690	1.112423
H136	H	1.348214	-0.678667	1.070504
H137	H	1.255190	-0.710224	0.999830
H138	H	1.294384	-0.513192	1.068400
H139	H	1.201349	-0.544738	0.997743
H140	H	0.943496	-0.451362	0.449197
H141	H	1.643942	-0.806477	0.369863
