data_functionalizedCrystal
_audit_creation_method	'MofGen! by Chris Wilmer'
_symmetry_space_group_name_H-M	'P1'
_symmetry_Int_Tables_number	1
_symmetry_cell_setting	triclinic
loop_
_symmetry_equiv_pos_as_xyz
  x,y,z
_cell_length_a	16.109301
_cell_length_b	19.188930
_cell_length_c	14.586319
_cell_angle_alpha	89.991095
_cell_angle_beta	89.999213
_cell_angle_gamma	83.303131
loop_
_atom_site_label
_atom_site_type_symbol
_atom_site_fract_x
_atom_site_fract_y
_atom_site_fract_z
O1	O	1.102833	0.089744	-0.076193
O2	O	1.436167	0.423077	0.257140
O3	O	1.769500	0.756411	0.590474
O4	O	0.860734	0.100912	-0.076209
O5	O	1.194068	0.434246	0.257125
O6	O	1.527401	0.767579	0.590458
O7	O	0.988770	-0.006311	-0.076182
O8	O	1.322104	0.327022	0.257151
O9	O	1.655437	0.660356	0.590484
O10	O	0.974797	0.196968	-0.076219
O11	O	1.308131	0.530301	0.257114
O12	O	1.641464	0.863634	0.590447
O13	O	0.988762	-0.006313	0.076298
O14	O	1.322095	0.327021	0.409632
O15	O	1.655428	0.660354	0.742965
O16	O	0.860726	0.100911	0.076272
O17	O	1.194059	0.434244	0.409605
O18	O	1.527392	0.767578	0.742939
O19	O	1.102825	0.089742	0.076288
O20	O	1.436158	0.423076	0.409621
O21	O	1.769491	0.756409	0.742955
Cu22	Cu	0.981774	0.095326	0.090203
Cu23	Cu	1.315108	0.428660	0.423536
Cu24	Cu	1.648441	0.761993	0.756869
Cu25	Cu	0.981785	0.095328	-0.090124
Cu26	Cu	1.315118	0.428662	0.243210
Cu27	Cu	1.648451	0.761995	0.576543
O28	O	0.974789	0.196966	0.076262
O29	O	1.308122	0.530299	0.409595
O30	O	1.641455	0.863633	0.742928
C31	C	0.829757	0.100459	0.000030
C32	C	1.163090	0.433793	0.333363
C33	C	1.496423	0.767126	0.666697
C34	C	0.737466	0.099103	0.000025
C35	C	1.070799	0.432436	0.333358
C36	C	1.404132	0.765770	0.666691
C37	C	0.514993	0.159573	0.000024
C38	C	0.848326	0.492907	0.333358
C39	C	1.181660	0.826240	0.666691
C40	C	0.428277	0.158294	0.000030
C41	C	0.761610	0.491627	0.333364
C42	C	1.094944	0.824960	0.666697
C43	C	0.448573	0.031076	0.000050
C44	C	0.781906	0.364410	0.333383
C45	C	1.115239	0.697743	0.666716
C46	C	0.535287	0.032357	0.000050
C47	C	0.868621	0.365690	0.333383
C48	C	1.201954	0.699024	0.666717
C49	C	0.568495	0.096608	0.000033
C50	C	0.901828	0.429941	0.333366
C51	C	1.235161	0.763274	0.666699
C52	C	0.395064	0.094047	0.000038
C53	C	0.728398	0.427380	0.333372
C54	C	1.061731	0.760714	0.666705
C55	C	0.301043	0.092659	0.000045
C56	C	0.634376	0.425992	0.333378
C57	C	0.967709	0.759326	0.666712
C58	C	0.662522	0.097996	0.000028
C59	C	0.995856	0.431329	0.333361
C60	C	1.329189	0.764663	0.666694
C61	C	0.988313	-0.032324	0.000061
C62	C	1.321647	0.301009	0.333394
C63	C	1.654980	0.634343	0.666727
C64	C	0.986955	-0.109832	0.000068
C65	C	1.320288	0.223502	0.333402
C66	C	1.653622	0.556835	0.666735
C67	C	1.062082	-0.154580	0.000078
C68	C	1.395416	0.178753	0.333411
C69	C	1.728749	0.512087	0.666744
C70	C	1.060806	-0.227407	0.000063
C71	C	1.394140	0.105927	0.333396
C72	C	1.727473	0.439260	0.666730
C73	C	0.984399	-0.255482	0.000057
C74	C	1.317732	0.077851	0.333391
C75	C	1.651065	0.411185	0.666724
C76	C	0.909261	-0.210724	0.000043
C77	C	1.242595	0.122610	0.333376
C78	C	1.575928	0.455943	0.666709
C79	C	0.910540	-0.137899	0.000048
C80	C	1.243873	0.195435	0.333382
C81	C	1.577206	0.528768	0.666715
N82	N	0.925991	-0.363624	0.051945
N83	N	1.259324	-0.030291	0.385279
N84	N	1.592658	0.303043	0.718612
N85	N	0.924782	-0.432805	0.051942
N86	N	1.258115	-0.099472	0.385275
N87	N	1.591449	0.233861	0.718609
C88	C	0.980543	-0.474900	0.000038
C89	C	1.313876	-0.141566	0.333372
C90	C	1.647209	0.191767	0.666705
N91	N	1.037571	-0.445200	-0.051850
N92	N	1.370904	-0.111867	0.281483
N93	N	1.704238	0.221466	0.614816
N94	N	1.038783	-0.376013	-0.051843
N95	N	1.372116	-0.042679	0.281490
N96	N	1.705449	0.290654	0.614824
C97	C	0.983004	-0.334448	0.000051
C98	C	1.316337	-0.001114	0.333384
C99	C	1.649671	0.332219	0.666717
C100	C	1.054292	-0.598616	0.000030
C101	C	1.387625	-0.265282	0.333364
C102	C	1.720958	0.068051	0.666697
C103	C	1.053012	-0.671443	0.000010
C104	C	1.386346	-0.338110	0.333343
C105	C	1.719679	-0.004777	0.666677
C106	C	0.901465	-0.654759	-0.000001
C107	C	1.234799	-0.321425	0.333332
C108	C	1.568132	0.011908	0.666666
C109	C	0.902747	-0.581933	0.000010
C110	C	1.236080	-0.248599	0.333344
C111	C	1.569413	0.084734	0.666677
C112	C	0.979162	-0.553866	0.000030
C113	C	1.312495	-0.220532	0.333364
C114	C	1.645829	0.112801	0.666697
C115	C	1.133802	0.090196	0.000047
C116	C	1.467136	0.423529	0.333381
C117	C	1.800469	0.756862	0.666714
C118	C	1.226093	0.091552	0.000046
C119	C	1.559427	0.424885	0.333380
C120	C	1.892760	0.758219	0.666713
C121	C	0.975246	0.222979	0.000017
C122	C	1.308579	0.556312	0.333350
C123	C	1.641912	0.889645	0.666683
C124	C	0.976604	0.300486	0.000003
C125	C	1.309937	0.633820	0.333336
C126	C	1.643271	0.967153	0.666669
N127	N	0.981773	0.095325	0.217034
N128	N	1.315106	0.428658	0.550368
N129	N	1.648440	0.761991	0.883701
N130	N	0.981793	0.095325	-0.216955
N131	N	1.315126	0.428658	0.116378
N132	N	1.648459	0.761991	0.449711
C133	C	1.038486	0.047862	0.452052
C134	C	1.371819	0.381195	0.785386
C135	C	1.705153	0.714529	1.118719
C136	C	1.038488	0.047860	0.548034
C137	C	1.371822	0.381194	0.881367
C138	C	1.705155	0.714527	1.214700
C139	C	0.925074	0.142790	0.548020
C140	C	1.258407	0.476123	0.881353
C141	C	1.591740	0.809456	1.214687
C142	C	0.925068	0.142787	0.452040
C143	C	1.258401	0.476121	0.785374
C144	C	1.591735	0.809454	1.118707
C145	C	0.981779	0.095324	0.404059
C146	C	1.315112	0.428658	0.737393
C147	C	1.648445	0.761991	1.070726
C148	C	0.981787	0.095325	0.596020
C149	C	1.315120	0.428658	0.929353
C150	C	1.648454	0.761992	1.262687
C151	C	0.981789	0.095323	0.700087
C152	C	1.315122	0.428657	1.033420
C153	C	1.648456	0.761990	1.366754
C154	C	0.981776	0.095325	0.299985
C155	C	1.315109	0.428658	0.633319
C156	C	1.648442	0.761991	0.966652
H157	H	0.384719	0.209567	0.000025
H158	H	0.718052	0.542900	0.333359
H159	H	1.051385	0.876234	0.666692
N160	N	1.141845	-0.275676	0.000085
N161	N	1.475178	0.057657	0.333418
N162	N	1.808511	0.390991	0.666752
H163	H	1.144678	-0.306268	0.056611
H164	H	1.478011	0.027065	0.389944
H165	H	1.811345	0.360399	0.723278
H166	H	1.144657	-0.306213	-0.056476
H167	H	1.477991	0.027120	0.276858
H168	H	1.811324	0.360454	0.610191
N169	N	1.099662	-0.003321	0.599799
N170	N	1.432995	0.330012	0.933132
N171	N	1.766329	0.663345	1.266466
H172	H	1.135589	-0.033383	0.554836
H173	H	1.468922	0.299950	0.888169
H174	H	1.802255	0.633283	1.221503
H175	H	1.136312	0.023431	0.639605
H176	H	1.469646	0.356764	0.972939
H177	H	1.802979	0.690097	1.306272
N178	N	0.826849	-0.240999	0.000032
N179	N	1.160182	0.092334	0.333365
N180	N	1.493516	0.425667	0.666698
H181	H	0.837438	-0.293925	0.000032
H182	H	1.170772	0.039409	0.333366
H183	H	1.504105	0.372742	0.666699
H184	H	0.793980	-0.224635	0.056555
H185	H	1.127313	0.108699	0.389888
H186	H	1.460646	0.442032	0.723222
N187	N	1.134045	-0.719714	0.000021
N188	N	1.467378	-0.386381	0.333354
N189	N	1.800711	-0.053048	0.666687
H190	H	1.167404	-0.710677	-0.056494
H191	H	1.500737	-0.377344	0.276839
H192	H	1.834071	-0.044010	0.610172
H193	H	1.167316	-0.710675	0.056593
H194	H	1.500649	-0.377341	0.389926
H195	H	1.833982	-0.044008	0.723259
N196	N	0.821716	-0.533663	0.000006
N197	N	1.155049	-0.200329	0.333339
N198	N	1.488383	0.133004	0.666672
H199	H	0.773117	-0.562496	0.000000
H200	H	1.106450	-0.229163	0.333334
H201	H	1.439783	0.104170	0.666667
H202	H	0.818943	-0.503093	0.056534
H203	H	1.152276	-0.169759	0.389868
H204	H	1.485609	0.163574	0.723201
H205	H	0.878902	0.181434	0.587096
H206	H	1.212235	0.514767	0.920429
H207	H	1.545569	0.848100	1.253762
H208	H	1.084662	0.009214	0.412988
H209	H	1.417995	0.342547	0.746322
H210	H	1.751329	0.675881	1.079655
N211	N	0.550805	0.228872	0.000008
N212	N	0.884138	0.562205	0.333341
N213	N	1.217472	0.895538	0.666674
H214	H	0.531277	0.256454	0.056529
H215	H	0.864611	0.589787	0.389863
H216	H	1.197944	0.923120	0.723196
H217	H	0.613851	0.220075	-0.000029
H218	H	0.947185	0.553409	0.333304
H219	H	1.280518	0.886742	0.666638
H220	H	0.578851	-0.018920	0.000059
H221	H	0.912184	0.314413	0.333393
H222	H	1.245518	0.647746	0.666726
N223	N	0.412756	-0.038220	0.000073
N224	N	0.746089	0.295114	0.333406
N225	N	1.079422	0.628447	0.666740
H226	H	0.349704	-0.029478	0.000071
H227	H	0.683037	0.303856	0.333404
H228	H	1.016370	0.637189	0.666738
H229	H	0.432345	-0.065774	-0.056447
H230	H	0.765678	0.267560	0.276886
H231	H	1.099011	0.600893	0.610220
N232	N	1.144498	-0.124308	0.000098
N233	N	1.477831	0.209026	0.333431
N234	N	1.811165	0.542359	0.666764
H235	H	1.191898	-0.163711	0.000101
H236	H	1.525231	0.169622	0.333434
H237	H	1.858564	0.502956	0.666767
H238	H	1.148336	-0.094447	-0.056427
H239	H	1.481670	0.238886	0.276907
H240	H	1.815003	0.572219	0.610240
H241	H	1.116514	-0.575763	0.000042
H242	H	1.449847	-0.242429	0.333376
H243	H	1.783180	0.090904	0.666709
N244	N	0.863906	0.193987	0.400271
N245	N	1.197240	0.527320	0.733604
N246	N	1.530573	0.860653	1.066938
H247	H	0.872507	0.186781	0.332188
H248	H	1.205841	0.520114	0.665522
H249	H	1.539174	0.853447	0.998855
H250	H	0.804959	0.185908	0.417054
H251	H	1.138292	0.519242	0.750387
H252	H	1.471626	0.852575	1.083721
N253	N	0.829507	-0.089629	0.000038
N254	N	1.162840	0.243705	0.333371
N255	N	1.496173	0.577038	0.666704
H256	H	0.780906	-0.118462	0.000029
H257	H	1.114240	0.214872	0.333362
H258	H	1.447573	0.548205	0.666695
H259	H	0.826732	-0.059061	0.056568
H260	H	1.160066	0.274273	0.389902
H261	H	1.493399	0.607606	0.723235
H262	H	0.839253	-0.677617	-0.000010
H263	H	1.172586	-0.344283	0.333323
H264	H	1.505919	-0.010950	0.666657
