data_functionalizedCrystal
_audit_creation_method	'MofGen! by Chris Wilmer'
_symmetry_space_group_name_H-M	'P1'
_symmetry_Int_Tables_number	1
_symmetry_cell_setting	triclinic
loop_
_symmetry_equiv_pos_as_xyz
  x,y,z
_cell_length_a	16.120297
_cell_length_b	16.120490
_cell_length_c	12.759399
_cell_angle_alpha	87.107608
_cell_angle_beta	92.874963
_cell_angle_gamma	90.129683
loop_
_atom_site_label
_atom_site_type_symbol
_atom_site_fract_x
_atom_site_fract_y
_atom_site_fract_z
Zn1	Zn	-0.534552	1.247508	-0.532365
Zn2	Zn	-0.034552	1.747508	-0.032365
Zn3	Zn	-0.395500	1.254478	-0.699619
Zn4	Zn	0.104500	1.754478	-0.199619
Zn5	Zn	-0.388472	1.115495	-0.514602
Zn6	Zn	0.111528	1.615495	-0.014602
Zn7	Zn	-0.527472	1.108433	-0.698641
Zn8	Zn	-0.027472	1.608433	-0.198641
O9	O	-0.461499	1.181479	-0.611307
O10	O	0.038501	1.681479	-0.111307
O11	O	-0.522010	1.364800	-0.562394
O12	O	-0.022010	1.864800	-0.062394
O13	O	-0.278202	1.241914	-0.668051
O14	O	0.221798	1.741914	-0.168051
O15	O	-0.407872	1.133046	-0.369941
O16	O	0.092128	1.633046	0.130059
O17	O	-0.419849	1.369921	-0.685275
O18	O	0.080151	1.869921	-0.185275
O19	O	-0.515196	1.230035	-0.382992
O20	O	-0.015196	1.730035	0.117008
O21	O	-0.273039	1.139804	-0.532120
O22	O	0.226961	1.639804	-0.032120
O23	O	-0.401007	0.998191	-0.531173
O24	O	0.098993	1.498191	-0.031173
O25	O	-0.644777	1.121009	-0.683609
O26	O	-0.144777	1.621009	-0.183609
O27	O	-0.503130	0.993002	-0.666385
O28	O	-0.003130	1.493002	-0.166385
O29	O	-0.649979	1.223187	-0.561447
O30	O	-0.149979	1.723187	-0.061447
O31	O	-0.412984	1.235066	-0.846506
O32	O	0.087016	1.735066	-0.346506
O33	O	-0.509944	1.127768	-0.845788
O34	O	-0.009944	1.627768	-0.345788
C35	C	-0.450538	0.965424	-0.596746
C36	C	0.049462	1.465424	-0.096746
C37	C	-0.445869	0.872993	-0.590543
C38	C	0.054131	1.372993	-0.090543
C39	C	-0.485721	0.660038	-0.643473
C40	C	0.014279	1.160038	-0.143473
C41	C	-0.437343	0.703767	-0.579229
C42	C	0.062657	1.203767	-0.079229
C43	C	-0.442089	0.797934	-0.585526
C44	C	0.057911	1.297934	-0.085526
C45	C	-0.480976	0.565863	-0.637177
C46	C	0.019024	1.065863	-0.137177
C47	C	-0.678394	1.170533	-0.624400
C48	C	-0.178394	1.670533	-0.124400
C49	C	-0.770822	1.165868	-0.629980
C50	C	-0.270822	1.665868	-0.129980
C51	C	-0.940047	1.157322	-0.640141
C52	C	-0.440047	1.657322	-0.140141
C53	C	-0.983811	1.205799	-0.582169
C54	C	-0.483811	1.705799	-0.082169
C55	C	-1.077974	1.201044	-0.587822
C56	C	-0.577974	1.701044	-0.087822
C57	C	-0.845875	1.162076	-0.634489
C58	C	-0.345875	1.662076	-0.134489
C59	C	-0.245450	1.192430	-0.598192
C60	C	0.254550	1.692430	-0.098192
C61	C	-0.153031	1.197255	-0.592327
C62	C	0.346969	1.697255	-0.092327
C63	C	-0.461478	1.181429	-0.884270
C64	C	0.038522	1.681429	-0.384270
C65	C	-0.461500	1.181482	-1.001051
C66	C	0.038500	1.681482	-0.501051
C67	C	-0.472503	1.398377	-0.625925
C68	C	0.027497	1.898377	-0.125925
C69	C	-0.477192	1.490806	-0.632155
C70	C	0.022808	1.990806	-0.132155
C71	C	-0.411077	1.237410	-1.056260
C72	C	0.088923	1.737410	-0.556260
C73	C	-0.411107	1.237462	-1.165989
C74	C	0.088893	1.737462	-0.665989
C75	C	-0.511987	1.125651	-1.165291
C76	C	-0.011987	1.625651	-0.665291
C77	C	-0.511960	1.125603	-1.055564
C78	C	-0.011960	1.625603	-0.555564
C79	C	-0.461540	1.181551	-0.337281
C80	C	0.038460	1.681551	0.162719
C81	C	-0.461557	1.181581	-0.220507
C82	C	0.038443	1.681581	0.279493
H83	H	-0.950561	1.250872	-0.528289
H84	H	-0.450561	1.750872	-0.028289
O85	O	-0.383554	0.664178	-0.508025
O86	O	0.116446	1.164178	-0.008025
C87	C	-0.301697	0.689497	-0.527250
C88	C	0.198303	1.189497	-0.027250
H89	H	-0.303059	0.752674	-0.571672
H90	H	0.196941	1.252674	-0.071672
H91	H	-0.271199	0.642044	-0.576314
H92	H	0.228801	1.142044	-0.076314
C93	C	-0.249966	0.618319	-0.367406
C94	C	0.250034	1.118319	0.132594
C95	C	-0.251638	0.695917	-0.421958
C96	C	0.248362	1.195917	0.078042
H97	H	-0.219085	0.622276	-0.302458
H98	H	0.280915	1.122276	0.197542
H99	H	-0.305114	0.601258	-0.354455
H100	H	0.194886	1.101258	0.145545
H101	H	-0.224553	0.578783	-0.408304
H102	H	0.275447	1.078783	0.091696
H103	H	-0.277060	0.735449	-0.381066
H104	H	0.222940	1.235449	0.118934
H105	H	-0.196493	0.712985	-0.434900
H106	H	0.303507	1.212985	0.065100
O107	O	-0.979839	1.103627	-0.704400
O108	O	-0.479839	1.603627	-0.204400
C109	C	-1.066358	1.110771	-0.695795
C110	C	-0.566358	1.610771	-0.195795
H111	H	-1.081378	1.174371	-0.666395
H112	H	-0.581378	1.674371	-0.166395
H113	H	-1.088504	1.060238	-0.637979
H114	H	-0.588504	1.560238	-0.137979
C115	C	-1.092214	1.022808	-0.840321
C116	C	-0.592214	1.522808	-0.340321
C117	C	-1.110663	1.100925	-0.804219
C118	C	-0.610663	1.600925	-0.304219
H119	H	-1.119545	1.016731	-0.907200
H120	H	-0.619545	1.516731	-0.407200
H121	H	-1.033925	1.017992	-0.846116
H122	H	-0.533925	1.517992	-0.346116
H123	H	-1.110670	0.980706	-0.792131
H124	H	-0.610670	1.480706	-0.292131
H125	H	-1.092198	1.143025	-0.852402
H126	H	-0.592198	1.643025	-0.352402
H127	H	-1.168951	1.105748	-0.798435
H128	H	-0.668951	1.605748	-0.298435
H129	H	-0.369990	1.282910	-1.011878
H130	H	0.130010	1.782910	-0.511878
H131	H	-0.370049	1.283005	-1.210935
H132	H	0.129951	1.783005	-0.710935
O133	O	-0.539331	0.699646	-0.714871
O134	O	-0.039331	1.199646	-0.214871
C135	C	-0.519951	0.679428	-0.817054
C136	C	-0.019951	1.179428	-0.317054
H137	H	-0.484869	0.617938	-0.813102
H138	H	0.015131	1.117938	-0.313102
H139	H	-0.479557	0.730439	-0.852968
H140	H	0.020443	1.230439	-0.352968
C141	C	-0.643824	0.747020	-0.890354
C142	C	-0.143824	1.247020	-0.390354
C143	C	-0.600742	0.671494	-0.885501
C144	C	-0.100742	1.171494	-0.385501
H145	H	-0.693659	0.742130	-0.932578
H146	H	-0.193659	1.242130	-0.432578
H147	H	-0.656880	0.760644	-0.821512
H148	H	-0.156880	1.260644	-0.321512
H149	H	-0.610153	0.789522	-0.920279
H150	H	-0.110153	1.289522	-0.420279
H151	H	-0.634408	0.628996	-0.855564
H152	H	-0.134408	1.128996	-0.355564
H153	H	-0.587693	0.657862	-0.954340
H154	H	-0.087693	1.157862	-0.454340
H155	H	-0.553068	1.080155	-1.209689
H156	H	-0.053068	1.580155	-0.709689
H157	H	-0.553025	1.080060	-1.010610
H158	H	-0.053025	1.580060	-0.510610
