data_functionalizedCrystal
_audit_creation_method	'MofGen! by Chris Wilmer'
_symmetry_space_group_name_H-M	'P1'
_symmetry_Int_Tables_number	1
_symmetry_cell_setting	triclinic
loop_
_symmetry_equiv_pos_as_xyz
  x,y,z
_cell_length_a	14.519709
_cell_length_b	14.853567
_cell_length_c	13.330367
_cell_angle_alpha	89.999156
_cell_angle_beta	89.998062
_cell_angle_gamma	83.657537
loop_
_atom_site_label
_atom_site_type_symbol
_atom_site_fract_x
_atom_site_fract_y
_atom_site_fract_z
O1	O	1.223824	0.118179	-0.083284
O2	O	1.723824	0.618179	0.416716
O3	O	0.955341	0.132096	-0.083314
O4	O	1.455341	0.632096	0.416686
O5	O	1.096754	-0.006090	-0.083301
O6	O	1.596754	0.493910	0.416699
O7	O	1.082411	0.256364	-0.083297
O8	O	1.582411	0.756364	0.416703
O9	O	1.096733	-0.006093	0.083546
O10	O	1.596733	0.493907	0.583546
O11	O	0.955321	0.132093	0.083533
O12	O	1.455321	0.632093	0.583533
O13	O	1.223803	0.118175	0.083563
O14	O	1.723803	0.618175	0.583563
Cu15	Cu	1.089560	0.125134	0.098783
Cu16	Cu	1.589560	0.625134	0.598783
Cu17	Cu	1.089584	0.125137	-0.098533
Cu18	Cu	1.589584	0.625137	0.401467
O19	O	1.082390	0.256361	0.083550
O20	O	1.582390	0.756361	0.583550
C21	C	1.096094	-0.039680	0.000119
C22	C	1.596094	0.460320	0.500119
C23	C	1.094146	-0.139765	0.000110
C24	C	1.594146	0.360235	0.500110
C25	C	0.920971	0.131446	0.000106
C26	C	1.420971	0.631446	0.500106
C27	C	0.818591	0.129502	0.000094
C28	C	1.318591	0.629502	0.500094
C29	C	1.001911	-0.552334	0.000119
C30	C	1.501911	-0.052334	0.500119
C31	C	1.169913	-0.573550	0.000138
C32	C	1.669913	-0.073550	0.500138
C33	C	1.171744	-0.479516	0.000132
C34	C	1.671744	0.020484	0.500132
C35	C	1.088658	-0.421886	0.000122
C36	C	1.588658	0.078114	0.500122
C37	C	1.003740	-0.458291	0.000117
C38	C	1.503740	0.041709	0.500117
C39	C	1.256661	-0.443104	0.000147
C40	C	1.756661	0.056896	0.500147
C41	C	1.258495	-0.349064	0.000143
C42	C	1.758495	0.150936	0.500143
C43	C	1.175408	-0.291433	0.000125
C44	C	1.675408	0.208567	0.500125
C45	C	1.090486	-0.327843	0.000119
C46	C	1.590486	0.172157	0.500119
C47	C	1.007400	-0.270213	0.000108
C48	C	1.507400	0.229787	0.500108
C49	C	0.922478	-0.306621	0.000095
C50	C	1.422478	0.193379	0.500095
C51	C	0.920653	-0.400660	0.000099
C52	C	1.420653	0.099340	0.500099
C53	C	1.177233	-0.197394	0.000121
C54	C	1.677233	0.302606	0.500121
C55	C	1.009229	-0.176170	0.000106
C56	C	1.509229	0.323830	0.500106
C57	C	0.443698	0.122347	0.000140
C58	C	0.943698	0.622347	0.500140
C59	C	0.548005	0.124334	0.000127
C60	C	1.048005	0.624334	0.500127
C61	C	0.631141	0.125924	0.000116
C62	C	1.131141	0.625924	0.500116
C63	C	0.735455	0.127912	0.000105
C64	C	1.235455	0.627912	0.500105
C65	C	1.258173	0.118826	0.000141
C66	C	1.758173	0.618826	0.500141
C67	C	1.360553	0.120769	0.000146
C68	C	1.860553	0.620769	0.500146
C69	C	1.083050	0.289952	0.000128
C70	C	1.583050	0.789952	0.500128
C71	C	1.084998	0.390036	0.000130
C72	C	1.584998	0.890036	0.500130
N73	N	1.089550	0.125131	0.237564
N74	N	1.589550	0.625131	0.737564
N75	N	1.089602	0.125133	-0.237315
N76	N	1.589602	0.625133	0.262685
C77	C	1.026964	0.186302	0.710181
C78	C	1.526964	0.686302	1.210181
C79	C	1.152229	0.063966	0.710161
C80	C	1.652229	0.563966	1.210161
C81	C	1.152219	0.063963	0.605142
C82	C	1.652219	0.563963	1.105142
C83	C	1.089581	0.125132	0.552639
C84	C	1.589581	0.625132	1.052639
C85	C	1.026953	0.186303	0.605153
C86	C	1.526953	0.686303	1.105153
C87	C	1.214852	0.002799	0.552620
C88	C	1.714852	0.502799	1.052620
C89	C	1.214844	0.002795	0.447595
C90	C	1.714844	0.502795	0.947595
C91	C	1.152201	0.063959	0.395089
C92	C	1.652201	0.563959	0.895089
C93	C	1.089571	0.125132	0.447611
C94	C	1.589571	0.625132	0.947611
C95	C	1.026933	0.186301	0.395107
C96	C	1.526933	0.686301	0.895107
C97	C	0.964297	0.247470	0.447626
C98	C	1.464297	0.747470	0.947626
C99	C	0.964310	0.247468	0.552648
C100	C	1.464310	0.747468	1.052648
C101	C	1.152188	0.063962	0.290068
C102	C	1.652188	0.563962	0.790068
C103	C	1.026922	0.186302	0.290079
C104	C	1.526922	0.686302	0.790079
H105	H	0.941568	-0.129253	0.000093
H106	H	1.441568	0.370747	0.500093
F107	F	1.281503	-0.062307	0.391707
F108	F	1.781503	0.437693	0.891707
H109	H	0.854829	-0.259687	0.000093
H110	H	1.354829	0.240313	0.500093
F111	F	0.830281	-0.439415	0.000082
F112	F	1.330281	0.060585	0.500082
H113	H	1.203189	0.014163	0.247311
H114	H	1.703189	0.514163	0.747311
H115	H	0.932770	-0.581982	0.000105
H116	H	1.432770	-0.081982	0.500105
H117	H	1.237558	-0.620477	0.000154
H118	H	1.737558	-0.120477	0.500154
H119	H	1.324305	-0.490032	0.000165
H120	H	1.824305	0.009968	0.500165
F121	F	1.348875	-0.310324	0.000144
F122	F	1.848875	0.189676	0.500144
F123	F	0.960302	0.251397	0.766074
F124	F	1.460302	0.751397	1.266074
F125	F	0.897655	0.312565	0.608546
F126	F	1.397655	0.812565	1.108546
H127	H	1.246375	-0.167755	0.000138
H128	H	1.746375	0.332245	0.500138
F129	F	0.960248	0.251403	0.234209
F130	F	1.460248	0.751403	0.734209
F131	F	1.218896	-0.001126	0.766038
F132	F	1.718896	0.498874	1.266038
H133	H	1.265854	-0.046998	0.595371
H134	H	1.765854	0.453002	1.095371
F135	F	0.897640	0.312574	0.391737
F136	F	1.397640	0.812574	0.891737
