data_functionalizedCrystal
_audit_creation_method	'MofGen! by Chris Wilmer'
_symmetry_space_group_name_H-M	'P1'
_symmetry_Int_Tables_number	1
_symmetry_cell_setting	triclinic
loop_
_symmetry_equiv_pos_as_xyz
  x,y,z
_cell_length_a	16.120484
_cell_length_b	17.640112
_cell_length_c	17.640968
_cell_angle_alpha	92.139080
_cell_angle_beta	82.192558
_cell_angle_gamma	103.499326
loop_
_atom_site_label
_atom_site_type_symbol
_atom_site_fract_x
_atom_site_fract_y
_atom_site_fract_z
Zn1	Zn	-0.023860	1.246898	-0.196404
Zn2	Zn	-0.195187	1.214806	-0.078925
Zn3	Zn	-0.077878	1.092236	-0.098046
Zn4	Zn	-0.184256	1.113950	-0.230901
O5	O	-0.120295	1.166972	-0.151069
O6	O	-0.028555	1.349575	-0.158380
O7	O	-0.206807	1.176029	0.023304
O8	O	0.045508	1.117096	-0.104658
O9	O	-0.154428	1.325997	-0.072070
O10	O	0.085195	1.230725	-0.176921
O11	O	-0.120621	1.085978	0.009256
O12	O	-0.110021	0.988182	-0.138109
O13	O	-0.135798	1.154104	-0.331090
O14	O	-0.188177	1.004135	-0.235717
O15	O	-0.017955	1.251780	-0.305745
O16	O	-0.309958	1.197083	-0.105520
O17	O	-0.301927	1.122985	-0.217176
C18	C	-0.153775	0.968432	-0.192732
C19	C	-0.168113	0.883498	-0.210574
C20	C	-0.336069	1.158932	-0.163028
C21	C	-0.428360	1.155568	-0.168155
C22	C	-0.011353	0.562620	-0.015528
C23	C	-0.024840	0.482814	-0.032305
C24	C	-0.106413	0.499439	-0.133786
C25	C	-0.092929	0.579249	-0.117021
C26	C	-0.045399	0.610833	-0.057890
C27	C	-0.126975	0.627462	-0.159383
C28	C	-0.113496	0.707264	-0.142616
C29	C	-0.065971	0.738854	-0.083486
C30	C	-0.031920	0.690635	-0.041123
C31	C	-0.174510	0.595875	-0.218510
C32	C	-0.208556	0.644088	-0.260872
C33	C	-0.195072	0.723893	-0.244108
C34	C	-0.147546	0.755483	-0.184979
C35	C	-0.229122	0.772112	-0.286472
C36	C	-0.215643	0.851914	-0.269705
C37	C	-0.134067	0.835285	-0.168212
C38	C	-0.597332	1.149433	-0.177530
C39	C	-0.642392	1.184651	-0.124592
C40	C	-0.736414	1.181238	-0.129808
C41	C	-0.503302	1.152846	-0.172315
C42	C	0.096329	1.175068	-0.139075
C43	C	0.188641	1.178518	-0.133963
C44	C	-0.069632	1.208944	-0.346341
C45	C	-0.048042	1.226829	-0.429555
C46	C	-0.086685	1.366289	-0.109244
C47	C	-0.072363	1.451225	-0.091421
C48	C	-0.283809	1.031408	-0.769207
C49	C	-0.263509	1.048230	-0.847394
C50	C	-0.140810	1.149932	-0.820995
C51	C	-0.161098	1.133115	-0.742803
C52	C	-0.232599	1.073853	-0.716916
C53	C	-0.109887	1.175560	-0.690513
C54	C	-0.130176	1.158747	-0.612328
C55	C	-0.201675	1.099489	-0.586434
C56	C	-0.252888	1.057040	-0.638731
C57	C	-0.038390	1.234826	-0.716401
C58	C	0.012820	1.277271	-0.664110
C59	C	-0.007464	1.260455	-0.585924
C60	C	-0.078964	1.201197	-0.560030
C61	C	0.043748	1.302904	-0.533627
C62	C	0.023459	1.286092	-0.455442
C63	C	-0.099252	1.184384	-0.481846
C64	C	-0.170694	1.125211	0.043456
C65	C	-0.192025	1.107482	0.126714
H66	H	-0.054999	0.803834	-0.069834
C67	C	-0.062161	1.215112	-0.849476
H68	H	-0.057407	1.219043	-0.903530
H69	H	-0.068974	1.263247	-0.826557
H70	H	-0.011571	1.203246	-0.835922
H71	H	-0.629366	1.116721	-0.226764
H72	H	0.006798	0.716355	0.007017
H73	H	-0.021875	1.248515	-0.780065
H74	H	0.027365	0.588340	0.032612
C75	C	0.091470	1.342451	-0.692592
H76	H	0.096224	1.346383	-0.746646
H77	H	0.084657	1.390586	-0.669673
H78	H	0.142060	1.330585	-0.679038
C79	C	-0.281404	0.737362	-0.351509
H80	H	-0.284553	0.682930	-0.355428
H81	H	-0.337837	0.746000	-0.340815
H82	H	-0.254062	0.761713	-0.398413
H83	H	-0.218196	1.085804	-0.522770
H84	H	0.065161	1.320654	-0.412865
C85	C	0.012606	0.429777	0.014300
H86	H	-0.002236	0.377724	-0.004148
H87	H	0.073459	0.447294	0.009108
H88	H	-0.010325	0.431583	0.066696
C89	C	-0.177897	1.119192	-0.453361
H90	H	-0.182639	1.115257	-0.399308
H91	H	-0.228492	1.131038	-0.466916
H92	H	-0.171065	1.071057	-0.476278
H93	H	-0.342016	0.983133	-0.748131
H94	H	-0.305217	1.013662	-0.889969
C95	C	-0.081780	0.870038	-0.103174
H96	H	-0.078626	0.924471	-0.099261
H97	H	-0.109107	0.845686	-0.056270
H98	H	-0.025340	0.861407	-0.113878
H99	H	-0.311094	1.008765	-0.617656
C100	C	-0.158688	0.464692	-0.198828
H101	H	-0.161835	0.410261	-0.202752
H102	H	-0.215122	0.473329	-0.188139
H103	H	-0.131340	0.489047	-0.245730
C104	C	-0.260830	0.609342	-0.325914
H105	H	-0.263978	0.554910	-0.329837
H106	H	-0.317265	0.617978	-0.315225
H107	H	-0.233483	0.633696	-0.372815
C108	C	-0.253088	0.904952	-0.316304
H109	H	-0.283318	0.874714	-0.353926
H110	H	-0.291410	0.928570	-0.283075
H111	H	-0.207633	0.944287	-0.340671
C112	C	-0.599129	1.228819	-0.058057
H113	H	-0.540701	1.225332	-0.063224
H114	H	-0.601716	1.282018	-0.059024
H115	H	-0.628277	1.206332	-0.010867
H116	H	-0.185483	0.530894	-0.232159
C117	C	0.122391	1.368090	-0.562110
H118	H	0.127141	1.372022	-0.616164
H119	H	0.115572	1.416222	-0.539188
H120	H	0.172986	1.356230	-0.548559
