data_functionalizedCrystal
_audit_creation_method	'MofGen! by Chris Wilmer'
_symmetry_space_group_name_H-M	'P1'
_symmetry_Int_Tables_number	1
_symmetry_cell_setting	triclinic
loop_
_symmetry_equiv_pos_as_xyz
  x,y,z
_cell_length_a	14.853566
_cell_length_b	16.109301
_cell_length_c	15.186229
_cell_angle_alpha	89.986602
_cell_angle_beta	90.005057
_cell_angle_gamma	96.452052
loop_
_atom_site_label
_atom_site_type_symbol
_atom_site_fract_x
_atom_site_fract_y
_atom_site_fract_z
O1	O	1.196190	-0.108551	0.073173
O2	O	0.933709	-0.121483	0.073188
O3	O	1.072160	0.006004	0.073171
O4	O	1.057738	-0.236038	0.073190
O5	O	1.072141	0.006025	-0.073286
O6	O	0.933690	-0.121462	-0.073269
O7	O	1.196171	-0.108530	-0.073284
Zn8	Zn	1.064927	-0.114993	-0.096530
Zn9	Zn	1.064952	-0.115020	0.096434
O10	O	1.057720	-0.236017	-0.073267
C11	C	0.900111	-0.120886	-0.000039
C12	C	0.800031	-0.119131	-0.000033
C13	C	0.376868	-0.111718	0.079784
C14	C	0.376869	-0.111696	-0.079889
C15	C	0.470900	-0.113344	-0.079886
C16	C	0.517920	-0.114181	-0.000047
C17	C	0.470908	-0.113369	0.079790
C18	C	0.517918	-0.114165	-0.159721
C19	C	0.611955	-0.115814	-0.159721
C20	C	0.658977	-0.116645	-0.079881
C21	C	0.611960	-0.115832	-0.000041
C22	C	0.658979	-0.116668	0.079798
C23	C	0.611964	-0.115850	0.159639
C24	C	0.517930	-0.114200	0.159630
C25	C	0.753011	-0.118295	-0.079873
C26	C	0.753019	-0.118319	0.079803
C27	C	1.071566	0.036990	-0.000058
C28	C	1.069815	0.129288	-0.000059
C29	C	1.229768	-0.109126	-0.000055
C30	C	1.329849	-0.110882	-0.000055
C31	C	1.058313	-0.267003	-0.000036
C32	C	1.060065	-0.359301	-0.000029
N33	N	1.064917	-0.114974	-0.228222
C34	C	1.147897	0.351451	-0.000049
C35	C	1.146244	0.438174	-0.000042
C36	C	0.981976	0.418529	-0.000036
C37	C	0.983630	0.331808	-0.000037
C38	C	1.066593	0.298272	-0.000048
C39	C	1.063287	0.471716	-0.000040
C40	C	1.061494	0.565744	-0.000032
C41	C	1.068386	0.204237	-0.000055
C42	C	1.010286	-0.064494	-0.546175
C43	C	1.010278	-0.064482	-0.453986
C44	C	1.119607	-0.165514	-0.453927
C45	C	1.119618	-0.165521	-0.546115
C46	C	1.064953	-0.115013	-0.592237
C47	C	1.064934	-0.114994	-0.407859
C48	C	1.064926	-0.114981	-0.307903
C49	C	1.064962	-0.115024	-0.692199
N50	N	1.064970	-0.115032	0.228127
H51	H	0.338585	-0.111048	0.144789
H52	H	1.164140	-0.206660	-0.583619
O53	O	0.904587	0.280229	0.000080
C54	C	0.764729	0.236849	0.075990
C55	C	0.854196	0.295322	0.075951
H56	H	0.723972	0.249019	0.137334
H57	H	0.723831	0.249075	0.014741
H58	H	0.780186	0.169114	0.075948
H59	H	0.838822	0.363078	0.076023
H60	H	0.895068	0.283024	0.137194
H61	H	0.965764	-0.023344	-0.416487
H62	H	0.338579	-0.111021	-0.144890
H63	H	0.965775	-0.023366	-0.583725
H64	H	0.479627	-0.113489	-0.224722
H65	H	0.791296	-0.118998	0.144819
H66	H	1.212450	0.481469	-0.000041
H67	H	1.164112	-0.206637	-0.416363
H68	H	0.650259	-0.116536	0.224644
H69	H	0.914431	0.445846	-0.000029
H70	H	0.479642	-0.113532	0.224632
H71	H	0.650227	-0.116479	-0.224733
H72	H	0.791285	-0.118970	-0.144878
O73	O	1.228562	0.319010	-0.000010
C74	C	1.391317	0.347652	-0.000054
C75	C	1.300026	0.384498	-0.000083
H76	H	1.449120	0.400581	-0.000132
H77	H	1.396262	0.307560	0.061253
H78	H	1.396150	0.307527	-0.061331
H79	H	1.295132	0.424661	0.061152
H80	H	1.295121	0.424542	-0.061431
