data_functionalizedCrystal
_audit_creation_method	'MofGen! by Chris Wilmer'
_symmetry_space_group_name_H-M	'P1'
_symmetry_Int_Tables_number	1
_symmetry_cell_setting	triclinic
loop_
_symmetry_equiv_pos_as_xyz
  x,y,z
_cell_length_a	13.897449
_cell_length_b	21.295417
_cell_length_c	21.295411
_cell_angle_alpha	89.978356
_cell_angle_beta	89.976615
_cell_angle_gamma	90.031786
loop_
_atom_site_label
_atom_site_type_symbol
_atom_site_fract_x
_atom_site_fract_y
_atom_site_fract_z
Zn1	Zn	1.474642	-0.250659	-0.355892
Zn2	Zn	1.474492	-0.355911	-0.250617
Zn3	Zn	1.313324	-0.250662	-0.250639
Zn4	Zn	1.313277	-0.355897	-0.355851
O5	O	1.393934	-0.303283	-0.303250
O6	O	1.609604	-0.264626	-0.341935
O7	O	1.453070	-0.341957	-0.162531
O8	O	1.334805	-0.162572	-0.264627
O9	O	1.609494	-0.341954	-0.264590
O10	O	1.453325	-0.162570	-0.341956
O11	O	1.334660	-0.264631	-0.162547
O12	O	1.178336	-0.264617	-0.264588
O13	O	1.334725	-0.341930	-0.443946
O14	O	1.178301	-0.341933	-0.341886
O15	O	1.453279	-0.264612	-0.443976
O16	O	1.453025	-0.443999	-0.264550
O17	O	1.334580	-0.443988	-0.341865
C18	C	1.143319	-0.303274	-0.303235
C19	C	1.036105	-0.303286	-0.303244
C20	C	0.839810	-0.303288	-0.303261
C21	C	0.949043	-0.303285	-0.303250
C22	C	1.393807	-0.466834	-0.303215
C23	C	1.393841	-0.536802	-0.303221
C24	C	1.455570	-0.569653	-0.263004
C25	C	1.455615	-0.635396	-0.263018
C26	C	1.393915	-0.668285	-0.303243
C27	C	1.332181	-0.635426	-0.343467
C28	C	1.332145	-0.569684	-0.343456
N29	N	1.309534	-0.771553	-0.308037
N30	N	1.309571	-0.834004	-0.308043
C31	C	1.394023	-0.866359	-0.303279
N32	N	1.478437	-0.833904	-0.298495
N33	N	1.478398	-0.771447	-0.298485
C34	C	1.393948	-0.739570	-0.303259
C35	C	1.455806	-0.970496	-0.263075
C36	C	1.455852	-1.036240	-0.263094
C37	C	1.332410	-1.036268	-0.343539
C38	C	1.332372	-0.970526	-0.343524
C39	C	1.394068	-0.937644	-0.303289
C40	C	1.645527	-0.303291	-0.303264
C41	C	1.752740	-0.303295	-0.303271
C42	C	1.394014	-0.303269	-0.467440
C43	C	1.394048	-0.303264	-0.537408
C44	C	1.394087	-0.139092	-0.303298
C45	C	1.394152	-0.069124	-0.303319
C46	C	1.455776	-0.263002	-0.570291
C47	C	1.455775	-0.262975	-0.636034
C48	C	1.394055	-0.303220	-0.668891
C49	C	1.332315	-0.343484	-0.635999
C50	C	1.332311	-0.343506	-0.570258
N51	N	1.386613	-0.358288	-0.772106
N52	N	1.386622	-0.358266	-0.834558
C53	C	1.394061	-0.303156	-0.866965
N54	N	1.401510	-0.248069	-0.834563
N55	N	1.401505	-0.248092	-0.772105
C56	C	1.394052	-0.303201	-0.740176
C57	C	1.455792	-0.262862	-0.971134
C58	C	1.455784	-0.262834	-1.036878
C59	C	1.332328	-0.343349	-1.036842
C60	C	1.332331	-0.343371	-0.971100
C61	C	1.394068	-0.303129	-0.938250
C62	C	1.393909	-0.303250	-0.139698
C63	C	1.394062	-0.303079	-0.069730
H64	H	1.505886	-0.662149	-0.230269
H65	H	1.282176	-1.063046	-0.376293
N66	N	1.269084	-0.536134	-0.384544
N67	N	1.214003	-0.565503	-0.420461
H68	H	1.169464	-0.541807	-0.449481
N69	N	1.518841	-0.936893	-0.221998
N70	N	1.518804	-0.878197	-0.221995
H71	H	1.563327	-0.854465	-0.192987
N72	N	1.269255	-0.384627	-0.536656
N73	N	1.207813	-0.362486	-0.499956
H74	H	1.163278	-0.391528	-0.476223
N75	N	1.518853	-0.221752	-0.937584
N76	N	1.573957	-0.185800	-0.966955
H77	H	1.618494	-0.156764	-0.943262
H78	H	1.505809	-0.542883	-0.230244
H79	H	1.281946	-0.662208	-0.376219
H80	H	1.282059	-0.376250	-0.662756
H81	H	1.506040	-0.230186	-0.662813
H82	H	1.282102	-0.943777	-0.376269
N83	N	1.269270	-0.384461	-1.070385
N84	N	1.180268	-0.380287	-1.063016
H85	H	1.135728	-0.409323	-1.086706
H86	H	1.506049	-0.230045	-1.063651
N87	N	1.518845	-0.221895	-0.536747
N88	N	1.573958	-0.185950	-0.566120
H89	H	1.618501	-0.156917	-0.542429
H90	H	1.282071	-0.376160	-0.944326
H91	H	1.506126	-1.062986	-0.230346
