data_functionalizedCrystal
_audit_creation_method	'MofGen! by Chris Wilmer'
_symmetry_space_group_name_H-M	'P1'
_symmetry_Int_Tables_number	1
_symmetry_cell_setting	triclinic
loop_
_symmetry_equiv_pos_as_xyz
  x,y,z
_cell_length_a	10.967874
_cell_length_b	10.967829
_cell_length_c	10.065918
_cell_angle_alpha	111.710614
_cell_angle_beta	111.757653
_cell_angle_gamma	82.165976
loop_
_atom_site_label
_atom_site_type_symbol
_atom_site_fract_x
_atom_site_fract_y
_atom_site_fract_z
O1	O	1.742239	0.259592	0.584294
O2	O	1.366358	0.263691	0.496858
O3	O	1.556310	0.073735	0.496850
O4	O	1.552287	0.449548	0.584302
O5	O	1.520842	0.038472	0.253226
O6	O	1.330890	0.228429	0.253234
O7	O	1.706771	0.224330	0.340670
Zn8	Zn	1.513199	0.220781	0.258271
Zn9	Zn	1.559930	0.267240	0.579256
O10	O	1.516819	0.414286	0.340678
C11	C	1.300371	0.243097	0.363002
C12	C	1.156592	0.234255	0.327108
C13	C	1.110864	0.248579	0.437310
C14	C	0.962261	0.239441	0.400215
C15	C	1.535603	0.007860	0.362994
C16	C	1.526731	-0.135890	0.327104
C17	C	1.541149	-0.181705	0.437308
C18	C	1.531979	-0.330278	0.400216
C19	C	1.772758	0.244924	0.474530
C20	C	1.916539	0.253768	0.510433
C21	C	1.537526	0.480161	0.474537
C22	C	1.546400	0.623912	0.510437
N23	N	1.481316	0.189073	0.039210
C24	C	1.548828	0.256208	0.003099
C25	C	1.524301	0.231793	-0.165579
N26	N	1.591822	0.298938	0.798318
H27	H	1.181729	0.267616	0.559122
H28	H	0.891398	0.220417	0.278398
H29	H	1.565518	-0.305323	0.632253
H30	H	1.085725	0.215233	0.205299
H31	H	0.987399	0.272807	0.632254
H32	H	1.624791	0.331755	0.097060
H33	H	1.667788	0.374493	-0.107725
H34	H	1.448342	0.156233	-0.259538
H35	H	1.560276	-0.110936	0.559118
H36	H	1.512838	-0.401043	0.278396
H37	H	1.507590	-0.206658	0.205291
H38	H	1.405362	0.113517	-0.054752
