data_functionalizedCrystal
_audit_creation_method	'MofGen! by Chris Wilmer'
_symmetry_space_group_name_H-M	'P1'
_symmetry_Int_Tables_number	1
_symmetry_cell_setting	triclinic
loop_
_symmetry_equiv_pos_as_xyz
  x,y,z
_cell_length_a	11.792254
_cell_length_b	22.010155
_cell_length_c	11.792254
_cell_angle_alpha	90.004530
_cell_angle_beta	84.198598
_cell_angle_gamma	89.991514
loop_
_atom_site_label
_atom_site_type_symbol
_atom_site_fract_x
_atom_site_fract_y
_atom_site_fract_z
O1	O	1.506916	-0.050525	0.155619
O2	O	1.176577	-0.050526	0.171637
O3	O	1.349755	-0.050521	-0.001541
O4	O	1.333737	-0.050530	0.328797
O5	O	1.349724	0.050529	-0.001514
O6	O	1.176545	0.050524	0.171664
O7	O	1.506884	0.050525	0.155646
Cu8	Cu	1.341712	0.059751	0.163658
Cu9	Cu	1.341749	-0.059752	0.163625
O10	O	1.333706	0.050520	0.328824
C11	C	1.134271	-0.000001	0.170641
C12	C	1.008257	-0.000002	0.167621
N13	N	1.341694	0.143804	0.163680
C14	C	0.905921	-0.000004	0.165168
C15	C	0.777534	-0.000005	0.162099
C16	C	1.418436	0.563586	0.086962
C17	C	1.418441	0.627193	0.086955
O18	O	1.483645	0.660086	0.021736
N19	N	1.341747	0.659011	0.163612
C20	C	1.265035	0.627218	0.240272
O21	O	1.199801	0.660122	0.305474
C22	C	1.265025	0.563612	0.240273
C23	C	1.341732	0.531797	0.163619
C24	C	1.495135	0.531771	0.010313
C25	C	1.495131	0.468168	0.010322
C26	C	1.418428	0.436379	0.086979
C27	C	1.341728	0.468194	0.163628
C28	C	1.188309	0.531820	0.316927
C29	C	1.188305	0.468209	0.316921
C30	C	1.265012	0.436394	0.240267
C31	C	1.265021	0.372802	0.240293
N32	N	1.341715	0.340984	0.163637
C33	C	1.418418	0.372773	0.086979
C34	C	1.265060	0.760796	0.240264
C35	C	1.265074	0.824401	0.240270
C36	C	1.418479	0.824372	0.086951
C37	C	1.418469	0.760765	0.086951
C38	C	1.341754	0.728978	0.163607
C39	C	1.418405	0.239201	0.087004
C40	C	1.418397	0.175592	0.087023
C41	C	1.264989	0.175627	0.240337
C42	C	1.265000	0.239231	0.240323
C43	C	1.341712	0.271016	0.163647
O44	O	1.199847	0.339868	0.305476
O45	O	1.483632	0.339861	0.021779
C46	C	1.549190	-0.000001	0.156642
C47	C	1.675204	-0.000005	0.159662
C48	C	1.348730	0.000004	-0.043818
C49	C	1.345710	0.000003	-0.169832
N50	N	1.341774	0.856195	0.163608
C51	C	1.343256	0.000001	-0.272168
C52	C	1.340188	-0.000005	-0.400555
C53	C	1.334731	-0.000006	0.371102
C54	C	1.337751	-0.000009	0.497115
H55	H	1.480865	0.149691	0.024602
O56	O	1.492938	0.855190	0.012321
C57	C	1.558170	0.874672	-0.184590
C58	C	1.473806	0.839721	-0.100205
H59	H	1.542716	0.862188	-0.275585
H60	H	1.649191	0.862150	-0.169284
H61	H	1.545008	0.925594	-0.171362
H62	H	1.486864	0.788791	-0.113383
H63	H	1.382815	0.852294	-0.115532
O64	O	1.492974	0.270137	0.012680
C65	C	1.647902	0.341891	-0.010449
C66	C	1.563496	0.306906	0.073841
H67	H	1.704957	0.371617	0.038967
H68	H	1.598631	0.371711	-0.067483
H69	H	1.702661	0.308204	-0.065243
H70	H	1.508716	0.340549	0.128710
H71	H	1.612837	0.277076	0.130797
H72	H	1.202541	0.149735	0.302754
H73	H	1.125847	0.557714	0.379345
H74	H	1.202592	0.734918	0.302696
H75	H	1.557589	0.442268	-0.052099
O76	O	1.113898	0.437359	0.391548
C77	C	1.048550	0.417953	0.588458
C78	C	1.132892	0.452916	0.504069
H79	H	1.063861	0.430528	0.679449
H80	H	1.061714	0.367019	0.575402
H81	H	0.957568	0.430462	0.572985
H82	H	1.223907	0.440458	0.519490
H83	H	1.119629	0.503842	0.517144
O84	O	1.190380	0.270045	0.314824
C85	C	1.038250	0.263353	0.466922
C86	C	1.122693	0.228387	0.382607
H87	H	0.983520	0.229688	0.521763
H88	H	0.981174	0.293110	0.417575
H89	H	1.087606	0.293155	0.523905
H90	H	1.073430	0.198551	0.325604
H91	H	1.179768	0.198668	0.432026
O92	O	1.569607	0.562577	-0.064311
C93	C	1.634885	0.582032	-0.261220
C94	C	1.550485	0.547102	-0.176837
H95	H	1.619439	0.569543	-0.352216
H96	H	1.725894	0.569495	-0.245895
H97	H	1.621754	0.632957	-0.248012
H98	H	1.563512	0.496169	-0.189995
H99	H	1.459507	0.559690	-0.192183
O100	O	1.493029	0.729818	0.012611
C101	C	1.647732	0.657904	-0.010627
C102	C	1.563414	0.692932	0.073716
H103	H	1.704644	0.628063	0.038743
H104	H	1.702640	0.691508	-0.065438
H105	H	1.598269	0.628176	-0.067639
H106	H	1.612785	0.722660	0.130801
H107	H	1.508506	0.659295	0.128447
O108	O	1.190460	0.855208	0.314782
C109	C	1.038349	0.848506	0.466897
C110	C	1.122779	0.813545	0.382559
H111	H	0.983623	0.814837	0.521733
H112	H	0.981268	0.878269	0.417568
H113	H	1.087716	0.878301	0.523882
H114	H	1.073505	0.783717	0.325554
H115	H	1.179859	0.783820	0.431959
