data_functionalizedCrystal
_audit_creation_method	'MofGen! by Chris Wilmer'
_symmetry_space_group_name_H-M	'P1'
_symmetry_Int_Tables_number	1
_symmetry_cell_setting	triclinic
loop_
_symmetry_equiv_pos_as_xyz
  x,y,z
_cell_length_a	14.519731
_cell_length_b	14.519731
_cell_length_c	11.892095
_cell_angle_alpha	93.895723
_cell_angle_beta	86.093342
_cell_angle_gamma	83.688853
loop_
_atom_site_label
_atom_site_type_symbol
_atom_site_fract_x
_atom_site_fract_y
_atom_site_fract_z
O1	O	1.229751	0.115098	-0.094008
O2	O	0.961278	0.129313	-0.094010
O3	O	1.102622	-0.012030	-0.093999
O4	O	1.088408	0.256441	-0.094020
O5	O	1.090837	-0.000264	0.094008
O6	O	0.949493	0.141080	0.093996
O7	O	1.217966	0.126864	0.093998
Zn8	Zn	1.081859	0.135841	0.123847
Zn9	Zn	1.097386	0.120337	-0.123859
O10	O	1.076623	0.268208	0.093987
C11	C	0.921026	0.134531	-0.000007
C12	C	0.818646	0.132535	-0.000008
C13	C	1.096063	-0.040506	0.000005
C14	C	1.094067	-0.142887	0.000005
C15	C	1.092446	-0.226031	0.000003
C16	C	1.090420	-0.330341	-0.000006
C17	C	1.088812	-0.413480	-0.000013
C18	C	1.086786	-0.517796	-0.000020
C19	C	0.735502	0.130913	-0.000012
C20	C	0.631193	0.128886	-0.000012
C21	C	0.548054	0.127278	-0.000012
C22	C	0.443738	0.125251	-0.000014
C23	C	1.258218	0.121647	-0.000007
C24	C	1.360599	0.123643	-0.000014
C25	C	1.083181	0.296684	-0.000019
C26	C	1.085178	0.399064	-0.000027
N27	N	1.071269	0.146421	0.292901
N28	N	1.107983	0.109750	-0.292913
C29	C	1.181675	0.036077	0.529557
C30	C	1.174279	0.043479	0.647899
C31	C	1.049077	0.168622	0.647927
C32	C	1.056473	0.161220	0.529585
C33	C	1.122775	0.094946	0.470405
C34	C	1.130175	0.087549	0.352061
C35	C	1.004969	0.212687	0.352092
C36	C	0.997573	0.220089	0.470433
H37	H	1.235667	-0.017880	0.481372
O38	O	0.947885	0.269913	0.294509
C39	C	1.001655	0.322655	0.226072
H40	H	1.074859	0.284971	0.208322
H41	H	1.005194	0.393676	0.271686
C42	C	0.866813	0.381519	0.135474
C43	C	0.956721	0.335231	0.113666
H44	H	0.839095	0.389281	0.066139
H45	H	0.830586	0.345989	0.181584
H46	H	0.869775	0.440698	0.173488
H47	H	0.953758	0.276050	0.075665
H48	H	0.992947	0.370752	0.067547
O49	O	1.231594	-0.013753	0.705185
C50	C	1.291677	-0.073849	0.627569
H51	H	1.298059	-0.041312	0.543210
H52	H	1.262397	-0.143210	0.614992
C53	C	1.380402	-0.129717	0.777340
C54	C	1.388247	-0.089750	0.673731
H55	H	1.439970	-0.139529	0.805816
H56	H	1.339921	-0.089231	0.829633
H57	H	1.355999	-0.187513	0.766845
H58	H	1.412639	-0.031949	0.684230
H59	H	1.428735	-0.130226	0.621441
H60	H	1.184163	0.033588	0.303878
H61	H	0.943589	0.274046	0.518631
O62	O	0.984753	0.232969	0.705600
C63	C	0.990840	0.226854	0.822734
H64	H	1.063089	0.193560	0.838874
H65	H	0.936465	0.182579	0.856327
C66	C	0.884607	0.365851	0.863681
C67	C	0.973347	0.324965	0.883505
H68	H	0.873812	0.426369	0.901170
H69	H	0.880502	0.369969	0.784766
H70	H	0.839305	0.328945	0.891676
H71	H	1.018648	0.361864	0.855498
H72	H	0.977459	0.320855	0.962417
