data_functionalizedCrystal
_audit_creation_method	'MofGen! by Chris Wilmer'
_symmetry_space_group_name_H-M	'P1'
_symmetry_Int_Tables_number	1
_symmetry_cell_setting	triclinic
loop_
_symmetry_equiv_pos_as_xyz
  x,y,z
_cell_length_a	12.759400
_cell_length_b	19.077105
_cell_length_c	19.076919
_cell_angle_alpha	89.923776
_cell_angle_beta	92.274856
_cell_angle_gamma	92.288832
loop_
_atom_site_label
_atom_site_type_symbol
_atom_site_fract_x
_atom_site_fract_y
_atom_site_fract_z
Zn1	Zn	-0.508276	-1.058328	-0.440436
Zn2	Zn	-0.677203	-1.062987	-0.322935
Zn3	Zn	-0.494202	-0.945544	-0.318229
Zn4	Zn	-0.676569	-0.940808	-0.435688
O5	O	-0.589062	-1.001917	-0.379322
O6	O	-0.536840	-1.157278	-0.428806
O7	O	-0.647302	-1.051339	-0.223980
O8	O	-0.349051	-0.960537	-0.334457
O9	O	-0.660950	-1.160701	-0.342479
O10	O	-0.359391	-1.043399	-0.424243
O11	O	-0.512852	-0.965055	-0.220522
O12	O	-0.512238	-0.846583	-0.329853
O13	O	-0.659870	-0.952466	-0.534649
O14	O	-0.646223	-0.843104	-0.416150
O15	O	-0.536225	-1.038807	-0.538138
O16	O	-0.824137	-1.046747	-0.337875
O17	O	-0.823671	-0.956983	-0.420714
C18	C	-0.577635	-0.819347	-0.371976
C19	C	-0.572772	-0.741242	-0.368850
C20	C	-0.862026	-1.001876	-0.379306
C21	C	-0.978807	-1.001921	-0.379325
C22	C	-0.599547	-0.994588	-0.562603
C23	C	-0.604015	-0.991465	-0.640706
C24	C	-1.033882	-1.048709	-0.336242
C25	C	-1.143610	-1.048751	-0.336266
C26	C	-1.143177	-0.955212	-0.422456
C27	C	-1.033452	-0.955173	-0.422436
C28	C	-0.979237	-1.095457	-0.293132
C29	C	-1.034313	-1.142248	-0.250045
C30	C	-1.144041	-1.142290	-0.250068
C31	C	-1.198693	-1.095542	-0.293178
C32	C	-0.315035	-1.001976	-0.379355
C33	C	-0.198260	-1.002002	-0.379368
C34	C	-0.600535	-1.185199	-0.386697
C35	C	-0.605424	-1.263303	-0.389840
C36	C	-0.640344	-0.702758	-0.412241
C37	C	-0.635761	-0.629371	-0.409307
C38	C	-0.563612	-0.594468	-0.362979
C39	C	-0.496033	-0.632957	-0.319586
C40	C	-0.500611	-0.706344	-0.322524
C41	C	-0.542424	-0.375179	-0.349385
C42	C	-0.537853	-0.301787	-0.346449
C43	C	-0.677581	-0.298205	-0.436172
C44	C	-0.682157	-0.371593	-0.439102
C45	C	-0.614574	-0.410076	-0.395712
N46	N	-0.558928	-0.519454	-0.359977
N47	N	-0.619253	-0.485088	-0.398718
C48	C	-0.541742	-1.034949	-0.679216
C49	C	-0.545935	-1.032006	-0.752602
C50	C	-0.612408	-0.985583	-0.787477
C51	C	-0.674683	-0.942094	-0.748961
C52	C	-0.670484	-0.945034	-0.675576
C53	C	-0.631866	-0.971967	-1.006758
C54	C	-0.636063	-0.969032	-1.080148
C55	C	-0.507313	-1.058943	-1.083785
C56	C	-0.503124	-1.061882	-1.010398
C57	C	-0.565395	-1.018391	-0.971889
N58	N	-0.616698	-0.982575	-0.862489
N59	N	-0.561099	-1.021396	-0.896878
C60	C	-0.578545	-1.009257	-0.196756
C61	C	-0.573790	-1.012516	-0.118659
H62	H	-0.889891	-1.095426	-0.293106
H63	H	-0.988609	-0.917075	-0.457518
H64	H	-0.690196	-0.931226	-1.108541
H65	H	-0.456614	-1.094350	-1.115147
H66	H	-1.187684	-0.917151	-0.457553
H67	H	-0.740911	-0.400006	-0.476826
C68	C	-0.751909	-0.255868	-0.483902
N69	N	-0.807892	-0.223980	-0.519858
C70	C	-0.719715	-0.741144	-0.463206
N71	N	-0.779497	-0.770054	-0.501597
C72	C	-0.477431	-1.079843	-0.794960
N73	N	-0.425831	-1.115876	-0.826864
C74	C	-0.700364	-0.924123	-0.964407
N75	N	-0.751957	-0.888083	-0.932506
C76	C	-0.426279	-0.748676	-0.274789
N77	N	-0.370288	-0.780560	-0.238834
C78	C	-1.204621	-1.193762	-0.202674
N79	N	-1.250247	-1.232529	-0.166972
H80	H	-0.479088	-0.273372	-0.308727
C81	C	-0.710115	-0.587042	-0.457027
N82	N	-0.766129	-0.555161	-0.492968
H83	H	-0.487401	-0.406503	-0.314049
C84	C	-0.738991	-0.897200	-0.633215
N85	N	-0.790591	-0.861168	-0.601309
H86	H	-0.487616	-1.072754	-0.650827
H87	H	-0.437283	-0.604534	-0.281867
H88	H	-0.448998	-1.099687	-0.982009
H89	H	-0.728803	-0.904293	-0.777361
H90	H	-0.989810	-1.180314	-0.214950
C91	C	-1.319398	-1.095593	-0.293204
N92	N	-1.410312	-1.095630	-0.293220
