data_functionalizedCrystal
_audit_creation_method	'MofGen! by Chris Wilmer'
_symmetry_space_group_name_H-M	'P1'
_symmetry_Int_Tables_number	1
_symmetry_cell_setting	triclinic
loop_
_symmetry_equiv_pos_as_xyz
  x,y,z
_cell_length_a	12.759401
_cell_length_b	12.759400
_cell_length_c	12.759393
_cell_angle_alpha	90.029805
_cell_angle_beta	90.019676
_cell_angle_gamma	90.015071
loop_
_atom_site_label
_atom_site_type_symbol
_atom_site_fract_x
_atom_site_fract_y
_atom_site_fract_z
Zn1	Zn	1.606267	-0.418204	0.593990
Zn2	Zn	1.606158	-0.593919	0.418312
Zn3	Zn	1.430565	-0.418256	0.418329
Zn4	Zn	1.430558	-0.593842	0.593953
O5	O	1.518387	-0.506055	0.506146
O6	O	1.753273	-0.441523	0.570694
O7	O	1.582823	-0.570671	0.271293
O8	O	1.453921	-0.271228	0.441653
O9	O	1.753193	-0.570620	0.441624
O10	O	1.583008	-0.271189	0.570710
O11	O	1.453816	-0.441612	0.271305
O12	O	1.283543	-0.441538	0.441617
O13	O	1.453908	-0.570489	0.740979
O14	O	1.283538	-0.570540	0.570648
O15	O	1.583001	-0.441448	0.741006
O16	O	1.582815	-0.740930	0.441589
O17	O	1.453802	-0.740874	0.570632
C18	C	1.245420	-0.506037	0.506131
C19	C	1.128643	-0.506055	0.506150
C20	C	1.073823	-0.438955	0.573460
C21	C	0.964099	-0.438966	0.573467
C22	C	0.964024	-0.573185	0.438850
C23	C	1.073746	-0.573168	0.438839
C24	C	1.518325	-0.779023	0.506127
C25	C	1.518394	-0.895799	0.506154
C26	C	1.585581	-0.950551	0.573412
C27	C	1.585640	-1.060275	0.573440
C28	C	1.451323	-1.060486	0.438945
C29	C	1.451260	-0.950764	0.438923
C30	C	1.792420	-0.506074	0.506161
C31	C	1.909197	-0.506082	0.506168
C32	C	1.518466	-0.505954	0.780179
C33	C	1.518499	-0.505911	0.896956
C34	C	1.518478	-0.232022	0.506188
C35	C	1.518517	-0.115245	0.506205
C36	C	1.518369	-0.506080	0.233179
C37	C	1.518539	-0.505827	0.116402
C38	C	1.585723	-0.438709	0.951834
C39	C	1.585740	-0.438664	1.061558
C40	C	1.451308	-0.573032	1.061517
C41	C	1.451286	-0.573072	0.951795
H42	H	0.919470	-0.384325	0.628276
H43	H	1.640347	-1.104849	0.628210
H44	H	1.396588	-0.627714	1.106180
F45	F	1.379728	-0.644596	0.893387
F46	F	1.132093	-0.644580	0.367186
H47	H	0.919314	-0.627827	0.384049
H48	H	1.396543	-0.906182	0.384153
F49	F	1.657029	-0.892058	0.644968
F50	F	1.657254	-0.367229	0.893474
F51	F	1.379876	-1.118992	0.367398
F52	F	1.657296	-0.367144	1.119958
H53	H	1.118517	-0.384304	0.628265
