data_functionalizedCrystal
_audit_creation_method	'MofGen! by Chris Wilmer'
_symmetry_space_group_name_H-M	'P1'
_symmetry_Int_Tables_number	1
_symmetry_cell_setting	triclinic
loop_
_symmetry_equiv_pos_as_xyz
  x,y,z
_cell_length_a	16.109301
_cell_length_b	10.540539
_cell_length_c	15.186229
_cell_angle_alpha	89.998389
_cell_angle_beta	89.999362
_cell_angle_gamma	83.993486
loop_
_atom_site_label
_atom_site_type_symbol
_atom_site_fract_x
_atom_site_fract_y
_atom_site_fract_z
O1	O	1.104128	0.163159	-0.073169
O2	O	0.862191	0.183464	-0.073182
O3	O	0.988679	-0.011474	-0.073174
O4	O	0.977640	0.358096	-0.073177
O5	O	0.988671	-0.011477	0.073283
O6	O	0.862182	0.183461	0.073275
O7	O	1.104120	0.163156	0.073289
Zn8	Zn	0.983150	0.173308	0.096535
Zn9	Zn	0.983161	0.173312	-0.096429
O10	O	0.977631	0.358094	0.073280
C11	C	0.831206	0.182640	0.000045
C12	C	0.738896	0.180174	0.000039
C13	C	0.987847	-0.058767	0.000053
C14	C	0.985370	-0.199679	0.000048
C15	C	0.517296	0.290112	0.000049
C16	C	0.430561	0.287785	0.000054
C17	C	0.449021	0.056499	0.000053
C18	C	0.535754	0.058827	0.000053
C19	C	0.569889	0.175637	0.000047
C20	C	0.396421	0.170982	0.000052
C21	C	0.302380	0.168459	0.000058
C22	C	0.663936	0.178162	0.000042
C23	C	0.890460	-0.381753	-0.000286
C24	C	0.892971	-0.235171	0.000044
C25	C	1.029832	-0.261972	0.083685
C26	C	1.026678	-0.408472	0.083755
C27	C	1.028567	-0.409014	-0.082794
C28	C	1.029418	-0.262044	-0.083900
C29	C	1.135104	0.163980	0.000060
C30	C	1.227414	0.166446	0.000059
C31	C	0.978463	0.405386	0.000052
C32	C	0.980940	0.546299	0.000051
N33	N	0.983148	0.173305	0.228228
N34	N	0.983169	0.173305	-0.228121
C35	C	1.039177	0.087015	0.453954
C36	C	1.039179	0.087012	0.546144
C37	C	0.927134	0.259598	0.546146
C38	C	0.927128	0.259594	0.453958
C39	C	0.983154	0.173304	0.407864
C40	C	0.983163	0.173305	0.592242
C41	C	0.983165	0.173303	0.692198
C42	C	0.983151	0.173305	0.307902
H43	H	0.387743	0.381003	0.000058
N44	N	0.414138	-0.062803	0.000059
N45	N	0.336697	-0.064869	0.000058
H46	H	0.312061	-0.149128	0.000060
H47	H	0.545085	0.385227	0.000050
N48	N	0.589471	-0.058125	0.000060
N49	N	0.558986	-0.162410	0.000061
H50	H	0.596922	-0.245005	0.000070
N51	N	0.869914	0.347746	0.406858
N52	N	0.869920	0.347729	0.324549
H53	H	0.829514	0.409981	0.291282
N54	N	1.096396	-0.001154	0.406886
N55	N	1.148261	0.039075	0.355437
H56	H	1.188673	-0.023212	0.322207
H57	H	0.993812	-0.436204	0.146272
N58	N	1.112298	-0.469419	-0.083495
N59	N	1.160319	-0.452561	-0.020898
H60	H	1.219453	-0.495220	-0.021386
H61	H	0.857986	-0.192068	-0.059910
H62	H	0.853964	-0.409832	-0.060263
H63	H	0.854106	-0.411444	0.059352
N64	N	0.869902	0.347724	0.593233
N65	N	0.818063	0.307424	0.644681
H66	H	0.777641	0.369665	0.677936
H67	H	1.084796	0.016747	0.583668
H68	H	1.093130	-0.457388	0.087553
N69	N	0.848766	-0.182168	0.075379
N70	N	0.815967	-0.253451	0.127881
H71	H	0.784746	-0.216020	0.181092
H72	H	1.097687	-0.240586	0.086798
H73	H	0.998939	-0.218934	0.145921
N74	N	0.991057	-0.448079	-0.162312
N75	N	0.928758	-0.509338	-0.158889
H76	H	0.902260	-0.536932	-0.215044
H77	H	1.096785	-0.238783	-0.088946
N78	N	0.988654	-0.210106	-0.161515
N79	N	0.927389	-0.127463	-0.155097
H80	H	0.898596	-0.090775	-0.209912
