data_functionalizedCrystal
_audit_creation_method	'MofGen! by Chris Wilmer'
_symmetry_space_group_name_H-M	'P1'
_symmetry_Int_Tables_number	1
_symmetry_cell_setting	triclinic
loop_
_symmetry_equiv_pos_as_xyz
  x,y,z
_cell_length_a	14.044220
_cell_length_b	14.971486
_cell_length_c	14.048226
_cell_angle_alpha	90.001501
_cell_angle_beta	89.992807
_cell_angle_gamma	91.598497
loop_
_atom_site_label
_atom_site_type_symbol
_atom_site_fract_x
_atom_site_fract_y
_atom_site_fract_z
O1	O	0.123538	-1.196679	-0.079053
O2	O	0.138332	-0.937444	-0.079079
O3	O	-0.007054	-1.063171	-0.079057
O4	O	0.268924	-1.070953	-0.079075
O5	O	-0.007063	-1.063153	0.079264
O6	O	0.138323	-0.937427	0.079242
O7	O	0.123529	-1.196662	0.079268
Zn8	Zn	0.130925	-1.067042	0.104392
Zn9	Zn	0.130936	-1.067064	-0.104203
O10	O	0.268915	-1.070936	0.079246
C11	C	-0.042377	-1.059755	0.000104
C12	C	-0.147614	-1.049594	0.000104
C13	C	0.137666	-0.904059	0.000078
C14	C	0.135683	-0.804606	0.000069
C15	C	0.124195	-1.230047	0.000109
C16	C	0.126178	-1.329501	0.000112
C17	C	-0.340297	-1.031018	0.000088
C18	C	-0.397848	-1.103085	0.000093
C19	C	-0.505063	-1.092748	0.000084
C20	C	-0.233071	-1.041353	0.000097
C21	C	0.304238	-1.074351	0.000083
C22	C	0.409475	-1.084512	0.000077
N23	N	0.130916	-1.067033	0.246753
C24	C	0.221093	-0.754109	0.000064
C25	C	0.219225	-0.660662	0.000079
C26	C	0.131945	-0.617714	0.000090
C27	C	0.046528	-0.668218	0.000097
C28	C	0.048398	-0.761663	0.000090
C29	C	0.042638	-0.473449	0.000111
C30	C	0.040767	-0.379997	0.000117
C31	C	0.213465	-0.372448	0.000100
C32	C	0.215334	-0.465893	0.000092
C33	C	0.129917	-0.516390	0.000097
N34	N	0.130937	-1.067080	-0.246564
C35	C	0.066566	-1.122726	0.296581
C36	C	0.066566	-1.122732	0.396238
C37	C	0.130921	-1.067049	0.446066
C38	C	0.195274	-1.011350	0.396232
C39	C	0.195269	-1.011340	0.296576
C40	C	0.195281	-1.011376	0.603946
C41	C	0.195287	-1.011387	0.703609
C42	C	0.066577	-1.122768	0.703608
C43	C	0.066573	-1.122758	0.603953
C44	C	0.130927	-1.067060	0.554125
H45	H	-0.366598	-1.172546	0.000036
H46	H	-0.371545	-0.961562	0.000079
O47	O	-0.038281	-0.626543	0.000276
C48	C	-0.186488	-0.604455	0.082275
C49	C	-0.090463	-0.651688	0.082208
H50	H	-0.228713	-0.624782	0.148500
H51	H	-0.173213	-0.528985	0.082336
H52	H	-0.228655	-0.624680	0.015989
H53	H	-0.048247	-0.631536	0.148483
H54	H	-0.103805	-0.727149	0.082097
H55	H	0.247669	-0.965988	0.256007
O56	O	-0.044071	-0.338373	0.000007
C57	C	-0.192221	-0.316175	-0.082017
C58	C	-0.096186	-0.363389	-0.081999
H59	H	-0.234375	-0.336368	-0.148322
H60	H	-0.234499	-0.336425	-0.015798
H61	H	-0.178851	-0.240718	-0.081972
H62	H	-0.109469	-0.438854	-0.082078
H63	H	-0.053938	-0.343066	-0.148212
O64	O	0.305961	-0.795682	0.000094
C65	C	0.477055	-0.778321	0.000026
C66	C	0.381007	-0.731129	0.000012
H67	H	0.537754	-0.726151	-0.000060
H68	H	0.482310	-0.821857	0.066295
H69	H	0.482201	-0.821904	-0.066220
H70	H	0.375796	-0.687501	0.066213
H71	H	0.375793	-0.687648	-0.066301
O72	O	0.302132	-0.611518	-0.000062
C73	C	0.400277	-0.501677	-0.082126
C74	C	0.306334	-0.557260	-0.082073
H75	H	0.403714	-0.457810	-0.148435
H76	H	0.403743	-0.457681	-0.015911
H77	H	0.462959	-0.548446	-0.082098
H78	H	0.243599	-0.510558	-0.082134
H79	H	0.302951	-0.601266	-0.148282
O80	O	0.296380	-0.323307	-0.000031
C81	C	0.394525	-0.213462	-0.082089
C82	C	0.300583	-0.269047	-0.082040
H83	H	0.397963	-0.169594	-0.148396
H84	H	0.397988	-0.169468	-0.015873
H85	H	0.457208	-0.260230	-0.082060
H86	H	0.237847	-0.222346	-0.082103
H87	H	0.297204	-0.313052	-0.148250
H88	H	-0.021152	-0.802776	0.000093
H89	H	0.014165	-1.168073	0.256017
H90	H	0.286405	-0.500859	0.000073
O91	O	0.004031	-1.176926	0.444493
C92	C	-0.123645	-1.287385	0.433976
C93	C	-0.052863	-1.226062	0.379210
H94	H	-0.169676	-1.327114	0.381219
H95	H	-0.082672	-1.335392	0.480588
H96	H	-0.171036	-1.244993	0.480677
H97	H	-0.005454	-1.268383	0.332458
H98	H	-0.093896	-1.178052	0.332658
O99	O	-0.040273	-0.522600	-0.000013
C100	C	-0.138401	-0.632444	-0.082073
C101	C	-0.044466	-0.576849	-0.082033
H102	H	-0.141831	-0.676305	-0.148389
H103	H	-0.141861	-0.676448	-0.015865
H104	H	-0.201090	-0.585683	-0.082021
H105	H	0.018276	-0.623544	-0.082118
H106	H	-0.041089	-0.532836	-0.148235
O107	O	0.003930	-1.176827	0.751898
C108	C	-0.160810	-1.216089	0.782445
C109	C	-0.089977	-1.154819	0.727678
H110	H	-0.236749	-1.198306	0.762898
H111	H	-0.148400	-1.288730	0.762817
H112	H	-0.149712	-1.206551	0.862226
H113	H	-0.101033	-1.164279	0.647884
H114	H	-0.102404	-1.082202	0.747385
H115	H	0.014175	-1.168104	0.563383
O116	O	0.257822	-0.957201	0.751866
C117	C	0.385491	-0.846732	0.741355
C118	C	0.314713	-0.908044	0.686586
H119	H	0.431519	-0.806986	0.688601
H120	H	0.344514	-0.798740	0.787995
H121	H	0.432885	-0.889133	0.788029
H122	H	0.267301	-0.865714	0.639861
H123	H	0.355749	-0.956040	0.640006
O124	O	0.257835	-0.957398	0.555436
C125	C	0.387300	-0.948678	0.442943
C126	C	0.316497	-1.009902	0.497805
H127	H	0.434760	-0.991104	0.396350
H128	H	0.346344	-0.900738	0.396235
H129	H	0.433258	-0.908862	0.495689
H130	H	0.270521	-1.049776	0.445127
H131	H	0.357512	-1.057784	0.544527
O132	O	0.257691	-0.957126	0.444591
C133	C	0.312996	-0.806018	0.475057
C134	C	0.242239	-0.867321	0.420250
H135	H	0.300541	-0.733400	0.455382
H136	H	0.301947	-0.815516	0.554854
H137	H	0.388937	-0.823768	0.455460
H138	H	0.166270	-0.849610	0.439767
H139	H	0.253372	-0.857814	0.340466
