data_functionalizedCrystal
_audit_creation_method	'MofGen! by Chris Wilmer'
_symmetry_space_group_name_H-M	'P1'
_symmetry_Int_Tables_number	1
_symmetry_cell_setting	triclinic
loop_
_symmetry_equiv_pos_as_xyz
  x,y,z
_cell_length_a	12.811438
_cell_length_b	12.811415
_cell_length_c	16.776229
_cell_angle_alpha	84.562504
_cell_angle_beta	95.425543
_cell_angle_gamma	84.560771
loop_
_atom_site_label
_atom_site_type_symbol
_atom_site_fract_x
_atom_site_fract_y
_atom_site_fract_z
O1	O	1.393275	0.141393	0.024227
O2	O	1.087763	0.156763	0.001026
O3	O	1.248204	-0.003681	0.024228
O4	O	1.232834	0.301838	0.001025
O5	O	1.248183	-0.003691	0.156804
O6	O	1.087742	0.156753	0.133602
O7	O	1.393254	0.141383	0.156803
Zn8	Zn	1.240494	0.149067	0.166251
Zn9	Zn	1.240523	0.149080	-0.008423
O10	O	1.232813	0.301828	0.133600
C11	C	1.048645	0.155896	0.064548
C12	C	0.932118	0.153315	0.056309
C13	C	0.767886	0.149683	-0.027561
C14	C	0.877374	0.152107	-0.019826
C15	C	0.877366	0.152096	0.124716
C16	C	0.767878	0.149672	0.116981
C17	C	0.713142	0.148467	0.040840
C18	C	0.603651	0.146050	0.033106
C19	C	0.603646	0.146032	0.177648
C20	C	0.713133	0.148456	0.185383
C21	C	1.247332	-0.042794	0.093280
C22	C	1.244751	-0.159324	0.101515
C23	C	1.239907	-0.378274	-0.027563
C24	C	1.237482	-0.487764	-0.019829
C25	C	1.237470	-0.487796	0.124714
C26	C	1.239895	-0.378306	0.116981
C27	C	1.241115	-0.323549	0.040840
C28	C	1.243547	-0.214058	0.033108
C29	C	1.243527	-0.214090	0.177650
C30	C	1.241102	-0.323581	0.185383
C31	C	1.432372	0.142250	0.093279
C32	C	1.548899	0.144831	0.101512
C33	C	1.233685	0.340941	0.064547
C34	C	1.236266	0.457471	0.056307
N35	N	1.240483	0.149057	0.285463
N36	N	1.240542	0.149081	-0.127633
C37	C	1.311548	0.078042	0.337453
C38	C	1.311554	0.078041	0.420906
C39	C	1.240499	0.149061	0.452366
C40	C	1.169426	0.220080	0.400369
C41	C	1.169416	0.220075	0.316918
C42	C	1.169464	0.220101	0.736917
C43	C	1.169481	0.220102	0.820375
C44	C	1.311602	0.078067	0.840905
C45	C	1.311592	0.078062	0.757454
C46	C	1.240516	0.149076	0.705464
C47	C	1.240509	0.149075	0.614976
C48	C	1.240510	0.149068	0.542853
H49	H	0.559060	0.145046	0.233345
H50	H	1.240909	-0.333691	-0.089559
H51	H	0.757715	0.149433	0.247375
Br52	Br	1.408063	-0.018314	0.911467
H53	H	0.723318	0.148714	-0.089559
Br54	Br	0.951670	0.153750	-0.112660
H55	H	1.369414	0.020213	0.311845
Br56	Br	0.529366	0.144422	-0.070227
Br57	Br	1.072959	0.316450	0.246359
Br58	Br	1.235836	-0.562031	-0.112666
H59	H	0.921953	0.153065	0.186707
H60	H	1.244543	-0.169476	-0.028890
H61	H	1.236468	-0.532397	0.186704
H62	H	1.111566	0.277902	0.425989
Br63	Br	1.073044	0.316494	0.863071
Br64	Br	1.073009	0.316476	0.666365
Br65	Br	1.239434	-0.397901	0.288711
Br66	Br	1.407997	-0.018342	0.491468
Br67	Br	1.245182	-0.139817	0.270489
H68	H	1.369455	0.020234	0.731843
