data_functionalizedCrystal
_audit_creation_method	'MofGen! by Chris Wilmer'
_symmetry_space_group_name_H-M	'P1'
_symmetry_Int_Tables_number	1
_symmetry_cell_setting	triclinic
loop_
_symmetry_equiv_pos_as_xyz
  x,y,z
_cell_length_a	15.995350
_cell_length_b	11.026607
_cell_length_c	10.065875
_cell_angle_alpha	79.268236
_cell_angle_beta	98.743618
_cell_angle_gamma	96.039196
loop_
_atom_site_label
_atom_site_type_symbol
_atom_site_fract_x
_atom_site_fract_y
_atom_site_fract_z
O1	O	-1.144114	-0.138601	-0.113371
O2	O	-0.903252	-0.157912	-0.113398
O3	O	-1.003720	0.028396	-0.113382
O4	O	-1.043646	-0.324909	-0.113387
O5	O	-0.984584	-0.007273	0.113604
O6	O	-0.884116	-0.193581	0.113587
O7	O	-1.124978	-0.174270	0.113615
Zn8	Zn	-1.001509	-0.189589	0.149640
Zn9	Zn	-1.026722	-0.142593	-0.149423
O10	O	-1.024510	-0.360578	0.113598
C11	C	-0.862369	-0.174948	0.000091
C12	C	-0.769059	-0.172552	0.000080
C13	C	-0.986787	0.055773	0.000108
C14	C	-0.964831	0.190488	0.000101
C15	C	-1.165861	-0.157234	0.000123
C16	C	-1.259172	-0.159628	0.000124
C17	C	-0.430013	-0.163959	0.000109
C18	C	-0.457405	-0.031352	0.000617
C19	C	-0.554500	-0.033664	0.000096
C20	C	-0.598218	-0.168221	0.000096
C21	C	-0.577923	-0.213299	-0.129520
C22	C	-0.480793	-0.209950	-0.129619
C23	C	-0.459105	-0.253254	0.128506
C24	C	-0.555902	-0.253491	0.130210
C25	C	-0.693281	-0.170637	0.000083
C26	C	-0.334952	-0.161546	0.000112
C27	C	-1.041443	-0.387955	0.000105
C28	C	-1.063400	-0.522668	0.000103
N29	N	-0.984307	-0.221661	0.353743
C30	C	-1.025457	0.264293	0.000106
C31	C	-1.002765	0.403528	0.000098
N32	N	-1.043928	-0.110511	-0.353526
C33	C	-1.020730	-0.153745	0.421527
C34	C	-1.007500	-0.178438	0.578693
H35	H	-0.567342	0.003179	0.093010
Br36	Br	-0.850318	0.256967	0.000068
Br37	Br	-1.112473	0.016598	0.549293
H38	H	-0.607354	-0.311398	-0.134340
H39	H	-0.582398	0.032753	-0.092978
Br40	Br	-1.177921	0.410867	0.000105
H41	H	-1.094159	0.224399	0.000122
H42	H	-0.567934	-0.220784	0.226099
H43	H	-0.934059	0.443417	0.000082
H44	H	-0.943325	-0.298084	0.412062
H45	H	-0.607578	-0.152685	-0.225982
Br46	Br	-1.088775	-0.026052	0.324337
Br47	Br	-0.605056	-0.419094	0.143260
Br48	Br	-0.400180	-0.206683	0.292258
H49	H	-0.966515	-0.254866	0.637007
H50	H	-0.423052	0.007080	0.093570
H51	H	-0.437647	0.035968	-0.091821
Br52	Br	-0.452337	-0.370772	-0.139423
Br53	Br	-0.430625	-0.416539	0.129967
Br54	Br	-0.451897	-0.105029	-0.291108
