data_functionalizedCrystal
_audit_creation_method	'MofGen! by Chris Wilmer'
_symmetry_space_group_name_H-M	'P1'
_symmetry_Int_Tables_number	1
_symmetry_cell_setting	triclinic
loop_
_symmetry_equiv_pos_as_xyz
  x,y,z
_cell_length_a	12.811438
_cell_length_b	11.295501
_cell_length_c	12.837942
_cell_angle_alpha	85.830212
_cell_angle_beta	90.586849
_cell_angle_gamma	89.162246
loop_
_atom_site_label
_atom_site_type_symbol
_atom_site_fract_x
_atom_site_fract_y
_atom_site_fract_z
O1	O	1.402955	-0.052505	-0.136385
O2	O	1.101175	-0.019908	-0.153630
O3	O	1.245373	-0.035491	0.005879
O4	O	1.258758	-0.036922	-0.295894
O5	O	1.231598	-0.232054	0.018306
O6	O	1.087400	-0.216471	-0.141203
O7	O	1.389180	-0.249068	-0.123958
Cu8	Cu	1.237032	-0.250717	-0.131446
Cu9	Cu	1.253323	-0.018258	-0.146142
O10	O	1.244982	-0.233485	-0.283467
C11	C	1.055393	-0.113988	-0.146830
C12	C	0.939498	-0.101470	-0.145071
C13	C	0.783654	0.023307	-0.149365
C14	C	0.892548	0.011555	-0.151017
C15	C	0.877544	-0.202751	-0.137468
C16	C	0.768650	-0.190999	-0.135815
C17	C	0.721709	-0.077966	-0.141766
C18	C	0.612812	-0.066215	-0.140120
C19	C	0.597810	-0.280520	-0.126564
C20	C	0.706704	-0.292272	-0.128216
N21	N	1.225581	-0.414217	-0.121108
C22	C	1.347205	-0.676639	-0.230937
C23	C	1.338559	-0.800369	-0.223116
C24	C	1.199648	-0.785410	-0.097641
C25	C	1.208294	-0.661680	-0.105462
C26	C	1.282074	-0.607299	-0.172113
C27	C	1.290715	-0.483566	-0.179938
C28	C	1.151810	-0.468610	-0.054459
C29	C	1.143163	-0.592340	-0.046638
C30	C	1.434962	-0.154985	-0.130758
C31	C	1.550858	-0.167495	-0.132517
C32	C	1.233964	-0.133283	0.050702
C33	C	1.220481	-0.131825	0.165746
N34	N	1.264781	0.145241	-0.156471
C35	C	1.256391	-0.135690	-0.328290
C36	C	1.269875	-0.137140	-0.443334
C37	C	1.382585	-0.149310	0.407103
C38	C	1.369920	-0.147940	0.515197
C39	C	1.182489	-0.127707	0.490031
C40	C	1.195153	-0.129077	0.381936
C41	C	1.295204	-0.139880	0.340477
C42	C	1.307867	-0.141259	0.232381
C43	C	1.120437	-0.121017	0.207216
C44	C	1.107773	-0.119647	0.315310
H45	H	0.744939	-0.384300	-0.123368
Br46	Br	1.447329	-0.602830	-0.321390
Br47	Br	1.046719	-0.113003	0.546314
H48	H	1.083097	-0.636635	0.007631
H49	H	1.098770	-0.412139	-0.006565
H50	H	1.049285	-0.113349	0.152957
Br51	Br	0.971997	-0.104971	0.371586
H52	H	0.574594	0.025822	-0.144970
H53	H	1.389333	-0.150060	0.198627
H54	H	0.547362	-0.362984	-0.120381
Br55	Br	1.488513	-0.160729	0.605616
Br56	Br	1.518360	-0.164008	0.350832
Br57	Br	1.426959	-0.894473	-0.302946
H58	H	1.139590	-0.829710	-0.043365
H59	H	0.942981	0.094022	-0.157206
Br60	Br	0.719942	0.176703	-0.157461
H61	H	0.915784	-0.294776	-0.132612
H62	H	1.350786	-0.439291	-0.234214
