data_functionalizedCrystal
_audit_creation_method	'MofGen! by Chris Wilmer'
_symmetry_space_group_name_H-M	'P1'
_symmetry_Int_Tables_number	1
_symmetry_cell_setting	triclinic
loop_
_symmetry_equiv_pos_as_xyz
  x,y,z
_cell_length_a	9.065218
_cell_length_b	10.654550
_cell_length_c	9.730223
_cell_angle_alpha	89.999807
_cell_angle_beta	89.999690
_cell_angle_gamma	84.750394
loop_
_atom_site_label
_atom_site_type_symbol
_atom_site_fract_x
_atom_site_fract_y
_atom_site_fract_z
O1	O	1.959386	0.184154	-0.114290
O2	O	1.530019	0.199259	-0.114291
O3	O	1.754575	0.009007	-0.114285
O4	O	1.734831	0.374407	-0.114296
O5	O	1.754572	0.009011	0.114295
O6	O	1.530016	0.199264	0.114289
O7	O	1.959384	0.184159	0.114290
Zn8	Zn	1.744700	0.191712	0.150581
Zn9	Zn	1.744703	0.191706	-0.150582
O10	O	1.734828	0.374412	0.114284
C11	C	1.475039	0.197810	-0.000001
C12	C	1.311220	0.193469	-0.000002
C13	C	1.753124	-0.037795	0.000003
C14	C	1.748786	-0.177255	-0.000002
C15	C	1.881001	-0.256217	0.000003
C16	C	1.876917	-0.387254	-0.000007
C17	C	1.608391	-0.360354	-0.000020
C18	C	1.612477	-0.229320	-0.000020
C19	C	2.036032	-0.271749	0.000016
C20	C	2.031948	-0.402786	0.000007
C21	C	2.014364	0.185608	-0.000002
C22	C	2.178183	0.189949	-0.000011
C23	C	1.736279	0.421213	-0.000007
C24	C	1.740616	0.560673	-0.000011
N25	N	1.744708	0.191716	0.356118
N26	N	1.744706	0.191692	-0.356119
C27	C	1.844167	0.107501	0.428047
C28	C	1.844163	0.107486	0.571930
C29	C	1.645236	0.275911	0.571942
C30	C	1.645234	0.275920	0.428062
C31	C	1.959020	0.010265	0.428040
C32	C	1.959016	0.010250	0.571923
H33	H	1.497413	-0.402762	-0.000036
O34	O	2.101814	-0.452425	0.113990
C35	C	2.222120	-0.538013	0.074327
H36	H	2.258483	-0.514499	-0.034098
H37	H	2.186918	-0.638014	0.076436
C38	C	2.307307	-0.557063	0.307788
C39	C	2.351977	-0.528176	0.174622
H40	H	2.387407	-0.551000	0.369657
H41	H	2.226252	-0.499404	0.334512
H42	H	2.277971	-0.640396	0.309526
H43	H	2.381293	-0.444839	0.172883
H44	H	2.433040	-0.585820	0.147901
H45	H	2.085399	-0.235924	0.098713
H46	H	1.564247	0.344467	0.630535
O47	O	1.928764	-0.104905	0.381282
C48	C	1.798886	-0.092015	0.300855
H49	H	1.780691	0.008454	0.259899
H50	H	1.700075	-0.113204	0.366612
C51	C	1.837416	-0.308426	0.229800
C52	C	1.815076	-0.185031	0.179488
H53	H	1.847398	-0.365805	0.154938
H54	H	1.924915	-0.317113	0.283989
H55	H	1.755069	-0.326065	0.284597
H56	H	1.897430	-0.167388	0.124706
H57	H	1.727591	-0.176343	0.125286
O58	O	2.094155	0.036609	0.618683
C59	C	2.078335	0.147083	0.699135
H60	H	1.960216	0.162037	0.740096
H61	H	2.102706	0.231316	0.633396
C62	C	2.332766	0.115406	0.770179
C63	C	2.187694	0.133766	0.820498
H64	H	2.400227	0.107196	0.845038
H65	H	2.343428	0.040980	0.715973
H66	H	2.353055	0.185604	0.715397
H67	H	2.167401	0.063562	0.875264
H68	H	2.177031	0.208181	0.874716
O69	O	2.086806	0.047450	0.374974
C70	C	2.105704	0.170779	0.419858
H71	H	2.040358	0.191131	0.518709
H72	H	2.063834	0.241181	0.337314
C73	C	2.351440	0.157908	0.325447
C74	C	2.271190	0.182901	0.446865
H75	H	2.453519	0.165389	0.342101
H76	H	2.338706	0.074820	0.295203
H77	H	2.316531	0.216579	0.256672
H78	H	2.306087	0.124221	0.515631
H79	H	2.283934	0.265979	0.477121
O80	O	2.108376	-0.236217	-0.113998
C81	C	2.112324	-0.104235	-0.113797
H82	H	2.099019	-0.067382	-0.004090
H83	H	2.018251	-0.059123	-0.180118
C84	C	2.278027	-0.116049	-0.306932
C85	C	2.261699	-0.070787	-0.172185
H86	H	2.370165	-0.095415	-0.342953
H87	H	2.275364	-0.204968	-0.307071
H88	H	2.199624	-0.078451	-0.362181
H89	H	2.340090	-0.108397	-0.116935
H90	H	2.264379	0.018126	-0.172038
O91	O	2.087706	-0.456864	-0.117863
C92	C	2.004059	-0.407508	-0.230883
H93	H	1.946376	-0.311418	-0.202566
H94	H	1.917497	-0.474254	-0.259229
C95	C	2.178391	-0.511254	-0.389083
C96	C	2.107553	-0.393229	-0.354306
H97	H	2.242228	-0.502451	-0.465218
H98	H	2.234743	-0.544510	-0.312939
H99	H	2.106242	-0.566863	-0.412696
H100	H	2.179701	-0.337627	-0.330677
H101	H	2.051215	-0.359963	-0.430449
O102	O	1.916080	-0.098752	0.624985
C103	C	1.771310	-0.115568	0.580135
H104	H	1.746988	-0.060053	0.481294
H105	H	1.688386	-0.080350	0.662701
C106	C	1.787915	-0.324689	0.674525
C107	C	1.758046	-0.256512	0.553120
H108	H	1.779729	-0.411630	0.657866
H109	H	1.885448	-0.313359	0.704746
H110	H	1.718808	-0.295327	0.743318
H111	H	1.827164	-0.285864	0.484334
H112	H	1.660525	-0.267851	0.522886
H113	H	1.504815	-0.165033	-0.000043
H114	H	1.564234	0.344483	0.369499
