data_functionalizedCrystal
_audit_creation_method	'MofGen! by Chris Wilmer'
_symmetry_space_group_name_H-M	'P1'
_symmetry_Int_Tables_number	1
_symmetry_cell_setting	triclinic
loop_
_symmetry_equiv_pos_as_xyz
  x,y,z
_cell_length_a	16.992694
_cell_length_b	16.992695
_cell_length_c	16.053802
_cell_angle_alpha	87.249318
_cell_angle_beta	87.240756
_cell_angle_gamma	89.331777
loop_
_atom_site_label
_atom_site_type_symbol
_atom_site_fract_x
_atom_site_fract_y
_atom_site_fract_z
O1	O	1.047735	-0.170018	0.069326
O2	O	0.819334	-0.168188	0.069351
O3	O	0.932619	-0.054902	0.069332
O4	O	0.934450	-0.283303	0.069345
O5	O	0.938849	-0.048686	-0.069528
O6	O	0.825563	-0.161972	-0.069509
O7	O	1.053965	-0.163802	-0.069534
Zn8	Zn	0.940753	-0.161900	-0.091569
Zn9	Zn	0.932546	-0.170090	0.091385
O10	O	0.940679	-0.277087	-0.069515
C11	C	0.793088	-0.162724	-0.000076
C12	C	0.705603	-0.155696	-0.000067
C13	C	0.659612	-0.223514	-0.000064
C14	C	0.577412	-0.216904	-0.000076
C15	C	0.541204	-0.142476	-0.000085
C16	C	0.587202	-0.074653	-0.000091
C17	C	0.669401	-0.081263	-0.000085
C18	C	0.295891	-0.115081	-0.000109
C19	C	0.213686	-0.108476	-0.000112
C20	C	0.203902	-0.250728	-0.000099
C21	C	0.286103	-0.257332	-0.000088
C22	C	0.332093	-0.189508	-0.000098
N23	N	0.457183	-0.135719	-0.000094
N24	N	0.416114	-0.196266	-0.000094
C25	C	0.933378	-0.022434	-0.000098
C26	C	0.926349	0.065050	-0.000097
C27	C	1.080210	-0.169265	-0.000105
C28	C	1.167695	-0.176294	-0.000109
N29	N	0.926944	-0.175673	0.216247
C30	C	0.939920	-0.309555	-0.000084
C31	C	0.946949	-0.397040	-0.000079
C32	C	0.994168	0.111042	-0.000105
C33	C	0.987558	0.193242	-0.000096
C34	C	0.913130	0.229450	-0.000086
C35	C	0.845307	0.183452	-0.000075
C36	C	0.851917	0.101253	-0.000078
C37	C	0.885735	0.474763	-0.000071
C38	C	0.879131	0.556969	-0.000071
C39	C	1.021383	0.566753	-0.000091
C40	C	1.027986	0.484552	-0.000099
C41	C	0.960163	0.438561	-0.000083
N42	N	0.906373	0.313472	-0.000079
N43	N	0.966921	0.354541	-0.000084
N44	N	0.946360	-0.156310	-0.216430
C45	C	0.975252	-0.127575	0.259933
C46	C	0.971332	-0.131479	0.347340
C47	C	0.919100	-0.183478	0.391060
C48	C	0.870790	-0.231581	0.347368
C49	C	0.874714	-0.227681	0.259962
C50	C	0.901975	-0.200514	0.652472
C51	C	0.898053	-0.204409	0.739884
C52	C	0.998596	-0.104307	0.739850
C53	C	1.002513	-0.100407	0.652443
C54	C	0.954206	-0.148514	0.608758
N55	N	0.915090	-0.187468	0.480404
N56	N	0.958221	-0.144528	0.519416
H57	H	0.166449	-0.305946	-0.000092
H58	H	1.088593	0.455077	-0.000108
O59	O	0.854933	-0.247158	0.610085
C60	C	0.722072	-0.283226	0.583413
C61	C	0.775258	-0.230337	0.631455
H62	H	0.657645	-0.269656	0.600685
H63	H	0.733776	-0.271513	0.513420
H64	H	0.735429	-0.347710	0.600610
H65	H	0.761933	-0.165834	0.614327
H66	H	0.763545	-0.242117	0.701436
O67	O	0.820157	-0.282137	0.389927
C68	C	0.805499	-0.392996	0.488600
C69	C	0.862930	-0.335785	0.440471
H70	H	0.840060	-0.436395	0.529462
H71	H	0.762288	-0.358314	0.529570
H72	H	0.771629	-0.426668	0.442345
H73	H	0.896854	-0.302099	0.486665
H74	H	0.906090	-0.370511	0.399488
H75	H	0.784705	0.212939	-0.000061
H76	H	0.706846	-0.026038	-0.000087
O77	O	0.819790	0.430177	0.000045
C78	C	0.697018	0.393417	0.072015
C79	C	0.771660	0.443969	0.071981
H80	H	0.658092	0.404537	0.130177
H81	H	0.663199	0.409786	0.013944
H82	H	0.714537	0.328452	0.071973
H83	H	0.754210	0.508947	0.072052
H84	H	0.805460	0.427533	0.130047
O85	O	1.026056	-0.077039	0.217596
C86	C	1.125328	0.021875	0.226798
C87	C	1.067840	-0.035336	0.274844
H88	H	1.159114	0.055619	0.273062
H89	H	1.168602	-0.012808	0.185902
H90	H	1.090778	0.065210	0.185851
H91	H	1.102324	-0.078683	0.315837
H92	H	1.024565	-0.000601	0.315688
O93	O	0.827704	-0.274430	0.217652
C94	C	0.727594	-0.374158	0.226905
C95	C	0.780774	-0.321243	0.274923
H96	H	0.689649	-0.412031	0.273187
H97	H	0.687995	-0.335818	0.186001
H98	H	0.765815	-0.413840	0.185967
H99	H	0.742615	-0.281552	0.315906
H100	H	0.820378	-0.359630	0.315773
H101	H	1.045044	-0.058066	0.616848
H102	H	0.689086	-0.284121	-0.000056
H103	H	0.184209	-0.047865	-0.000119
O104	O	1.066527	0.075998	-0.000076
C105	C	1.206924	0.094389	-0.000134
C106	C	1.125025	0.134174	-0.000152
H107	H	1.254242	0.141407	-0.000212
H108	H	1.211018	0.053570	0.057992
H109	H	1.216144	0.058730	-0.058233
H110	H	1.115751	0.169874	0.057909
H111	H	1.120970	0.174947	-0.058316
H112	H	1.042784	0.230685	-0.000105
O113	O	1.087314	0.611340	0.000014
C114	C	1.203618	0.641660	0.071974
C115	C	1.128986	0.591101	0.071944
H116	H	1.237322	0.625327	0.130131
H117	H	1.242654	0.630504	0.013898
H118	H	1.186095	0.706626	0.071939
H119	H	1.146437	0.526119	0.072009
H120	H	1.089968	0.602324	0.130015
H121	H	0.557715	-0.014051	-0.000110
H122	H	1.037926	-0.065141	0.775426
O123	O	0.532852	-0.282865	-0.000034
C124	C	0.531825	-0.424654	-0.000068
C125	C	0.582381	-0.350016	-0.000093
H126	H	0.571849	-0.478964	-0.000134
H127	H	0.490495	-0.427771	0.058053
H128	H	0.495697	-0.422474	-0.058172
H129	H	0.618557	-0.352145	0.057972
H130	H	0.623661	-0.346926	-0.058253
H131	H	0.315577	-0.317939	-0.000071
H132	H	0.333327	-0.059854	-0.000118
H133	H	0.818520	0.586447	-0.000076
O134	O	0.785960	0.056693	-0.000107
C135	C	0.644166	0.055656	-0.000030
C136	C	0.718800	0.106214	-0.000023
H137	H	0.589847	0.095672	0.000055
H138	H	0.646252	0.019549	-0.058155
H139	H	0.641146	0.014307	0.058071
H140	H	0.721867	0.147607	-0.058085
H141	H	0.716683	0.142268	0.058140
H142	H	1.010668	-0.092314	0.382909
O143	O	0.847401	-0.255038	0.782321
C144	C	0.808371	-0.390117	0.809080
C145	C	0.865793	-0.332876	0.760982
H146	H	0.823209	-0.453060	0.791832
H147	H	0.813869	-0.384702	0.879064
H148	H	0.745479	-0.374952	0.791908
H149	H	0.928709	-0.348003	0.778085
H150	H	0.860226	-0.338301	0.691010
