data_functionalizedCrystal
_audit_creation_method	'MofGen! by Chris Wilmer'
_symmetry_space_group_name_H-M	'P1'
_symmetry_Int_Tables_number	1
_symmetry_cell_setting	triclinic
loop_
_symmetry_equiv_pos_as_xyz
  x,y,z
_cell_length_a	7.088928
_cell_length_b	10.654562
_cell_length_c	8.559649
_cell_angle_alpha	77.134364
_cell_angle_beta	95.315312
_cell_angle_gamma	83.710245
loop_
_atom_site_label
_atom_site_type_symbol
_atom_site_fract_x
_atom_site_fract_y
_atom_site_fract_z
O1	O	0.158998	-1.659147	-0.208060
O2	O	0.158996	-1.291466	-0.229398
O3	O	0.158995	-1.507699	0.013512
O4	O	0.158999	-1.442913	-0.450970
O5	O	-0.158980	-1.478721	-0.018917
O6	O	-0.158979	-1.262488	-0.261827
O7	O	-0.158977	-1.630168	-0.240489
Cu8	Cu	-0.188012	-1.443682	-0.254119
Cu9	Cu	0.188030	-1.477952	-0.215768
O10	O	-0.158976	-1.413935	-0.483398
C11	C	0.000008	-1.230341	-0.244041
C12	C	0.000008	-1.091384	-0.239341
N13	N	-0.452500	-1.419587	-0.281091
N14	N	0.452518	-1.502058	-0.188783
C15	C	0.000002	-1.055074	-0.091902
C16	C	0.000015	-0.924509	-0.087494
C17	C	0.000033	-0.866572	-0.377979
C18	C	0.000034	-0.997136	-0.382383
C19	C	-0.000024	-1.149322	0.051140
C20	C	-0.000033	-1.113014	0.198590
C21	C	-0.000019	-0.982448	0.202998
C22	C	0.000003	-0.888191	0.059955
C23	C	0.000011	-1.498120	0.056773
C24	C	0.000022	-1.512735	0.233992
C25	C	0.000013	-0.691294	-0.225841
C26	C	0.000021	-0.830254	-0.230529
C27	C	0.000012	-1.423515	-0.526659
C28	C	0.000014	-1.408901	-0.703877
H29	H	-0.000040	-1.255638	0.047566
H30	H	0.534174	-1.587520	-0.093098
H31	H	0.465854	-1.334123	-0.376758
H32	H	-0.000007	-0.952893	0.323061
N33	N	-0.000048	-1.214661	0.352872
H34	H	0.117817	-1.280874	0.369545
H35	H	-0.118008	-1.259276	0.345396
H36	H	0.000007	-1.308823	0.213741
N37	N	0.000044	-0.747368	0.064707
H38	H	0.000047	-0.738665	0.179816
H39	H	-0.117828	-0.693878	-0.003355
H40	H	0.000048	-0.789818	-0.494437
H41	H	0.000007	-1.612817	0.316381
H42	H	0.000021	-1.026697	-0.502443
