data_functionalizedCrystal
_audit_creation_method	'MofGen! by Chris Wilmer'
_symmetry_space_group_name_H-M	'P1'
_symmetry_Int_Tables_number	1
_symmetry_cell_setting	triclinic
loop_
_symmetry_equiv_pos_as_xyz
  x,y,z
_cell_length_a	17.038272
_cell_length_b	9.130307
_cell_length_c	10.654541
_cell_angle_alpha	89.999496
_cell_angle_beta	87.797742
_cell_angle_gamma	90.004095
loop_
_atom_site_label
_atom_site_type_symbol
_atom_site_fract_x
_atom_site_fract_y
_atom_site_fract_z
O1	O	1.038886	-0.121601	0.272863
O2	O	0.811231	-0.121644	0.268530
O3	O	0.930294	-0.121622	0.088443
O4	O	0.919824	-0.121623	0.452950
O5	O	0.930290	0.121977	0.088441
O6	O	0.811227	0.121955	0.268528
O7	O	1.038882	0.121998	0.272860
Cu8	Cu	0.925054	0.144219	0.270694
Cu9	Cu	0.925059	-0.143865	0.270697
O10	O	0.919820	0.121976	0.452947
C11	C	0.782079	0.000150	0.264588
C12	C	0.695221	0.000133	0.252831
N13	N	0.925057	0.346842	0.270692
N14	N	0.925063	-0.346488	0.270689
C15	C	0.645709	0.000134	0.360775
C16	C	0.564097	0.000154	0.349721
C17	C	0.531998	0.000163	0.230721
C18	C	0.581516	0.000166	0.122768
C19	C	0.663127	0.000156	0.133824
C20	C	0.286022	0.000202	0.191663
C21	C	0.204405	0.000207	0.180615
C22	C	0.186991	0.000198	0.407569
C23	C	0.268604	0.000179	0.418614
C24	C	0.318115	0.000190	0.310662
C25	C	0.448577	0.000179	0.219418
C26	C	0.401534	0.000185	0.321965
C27	C	1.068034	0.000201	0.276802
C28	C	1.154893	0.000208	0.288559
C29	C	0.929524	0.000174	0.041572
C30	C	0.927225	0.000164	-0.098085
C31	C	1.030530	0.346851	0.111278
C32	C	1.083272	0.423523	0.031576
C33	C	1.083280	0.576856	0.031576
C34	C	1.030539	0.653522	0.111284
C35	C	0.977797	0.576850	0.190987
C36	C	0.977796	0.423513	0.190981
C37	C	0.872321	0.576841	0.350392
C38	C	0.872316	0.423507	0.350400
C39	C	0.819580	0.653506	0.430100
C40	C	0.766840	0.576835	0.509811
C41	C	0.766835	0.423492	0.509809
C42	C	0.819574	0.346836	0.430103
C43	C	0.920590	0.000177	0.499818
C44	C	0.922889	0.000177	0.639475
C45	C	0.780517	0.000168	0.654226
C46	C	0.710415	0.000169	0.727211
C47	C	0.712579	0.000169	0.858430
C48	C	0.784855	0.000165	0.916666
C49	C	0.854957	0.000164	0.843681
C50	C	0.852785	0.000168	0.712460
C51	C	0.997327	0.000163	0.828931
C52	C	0.995164	0.000173	0.697711
C53	C	1.069602	0.000158	0.887167
C54	C	1.139707	0.000168	0.814182
C55	C	1.137539	0.000169	0.682955
C56	C	1.065267	0.000172	0.624726
H57	H	0.523787	0.000153	0.437621
H58	H	0.786611	0.000147	1.023512
C59	C	1.141293	0.661198	-0.056096
H60	H	1.172705	0.593585	-0.103564
H61	H	1.112874	0.721018	-0.111435
H62	H	1.174101	0.721009	-0.007368
H63	H	1.030542	0.778374	0.111268
H64	H	0.819577	0.221984	0.430099
H65	H	0.294732	0.000155	0.515516
H66	H	0.146671	0.000192	0.495457
H67	H	0.427672	0.000186	0.418854
H68	H	0.778747	0.000171	0.547381
C69	C	0.630918	0.000182	0.663149
H70	H	0.639665	0.000197	0.574547
H71	H	0.602017	-0.084763	0.687683
H72	H	0.602032	0.085145	0.687686
H73	H	0.655496	0.000165	0.917855
H74	H	0.723883	0.361074	0.574707
H75	H	1.071360	0.000148	0.994013
H76	H	1.198548	0.000143	0.861609
H77	H	1.194625	0.000157	0.623538
C78	C	0.169098	0.000220	0.049710
H79	H	0.210273	0.000237	-0.013001
H80	H	0.137620	-0.084728	0.040680
H81	H	0.137627	0.085180	0.040688
H82	H	1.126212	0.361088	-0.033325
H83	H	1.063495	0.000171	0.517882
C84	C	0.340473	0.000204	0.072919
H85	H	0.309666	0.000195	0.000468
H86	H	0.372677	0.085150	0.072511
H87	H	0.372666	-0.084757	0.072511
H88	H	0.671837	0.000125	0.457678
H89	H	0.555375	0.000194	0.025876
H90	H	0.819585	0.778358	0.430091
C91	C	1.030527	0.178189	0.111290
H92	H	0.991567	0.143507	0.170180
H93	H	1.019398	0.143492	0.029824
H94	H	1.080618	0.143514	0.133900
H95	H	0.703439	0.000155	0.045924
C96	C	0.708834	0.661166	0.597479
H97	H	0.716393	0.763466	0.586064
H98	H	0.656552	0.636033	0.578205
H99	H	0.717783	0.636044	0.682265
H100	H	0.422433	0.000227	0.122528
