data_functionalizedCrystal
_audit_creation_method	'MofGen! by Chris Wilmer'
_symmetry_space_group_name_H-M	'P1'
_symmetry_Int_Tables_number	1
_symmetry_cell_setting	triclinic
loop_
_symmetry_equiv_pos_as_xyz
  x,y,z
_cell_length_a	6.817900
_cell_length_b	9.582889
_cell_length_c	14.858340
_cell_angle_alpha	92.657508
_cell_angle_beta	104.519754
_cell_angle_gamma	111.207298
loop_
_atom_site_label
_atom_site_type_symbol
_atom_site_fract_x
_atom_site_fract_y
_atom_site_fract_z
V1	V	-4.078396	-0.208010	-0.289789
V2	V	-3.745063	0.125324	0.043544
V3	V	-3.411729	0.458657	0.376877
O4	O	-4.023831	0.009014	-0.284448
O5	O	-3.690498	0.342347	0.048885
O6	O	-3.357164	0.675680	0.382219
O7	O	-4.069084	-0.411503	-0.287639
O8	O	-3.735750	-0.078170	0.045695
O9	O	-3.402417	0.255163	0.379028
O10	O	-4.034483	-0.205241	-0.416253
O11	O	-3.701149	0.128092	-0.082920
O12	O	-3.367816	0.461426	0.250413
O13	O	-4.058671	-0.198677	-0.154943
O14	O	-3.725338	0.134656	0.178390
O15	O	-3.392005	0.467990	0.511723
V16	V	-4.556377	-0.182000	-0.273681
V17	V	-4.223044	0.151333	0.059652
V18	V	-3.889711	0.484666	0.392986
O19	O	-4.351810	-0.265063	-0.325124
O20	O	-4.018476	0.068270	0.008209
O21	O	-3.685143	0.401603	0.341543
O22	O	-4.733161	-0.124946	-0.238346
O23	O	-4.399828	0.208387	0.094987
O24	O	-4.066494	0.541720	0.428320
O25	O	-4.342483	0.021494	-0.275832
O26	O	-4.009150	0.354827	0.057502
O27	O	-3.675817	0.688160	0.390835
O28	O	-4.728339	-0.399023	-0.279022
O29	O	-4.395006	-0.065690	0.054311
O30	O	-4.061673	0.267643	0.387644
O31	O	-4.693499	-0.191333	-0.408527
O32	O	-4.360165	0.142000	-0.075194
O33	O	-4.026832	0.475334	0.258140
O34	O	-4.377084	-0.184769	-0.147217
O35	O	-4.043751	0.148564	0.186116
O36	O	-3.710417	0.481898	0.519450
C37	C	-3.923448	-0.461097	-0.283024
C38	C	-3.590115	-0.127764	0.050310
C39	C	-3.256782	0.205569	0.383643
C40	C	-3.997151	-0.627459	-0.282108
C41	C	-3.663818	-0.294126	0.051225
C42	C	-3.330484	0.039207	0.384558
C43	C	-3.879310	-0.197987	-0.447083
C44	C	-3.545977	0.135346	-0.113750
C45	C	-3.212643	0.468680	0.219584
C46	C	-3.924948	-0.197070	-0.550467
C47	C	-3.591615	0.136263	-0.217134
C48	C	-3.258282	0.469597	0.116200
C49	C	-3.962009	-0.196323	-0.634426
C50	C	-3.628676	0.137010	-0.301093
C51	C	-3.295342	0.470343	0.032241
C52	C	-4.008517	-0.195380	-0.739756
C53	C	-3.675184	0.137953	-0.406423
C54	C	-3.341851	0.471286	-0.073089
C55	C	-4.045601	-0.194629	-0.823708
C56	C	-3.712268	0.138705	-0.490375
C57	C	-3.378934	0.472038	-0.157042
C58	C	-4.092115	-0.193689	-0.929045
C59	C	-3.758781	0.139645	-0.595712
C60	C	-3.425448	0.472978	-0.262379
C61	C	-4.151462	0.071080	-0.280444
C62	C	-3.818129	0.404413	0.052889
C63	C	-3.484795	0.737747	0.386223
C64	C	-4.056998	0.237440	-0.281365
C65	C	-3.723665	0.570773	0.051968
C66	C	-3.390331	0.904107	0.385301
C67	C	-4.195600	-0.192028	-0.116382
C68	C	-3.862266	0.141306	0.216951
C69	C	-3.528933	0.474639	0.550284
C70	C	-4.129198	-0.192937	-0.012998
C71	C	-3.795865	0.140396	0.320336
C72	C	-3.462532	0.473730	0.653669
