data_functionalizedCrystal
_audit_creation_method	'MofGen! by Chris Wilmer'
_symmetry_space_group_name_H-M	'P1'
_symmetry_Int_Tables_number	1
_symmetry_cell_setting	triclinic
loop_
_symmetry_equiv_pos_as_xyz
  x,y,z
_cell_length_a	12.837943
_cell_length_b	11.026607
_cell_length_c	9.482900
_cell_angle_alpha	78.599815
_cell_angle_beta	79.713792
_cell_angle_gamma	78.292522
loop_
_atom_site_label
_atom_site_type_symbol
_atom_site_fract_x
_atom_site_fract_y
_atom_site_fract_z
O1	O	1.448507	-0.304923	-0.120860
O2	O	1.143730	-0.288994	-0.120869
O3	O	1.270858	-0.117385	-0.120860
O4	O	1.321378	-0.476532	-0.120869
O5	O	1.245064	-0.152398	0.120930
O6	O	1.117936	-0.324007	0.120921
O7	O	1.422713	-0.339936	0.120930
Cu8	Cu	1.267969	-0.335168	0.143003
Cu9	Cu	1.298473	-0.293761	-0.142942
O10	O	1.295585	-0.511545	0.120921
C11	C	1.091209	-0.301120	0.000025
C12	C	0.973137	-0.285072	0.000021
N13	N	1.246522	-0.364292	0.344122
C14	C	1.248642	-0.088603	0.000033
C15	C	1.220859	0.049325	0.000027
C16	C	0.768177	-0.477992	0.000037
C17	C	0.657239	-0.462920	0.000035
C18	C	0.640320	-0.239857	0.000025
C19	C	0.751258	-0.254930	0.000027
C20	C	0.815183	-0.374000	0.000031
C21	C	0.926124	-0.389070	0.000023
C22	C	0.909202	-0.166011	0.000023
C23	C	0.798264	-0.150938	0.000021
C24	C	1.475235	-0.327809	0.000033
C25	C	1.593307	-0.343856	0.000027
C26	C	1.317802	-0.540326	0.000025
C27	C	1.345585	-0.678253	0.000021
C28	C	1.297573	0.114260	0.000027
C29	C	1.268860	0.256815	0.000021
N30	N	1.319927	-0.264629	-0.344061
C31	C	1.292139	-0.302344	0.416324
C32	C	1.274304	-0.326586	0.583740
H33	H	0.978171	-0.486024	0.000029
C34	C	0.555554	-0.557375	-0.124262
C35	C	0.605567	-0.577226	0.000034
H36	H	0.523649	-0.627945	-0.124254
H37	H	0.607476	-0.546421	-0.208561
H38	H	0.501606	-0.484305	-0.124249
H39	H	0.659521	-0.650292	0.000016
H40	H	0.553639	-0.588195	0.084355
H41	H	0.820226	-0.574944	0.000038
H42	H	0.588241	-0.142933	0.000142
C43	C	0.620691	-0.028787	0.000008
C44	C	0.727992	-0.020059	0.000009
H45	H	0.577313	0.052017	-0.000012
H46	H	0.596997	-0.084334	0.084326
H47	H	0.614991	-0.059944	-0.084310
H48	H	0.733693	0.011089	0.084333
H49	H	0.751693	0.035507	-0.084318
C50	C	1.137196	-0.512755	0.329203
C51	C	1.175968	-0.460114	0.427975
H52	H	1.093632	-0.571905	0.380971
H53	H	1.196008	-0.553803	0.269831
H54	H	1.095637	-0.448255	0.269837
H55	H	1.217534	-0.524613	0.487334
H56	H	1.117147	-0.419066	0.487373
C57	C	1.066247	0.101301	-0.124283
C58	C	1.103498	0.116738	0.000015
H59	H	0.993794	0.142925	-0.124292
H60	H	1.070143	0.014354	-0.124265
H61	H	1.109535	0.136178	-0.208590
H62	H	1.060215	0.081853	0.084323
H63	H	1.099594	0.203703	0.000010
C64	C	1.071748	-0.090060	0.000013
C65	C	0.960874	-0.051692	0.000015
H66	H	1.103645	-0.019486	0.000010
H67	H	1.102388	-0.126145	-0.084296
H68	H	1.084403	-0.150558	0.084340
H69	H	0.948218	0.008799	-0.084318
H70	H	0.930224	-0.015588	0.084332
H71	H	1.344392	-0.231356	0.354200
H72	H	1.384506	0.064314	0.000039
H73	H	1.181921	0.306756	0.000009
C74	C	1.496871	0.198031	-0.124265
C75	C	1.462954	0.254344	0.000026
H76	H	1.569326	0.156415	-0.124254
H77	H	1.491841	0.260651	-0.208567
H78	H	1.452457	0.138820	-0.124250
H79	H	1.507363	0.313562	0.000006
H80	H	1.467993	0.191717	0.084351
H81	H	1.222038	-0.397568	0.645861
C82	C	1.394084	-0.162898	0.422475
C83	C	1.390196	-0.168500	0.572093
H84	H	1.437386	-0.103470	0.370715
H85	H	1.323424	-0.138145	0.397807
H86	H	1.424098	-0.243280	0.397431
H87	H	1.360175	-0.088120	0.597139
H88	H	1.460870	-0.193246	0.596771
