data_functionalizedCrystal
_audit_creation_method	'MofGen! by Chris Wilmer'
_symmetry_space_group_name_H-M	'P1'
_symmetry_Int_Tables_number	1
_symmetry_cell_setting	triclinic
loop_
_symmetry_equiv_pos_as_xyz
  x,y,z
_cell_length_a	18.215407
_cell_length_b	25.639240
_cell_length_c	18.215399
_cell_angle_alpha	89.960373
_cell_angle_beta	89.983176
_cell_angle_gamma	90.033205
loop_
_atom_site_label
_atom_site_type_symbol
_atom_site_fract_x
_atom_site_fract_y
_atom_site_fract_z
Zn1	Zn	1.125010	-0.208137	-0.416068
Zn2	Zn	1.458343	0.125196	-0.082735
Zn3	Zn	1.791677	0.458529	0.250598
Zn4	Zn	1.124908	-0.295577	-0.292982
Zn5	Zn	1.458241	0.037756	0.040351
Zn6	Zn	1.791574	0.371089	0.373684
Zn7	Zn	1.001949	-0.208158	-0.293016
Zn8	Zn	1.335282	0.125175	0.040318
Zn9	Zn	1.668616	0.458508	0.373651
Zn10	Zn	1.001891	-0.295544	-0.416007
Zn11	Zn	1.335225	0.037789	-0.082674
Zn12	Zn	1.668558	0.371122	0.250659
O13	O	1.063439	-0.251854	-0.354518
O14	O	1.396773	0.081479	-0.021185
O15	O	1.730106	0.414812	0.312148
O16	O	1.227981	-0.219742	-0.399752
O17	O	1.561314	0.113592	-0.066419
O18	O	1.894647	0.446925	0.266914
O19	O	1.108578	-0.284003	-0.190002
O20	O	1.441912	0.049330	0.143331
O21	O	1.775245	0.382663	0.476664
O22	O	1.018340	-0.134990	-0.309379
O23	O	1.351673	0.198343	0.023955
O24	O	1.685007	0.531676	0.357288
O25	O	1.227906	-0.283983	-0.309322
O26	O	1.561239	0.049350	0.024012
O27	O	1.894572	0.382684	0.357345
O28	O	1.108752	-0.134975	-0.399785
O29	O	1.442086	0.198358	-0.066452
O30	O	1.775419	0.531692	0.266882
O31	O	1.018241	-0.219777	-0.190027
O32	O	1.351574	0.113556	0.143306
O33	O	1.684908	0.446890	0.476640
O34	O	0.898957	-0.219745	-0.309319
O35	O	1.232290	0.113588	0.024014
O36	O	1.565624	0.446921	0.357347
O37	O	1.018242	-0.283927	-0.519000
O38	O	1.351575	0.049406	-0.185666
O39	O	1.684909	0.382739	0.147667
O40	O	0.898915	-0.283947	-0.399681
O41	O	1.232248	0.049386	-0.066347
O42	O	1.565581	0.382719	0.266986
O43	O	1.108697	-0.219710	-0.519045
O44	O	1.442030	0.113624	-0.185711
O45	O	1.775363	0.446957	0.147622
O46	O	1.108523	-0.368738	-0.309262
O47	O	1.441856	-0.035405	0.024071
O48	O	1.775189	0.297929	0.357405
O49	O	1.018143	-0.368714	-0.399648
O50	O	1.351476	-0.035381	-0.066315
O51	O	1.684810	0.297953	0.267019
C52	C	0.872233	-0.251845	-0.354497
C53	C	1.205567	0.081488	-0.021164
C54	C	1.538900	0.414821	0.312169
C55	C	0.790434	-0.251854	-0.354506
C56	C	1.123768	0.081479	-0.021172
C57	C	1.457101	0.414813	0.312161
C58	C	0.602238	-0.285337	-0.401498
C59	C	0.935571	0.047997	-0.068164
C60	C	1.268904	0.381330	0.265169
C61	C	0.525379	-0.285338	-0.401507
C62	C	0.858712	0.047995	-0.068174
C63	C	1.192046	0.381328	0.265160
C64	C	0.525393	-0.218381	-0.307555
C65	C	0.858727	0.114952	0.025778
C66	C	1.192060	0.448285	0.359111
C67	C	0.602251	-0.218377	-0.307550
C68	C	0.935584	0.114956	0.025783
C69	C	1.268917	0.448289	0.359116
C70	C	0.640671	-0.251858	-0.354520
C71	C	0.974004	0.081475	-0.021187
C72	C	1.307337	0.414809	0.312146
C73	C	0.486955	-0.251864	-0.354535
C74	C	0.820288	0.081470	-0.021201
C75	C	1.153621	0.414803	0.312132
C76	C	0.403621	-0.251865	-0.354544
C77	C	0.736954	0.081468	-0.021211
C78	C	1.070288	0.414801	0.312123
C79	C	0.724010	-0.251856	-0.354512
C80	C	1.057343	0.081477	-0.021179
C81	C	1.390676	0.414811	0.312155
C82	C	1.063335	-0.387697	-0.354461
C83	C	1.396669	-0.054364	-0.021127
C84	C	1.730002	0.278970	0.312206
C85	C	1.063358	-0.445811	-0.354461
C86	C	1.396692	-0.112478	-0.021127
C87	C	1.730025	0.220856	0.312206
C88	C	1.110541	-0.806128	-0.401678
C89	C	1.443874	-0.472794	-0.068345
C90	C	1.777207	-0.139461	0.264989
C91	C	1.110562	-0.860732	-0.401693
C92	C	1.443896	-0.527399	-0.068359
C93	C	1.777229	-0.194065	0.264974
O94	O	1.150555	-0.888929	-0.441779
O95	O	1.483888	-0.555596	-0.108446
O96	O	1.817221	-0.222262	0.224887
N97	N	1.063542	-0.888093	-0.354590
N98	N	1.396875	-0.554760	-0.021256
N99	N	1.730208	-0.221427	0.312077
C100	C	1.016491	-0.860848	-0.307474
C101	C	1.349824	-0.527514	0.025860
C102	C	1.683158	-0.194181	0.359193
O103	O	0.976498	-0.889135	-0.267410
O104	O	1.309831	-0.555801	0.065923
O105	O	1.643164	-0.222468	0.399256
C106	C	1.016466	-0.806244	-0.307463
C107	C	1.349799	-0.472911	0.025870
C108	C	1.683133	-0.139578	0.359204
C109	C	1.063495	-0.778886	-0.354564
C110	C	1.396828	-0.445552	-0.021231
C111	C	1.730162	-0.112219	0.312103
C112	C	1.157565	-0.778769	-0.448776
C113	C	1.490899	-0.445435	-0.115442
C114	C	1.824232	-0.112102	0.217891
C115	C	1.157544	-0.724168	-0.448760
C116	C	1.490878	-0.390835	-0.115426
C117	C	1.824211	-0.057502	0.217907
C118	C	1.110499	-0.696926	-0.401646
C119	C	1.443832	-0.363593	-0.068312
C120	C	1.777165	-0.030260	0.265021
C121	C	1.063474	-0.724285	-0.354548
C122	C	1.396807	-0.390952	-0.021214
C123	C	1.730141	-0.057619	0.312119
C124	C	0.969412	-0.779000	-0.260351
C125	C	1.302745	-0.445666	0.072982
C126	C	1.636079	-0.112333	0.406316
C127	C	0.969391	-0.724393	-0.260345
C128	C	1.302724	-0.391059	0.072989
C129	C	1.636058	-0.057726	0.406322
C130	C	1.016420	-0.697034	-0.307446
C131	C	1.349753	-0.363701	0.025887
C132	C	1.683087	-0.030367	0.359221
C133	C	1.016408	-0.642443	-0.307418
C134	C	1.349741	-0.309110	0.025916
C135	C	1.683074	0.024224	0.359249
N136	N	1.063428	-0.615081	-0.354521
N137	N	1.396762	-0.281748	-0.021188
N138	N	1.730095	0.051585	0.312146
C139	C	1.110474	-0.642323	-0.401635
C140	C	1.443807	-0.308990	-0.068302
C141	C	1.777141	0.024343	0.265032
C142	C	1.016546	-0.975518	-0.307500
C143	C	1.349879	-0.642185	0.025833
C144	C	1.683212	-0.308852	0.359166
C145	C	1.016574	-1.030121	-0.307507
C146	C	1.349907	-0.696787	0.025826
C147	C	1.683240	-0.363454	0.359160
C148	C	1.110644	-1.030001	-0.401727
C149	C	1.443978	-0.696668	-0.068394
C150	C	1.777311	-0.363334	0.264939
C151	C	1.110620	-0.975398	-0.401717
C152	C	1.443953	-0.642064	-0.068383
C153	C	1.777286	-0.308731	0.264950
C154	C	1.063566	-0.948157	-0.354604
C155	C	1.396900	-0.614823	-0.021270
C156	C	1.730233	-0.281490	0.312063
C157	C	1.110427	-0.527658	-0.401597
C158	C	1.443760	-0.194325	-0.068264
C159	C	1.777093	0.139009	0.265070
C160	C	1.110404	-0.473053	-0.401575
C161	C	1.443737	-0.139719	-0.068241
C162	C	1.777071	0.193614	0.265092
C163	C	1.016331	-0.473177	-0.307357
C164	C	1.349664	-0.139844	0.025976
C165	C	1.682997	0.193489	0.359309
C166	C	1.016356	-0.527778	-0.307377
C167	C	1.349690	-0.194444	0.025957
C168	C	1.683023	0.138889	0.359290
C169	C	1.063407	-0.555017	-0.354503
C170	C	1.396740	-0.221684	-0.021169
C171	C	1.730073	0.111650	0.312164
O172	O	0.976434	-0.614211	-0.267354
O173	O	1.309767	-0.280878	0.065979
O174	O	1.643100	0.052456	0.399313
O175	O	1.150454	-0.614029	-0.441698
O176	O	1.483787	-0.280696	-0.108365
O177	O	1.817120	0.052637	0.224968
C178	C	1.255392	-0.251864	-0.354540
C179	C	1.588726	0.081470	-0.021207
C180	C	1.922059	0.414803	0.312127
C181	C	1.337191	-0.251868	-0.354549
C182	C	1.670525	0.081466	-0.021216
C183	C	2.003858	0.414799	0.312117
C184	C	1.063474	-0.251813	-0.546471
C185	C	1.396808	0.081521	-0.213138
C186	C	1.730141	0.414854	0.120195
C187	C	1.063489	-0.251795	-0.628270
C188	C	1.396822	0.081539	-0.294937
C189	C	1.730156	0.414872	0.038396
C190	C	1.063564	-0.115481	-0.354592
C191	C	1.396897	0.217852	-0.021259
C192	C	1.730231	0.551185	0.312074
C193	C	1.063617	-0.057367	-0.354624
C194	C	1.396950	0.275966	-0.021291
C195	C	1.730284	0.609299	0.312043
C196	C	1.016490	-0.218330	-0.816478
C197	C	1.349823	0.115004	-0.483145
C198	C	1.683157	0.448337	-0.149811
C199	C	1.016503	-0.218319	-0.893337
C200	C	1.349836	0.115014	-0.560004
C201	C	1.683170	0.448348	-0.226670
C202	C	1.110576	-0.285198	-0.893301
C203	C	1.443909	0.048136	-0.559967
C204	C	1.777243	0.381469	-0.226634
C205	C	1.110559	-0.285210	-0.816443
C206	C	1.443892	0.048123	-0.483110
C207	C	1.777226	0.381456	-0.149777
C208	C	1.063517	-0.251773	-0.778034
C209	C	1.396850	0.081560	-0.444701
C210	C	1.730184	0.414893	-0.111367
C211	C	1.063547	-0.251750	-0.931750
C212	C	1.396880	0.081583	-0.598417
C213	C	1.730214	0.414917	-0.265083
C214	C	1.063561	-0.251739	-1.015084
C215	C	1.396894	0.081594	-0.681751
C216	C	1.730228	0.414928	-0.348417
C217	C	1.063502	-0.251785	-0.694695
C218	C	1.396835	0.081548	-0.361362
C219	C	1.730168	0.414882	-0.028028
C220	C	1.063447	-0.251858	-0.163312
C221	C	1.396781	0.081475	0.170021
C222	C	1.730114	0.414808	0.503354
C223	C	1.063575	-0.251729	-0.081514
C224	C	1.396908	0.081605	0.251820
C225	C	1.730242	0.414938	0.585153
H226	H	0.633544	-0.191112	-0.269296
H227	H	0.966877	0.142221	0.064038
H228	H	1.300210	0.475555	0.397371
Cl229	Cl	0.957349	-0.176297	-0.768195
Cl230	Cl	1.290682	0.157037	-0.434862
Cl231	Cl	1.624016	0.490370	-0.101528
H232	H	1.148735	-0.549830	-0.439977
H233	H	1.482068	-0.216496	-0.106643
H234	H	1.815401	0.116837	0.226690
Cl235	Cl	0.957371	-0.176280	-0.941664
Cl236	Cl	1.290704	0.157053	-0.608330
Cl237	Cl	1.624037	0.490386	-0.274997
H238	H	1.148876	-0.312420	-0.924583
H239	H	1.482210	0.020913	-0.591249
H240	H	1.815543	0.354246	-0.257916
Cl241	Cl	1.169532	-0.438662	-0.460791
Cl242	Cl	1.502865	-0.105329	-0.127458
Cl243	Cl	1.836198	0.228004	0.205876
Cl244	Cl	1.216664	-0.689783	-0.507982
Cl245	Cl	1.549997	-0.356449	-0.174649
Cl246	Cl	1.883330	-0.023116	0.158685
H247	H	1.195875	-0.800943	-0.487146
H248	H	1.529209	-0.467610	-0.153813
H249	H	1.862542	-0.134277	0.179521
Cl250	Cl	1.169742	-0.941010	-0.460933
Cl251	Cl	1.503076	-0.607676	-0.127600
Cl252	Cl	1.836409	-0.274343	0.205734
H253	H	0.633517	-0.312598	-0.439746
H254	H	0.966850	0.020736	-0.106412
H255	H	1.300184	0.354069	0.226921
H256	H	1.148856	-0.312446	-0.785141
H257	H	1.482189	0.020887	-0.451808
H258	H	1.815522	0.354220	-0.118474
Cl259	Cl	0.910235	-0.690151	-0.201113
Cl260	Cl	1.243568	-0.356817	0.132220
Cl261	Cl	1.576901	-0.023484	0.465554
H262	H	1.148950	-1.052191	-0.440092
H263	H	1.482284	-0.718858	-0.106758
H264	H	1.815617	-0.385524	0.226575
Cl265	Cl	0.477066	-0.327427	-0.460568
Cl266	Cl	0.810399	0.005906	-0.127235
Cl267	Cl	1.143733	0.339240	0.206098
H268	H	0.978067	-0.550054	-0.269017
H269	H	1.311400	-0.216721	0.064316
H270	H	1.644734	0.116612	0.397649
H271	H	0.494102	-0.191123	-0.269313
H272	H	0.827436	0.142210	0.064021
H273	H	1.160769	0.475543	0.397354
H274	H	0.978232	-0.953341	-0.269129
H275	H	1.311565	-0.620008	0.064204
H276	H	1.644898	-0.286675	0.397537
Cl277	Cl	0.957459	-1.064508	-0.248281
Cl278	Cl	1.290792	-0.731174	0.085052
Cl279	Cl	1.624126	-0.397841	0.418385
Cl280	Cl	0.910283	-0.813380	-0.201137
Cl281	Cl	1.243616	-0.480047	0.132196
Cl282	Cl	1.576949	-0.146714	0.465529
H283	H	0.978029	-0.450988	-0.268995
H284	H	1.311362	-0.117655	0.064338
H285	H	1.644696	0.215678	0.397671
