data_functionalizedCrystal
_audit_creation_method	'MofGen! by Chris Wilmer'
_symmetry_space_group_name_H-M	'P1'
_symmetry_Int_Tables_number	1
_symmetry_cell_setting	triclinic
loop_
_symmetry_equiv_pos_as_xyz
  x,y,z
_cell_length_a	14.971486
_cell_length_b	15.944551
_cell_length_c	13.448316
_cell_angle_alpha	89.992444
_cell_angle_beta	89.998199
_cell_angle_gamma	83.556434
loop_
_atom_site_label
_atom_site_type_symbol
_atom_site_fract_x
_atom_site_fract_y
_atom_site_fract_z
O1	O	1.186829	0.109463	-0.082580
O2	O	1.686829	0.609463	0.417420
O3	O	0.926415	0.122572	-0.082607
O4	O	1.426415	0.622572	0.417393
O5	O	1.063733	-0.006250	-0.082584
O6	O	1.563733	0.493750	0.417416
O7	O	1.049511	0.238286	-0.082603
O8	O	1.549511	0.738286	0.417397
O9	O	1.063716	-0.006258	0.082800
O10	O	1.563716	0.493742	0.582800
O11	O	0.926398	0.122564	0.082777
O12	O	1.426398	0.622564	0.582777
O13	O	1.186812	0.109456	0.082804
O14	O	1.686812	0.609456	0.582804
Cu15	Cu	1.056603	0.116009	0.097891
Cu16	Cu	1.556603	0.616009	0.597891
Cu17	Cu	1.056624	0.116018	-0.097694
Cu18	Cu	1.556624	0.616018	0.402306
O19	O	1.049494	0.238278	0.082781
O20	O	1.549494	0.738278	0.582781
C21	C	0.893082	0.121982	0.000081
C22	C	1.393082	0.621982	0.500081
C23	C	0.793787	0.120225	0.000071
C24	C	1.293787	0.620225	0.500071
C25	C	1.063134	-0.037549	0.000108
C26	C	1.563134	0.462451	0.500108
C27	C	1.061364	-0.130797	0.000109
C28	C	1.561364	0.369203	0.500109
C29	C	0.736480	0.195904	0.000067
C30	C	1.236480	0.695904	0.500067
C31	C	0.643182	0.194249	0.000082
C32	C	1.143182	0.694249	0.500082
C33	C	0.607194	0.116913	0.000094
C34	C	1.107194	0.616913	0.500094
C35	C	0.664508	0.041227	0.000102
C36	C	1.164508	0.541227	0.500102
C37	C	0.757804	0.042884	0.000094
C38	C	1.257804	0.542884	0.500094
C39	C	0.470049	0.037780	0.000116
C40	C	0.970049	0.537780	0.500116
C41	C	0.376747	0.036123	0.000122
C42	C	0.876747	0.536123	0.500122
C43	C	0.355428	0.189145	0.000104
C44	C	0.855428	0.689145	0.500104
C45	C	0.448724	0.190801	0.000096
C46	C	0.948724	0.690801	0.500096
C47	C	0.506032	0.115116	0.000101
C48	C	1.006032	0.615116	0.500101
C49	C	0.972017	-0.345738	0.000086
C50	C	1.472017	0.154262	0.500086
C51	C	1.013498	-0.406720	0.081634
C52	C	1.513498	0.093280	0.581634
C53	C	1.058162	-0.301526	0.000101
C54	C	1.558162	0.198474	0.500101
C55	C	1.013536	-0.406696	-0.081421
C56	C	1.513536	0.093304	0.418579
C57	C	1.055062	-0.466441	0.000089
C58	C	1.555062	0.033559	0.500089
C59	C	1.099667	-0.361279	0.081717
C60	C	1.599667	0.138721	0.581717
C61	C	1.099692	-0.361248	-0.081412
C62	C	1.599692	0.138752	0.418588
C63	C	1.141236	-0.422212	0.000156
C64	C	1.641236	0.077788	0.500156
C65	C	1.059945	-0.206522	0.000109
C66	C	1.559945	0.293478	0.500109
C67	C	1.053286	-0.561444	0.000088
C68	C	1.553286	-0.061444	0.500088
C69	C	1.220145	0.110046	0.000113
C70	C	1.720145	0.610046	0.500113
C71	C	1.319440	0.111802	0.000117
C72	C	1.819440	0.611802	0.500117
C73	C	1.050093	0.269576	0.000087
C74	C	1.550093	0.769576	0.500087
C75	C	1.051863	0.362824	0.000080
C76	C	1.551863	0.862824	0.500080
N77	N	1.056595	0.116002	0.235456
N78	N	1.556595	0.616002	0.735456
N79	N	1.056639	0.116019	-0.235258
N80	N	1.556639	0.616019	0.264742
C81	C	1.117419	0.058983	0.287506
C82	C	1.617419	0.558983	0.787506
C83	C	1.117425	0.058982	0.391610
C84	C	1.617425	0.558982	0.891610
C85	C	1.056610	0.116005	0.443660
C86	C	1.556610	0.616005	0.943660
C87	C	0.995780	0.173027	0.391602
C88	C	1.495780	0.673027	0.891602
C89	C	0.995771	0.173023	0.287501
C90	C	1.495771	0.673023	0.787501
C91	C	0.995805	0.173033	0.608582
C92	C	1.495805	0.673033	1.108582
C93	C	0.995815	0.173038	0.712691
C94	C	1.495815	0.673038	1.212691
C95	C	1.117459	0.058992	0.712691
C96	C	1.617459	0.558992	1.212691
C97	C	1.117449	0.058988	0.608590
C98	C	1.617449	0.558988	1.108590
C99	C	1.056620	0.116011	0.556539
C100	C	1.556620	0.616011	1.056539
H101	H	0.765774	0.258881	0.000056
H102	H	1.265774	0.758881	0.500056
H103	H	1.166945	0.012552	0.245134
H104	H	1.666945	0.512552	0.745134
H105	H	1.166951	0.012552	0.433989
H106	H	1.666951	0.512552	0.933989
H107	H	1.136065	-0.341257	0.150735
H108	H	1.636065	0.158743	0.650735
H109	H	0.635199	-0.021741	0.000126
H110	H	1.135199	0.478259	0.500126
H111	H	1.136104	-0.341080	-0.150351
H112	H	1.636104	0.158920	0.349649
H113	H	0.900512	-0.312499	0.000160
H114	H	1.400512	0.187501	0.500160
Cl115	Cl	0.919322	0.244711	0.457035
Cl116	Cl	1.419322	0.744711	0.957035
H117	H	0.478022	0.253775	0.000076
H118	H	0.978022	0.753775	0.500076
Cl119	Cl	0.919300	0.244705	0.222067
Cl120	Cl	1.419300	0.744705	0.722067
H121	H	0.804463	-0.018742	0.000097
H122	H	1.304463	0.481258	0.500097
Cl123	Cl	1.193907	-0.012693	0.543153
Cl124	Cl	1.693907	0.487307	1.043153
H125	H	0.977055	-0.426866	0.150570
H126	H	1.477055	0.073134	0.650570
Cl127	Cl	0.957269	-0.437763	-0.187856
Cl128	Cl	1.457269	0.062237	0.312144
Cl129	Cl	0.571143	0.289394	0.000070
Cl130	Cl	1.071143	0.789394	0.500070
Cl131	Cl	0.283384	0.284293	0.000099
Cl132	Cl	0.783384	0.784293	0.500099
H133	H	1.166987	0.012562	0.755077
H134	H	1.666987	0.512562	1.255077
Cl135	Cl	0.919357	0.244726	0.778118
Cl136	Cl	1.419357	0.744726	1.278118
Cl137	Cl	1.251728	-0.473306	0.000235
Cl138	Cl	1.751728	0.026694	0.500235
Cl139	Cl	0.331505	-0.061101	0.000171
Cl140	Cl	0.831505	0.438899	0.500171
Cl141	Cl	0.542092	-0.057370	0.000125
Cl142	Cl	1.042092	0.442630	0.500125
Cl143	Cl	0.919330	0.244719	0.543151
Cl144	Cl	1.419330	0.744719	1.043151
