data_functionalizedCrystal
_audit_creation_method	'MofGen! by Chris Wilmer'
_symmetry_space_group_name_H-M	'P1'
_symmetry_Int_Tables_number	1
_symmetry_cell_setting	triclinic
loop_
_symmetry_equiv_pos_as_xyz
  x,y,z
_cell_length_a	27.732048
_cell_length_b	14.853567
_cell_length_c	13.930277
_cell_angle_alpha	89.996364
_cell_angle_beta	90.000326
_cell_angle_gamma	96.861207
loop_
_atom_site_label
_atom_site_type_symbol
_atom_site_fract_x
_atom_site_fract_y
_atom_site_fract_z
O1	O	0.063100	-1.195342	0.079776
O2	O	0.070618	-0.932761	0.079793
O3	O	-0.003500	-1.072207	0.079766
O4	O	0.137217	-1.055896	0.079803
O5	O	-0.003488	-1.072186	-0.079896
O6	O	0.070629	-0.932740	-0.079869
O7	O	0.063111	-1.195322	-0.079886
Zn8	Zn	0.066872	-1.064028	-0.105227
Zn9	Zn	0.066857	-1.064055	0.105134
O10	O	0.137229	-1.055876	-0.079859
C11	C	0.070283	-0.899167	-0.000036
C12	C	0.069262	-0.799100	-0.000030
C13	C	-0.021503	-1.071854	-0.000068
C14	C	-0.075162	-1.070823	-0.000076
C15	C	0.063446	-1.228915	-0.000055
C16	C	0.064467	-1.328982	-0.000055
C17	C	-0.413622	-1.146736	-0.000032
C18	C	-0.615300	-1.142911	-0.000018
O19	O	-0.646231	-1.212328	0.000019
N20	N	-0.634810	-1.060225	-0.000013
C21	C	-0.603898	-0.978490	-0.000006
O22	O	-0.625120	-0.908073	0.000008
C23	C	-0.402221	-0.982316	-0.000013
C24	C	-0.382714	-1.065007	-0.000027
C25	C	-0.394114	-1.229421	-0.000045
C26	C	-0.343698	-1.230376	-0.000054
C27	C	-0.312790	-1.148647	-0.000049
C28	C	-0.332298	-1.065963	-0.000036
C29	C	-0.371310	-0.900582	0.000002
C30	C	-0.320888	-0.901546	0.000003
C31	C	-0.301381	-0.984237	-0.000012
C32	C	-0.250973	-0.985189	-0.000040
N33	N	-0.231462	-1.067875	-0.000044
C34	C	-0.262371	-1.149604	-0.000049
C35	C	-0.709781	-0.976487	-0.000004
C36	C	-0.760200	-0.975530	-0.000004
C37	C	-0.771599	-1.139952	-0.000015
C38	C	-0.721179	-1.140908	-0.000021
C39	C	-0.690271	-1.059173	-0.000009
C40	C	-0.156492	-1.151604	-0.000068
C41	C	-0.106071	-1.152552	-0.000081
C42	C	-0.094677	-0.988131	-0.000065
C43	C	-0.145094	-0.987183	-0.000057
C44	C	-0.176001	-1.068926	-0.000056
O45	O	-0.220013	-0.915809	-0.000066
O46	O	-0.241139	-1.220011	-0.000042
C47	C	-0.464039	-1.145781	-0.000023
C48	C	-0.483547	-1.063097	-0.000010
C49	C	-0.452638	-0.981367	-0.000005
C50	C	-0.533966	-1.062140	-0.000010
C51	C	-0.564874	-1.143869	-0.000014
C52	C	-0.545364	-1.226555	-0.000019
C53	C	-0.494947	-1.227510	-0.000028
C54	C	-0.472149	-0.898682	-0.000000
C55	C	-0.522566	-0.897733	0.000007
C56	C	-0.553474	-0.979462	0.000003
C57	C	0.155232	-1.056228	-0.000023
C58	C	0.208891	-1.057259	-0.000009
N59	N	0.066882	-1.064016	-0.248793
C60	C	0.020920	-0.387353	-0.000064
C61	C	0.108973	-0.364639	-0.000040
C62	C	0.109933	-0.458657	-0.000036
C63	C	0.066385	-0.517028	-0.000045
C64	C	0.021878	-0.481380	-0.000058
C65	C	0.154439	-0.494313	-0.000014
C66	C	0.155401	-0.588336	-0.000010
C67	C	0.111853	-0.646708	-0.000026
C68	C	0.067344	-0.611055	-0.000039
C69	C	0.023796	-0.669425	-0.000048
C70	C	-0.020713	-0.633774	-0.000069
C71	C	-0.021670	-0.539752	-0.000074
C72	C	0.112809	-0.740730	-0.000021
C73	C	0.024755	-0.763452	-0.000042
C74	C	0.096218	-1.118333	-0.701048
C75	C	0.037476	-1.009805	-0.701046
C76	C	0.037484	-1.009791	-0.600551
C77	C	0.066859	-1.064050	-0.550299
C78	C	0.096226	-1.118323	-0.600543
C79	C	0.008114	-0.955526	-0.550299
C80	C	0.008120	-0.955511	-0.449797
C81	C	0.037498	-1.009766	-0.399544
C82	C	0.066866	-1.064040	-0.449794
C83	C	0.096241	-1.118299	-0.399542
C84	C	0.125613	-1.172569	-0.449791
C85	C	0.125603	-1.172578	-0.550290
C86	C	0.037507	-1.009757	-0.299045
C87	C	0.096249	-1.118289	-0.299037
N88	N	0.066843	-1.064074	0.248700
H89	H	-0.090191	-1.219892	-0.000095
H90	H	0.149527	-1.216751	-0.408863
H91	H	-0.181651	-1.218168	-0.000063
H92	H	0.149515	-1.216763	-0.591211
H93	H	0.149048	-0.769753	-0.000006
H94	H	0.144427	-0.317109	-0.000024
H95	H	-0.295725	-0.834986	0.000014
H96	H	-0.015319	-0.358321	-0.000085
H97	H	0.189893	-0.446781	0.000003
H98	H	0.120133	-1.162516	-0.741965
H99	H	0.191643	-0.617355	0.000007
H100	H	-0.705300	-1.208242	-0.000032
H101	H	-0.538443	-0.830391	0.000011
H102	H	0.013557	-0.965636	-0.741967
H103	H	0.120172	-1.162469	-0.258129
H104	H	-0.160977	-0.919849	-0.000072
H105	H	-0.015806	-0.911359	-0.591222
H106	H	-0.015796	-0.911320	-0.408894
H107	H	-0.387184	-0.833246	0.000019
H108	H	-0.069502	-0.921590	-0.000065
H109	H	-0.796773	-1.206499	-0.000019
H110	H	-0.776078	-0.908195	-0.000009
H111	H	0.013592	-0.965574	-0.258137
H112	H	-0.327820	-1.297712	-0.000061
H113	H	-0.479069	-1.294846	-0.000039
H114	H	-0.419276	-1.295978	-0.000045
H115	H	-0.056169	-0.681311	-0.000070
H116	H	-0.684620	-0.909925	0.000006
H117	H	-0.570538	-1.293101	-0.000027
H118	H	-0.446987	-0.832126	0.000006
H119	H	-0.057907	-0.510716	-0.000113
H120	H	-0.010707	-0.810972	-0.000053
