data_functionalizedCrystal
_audit_creation_method	'MofGen! by Chris Wilmer'
_symmetry_space_group_name_H-M	'P1'
_symmetry_Int_Tables_number	1
_symmetry_cell_setting	triclinic
loop_
_symmetry_equiv_pos_as_xyz
  x,y,z
_cell_length_a	12.811438
_cell_length_b	12.837942
_cell_length_c	11.295483
_cell_angle_alpha	85.469583
_cell_angle_beta	88.710055
_cell_angle_gamma	89.413151
loop_
_atom_site_label
_atom_site_type_symbol
_atom_site_fract_x
_atom_site_fract_y
_atom_site_fract_z
O1	O	1.403249	0.143392	-0.052536
O2	O	1.101287	0.156287	-0.019920
O3	O	1.245572	-0.001143	-0.035512
O4	O	1.258964	0.300822	-0.036944
O5	O	1.232897	0.012663	-0.232193
O6	O	1.088612	0.170093	-0.216601
O7	O	1.390574	0.157198	-0.249217
Cu8	Cu	1.238436	0.164906	-0.250868
Cu9	Cu	1.253425	0.148579	-0.018269
O10	O	1.246289	0.314628	-0.233625
C11	C	1.056031	0.162043	-0.114057
C12	C	0.940066	0.158613	-0.101531
C13	C	1.234711	-0.032914	-0.133363
C14	C	1.221219	-0.148153	-0.131904
C15	C	0.783523	0.146254	0.023321
C16	C	0.892484	0.149475	0.011562
C17	C	0.878680	0.164527	-0.202872
C18	C	0.769719	0.161306	-0.191113
C19	C	0.722145	0.152171	-0.078013
C20	C	0.613182	0.148957	-0.066255
C21	C	0.599380	0.164001	-0.280688
C22	C	0.708341	0.167222	-0.292447
C23	C	1.383421	-0.387176	-0.149399
C24	C	1.370748	-0.495453	-0.148028
C25	C	1.183204	-0.472987	-0.127783
C26	C	1.195876	-0.364710	-0.129154
C27	C	1.295987	-0.321809	-0.139964
C28	C	1.308658	-0.213529	-0.141343
C29	C	1.121115	-0.191065	-0.121090
C30	C	1.108443	-0.299343	-0.119719
C31	C	1.435830	0.151442	-0.155078
C32	C	1.551796	0.154871	-0.167596
C33	C	1.257151	0.346399	-0.135771
C34	C	1.270643	0.461637	-0.137223
N35	N	1.227900	0.176389	-0.414465
C36	C	1.339802	0.054369	-0.675848
C37	C	1.331849	0.063054	-0.799652
C38	C	1.204035	0.202439	-0.785880
C39	C	1.211988	0.193754	-0.662075
C40	C	1.279875	0.119717	-0.607064
C41	C	1.287834	0.111038	-0.483258
C42	C	1.160015	0.250417	-0.469488
C43	C	1.152062	0.259102	-0.593292
N44	N	1.263968	0.137088	0.145328
H45	H	0.574449	0.141524	0.025838
H46	H	1.380645	0.009840	-0.855652
H47	H	1.101698	-0.507938	-0.118970
H48	H	1.390173	-0.178600	-0.150150
H49	H	0.744788	0.138827	0.115412
H50	H	1.148755	0.262710	-0.830685
O51	O	0.925032	0.173255	-0.312664
C52	C	0.990514	0.085863	-0.326196
H53	H	1.013779	0.049910	-0.234970
H54	H	1.063572	0.111478	-0.379758
H55	H	0.947143	0.025537	-0.374802
H56	H	1.464934	-0.352244	-0.158213
H57	H	1.343113	0.050757	-0.438470
O58	O	1.011263	-0.341156	-0.109069
C59	C	1.004869	-0.410238	-0.005790
H60	H	1.086572	-0.438592	0.019594
H61	H	0.954799	-0.480020	-0.023453
H62	H	0.968066	-0.367967	0.070002
H63	H	1.441946	-0.548673	-0.155708
O64	O	1.036219	-0.127540	-0.111714
C65	C	1.044507	-0.071356	-0.010058
H66	H	1.098487	-0.115349	0.055810
H67	H	0.963916	-0.062593	0.033070
H68	H	1.077816	0.009304	-0.036850
H69	H	0.942454	0.144658	0.094079
O70	O	0.754684	0.175958	-0.402243
C71	C	0.820169	0.088571	-0.415794
H72	H	0.843448	0.052613	-0.324575
H73	H	0.893220	0.114194	-0.469365
H74	H	0.776796	0.028246	-0.464398
O75	O	0.539723	0.169553	-0.379100
C76	C	0.479157	0.078465	-0.379015
H77	H	0.517927	0.012481	-0.321930
H78	H	0.472795	0.054974	-0.473813
H79	H	0.397775	0.094281	-0.341237
H80	H	1.395086	-0.005907	-0.631058
H81	H	1.096786	0.319378	-0.638096
O82	O	1.101955	0.313943	-0.402560
C83	C	1.168767	0.373664	-0.337684
H84	H	1.247453	0.332036	-0.327485
H85	H	1.132468	0.383447	-0.246112
H86	H	1.180407	0.453798	-0.386994
