data_functionalizedCrystal
_audit_creation_method	'MofGen! by Chris Wilmer'
_symmetry_space_group_name_H-M	'P1'
_symmetry_Int_Tables_number	1
_symmetry_cell_setting	triclinic
loop_
_symmetry_equiv_pos_as_xyz
  x,y,z
_cell_length_a	6.817900
_cell_length_b	19.551823
_cell_length_c	14.125465
_cell_angle_alpha	96.298245
_cell_angle_beta	100.398878
_cell_angle_gamma	101.663376
loop_
_atom_site_label
_atom_site_type_symbol
_atom_site_fract_x
_atom_site_fract_y
_atom_site_fract_z
V1	V	-3.982343	-0.096074	-0.300423
O2	O	-3.979997	0.005234	-0.294242
O3	O	-3.925224	-0.191092	-0.298814
O4	O	-3.918648	-0.094325	-0.431245
O5	O	-3.986618	-0.092203	-0.160894
V6	V	-4.469083	-0.083988	-0.283680
O7	O	-4.236546	-0.122585	-0.337151
O8	O	-4.665077	-0.057477	-0.246953
O9	O	-4.302995	0.011030	-0.285290
O10	O	-4.588825	-0.185296	-0.289862
O11	O	-4.582204	-0.087859	-0.423210
O12	O	-4.309571	-0.085737	-0.152859
C13	C	-3.768599	-0.214264	-0.294190
C14	C	-3.803082	-0.291941	-0.293746
C15	C	-4.000485	-0.331978	-0.298348
C16	C	-4.032890	-0.404965	-0.297941
C17	C	-3.867873	-0.437910	-0.292911
C18	C	-3.670443	-0.397865	-0.288314
C19	C	-3.638048	-0.324880	-0.288731
C20	C	-3.761777	-0.544520	-0.231903
C21	C	-3.794177	-0.617502	-0.231480
C22	C	-3.967785	-0.663018	-0.291629
C23	C	-4.109018	-0.635542	-0.352189
C24	C	-4.076622	-0.562558	-0.352606
C25	C	-3.902980	-0.517049	-0.292459
C26	C	-4.200338	-0.782196	-0.295791
C27	C	-4.232737	-0.855185	-0.295390
C28	C	-3.870282	-0.848082	-0.285753
C29	C	-3.837891	-0.775096	-0.286164
C30	C	-4.002925	-0.742157	-0.291179
C31	C	-3.760210	-0.090827	-0.463118
C32	C	-3.789359	-0.090026	-0.570068
C33	C	-3.842786	-0.088557	-0.765884
C34	C	-4.028008	-0.091504	-0.818219
C35	C	-4.057738	-0.090686	-0.927178
C36	C	-3.813049	-0.089374	-0.656916
C37	C	-4.122962	0.034198	-0.289912
C38	C	-4.067716	0.111875	-0.290362
C39	C	-4.131351	-0.089237	-0.120981
C40	C	-4.081442	-0.090035	-0.014030
H41	H	-4.193644	-0.437568	-0.301689
H42	H	-3.706552	-0.085421	-0.802908
H43	H	-3.620390	-0.507466	-0.182926
N44	N	-3.641838	-0.647123	-0.166159
H45	H	-3.503248	-0.634031	-0.183677
H46	H	-3.688861	-0.700257	-0.175036
N47	N	-4.178487	-0.296454	-0.303788
H48	H	-4.308465	-0.332897	-0.306652
H49	H	-4.192583	-0.273002	-0.364131
N50	N	-4.228916	-0.532924	-0.417934
H51	H	-4.182040	-0.479784	-0.409070
H52	H	-4.367476	-0.546062	-0.400405
N53	N	-4.208502	-0.095669	-0.769190
H54	H	-4.270374	-0.053565	-0.779219
H55	H	-4.161211	-0.095698	-0.697195
H56	H	-4.250189	-0.672611	-0.401300
H57	H	-4.334718	-0.755375	-0.299873
H58	H	-3.735923	-0.874906	-0.281664
N59	N	-4.445665	-0.898372	-0.300362
H60	H	-4.538922	-0.893881	-0.362486
H61	H	-4.499400	-0.880536	-0.242544
N62	N	-3.624974	-0.731908	-0.281201
H63	H	-3.525349	-0.763852	-0.277955
H64	H	-3.583962	-0.694804	-0.221215
H65	H	-3.477296	-0.292283	-0.284984
N66	N	-3.492452	-0.433392	-0.282879
H67	H	-3.542925	-0.485702	-0.283306
H68	H	-3.387999	-0.412413	-0.220895
