data_functionalizedCrystal
_audit_creation_method	'MofGen! by Chris Wilmer'
_symmetry_space_group_name_H-M	'P1'
_symmetry_Int_Tables_number	1
_symmetry_cell_setting	triclinic
loop_
_symmetry_equiv_pos_as_xyz
  x,y,z
_cell_length_a	21.295417
_cell_length_b	17.077404
_cell_length_c	17.077396
_cell_angle_alpha	90.019699
_cell_angle_beta	89.966808
_cell_angle_gamma	89.972425
loop_
_atom_site_label
_atom_site_type_symbol
_atom_site_fract_x
_atom_site_fract_y
_atom_site_fract_z
Zn1	Zn	-0.250658	-1.200013	-0.443821
Zn2	Zn	0.082675	-0.866680	-0.110488
Zn3	Zn	0.416008	-0.533346	0.222846
Zn4	Zn	-0.355931	-1.199903	-0.312544
Zn5	Zn	-0.022598	-0.866569	0.020789
Zn6	Zn	0.310735	-0.533236	0.354122
Zn7	Zn	-0.250675	-1.068745	-0.312569
Zn8	Zn	0.082659	-0.735411	0.020765
Zn9	Zn	0.415992	-0.402078	0.354098
Zn10	Zn	-0.355888	-1.068695	-0.443767
Zn11	Zn	-0.022555	-0.735362	-0.110434
Zn12	Zn	0.310778	-0.402029	0.222899
O13	O	-0.303288	-1.134339	-0.378175
O14	O	0.030045	-0.801006	-0.044842
O15	O	0.363378	-0.467672	0.288491
O16	O	-0.264634	-1.309845	-0.426419
O17	O	0.068699	-0.976512	-0.093086
O18	O	0.402032	-0.643179	0.240247
O19	O	-0.341994	-1.182479	-0.202701
O20	O	-0.008661	-0.849145	0.130633
O21	O	0.324673	-0.515812	0.463966
O22	O	-0.162583	-1.086225	-0.330012
O23	O	0.170750	-0.752891	0.003321
O24	O	0.504083	-0.419558	0.336655
O25	O	-0.341978	-1.309764	-0.329971
O26	O	-0.008645	-0.976431	0.003363
O27	O	0.324689	-0.643098	0.336696
O28	O	-0.162571	-1.182667	-0.426443
O29	O	0.170762	-0.849334	-0.093109
O30	O	0.504095	-0.516000	0.240224
O31	O	-0.264662	-1.086118	-0.202718
O32	O	0.068671	-0.752784	0.130615
O33	O	0.402005	-0.419451	0.463948
O34	O	-0.264620	-0.958891	-0.329960
O35	O	0.068713	-0.625558	0.003373
O36	O	0.402046	-0.292225	0.336707
O37	O	-0.341904	-1.086140	-0.553622
O38	O	-0.008571	-0.752807	-0.220288
O39	O	0.324762	-0.419474	0.113045
O40	O	-0.341920	-0.958855	-0.426351
O41	O	-0.008587	-0.625522	-0.093018
O42	O	0.324746	-0.292188	0.240315
O43	O	-0.264593	-1.182619	-0.553661
O44	O	0.068741	-0.849286	-0.220328
O45	O	0.402074	-0.515952	0.113006
O46	O	-0.444015	-1.182431	-0.329919
O47	O	-0.110682	-0.849097	0.003415
O48	O	0.222651	-0.515764	0.336748
O49	O	-0.443983	-1.086033	-0.426328
O50	O	-0.110650	-0.752700	-0.092994
O51	O	0.222683	-0.419367	0.240339
C52	C	-0.303268	-0.930391	-0.378153
C53	C	0.030065	-0.597058	-0.044820
C54	C	0.363399	-0.263724	0.288514
C55	C	-0.303274	-0.843141	-0.378162
C56	C	0.030059	-0.509808	-0.044829
C57	C	0.363392	-0.176475	0.288505
C58	C	-0.263073	-0.802194	-0.428458
C59	C	0.070261	-0.468861	-0.095125
C60	C	0.403594	-0.135527	0.238208
C61	C	-0.263076	-0.720214	-0.428460
C62	C	0.070258	-0.386880	-0.095127
C63	C	0.403591	-0.053547	0.238206
C64	C	-0.303284	-0.679182	-0.378169
C65	C	0.030049	-0.345849	-0.044836
C66	C	0.363383	-0.012515	0.288498
C67	C	-0.343487	-0.720135	-0.327867
C68	C	-0.010154	-0.386802	0.005466
C69	C	0.323179	-0.053468	0.338800
C70	C	-0.343481	-0.802114	-0.327862
C71	C	-0.010147	-0.468780	0.005472
C72	C	0.323186	-0.135447	0.338805
C73	C	-0.343500	-0.549265	-0.327882
C74	C	-0.010166	-0.215931	0.005451
C75	C	0.323167	0.117402	0.338784
C76	C	-0.343507	-0.467280	-0.327888
C77	C	-0.010174	-0.133947	0.005445
C78	C	0.323159	0.199386	0.338778
C79	C	-0.263094	-0.467365	-0.428481
C80	C	0.070239	-0.134031	-0.095147
C81	C	0.403572	0.199302	0.238186
C82	C	-0.263088	-0.549344	-0.428476
C83	C	0.070246	-0.216010	-0.095142
C84	C	0.403579	0.117323	0.238191
C85	C	-0.303292	-0.590291	-0.378175
C86	C	0.030041	-0.256958	-0.044841
C87	C	0.363374	0.076376	0.288492
C88	C	-0.466840	-1.134236	-0.378132
C89	C	-0.133507	-0.800903	-0.044799
C90	C	0.199827	-0.467569	0.288535
C91	C	-0.536808	-1.134264	-0.378140
C92	C	-0.203475	-0.800931	-0.044806
C93	C	0.129859	-0.467597	0.288527
C94	C	-0.569670	-1.184503	-0.327991
C95	C	-0.236337	-0.851169	0.005343
C96	C	0.096996	-0.517836	0.338676
C97	C	-0.635413	-1.184539	-0.328008
C98	C	-0.302079	-0.851206	0.005325
C99	C	0.031254	-0.517873	0.338658
C100	C	-0.668290	-1.134323	-0.378167
C101	C	-0.334957	-0.800990	-0.044833
C102	C	-0.001624	-0.467657	0.288500
C103	C	-0.635420	-1.084081	-0.428325
C104	C	-0.302087	-0.750748	-0.094992
C105	C	0.031246	-0.417414	0.238342
C106	C	-0.569679	-1.084051	-0.428312
C107	C	-0.236346	-0.750718	-0.094978
C108	C	0.096988	-0.417385	0.238355
N109	N	-0.771553	-1.065655	-0.384143
N110	N	-0.438220	-0.732321	-0.050810
N111	N	-0.104887	-0.398988	0.282523
N112	N	-0.834005	-1.065685	-0.384152
N113	N	-0.500671	-0.732352	-0.050818
N114	N	-0.167338	-0.399019	0.282515
C115	C	-0.866365	-1.134411	-0.378212
C116	C	-0.533032	-0.801078	-0.044878
C117	C	-0.199698	-0.467745	0.288455
N118	N	-0.833915	-1.203107	-0.372248
N119	N	-0.500582	-0.869774	-0.038914
N120	N	-0.167248	-0.536441	0.294419
N121	N	-0.771458	-1.203076	-0.372235
N122	N	-0.438124	-0.869743	-0.038902
N123	N	-0.104791	-0.536409	0.294431
C124	C	-0.739576	-1.134350	-0.378187
C125	C	-0.406243	-0.801017	-0.044854
C126	C	-0.072909	-0.467684	0.288479
C127	C	-0.970513	-1.184694	-0.328079
C128	C	-0.637180	-0.851361	0.005254
C129	C	-0.303846	-0.518028	0.338587
C130	C	-1.036257	-1.184732	-0.328102
C131	C	-0.702923	-0.851399	0.005231
C132	C	-0.369590	-0.518066	0.338564
C133	C	-1.036263	-1.084267	-0.428415
C134	C	-0.702930	-0.750934	-0.095082
C135	C	-0.369596	-0.417600	0.238252
C136	C	-0.970520	-1.084236	-0.428396
C137	C	-0.637187	-0.750903	-0.095063
C138	C	-0.303854	-0.417569	0.238271
C139	C	-0.937649	-1.134448	-0.378224
C140	C	-0.604316	-0.801115	-0.044891
C141	C	-0.270983	-0.467782	0.288443
C142	C	-0.139098	-1.134464	-0.378236
C143	C	0.194235	-0.801130	-0.044903
C144	C	0.527569	-0.467797	0.288430
C145	C	-0.069130	-1.134517	-0.378262
C146	C	0.264203	-0.801183	-0.044929
C147	C	0.597537	-0.467850	0.288405
C148	C	-0.303242	-1.134386	-0.582920
C149	C	0.030091	-0.801053	-0.249586
C150	C	0.363425	-0.467720	0.083747
C151	C	-0.303222	-1.134407	-0.670170
C152	C	0.030111	-0.801073	-0.336836
C153	C	0.363445	-0.467740	-0.003503
C154	C	-0.303306	-0.339083	-0.378192
C155	C	0.030027	-0.005750	-0.044859
C156	C	0.363361	0.327583	0.288474
C157	C	-0.303306	-0.426333	-0.378185
C158	C	0.030028	-0.093000	-0.044851
C159	C	0.363361	0.240334	0.288482
C160	C	-0.262962	-1.184645	-0.711182
C161	C	0.070371	-0.851312	-0.377848
C162	C	0.403704	-0.517978	-0.044515
C163	C	-0.262941	-1.184654	-0.793162
C164	C	0.070392	-0.851321	-0.459829
C165	C	0.403725	-0.517988	-0.126495
C166	C	-0.303184	-1.134429	-0.834129
C167	C	0.030149	-0.801096	-0.500796
C168	C	0.363483	-0.467762	-0.167462
C169	C	-0.343445	-1.084185	-0.793111
C170	C	-0.010112	-0.750852	-0.459778
C171	C	0.323221	-0.417519	-0.126445
C172	C	-0.343463	-1.084172	-0.711132
C173	C	-0.010129	-0.750839	-0.377799
C174	C	0.323204	-0.417506	-0.044466
C175	C	-0.343407	-1.084217	-0.963982
C176	C	-0.010074	-0.750884	-0.630648
C177	C	0.323259	-0.417550	-0.297315
C178	C	-0.343391	-1.084231	-1.045966
C179	C	-0.010058	-0.750897	-0.712633
C180	C	0.323276	-0.417564	-0.379300
C181	C	-0.262886	-1.184699	-1.046011
C182	C	0.070447	-0.851365	-0.712678
C183	C	0.403780	-0.518032	-0.379345
C184	C	-0.262904	-1.184686	-0.964032
C185	C	0.070430	-0.851353	-0.630699
C186	C	0.403763	-0.518019	-0.297366
C187	C	-0.303166	-1.134443	-0.923020
C188	C	0.030167	-0.801110	-0.589687
C189	C	0.363501	-0.467776	-0.256353
C190	C	-0.303289	-1.134337	-0.174228
C191	C	0.030044	-0.801003	0.159106
C192	C	0.363378	-0.467670	0.492439
C193	C	-0.303131	-1.134469	-0.086978
C194	C	0.030202	-0.801135	0.246355
C195	C	0.363535	-0.467802	0.579688
H196	H	-0.230340	-0.686878	-0.469418
H197	H	0.102993	-0.353545	-0.136085
H198	H	0.436326	-0.020211	0.197249
C199	C	-0.387648	-1.028976	-1.091033
C200	C	-0.054314	-0.695643	-0.757699
C201	C	0.279019	-0.362309	-0.424366
H202	H	-0.381873	-1.036186	-1.145730
H203	H	-0.048540	-0.702853	-0.812396
H204	H	0.284794	-0.369520	-0.479063
H205	H	-0.378425	-0.976241	-1.077593
H206	H	-0.045092	-0.642908	-0.744259
H207	H	0.288242	-0.309575	-0.410926
H208	H	-0.429952	-1.040423	-1.077587
H209	H	-0.096619	-0.707090	-0.744253
H210	H	0.236715	-0.373757	-0.410920
H211	H	-1.063012	-1.225648	-0.287267
H212	H	-0.729679	-0.892314	0.046066
H213	H	-0.396345	-0.558981	0.379400
C214	C	-0.218697	-1.239893	-0.666121
C215	C	0.114636	-0.906560	-0.332788
C216	C	0.447970	-0.573226	0.000545
H217	H	-0.224476	-1.232697	-0.611423
H218	H	0.108857	-0.899364	-0.278090
H219	H	0.442191	-0.566030	0.055244
H220	H	-0.176398	-1.228440	-0.679571
H221	H	0.156935	-0.895107	-0.346238
H222	H	0.490269	-0.561773	-0.012904
H223	H	-0.227917	-1.292632	-0.679564
H224	H	0.105417	-0.959299	-0.346231
H225	H	0.438750	-0.625966	-0.012897
H226	H	-0.662174	-1.225453	-0.287171
H227	H	-0.328841	-0.892119	0.046162
H228	H	0.004492	-0.558786	0.379495
H229	H	-0.230102	-1.225607	-1.079407
H230	H	0.103231	-0.892274	-0.746074
H231	H	0.436565	-0.558940	-0.412740
C232	C	-0.387747	-1.028912	-0.666016
C233	C	-0.054414	-0.695579	-0.332682
C234	C	0.278919	-0.362246	0.000651
H235	H	-0.381990	-1.036092	-0.611325
H236	H	-0.048656	-0.702758	-0.277992
H237	H	0.284677	-0.369425	0.055342
H238	H	-0.430042	-1.040366	-0.679434
H239	H	-0.096708	-0.707033	-0.346101
H240	H	0.236625	-0.373700	-0.012767
H241	H	-0.378520	-0.976178	-0.679446
H242	H	-0.045186	-0.642845	-0.346113
H243	H	0.288147	-0.309511	-0.012780
C244	C	-0.533513	-1.239716	-0.272789
C245	C	-0.200179	-0.906383	0.060544
C246	C	0.133154	-0.573049	0.393878
H247	H	-0.489652	-1.232494	-0.279951
H248	H	-0.156319	-0.899161	0.053382
H249	H	0.177015	-0.565828	0.386716
H250	H	-0.544236	-1.292463	-0.284304
H251	H	-0.210903	-0.959130	0.049029
H252	H	0.122430	-0.625797	0.382362
H253	H	-0.544335	-1.228235	-0.220044
H254	H	-0.211002	-0.894902	0.113289
H255	H	0.122332	-0.561568	0.446623
C256	C	-0.671583	-1.028844	-0.483496
C257	C	-0.338250	-0.695510	-0.150163
C258	C	-0.004916	-0.362177	0.183171
H259	H	-0.715443	-1.036051	-0.476316
H260	H	-0.382110	-0.702717	-0.142983
H261	H	-0.048776	-0.369384	0.190350
H262	H	-0.660771	-1.040296	-0.536247
H263	H	-0.327438	-0.706962	-0.202913
H264	H	0.005895	-0.373629	0.130420
H265	H	-0.660850	-0.976101	-0.471952
H266	H	-0.327517	-0.642768	-0.138619
H267	H	0.005817	-0.309434	0.194714
C268	C	-0.934370	-1.028963	-0.483550
C269	C	-0.601037	-0.695629	-0.150217
C270	C	-0.267704	-0.362296	0.183116
H271	H	-0.963365	-0.999055	-0.513421
H272	H	-0.630032	-0.665722	-0.180088
H273	H	-0.296698	-0.332389	0.153245
H274	H	-0.908681	-1.058955	-0.517775
H275	H	-0.575348	-0.725622	-0.184442
H276	H	-0.242015	-0.392288	0.148891
H277	H	-0.908769	-0.994764	-0.453477
H278	H	-0.575435	-0.661431	-0.120144
H279	H	-0.242102	-0.328098	0.213190
C280	C	-0.533529	-1.028782	-0.483473
C281	C	-0.200196	-0.695449	-0.150140
C282	C	0.133138	-0.362115	0.183193
H283	H	-0.562523	-0.998877	-0.513347
H284	H	-0.229190	-0.665543	-0.180014
H285	H	0.104144	-0.332210	0.153319
H286	H	-0.507839	-1.058777	-0.517695
H287	H	-0.174506	-0.725443	-0.184362
H288	H	0.158827	-0.392110	0.148971
H289	H	-0.507928	-0.994581	-0.453401
H290	H	-0.174595	-0.661248	-0.120068
H291	H	0.158739	-0.327915	0.213265
C292	C	-0.218659	-1.239920	-0.838272
C293	C	0.114674	-0.906587	-0.504939
C294	C	0.448008	-0.573254	-0.171605
H295	H	-0.194701	-1.269838	-0.802132
H296	H	0.138632	-0.936504	-0.468799
H297	H	0.471966	-0.603171	-0.135466
H298	H	-0.191218	-1.209923	-0.870257
H299	H	0.142115	-0.876590	-0.536924
H300	H	0.475448	-0.543256	-0.203590
H301	H	-0.242742	-1.274109	-0.870248
H302	H	0.090592	-0.940776	-0.536915
H303	H	0.423925	-0.607443	-0.203582
H304	H	-0.376209	-1.043288	-0.826473
H305	H	-0.042876	-0.709955	-0.493140
H306	H	0.290458	-0.376621	-0.159807
H307	H	-1.063031	-1.043384	-0.469258
H308	H	-0.729698	-0.710050	-0.135925
H309	H	-0.396365	-0.376717	0.197408
H310	H	-0.376184	-1.043291	-0.930592
H311	H	-0.042850	-0.709958	-0.597259
H312	H	0.290483	-0.376625	-0.263925
H313	H	-0.230332	-0.835596	-0.469414
H314	H	0.103002	-0.502263	-0.136080
H315	H	0.436335	-0.168930	0.197253
H316	H	-0.943748	-1.225583	-0.287229
H317	H	-0.610415	-0.892250	0.046105
H318	H	-0.277082	-0.558916	0.379438
H319	H	-0.230350	-0.582750	-0.469432
H320	H	0.102983	-0.249416	-0.136099
H321	H	0.436317	0.083917	0.197235
H322	H	-0.230138	-1.225588	-0.930679
H323	H	0.103195	-0.892255	-0.597346
H324	H	0.436528	-0.558922	-0.264012
H325	H	-0.376249	-0.433874	-0.286937
H326	H	-0.042916	-0.100541	0.046396
H327	H	0.290418	0.232792	0.379729
C328	C	-0.218869	-0.422326	-0.483809
C329	C	0.114465	-0.088993	-0.150476
C330	C	0.447798	0.244340	0.182857
H331	H	-0.224625	-0.367626	-0.476605
H332	H	0.108708	-0.034293	-0.143272
H333	H	0.442042	0.299040	0.190062
H334	H	-0.228137	-0.435778	-0.536528
H335	H	0.105196	-0.102444	-0.203195
H336	H	0.438530	0.230889	0.130139
H337	H	-0.176558	-0.435779	-0.472417
H338	H	0.156775	-0.102446	-0.139083
H339	H	0.490108	0.230887	0.194250
H340	H	-0.376223	-0.686720	-0.286915
H341	H	-0.042890	-0.353387	0.046418
H342	H	0.290444	-0.020054	0.379752
C343	C	-0.387730	-0.594305	-0.272560
C344	C	-0.054397	-0.260972	0.060773
C345	C	0.278937	0.072361	0.394107
H346	H	-0.411684	-0.558129	-0.242616
H347	H	-0.078351	-0.224795	0.090717
H348	H	0.254983	0.108538	0.424050
H349	H	-0.363620	-0.626288	-0.238409
H350	H	-0.030286	-0.292955	0.094925
H351	H	0.303047	0.040379	0.428258
H352	H	-0.415186	-0.626279	-0.302536
H353	H	-0.081852	-0.292945	0.030798
H354	H	0.251481	0.040388	0.364131
H355	H	-0.376217	-0.835452	-0.286905
H356	H	-0.042883	-0.502119	0.046429
H357	H	0.290450	-0.168785	0.379762
