data_functionalizedCrystal
_audit_creation_method	'MofGen! by Chris Wilmer'
_symmetry_space_group_name_H-M	'P1'
_symmetry_Int_Tables_number	1
_symmetry_cell_setting	triclinic
loop_
_symmetry_equiv_pos_as_xyz
  x,y,z
_cell_length_a	17.766277
_cell_length_b	19.288862
_cell_length_c	19.288857
_cell_angle_alpha	96.865805
_cell_angle_beta	89.991474
_cell_angle_gamma	90.026014
loop_
_atom_site_label
_atom_site_type_symbol
_atom_site_fract_x
_atom_site_fract_y
_atom_site_fract_z
O1	O	-0.062888	-0.921352	0.086641
O2	O	0.187112	-0.671352	0.336641
O3	O	0.437112	-0.421352	0.586641
O4	O	0.687112	-0.171352	0.836641
O5	O	-0.062826	-0.719091	0.098332
O6	O	0.187174	-0.469091	0.348332
O7	O	0.437174	-0.219091	0.598332
O8	O	0.687174	0.030909	0.848332
O9	O	-0.062850	-0.826068	-0.008644
O10	O	0.187150	-0.576068	0.241356
O11	O	0.437150	-0.326068	0.491356
O12	O	0.687150	-0.076068	0.741356
O13	O	-0.062864	-0.814374	0.193617
O14	O	0.187136	-0.564374	0.443617
O15	O	0.437136	-0.314374	0.693617
O16	O	0.687136	-0.064374	0.943617
O17	O	0.062339	-0.826050	-0.008650
O18	O	0.312339	-0.576050	0.241350
O19	O	0.562339	-0.326050	0.491350
O20	O	0.812339	-0.076050	0.741350
O21	O	0.062362	-0.719072	0.098326
O22	O	0.312362	-0.469072	0.348326
O23	O	0.562362	-0.219072	0.598326
O24	O	0.812362	0.030928	0.848326
O25	O	0.062300	-0.921333	0.086636
O26	O	0.312300	-0.671333	0.336636
O27	O	0.562300	-0.421333	0.586636
O28	O	0.812300	-0.171333	0.836636
Cu29	Cu	0.073762	-0.820201	0.092481
Cu30	Cu	0.323762	-0.570201	0.342481
Cu31	Cu	0.573762	-0.320201	0.592481
Cu32	Cu	0.823762	-0.070201	0.842481
Cu33	Cu	-0.074288	-0.820223	0.092487
Cu34	Cu	0.175712	-0.570223	0.342487
Cu35	Cu	0.425712	-0.320223	0.592487
Cu36	Cu	0.675712	-0.070223	0.842487
O37	O	0.062324	-0.814355	0.193612
O38	O	0.312324	-0.564355	0.443612
O39	O	0.562324	-0.314355	0.693612
O40	O	0.812324	-0.064355	0.943612
C41	C	-0.000224	-0.693205	0.097953
C42	C	0.249776	-0.443205	0.347953
C43	C	0.499776	-0.193205	0.597953
C44	C	0.749776	0.056795	0.847953
C45	C	-0.000200	-0.616101	0.096825
C46	C	0.249800	-0.366101	0.346825
C47	C	0.499800	-0.116101	0.596825
C48	C	0.749800	0.133899	0.846825
C49	C	-0.000255	-0.825684	-0.034523
C50	C	0.249745	-0.575684	0.215477
C51	C	0.499745	-0.325684	0.465477
C52	C	0.749745	-0.075684	0.715477
C53	C	-0.000252	-0.824557	-0.111627
C54	C	0.249748	-0.574557	0.138373
C55	C	0.499748	-0.324557	0.388373
C56	C	0.749748	-0.074557	0.638373
N57	N	0.177892	-0.820190	0.092476
N58	N	0.427892	-0.570190	0.342476
N59	N	0.677892	-0.320190	0.592476
N60	N	0.927892	-0.070190	0.842476
N61	N	-0.178418	-0.820239	0.092486
N62	N	0.071582	-0.570239	0.342486
N63	N	0.321582	-0.320239	0.592486
N64	N	0.571582	-0.070239	0.842486
C65	C	0.217269	-0.867575	0.045130
C66	C	0.467269	-0.617575	0.295130
C67	C	0.717269	-0.367575	0.545130
C68	C	0.967269	-0.117575	0.795130
C69	C	0.296071	-0.867579	0.045127
C70	C	0.546071	-0.617579	0.295127
C71	C	0.796071	-0.367579	0.545127
C72	C	1.046071	-0.117579	0.795127
C73	C	0.335493	-0.820205	0.092481
C74	C	0.585493	-0.570205	0.342481
C75	C	0.835493	-0.320205	0.592481
C76	C	1.085493	-0.070205	0.842481
C77	C	0.296107	-0.772811	0.139831
C78	C	0.546107	-0.522811	0.389831
C79	C	0.796107	-0.272811	0.639831
C80	C	1.046107	-0.022811	0.889831
C81	C	0.217307	-0.772804	0.139828
C82	C	0.467307	-0.522804	0.389828
C83	C	0.717307	-0.272804	0.639828
C84	C	0.967307	-0.022804	0.889828
C85	C	0.460328	-0.810904	0.155769
C86	C	0.710328	-0.560904	0.405769
C87	C	0.960328	-0.310904	0.655769
C88	C	1.210328	-0.060904	0.905769
C89	C	0.539127	-0.810916	0.155773
C90	C	0.789127	-0.560916	0.405773
C91	C	1.039127	-0.310916	0.655773
C92	C	1.289127	-0.060916	0.905773
C93	C	0.578539	-0.820223	0.092490
C94	C	0.828539	-0.570223	0.342490
C95	C	1.078539	-0.320223	0.592490
C96	C	1.328539	-0.070223	0.842490
C97	C	0.539143	-0.829533	0.029200
C98	C	0.789143	-0.579533	0.279200
C99	C	1.039143	-0.329533	0.529200
C100	C	1.289143	-0.079533	0.779200
C101	C	0.460343	-0.829526	0.029197
C102	C	0.710343	-0.579526	0.279197
C103	C	0.960343	-0.329526	0.529197
C104	C	1.210343	-0.079526	0.779197
C105	C	0.420939	-0.820207	0.092489
C106	C	0.670939	-0.570207	0.342489
C107	C	0.920939	-0.320207	0.592489
C108	C	1.170939	-0.070207	0.842489
C109	C	0.703362	-0.867615	0.045136
C110	C	0.953362	-0.617615	0.295136
C111	C	1.203362	-0.367615	0.545136
C112	C	1.453362	-0.117615	0.795136
C113	C	0.782165	-0.867615	0.045132
C114	C	1.032165	-0.617615	0.295132
C115	C	1.282165	-0.367615	0.545132
C116	C	1.532165	-0.117615	0.795132
C117	C	0.782200	-0.772850	0.139842
C118	C	1.032200	-0.522850	0.389842
C119	C	1.282200	-0.272850	0.639842
C120	C	1.532200	-0.022850	0.889842
C121	C	0.703398	-0.772847	0.139840
C122	C	0.953398	-0.522847	0.389840
C123	C	1.203398	-0.272847	0.639840
C124	C	1.453398	-0.022847	0.889840
C125	C	0.663984	-0.820234	0.092488
C126	C	0.913984	-0.570234	0.342488
C127	C	1.163984	-0.320234	0.592488
C128	C	1.413984	-0.070234	0.842488
C129	C	-0.000214	-0.571403	0.159593
C130	C	0.249786	-0.321403	0.409593
C131	C	0.499786	-0.071403	0.659593
C132	C	0.749786	0.178597	0.909593
C133	C	-0.000219	-0.498956	0.158533
C134	C	0.249781	-0.248956	0.408533
C135	C	0.499781	0.001044	0.658533
C136	C	0.749781	0.251044	0.908533
C137	C	-0.000224	-0.471210	0.094701
C138	C	0.249776	-0.221210	0.344701
C139	C	0.499776	0.028790	0.594701
C140	C	0.749776	0.278790	0.844701
C141	C	-0.000206	-0.515918	0.031924
C142	C	0.249794	-0.265918	0.281924
C143	C	0.499794	-0.015918	0.531924
C144	C	0.749794	0.234082	0.781924
C145	C	-0.000194	-0.588363	0.032986
C146	C	0.249806	-0.338363	0.282986
C147	C	0.499806	-0.088363	0.532986
C148	C	0.749806	0.161637	0.782986
C149	C	-0.044099	-0.362956	0.044525
C150	C	0.205901	-0.112956	0.294525
C151	C	0.455901	0.137044	0.544525
C152	C	0.705901	0.387044	0.794525
C153	C	-0.044116	-0.290511	0.043465
C154	C	0.205884	-0.040511	0.293465
C155	C	0.455884	0.209489	0.543465
C156	C	0.705884	0.459489	0.793465
C157	C	-0.000257	-0.247764	0.091423
C158	C	0.249743	0.002236	0.341423
C159	C	0.499743	0.252236	0.591423
C160	C	0.749743	0.502236	0.841423
C161	C	0.043607	-0.277469	0.140452
C162	C	0.293607	-0.027469	0.390452
C163	C	0.543607	0.222531	0.640452
C164	C	0.793607	0.472531	0.890452
C165	C	0.043619	-0.349915	0.141514
C166	C	0.293619	-0.099915	0.391514
C167	C	0.543619	0.150085	0.641514
C168	C	0.793619	0.400085	0.891514
C169	C	-0.000237	-0.392656	0.093543
C170	C	0.249763	-0.142656	0.343543
C171	C	0.499763	0.107344	0.593543
C172	C	0.749763	0.357344	0.843543
C173	C	-0.000275	-0.124510	0.153047
C174	C	0.249725	0.125490	0.403047
C175	C	0.499725	0.375490	0.653047
C176	C	0.749725	0.625490	0.903047
C177	C	-0.000275	-0.052062	0.151984
C178	C	0.249725	0.197938	0.401984
C179	C	0.499725	0.447938	0.651984
C180	C	0.749725	0.697938	0.901984
C181	C	-0.000270	-0.069026	0.025373
C182	C	0.249730	0.180974	0.275373
C183	C	0.499730	0.430974	0.525373
C184	C	0.749730	0.680974	0.775373
C185	C	-0.000262	-0.141472	0.026438
C186	C	0.249738	0.108528	0.276438
C187	C	0.499738	0.358528	0.526438
C188	C	0.749738	0.608528	0.776438
C189	C	-0.000269	-0.169210	0.090276
C190	C	0.249731	0.080790	0.340276
C191	C	0.499731	0.330790	0.590276
C192	C	0.749731	0.580790	0.840276
C193	C	-0.000290	0.052781	0.087017
C194	C	0.249710	0.302781	0.337017
C195	C	0.499710	0.552781	0.587017
C196	C	0.749710	0.802781	0.837017
C197	C	-0.000279	-0.024321	0.088151
C198	C	0.249721	0.225679	0.338151
C199	C	0.499721	0.475679	0.588151
C200	C	0.749721	0.725679	0.838151
C201	C	-0.068493	-0.824041	-0.147835
C202	C	0.181507	-0.574041	0.102165
C203	C	0.431507	-0.324041	0.352165
C204	C	0.681507	-0.074041	0.602165
C205	C	-0.068498	-0.822972	-0.220281
C206	C	0.181502	-0.572972	0.029719
C207	C	0.431502	-0.322972	0.279719
C208	C	0.681502	-0.072972	0.529719
C209	C	-0.000259	-0.822433	-0.256518
C210	C	0.249741	-0.572433	-0.006518
C211	C	0.499741	-0.322433	0.243482
C212	C	0.749741	-0.072433	0.493482
C213	C	0.067990	-0.822945	-0.220302
C214	C	0.317990	-0.572945	0.029698
C215	C	0.567990	-0.322945	0.279698
C216	C	0.817990	-0.072945	0.529698
C217	C	0.067994	-0.824007	-0.147856
C218	C	0.317994	-0.574007	0.102144
C219	C	0.567994	-0.324007	0.352144
C220	C	0.817994	-0.074007	0.602144
C221	C	0.052004	-0.861427	-0.376752
C222	C	0.302004	-0.611427	-0.126752
C223	C	0.552004	-0.361427	0.123248
C224	C	0.802004	-0.111427	0.373248
C225	C	0.051998	-0.860370	-0.449197
C226	C	0.301998	-0.610370	-0.199197
C227	C	0.551998	-0.360370	0.050803
C228	C	0.801998	-0.110370	0.300803
C229	C	-0.000267	-0.819156	-0.479964
C230	C	0.249733	-0.569156	-0.229964
C231	C	0.499733	-0.319156	0.020036
C232	C	0.749733	-0.069156	0.270036
C233	C	-0.052537	-0.779008	-0.438279
C234	C	0.197463	-0.529008	-0.188279
C235	C	0.447463	-0.279008	0.061721
C236	C	0.697463	-0.029008	0.311721
C237	C	-0.052534	-0.780069	-0.365833
C238	C	0.197466	-0.530069	-0.115833
C239	C	0.447466	-0.280069	0.134167
C240	C	0.697466	-0.030069	0.384167
C241	C	-0.000255	-0.821282	-0.335073
C242	C	0.249745	-0.571282	-0.085073
C243	C	0.499745	-0.321282	0.164927
C244	C	0.749745	-0.071282	0.414927
C245	C	-0.068517	-0.817480	-0.594726
C246	C	0.181483	-0.567480	-0.344726
C247	C	0.431483	-0.317480	-0.094726
C248	C	0.681483	-0.067480	0.155274
C249	C	-0.068520	-0.816407	-0.667173
C250	C	0.181480	-0.566407	-0.417173
C251	C	0.431480	-0.316407	-0.167173
C252	C	0.681480	-0.066407	0.082827
C253	C	0.067970	-0.816387	-0.667193
C254	C	0.317970	-0.566387	-0.417193
C255	C	0.567970	-0.316387	-0.167193
C256	C	0.817970	-0.066387	0.082807
C257	C	0.067971	-0.817453	-0.594747
C258	C	0.317971	-0.567453	-0.344747
C259	C	0.567971	-0.317453	-0.094747
C260	C	0.817971	-0.067453	0.155253
C261	C	-0.000275	-0.818003	-0.558518
C262	C	0.249725	-0.568003	-0.308518
C263	C	0.499725	-0.318003	-0.058518
C264	C	0.749725	-0.068003	0.191482
C265	C	-0.000273	-0.814740	0.219491
C266	C	0.249727	-0.564740	0.469491
C267	C	0.499727	-0.314740	0.719491
C268	C	0.749727	-0.064740	0.969491
C269	C	-0.000280	-0.815867	0.296595
C270	C	0.249720	-0.565867	0.546595
C271	C	0.499720	-0.315867	0.796595
C272	C	0.749720	-0.065867	1.046595
H273	H	0.185180	-0.906158	0.006571
H274	H	0.435180	-0.656158	0.256571
H275	H	0.685180	-0.406158	0.506571
H276	H	0.935180	-0.156158	0.756571
F277	F	-0.000277	-0.154033	0.220988
F278	F	0.249723	0.095967	0.470988
F279	F	0.499723	0.345967	0.720988
F280	F	0.749723	0.595967	0.970988
F281	F	-0.000208	-0.486388	-0.036010
F282	F	0.249792	-0.236388	0.213990
F283	F	0.499792	0.013612	0.463990
F284	F	0.749792	0.263612	0.713990
F285	F	0.337985	-0.918016	-0.005268
F286	F	0.587985	-0.668016	0.244732
F287	F	0.837985	-0.418016	0.494732
F288	F	1.087985	-0.168016	0.744732
H289	H	-0.095093	-0.747378	-0.331895
H290	H	0.154907	-0.497378	-0.081895
H291	H	0.404907	-0.247378	0.168105
H292	H	0.654907	0.002622	0.418105
F293	F	0.140627	-0.824554	-0.109320
F294	F	0.390627	-0.574554	0.140680
F295	F	0.640627	-0.324554	0.390680
F296	F	0.890627	-0.074554	0.640680
F297	F	0.661413	-0.918045	-0.005263
F298	F	0.911413	-0.668045	0.244737
F299	F	1.161413	-0.418045	0.494737
F300	F	1.411413	-0.168045	0.744737
F301	F	0.418417	-0.839428	-0.038158
F302	F	0.668417	-0.589428	0.211842
F303	F	0.918417	-0.339428	0.461842
F304	F	1.168417	-0.089428	0.711842
F305	F	0.107626	-0.903101	-0.493556
F306	F	0.357626	-0.653101	-0.243556
F307	F	0.607626	-0.403101	0.006444
F308	F	0.857626	-0.153101	0.256444
H309	H	0.094570	-0.894988	-0.351709
H310	H	0.344570	-0.644988	-0.101709
H311	H	0.594570	-0.394988	0.148291
H312	H	0.844570	-0.144988	0.398291
H313	H	-0.000221	-0.593982	0.211576
H314	H	0.249779	-0.343982	0.461576
H315	H	0.499779	-0.093982	0.711576
H316	H	0.749779	0.156018	0.961576
F317	F	-0.000268	-0.039502	-0.042562
F318	F	0.249732	0.210498	0.207438
F319	F	0.499732	0.460498	0.457438
F320	F	0.749732	0.710498	0.707438
H321	H	0.571231	-0.837111	-0.022332
H322	H	0.821231	-0.587111	0.227668
H323	H	1.071231	-0.337111	0.477668
H324	H	1.321231	-0.087111	0.727668
H325	H	-0.079836	-0.266331	0.003546
H326	H	0.170164	-0.016331	0.253546
H327	H	0.420164	0.233669	0.503546
H328	H	0.670164	0.483669	0.753546
H329	H	0.814297	-0.734274	0.178396
H330	H	1.064297	-0.484274	0.428396
H331	H	1.314297	-0.234274	0.678396
H332	H	1.564297	0.015726	0.928396
H333	H	-0.124091	-0.815984	-0.696651
H334	H	0.125909	-0.565984	-0.446651
H335	H	0.375909	-0.315984	-0.196651
H336	H	0.625909	-0.065984	0.053349
H337	H	0.123532	-0.815943	-0.696696
H338	H	0.373532	-0.565943	-0.446696
H339	H	0.623532	-0.315943	-0.196696
H340	H	0.873532	-0.065943	0.053304
F341	F	0.661487	-0.722416	0.190235
F342	F	0.911487	-0.472416	0.440235
F343	F	1.161487	-0.222416	0.690235
F344	F	1.411487	0.027584	0.940235
H345	H	0.814226	-0.906199	0.006574
H346	H	1.064226	-0.656199	0.256574
H347	H	1.314226	-0.406199	0.506574
H348	H	1.564226	-0.156199	0.756574
F349	F	-0.000179	-0.635937	-0.033824
F350	F	0.249821	-0.385937	0.216176
F351	F	0.499821	-0.135937	0.466176
F352	F	0.749821	0.114063	0.716176
H353	H	0.571197	-0.803341	0.207307
H354	H	0.821197	-0.553341	0.457307
H355	H	1.071197	-0.303341	0.707307
H356	H	1.321197	-0.053341	0.957307
H357	H	0.428245	-0.803313	0.207305
H358	H	0.678245	-0.553313	0.457305
H359	H	0.928245	-0.303313	0.707305
H360	H	1.178245	-0.053313	0.957305
H361	H	-0.095096	-0.745447	-0.463327
H362	H	0.154904	-0.495447	-0.213327
H363	H	0.404904	-0.245447	0.036673
H364	H	0.654904	0.004553	0.286673
H365	H	-0.124064	-0.824487	-0.118342
H366	H	0.125936	-0.574487	0.131658
H367	H	0.375936	-0.324487	0.381658
H368	H	0.625936	-0.074487	0.631658
F369	F	0.140615	-0.822367	-0.258868
F370	F	0.390615	-0.572367	-0.008868
F371	F	0.640615	-0.322367	0.241132
F372	F	0.890615	-0.072367	0.491132
F373	F	-0.090781	-0.408444	-0.006523
F374	F	0.159219	-0.158444	0.243477
F375	F	0.409219	0.091556	0.493477
F376	F	0.659219	0.341556	0.743477
H377	H	0.123540	-0.817879	-0.565267
H378	H	0.373540	-0.567879	-0.315267
H379	H	0.623540	-0.317879	-0.065267
H380	H	0.873540	-0.067879	0.184733
H381	H	0.328209	-0.734237	0.178386
H382	H	0.578209	-0.484237	0.428386
H383	H	0.828209	-0.234237	0.678386
H384	H	1.078209	0.015763	0.928386
H385	H	0.185246	-0.734216	0.178383
H386	H	0.435246	-0.484216	0.428383
H387	H	0.685246	-0.234216	0.678383
H388	H	0.935246	0.015784	0.928383
H389	H	-0.000282	-0.015669	0.203100
H390	H	0.249718	0.234331	0.453100
H391	H	0.499718	0.484331	0.703100
H392	H	0.749718	0.734331	0.953100
H393	H	0.079338	-0.374097	0.181433
H394	H	0.329338	-0.124097	0.431433
H395	H	0.579338	0.125903	0.681433
H396	H	0.829338	0.375903	0.931433
F397	F	-0.000232	-0.451376	0.225343
F398	F	0.249768	-0.201376	0.475343
F399	F	0.499768	0.048624	0.725343
F400	F	0.749768	0.298624	0.975343
H401	H	-0.124069	-0.822548	-0.249766
H402	H	0.125931	-0.572548	0.000234
H403	H	0.375931	-0.322548	0.250234
H404	H	0.625931	-0.072548	0.500234
H405	H	-0.124087	-0.817924	-0.565227
H406	H	0.125913	-0.567924	-0.315227
H407	H	0.375913	-0.317924	-0.065227
H408	H	0.625913	-0.067924	0.184773
H409	H	0.079321	-0.242666	0.179504
H410	H	0.329321	0.007334	0.429504
H411	H	0.579321	0.257334	0.679504
H412	H	0.829321	0.507334	0.929504
F413	F	-0.000251	-0.189045	-0.040370
F414	F	0.249749	0.060955	0.209630
F415	F	0.499749	0.310955	0.459630
F416	F	0.749749	0.560955	0.709630
