data_functionalizedCrystal
_audit_creation_method	'MofGen! by Chris Wilmer'
_symmetry_space_group_name_H-M	'P1'
_symmetry_Int_Tables_number	1
_symmetry_cell_setting	triclinic
loop_
_symmetry_equiv_pos_as_xyz
  x,y,z
_cell_length_a	10.654545
_cell_length_b	10.654551
_cell_length_c	9.130313
_cell_angle_alpha	89.998309
_cell_angle_beta	89.996934
_cell_angle_gamma	84.484220
loop_
_atom_site_label
_atom_site_type_symbol
_atom_site_fract_x
_atom_site_fract_y
_atom_site_fract_z
O1	O	1.667843	0.176372	-0.121775
O2	O	1.302364	0.193184	-0.121780
O3	O	1.493506	0.002038	-0.121778
O4	O	1.476701	0.367517	-0.121777
O5	O	1.493493	0.002033	0.121821
O6	O	1.302351	0.193178	0.121819
O7	O	1.667830	0.176366	0.121824
Cu8	Cu	1.485089	0.184771	0.144064
Cu9	Cu	1.485105	0.184778	-0.144020
O10	O	1.476688	0.367511	0.121822
C11	C	1.255560	0.191948	0.000019
C12	C	1.116116	0.188258	0.000016
C13	C	1.050604	0.186518	0.132803
C14	C	0.919585	0.183030	0.132803
C15	C	0.919600	0.183028	-0.132782
C16	C	1.050618	0.186507	-0.132780
C17	C	1.492265	-0.044762	0.000018
C18	C	1.488573	-0.184206	0.000008
C19	C	1.486848	-0.249714	-0.132775
C20	C	1.483368	-0.380735	-0.132768
C21	C	1.483343	-0.380726	0.132817
C22	C	1.486814	-0.249707	0.132808
C23	C	1.488607	-0.184213	-0.265575
C24	C	1.486883	-0.249722	-0.398369
C25	C	1.483403	-0.380742	-0.398362
C26	C	1.481646	-0.446253	-0.265562
C27	C	1.714635	0.177602	0.000022
C28	C	1.854078	0.181292	0.000015
C29	C	1.477929	0.414312	0.000023
C30	C	1.481622	0.553755	0.000023
N31	N	1.485088	0.184766	0.346687
N32	N	1.485117	0.184774	-0.346642
C33	C	1.569754	0.100163	0.423339
C34	C	1.569766	0.100163	0.576676
C35	C	1.400441	0.269381	0.576694
C36	C	1.400424	0.269374	0.423360
H37	H	1.103960	0.187920	-0.240918
H38	H	1.331512	0.338268	0.639137
C39	C	1.122652	0.188432	0.278877
C40	C	1.226043	0.081961	0.315406
C41	C	1.298085	0.083872	0.461485
C42	C	1.266736	0.192253	0.571037
C43	C	1.163339	0.298732	0.534511
C44	C	1.091297	0.296822	0.388431
H45	H	1.249255	0.001723	0.234307
H46	H	1.374627	0.005048	0.488524
H47	H	1.320065	0.193667	0.679174
H48	H	1.140127	0.378970	0.615610
H49	H	1.014756	0.375645	0.361393
C50	C	0.847523	0.181119	0.278872
C51	C	0.852206	0.290466	0.388415
C52	C	0.780147	0.288552	0.534492
C53	C	0.703404	0.177290	0.571025
C54	C	0.698717	0.067935	0.461480
C55	C	0.770777	0.069850	0.315403
H56	H	0.909019	0.372836	0.361373
H57	H	0.783616	0.369504	0.615584
H58	H	0.650061	0.175873	0.679160
H59	H	0.641905	-0.014435	0.488521
H60	H	0.767308	-0.011103	0.234310
H61	H	1.481987	-0.434075	-0.506489
H62	H	1.478794	-0.552937	-0.265567
H63	H	0.866255	0.181603	-0.240900
C64	C	1.662872	0.007088	0.338998
C65	C	1.662864	0.007073	0.170336
C66	C	1.755982	-0.086009	0.086000
C67	C	1.849107	-0.179075	0.170326
C68	C	1.849118	-0.179064	0.338996
C69	C	1.756001	-0.085983	0.423333
H70	H	1.593924	0.075970	0.107905
H71	H	1.755973	-0.086016	-0.038861
H72	H	1.918038	-0.247980	0.107895
H73	H	1.918058	-0.247961	0.401427
H74	H	1.756010	-0.085975	0.548194
H75	H	1.491444	-0.077530	-0.265595
H76	H	1.331472	0.338268	0.360945
H77	H	1.488301	-0.196373	-0.506490
C78	C	1.481415	-0.452781	0.278892
C79	C	1.590744	-0.448075	0.388453
C80	C	1.588817	-0.520125	0.534533
C81	C	1.477562	-0.596882	0.571052
C82	C	1.368225	-0.601591	0.461488
C83	C	1.370152	-0.529541	0.315408
H84	H	1.673109	-0.391252	0.361422
H85	H	1.669756	-0.516639	0.615639
H86	H	1.476136	-0.650218	0.679189
H87	H	1.285860	-0.658414	0.488519
H88	H	1.289213	-0.533027	0.234302
H89	H	1.488192	-0.196365	0.240932
H90	H	1.638708	0.031270	0.639083
