data_functionalizedCrystal
_audit_creation_method	'MofGen! by Chris Wilmer'
_symmetry_space_group_name_H-M	'P1'
_symmetry_Int_Tables_number	1
_symmetry_cell_setting	triclinic
loop_
_symmetry_equiv_pos_as_xyz
  x,y,z
_cell_length_a	21.295417
_cell_length_b	13.897449
_cell_length_c	13.897441
_cell_angle_alpha	89.979267
_cell_angle_beta	90.036423
_cell_angle_gamma	89.968214
loop_
_atom_site_label
_atom_site_type_symbol
_atom_site_fract_x
_atom_site_fract_y
_atom_site_fract_z
Zn1	Zn	-0.250568	-1.474617	0.545342
Zn2	Zn	0.249432	-0.974617	1.045342
Zn3	Zn	-0.355847	-1.474475	0.384027
Zn4	Zn	0.144153	-0.974475	0.884027
Zn5	Zn	-0.250598	-1.313306	0.384060
Zn6	Zn	0.249402	-0.813306	0.884060
Zn7	Zn	-0.355805	-1.313252	0.545280
Zn8	Zn	0.144195	-0.813252	1.045280
O9	O	-0.303204	-1.393912	0.464677
O10	O	0.196796	-0.893912	0.964677
O11	O	-0.264538	-1.609579	0.523955
O12	O	0.235462	-1.109579	1.023955
O13	O	-0.341915	-1.453059	0.249050
O14	O	0.158085	-0.953059	0.749050
O15	O	-0.162504	-1.334786	0.405495
O16	O	0.337496	-0.834786	0.905495
O17	O	-0.341886	-1.609475	0.405438
O18	O	0.158114	-1.109475	0.905438
O19	O	-0.162482	-1.453301	0.523988
O20	O	0.337518	-0.953301	1.023988
O21	O	-0.264589	-1.334649	0.249074
O22	O	0.235411	-0.834649	0.749074
O23	O	-0.264549	-1.178317	0.405434
O24	O	0.235451	-0.678317	0.905434
O25	O	-0.341815	-1.334694	0.680270
O26	O	0.158185	-0.834694	1.180270
O27	O	-0.341844	-1.178277	0.523881
O28	O	0.158156	-0.678277	1.023881
O29	O	-0.264498	-1.453248	0.680316
O30	O	0.235502	-0.953248	1.180316
O31	O	-0.443931	-1.453006	0.405378
O32	O	0.056069	-0.953006	0.905378
O33	O	-0.443900	-1.334556	0.523849
O34	O	0.056100	-0.834556	1.023849
C35	C	-0.303196	-1.143298	0.464655
C36	C	0.196804	-0.643298	0.964655
C37	C	-0.303207	-1.036084	0.464669
C38	C	0.196793	-0.536084	0.964669
C39	C	-0.466756	-1.393786	0.464624
C40	C	0.033244	-0.893786	0.964624
C41	C	-0.536724	-1.393820	0.464633
C42	C	-0.036724	-0.893820	0.964633
C43	C	-0.303149	-1.393981	0.716270
C44	C	0.196851	-0.893981	1.216270
C45	C	-0.303125	-1.394010	0.823484
C46	C	0.196875	-0.894010	1.323484
C47	C	-0.569586	-1.455552	0.403008
C48	C	-0.069586	-0.955552	0.903008
C49	C	-0.635328	-1.455597	0.403030
C50	C	-0.135328	-0.955597	0.903030
C51	C	-0.668207	-1.393893	0.464667
C52	C	-0.168207	-0.893893	0.964667
C53	C	-0.635337	-1.332157	0.526304
C54	C	-0.135337	-0.832157	1.026304
C55	C	-0.569596	-1.332120	0.526287
C56	C	-0.069596	-0.832120	1.026287
N57	N	-0.771473	-1.309512	0.472013
N58	N	-0.271473	-0.809512	0.972013
N59	N	-0.833925	-1.309550	0.472023
N60	N	-0.333925	-0.809550	0.972023
C61	C	-0.866281	-1.394001	0.464722
C62	C	-0.366281	-0.894001	0.964722
N63	N	-0.833827	-1.478416	0.457392
N64	N	-0.333827	-0.978416	0.957392
N65	N	-0.771370	-1.478377	0.457376
N66	N	-0.271370	-0.978377	0.957376
C67	C	-0.739492	-1.393926	0.464692
C68	C	-0.239492	-0.893926	0.964692
C69	C	-0.970428	-1.455787	0.403117
C70	C	-0.470428	-0.955787	0.903117
C71	C	-1.036172	-1.455834	0.403146
C72	C	-0.536172	-0.955834	0.903146
C73	C	-1.036180	-1.332386	0.526414
C74	C	-0.536180	-0.832386	1.026414
C75	C	-0.970437	-1.332347	0.526391
C76	C	-0.470437	-0.832347	1.026391
C77	C	-0.937565	-1.394047	0.464737
C78	C	-0.437565	-0.894047	0.964737
C79	C	-0.139014	-1.394065	0.464752
C80	C	0.360986	-0.894065	0.964752
C81	C	-0.069046	-1.394131	0.464784
C82	C	0.430954	-0.894131	0.964784
C83	C	-0.303213	-1.645505	0.464700
C84	C	0.196787	-1.145505	0.964700
C85	C	-0.303217	-1.752719	0.464710
C86	C	0.196783	-1.252719	0.964710
C87	C	-0.303210	-0.839789	0.464694
C88	C	0.196790	-0.339789	0.964694
C89	C	-0.303207	-0.949021	0.464677
C90	C	0.196793	-0.449021	0.964677
C91	C	-0.303214	-1.393900	0.214063
C92	C	0.196786	-0.893900	0.714063
C93	C	-0.303061	-1.394057	0.106850
C94	C	0.196939	-0.894057	0.606850
C95	C	-0.303082	-1.394036	1.019780
C96	C	0.196918	-0.894036	1.519780
C97	C	-0.303108	-1.394018	0.910547
C98	C	0.196892	-0.894018	1.410547
H99	H	-0.542823	-1.505793	0.352809
H100	H	-0.042823	-1.005793	0.852809
H101	H	-0.943663	-1.506030	0.352918
H102	H	-0.443663	-1.006030	0.852918
H103	H	-0.662089	-1.505870	0.352848
H104	H	-0.162089	-1.005870	0.852848
H105	H	-1.062927	-1.506109	0.352965
H106	H	-0.562927	-1.006109	0.852965
H107	H	-1.062949	-1.282149	0.576604
H108	H	-0.562949	-0.782149	1.076604
H109	H	-0.662111	-1.281919	0.576490
H110	H	-0.162111	-0.781919	1.076490
H111	H	-0.542839	-1.281850	0.576471
H112	H	-0.042839	-0.781850	1.076471
H113	H	-0.943680	-1.282075	0.576567
H114	H	-0.443680	-0.782075	1.076567
