data_functionalizedCrystal
_audit_creation_method	'MofGen! by Chris Wilmer'
_symmetry_space_group_name_H-M	'P1'
_symmetry_Int_Tables_number	1
_symmetry_cell_setting	triclinic
loop_
_symmetry_equiv_pos_as_xyz
  x,y,z
_cell_length_a	13.033409
_cell_length_b	13.032721
_cell_length_c	12.827885
_cell_angle_alpha	97.149059
_cell_angle_beta	97.170920
_cell_angle_gamma	89.138002
loop_
_atom_site_label
_atom_site_type_symbol
_atom_site_fract_x
_atom_site_fract_y
_atom_site_fract_z
Zn1	Zn	1.520147	-0.608848	-0.474704
Zn2	Zn	2.020147	-0.108848	0.025296
Zn3	Zn	1.498183	-0.780840	-0.324588
Zn4	Zn	1.998183	-0.280840	0.175412
Zn5	Zn	1.348170	-0.587080	-0.319097
Zn6	Zn	1.848170	-0.087080	0.180903
Zn7	Zn	1.326313	-0.758957	-0.518378
Zn8	Zn	1.826313	-0.258957	-0.018378
O9	O	1.423203	-0.683931	-0.409192
O10	O	1.923203	-0.183931	0.090808
O11	O	1.661134	-0.649931	-0.438811
O12	O	2.161134	-0.149931	0.061189
O13	O	1.478239	-0.755185	-0.177635
O14	O	1.978239	-0.255185	0.322365
O15	O	1.389323	-0.446057	-0.319163
O16	O	1.889323	0.053943	0.180837
O17	O	1.644997	-0.776293	-0.328521
O18	O	2.144997	-0.276293	0.171479
O19	O	1.515674	-0.462049	-0.433487
O20	O	2.015674	0.037951	0.066513
O21	O	1.368025	-0.612831	-0.173601
O22	O	1.868025	-0.112831	0.326399
O23	O	1.201370	-0.591612	-0.361512
O24	O	1.701370	-0.091612	0.138488
O25	O	1.352070	-0.738997	-0.658809
O26	O	1.852070	-0.238997	-0.158809
O27	O	1.185312	-0.717889	-0.507923
O28	O	1.685312	-0.217889	-0.007923
O29	O	1.494479	-0.628712	-0.626722
O30	O	1.994479	-0.128712	-0.126722
O31	O	1.457044	-0.921848	-0.370870
O32	O	1.957044	-0.421848	0.129130
O33	O	1.330772	-0.905771	-0.513247
O34	O	1.830772	-0.405771	-0.013247
C35	C	1.156029	-0.650015	-0.438861
C36	C	1.656029	-0.150015	0.061139
C37	C	1.041727	-0.635530	-0.451582
C38	C	1.541727	-0.135530	0.048418
C39	C	1.389181	-0.951127	-0.447413
C40	C	1.889181	-0.451127	0.052587
C41	C	1.374720	-1.065447	-0.463789
C42	C	1.874720	-0.565447	0.036211
C43	C	0.864656	-0.676527	-0.415721
C44	C	1.364656	-0.176527	0.084279
C45	C	0.982792	-0.691501	-0.402569
C46	C	1.482792	-0.191501	0.097431
C47	C	1.430805	-1.124341	-0.400686
C48	C	1.930805	-0.624341	0.099314
C49	C	1.415861	-1.242496	-0.417610
C50	C	1.915861	-0.742496	0.082390
C51	C	1.691421	-0.717981	-0.379407
C52	C	2.191421	-0.217981	0.120593
C53	C	1.805719	-0.732491	-0.366714
C54	C	2.305719	-0.232491	0.133286
C55	C	1.423287	-0.683841	-0.681740
C56	C	1.923287	-0.183841	-0.181740
C57	C	1.423322	-0.683803	-0.797884
C58	C	1.923322	-0.183803	-0.297884
C59	C	1.457387	-0.415695	-0.370841
C60	C	1.957387	0.084305	0.129159
C61	C	1.471953	-0.301389	-0.354498
C62	C	1.971953	0.198611	0.145502
C63	C	1.368807	-0.613352	-0.847668
C64	C	1.868807	-0.113352	-0.347668
C65	C	1.368842	-0.613311	-0.967709
C66	C	1.868842	-0.113311	-0.467709
C67	C	1.423189	-0.683954	-0.137686
C68	C	1.923189	-0.183954	0.362314
C69	C	1.423389	-0.683728	-0.021480
C70	C	1.923389	-0.183728	0.478520
H71	H	0.827654	-0.617532	-0.467420
H72	H	1.327654	-0.117532	0.032580
H73	H	1.322103	-0.553070	-0.801422
H74	H	1.822103	-0.053070	-0.301422
H75	H	1.019789	-0.750510	-0.350878
H76	H	1.519789	-0.250510	0.149122
H77	H	1.470020	-0.744090	-0.844131
H78	H	1.970020	-0.244090	-0.344131
H79	H	1.004731	-0.576529	-0.503283
H80	H	1.504731	-0.076529	-0.003283
O81	O	0.850022	-0.802802	-0.305045
O82	O	1.350022	-0.302802	0.194955
C83	C	1.008150	-0.881911	-0.235796
C84	C	1.508150	-0.381911	0.264204
C85	C	0.958118	-0.802229	-0.305649
C86	C	1.458118	-0.302229	0.194351
H87	H	1.095551	-0.881490	-0.236279
H88	H	1.595551	-0.381490	0.263721
H89	H	0.989437	-0.861107	-0.151265
H90	H	1.489437	-0.361107	0.348735
H91	H	0.976483	-0.962190	-0.268195
H92	H	1.476483	-0.462190	0.231805
H93	H	0.989757	-0.721922	-0.273345
H94	H	1.489757	-0.221922	0.226655
H95	H	0.976825	-0.823122	-0.390170
H96	H	1.476825	-0.323122	0.109830
O97	O	1.501214	-1.079978	-0.321307
O98	O	2.001214	-0.579978	0.178693
C99	C	1.580381	-0.921775	-0.232132
C100	C	2.080381	-0.421775	0.267868
C101	C	1.500589	-0.971876	-0.322055
C102	C	2.000589	-0.471876	0.177945
H103	H	1.579917	-0.834370	-0.232722
H104	H	2.079917	-0.334370	0.267278
H105	H	1.559722	-0.940551	-0.152825
H106	H	2.059722	-0.440551	0.347175
H107	H	1.660637	-0.953334	-0.244326
H108	H	2.160637	-0.453334	0.255674
H109	H	1.420305	-0.940346	-0.309963
H110	H	1.920305	-0.440346	0.190037
H111	H	1.521336	-0.953106	-0.401330
H112	H	2.021336	-0.453106	0.098670
H113	H	1.356780	-1.279545	-0.484172
H114	H	1.856780	-0.779545	0.015828
O115	O	1.542365	-1.257032	-0.275111
O116	O	2.042365	-0.757032	0.224889
C117	C	1.621531	-1.098832	-0.185929
C118	C	2.121531	-0.598832	0.314071
C119	C	1.541741	-1.148929	-0.275856
C120	C	2.041741	-0.648929	0.224144
H121	H	1.621068	-1.011426	-0.186515
H122	H	2.121068	-0.511426	0.313485
H123	H	1.600868	-1.117610	-0.106624
H124	H	2.100868	-0.617610	0.393376
H125	H	1.701787	-1.130391	-0.198120
H126	H	2.201787	-0.630391	0.301880
H127	H	1.461457	-1.117399	-0.263766
H128	H	1.961457	-0.617399	0.236234
H129	H	1.562492	-1.130157	-0.355129
H130	H	2.062492	-0.630157	0.144871
H131	H	1.322175	-0.552991	-1.010529
H132	H	1.822175	-0.052991	-0.510529
O133	O	1.304250	-1.109803	-0.543112
O134	O	1.804250	-0.609803	-0.043112
C135	C	1.225178	-1.268017	-0.632373
C136	C	1.725178	-0.768017	-0.132373
C137	C	1.305006	-1.217921	-0.542482
C138	C	1.805006	-0.717921	-0.042482
H139	H	1.225779	-1.355439	-0.631908
H140	H	1.725779	-0.855439	-0.131908
H141	H	1.144870	-1.236597	-0.620191
H142	H	1.644870	-0.736597	-0.120191
H143	H	1.245843	-1.249097	-0.711626
H144	H	1.745843	-0.749097	-0.211626
H145	H	1.284438	-1.236821	-0.463190
H146	H	1.784438	-0.736821	0.036810
H147	H	1.385292	-1.249343	-0.554757
H148	H	1.885292	-0.749343	-0.054757
O149	O	1.478913	-0.755783	-0.970395
O150	O	1.978913	-0.255783	-0.470395
C151	C	1.474926	-0.896259	-0.865304
C152	C	1.974926	-0.396259	-0.365304
C153	C	1.411919	-0.814723	-0.923145
C154	C	1.911919	-0.314723	-0.423145
H155	H	1.420791	-0.943920	-0.827068
H156	H	1.920791	-0.443920	-0.327068
H157	H	1.515972	-0.949345	-0.924430
H158	H	2.015972	-0.449345	-0.424430
H159	H	1.534681	-0.855818	-0.801526
H160	H	2.034681	-0.355818	-0.301526
H161	H	1.352111	-0.855078	-0.986920
H162	H	1.852111	-0.355078	-0.486920
H163	H	1.370945	-0.761643	-0.863953
H164	H	1.870945	-0.261643	-0.363953
