data_functionalizedCrystal
_audit_creation_method	'MofGen! by Chris Wilmer'
_symmetry_space_group_name_H-M	'P1'
_symmetry_Int_Tables_number	1
_symmetry_cell_setting	triclinic
loop_
_symmetry_equiv_pos_as_xyz
  x,y,z
_cell_length_a	15.944499
_cell_length_b	15.944551
_cell_length_c	9.198806
_cell_angle_alpha	89.995864
_cell_angle_beta	89.993466
_cell_angle_gamma	83.488174
loop_
_atom_site_label
_atom_site_type_symbol
_atom_site_fract_x
_atom_site_fract_y
_atom_site_fract_z
O1	O	1.114551	0.108123	-0.120983
O2	O	0.869995	0.121525	-0.120967
O3	O	0.998951	-0.007452	-0.120962
O4	O	0.985595	0.237100	-0.120987
O5	O	0.998941	-0.007452	0.120823
O6	O	0.869985	0.121525	0.120818
O7	O	1.114541	0.108123	0.120802
Cu8	Cu	0.992262	0.114824	0.142887
Cu9	Cu	0.992274	0.114824	-0.143052
O10	O	0.985584	0.237100	0.120798
C11	C	0.838695	0.120976	-0.000072
C12	C	0.745447	0.119331	-0.000066
C13	C	0.453911	0.194263	-0.000095
C14	C	0.514945	0.155312	-0.119306
C15	C	0.409810	0.113355	-0.000099
C16	C	0.514921	0.155290	0.119075
C17	C	0.574719	0.116296	-0.000080
C18	C	0.469617	0.074381	-0.119408
C19	C	0.469586	0.074370	0.119080
C20	C	0.530603	0.035360	-0.000161
C21	C	0.314810	0.111663	-0.000111
C22	C	0.669718	0.117981	-0.000079
C23	C	0.998392	-0.038746	-0.000069
C24	C	0.996729	-0.131992	-0.000068
C25	C	0.912823	-0.346833	-0.000083
C26	C	0.951781	-0.407857	0.119129
C27	C	0.993722	-0.302717	-0.000079
C28	C	0.951810	-0.407841	-0.119252
C29	C	0.990811	-0.467629	-0.000096
C30	C	1.032702	-0.362513	0.119231
C31	C	1.032720	-0.362490	-0.119257
C32	C	1.071737	-0.423497	-0.000016
C33	C	0.995397	-0.207715	-0.000068
C34	C	0.989143	-0.562630	-0.000097
C35	C	1.145840	0.108672	-0.000096
C36	C	1.239089	0.110317	-0.000112
C37	C	0.986144	0.268394	-0.000098
C38	C	0.987806	0.361640	-0.000109
N39	N	0.992259	0.114823	0.344001
N40	N	0.992283	0.114818	-0.344166
C41	C	1.046406	0.060433	0.416200
C42	C	1.046419	0.060430	0.583612
H43	H	0.535048	0.189536	-0.220091
Cl44	Cl	0.438784	0.021586	-0.275179
Cl45	Cl	1.085511	-0.331416	-0.274876
H46	H	0.563780	-0.031846	-0.000217
H47	H	0.420581	0.261409	-0.000218
H48	H	0.917587	-0.427911	-0.220043
H49	H	0.449465	0.040177	0.219874
H50	H	1.092752	0.013866	0.354076
Cl51	Cl	0.920709	0.186723	0.559991
H52	H	1.066886	-0.342529	0.220126
Cl53	Cl	0.545913	0.208144	0.274668
Cl54	Cl	0.920694	0.186713	0.439909
H55	H	0.845673	-0.313513	0.000040
Cl56	Cl	0.898949	-0.438895	0.274740
Cl57	Cl	1.175501	-0.474715	0.000075
H58	H	1.092780	0.013867	0.645700
