data_functionalizedCrystal
_audit_creation_method	'MofGen! by Chris Wilmer'
_symmetry_space_group_name_H-M	'P1'
_symmetry_Int_Tables_number	1
_symmetry_cell_setting	triclinic
loop_
_symmetry_equiv_pos_as_xyz
  x,y,z
_cell_length_a	12.837943
_cell_length_b	15.072220
_cell_length_c	12.837942
_cell_angle_alpha	89.992585
_cell_angle_beta	85.171060
_cell_angle_gamma	90.003370
loop_
_atom_site_label
_atom_site_type_symbol
_atom_site_fract_x
_atom_site_fract_y
_atom_site_fract_z
O1	O	1.402336	0.073766	-0.272145
O2	O	1.099203	0.073771	-0.258702
O3	O	1.244048	0.073763	-0.113857
O4	O	1.257491	0.073774	-0.416991
O5	O	1.244032	-0.073802	-0.113841
O6	O	1.099187	-0.073794	-0.258686
O7	O	1.402321	-0.073799	-0.272129
Zn8	Zn	1.250752	-0.097226	-0.265405
Zn9	Zn	1.250772	0.097198	-0.265426
O10	O	1.257476	-0.073791	-0.416974
C11	C	1.060126	-0.000011	-0.254153
C12	C	0.943711	-0.000009	-0.240608
N13	N	1.250745	-0.229915	-0.265390
C14	C	0.718837	-0.000016	-0.403437
C15	C	0.609454	-0.000015	-0.390716
C16	C	0.615562	-0.000012	-0.202445
C17	C	0.724944	-0.000013	-0.215166
C18	C	0.776578	-0.000014	-0.315666
C19	C	0.885962	-0.000008	-0.328386
C20	C	0.892067	-0.000012	-0.140116
C21	C	0.782685	-0.000011	-0.127395
C22	C	1.250759	-0.410912	-0.265405
C23	C	1.328286	-0.448558	-0.187933
C24	C	1.328621	-0.551383	-0.188193
C25	C	1.250772	-0.589116	-0.265418
C26	C	1.284980	-0.551767	-0.377093
C27	C	1.285540	-0.448910	-0.376642
C28	C	1.138864	-0.448830	-0.232162
C29	C	1.139362	-0.551695	-0.229761
C30	C	1.250778	-0.689829	-0.265432
C31	C	1.250756	-0.310199	-0.265399
C32	C	1.441398	-0.000015	-0.276679
C33	C	1.557813	-0.000011	-0.290223
C34	C	1.239499	-0.000019	-0.074780
C35	C	1.225954	-0.000017	0.041635
N36	N	1.250786	0.229886	-0.265434
C37	C	1.262025	-0.000007	-0.456051
C38	C	1.275569	-0.000003	-0.572467
C39	C	1.388784	-0.000001	0.266510
C40	C	1.376062	0.000000	0.375892
C41	C	1.187791	-0.000006	0.369785
C42	C	1.200513	-0.000007	0.260402
C43	C	1.301012	-0.000007	0.208769
C44	C	1.313732	-0.000015	0.099384
C45	C	1.125462	-0.000014	0.093279
C46	C	1.112741	-0.000013	0.202661
H47	H	0.928000	-0.000010	-0.410218
H48	H	1.078168	-0.577377	-0.281675
F49	F	0.548006	-0.000020	-0.484135
H50	H	0.760878	-0.000015	-0.485268
H51	H	0.740630	-0.000020	-0.045571
F52	F	0.953527	0.000001	-0.046697
F53	F	1.213705	-0.583707	-0.454877
H54	H	0.573502	-0.000085	-0.120623
H55	H	1.470614	-0.000009	0.224469
F56	F	1.392614	-0.417541	-0.412695
F57	F	1.299989	-0.584394	-0.080165
F58	F	1.005788	-0.000006	0.257625
F59	F	1.032043	-0.000029	0.031819
H60	H	1.447536	0.000007	0.422901
H61	H	1.306606	-0.423815	-0.105038
H62	H	1.410625	-0.422693	-0.210075
F63	F	1.436874	-0.583543	-0.217485
F64	F	1.215908	-0.416356	-0.455613
H65	H	1.366032	-0.577522	-0.405058
F66	F	1.099243	-0.414942	-0.127202
H67	H	1.113645	-0.576107	-0.147553
F68	F	1.063295	-0.417008	-0.305836
H69	H	1.395564	-0.000017	0.057346
F70	F	1.080841	0.000015	0.424755
