data_functionalizedCrystal
_audit_creation_method	'MofGen! by Chris Wilmer'
_symmetry_space_group_name_H-M	'P1'
_symmetry_Int_Tables_number	1
_symmetry_cell_setting	triclinic
loop_
_symmetry_equiv_pos_as_xyz
  x,y,z
_cell_length_a	14.519709
_cell_length_b	11.792241
_cell_length_c	10.268362
_cell_angle_alpha	89.999626
_cell_angle_beta	89.999088
_cell_angle_gamma	96.063220
loop_
_atom_site_label
_atom_site_type_symbol
_atom_site_fract_x
_atom_site_fract_y
_atom_site_fract_z
O1	O	-0.126405	1.506208	-0.108155
O2	O	-0.139432	1.175795	-0.108183
O3	O	0.001288	1.349762	-0.108180
O4	O	-0.267125	1.332241	-0.108158
O5	O	0.001294	1.349747	0.108421
O6	O	-0.139426	1.175780	0.108418
O7	O	-0.126399	1.506193	0.108446
Cu8	Cu	-0.132912	1.340985	0.128209
Cu9	Cu	-0.132919	1.341003	-0.127946
O10	O	-0.267119	1.332226	0.108443
C11	C	-0.138611	1.133501	0.000113
C12	C	-0.136161	1.007501	0.000102
C13	C	-0.131657	0.776813	0.000139
C14	C	-0.134160	0.905185	0.000118
C15	C	-0.301484	1.333050	0.000146
C16	C	-0.403875	1.335497	0.000155
C17	C	-0.778803	1.344505	0.000104
C18	C	-0.674486	1.342003	0.000118
C19	C	-0.591342	1.340001	0.000130
C20	C	-0.487019	1.337499	0.000143
C21	C	0.035654	1.348938	0.000115
C22	C	0.138044	1.346491	0.000097
C23	C	-0.127220	1.548487	0.000147
C24	C	-0.129669	1.674487	0.000150
N25	N	-0.132906	1.340981	0.308375
N26	N	-0.132917	1.341016	-0.308112
C27	C	-0.132917	1.340997	0.574046
C28	C	-0.132914	1.340984	0.426208
