data_functionalizedCrystal
_audit_creation_method	'MofGen! by Chris Wilmer'
_symmetry_space_group_name_H-M	'P1'
_symmetry_Int_Tables_number	1
_symmetry_cell_setting	triclinic
loop_
_symmetry_equiv_pos_as_xyz
  x,y,z
_cell_length_a	11.792241
_cell_length_b	9.065218
_cell_length_c	7.540329
_cell_angle_alpha	89.996962
_cell_angle_beta	90.003744
_cell_angle_gamma	95.395350
loop_
_atom_site_label
_atom_site_type_symbol
_atom_site_fract_x
_atom_site_fract_y
_atom_site_fract_z
O1	O	0.166430	-1.958839	0.147488
O2	O	0.666430	-1.458839	0.647488
O3	O	0.180081	-1.529426	0.147491
O4	O	0.680081	-1.029426	0.647491
O5	O	0.008143	-1.754553	0.147477
O6	O	0.508143	-1.254553	0.647477
O7	O	0.338368	-1.733712	0.147502
O8	O	0.838368	-1.233712	0.647502
O9	O	0.008141	-1.754539	-0.147488
O10	O	0.508141	-1.254539	0.352512
O11	O	0.180079	-1.529412	-0.147474
O12	O	0.680079	-1.029412	0.352526
O13	O	0.166428	-1.958825	-0.147477
O14	O	0.666428	-1.458825	0.352523
Cu15	Cu	0.173253	-1.744118	-0.174408
Cu16	Cu	0.673253	-1.244118	0.325592
Cu17	Cu	0.173256	-1.744134	0.174422
Cu18	Cu	0.673256	-1.244134	0.674422
O19	O	0.338366	-1.733698	-0.147463
O20	O	0.838366	-1.233698	0.352537
C21	C	0.178768	-1.474445	0.000008
C22	C	0.678768	-0.974445	0.500008
C23	C	0.174845	-1.310639	0.000009
C24	C	0.674845	-0.810639	0.500009
C25	C	-0.034156	-1.753237	-0.000005
C26	C	0.465844	-1.253237	0.499995
C27	C	-0.160192	-1.749319	-0.000003
C28	C	0.339808	-1.249319	0.499997
C29	C	0.167741	-2.013806	0.000009
C30	C	0.667741	-1.513806	0.500009
C31	C	0.171664	-2.177612	0.000020
C32	C	0.671664	-1.677612	0.500020
C33	C	-0.390944	-1.742113	0.000026
C34	C	0.109056	-1.242113	0.500026
C35	C	-0.262537	-1.746117	0.000010
C36	C	0.237463	-1.246117	0.500010
C37	C	0.380665	-1.735014	0.000023
C38	C	0.880665	-1.235014	0.500023
C39	C	0.506701	-1.738933	0.000032
C40	C	1.006701	-1.238933	0.500032
N41	N	0.173251	-1.744117	-0.419757
N42	N	0.673251	-1.244117	0.080243
N43	N	0.173249	-1.744146	0.419770
N44	N	0.673249	-1.244146	0.919770
