data_functionalizedCrystal
_audit_creation_method	'MofGen! by Chris Wilmer'
_symmetry_space_group_name_H-M	'P1'
_symmetry_Int_Tables_number	1
_symmetry_cell_setting	triclinic
loop_
_symmetry_equiv_pos_as_xyz
  x,y,z
_cell_length_a	17.699104
_cell_length_b	17.699083
_cell_length_c	16.776229
_cell_angle_alpha	89.992455
_cell_angle_beta	89.991971
_cell_angle_gamma	83.287266
loop_
_atom_site_label
_atom_site_type_symbol
_atom_site_fract_x
_atom_site_fract_y
_atom_site_fract_z
O1	O	1.004069	0.095788	-0.066306
O2	O	1.504069	0.595788	0.433694
O3	O	0.783692	0.108224	-0.066304
O4	O	1.283692	0.608224	0.433696
O5	O	0.900107	-0.008183	-0.066298
O6	O	1.400107	0.491817	0.433702
O7	O	0.887654	0.212195	-0.066312
O8	O	1.387654	0.712195	0.433688
O9	O	0.900091	-0.008190	0.066278
O10	O	1.400091	0.491810	0.566278
O11	O	0.783677	0.108217	0.066272
O12	O	1.283677	0.608217	0.566272
O13	O	1.004053	0.095781	0.066271
O14	O	1.504053	0.595781	0.566271
Zn15	Zn	0.893863	0.101998	0.087321
Zn16	Zn	1.393863	0.601998	0.587321
Zn17	Zn	0.893883	0.102007	-0.087354
Zn18	Zn	1.393883	0.602007	0.412646
O19	O	0.887639	0.212188	0.066264
O20	O	1.387639	0.712188	0.566264
C21	C	0.755488	0.107772	-0.000016
C22	C	1.255488	0.607772	0.499984
C23	C	0.671471	0.106427	-0.000015
C24	C	1.171471	0.606427	0.499985
C25	C	0.146600	0.167171	-0.000027
C26	C	0.646600	0.667171	0.499973
C27	C	0.225543	0.168430	-0.000029
C28	C	0.725543	0.668430	0.499971
C29	C	0.274161	0.100095	-0.000025
C30	C	0.774161	0.600095	0.499975
C31	C	0.243831	0.030496	-0.000026
C32	C	0.743831	0.530496	0.499974
C33	C	0.164889	0.029238	-0.000029
C34	C	0.664889	0.529238	0.499971
C35	C	0.562197	0.035569	-0.000014
C36	C	1.062197	0.535569	0.499986
C37	C	0.641144	0.036833	-0.000008
C38	C	1.141144	0.536833	0.499992
C39	C	0.622852	0.174762	-0.000014
C40	C	1.122852	0.674762	0.499986
C41	C	0.543909	0.173503	-0.000017
C42	C	1.043909	0.673503	0.499983
C43	C	0.513587	0.103905	-0.000022
C44	C	1.013587	0.603905	0.499978
C45	C	0.427987	0.102541	-0.000021
C46	C	0.927987	0.602541	0.499979
C47	C	0.359759	0.101459	-0.000020
C48	C	0.859759	0.601459	0.499980
C49	C	1.032258	0.096233	-0.000020
C50	C	1.532258	0.596233	0.499980
C51	C	1.116275	0.097578	-0.000026
C52	C	1.616275	0.597578	0.499974
C53	C	0.899653	-0.036383	-0.000010
C54	C	1.399653	0.463617	0.499990
C55	C	0.898314	-0.120402	-0.000009
C56	C	1.398314	0.379598	0.499991
C57	C	0.966647	-0.169017	-0.000009
C58	C	1.466647	0.330983	0.499991
C59	C	0.965385	-0.247961	-0.000016
C60	C	1.465385	0.252039	0.499984
C61	C	0.895789	-0.278287	-0.000018
C62	C	1.395789	0.221713	0.499982
C63	C	0.827451	-0.229665	-0.000021
C64	C	1.327451	0.270335	0.499979
C65	C	0.828714	-0.150723	-0.000019
C66	C	1.328714	0.349277	0.499981
C67	C	0.822356	-0.548028	-0.000027
C68	C	1.322356	-0.048028	0.499973
C69	C	0.821098	-0.626976	-0.000026
C70	C	1.321098	-0.126976	0.499974
C71	C	0.959026	-0.645266	-0.000024
C72	C	1.459026	-0.145266	0.499976
C73	C	0.960289	-0.566324	-0.000022
C74	C	1.460289	-0.066324	0.499978
C75	C	0.891952	-0.517709	-0.000029
C76	C	1.391952	-0.017709	0.499971
C77	C	0.893321	-0.432110	-0.000023
C78	C	1.393321	0.067890	0.499977
C79	C	0.894419	-0.363885	-0.000018
C80	C	1.394419	0.136115	0.499982
C81	C	0.888093	0.240388	-0.000026
C82	C	1.388093	0.740388	0.499974
C83	C	0.889431	0.324406	-0.000031
C84	C	1.389431	0.824406	0.499969
N85	N	0.893854	0.101991	0.206532
N86	N	1.393854	0.601991	0.706532
N87	N	0.893897	0.102008	-0.206566
N88	N	1.393897	0.602008	0.293434
C89	C	0.945418	0.050467	0.248252
C90	C	1.445418	0.550467	0.748252
C91	C	0.945422	0.050466	0.331704
C92	C	1.445422	0.550466	0.831704
C93	C	0.893866	0.101994	0.373435
C94	C	1.393866	0.601994	0.873435
C95	C	0.842296	0.153520	0.331709
C96	C	1.342296	0.653520	0.831709
C97	C	0.842289	0.153516	0.248259
C98	C	1.342289	0.653516	0.748259
C99	C	0.842324	0.153535	0.668257
C100	C	1.342324	0.653535	1.168257
C101	C	0.842336	0.153536	0.751713
C102	C	1.342336	0.653536	1.251713
C103	C	0.945457	0.050485	0.751702
C104	C	1.445457	0.550485	1.251702
C105	C	0.945450	0.050481	0.668251
C106	C	1.445450	0.550481	1.168251
C107	C	0.893878	0.102004	0.626533
C108	C	1.393878	0.602004	1.126533
C109	C	0.893873	0.102004	0.536045
C110	C	1.393873	0.602004	1.036045
C111	C	0.893874	0.101999	0.463922
C112	C	1.393874	0.601999	0.963922
H113	H	0.647550	0.231432	-0.000013
H114	H	1.147550	0.731432	0.499987
C115	C	1.034200	-0.698741	-0.000025
C116	C	1.534200	-0.198741	0.499975
H117	H	1.075828	-0.669373	-0.000014
H118	H	1.575828	-0.169373	0.499986
H119	H	1.036585	-0.729911	-0.046258
H120	H	1.536585	-0.229911	0.453742
H121	H	1.036567	-0.729922	0.046213
H122	H	1.536567	-0.229922	0.546213
C123	C	0.694623	-0.038339	-0.000014
C124	C	1.194623	0.461661	0.499986
H125	H	0.665258	-0.079970	-0.000027
H126	H	1.165258	0.420030	0.499973
H127	H	0.725793	-0.040723	0.046219
H128	H	1.225793	0.459277	0.546219
H129	H	0.725804	-0.040702	-0.046252
H130	H	1.225804	0.459298	0.453748
H131	H	1.021028	-0.287541	-0.000014
H132	H	1.521028	0.212459	0.499986
C133	C	0.093124	0.242339	-0.000031
C134	C	0.593124	0.742339	0.499969
H135	H	0.041765	0.231625	-0.000026
H136	H	0.541765	0.731625	0.499974
H137	H	0.102312	0.270885	-0.046264
H138	H	0.602312	0.770885	0.453736
H139	H	0.102298	0.270878	0.046206
H140	H	0.602298	0.770878	0.546206
C141	C	0.785561	0.210178	0.377607
C142	C	1.285561	0.710178	0.877607
H143	H	0.754839	0.240852	0.340806
H144	H	1.254839	0.740852	0.840806
H145	H	0.812705	0.241664	0.410161
H146	H	1.312705	0.741664	0.910161
H147	H	0.754119	0.182962	0.410161
H148	H	1.254119	0.682962	0.910161
H149	H	0.766711	-0.508455	-0.000033
H150	H	1.266711	-0.008455	0.499967
C151	C	1.036844	-0.532969	-0.000024
C152	C	1.536844	-0.032969	0.499976
H153	H	1.077361	-0.573231	-0.000032
H154	H	1.577361	-0.073231	0.499968
H155	H	1.040201	-0.502558	0.046207
H156	H	1.540201	-0.002558	0.546207
H157	H	1.040205	-0.502551	-0.046263
H158	H	1.540205	-0.002551	0.453737
C159	C	0.744539	-0.660333	-0.000039
C160	C	1.244539	-0.160333	0.499961
H161	H	0.704020	-0.620074	-0.000052
H162	H	1.204020	-0.120074	0.499948
H163	H	0.741168	-0.690754	0.046192
H164	H	1.241168	-0.190754	0.546192
H165	H	0.741196	-0.690743	-0.046278
H166	H	1.241196	-0.190743	0.453722
H167	H	0.504328	0.229149	-0.000017
H168	H	1.004328	0.729149	0.499983
C169	C	0.528851	-0.040985	-0.000006
C170	C	1.028851	0.459015	0.499994
H171	H	0.569114	-0.081500	0.000008
H172	H	1.069114	0.418500	0.500008
H173	H	0.498443	-0.044348	-0.046238
H174	H	0.998443	0.455652	0.453762
H175	H	0.498431	-0.044343	0.046233
H176	H	0.998431	0.455657	0.546233
C177	C	0.750897	-0.263021	-0.000021
C178	C	1.250897	0.236979	0.499979
H179	H	0.759930	-0.316999	-0.000012
H180	H	1.259930	0.183001	0.499988
H181	H	0.722770	-0.246321	-0.046252
H182	H	1.222770	0.253679	0.453748
H183	H	0.722765	-0.246329	0.046219
H184	H	1.222765	0.253671	0.546219
C185	C	1.002150	-0.006203	0.377593
C186	C	1.502150	0.493797	0.877593
H187	H	1.032861	-0.036883	0.340787
H188	H	1.532861	0.463117	0.840787
H189	H	0.974996	-0.037681	0.410162
H190	H	1.474996	0.462319	0.910162
H191	H	1.033603	0.021000	0.410131
H192	H	1.533603	0.521000	0.910131
C193	C	0.753550	-0.097242	-0.000020
C194	C	1.253550	0.402758	0.499980
H195	H	0.764269	-0.045884	-0.000028
H196	H	1.264269	0.454116	0.499972
H197	H	0.724997	-0.106424	0.046210
H198	H	1.224997	0.393576	0.546210
H199	H	0.725017	-0.106418	-0.046261
H200	H	1.225017	0.393582	0.453739
H201	H	0.283422	-0.025143	-0.000027
H202	H	0.783422	0.474857	0.499973
H203	H	0.800300	0.195471	0.214291
H204	H	1.300300	0.695471	0.714291
C205	C	0.258902	0.244981	-0.000033
C206	C	0.758902	0.744981	0.499967
H207	H	0.312879	0.235946	-0.000042
H208	H	0.812879	0.735946	0.499958
H209	H	0.242203	0.273111	0.046197
H210	H	0.742203	0.773111	0.546197
H211	H	0.242210	0.273111	-0.046274
H212	H	0.742210	0.773111	0.453726
H213	H	0.140200	-0.027432	-0.000030
H214	H	0.640200	0.472568	0.499970
C215	C	0.785608	0.210205	0.797616
C216	C	1.285608	0.710205	1.297616
H217	H	0.754884	0.240882	0.760819
H218	H	1.254884	0.740882	1.260819
H219	H	0.812764	0.241687	0.830162
H220	H	1.312764	0.741687	1.330162
H221	H	0.754165	0.182997	0.830178
H222	H	1.254165	0.682997	1.330178
H223	H	1.023320	-0.144333	-0.000002
H224	H	1.523320	0.355667	0.499998
H225	H	0.987405	0.008511	0.214280
H226	H	1.487405	0.508511	0.714280
C227	C	1.002159	-0.006201	0.622351
C228	C	1.502159	0.493799	1.122351
H229	H	1.032865	-0.036893	0.659151
H230	H	1.532865	0.463107	1.159151
H231	H	1.033609	0.020985	0.589781
H232	H	1.533609	0.520985	1.089781
H233	H	0.974983	-0.037678	0.589814
H234	H	1.474983	0.462322	1.089814
C235	C	1.002178	-0.006198	0.797594
C236	C	1.502178	0.493802	1.297594
H237	H	0.994795	0.001175	0.853271
H238	H	1.494795	0.501175	1.353271
H239	H	1.052671	0.001962	0.783905
H240	H	1.552671	0.501962	1.283905
H241	H	0.994049	-0.056705	0.783926
H242	H	1.494049	0.443295	1.283926
H243	H	0.800334	0.195488	0.634296
H244	H	1.300334	0.695488	1.134296
