data_functionalizedCrystal
_audit_creation_method	'MofGen! by Chris Wilmer'
_symmetry_space_group_name_H-M	'P1'
_symmetry_Int_Tables_number	1
_symmetry_cell_setting	triclinic
loop_
_symmetry_equiv_pos_as_xyz
  x,y,z
_cell_length_a	14.044220
_cell_length_b	16.992695
_cell_length_c	15.455313
_cell_angle_alpha	87.152573
_cell_angle_beta	87.075622
_cell_angle_gamma	88.071450
loop_
_atom_site_label
_atom_site_type_symbol
_atom_site_fract_x
_atom_site_fract_y
_atom_site_fract_z
O1	O	1.276018	-0.186887	-0.072131
O2	O	0.999530	-0.180030	-0.072133
O3	O	1.136665	-0.069239	-0.072125
O4	O	1.138883	-0.297678	-0.072139
O5	O	1.128821	-0.075546	0.072137
O6	O	0.991685	-0.186337	0.072129
O7	O	1.268174	-0.193194	0.072131
Cu8	Cu	1.129213	-0.190341	0.085302
Cu9	Cu	1.138490	-0.182883	-0.085304
O10	O	1.131038	-0.303985	0.072123
C11	C	0.960066	-0.180181	-0.000002
C12	C	0.854162	-0.171227	-0.000003
C13	C	1.129891	-0.042980	0.000006
C14	C	1.121383	0.044659	0.000006
C15	C	1.307638	-0.193043	-0.000002
C16	C	1.413542	-0.201997	-0.000007
C17	C	1.607444	-0.218367	-0.000007
C18	C	1.660266	-0.154861	-0.000003
C19	C	1.768160	-0.163969	-0.000003
C20	C	1.499540	-0.209259	-0.000007
C21	C	1.137812	-0.330244	-0.000010
C22	C	1.146321	-0.417883	-0.000015
N23	N	1.122696	-0.195588	0.205297
C24	C	1.203479	0.089157	0.000007
C25	C	1.195479	0.171504	-0.000001
C26	C	1.105382	0.209350	-0.000005
C27	C	1.023279	0.164846	-0.000009
C28	C	1.031280	0.082502	-0.000007
C29	C	1.072220	0.455268	-0.000017
C30	C	1.064225	0.537619	-0.000016
C31	C	1.236426	0.544271	-0.000010
C32	C	1.244419	0.461924	-0.000003
C33	C	1.162317	0.417427	-0.000012
N34	N	1.097202	0.293522	-0.000011
N35	N	1.170497	0.333258	-0.000012
N36	N	1.145015	-0.177631	-0.205299
C37	C	1.180979	-0.148540	0.250695
C38	C	1.176059	-0.152515	0.341502
C39	C	1.112860	-0.203543	0.386911
C40	C	1.054571	-0.250592	0.341507
C41	C	1.059486	-0.246612	0.250701
C42	C	1.091641	-0.220700	0.658491
C43	C	1.086732	-0.224678	0.749303
C44	C	1.208219	-0.126600	0.749293
C45	C	1.213133	-0.122628	0.658485
C46	C	1.154840	-0.169674	0.613089
N47	N	1.107832	-0.207609	0.479731
N48	N	1.159864	-0.165603	0.520271
H49	H	1.624462	-0.093648	-0.000062
H50	H	1.643250	-0.279572	-0.000011
H51	H	0.949919	0.195668	-0.000017
H52	H	1.276846	0.058349	0.000015
H53	H	1.264595	-0.081078	0.621515
H54	H	1.317786	0.431115	0.000000
O55	O	1.275323	0.214609	0.000045
C56	C	1.446969	0.212519	0.000012
C57	C	1.356619	0.163607	-0.000020
H58	H	1.512721	0.171305	-0.000058
H59	H	1.444305	0.248582	0.060399
H60	H	1.450764	0.253890	-0.060348
H61	H	1.352766	0.122192	0.060300
H62	H	1.359320	0.127596	-0.060446
O63	O	0.976758	0.574481	-0.000139
C64	C	0.871852	0.666830	-0.074907
C65	C	0.970941	0.625151	-0.074869
H66	H	0.867108	0.707793	-0.135328
H67	H	0.860503	0.702632	-0.014573
H68	H	0.814556	0.620870	-0.074872
H69	H	1.028298	0.671057	-0.074934
H70	H	0.982207	0.589334	-0.135197
H71	H	1.303269	0.580509	-0.000005
H72	H	1.005366	0.419049	-0.000024
O73	O	0.951433	0.039390	0.000030
C74	C	0.779792	0.041480	-0.000035
C75	C	0.870142	0.090396	-0.000049
H76	H	0.714047	0.082698	-0.000118
H77	H	0.775877	0.000142	0.060351
H78	H	0.782575	0.005380	-0.060396
H79	H	0.867421	0.126543	0.060270
H80	H	0.874023	0.131684	-0.060475
H81	H	1.232446	-0.106992	0.213729
O82	O	1.232784	-0.106794	0.385467
C83	C	1.353786	-0.009082	0.375873
C84	C	1.289608	-0.060829	0.325977
H85	H	1.399730	0.028106	0.327797
H86	H	1.401722	-0.048304	0.418342
H87	H	1.307360	0.031304	0.418429
H88	H	1.335960	-0.101222	0.283373
H89	H	1.241666	-0.021560	0.283562
O90	O	1.264787	-0.080780	0.793298
C91	C	1.308685	0.051144	0.821136
C92	C	1.244585	-0.000661	0.771230
H93	H	1.292360	0.115931	0.803326
H94	H	1.386772	0.036353	0.803252
H95	H	1.294330	0.039496	0.893832
H96	H	1.258855	0.010958	0.698523
H97	H	1.166518	0.014140	0.789186
O98	O	1.034985	-0.266483	0.614536
C99	C	0.913931	-0.364152	0.624138
C100	C	0.978058	-0.312357	0.674029
H101	H	0.867875	-0.401241	0.672217
H102	H	0.960305	-0.404618	0.581630
H103	H	0.866091	-0.324891	0.581620
H104	H	1.025908	-0.351557	0.716594
H105	H	0.931628	-0.271884	0.716482
H106	H	1.035265	-0.266234	0.786271
O107	O	0.993126	-0.300052	0.385712
C108	C	0.858673	-0.312155	0.488222
C109	C	0.928208	-0.256052	0.438232
H110	H	0.806157	-0.276601	0.530683
H111	H	0.900441	-0.356283	0.530777
H112	H	0.817903	-0.345116	0.440161
H113	H	0.968996	-0.223038	0.486231
H114	H	0.886387	-0.211974	0.395665
H115	H	1.012025	-0.284922	0.213739
