data_functionalizedCrystal
_audit_creation_method	'MofGen! by Chris Wilmer'
_symmetry_space_group_name_H-M	'P1'
_symmetry_Int_Tables_number	1
_symmetry_cell_setting	triclinic
loop_
_symmetry_equiv_pos_as_xyz
  x,y,z
_cell_length_a	16.959455
_cell_length_b	16.959447
_cell_length_c	16.959453
_cell_angle_alpha	90.031096
_cell_angle_beta	89.976231
_cell_angle_gamma	89.983277
loop_
_atom_site_label
_atom_site_type_symbol
_atom_site_fract_x
_atom_site_fract_y
_atom_site_fract_z
Zn1	Zn	1.208358	-0.446955	0.314688
Zn2	Zn	1.208269	-0.314775	0.446881
Zn3	Zn	1.076186	-0.314787	0.314718
Zn4	Zn	1.076140	-0.446908	0.446826
O5	O	1.142238	-0.380856	0.380778
O6	O	1.318957	-0.429436	0.332234
O7	O	1.190731	-0.204165	0.429384
O8	O	1.093775	-0.332344	0.204103
O9	O	1.318892	-0.332323	0.429355
O10	O	1.190881	-0.429448	0.204081
O11	O	1.093690	-0.204174	0.332284
O12	O	0.965569	-0.332298	0.332232
O13	O	1.093697	-0.557525	0.429263
O14	O	0.965535	-0.429367	0.429291
O15	O	1.190836	-0.557560	0.332181
O16	O	1.190686	-0.332277	0.557484
O17	O	1.093611	-0.429355	0.557444
C18	C	0.936872	-0.380829	0.380759
C19	C	0.849015	-0.380837	0.380770
C20	C	0.807736	-0.330379	0.330164
C21	C	0.807742	-0.431307	0.431383
C22	C	0.725196	-0.431318	0.431392
C23	C	0.683916	-0.380860	0.380785
C24	C	0.725182	-0.330390	0.330169
C25	C	0.683923	-0.481793	0.482001
C26	C	0.601372	-0.481807	0.482011
C27	C	0.560091	-0.431344	0.431408
C28	C	0.601362	-0.380872	0.380791
C29	C	0.560083	-0.330414	0.330184
C30	C	0.601352	-0.279937	0.279571
C31	C	0.683901	-0.279928	0.279566
C32	C	0.477543	-0.431353	0.431413
C33	C	0.477529	-0.330425	0.330190
C34	C	1.142271	-0.587024	0.380713
C35	C	1.142285	-0.674881	0.380685
C36	C	1.091803	-1.046341	0.431147
C37	C	1.192956	-1.046373	0.330056
C38	C	1.192935	-0.963827	0.330072
C39	C	1.142348	-0.922534	0.380628
C40	C	1.091782	-0.963788	0.431167
C41	C	1.243505	-0.922567	0.279540
C42	C	1.243487	-0.840016	0.279555
C43	C	1.192896	-0.798722	0.330108
C44	C	1.142327	-0.839981	0.380648
C45	C	1.091740	-0.798688	0.431204
C46	C	1.041167	-0.839945	0.481741
C47	C	1.041191	-0.922494	0.481719
C48	C	1.192872	-0.716174	0.330129
C49	C	1.091719	-0.716135	0.431224
C50	C	1.348406	-0.380883	0.380798
C51	C	1.436263	-0.380895	0.380806
C52	C	1.142155	-0.380827	0.586144
C53	C	1.142192	-0.380841	0.674001
C54	C	1.142251	-0.175490	0.380786
C55	C	1.142390	-0.087634	0.380591
C56	C	1.142343	-0.380903	0.174610
C57	C	1.142388	-0.380922	0.086753
C58	C	1.091624	-0.431349	0.715283
C59	C	1.192798	-0.330351	0.715272
C60	C	1.192838	-0.330365	0.797818
C61	C	1.142270	-0.380873	0.839100
C62	C	1.091664	-0.431367	0.797837
C63	C	1.243449	-0.279878	0.839088
C64	C	1.243491	-0.279891	0.921639
C65	C	1.192919	-0.330395	0.962923
C66	C	1.142310	-0.380891	0.921654
C67	C	1.091742	-0.431399	0.962936
C68	C	1.041129	-0.481890	0.921669
C69	C	1.041092	-0.481871	0.839120
C70	C	1.192955	-0.330414	1.045471
C71	C	1.091782	-0.431416	1.045490
H72	H	0.717510	-0.238833	0.238359
O73	O	1.298078	-0.225429	0.966138
H74	H	1.338291	-0.260854	1.003681
H75	H	1.234050	-0.682586	0.288985
O76	O	0.852240	-0.275931	0.275580
H77	H	0.836420	-0.289588	0.213560
H78	H	1.050518	-0.682520	0.472386
O79	O	1.298030	-0.795519	0.225051
H80	H	1.284506	-0.811379	0.163009
H81	H	0.443945	-0.472456	0.472616
H82	H	1.284623	-0.238759	0.805474
O83	O	1.247536	-0.275962	1.089984
H84	H	1.282690	-0.240836	1.047409
O85	O	0.556813	-0.225516	0.224997
H86	H	0.572671	-0.239172	0.162971
H87	H	1.050603	-0.472547	1.079096
O88	O	1.298036	-0.967099	0.224985
H89	H	1.289535	-1.031431	0.233445
H90	H	0.999960	-0.523018	0.955291
O91	O	0.852258	-0.485752	0.485940
H92	H	0.916593	-0.477271	0.477426
H93	H	0.999983	-0.806314	0.522907
O94	O	1.037255	-1.090836	0.485647
H95	H	1.050768	-1.074974	0.547690
O96	O	1.247494	-1.090903	0.275507
H97	H	1.239003	-1.155236	0.283973
O98	O	0.986511	-0.536334	0.794614
H99	H	0.994989	-0.527843	0.730278
H100	H	1.000020	-0.956093	0.522866
O101	O	1.037037	-0.485810	0.670783
H102	H	1.045504	-0.477319	0.606445
O103	O	0.728442	-0.536246	0.536549
H104	H	0.792776	-0.527761	0.528036
H105	H	1.233973	-0.289232	0.681658
O106	O	0.556861	-0.536138	0.536705
H107	H	0.599435	-0.571181	0.571934
H108	H	0.443925	-0.289334	0.288981
