data_functionalizedCrystal
_audit_creation_method	'MofGen! by Chris Wilmer'
_symmetry_space_group_name_H-M	'P1'
_symmetry_Int_Tables_number	1
_symmetry_cell_setting	triclinic
loop_
_symmetry_equiv_pos_as_xyz
  x,y,z
_cell_length_a	14.853576
_cell_length_b	9.065215
_cell_length_c	13.330367
_cell_angle_alpha	89.988784
_cell_angle_beta	90.002991
_cell_angle_gamma	95.673376
loop_
_atom_site_label
_atom_site_type_symbol
_atom_site_fract_x
_atom_site_fract_y
_atom_site_fract_z
O1	O	0.132173	-1.957760	-0.083404
O2	O	0.632173	-1.457760	0.416596
O3	O	0.143019	-1.528260	-0.083410
O4	O	0.643019	-1.028260	0.416590
O5	O	0.006452	-1.754476	-0.083403
O6	O	0.506452	-1.254476	0.416597
O7	O	0.268740	-1.731544	-0.083411
O8	O	0.768740	-1.231544	0.416589
O9	O	0.006461	-1.754518	0.083444
O10	O	0.506461	-1.254518	0.583444
O11	O	0.143028	-1.528302	0.083437
O12	O	0.643028	-1.028302	0.583437
O13	O	0.132183	-1.957802	0.083443
O14	O	0.632183	-1.457802	0.583443
Cu15	Cu	0.137606	-1.743056	0.098674
Cu16	Cu	0.637606	-1.243056	0.598674
Cu17	Cu	0.137595	-1.743006	-0.098642
Cu18	Cu	0.637595	-1.243006	0.401358
O19	O	0.268750	-1.731586	0.083436
O20	O	0.768750	-1.231586	0.583436
C21	C	0.141982	-1.473315	0.000013
C22	C	0.641982	-0.973315	0.500013
C23	C	0.138867	-1.309534	0.000011
C24	C	0.638867	-0.809534	0.500011
C25	C	-0.027140	-1.753456	0.000019
C26	C	0.472860	-1.253456	0.500019
C27	C	-0.127246	-1.750335	0.000016
C28	C	0.372754	-1.250335	0.500016
C29	C	-0.174277	-1.748843	-0.090937
C30	C	0.325723	-1.248843	0.409063
C31	C	-0.174280	-1.748907	0.090966
C32	C	0.325720	-1.248907	0.590966
C33	C	-0.268336	-1.745982	0.090966
C34	C	0.231664	-1.245982	0.590966
C35	C	-0.315367	-1.744491	0.000013
C36	C	0.184633	-1.244491	0.500013
C37	C	-0.268342	-1.745924	-0.090940
C38	C	0.231658	-1.245924	0.409060
C39	C	-0.315369	-1.744565	0.181918
C40	C	0.184631	-1.244565	0.681918
C41	C	-0.409431	-1.741642	0.181921
C42	C	0.090569	-1.241642	0.681921
C43	C	-0.456463	-1.740140	0.090967
C44	C	0.043537	-1.240140	0.590967
C45	C	-0.409432	-1.741571	0.000011
C46	C	0.090568	-1.241571	0.500011
C47	C	-0.456463	-1.740080	-0.090942
C48	C	0.043537	-1.240080	0.409058
C49	C	-0.409433	-1.741500	-0.181900
C50	C	0.090567	-1.241500	0.318100
C51	C	-0.315374	-1.744421	-0.181894
C52	C	0.184626	-1.244421	0.318106
C53	C	-0.550521	-1.737219	0.090961
C54	C	-0.050521	-1.237219	0.590961
C55	C	-0.550527	-1.737160	-0.090945
C56	C	-0.050527	-1.237160	0.409055
C57	C	0.302341	-1.732606	0.000011
C58	C	0.802341	-1.232606	0.500011
C59	C	0.402448	-1.735727	0.000008
C60	C	0.902448	-1.235727	0.500008
C61	C	0.133220	-1.012747	0.000017
C62	C	0.633220	-0.512747	0.500017
C63	C	0.136334	-1.176529	0.000011
C64	C	0.636334	-0.676529	0.500011
N65	N	0.137581	-1.742972	-0.237423
N66	N	0.637581	-1.242972	0.262577
C67	C	0.197957	-1.642727	-0.710049
C68	C	0.697957	-1.142727	-0.210049
C69	C	0.077263	-1.843448	-0.710011
C70	C	0.577263	-1.343448	-0.210011
C71	C	0.077257	-1.843426	-0.604993
C72	C	0.577257	-1.343426	-0.104993
C73	C	0.137600	-1.743051	-0.552498
C74	C	0.637600	-1.243051	-0.052498
C75	C	0.197951	-1.642699	-0.605021
C76	C	0.697951	-1.142699	-0.105021
C77	C	0.016901	-1.943766	-0.552462
C78	C	0.516901	-1.443766	-0.052462
C79	C	0.016892	-1.943747	-0.447437
C80	C	0.516892	-1.443747	0.052563
C81	C	0.077240	-1.843378	-0.394940
C82	C	0.577240	-1.343378	0.105060
C83	C	0.137594	-1.743023	-0.447470
C84	C	0.637594	-1.243023	0.052530
C85	C	0.197938	-1.642648	-0.394974
C86	C	0.697938	-1.142648	0.105026
C87	C	0.258296	-1.542298	-0.447502
C88	C	0.758296	-1.042298	0.052498
C89	C	0.258300	-1.542330	-0.552524
C90	C	0.758300	-1.042330	-0.052524
C91	C	0.077237	-1.843347	-0.289918
C92	C	0.577237	-1.343347	0.210082
C93	C	0.197931	-1.642619	-0.289946
C94	C	0.697931	-1.142619	0.210054
N95	N	0.137613	-1.743102	0.237456
N96	N	0.637613	-1.243102	0.737456
H97	H	-0.447738	-1.740294	-0.255954
H98	H	0.052262	-1.240294	0.244046
H99	H	0.307441	-1.460628	-0.595299
H100	H	0.807441	-0.960628	-0.095299
O101	O	-0.601238	-1.735701	0.189059
O102	O	-0.101238	-1.235701	0.689059
H103	H	-0.651294	-1.834857	0.193402
H104	H	-0.151294	-1.334857	0.693402
H105	H	0.307425	-1.460566	-0.404749
H106	H	0.807425	-0.960566	0.095251
O107	O	-0.460156	-1.740102	0.280018
O108	O	0.039844	-1.240102	0.780018
H109	H	-0.434895	-1.640198	0.323629
H110	H	0.065105	-1.140198	0.823629
O111	O	-0.048200	-2.051979	-0.390781
O112	O	0.451800	-1.551979	0.109219
H113	H	-0.009543	-2.123598	-0.342908
H114	H	0.490457	-1.623598	0.157092
H115	H	0.247103	-1.561028	-0.752820
H116	H	0.747103	-1.061028	-0.252820
O117	O	0.263021	-1.534366	-0.233323
O118	O	0.763021	-1.034366	0.266677
H119	H	0.307440	-1.596412	-0.185459
H120	H	0.807440	-1.096412	0.314541
H121	H	-0.277074	-1.745583	-0.255947
H122	H	0.222926	-1.245583	0.244053
O123	O	0.012148	-1.951656	-0.766623
O124	O	0.512148	-1.451656	-0.266623
H125	H	0.022282	-1.934802	-0.848476
H126	H	0.522282	-1.434802	-0.348476
H127	H	-0.588813	-1.735934	-0.165011
H128	H	-0.088813	-1.235934	0.334989
O129	O	-0.123558	-1.750532	0.189060
O130	O	0.376442	-1.250532	0.689060
H131	H	-0.134400	-1.649518	0.232682
H132	H	0.365600	-1.149518	0.732682
O133	O	-0.048225	-2.051954	-0.609075
O134	O	0.451775	-1.551954	-0.109075
H135	H	-0.038086	-2.035101	-0.690928
H136	H	0.461914	-1.535101	-0.190928
O137	O	0.012150	-1.951572	-0.233259
O138	O	0.512150	-1.451572	0.266741
H139	H	-0.029806	-2.021377	-0.287406
H140	H	0.470194	-1.521377	0.212594
H141	H	-0.277071	-1.745791	0.255967
H142	H	0.222929	-1.245791	0.755967
H143	H	-0.135981	-1.749994	-0.164993
H144	H	0.364019	-1.249994	0.335007
