data_functionalizedCrystal
_audit_creation_method	'MofGen! by Chris Wilmer'
_symmetry_space_group_name_H-M	'P1'
_symmetry_Int_Tables_number	1
_symmetry_cell_setting	triclinic
loop_
_symmetry_equiv_pos_as_xyz
  x,y,z
_cell_length_a	14.908795
_cell_length_b	16.625545
_cell_length_c	14.908694
_cell_angle_alpha	93.268702
_cell_angle_beta	83.203537
_cell_angle_gamma	93.315945
loop_
_atom_site_label
_atom_site_type_symbol
_atom_site_fract_x
_atom_site_fract_y
_atom_site_fract_z
Zn1	Zn	1.413361	-0.278722	-0.591772
Zn2	Zn	1.913361	0.221278	-0.091772
Zn3	Zn	1.404516	-0.406218	-0.440403
Zn4	Zn	1.904516	0.093782	0.059597
Zn5	Zn	1.253258	-0.278742	-0.431677
Zn6	Zn	1.753258	0.221258	0.068323
Zn7	Zn	1.261941	-0.420860	-0.582974
Zn8	Zn	1.761941	0.079140	-0.082974
O9	O	1.333269	-0.346135	-0.511707
O10	O	1.833269	0.153865	-0.011707
O11	O	1.538860	-0.289498	-0.579027
O12	O	2.038860	0.210502	-0.079027
O13	O	1.377115	-0.383189	-0.312579
O14	O	1.877115	0.116811	0.187421
O15	O	1.274563	-0.165905	-0.452944
O16	O	1.774563	0.334095	0.047056
O17	O	1.532361	-0.383169	-0.467817
O18	O	2.032361	0.116831	0.032183
O19	O	1.392191	-0.165890	-0.570565
O20	O	1.892191	0.334110	-0.070565
O21	O	1.265986	-0.289533	-0.306167
O22	O	1.765986	0.210467	0.193833
O23	O	1.127738	-0.303731	-0.444413
O24	O	1.627738	0.196269	0.055587
O25	O	1.289363	-0.408124	-0.710808
O26	O	1.789363	0.091876	-0.210808
O27	O	1.134117	-0.408144	-0.555570
O28	O	1.634117	0.091856	-0.055570
O29	O	1.400611	-0.303696	-0.717272
O30	O	1.900611	0.196304	-0.217272
O31	O	1.385535	-0.520994	-0.459286
O32	O	1.885535	-0.020994	0.040714
O33	O	1.280786	-0.531752	-0.564032
O34	O	1.780786	-0.031752	-0.064032
C35	C	1.098083	-0.357529	-0.498090
C36	C	1.598083	0.142471	0.001910
C37	C	0.997471	-0.362424	-0.492287
C38	C	1.497471	0.137576	0.007713
C39	C	1.333169	-0.555630	-0.511672
C40	C	1.833169	-0.055630	-0.011672
C41	C	1.333211	-0.645250	-0.511693
C42	C	1.833211	-0.145250	-0.011693
C43	C	0.852275	-0.418002	-0.426117
C44	C	1.352275	0.081998	0.073883
C45	C	0.946809	-0.413406	-0.431569
C46	C	1.446809	0.086594	0.068431
C47	C	0.953591	-0.316032	-0.547554
C48	C	1.453591	0.183968	-0.047554
C49	C	0.859057	-0.320628	-0.542102
C50	C	1.359057	0.179372	-0.042102
C51	C	0.808402	-0.371616	-0.481382
C52	C	1.308402	0.128384	0.018618
C53	C	0.713866	-0.376215	-0.475934
C54	C	1.213866	0.123785	0.024066
C55	C	0.720650	-0.278838	-0.591914
C56	C	1.220650	0.221162	-0.091914
C57	C	0.815184	-0.274242	-0.597367
C58	C	1.315184	0.225758	-0.097367
C59	C	1.333247	-0.718031	-0.511713
C60	C	1.833247	-0.218031	-0.011713
C61	C	1.333301	-0.809338	-0.511736
C62	C	1.833301	-0.309338	-0.011736
C63	C	1.333348	-0.882113	-0.511750
C64	C	1.833348	-0.382113	-0.011750
C65	C	1.333401	-0.973425	-0.511772
C66	C	1.833401	-0.473425	-0.011772
C67	C	1.569373	-0.334698	-0.525376
C68	C	2.069373	0.165302	-0.025376
C69	C	1.669987	-0.329824	-0.531202
C70	C	2.169987	0.170176	-0.031202
C71	C	1.346942	-0.357541	-0.747802
C72	C	1.846942	0.142459	-0.247802
C73	C	1.352769	-0.362401	-0.848411
C74	C	1.852769	0.137599	-0.348411
C75	C	1.333395	-0.135823	-0.511762
C76	C	1.833395	0.364177	-0.011762
C77	C	1.333449	-0.046200	-0.511786
C78	C	1.833449	0.453800	-0.011786
C79	C	1.247979	-0.274014	-1.030792
C80	C	1.747979	0.225986	-0.530792
C81	C	1.253450	-0.278578	-1.125323
C82	C	1.753450	0.221422	-0.625323
C83	C	1.369179	-0.376098	-1.132007
C84	C	1.869179	0.123902	-0.632007
C85	C	1.363707	-0.371534	-1.037476
C86	C	1.863707	0.128466	-0.537476
C87	C	1.303106	-0.320489	-0.986871
C88	C	1.803106	0.179511	-0.486871
C89	C	1.297640	-0.315921	-0.892338
C90	C	1.797640	0.184079	-0.392338
C91	C	1.413363	-0.413444	-0.899024
C92	C	1.913363	0.086556	-0.399024
C93	C	1.418835	-0.418009	-0.993555
C94	C	1.918835	0.081991	-0.493555
C95	C	1.319701	-0.334713	-0.276533
C96	C	1.819701	0.165287	0.223467
C97	C	1.314049	-0.329617	-0.175934
C98	C	1.814049	0.170383	0.324066
H99	H	0.672624	-0.417734	-0.426496
H100	H	1.172624	0.082266	0.073504
H101	H	0.811031	-0.459524	-0.376683
H102	H	1.311031	0.040476	0.123317
H103	H	0.856440	-0.232727	-0.646800
H104	H	1.356440	0.267273	-0.146800
H105	H	0.982526	-0.451178	-0.386566
H106	H	1.482526	0.048822	0.113434
H107	H	0.994850	-0.274516	-0.596984
H108	H	1.494850	0.225484	-0.096984
N109	N	0.675827	-0.231434	-0.648347
N110	N	1.175827	0.268566	-0.148347
N111	N	0.686068	-0.156227	-0.643089
N112	N	1.186068	0.343773	-0.143089
H113	H	0.654409	-0.122749	-0.682942
H114	H	1.154409	0.377251	-0.182942
H115	H	1.248299	-0.274354	-0.851137
H116	H	1.748299	0.225646	-0.351137
H117	H	1.468171	-0.459570	-1.034770
H118	H	1.968171	0.040430	-0.534770
H119	H	1.198643	-0.232444	-0.989589
H120	H	1.698643	0.267556	-0.489589
H121	H	1.208560	-0.240733	-1.161079
H122	H	1.708560	0.259267	-0.661079
H123	H	1.418505	-0.417667	-1.173225
H124	H	1.918505	0.082333	-0.673225
N125	N	1.469691	-0.460899	-0.854146
N126	N	1.969691	0.039101	-0.354146
N127	N	1.464812	-0.456806	-0.769745
N128	N	1.964812	0.043194	-0.269745
H129	H	1.504599	-0.490312	-0.738049
H130	H	2.004599	0.009688	-0.238049
