data_functionalizedCrystal
_audit_creation_method	'MofGen! by Chris Wilmer'
_symmetry_space_group_name_H-M	'P1'
_symmetry_Int_Tables_number	1
_symmetry_cell_setting	triclinic
loop_
_symmetry_equiv_pos_as_xyz
  x,y,z
_cell_length_a	19.288864
_cell_length_b	17.766277
_cell_length_c	19.288862
_cell_angle_alpha	90.015225
_cell_angle_beta	83.135763
_cell_angle_gamma	90.012907
loop_
_atom_site_label
_atom_site_type_symbol
_atom_site_fract_x
_atom_site_fract_y
_atom_site_fract_z
O1	O	-0.921342	-0.062848	-0.086651
O2	O	-0.719081	-0.062798	-0.098340
O3	O	-0.826056	-0.062805	0.008635
O4	O	-0.814366	-0.062841	-0.193626
O5	O	-0.826059	0.062383	0.008645
O6	O	-0.719084	0.062390	-0.098330
O7	O	-0.921344	0.062341	-0.086641
Cu8	Cu	-0.820214	0.073796	-0.092484
Cu9	Cu	-0.820211	-0.074254	-0.092497
O10	O	-0.814369	0.062348	-0.193616
C11	C	-0.693206	-0.000197	-0.097959
C12	C	-0.616102	-0.000177	-0.096830
C13	C	-0.825682	-0.000207	0.034516
C14	C	-0.824554	-0.000197	0.111620
N15	N	-0.820209	-0.178384	-0.092501
C16	C	-0.947219	-0.000262	-0.087022
C17	C	-1.024323	-0.000287	-0.088151
C18	C	-0.571405	-0.000200	-0.159598
C19	C	-0.498958	-0.000208	-0.158537
C20	C	-0.471211	-0.000209	-0.094705
C21	C	-0.515918	-0.000181	-0.031929
C22	C	-0.588363	-0.000166	-0.032991
C23	C	-0.362949	-0.044084	-0.044529
C24	C	-0.290504	-0.044104	-0.043470
C25	C	-0.247766	-0.000254	-0.091425
C26	C	-0.277479	0.043608	-0.140453
C27	C	-0.349924	0.043624	-0.141515
C28	C	-0.392657	-0.000225	-0.093546
C29	C	-0.124513	-0.000284	-0.153047
C30	C	-0.052065	-0.000288	-0.151984
C31	C	-0.069026	-0.000268	-0.025374
C32	C	-0.141473	-0.000257	-0.026439
C33	C	-0.169211	-0.000269	-0.090278
C34	C	-0.867662	-0.217774	-0.045224
C35	C	-0.867668	-0.296576	-0.045223
C36	C	-0.820209	-0.335985	-0.092492
C37	C	-0.772753	-0.296585	-0.139777
C38	C	-0.772753	-0.217785	-0.139781
C39	C	-0.756922	-0.460815	-0.101637
C40	C	-0.756921	-0.539614	-0.101628
C41	C	-0.820210	-0.579031	-0.092482
C42	C	-0.883502	-0.539639	-0.083331
C43	C	-0.883502	-0.460839	-0.083335
C44	C	-0.820204	-0.421430	-0.092492
C45	C	-0.867673	-0.703867	-0.045202
C46	C	-0.867680	-0.782670	-0.045205
C47	C	-0.772759	-0.782678	-0.139755
C48	C	-0.772758	-0.703876	-0.139755
C49	C	-0.820214	-0.664475	-0.092474
N50	N	-0.820221	0.177927	-0.092475
C51	C	-0.887322	-0.000207	0.156316
C52	C	-0.886262	-0.000216	0.228764
C53	C	-0.822430	-0.000199	0.256511
C54	C	-0.759653	-0.000193	0.211805
C55	C	-0.760715	-0.000192	0.139359
C56	C	-0.772252	0.043669	0.364802
C57	C	-0.771193	0.043672	0.437247
C58	C	-0.819152	-0.000206	0.479957
C59	C	-0.868182	-0.044078	0.450215
C60	C	-0.869244	-0.044077	0.377770
C61	C	-0.821271	-0.000201	0.335065
C62	C	-0.880775	-0.000226	0.603209
C63	C	-0.879713	-0.000239	0.675658
C64	C	-0.753102	-0.000209	0.658697
C65	C	-0.754167	-0.000204	0.586251
C66	C	-0.818005	-0.000208	0.558511
C67	C	-0.814745	-0.000241	0.780503
C68	C	-0.815880	-0.000224	0.703400
H69	H	-0.593985	-0.000211	-0.211580
C70	C	-0.682886	-0.000194	0.689207
H71	H	-0.645655	-0.000191	0.652208
H72	H	-0.679839	0.043460	0.717130
H73	H	-0.679842	-0.043858	0.717101
H74	H	-0.462559	-0.000225	-0.209652
H75	H	-0.906312	-0.328653	-0.006724
H76	H	-0.374114	0.079340	-0.181433
C77	C	-0.637535	-0.000146	0.036055
H78	H	-0.684654	-0.000135	0.026279
H79	H	-0.629161	-0.043799	0.062237
H80	H	-0.629133	0.043519	0.062241
C81	C	-0.720555	-0.826014	-0.191753
H82	H	-0.692295	-0.791265	-0.219913
H83	H	-0.691776	-0.856741	-0.166781
H84	H	-0.745394	-0.856767	-0.220659
H85	H	-0.733196	0.079404	0.330033
H86	H	-0.906306	-0.185696	-0.006727
H87	H	-0.266317	-0.079822	-0.003551
H88	H	-0.397742	-0.079797	-0.005477
C89	C	-0.485399	-0.000186	0.038285
H90	H	-0.435851	-0.000207	0.029928
H91	H	-0.500737	0.043476	0.064127
H92	H	-0.500775	-0.043842	0.064114
C93	C	-0.689438	-0.000178	0.242321
H94	H	-0.652206	-0.000179	0.205322
H95	H	-0.686389	0.043477	0.270241
H96	H	-0.686396	-0.043840	0.270217
H97	H	-0.703054	-0.000191	0.549858
H98	H	-0.937377	-0.000227	0.265162
H99	H	-0.242682	0.079316	-0.179502
C100	C	-0.691667	-0.000174	0.090191
H101	H	-0.653498	-0.000162	0.117090
H102	H	-0.689449	-0.043826	0.061562
H103	H	-0.689453	0.043491	0.061594
C104	C	-0.923166	-0.092340	0.345054
H105	H	-0.951575	-0.118478	0.380861
H106	H	-0.951626	-0.060729	0.320555
H107	H	-0.899556	-0.127602	0.313570
H108	H	-0.705385	-0.571680	-0.109071
H109	H	-0.731267	0.079391	0.461456
H110	H	-0.147099	-0.000282	-0.205029
H111	H	-0.705381	-0.428728	-0.109088
C112	C	-0.002898	-0.000313	-0.221033
H113	H	-0.029797	-0.000325	-0.259202
H114	H	0.025732	0.043337	-0.223251
H115	H	0.025699	-0.043980	-0.223248
C116	C	-0.920937	-0.092351	0.497186
H117	H	-0.913278	-0.086078	0.544591
H118	H	-0.967068	-0.076944	0.491476
H119	H	-0.914998	-0.143817	0.484476
C120	C	-0.953115	-0.417507	-0.073273
H121	H	-0.944047	-0.364933	-0.074581
H122	H	-0.980142	-0.430438	-0.109588
H123	H	-0.978098	-0.430410	-0.029433
C124	C	-0.038513	-0.000273	0.044841
H125	H	0.011035	-0.000291	0.036485
H126	H	-0.053853	0.043387	0.070684
H127	H	-0.053887	-0.043931	0.070667
H128	H	-0.935038	-0.571731	-0.075888
C129	C	-0.190641	-0.000244	0.042607
H130	H	-0.163742	-0.000252	0.080776
H131	H	-0.219240	0.043417	0.044830
H132	H	-0.219268	-0.043901	0.044817
H133	H	-0.939304	-0.000214	0.133736
C134	C	-0.919876	-0.660520	0.006797
H135	H	-0.913073	-0.607947	0.000030
H136	H	-0.966182	-0.673445	-0.000718
H137	H	-0.912567	-0.673418	0.053162
C138	C	-0.919880	-0.826000	0.006802
H139	H	-0.948137	-0.791245	0.034962
H140	H	-0.948663	-0.856755	-0.018165
H141	H	-0.895040	-0.856723	0.035707
C142	C	-0.720554	-0.660545	-0.191755
H143	H	-0.692286	-0.695299	-0.219904
H144	H	-0.745386	-0.629820	-0.220660
H145	H	-0.691772	-0.629790	-0.166779
H146	H	-0.734112	-0.328675	-0.178265
C147	C	-0.720543	-0.174454	-0.191778
H148	H	-0.692274	-0.209207	-0.219927
H149	H	-0.745368	-0.143723	-0.220684
H150	H	-0.691763	-0.143705	-0.166794
C151	C	-0.950993	-0.000240	0.572693
H152	H	-0.988225	-0.000258	0.609691
H153	H	-0.954041	0.043417	0.544798
H154	H	-0.954036	-0.043900	0.544771
C155	C	-0.948759	-0.000259	0.724827
H156	H	-0.938986	-0.000270	0.771947
H157	H	-0.974946	0.043392	0.716455
H158	H	-0.974940	-0.043926	0.716421
