data_functionalizedCrystal
_audit_creation_method	'MofGen! by Chris Wilmer'
_symmetry_space_group_name_H-M	'P1'
_symmetry_Int_Tables_number	1
_symmetry_cell_setting	triclinic
loop_
_symmetry_equiv_pos_as_xyz
  x,y,z
_cell_length_a	15.944551
_cell_length_b	15.944493
_cell_length_c	13.330367
_cell_angle_alpha	90.001230
_cell_angle_beta	89.996937
_cell_angle_gamma	83.486891
loop_
_atom_site_label
_atom_site_type_symbol
_atom_site_fract_x
_atom_site_fract_y
_atom_site_fract_z
O1	O	1.114505	0.108334	-0.083306
O2	O	0.869953	0.121691	-0.083329
O3	O	0.998933	-0.007265	-0.083325
O4	O	0.985526	0.237291	-0.083310
O5	O	0.998914	-0.007268	0.083522
O6	O	0.869934	0.121688	0.083518
O7	O	1.114487	0.108332	0.083542
Cu8	Cu	0.992209	0.115010	0.098764
Cu9	Cu	0.992231	0.115013	-0.098552
O10	O	0.985507	0.237288	0.083538
C11	C	0.838650	0.121135	0.000091
C12	C	0.745404	0.119473	0.000082
C13	C	0.530565	0.035566	0.000096
C14	C	0.469546	0.074531	-0.082166
C15	C	0.574679	0.116465	0.000093
C16	C	0.469550	0.074547	0.082332
C17	C	0.409767	0.113555	0.000109
C18	C	0.514888	0.155452	-0.082236
C19	C	0.514898	0.155457	0.082336
C20	C	0.453897	0.194481	0.000054
C21	C	0.669681	0.118140	0.000084
C22	C	0.314766	0.111886	0.000112
C23	C	0.998375	-0.038562	0.000094
C24	C	0.996733	-0.131810	0.000081
C25	C	1.072653	-0.367570	0.000108
C26	C	1.031721	-0.418137	-0.082160
C27	C	0.993688	-0.302531	0.000093
C28	C	1.031684	-0.418116	0.082338
C29	C	0.990754	-0.467441	0.000109
C30	C	0.952778	-0.351870	-0.082242
C31	C	0.952753	-0.351845	0.082330
C32	C	0.911763	-0.402379	0.000042
C33	C	0.995381	-0.207531	0.000083
C34	C	0.989055	-0.562438	0.000112
C35	C	1.145790	0.108888	0.000119
C36	C	1.239036	0.110550	0.000122
C37	C	0.986064	0.268584	0.000116
C38	C	0.987707	0.361833	0.000122
N39	N	0.992199	0.115007	0.237546
N40	N	0.992247	0.115009	-0.237333
C41	C	0.935116	0.172092	0.710167
C42	C	1.049368	0.057927	0.710138
C43	C	1.049359	0.057924	0.605120
C44	C	0.992228	0.115008	0.552620
C45	C	0.935107	0.172093	0.605139
C46	C	1.106485	0.000845	0.552594
C47	C	1.106478	0.000841	0.447569
C48	C	1.049343	0.057921	0.395067
C49	C	0.992218	0.115008	0.447592
C50	C	0.935088	0.172092	0.395092
C51	C	0.877959	0.229176	0.447616
C52	C	0.877971	0.229173	0.552637
C53	C	1.049330	0.057923	0.290046
C54	C	0.935078	0.172092	0.290064
H55	H	0.449463	0.040314	0.151876
C56	C	0.541881	0.201661	-0.176278
H57	H	0.601373	0.202413	-0.175723
H58	H	0.514933	0.257939	-0.176487
H59	H	0.526003	0.173128	-0.234642
H60	H	1.153003	-0.045626	0.595342
C61	C	1.112207	-0.004859	0.767885
H62	H	1.104029	0.003314	0.837955
H63	H	1.168260	0.004295	0.750662
H64	H	1.103087	-0.060929	0.750678
H65	H	1.152994	-0.045640	0.404811
H66	H	1.140671	-0.351942	0.000031
C67	C	0.907736	-0.312715	0.176281
H68	H	0.935879	-0.335509	0.234682
H69	H	0.850893	-0.325234	0.176869
H70	H	0.908682	-0.253254	0.175267
H71	H	1.065041	-0.447048	0.151884
C72	C	0.575607	-0.055134	-0.000034
H73	H	0.560202	-0.083739	-0.058566
H74	H	0.559453	-0.084179	0.057806
H75	H	0.634970	-0.053432	0.000550
H76	H	0.831446	0.275657	0.404858
C77	C	0.442396	0.028318	-0.176126
H78	H	0.404721	0.065763	-0.214857
H79	H	0.414946	-0.018894	-0.156364
H80	H	0.490782	0.009585	-0.215135
C81	C	0.819810	-0.423281	-0.000025
H82	H	0.791899	-0.400377	-0.058518
H83	H	0.791562	-0.399577	0.057855
H84	H	0.819245	-0.482795	0.000522
H85	H	0.420724	0.261690	0.000012
C86	C	0.815110	0.291935	0.610409
H87	H	0.781068	0.325918	0.564103
H88	H	0.845293	0.326932	0.651391
H89	H	0.780168	0.261659	0.651366
C90	C	1.076779	-0.457247	-0.176105
H91	H	1.133907	-0.445602	-0.176001
H92	H	1.049298	-0.433683	-0.234527
H93	H	1.074945	-0.516592	-0.175728
H94	H	1.095847	0.011450	0.247286
H95	H	0.888600	0.218567	0.752934
H96	H	0.888552	0.218574	0.247325
H97	H	0.535015	0.189645	0.151890
H98	H	0.919457	-0.323049	-0.151868
