data_functionalizedCrystal
_audit_creation_method	'MofGen! by Chris Wilmer'
_symmetry_space_group_name_H-M	'P1'
_symmetry_Int_Tables_number	1
_symmetry_cell_setting	triclinic
loop_
_symmetry_equiv_pos_as_xyz
  x,y,z
_cell_length_a	6.817900
_cell_length_b	19.551136
_cell_length_c	16.015572
_cell_angle_alpha	78.362965
_cell_angle_beta	104.485554
_cell_angle_gamma	101.650842
loop_
_atom_site_label
_atom_site_type_symbol
_atom_site_fract_x
_atom_site_fract_y
_atom_site_fract_z
V1	V	-3.988964	-0.028152	-0.269517
O2	O	-3.986534	0.071755	-0.263949
O3	O	-3.931759	-0.123531	-0.268094
O4	O	-3.928175	0.003172	-0.386871
O5	O	-3.990142	-0.055825	-0.144350
V6	V	-4.475338	-0.019852	-0.254495
O7	O	-4.243968	-0.046359	-0.302469
O8	O	-4.670531	-0.001645	-0.221543
O9	O	-4.309336	0.075527	-0.255918
O10	O	-4.595164	-0.119759	-0.260063
O11	O	-4.591556	0.007821	-0.379661
O12	O	-4.312920	-0.051176	-0.137141
C13	C	-3.775019	-0.147747	-0.263951
C14	C	-3.809451	-0.225521	-0.263570
C15	C	-3.794759	-0.272166	-0.184301
C16	C	-3.827186	-0.345248	-0.183916
C17	C	-3.874266	-0.371682	-0.262805
C18	C	-3.888970	-0.325027	-0.342085
C19	C	-3.856562	-0.251947	-0.342467
C20	C	-3.832738	-0.478149	-0.320005
C21	C	-3.865132	-0.551229	-0.319619
C22	C	-3.974231	-0.597085	-0.261628
C23	C	-4.050902	-0.569855	-0.204008
C24	C	-4.018495	-0.496775	-0.204391
C25	C	-3.909411	-0.450924	-0.262399
C26	C	-3.994701	-0.722974	-0.181936
C27	C	-4.027142	-0.796058	-0.181556
C28	C	-4.088906	-0.775835	-0.339726
C29	C	-4.056484	-0.702753	-0.340105
C30	C	-4.009373	-0.676328	-0.261208
C31	C	-3.770446	0.013876	-0.415461
C32	C	-3.801970	0.038856	-0.511401
C33	C	-4.070136	-0.182866	-0.890010
C34	C	-4.099765	-0.159371	-0.980156
C35	C	-4.033998	-0.037815	-0.954914
C36	C	-4.004354	-0.061300	-0.864764
C37	C	-4.022429	-0.133826	-0.832319
C38	C	-3.956646	-0.012260	-0.807073
C39	C	-3.927015	-0.035743	-0.716931
C40	C	-3.945092	-0.108267	-0.684480
C41	C	-3.992798	-0.157309	-0.742177
C42	C	-3.938586	0.060266	-0.839520
C43	C	-3.890878	0.109305	-0.781829
C44	C	-3.861232	0.085822	-0.691685
C45	C	-3.879309	0.013299	-0.659233
C46	C	-3.813526	0.134865	-0.633987
C47	C	-3.783895	0.111382	-0.543845
C48	C	-3.849678	-0.010184	-0.569091
C49	C	-4.129418	0.099739	-0.260058
C50	C	-4.074223	0.177514	-0.260445
C51	C	-4.133991	-0.061883	-0.108546
C52	C	-4.081706	-0.086860	-0.012605
H53	H	-3.743897	-0.440817	-0.367232
H54	H	-4.127240	-0.797356	-0.403959
Br55	Br	-3.719251	0.177934	-0.465548
H56	H	-4.007489	-0.216367	-0.715759
H57	H	-4.080928	-0.474607	-0.157476
Br58	Br	-4.198941	-0.632081	-0.125290
Br59	Br	-4.009477	0.060610	-0.998954
Br60	Br	-3.761006	-0.588179	-0.397791
Br61	Br	-3.730835	-0.236306	-0.077227
H62	H	-4.068435	-0.664774	-0.404654
H63	H	-3.798835	0.193916	-0.660418
H64	H	-3.956339	-0.701458	-0.117693
H65	H	-3.815217	-0.383233	-0.119364
Br66	Br	-3.952884	-0.360899	-0.449149
Br67	Br	-3.874149	-0.108613	-0.525050
H68	H	-3.868535	-0.213968	-0.407020
H69	H	-3.920969	-0.127386	-0.611080
Br70	Br	-3.866358	0.207731	-0.825869
Br71	Br	-4.094608	-0.281295	-0.845968
H72	H	-4.138605	-0.199310	-1.027126
H73	H	-4.015188	-0.834036	-0.117003
H74	H	-3.962683	0.079384	-0.912919
