data_functionalizedCrystal
_audit_creation_method	'MofGen! by Chris Wilmer'
_symmetry_space_group_name_H-M	'P1'
_symmetry_Int_Tables_number	1
_symmetry_cell_setting	triclinic
loop_
_symmetry_equiv_pos_as_xyz
  x,y,z
_cell_length_a	19.188940
_cell_length_b	16.109301
_cell_length_c	14.586319
_cell_angle_alpha	89.994467
_cell_angle_beta	90.012807
_cell_angle_gamma	96.694902
loop_
_atom_site_label
_atom_site_type_symbol
_atom_site_fract_x
_atom_site_fract_y
_atom_site_fract_z
O1	O	0.089752	-1.102842	0.076183
O2	O	0.423085	-0.769508	0.409517
O3	O	0.756418	-0.436175	0.742850
O4	O	0.100920	-0.860743	0.076198
O5	O	0.434254	-0.527410	0.409531
O6	O	0.767587	-0.194076	0.742865
O7	O	-0.006303	-0.988775	0.076183
O8	O	0.327030	-0.655441	0.409517
O9	O	0.660364	-0.322108	0.742850
O10	O	0.196975	-0.974810	0.076198
O11	O	0.530308	-0.641477	0.409531
O12	O	0.863641	-0.308143	0.742865
O13	O	-0.006321	-0.988757	-0.076298
O14	O	0.327012	-0.655423	0.257036
O15	O	0.660346	-0.322090	0.590369
O16	O	0.100902	-0.860725	-0.076283
O17	O	0.434235	-0.527392	0.257050
O18	O	0.767569	-0.194058	0.590384
O19	O	0.089734	-1.102824	-0.076298
O20	O	0.423067	-0.769490	0.257036
O21	O	0.756400	-0.436157	0.590369
Cu22	Cu	0.095316	-0.981773	-0.090213
Cu23	Cu	0.428650	-0.648439	0.243120
Cu24	Cu	0.761983	-0.315106	0.576454
Cu25	Cu	0.095338	-0.981794	0.090113
Cu26	Cu	0.428671	-0.648461	0.423447
Cu27	Cu	0.762004	-0.315127	0.756780
O28	O	0.196957	-0.974792	-0.076283
O29	O	0.530290	-0.641459	0.257051
O30	O	0.863623	-0.308125	0.590384
C31	C	0.100459	-0.829761	-0.000041
C32	C	0.433792	-0.496427	0.333293
C33	C	0.767125	-0.163094	0.666626
C34	C	0.099102	-0.737470	-0.000035
C35	C	0.432436	-0.404137	0.333298
C36	C	0.765769	-0.070803	0.666631
C37	C	-0.032324	-0.988312	-0.000057
C38	C	0.301009	-0.654979	0.333276
C39	C	0.634343	-0.321645	0.666610
C40	C	-0.109831	-0.986951	-0.000057
C41	C	0.223502	-0.653617	0.333277
C42	C	0.556835	-0.320284	0.666610
C43	C	0.090195	-1.133806	-0.000057
C44	C	0.423528	-0.800473	0.333276
C45	C	0.756862	-0.467139	0.666610
C46	C	0.091551	-1.226097	-0.000056
C47	C	0.424885	-0.892764	0.333277
C48	C	0.758218	-0.559430	0.666610
C49	C	-0.663123	-0.977254	-0.083152
C50	C	-0.329790	-0.643921	0.250182
C51	C	0.003544	-0.310588	0.583515
C52	C	-0.590296	-0.978524	-0.083157
C53	C	-0.256962	-0.645191	0.250177
C54	C	0.076371	-0.311858	0.583510
C55	C	-0.553865	-0.979173	-0.000041
C56	C	-0.220531	-0.645840	0.333293
C57	C	0.112802	-0.312507	0.666626
C58	C	-0.590265	-0.978530	0.083087
C59	C	-0.256932	-0.645197	0.416420
C60	C	0.076402	-0.311864	0.749754
C61	C	-0.663090	-0.977252	0.083090
C62	C	-0.329757	-0.643919	0.416423
C63	C	0.003577	-0.310585	0.749756
N64	N	-0.444718	-1.028498	0.061822
N65	N	-0.111385	-0.695165	0.395155
N66	N	0.221949	-0.361832	0.728488
N67	N	-0.375537	-1.029715	0.061813
N68	N	-0.042204	-0.696381	0.395147
N69	N	0.291129	-0.363048	0.728480
C70	C	-0.334446	-0.983024	-0.000044
C71	C	-0.001113	-0.649691	0.333289
C72	C	0.332220	-0.316357	0.666623
N73	N	-0.365151	-0.935081	-0.061907
N74	N	-0.031817	-0.601748	0.271427
N75	N	0.301516	-0.268415	0.604760
N76	N	-0.434338	-0.933869	-0.061901
N77	N	-0.101005	-0.600535	0.271432
N78	N	0.232329	-0.267202	0.604766
C79	C	-0.474898	-0.980559	-0.000034
C80	C	-0.141565	-0.647226	0.333299
C81	C	0.191769	-0.313893	0.666632
C82	C	-0.219087	-0.985038	-0.083172
C83	C	0.114247	-0.651705	0.250161
C84	C	0.447580	-0.318371	0.583495
C85	C	-0.146257	-0.986303	-0.083174
C86	C	0.187076	-0.652970	0.250160
C87	C	0.520409	-0.319637	0.583493
C88	C	-0.146229	-0.986318	0.083073
C89	C	0.187104	-0.652984	0.416406
C90	C	0.520438	-0.319651	0.749739
C91	C	-0.219056	-0.985044	0.083072
C92	C	0.114277	-0.651711	0.416405
C93	C	0.447611	-0.318377	0.749739
C94	C	-0.255481	-0.984408	-0.000053
C95	C	0.077853	-0.651075	0.333280
C96	C	0.411186	-0.317742	0.666614
C97	C	0.222978	-0.975255	-0.000041
C98	C	0.556311	-0.641921	0.333293
C99	C	0.889644	-0.308588	0.666626
C100	C	0.300485	-0.976616	-0.000035
C101	C	0.633818	-0.643283	0.333298
C102	C	0.967152	-0.309950	0.666632
N103	N	0.095301	-0.981764	-0.217045
N104	N	0.428634	-0.648431	0.116289
N105	N	0.761968	-0.315097	0.449622
C106	C	0.159573	-0.515000	-0.000041
C107	C	0.492906	-0.181666	0.333292
C108	C	0.826239	0.151667	0.666625
C109	C	0.158293	-0.428283	-0.000047
C110	C	0.491626	-0.094950	0.333286
C111	C	0.824960	0.238383	0.666619
C112	C	0.031076	-0.448574	-0.000053
C113	C	0.364410	-0.115241	0.333280
C114	C	0.697743	0.218093	0.666614
C115	C	0.032357	-0.535289	-0.000053
C116	C	0.365690	-0.201955	0.333280
C117	C	0.699024	0.131378	0.666613
C118	C	0.096607	-0.568499	-0.000043
C119	C	0.429941	-0.235165	0.333290
C120	C	0.763274	0.098168	0.666624
C121	C	0.094047	-0.395068	-0.000048
C122	C	0.427380	-0.061735	0.333285
C123	C	0.760713	0.271599	0.666618
C124	C	0.092659	-0.301047	-0.000055
C125	C	0.425992	0.032287	0.333278
C126	C	0.759325	0.365620	0.666612
C127	C	0.097996	-0.662526	-0.000038
C128	C	0.431329	-0.329193	0.333295
C129	C	0.764662	0.004140	0.666628
C130	C	0.052972	-0.931520	-0.548074
C131	C	0.386306	-0.598187	-0.214740
C132	C	0.719639	-0.264853	0.118593
C133	C	0.052963	-0.931513	-0.452092
C134	C	0.386296	-0.598180	-0.118759
C135	C	0.719629	-0.264847	0.214574
C136	C	0.137678	-1.032059	-0.452033
C137	C	0.471011	-0.698726	-0.118699
C138	C	0.804345	-0.365393	0.214634
C139	C	0.137683	-1.032070	-0.548012
C140	C	0.471017	-0.698736	-0.214679
C141	C	0.804350	-0.365403	0.118655
C142	C	0.095332	-0.981795	-0.596030
C143	C	0.428665	-0.648462	-0.262697
C144	C	0.761998	-0.315129	0.070636
C145	C	0.095317	-0.981778	-0.404069
C146	C	0.428650	-0.648445	-0.070736
C147	C	0.761983	-0.315112	0.262597
C148	C	0.095306	-0.981771	-0.300002
C149	C	0.428640	-0.648438	0.033331
C150	C	0.761973	-0.315105	0.366664
C151	C	0.095341	-0.981803	-0.700104
C152	C	0.428674	-0.648470	-0.366771
C153	C	0.762007	-0.315136	-0.033437
N154	N	0.095348	-0.981810	0.216945
N155	N	0.428681	-0.648476	0.550278
N156	N	0.762014	-0.315143	0.883612
H157	H	-0.692776	-0.976736	-0.150838
H158	H	-0.359442	-0.643402	0.182495
H159	H	-0.026109	-0.310069	0.515828
H160	H	0.172160	-1.072990	-0.412925
H161	H	0.505493	-0.739657	-0.079591
H162	H	0.838827	-0.406323	0.253742
Br163	Br	-0.268524	-0.984173	-0.195981
Br164	Br	0.064809	-0.650840	0.137353
Br165	Br	0.398142	-0.317506	0.470686
H166	H	-0.116628	-0.986821	-0.150860
H167	H	0.216705	-0.653487	0.182473
H168	H	0.550039	-0.320154	0.515807
Br169	Br	-0.053103	-0.607901	-0.000067
Br170	Br	0.280231	-0.274568	0.333266
Br171	Br	0.613564	0.058765	0.666599
H172	H	-0.560598	-0.979056	0.150761
H173	H	-0.227264	-0.645722	0.484094
H174	H	0.106069	-0.312389	0.817427
H175	H	0.018486	-0.890584	-0.587167
H176	H	0.351820	-0.557250	-0.253834
H177	H	0.685153	-0.223917	0.079500
Br178	Br	-0.004526	-0.863276	-0.387012
Br179	Br	0.328808	-0.529943	-0.053678
Br180	Br	0.662141	-0.196610	0.279655
H181	H	-0.692720	-0.976731	0.150775
H182	H	-0.359386	-0.643398	0.484109
H183	H	-0.026053	-0.310065	0.817442
H184	H	-0.116566	-0.986836	0.150747
H185	H	0.216767	-0.653503	0.484081
H186	H	0.550100	-0.320169	0.817414
Br187	Br	-0.268449	-0.984183	0.195880
Br188	Br	0.064884	-0.650850	0.529213
Br189	Br	0.398217	-0.317517	0.862546
H190	H	-0.560658	-0.979029	-0.150842
H191	H	-0.227324	-0.645695	0.182491
H192	H	0.106009	-0.312362	0.515824
H193	H	0.211889	-0.542036	-0.000040
H194	H	0.545223	-0.208703	0.333293
H195	H	0.878556	0.124631	0.666627
H196	H	0.209566	-0.384727	-0.000048
H197	H	0.542899	-0.051394	0.333285
H198	H	0.876233	0.281939	0.666619
Br199	Br	0.195170	-1.100312	-0.613102
Br200	Br	0.528503	-0.766979	-0.279769
Br201	Br	0.861837	-0.433646	0.053564
H202	H	-0.021234	-0.421523	-0.000067
H203	H	0.312099	-0.088190	0.333266
H204	H	0.645433	0.245143	0.666600
