data_functionalizedCrystal
_audit_creation_method	'MofGen! by Chris Wilmer'
_symmetry_space_group_name_H-M	'P1'
_symmetry_Int_Tables_number	1
_symmetry_cell_setting	triclinic
loop_
_symmetry_equiv_pos_as_xyz
  x,y,z
_cell_length_a	15.995350
_cell_length_b	9.065218
_cell_length_c	7.540329
_cell_angle_alpha	90.001757
_cell_angle_beta	90.000688
_cell_angle_gamma	95.745870
loop_
_atom_site_label
_atom_site_type_symbol
_atom_site_fract_x
_atom_site_fract_y
_atom_site_fract_z
O1	O	1.112426	-0.190160	-0.147325
O2	O	0.868829	-0.213643	-0.147360
O3	O	0.995662	0.012860	-0.147338
O4	O	0.985592	-0.416662	-0.147347
O5	O	0.995655	0.012862	0.147627
O6	O	0.868821	-0.213640	0.147605
O7	O	1.112418	-0.190157	0.147640
Cu8	Cu	0.990619	-0.201898	0.174555
Cu9	Cu	0.990628	-0.201902	-0.174275
O10	O	0.985585	-0.416660	0.147618
C11	C	0.837623	-0.212670	0.000117
C12	C	0.744650	-0.209760	0.000104
C13	C	0.994691	0.067825	0.000141
C14	C	0.991797	0.231600	0.000132
C15	C	0.986556	-0.471625	0.000135
C16	C	0.989450	-0.635400	0.000132
C17	C	0.406824	-0.199308	0.000141
C18	C	0.453034	-0.037997	0.000802
C19	C	0.549747	-0.040908	0.000125
C20	C	0.574423	-0.204492	0.000123
C21	C	0.533944	-0.284058	-0.168311
C22	C	0.437278	-0.280005	-0.168439
C23	C	0.436955	-0.283335	0.166991
C24	C	0.533900	-0.283297	0.169205
C25	C	0.669143	-0.207431	0.000108
C26	C	0.312103	-0.196374	0.000145
C27	C	1.143624	-0.191129	0.000158
C28	C	1.236597	-0.194040	0.000161
N29	N	0.990619	-0.201895	0.419904
N30	N	0.990635	-0.201893	-0.419624
H31	H	0.577698	0.021635	0.120866
H32	H	0.406096	-0.402268	0.168129
C33	C	0.411950	-0.201615	-0.338516
H34	H	0.460720	-0.172535	-0.406875
H35	H	0.374478	-0.267526	-0.405857
H36	H	0.385042	-0.116395	-0.307734
C37	C	0.555866	-0.444455	0.182955
H38	H	0.530577	-0.489299	0.286244
H39	H	0.535457	-0.498256	0.081100
H40	H	0.615119	-0.445233	0.190026
H41	H	0.577130	0.022055	-0.120824
C42	C	0.427342	0.049126	0.163964
H43	H	0.455917	0.146170	0.161882
H44	H	0.368415	0.055296	0.161724
H45	H	0.441854	-0.000333	0.268955
C46	C	0.554263	-0.446405	-0.176809
H47	H	0.529186	-0.492420	-0.279639
H48	H	0.613423	-0.449209	-0.181867
H49	H	0.532701	-0.497751	-0.074166
C50	C	0.394922	-0.439986	-0.178814
H51	H	0.436815	-0.507163	-0.182944
H52	H	0.360558	-0.460350	-0.077253
H53	H	0.361274	-0.451143	-0.282692
H54	H	0.416016	-0.230598	0.294660
C55	C	0.425916	0.048723	-0.161459
H56	H	0.454124	0.146060	-0.160037
H57	H	0.439948	-0.000532	-0.266938
H58	H	0.366941	0.054160	-0.157486
C59	C	0.571703	-0.209404	-0.337653
H60	H	0.612125	-0.129759	-0.306069
H61	H	0.597973	-0.279865	-0.405804
H62	H	0.528299	-0.172498	-0.405545
C63	C	0.570195	-0.204833	0.337543
H64	H	0.609882	-0.124388	0.304938
H65	H	0.526025	-0.168594	0.403694
H66	H	0.597090	-0.273116	0.407836
