data_functionalizedCrystal
_audit_creation_method	'MofGen! by Chris Wilmer'
_symmetry_space_group_name_H-M	'P1'
_symmetry_Int_Tables_number	1
_symmetry_cell_setting	triclinic
loop_
_symmetry_equiv_pos_as_xyz
  x,y,z
_cell_length_a	15.298068
_cell_length_b	21.295411
_cell_length_c	15.297327
_cell_angle_alpha	80.340511
_cell_angle_beta	69.203785
_cell_angle_gamma	80.283640
loop_
_atom_site_label
_atom_site_type_symbol
_atom_site_fract_x
_atom_site_fract_y
_atom_site_fract_z
Zn1	Zn	1.357840	-0.535240	0.124624
Zn2	Zn	1.330795	-0.445472	0.280147
Zn3	Zn	1.202290	-0.414411	0.151507
Zn4	Zn	1.175348	-0.535137	0.306987
O5	O	1.266568	-0.482565	0.215816
O6	O	1.484406	-0.536374	0.122772
O7	O	1.313705	-0.353259	0.263101
O8	O	1.245518	-0.417484	0.017784
O9	O	1.464536	-0.470422	0.237034
O10	O	1.359800	-0.506256	-0.001966
O11	O	1.219293	-0.330439	0.168589
O12	O	1.068563	-0.417384	0.194614
O13	O	1.199599	-0.623243	0.282779
O14	O	1.048769	-0.506081	0.308845
O15	O	1.333675	-0.623319	0.148797
O16	O	1.287581	-0.470322	0.413864
O17	O	1.173375	-0.536199	0.433583
C18	C	1.024919	-0.458351	0.257560
C19	C	0.921536	-0.448010	0.275441
C20	C	0.671437	-0.556503	0.088255
C21	C	0.768569	-0.566223	0.071458
C22	C	0.806816	-0.536671	0.122452
C23	C	0.747920	-0.497396	0.190246
C24	C	0.650777	-0.487679	0.207050
C25	C	0.786156	-0.467846	0.241247
C26	C	0.727260	-0.428572	0.309042
C27	C	0.630127	-0.418856	0.325842
C28	C	0.591880	-0.448409	0.274848
C29	C	0.883299	-0.477564	0.224443
C30	C	0.862639	-0.408740	0.343238
C31	C	0.765507	-0.399019	0.360035
C32	C	1.266649	-0.646761	0.215783
C33	C	1.266683	-0.716732	0.215769
C34	C	1.336495	-0.749638	0.146003
C35	C	1.336500	-0.815377	0.145963
C36	C	1.266702	-0.848209	0.215704
C37	C	1.196878	-0.815294	0.285477
C38	C	1.196869	-0.749555	0.285509
N39	N	1.245451	-0.958826	0.298301
N40	N	1.245466	-1.021275	0.298266
C41	C	1.266724	-1.046275	0.215609
N42	N	1.287985	-1.006468	0.132982
N43	N	1.287975	-0.944013	0.133017
C44	C	1.266703	-0.919491	0.215676
C45	C	1.336545	-1.150462	0.145793
C46	C	1.336545	-1.216201	0.145753
C47	C	1.196926	-1.216118	0.285274
C48	C	1.196923	-1.150379	0.285307
C49	C	1.266737	-1.117556	0.215567
C50	C	1.509161	-0.506874	0.173910
C51	C	1.612540	-0.517233	0.156053
C52	C	1.224645	-0.506636	0.457467
C53	C	1.206795	-0.516963	0.560832
C54	C	1.266553	-0.319006	0.215773
C55	C	1.266744	-0.249028	0.215494
C56	C	1.308681	-0.458417	-0.026782
C57	C	1.326627	-0.448126	-0.130163
C58	C	1.394529	-0.409009	0.810971
C59	C	1.411299	-0.399303	0.713855
C60	C	1.360175	-0.428717	0.675594
C61	C	1.292276	-0.467839	0.734459
C62	C	1.275499	-0.477542	0.831586
C63	C	1.241145	-0.497250	0.696209
C64	C	1.173247	-0.536372	0.755074
C65	C	1.156473	-0.546074	0.852190
C66	C	1.207597	-0.516659	0.890451
C67	C	1.257923	-0.487547	0.599082
C68	C	1.138893	-0.556080	0.619697
C69	C	1.122123	-0.565786	0.716813
H70	H	0.885907	-0.544585	0.108768
N71	N	1.125605	-1.116762	0.356569
N72	N	1.040855	-1.114874	0.365216
H73	H	0.990480	-1.091132	0.415546
N74	N	1.407847	-1.116920	0.074565
N75	N	1.461431	-1.089453	0.097069
H76	H	1.511788	-1.065764	0.046763
H77	H	1.066839	-0.597640	0.764755
H78	H	1.313206	-0.455694	0.551163
H79	H	1.373833	-0.420811	0.596518
H80	H	1.393393	-1.242992	0.088936
H81	H	0.717540	-0.367042	0.415235
N82	N	0.943441	-0.517671	0.155182
N83	N	0.947460	-0.503953	0.071231
H84	H	0.989936	-0.532280	0.022308
N85	N	1.480649	-0.359339	0.653744
N86	N	1.526289	-0.333079	0.687913
H87	H	1.575272	-0.304853	0.645459
H88	H	0.640286	-0.580565	0.046748
H89	H	1.436141	-0.385059	0.842134
H90	H	1.193949	-0.524562	0.969530
N91	N	1.125568	-0.715941	0.356790
N92	N	1.148001	-0.688457	0.410426
H93	H	1.097646	-0.664715	0.460770
H94	H	1.101175	-0.577921	0.900119
N95	N	1.086681	-0.586143	0.580625
N96	N	1.090949	-0.645926	0.590370
H97	H	1.054077	-0.667157	0.562771
N98	N	0.828711	-0.606346	0.002218
N99	N	0.794555	-0.632731	-0.043303
H100	H	0.837030	-0.661072	-0.092207
H101	H	1.393348	-0.842174	0.089146
N102	N	1.125570	-0.848828	0.356700
N103	N	1.071996	-0.876297	0.334183
H104	H	1.021629	-0.899980	0.384483
N105	N	0.492661	-0.438472	0.291993
N106	N	0.461883	-0.413824	0.226912
H107	H	0.391809	-0.406807	0.239018
N108	N	0.569976	-0.378747	0.395108
N109	N	0.604131	-0.352366	0.440635
H110	H	0.561651	-0.324040	0.489556
H111	H	0.893778	-0.384679	0.384766
H112	H	1.393342	-0.722917	0.089215
H113	H	1.140087	-1.242847	0.342051
