data_functionalizedCrystal
_audit_creation_method	'MofGen! by Chris Wilmer'
_symmetry_space_group_name_H-M	'P1'
_symmetry_Int_Tables_number	1
_symmetry_cell_setting	triclinic
loop_
_symmetry_equiv_pos_as_xyz
  x,y,z
_cell_length_a	14.560438
_cell_length_b	21.606444
_cell_length_c	21.606444
_cell_angle_alpha	60.001331
_cell_angle_beta	90.002037
_cell_angle_gamma	59.998837
loop_
_atom_site_label
_atom_site_type_symbol
_atom_site_fract_x
_atom_site_fract_y
_atom_site_fract_z
Zr1	Zr	0.884748	0.677445	-0.081194
O2	O	0.738090	0.806569	-0.180018
O3	O	0.929707	0.548325	-0.050902
O4	O	0.929696	0.677449	-0.180021
O5	O	0.738109	0.677441	0.050955
O6	O	1.080836	0.677448	-0.180020
O7	O	0.738102	0.677445	-0.050900
O8	O	1.080857	0.446469	0.050950
O9	O	0.738088	0.908420	-0.180015
O10	O	1.061675	0.601432	-0.037979
O11	O	0.948886	0.601430	0.038033
O12	O	0.948872	0.753457	-0.113987
O13	O	0.836084	0.753454	-0.037976
Zr14	Zr	1.125811	0.677437	0.081253
Zr15	Zr	1.125799	0.677444	-0.081192
Zr16	Zr	0.884760	0.677438	0.081251
Zr17	Zr	0.884745	0.839886	-0.081189
Zr18	Zr	1.125814	0.514997	0.081248
O19	O	1.080851	0.806557	0.050961
O20	O	1.080834	0.806567	-0.180015
O21	O	0.738107	0.806559	0.050959
O22	O	1.272469	0.548313	0.180077
O23	O	1.272451	0.548323	-0.050900
O24	O	0.929725	0.548316	0.180074
O25	O	1.272449	0.677442	-0.050896
O26	O	1.080863	0.677433	0.180080
O27	O	0.929723	0.677434	0.180078
O28	O	1.272457	0.677437	0.050958
O29	O	0.929692	0.908419	-0.180013
O30	O	1.080867	0.446464	0.180072
O31	O	1.272470	0.446463	0.180074
O32	O	1.272461	0.446468	0.050951
O33	O	0.738098	0.908414	-0.050892
O34	O	0.929702	0.908413	-0.050891
O35	O	1.061686	0.601426	0.114046
O36	O	1.174475	0.601428	0.038035
O37	O	1.061672	0.753453	-0.037974
O38	O	0.948884	0.753450	0.038038
C39	C	1.005283	0.474253	0.000023
C40	C	1.005284	0.405293	0.000021
C41	C	0.703761	0.677443	0.000027
C42	C	0.601428	0.677444	0.000026
C43	C	1.064156	0.372897	-0.039658
C44	C	1.064160	0.308097	-0.039653
C45	C	1.005284	0.275699	0.000027
C46	C	0.946411	0.308098	0.039710
C47	C	0.946414	0.372892	0.039709
C48	C	0.946397	0.046788	0.039717
C49	C	0.946396	-0.018009	0.039713
C50	C	1.064143	-0.018007	-0.039645
C51	C	1.064146	0.046787	-0.039646
C52	C	1.005278	0.079177	0.000040
C53	C	1.005276	0.149440	0.000035
C54	C	1.005279	0.205442	0.000028
C55	C	0.553348	0.677448	-0.056087
C56	C	0.457200	0.677442	-0.056083
C57	C	0.457219	0.677432	0.056152
C58	C	0.553370	0.677431	0.056150
C59	C	0.363632	0.626444	-0.097997
C60	C	0.315537	0.626463	-0.154121
C61	C	0.308884	0.677480	-0.229171
C62	C	0.350308	0.728499	-0.248110
C63	C	0.398392	0.728488	-0.191989
C64	C	0.405062	0.677450	-0.116931
C65	C	0.646934	0.728437	0.098057
C66	C	0.695016	0.728432	0.154175
C67	C	0.701667	0.677420	0.229228
C68	C	0.660230	0.626414	0.248166
C69	C	0.612149	0.626419	0.192048
C70	C	0.605505	0.677429	0.116996
C71	C	1.306798	0.677439	0.000032
C72	C	1.409130	0.677439	0.000032
C73	C	1.005264	0.677450	-0.203165
C74	C	1.005259	0.677453	-0.272128
C75	C	1.005276	0.880629	0.000036
C76	C	1.005275	0.949589	0.000038
C77	C	0.946377	0.756807	-0.344202
C78	C	0.946386	0.756805	-0.408997
C79	C	1.005272	0.677447	-0.401716
C80	C	1.064162	0.598086	-0.329634
C81	C	1.064158	0.598090	-0.264841
C82	C	1.064180	0.598071	-0.590937
C83	C	1.064176	0.598074	-0.655738
C84	C	0.946408	0.756786	-0.735093
C85	C	0.946404	0.756790	-0.670300
C86	C	1.005298	0.677430	-0.598224
C87	C	1.005289	0.677433	-0.527966
C88	C	1.005276	0.677443	-0.471972
C89	C	1.005295	0.677432	0.203224
C90	C	1.005300	0.677429	0.272186
C91	C	1.306801	0.474251	0.000025
C92	C	1.409135	0.405290	0.000024
C93	C	1.005298	0.474244	0.203217
C94	C	1.005304	0.405281	0.272178
C95	C	1.306816	0.474242	0.203220
C96	C	1.409155	0.405279	0.272181
C97	C	0.703743	0.880640	-0.203161
C98	C	0.601404	0.949604	-0.272122
C99	C	0.703758	0.880631	0.000034
C100	C	0.601424	0.949592	0.000035
C101	C	1.005261	0.880638	-0.203159
C102	C	1.005255	0.949601	-0.272119
C103	C	1.398311	0.372908	-0.039662
C104	C	1.494455	0.308121	-0.039679
C105	C	1.601422	0.275713	-0.000005
C106	C	1.612243	0.308102	0.039682
C107	C	1.516100	0.372892	0.039694
C108	C	1.064187	0.372893	0.344247
C109	C	1.064189	0.308104	0.409049
C110	C	1.005313	0.275700	0.401779
C111	C	0.946423	0.308094	0.329702
C112	C	0.946415	0.372886	0.264902
C113	C	1.516099	0.372894	0.264888
C114	C	1.612266	0.308104	0.329678
C115	C	1.601487	0.275696	0.401760
C116	C	1.494532	0.308087	0.409051
C117	C	1.398367	0.372880	0.344262
C118	C	0.494460	0.981996	-0.264829
C119	C	0.398292	1.046806	-0.329619
C120	C	0.409071	1.079218	-0.401701
C121	C	0.516027	1.046822	-0.408992
C122	C	0.612192	0.982018	-0.344203
C123	C	0.612248	0.981981	0.039714
C124	C	0.516104	1.046786	0.039713
C125	C	0.409137	1.079196	0.000037
C126	C	0.398316	1.046804	-0.039647
C127	C	0.494459	0.982005	-0.039650
C128	C	1.064142	0.981985	-0.264825
C129	C	1.064158	1.046775	-0.329614
C130	C	1.005280	1.079183	-0.401696
C131	C	0.946390	1.046793	-0.408989
C132	C	0.946382	0.982000	-0.344200
H133	H	1.112093	0.399275	-0.071973
H134	H	1.679698	0.222956	-0.000020
F135	F	0.883698	0.841272	-0.351960
H136	H	1.524928	0.399250	0.072015
F137	F	1.126813	0.947504	-0.188116
F138	F	0.883768	0.273597	0.321977
H139	H	0.699337	0.955598	0.072028
F140	F	0.482922	0.947536	-0.081880
F141	F	0.343203	0.782809	-0.327993
H142	H	0.641527	0.769974	0.036944
F143	F	0.726007	0.947545	-0.351976
H144	H	0.369064	0.584887	-0.036885
F145	F	0.883745	0.407345	0.188202
F146	F	1.126822	0.513609	-0.514236
F147	F	0.527644	1.081246	0.081954
H148	H	1.699348	0.281706	0.071983
F149	F	1.005297	1.148144	-0.470644
F150	F	1.126836	0.513628	-0.321886
H151	H	1.005328	0.222942	0.454550
F152	F	1.126874	0.273637	0.485751
F153	F	0.482962	0.947511	-0.188120
H154	H	1.311292	0.399239	0.350210
H155	H	0.898424	0.955640	-0.350150
H156	H	1.679800	0.222937	0.454509
F157	F	1.126833	1.081239	-0.321837
H158	H	0.898471	0.399270	0.072017
F159	F	0.306822	1.148161	0.000047
F160	F	1.126860	0.407367	0.352001
F161	F	0.527481	1.081325	-0.485713
H162	H	0.898480	0.281710	0.072022
H163	H	0.311214	1.073171	-0.323668
H164	H	0.898441	0.821423	-0.467681
F165	F	1.527596	0.407377	0.188179
F166	F	0.284465	1.081304	-0.081869
F167	F	1.726085	0.273640	0.321902
H168	H	0.898453	1.073190	-0.467687
F169	F	0.306713	1.148188	-0.470650
F170	F	1.126799	0.273635	-0.081898
F171	F	1.126803	0.081268	-0.081883
H172	H	1.485772	0.281691	0.467748
F173	F	1.126801	-0.052487	-0.081881
H174	H	0.898451	-0.044386	0.072027
H175	H	0.898468	0.073149	0.072035
F176	F	0.271454	0.572164	-0.133962
H177	H	0.898448	0.821411	-0.676235
H178	H	0.592476	0.677456	-0.101785
H179	H	1.485622	0.281757	-0.071996
F180	F	0.257693	0.677501	-0.288902
F181	F	0.442476	0.782781	-0.212141
H182	H	0.578410	0.584885	0.207473
F183	F	0.406064	0.677421	0.115878
F184	F	0.752829	0.677426	0.288951
F185	F	0.667303	0.572124	0.328045
F186	F	1.126855	0.513606	-0.647983
H187	H	0.728744	0.769973	0.138748
H188	H	1.112106	0.533471	-0.206154
F189	F	0.883730	0.841249	-0.811808
H190	H	1.311222	0.399293	-0.071979
