data_functionalizedCrystal
_audit_creation_method	'MofGen! by Chris Wilmer'
_symmetry_space_group_name_H-M	'P1'
_symmetry_Int_Tables_number	1
_symmetry_cell_setting	triclinic
loop_
_symmetry_equiv_pos_as_xyz
  x,y,z
_cell_length_a	14.519709
_cell_length_b	12.811457
_cell_length_c	11.295483
_cell_angle_alpha	91.289320
_cell_angle_beta	94.101713
_cell_angle_gamma	83.862789
loop_
_atom_site_label
_atom_site_type_symbol
_atom_site_fract_x
_atom_site_fract_y
_atom_site_fract_z
O1	O	0.127392	1.389256	0.051002
O2	O	0.138856	1.086035	0.018253
O3	O	-0.001040	1.245684	0.035506
O4	O	0.267289	1.229607	0.033749
O5	O	0.011228	1.231662	0.232042
O6	O	0.151125	1.072013	0.214789
O7	O	0.139661	1.375234	0.247537
Cu8	Cu	0.146513	1.222343	0.249108
Cu9	Cu	0.132004	1.238926	0.016682
O10	O	0.279557	1.215585	0.230284
C11	C	0.143972	1.040218	0.112330
C12	C	0.140927	0.924587	0.099842
C13	C	0.148563	0.692017	0.290663
C14	C	0.145701	0.583371	0.278935
C15	C	0.132336	0.598649	0.064661
C16	C	0.135197	0.707294	0.076388
C17	C	0.143312	0.753974	0.189393
C18	C	0.146180	0.862621	0.201120
C19	C	0.132808	0.877898	-0.013154
C20	C	0.129947	0.769252	-0.024882
C21	C	-0.029272	1.237924	0.133693
C22	C	-0.131674	1.235678	0.133452
C23	C	-0.506648	1.227414	0.132528
C24	C	-0.402318	1.229709	0.132785
C25	C	-0.319164	1.231546	0.132991
C26	C	-0.214828	1.233841	0.133246
C27	C	0.307789	1.223345	0.132094
C28	C	0.410190	1.225591	0.132329
C29	C	0.134545	1.421052	0.153458
C30	C	0.137589	1.536683	0.165938
N31	N	0.156717	1.210687	0.412585
N32	N	0.121793	1.250590	-0.146793
C33	C	0.048287	1.334497	0.675254
C34	C	0.056004	1.325696	0.798967
C35	C	0.179866	1.184279	0.783724
C36	C	0.172148	1.193080	0.660012
C37	C	0.106357	1.268193	0.605782
C38	C	0.098644	1.276998	0.482067
C39	C	0.222500	1.135577	0.466826
C40	C	0.230218	1.126776	0.590539
H41	H	0.149982	0.532928	0.361400
C42	C	0.121097	0.718768	-0.147670
C43	C	0.117095	0.796288	-0.233847
C44	C	0.108936	0.749826	-0.346974
H45	H	0.173342	0.668871	-0.157704
H46	H	0.066016	0.684574	-0.155923
H47	H	0.172169	0.830465	-0.225598
H48	H	0.064851	0.846190	-0.223852
H49	H	0.053855	0.715632	-0.355228
H50	H	0.161183	0.699930	-0.356996
H51	H	0.106211	0.802417	-0.405459
H52	H	0.155183	0.730022	0.382676
C53	C	0.123713	0.547865	-0.057991
C54	C	0.200856	0.474379	-0.072235
C55	C	0.192950	0.427584	-0.185210
H56	H	0.068708	0.513559	-0.066287
H57	H	0.121042	0.600281	-0.116674
H58	H	0.203517	0.421972	-0.013568
H59	H	0.255872	0.508658	-0.063962
H60	H	0.190280	0.479999	-0.243893
H61	H	0.137943	0.393284	-0.193496
H62	H	0.245294	0.377726	-0.194893
H63	H	0.283782	1.065618	0.634707
C64	C	0.251166	1.102562	0.842543
C65	C	0.233177	1.002327	0.801440
C66	C	0.298827	0.927020	0.855613
H67	H	0.311627	1.115272	0.823550
H68	H	0.247428	1.106749	0.926173
H69	H	0.236923	0.998143	0.717829
H70	H	0.172728	0.989583	0.820433
H71	H	0.295089	0.931207	0.939243
H72	H	0.359284	0.939740	0.836616
H73	H	0.286625	0.859002	0.827741
C74	C	0.154841	0.913467	0.323735
C75	C	0.077716	0.986983	0.337960
C76	C	0.085664	1.033850	0.450894
H77	H	0.157516	0.861123	0.382480
H78	H	0.209872	0.947752	0.331939
H79	H	0.022699	0.952698	0.329768
H80	H	0.075025	1.039347	0.279242
H81	H	0.140695	1.068136	0.459098
H82	H	0.088341	0.981499	0.509630
H83	H	0.033341	1.083743	0.460557
C84	C	0.027125	1.358574	0.423403
C85	C	-0.022096	1.414735	0.510728
C86	C	-0.087998	1.489881	0.456734
H87	H	0.057659	1.405529	0.379825
H88	H	-0.014738	1.324491	0.371128
H89	H	0.019762	1.448818	0.562982
H90	H	-0.052650	1.367809	0.554311
H91	H	-0.129862	1.455797	0.404459
H92	H	-0.057456	1.536829	0.413158
H93	H	-0.121408	1.527989	0.515974
H94	H	0.269788	1.081591	0.410247
H95	H	0.128538	0.928355	-0.095616
H96	H	-0.005277	1.395663	0.631100
H97	H	0.008717	1.379686	0.855529
