data_functionalizedCrystal
_audit_creation_method	'MofGen! by Chris Wilmer'
_symmetry_space_group_name_H-M	'P1'
_symmetry_Int_Tables_number	1
_symmetry_cell_setting	triclinic
loop_
_symmetry_equiv_pos_as_xyz
  x,y,z
_cell_length_a	18.101395
_cell_length_b	21.395362
_cell_length_c	21.395355
_cell_angle_alpha	89.956060
_cell_angle_beta	90.015727
_cell_angle_gamma	89.953017
loop_
_atom_site_label
_atom_site_type_symbol
_atom_site_fract_x
_atom_site_fract_y
_atom_site_fract_z
Zn1	Zn	-0.294602	-0.957858	0.354598
Zn2	Zn	-0.418425	-0.957760	0.249825
Zn3	Zn	-0.294636	-0.853073	0.249799
Zn4	Zn	-0.418440	-0.853041	0.354530
O5	O	-0.356526	-0.905433	0.302188
O6	O	-0.311006	-1.045523	0.340739
O7	O	-0.402012	-0.943845	0.162144
O8	O	-0.190998	-0.867027	0.263718
O9	O	-0.401979	-1.045450	0.263763
O10	O	-0.190973	-0.944012	0.340713
O11	O	-0.311065	-0.866932	0.162125
O12	O	-0.311080	-0.765391	0.263652
O13	O	-0.402005	-0.866973	0.442217
O14	O	-0.402038	-0.765367	0.340598
O15	O	-0.311021	-0.943982	0.442267
O16	O	-0.522060	-0.943814	0.263697
O17	O	-0.522071	-0.866878	0.340623
C18	C	-0.356565	-0.742645	0.302115
C19	C	-0.356599	-0.673004	0.302099
C20	C	-0.548936	-0.905349	0.302170
C21	C	-0.631250	-0.905370	0.302183
C22	C	-0.356511	-0.905485	0.465611
C23	C	-0.356504	-0.905507	0.535253
C24	C	-0.930341	-0.905508	0.302216
C25	C	-0.899054	-0.857214	0.350736
C26	C	-0.813436	-0.856985	0.350585
C27	C	-0.781959	-0.905440	0.302200
C28	C	-0.813100	-0.887557	0.236161
C29	C	-0.898745	-0.887246	0.236451
C30	C	-0.898667	-0.971790	0.319154
C31	C	-0.813017	-0.971400	0.320602
C32	C	-0.698099	-0.905402	0.302187
C33	C	-1.014201	-0.905544	0.302225
C34	C	-0.163364	-0.905534	0.302220
C35	C	-0.081050	-0.905577	0.302234
C36	C	-0.356487	-1.068856	0.302261
C37	C	-0.356470	-1.138497	0.302293
C38	C	-0.404024	-0.640295	0.342105
C39	C	-0.404006	-0.574860	0.342133
C40	C	-0.356571	-0.542136	0.302144
C41	C	-0.309137	-0.574852	0.262135
C42	C	-0.309151	-0.640286	0.262113
C43	C	-0.350605	-0.438411	0.245738
C44	C	-0.350596	-0.372978	0.245760
C45	C	-0.356523	-0.340315	0.302213
C46	C	-0.362474	-0.373093	0.358647
C47	C	-0.362488	-0.438527	0.358624
C48	C	-0.356550	-0.471183	0.302164
C49	C	-0.403930	-0.236654	0.342252
C50	C	-0.403907	-0.171217	0.342281
C51	C	-0.309042	-0.171211	0.262278
C52	C	-0.309061	-0.236646	0.262255
C53	C	-0.356509	-0.269364	0.302241
C54	C	-0.356487	-0.905417	0.139400
C55	C	-0.356285	-0.905516	0.069760
C56	C	-0.309127	-0.945603	0.567993
C57	C	-0.309095	-0.945603	0.633428
C58	C	-0.356454	-0.905512	0.666121
C59	C	-0.403834	-0.865408	0.633373
C60	C	-0.403859	-0.865405	0.567939
C61	C	-0.423137	-0.900536	0.769788
C62	C	-0.423113	-0.900542	0.835221
C63	C	-0.356375	-0.905516	0.867942
C64	C	-0.289660	-0.910495	0.835222
C65	C	-0.289685	-0.910493	0.769788
C66	C	-0.356431	-0.905510	0.737073
C67	C	-0.308960	-0.945613	0.971635
C68	C	-0.308927	-0.945608	1.037071
C69	C	-0.403672	-0.865416	1.037015
C70	C	-0.403699	-0.865418	0.971580
C71	C	-0.356344	-0.905520	0.938893
H72	H	-0.792380	-0.868173	0.399551
H73	H	-0.920221	-0.988093	0.366491
H74	H	-0.270342	-0.978259	1.063727
H75	H	-0.270396	-0.978263	0.945020
C76	C	-0.926913	-0.872118	0.417087
H77	H	-0.957869	-0.907930	0.415797
H78	H	-0.885965	-0.880097	0.443708
H79	H	-0.954137	-0.837504	0.432683
C80	C	-0.784242	-0.822792	0.216436
H81	H	-0.753224	-0.806564	0.248352
H82	H	-0.756898	-0.826537	0.178733
H83	H	-0.824807	-0.795314	0.210067
H84	H	-0.442283	-0.832771	0.944922
H85	H	-0.792710	-0.921625	0.199023
C86	C	-0.455987	-0.821306	0.531923
H87	H	-0.484193	-0.797432	0.560763
H88	H	-0.427682	-0.794021	0.506370
H89	H	-0.488261	-0.845267	0.506423
C90	C	-0.456176	-0.538869	0.386137
H91	H	-0.449368	-0.495213	0.380424
H92	H	-0.505920	-0.549540	0.376887
H93	H	-0.445415	-0.549646	0.428251
C94	C	-0.785859	-0.790618	0.335417
H95	H	-0.826999	-0.763694	0.329318
H96	H	-0.756723	-0.775570	0.369125
H97	H	-0.756849	-0.791646	0.298436
H98	H	-0.270415	-0.144568	0.229722
C99	C	-0.496495	-0.895063	0.871206
H100	H	-0.536243	-0.892088	0.842349
H101	H	-0.502994	-0.930967	0.896759
H102	H	-0.495524	-0.858741	0.896705
H103	H	-0.345775	-0.465000	0.199764
H104	H	-0.920654	-0.808383	0.339656
H105	H	-0.918801	-0.838794	0.222106
H106	H	-0.442225	-0.832767	1.063633
H107	H	-0.235316	-0.914546	0.861862
H108	H	-0.477468	-0.896318	0.743152
C109	C	-0.455931	-0.821312	0.669332
H110	H	-0.449137	-0.827061	0.712992
H111	H	-0.445109	-0.779219	0.658580
H112	H	-0.505693	-0.830460	0.658615
H113	H	-0.919443	-0.920895	0.199066
H114	H	-0.792661	-0.984886	0.369204
H115	H	-0.442562	-0.263294	0.374814
H116	H	-0.791584	-1.009286	0.287841
H117	H	-0.918897	-1.007771	0.283816
C118	C	-0.456207	-0.676281	0.386094
H119	H	-0.484444	-0.647425	0.409929
H120	H	-0.488438	-0.701756	0.362074
H121	H	-0.427924	-0.701857	0.413431
C122	C	-0.369023	-0.474581	0.420696
H123	H	-0.372546	-0.445761	0.454324
H124	H	-0.411952	-0.500072	0.419812
H125	H	-0.326588	-0.500146	0.426252
H126	H	-0.367299	-0.346500	0.404617
H127	H	-0.270446	-0.263278	0.229675
C128	C	-0.456087	-0.135237	0.386281
H129	H	-0.484353	-0.164096	0.410083
H130	H	-0.427814	-0.109762	0.413637
H131	H	-0.488302	-0.109661	0.362259
C132	C	-0.257032	-0.989706	0.532038
H133	H	-0.263834	-0.983966	0.488378
H134	H	-0.207273	-0.980563	0.542756
H135	H	-0.267861	-1.031801	0.542792
H136	H	-0.345754	-0.346295	0.199808
H137	H	-0.270530	-0.666918	0.229536
C138	C	-0.256960	-0.538859	0.218149
H139	H	-0.263748	-0.495203	0.223887
H140	H	-0.207220	-0.549634	0.227389
H141	H	-0.267730	-0.549527	0.176029
C142	C	-0.216305	-0.915960	0.733798
H143	H	-0.176551	-0.918918	0.762653
H144	H	-0.217265	-0.952275	0.708296
H145	H	-0.209821	-0.880048	0.708249
H146	H	-0.270511	-0.978253	0.660090
