data_functionalizedCrystal
_audit_creation_method	'MofGen! by Chris Wilmer'
_symmetry_space_group_name_H-M	'P1'
_symmetry_Int_Tables_number	1
_symmetry_cell_setting	triclinic
loop_
_symmetry_equiv_pos_as_xyz
  x,y,z
_cell_length_a	16.120530
_cell_length_b	16.120484
_cell_length_c	21.295411
_cell_angle_alpha	87.126946
_cell_angle_beta	92.913216
_cell_angle_gamma	90.167327
loop_
_atom_site_label
_atom_site_type_symbol
_atom_site_fract_x
_atom_site_fract_y
_atom_site_fract_z
Zn1	Zn	-1.254439	0.395645	-0.419035
Zn2	Zn	-1.004439	0.645645	-0.169035
Zn3	Zn	-0.754439	0.895645	0.080965
Zn4	Zn	-0.504439	1.145645	0.330965
Zn5	Zn	-1.247290	0.534696	-0.318814
Zn6	Zn	-0.997290	0.784696	-0.068814
Zn7	Zn	-0.747290	1.034696	0.181186
Zn8	Zn	-0.497290	1.284696	0.431186
Zn9	Zn	-1.115388	0.388602	-0.308193
Zn10	Zn	-0.865388	0.638602	-0.058193
Zn11	Zn	-0.615388	0.888602	0.191807
Zn12	Zn	-0.365388	1.138602	0.441807
Zn13	Zn	-1.108291	0.527598	-0.418459
Zn14	Zn	-0.858291	0.777598	-0.168459
Zn15	Zn	-0.608291	1.027598	0.081541
Zn16	Zn	-0.358291	1.277598	0.331541
O17	O	-1.181352	0.461636	-0.366125
O18	O	-0.931352	0.711636	-0.116125
O19	O	-0.681352	0.961636	0.133875
O20	O	-0.431352	1.211636	0.383875
O21	O	-1.369856	0.420009	-0.410426
O22	O	-1.119856	0.670009	-0.160426
O23	O	-0.869856	0.920009	0.089574
O24	O	-0.619856	1.170009	0.339574
O25	O	-1.229771	0.515339	-0.229316
O26	O	-0.979771	0.765339	0.020684
O27	O	-0.729771	1.015339	0.270684
O28	O	-0.479771	1.265339	0.520684
O29	O	-1.139795	0.273173	-0.318693
O30	O	-0.889795	0.523173	-0.068693
O31	O	-0.639795	0.773173	0.181307
O32	O	-0.389795	1.023173	0.431307
O33	O	-1.364604	0.522168	-0.336794
O34	O	-1.114604	0.772168	-0.086794
O35	O	-0.864604	1.022168	0.163206
O36	O	-0.614604	1.272168	0.413206
O37	O	-1.241955	0.278348	-0.400128
O38	O	-0.991955	0.528348	-0.150128
O39	O	-0.741955	0.778348	0.099872
O40	O	-0.491955	1.028348	0.349872
O41	O	-1.132863	0.408005	-0.221513
O42	O	-0.882863	0.658005	0.028487
O43	O	-0.632863	0.908005	0.278487
O44	O	-0.382863	1.158005	0.528487
O45	O	-0.998081	0.401123	-0.318134
O46	O	-0.748081	0.651123	-0.068134
O47	O	-0.498081	0.901123	0.181866
O48	O	-0.248081	1.151123	0.431866
O49	O	-1.127700	0.510072	-0.506625
O50	O	-0.877700	0.760072	-0.256625
O51	O	-0.627700	1.010072	-0.006625
O52	O	-0.377700	1.260072	0.243375
O53	O	-0.992867	0.503242	-0.399146
O54	O	-0.742867	0.753242	-0.149146
O55	O	-0.492867	1.003242	0.100854
O56	O	-0.242867	1.253242	0.350854
O57	O	-1.235074	0.413127	-0.507048
O58	O	-0.985074	0.663127	-0.257048
O59	O	-0.735074	0.913127	-0.007048
O60	O	-0.485074	1.163127	0.242952
O61	O	-1.222890	0.650118	-0.336236
O62	O	-0.972890	0.900118	-0.086236
O63	O	-0.722890	1.150118	0.163764
O64	O	-0.472890	1.400118	0.413764
O65	O	-1.120768	0.644904	-0.409445
O66	O	-0.870768	0.894904	-0.159445
O67	O	-0.620768	1.144904	0.090555
O68	O	-0.370768	1.394904	0.340555
C69	C	-0.965302	0.450649	-0.357425
C70	C	-0.715302	0.700649	-0.107425
C71	C	-0.465302	0.950649	0.142575
C72	C	-0.215302	1.200649	0.392575
C73	C	-0.872874	0.445968	-0.353719
C74	C	-0.622874	0.695968	-0.103719
C75	C	-0.372874	0.945968	0.146281
C76	C	-0.122874	1.195968	0.396281
C77	C	-1.170306	0.677684	-0.373945
C78	C	-0.920306	0.927684	-0.123945
C79	C	-0.670306	1.177684	0.126055
C80	C	-0.420306	1.427684	0.376055
C81	C	-1.165657	0.770114	-0.377314
C82	C	-0.915657	1.020114	-0.127314
C83	C	-0.665657	1.270114	0.122686
C84	C	-0.415657	1.520114	0.372686
C85	C	-1.181393	0.461593	-0.530315
C86	C	-0.931393	0.711593	-0.280315
C87	C	-0.681393	0.961593	-0.030315
C88	C	-0.431393	1.211593	0.219685
C89	C	-1.181410	0.461575	-0.600284
C90	C	-0.931410	0.711575	-0.350284
C91	C	-0.681410	0.961575	-0.100284
C92	C	-0.431410	1.211575	0.149716
C93	C	-1.398246	0.472666	-0.374859
C94	C	-1.148246	0.722666	-0.124859
C95	C	-0.898246	0.972666	0.125141
C96	C	-0.648246	1.222666	0.375141
C97	C	-1.490673	0.477366	-0.378581
C98	C	-1.240673	0.727366	-0.128581
C99	C	-0.990673	0.977366	0.121419
C100	C	-0.740673	1.227366	0.371419
C101	C	-0.703647	0.437404	-0.346958
C102	C	-0.453647	0.687404	-0.096958
C103	C	-0.203647	0.937404	0.153042
C104	C	0.046353	1.187404	0.403042
C105	C	-0.659894	0.485928	-0.385341
C106	C	-0.409894	0.735928	-0.135341
C107	C	-0.159894	0.985928	0.114659
C108	C	0.090106	1.235928	0.364659
C109	C	-0.565731	0.481163	-0.381579
C110	C	-0.315731	0.731163	-0.131579
C111	C	-0.065731	0.981163	0.118421
C112	C	0.184269	1.231163	0.368421
C113	C	-0.797819	0.442168	-0.350719
C114	C	-0.547819	0.692168	-0.100719
C115	C	-0.297819	0.942168	0.149281
C116	C	-0.047819	1.192168	0.399281
C117	C	-1.192464	0.244745	-0.358290
C118	C	-0.942464	0.494745	-0.108290
C119	C	-0.692464	0.744745	0.141710
C120	C	-0.442464	0.994745	0.391710
C121	C	-1.197199	0.152319	-0.354951
C122	C	-0.947199	0.402319	-0.104951
C123	C	-0.697199	0.652319	0.145049
C124	C	-0.447199	0.902319	0.395049
C125	C	-1.157173	0.939345	-0.383479
C126	C	-0.907173	1.189345	-0.133479
C127	C	-0.657173	1.439345	0.116521
C128	C	-0.407173	1.689345	0.366521
C129	C	-1.205680	0.983093	-0.348788
C130	C	-0.955680	1.233093	-0.098788
C131	C	-0.705680	1.483093	0.151212
C132	C	-0.455680	1.733093	0.401212
C133	C	-1.200960	1.077259	-0.352218
C134	C	-0.950960	1.327259	-0.102218
C135	C	-0.700960	1.577259	0.147782
C136	C	-0.450960	1.827259	0.397782
C137	C	-1.161892	0.845171	-0.380050
C138	C	-0.911892	1.095171	-0.130050
C139	C	-0.661892	1.345171	0.119950
C140	C	-0.411892	1.595171	0.369950
C141	C	-1.231972	0.517296	-1.103803
C142	C	-0.981972	0.767296	-0.853803
C143	C	-0.731972	1.017296	-0.603803
C144	C	-0.481972	1.267296	-0.353803
C145	C	-1.231955	0.517322	-1.038061
C146	C	-0.981955	0.767322	-0.788061
C147	C	-0.731955	1.017322	-0.538061
C148	C	-0.481955	1.267322	-0.288061
C149	C	-1.181495	0.461449	-1.001122
C150	C	-0.931495	0.711449	-0.751122
C151	C	-0.681495	0.961449	-0.501122
C152	C	-0.431495	1.211449	-0.251122
C153	C	-1.131032	0.405561	-1.029930
C154	C	-0.881032	0.655561	-0.779930
C155	C	-0.631032	0.905561	-0.529930
C156	C	-0.381032	1.155561	-0.279930
C157	C	-1.131043	0.405542	-1.095671
C158	C	-0.881043	0.655542	-0.845671
C159	C	-0.631043	0.905542	-0.595671
C160	C	-0.381043	1.155542	-0.345671
N161	N	-1.178827	0.388366	-0.895014
N162	N	-0.928827	0.638366	-0.645014
N163	N	-0.678827	0.888366	-0.395014
N164	N	-0.428827	1.138366	-0.145014
N165	N	-1.178820	0.388387	-0.832564
N166	N	-0.928820	0.638387	-0.582564
N167	N	-0.678820	0.888387	-0.332564
N168	N	-0.428820	1.138387	-0.082564
C169	C	-1.181456	0.461504	-0.803047
C170	C	-0.931456	0.711504	-0.553047
C171	C	-0.681456	0.961504	-0.303047
C172	C	-0.431456	1.211504	-0.053047
N173	N	-1.184114	0.534602	-0.838342
N174	N	-0.934114	0.784602	-0.588342
N175	N	-0.684114	1.034602	-0.338342
N176	N	-0.434114	1.284602	-0.088342
N177	N	-1.184124	0.534581	-0.900799
N178	N	-0.934124	0.784581	-0.650799
N179	N	-0.684124	1.034581	-0.400799
N180	N	-0.434124	1.284581	-0.150799
C181	C	-1.181476	0.461464	-0.929836
C182	C	-0.931476	0.711464	-0.679836
C183	C	-0.681476	0.961464	-0.429836
C184	C	-0.431476	1.211464	-0.179836
C185	C	-1.231894	0.517421	-0.702962
C186	C	-0.981894	0.767421	-0.452962
C187	C	-0.731894	1.017421	-0.202962
C188	C	-0.481894	1.267421	0.047038
C189	C	-1.231872	0.517447	-0.637218
C190	C	-0.981872	0.767447	-0.387218
C191	C	-0.731872	1.017447	-0.137218
C192	C	-0.481872	1.267447	0.112782
C193	C	-1.130953	0.405679	-0.629088
C194	C	-0.880953	0.655679	-0.379088
C195	C	-0.630953	0.905679	-0.129088
C196	C	-0.380953	1.155679	0.120912
C197	C	-1.130970	0.405659	-0.694831
C198	C	-0.880970	0.655659	-0.444831
C199	C	-0.630970	0.905659	-0.194831
C200	C	-0.380970	1.155659	0.055169
C201	C	-1.181445	0.461529	-0.731764
C202	C	-0.931445	0.711529	-0.481764
C203	C	-0.681445	0.961529	-0.231764
C204	C	-0.431445	1.211529	0.018236
C205	C	-1.181363	0.461620	-0.202573
C206	C	-0.931363	0.711620	0.047427
C207	C	-0.681363	0.961620	0.297427
C208	C	-0.431363	1.211620	0.547427
C209	C	-1.181518	0.461412	-0.132604
C210	C	-0.931518	0.711412	0.117396
C211	C	-0.681518	0.961412	0.367396
C212	C	-0.431518	1.211412	0.617396
H213	H	-0.670389	0.392287	-0.311274
H214	H	-0.420389	0.642287	-0.061274
H215	H	-0.170389	0.892287	0.188726
H216	H	0.079611	1.142287	0.438726
O217	O	-1.286291	0.577731	-0.606155
O218	O	-1.036291	0.827731	-0.356155
O219	O	-0.786291	1.077731	-0.106155
O220	O	-0.536291	1.327731	0.143845
H221	H	-1.277796	0.568368	-0.554235
H222	H	-1.027796	0.818368	-0.304235
H223	H	-0.777796	1.068368	-0.054235
H224	H	-0.527796	1.318368	0.195765
O225	O	-1.097463	0.983412	-0.426222
O226	O	-0.847463	1.233412	-0.176222
O227	O	-0.597463	1.483412	0.073778
O228	O	-0.347463	1.733412	0.323778
H229	H	-1.112495	0.967481	-0.475617
H230	H	-0.862495	1.217481	-0.225617
H231	H	-0.612495	1.467481	0.024383
H232	H	-0.362495	1.717481	0.274383
H233	H	-1.273053	0.562821	-1.014606
H234	H	-1.023053	0.812821	-0.764606
H235	H	-0.773053	1.062821	-0.514606
H236	H	-0.523053	1.312821	-0.264606
O237	O	-1.076613	0.345290	-0.990093
O238	O	-0.826613	0.595290	-0.740093
O239	O	-0.576613	0.845290	-0.490093
O240	O	-0.326613	1.095290	-0.240093
H241	H	-1.032400	0.380361	-0.959774
H242	H	-0.782400	0.630361	-0.709774
H243	H	-0.532400	0.880361	-0.459774
H244	H	-0.282400	1.130361	-0.209774
H245	H	-1.273070	0.562792	-1.133870
H246	H	-1.023070	0.812792	-0.883870
H247	H	-0.773070	1.062792	-0.633870
H248	H	-0.523070	1.312792	-0.383870
O249	O	-0.703946	0.545698	-0.432613
O250	O	-0.453946	0.795698	-0.182613
O251	O	-0.203946	1.045698	0.067387
O252	O	0.046054	1.295698	0.317387
H253	H	-0.683989	0.610116	-0.423447
H254	H	-0.433989	0.860116	-0.173447
H255	H	-0.183989	1.110116	0.076553
H256	H	0.066011	1.360116	0.326553
H257	H	-1.250754	0.949825	-0.316511
H258	H	-1.000754	1.199825	-0.066511
H259	H	-0.750754	1.449825	0.183489
H260	H	-0.500754	1.699825	0.433489
H261	H	-1.089957	0.360033	-1.119120
H262	H	-0.839957	0.610033	-0.869120
H263	H	-0.589957	0.860033	-0.619120
H264	H	-0.339957	1.110033	-0.369120
H265	H	-1.272992	0.562915	-0.733034
H266	H	-1.022992	0.812915	-0.483034
H267	H	-0.772992	1.062915	-0.233034
H268	H	-0.522992	1.312915	0.016966
O269	O	-1.076527	0.345411	-0.589258
O270	O	-0.826527	0.595411	-0.339258
O271	O	-0.576527	0.845411	-0.089258
O272	O	-0.326527	1.095411	0.160742
H273	H	-1.084998	0.354808	-0.538704
H274	H	-0.834998	0.604808	-0.288704
H275	H	-0.584998	0.854808	-0.038704
H276	H	-0.334998	1.104808	0.211296
H277	H	-1.089889	0.360149	-0.718280
H278	H	-0.839889	0.610149	-0.468280
H279	H	-0.589889	0.860149	-0.218280
H280	H	-0.339889	1.110149	0.031720
