data_functionalizedCrystal
_audit_creation_method	'MofGen! by Chris Wilmer'
_symmetry_space_group_name_H-M	'P1'
_symmetry_Int_Tables_number	1
_symmetry_cell_setting	triclinic
loop_
_symmetry_equiv_pos_as_xyz
  x,y,z
_cell_length_a	10.723024
_cell_length_b	12.996460
_cell_length_c	10.723024
_cell_angle_alpha	89.999097
_cell_angle_beta	84.467869
_cell_angle_gamma	90.005942
loop_
_atom_site_label
_atom_site_type_symbol
_atom_site_fract_x
_atom_site_fract_y
_atom_site_fract_z
O1	O	1.657192	0.085557	0.175019
O2	O	2.157192	0.585557	0.675019
O3	O	1.294040	0.085561	0.191772
O4	O	1.794040	0.585561	0.691772
O5	O	1.483993	0.085555	0.001819
O6	O	1.983993	0.585555	0.501819
O7	O	1.467240	0.085563	0.364972
O8	O	1.967240	0.585563	0.864972
O9	O	1.483968	-0.085579	0.001830
O10	O	1.983968	0.414421	0.501830
O11	O	1.294016	-0.085573	0.191783
O12	O	1.794016	0.414427	0.691783
O13	O	1.657168	-0.085576	0.175030
O14	O	2.157168	0.414424	0.675030
Cu15	Cu	1.475589	-0.101201	0.183407
Cu16	Cu	1.975589	0.398799	0.683407
Cu17	Cu	1.475619	0.101185	0.183394
Cu18	Cu	1.975619	0.601185	0.683394
O19	O	1.467215	-0.085571	0.364983
O20	O	1.967215	0.414429	0.864983
C21	C	1.247528	-0.000006	0.190558
C22	C	1.747528	0.499994	0.690558
C23	C	1.108974	-0.000005	0.186911
C24	C	1.608974	0.499995	0.686911
C25	C	1.033991	-0.000002	0.293198
C26	C	1.533991	0.499998	0.793198
C27	C	0.890788	-0.000000	0.289431
C28	C	1.390788	0.500000	0.789431
N29	N	1.475578	-0.243548	0.183416
N30	N	1.975578	0.256452	0.683416
C31	C	1.475584	-0.336654	0.183419
C32	C	1.975584	0.163346	0.683419
C33	C	1.475595	-0.453459	0.183411
C34	C	1.975595	0.046541	0.683411
C35	C	1.475611	-0.546557	0.183397
C36	C	1.975611	-0.046557	0.683397
C37	C	1.475624	-0.663370	0.183390
C38	C	1.975624	-0.163370	0.683390
C39	C	1.703680	-0.000008	0.176243
C40	C	2.203680	0.499992	0.676243
C41	C	1.842234	-0.000002	0.179891
C42	C	2.342234	0.499998	0.679891
C43	C	1.482762	-0.000011	-0.044675
C44	C	1.982762	0.499989	0.455325
C45	C	1.479114	-0.000007	-0.183229
C46	C	1.979114	0.499993	0.316771
N47	N	1.475640	0.243532	0.183376
N48	N	1.975640	0.743532	0.683376
C49	C	1.585401	-0.000006	-0.258212
C50	C	2.085401	0.499994	0.241788
C51	C	1.581634	-0.000003	-0.401415
C52	C	2.081634	0.499997	0.098585
C53	C	1.468447	-0.000003	0.411477
C54	C	1.968447	0.499997	0.911477
C55	C	1.472094	0.000000	0.550031
C56	C	1.972094	0.500000	1.050031
H57	H	1.067152	0.000020	0.093125
H58	H	1.567152	0.500020	0.593125
H59	H	1.385328	0.000001	-0.225051
H60	H	1.885328	0.500001	0.274949
H61	H	1.075814	-0.000006	0.386984
H62	H	1.575814	0.499994	0.886984
H63	H	1.679187	-0.000014	-0.216390
H64	H	2.179187	0.499986	0.283610
H65	H	1.672624	-0.000007	-0.465848
H66	H	2.172624	0.499993	0.034152
Cl67	Cl	0.791315	0.000011	0.429921
Cl68	Cl	1.291315	0.500011	0.929921
H69	H	1.381099	-0.000007	-0.385544
H70	H	1.881099	0.499993	0.114456
H71	H	0.906659	0.000002	0.088896
H72	H	1.406659	0.500002	0.588896
