data_functionalizedCrystal
_audit_creation_method	'MofGen! by Chris Wilmer'
_symmetry_space_group_name_H-M	'P1'
_symmetry_Int_Tables_number	1
_symmetry_cell_setting	triclinic
loop_
_symmetry_equiv_pos_as_xyz
  x,y,z
_cell_length_a	29.839135
_cell_length_b	29.839132
_cell_length_c	29.839125
_cell_angle_alpha	90.019925
_cell_angle_beta	89.984512
_cell_angle_gamma	89.952207
loop_
_atom_site_label
_atom_site_type_symbol
_atom_site_fract_x
_atom_site_fract_y
_atom_site_fract_z
Zn1	Zn	0.686708	0.178886	-0.254040
Zn2	Zn	1.020041	0.512219	0.079293
Zn3	Zn	1.353374	0.845553	0.412626
Zn4	Zn	0.686635	0.253998	-0.178907
Zn5	Zn	1.019968	0.587331	0.154426
Zn6	Zn	1.353301	0.920665	0.487759
Zn7	Zn	0.611590	0.178886	-0.178918
Zn8	Zn	0.944924	0.512219	0.154415
Zn9	Zn	1.278257	0.845553	0.487748
Zn10	Zn	0.611533	0.253993	-0.254004
Zn11	Zn	0.944866	0.587326	0.079329
Zn12	Zn	1.278200	0.920660	0.412662
O13	O	0.649116	0.216441	-0.216468
O14	O	0.982450	0.549774	0.116866
O15	O	1.315783	0.883107	0.450199
O16	O	0.749565	0.188852	-0.244084
O17	O	1.082898	0.522185	0.089249
O18	O	1.416232	0.855518	0.422582
O19	O	0.676673	0.244036	-0.116042
O20	O	1.010007	0.577370	0.217292
O21	O	1.343340	0.910703	0.550625
O22	O	0.621609	0.116019	-0.188903
O23	O	0.954943	0.449352	0.144430
O24	O	1.288276	0.782686	0.477763
O25	O	0.749512	0.244036	-0.188884
O26	O	1.082845	0.577370	0.144449
O27	O	1.416178	0.910703	0.477782
O28	O	0.676798	0.116019	-0.244095
O29	O	1.010131	0.449352	0.089238
O30	O	1.343464	0.782686	0.422572
O31	O	0.621539	0.188852	-0.116050
O32	O	0.954872	0.522185	0.217284
O33	O	1.288205	0.855519	0.550617
O34	O	0.548716	0.188847	-0.188868
O35	O	0.882049	0.522181	0.144465
O36	O	1.215382	0.855514	0.477798
O37	O	0.621512	0.244028	-0.316876
O38	O	0.954845	0.577361	0.016457
O39	O	1.288178	0.910694	0.349790
O40	O	0.548674	0.244028	-0.244033
O41	O	0.882007	0.577361	0.089300
O42	O	1.215340	0.910695	0.422633
O43	O	0.676742	0.188847	-0.316903
O44	O	1.010075	0.522180	0.016431
O45	O	1.343409	0.855514	0.349764
O46	O	0.676618	0.316865	-0.188849
O47	O	1.009951	0.650198	0.144484
O48	O	1.343285	0.983531	0.477817
O49	O	0.621441	0.316861	-0.244023
O50	O	0.954774	0.650194	0.089311
O51	O	1.288108	0.983527	0.422644
C52	C	0.532394	0.216437	-0.216448
C53	C	0.865727	0.549771	0.116885
C54	C	1.199061	0.883104	0.450218
C55	C	0.482459	0.216447	-0.216451
C56	C	0.815793	0.549780	0.116882
C57	C	1.149126	0.883113	0.450216
C58	C	0.649028	0.333163	-0.216441
C59	C	0.982361	0.666497	0.116893
C60	C	1.315694	0.999830	0.450226
C61	C	0.649031	0.383098	-0.216444
C62	C	0.982364	0.716431	0.116889
C63	C	1.315697	1.049765	0.450222
C64	C	0.172841	0.187750	-0.245252
C65	C	0.506174	0.521083	0.088081
C66	C	0.839508	0.854416	0.421414
C67	C	-0.014832	0.187753	-0.245265
C68	C	0.318501	0.521086	0.088068
C69	C	0.651835	0.854420	0.421401
O70	O	-0.039076	0.163344	-0.269732
O71	O	0.294258	0.496677	0.063601
O72	O	0.627591	0.830010	0.396935
N73	N	-0.038326	0.216441	-0.216484
N74	N	0.295008	0.549775	0.116849
N75	N	0.628341	0.883108	0.450183
C76	C	-0.014898	0.245129	-0.187696
C77	C	0.318435	0.578462	0.145638
C78	C	0.651769	0.911796	0.478971
O79	O	-0.039187	0.269527	-0.163212
O80	O	0.294146	0.602860	0.170121
O81	O	0.627480	0.936194	0.503454
C82	C	0.172774	0.245123	-0.187681
C83	C	0.506108	0.578457	0.145653
C84	C	0.839441	0.911790	0.478986
C85	C	0.196265	0.216436	-0.216467
C86	C	0.529599	0.549769	0.116866
C87	C	0.862932	0.883103	0.450200
C88	C	0.196332	0.159065	-0.274036
C89	C	0.529665	0.492398	0.059297
C90	C	0.862999	0.825731	0.392631
C91	C	0.243248	0.159066	-0.274034
C92	C	0.576581	0.492399	0.059299
C93	C	0.909914	0.825733	0.392632
C94	C	0.266672	0.187752	-0.245249
C95	C	0.600005	0.521086	0.088084
C96	C	0.933339	0.854419	0.421418
C97	C	0.243181	0.216437	-0.216465
C98	C	0.576514	0.549771	0.116868
C99	C	0.909847	0.883104	0.450201
C100	C	0.196201	0.273808	-0.158890
C101	C	0.529534	0.607141	0.174443
C102	C	0.862868	0.940475	0.507776
C103	C	0.243122	0.273803	-0.158888
C104	C	0.576455	0.607137	0.174445
C105	C	0.909789	0.940470	0.507778
C106	C	0.266613	0.245116	-0.187675
C107	C	0.599946	0.578450	0.145659
C108	C	0.933280	0.911783	0.478992
C109	C	0.313521	0.245125	-0.187678
C110	C	0.646854	0.578458	0.145655
C111	C	0.980187	0.911792	0.478988
N112	N	0.337014	0.216437	-0.216459
N113	N	0.670347	0.549770	0.116874
N114	N	1.003681	0.883103	0.450207
C115	C	0.313590	0.187750	-0.245245
C116	C	0.646923	0.521084	0.088089
C117	C	0.980256	0.854417	0.421422
C118	C	-0.113429	0.245130	-0.187706
C119	C	0.219905	0.578464	0.145627
C120	C	0.553238	0.911797	0.478961
C121	C	-0.160346	0.245133	-0.187710
C122	C	0.172987	0.578466	0.145623
C123	C	0.506320	0.911799	0.478957
C124	C	-0.160277	0.187756	-0.245279
C125	C	0.173056	0.521089	0.088054
C126	C	0.506389	0.854422	0.421387
C127	C	-0.113359	0.187756	-0.245277
C128	C	0.219975	0.521090	0.088056
C129	C	0.553308	0.854423	0.421390
C130	C	-0.089935	0.216442	-0.216487
C131	C	0.243398	0.549775	0.116846
C132	C	0.576732	0.883109	0.450180
C133	C	0.412116	0.187755	-0.245239
C134	C	0.745449	0.521089	0.088094
C135	C	1.078782	0.854422	0.421427
C136	C	0.459035	0.187760	-0.245236
C137	C	0.792369	0.521094	0.088097
C138	C	1.125702	0.854427	0.421430
C139	C	0.458962	0.245135	-0.187665
C140	C	0.792295	0.578469	0.145668
C141	C	1.125629	0.911802	0.479001
C142	C	0.412046	0.245132	-0.187670
C143	C	0.745380	0.578465	0.145663
C144	C	1.078713	0.911799	0.478997
C145	C	0.388624	0.216438	-0.216458
C146	C	0.721958	0.549772	0.116875
C147	C	1.055291	0.883105	0.450208
O148	O	0.337793	0.269518	-0.163221
O149	O	0.671126	0.602851	0.170113
O150	O	1.004460	0.936185	0.503446
O151	O	0.337887	0.163349	-0.269717
O152	O	0.671220	0.496682	0.063616
O153	O	1.004553	0.830015	0.396949
C154	C	0.125926	0.187749	-0.245254
C155	C	0.459259	0.521082	0.088079
C156	C	0.792592	0.854415	0.421412
C157	C	0.102434	0.216434	-0.216471
C158	C	0.435768	0.549767	0.116863
C159	C	0.769101	0.883100	0.450196
C160	C	0.125859	0.245120	-0.187685
C161	C	0.459192	0.578453	0.145648
C162	C	0.792525	0.911787	0.478981
C163	C	0.055517	0.216436	-0.216475
C164	C	0.388850	0.549769	0.116859
C165	C	0.722183	0.883102	0.450192
C166	C	0.032092	0.187749	-0.245260
C167	C	0.365426	0.521083	0.088073
C168	C	0.698759	0.854416	0.421406
C169	C	0.055586	0.159061	-0.274041
C170	C	0.388919	0.492394	0.059292
C171	C	0.722252	0.825728	0.392625
C172	C	0.102501	0.159062	-0.274040
C173	C	0.435835	0.492396	0.059294
C174	C	0.769168	0.825729	0.392627
C175	C	0.102365	0.273808	-0.158904
C176	C	0.435699	0.607142	0.174429
C177	C	0.769032	0.940475	0.507763
C178	C	0.055450	0.273805	-0.158909
C179	C	0.388783	0.607138	0.174425
C180	C	0.722116	0.940472	0.507758
C181	C	0.032025	0.245119	-0.187694
C182	C	0.365359	0.578452	0.145639
C183	C	0.698692	0.911785	0.478973
C184	C	0.677867	0.692730	-0.187762
C185	C	1.011201	1.026064	0.145571
C186	C	1.344534	1.359397	0.478904
C187	C	0.677910	0.880404	-0.187773
C188	C	1.011244	1.213737	0.145561
C189	C	1.344577	1.547070	0.478894
O190	O	0.702380	0.904659	-0.163378
O191	O	1.035713	1.237993	0.169955
O192	O	1.369047	1.571326	0.503288
N193	N	0.649164	0.903883	-0.216475
N194	N	0.982497	1.237216	0.116858
N195	N	1.315830	1.570550	0.450192
C196	C	0.620406	0.880441	-0.245179
C197	C	0.953739	1.213774	0.088155
C198	C	1.287073	1.547108	0.421488
O199	O	0.595960	0.904718	-0.269595
O200	O	0.929293	1.238051	0.063738
O201	O	1.262626	1.571385	0.397071
C202	C	0.620366	0.692769	-0.245171
C203	C	0.953699	1.026102	0.088163
C204	C	1.287033	1.359436	0.421496
C205	C	0.649111	0.669292	-0.216463
C206	C	0.982445	1.002625	0.116870
C207	C	1.315778	1.335959	0.450204
C208	C	0.706611	0.669254	-0.159058
C209	C	1.039944	1.002587	0.174276
C210	C	1.373277	1.335920	0.507609
C211	C	0.706598	0.622338	-0.159054
C212	C	1.039931	0.955671	0.174280
C213	C	1.373265	1.289005	0.507613
C214	C	0.677842	0.598900	-0.187754
C215	C	1.011175	0.932233	0.145579
C216	C	1.344509	1.265566	0.478912
C217	C	0.649098	0.622377	-0.216459
C218	C	0.982432	0.955710	0.116874
C219	C	1.315765	1.289043	0.450208
C220	C	0.591611	0.669328	-0.273876
C221	C	0.924944	1.002661	0.059457
C222	C	1.258278	1.335995	0.392790
C223	C	0.591604	0.622407	-0.273873
C224	C	0.924938	0.955740	0.059461
C225	C	1.258271	1.289074	0.392794
C226	C	0.620350	0.598930	-0.245165
C227	C	0.953683	0.932263	0.088168
C228	C	1.287016	1.265597	0.421501
C229	C	0.620330	0.552023	-0.245156
C230	C	0.953663	0.885356	0.088177
C231	C	1.286996	1.218689	0.421511
N232	N	0.649076	0.528543	-0.216454
N233	N	0.982410	0.861877	0.116880
N234	N	1.315743	1.195210	0.450213
C235	C	0.677832	0.551982	-0.187753
C236	C	1.011166	0.885315	0.145581
C237	C	1.344499	1.218648	0.478914
C238	C	0.620429	0.978972	-0.245180
C239	C	0.953762	1.312305	0.088153
C240	C	1.287095	1.645638	0.421486
C241	C	0.620438	1.025890	-0.245182
C242	C	0.953771	1.359223	0.088151
C243	C	1.287105	1.692556	0.421485
C244	C	0.677943	1.025849	-0.187776
C245	C	1.011276	1.359182	0.145557
C246	C	1.344610	1.692515	0.478890
C247	C	0.677931	0.978930	-0.187773
C248	C	1.011264	1.312263	0.145561
C249	C	1.344598	1.645597	0.478894
C250	C	0.649175	0.955492	-0.216478
C251	C	0.982509	1.288826	0.116855
C252	C	1.315842	1.622159	0.450189
C253	C	0.677803	0.453456	-0.187746
C254	C	1.011137	0.786789	0.145587
C255	C	1.344470	1.120123	0.478920
C256	C	0.677787	0.406536	-0.187744
C257	C	1.011120	0.739870	0.145590
C258	C	1.344453	1.073203	0.478923
C259	C	0.620284	0.406581	-0.245151
C260	C	0.953617	0.739915	0.088182
C261	C	1.286950	1.073248	0.421516
C262	C	0.620298	0.453497	-0.245152
C263	C	0.953632	0.786830	0.088181
C264	C	1.286965	1.120163	0.421515
C265	C	0.649062	0.476933	-0.216448
C266	C	0.982395	0.810266	0.116885
C267	C	1.315729	1.143600	0.450218
O268	O	0.595876	0.527738	-0.269541
O269	O	0.929210	0.861071	0.063792
O270	O	1.262543	1.194405	0.397126
O271	O	0.702282	0.527697	-0.163347
O272	O	1.035616	0.861030	0.169986
O273	O	1.368949	1.194363	0.503320
C274	C	0.677880	0.739646	-0.187766
C275	C	1.011213	1.072979	0.145567
C276	C	1.344547	1.406313	0.478900
C277	C	0.649137	0.763123	-0.216471
C278	C	0.982470	1.096456	0.116862
C279	C	1.315803	1.429790	0.450196
C280	C	0.620381	0.739684	-0.245172
C281	C	0.953714	1.073018	0.088161
C282	C	1.287047	1.406351	0.421495
C283	C	0.649146	0.810041	-0.216473
C284	C	0.982479	1.143374	0.116861
C285	C	1.315813	1.476707	0.450194
C286	C	0.677902	0.833479	-0.187772
C287	C	1.011236	1.166813	0.145561
C288	C	1.344569	1.500146	0.478895
C289	C	0.706649	0.810000	-0.159070
C290	C	1.039982	1.143333	0.174264
C291	C	1.373316	1.476667	0.507597
C292	C	0.706636	0.763084	-0.159066
C293	C	1.039969	1.096418	0.174268
C294	C	1.373303	1.429751	0.507601
C295	C	0.591634	0.763164	-0.273874
C296	C	0.924967	1.096497	0.059459
C297	C	1.258301	1.429830	0.392792
C298	C	0.591649	0.810079	-0.273875
C299	C	0.924982	1.143413	0.059458
C300	C	1.258315	1.476746	0.392791
C301	C	0.620405	0.833518	-0.245175
C302	C	0.953738	1.166851	0.088159
C303	C	1.287071	1.500184	0.421492
C304	C	0.766295	0.216445	-0.216487
C305	C	1.099628	0.549778	0.116846
C306	C	1.432961	0.883111	0.450180
C307	C	0.816229	0.216446	-0.216495
C308	C	1.149563	0.549780	0.116838
C309	C	1.482896	0.883113	0.450171
C310	C	0.649129	0.216437	-0.333646
C311	C	0.982462	0.549770	-0.000313
C312	C	1.315795	0.883103	0.333021
C313	C	0.649134	0.216435	-0.383580
C314	C	0.982467	0.549768	-0.050247
C315	C	1.315800	0.883102	0.283086
C316	C	0.649201	1.099262	-0.216495
C317	C	0.982534	1.432596	0.116839
C318	C	1.315868	1.765929	0.450172
C319	C	0.649194	1.049328	-0.216481
C320	C	0.982528	1.382661	0.116852
C321	C	1.315861	1.715995	0.450185
C322	C	0.677923	0.187627	-0.693241
C323	C	1.011256	0.520961	-0.359907
C324	C	1.344589	0.854294	-0.026574
C325	C	0.677945	0.187589	-0.880914
C326	C	1.011278	0.520922	-0.547581
C327	C	1.344611	0.854256	-0.214247
O328	O	0.702389	0.163138	-0.905193
O329	O	1.035722	0.496471	-0.571860
O330	O	1.369055	0.829805	-0.238526
N331	N	0.649193	0.216315	-0.904366
N332	N	0.982527	0.549648	-0.571032
N333	N	1.315860	0.882981	-0.237699
C334	C	0.620432	0.245050	-0.880896
C335	C	0.953766	0.578383	-0.547563
C336	C	1.287099	0.911717	-0.214230
O337	O	0.595975	0.269479	-0.905150
O338	O	0.929308	0.602812	-0.571817
O339	O	1.262641	0.936146	-0.238483
C340	C	0.620408	0.245086	-0.693224
C341	C	0.953741	0.578419	-0.359891
C342	C	1.287075	0.911753	-0.026557
C343	C	0.649165	0.216361	-0.669775
C344	C	0.982498	0.549695	-0.336441
C345	C	1.315831	0.883028	-0.003108
C346	C	0.706676	0.158905	-0.669791
C347	C	1.040010	0.492238	-0.336458
C348	C	1.373343	0.825571	-0.003125
C349	C	0.706672	0.158916	-0.622876
C350	C	1.040006	0.492250	-0.289542
C351	C	1.373339	0.825583	0.043791
C352	C	0.677914	0.187650	-0.599410
C353	C	1.011248	0.520984	-0.266076
C354	C	1.344581	0.854317	0.067257
C355	C	0.649160	0.216373	-0.622859
C356	C	0.982494	0.549706	-0.289526
C357	C	1.315827	0.883040	0.043807
C358	C	0.591645	0.273819	-0.669756
C359	C	0.924978	0.607152	-0.336422
C360	C	1.258312	0.940485	-0.003089
C361	C	0.591641	0.273824	-0.622835
C362	C	0.924974	0.607158	-0.289501
C363	C	1.258307	0.940491	0.043832
C364	C	0.620397	0.245100	-0.599385
C365	C	0.953731	0.578433	-0.266052
C366	C	1.287064	0.911766	0.067281
C367	C	0.620398	0.245119	-0.552478
C368	C	0.953732	0.578452	-0.219144
C369	C	1.287065	0.911785	0.114189
N370	N	0.649150	0.216393	-0.529026
N371	N	0.982483	0.549726	-0.195693
N372	N	1.315816	0.883059	0.137641
C373	C	0.677908	0.187659	-0.552492
C374	C	1.011241	0.520992	-0.219159
C375	C	1.344574	0.854325	0.114175
C376	C	0.620448	0.245030	-0.979427
C377	C	0.953781	0.578363	-0.646094
C378	C	1.287114	0.911697	-0.312760
C379	C	0.620454	0.245022	-1.026345
C380	C	0.953788	0.578355	-0.693012
C381	C	1.287121	0.911688	-0.359678
C382	C	0.677966	0.187560	-1.026359
C383	C	1.011300	0.520893	-0.693026
C384	C	1.344633	0.854226	-0.359692
C385	C	0.677962	0.187571	-0.979440
C386	C	1.011295	0.520904	-0.646107
C387	C	1.344628	0.854237	-0.312774
C388	C	0.649199	0.216304	-0.955975
C389	C	0.982532	0.549637	-0.622642
C390	C	1.315866	0.882971	-0.289309
C391	C	0.677897	0.187685	-0.453966
C392	C	1.011230	0.521019	-0.120633
C393	C	1.344564	0.854352	0.212701
C394	C	0.677892	0.187701	-0.407046
C395	C	1.011225	0.521034	-0.073713
C396	C	1.344558	0.854368	0.259620
C397	C	0.620378	0.245161	-0.407036
C398	C	0.953712	0.578494	-0.073703
C399	C	1.287045	0.911828	0.259630
C400	C	0.620385	0.245147	-0.453952
C401	C	0.953718	0.578481	-0.120618
C402	C	1.287052	0.911814	0.212715
C403	C	0.649146	0.216406	-0.477416
C404	C	0.982479	0.549739	-0.144082
C405	C	1.315813	0.883073	0.189251
O406	O	0.595964	0.269553	-0.528170
O407	O	0.929297	0.602887	-0.194836
O408	O	1.262631	0.936220	0.138497
O409	O	0.702355	0.163226	-0.528230
O410	O	1.035688	0.496560	-0.194897
O411	O	1.369021	0.829893	0.138436
C412	C	0.677927	0.187616	-0.740156
C413	C	1.011260	0.520949	-0.406823
C414	C	1.344593	0.854282	-0.073490
C415	C	0.649173	0.216338	-0.763606
C416	C	0.982506	0.549671	-0.430272
C417	C	1.315840	0.883005	-0.096939
C418	C	0.620415	0.245072	-0.740140
C419	C	0.953748	0.578406	-0.406806
C420	C	1.287082	0.911739	-0.073473
C421	C	0.649179	0.216330	-0.810524
C422	C	0.982513	0.549663	-0.477190
C423	C	1.315846	0.882997	-0.143857
C424	C	0.677937	0.187596	-0.833990
C425	C	1.011271	0.520929	-0.500656
C426	C	1.344604	0.854262	-0.167323
C427	C	0.706689	0.158870	-0.810538
C428	C	1.040022	0.492203	-0.477204
C429	C	1.373355	0.825536	-0.143871
C430	C	0.706685	0.158881	-0.763622
C431	C	1.040018	0.492215	-0.430289
C432	C	1.373351	0.825548	-0.096956
C433	C	0.591664	0.273798	-0.763592
C434	C	0.924997	0.607131	-0.430258
C435	C	1.258330	0.940465	-0.096925
C436	C	0.591670	0.273785	-0.810507
C437	C	0.925004	0.607118	-0.477174
C438	C	1.258337	0.940451	-0.143840
C439	C	0.620428	0.245050	-0.833973
C440	C	0.953762	0.578384	-0.500640
C441	C	1.287095	0.911717	-0.167306
C442	C	0.649130	0.216412	-0.099745
C443	C	0.982464	0.549746	0.233588
C444	C	1.315797	0.883079	0.566922
C445	C	0.649212	0.216288	-0.049811
C446	C	0.982545	0.549621	0.283522
C447	C	1.315879	0.882954	0.616856
H448	H	0.478160	0.164399	-0.268679
H449	H	0.811493	0.497733	0.064654
H450	H	1.144826	0.831066	0.397988
H451	H	0.730106	0.135475	-0.829652
H452	H	1.063439	0.468808	-0.496319
H453	H	1.396773	0.802142	-0.162985
O454	O	0.268387	0.304742	-0.127835
O455	O	0.601720	0.638076	0.205498
O456	O	0.935054	0.971409	0.538832
H457	H	0.259357	0.340014	-0.135474
H458	H	0.592691	0.673347	0.197859
H459	H	0.926024	1.006680	0.531192
O460	O	-0.088023	0.156813	-0.276323
O461	O	0.245310	0.490147	0.057011
O462	O	0.578643	0.823480	0.390344
H463	H	-0.066636	0.133926	-0.256256
H464	H	0.266697	0.467259	0.077077
H465	H	0.600031	0.800593	0.410411
O466	O	0.589369	0.276130	-0.479244
O467	O	0.922703	0.609463	-0.145911
O468	O	1.256036	0.942796	0.187422
H469	H	0.566533	0.256012	-0.500616
H470	H	0.899867	0.589346	-0.167282
H471	H	1.233200	0.922679	0.166051
H472	H	0.036505	0.135705	-0.297481
H473	H	0.369839	0.469038	0.035852
H474	H	0.703172	0.802372	0.369186
H475	H	0.036327	0.297170	-0.135468
H476	H	0.369661	0.630503	0.197865
H477	H	0.702994	0.963837	0.531199
H478	H	0.597011	0.959892	-0.268556
H479	H	0.930345	1.293225	0.064777
H480	H	1.263678	1.626559	0.398110
H481	H	-0.179357	0.164399	-0.268718
H482	H	0.153976	0.497732	0.064616
H483	H	0.487309	0.831065	0.397949
H484	H	0.701377	0.164180	-0.960351
H485	H	1.034710	0.497513	-0.627018
H486	H	1.368044	0.830846	-0.293684
O487	O	0.737671	0.835290	-0.128123
O488	O	1.071005	1.168623	0.205210
O489	O	1.404338	1.501956	0.538544
H490	H	0.717589	0.856705	-0.105252
H491	H	1.050923	1.190038	0.228081
H492	H	1.384256	1.523371	0.561415
O493	O	0.127628	0.304749	-0.127855
O494	O	0.460961	0.638083	0.205478
O495	O	0.794294	0.971416	0.538812
H496	H	0.103405	0.324697	-0.107846
H497	H	0.436738	0.658030	0.225487
H498	H	0.770071	0.991364	0.558821
H499	H	0.597043	0.268417	-1.045434
H500	H	0.930376	0.601750	-0.712100
H501	H	1.263709	0.935084	-0.378767
H502	H	-0.179469	0.268497	-0.164274
H503	H	0.153864	0.601831	0.169059
H504	H	0.487198	0.935164	0.502392
O505	O	0.560640	0.835395	-0.304842
O506	O	0.893973	1.168728	0.028492
O507	O	1.227307	1.502061	0.361825
H508	H	0.537797	0.856802	-0.284718
H509	H	0.871131	1.190135	0.048616
H510	H	1.204464	1.523469	0.381949
O511	O	0.589288	0.478824	-0.276105
O512	O	0.922622	0.812158	0.057228
O513	O	1.255955	1.145491	0.390562
H514	H	0.609383	0.500171	-0.298982
H515	H	0.942717	0.833504	0.034351
H516	H	1.276050	1.166837	0.367684
H517	H	-0.094361	0.268491	-0.164260
H518	H	0.238972	0.601825	0.169073
H519	H	0.572305	0.935158	0.502406
O520	O	0.170870	0.304743	-0.127836
O521	O	0.504204	0.638076	0.205498
O522	O	0.837537	0.971410	0.538831
H523	H	0.195048	0.324681	-0.107816
H524	H	0.528382	0.658014	0.225517
H525	H	0.861715	0.991347	0.558851
H526	H	0.701310	0.164310	-0.387956
H527	H	1.034644	0.497643	-0.054623
H528	H	1.367977	0.830976	0.278711
H529	H	0.597026	0.268431	-0.960326
H530	H	0.930359	0.601765	-0.626993
H531	H	1.263693	0.935098	-0.293659
O532	O	0.560623	0.304795	-0.695041
O533	O	0.893956	0.638128	-0.361708
O534	O	1.227290	0.971461	-0.028375
H535	H	0.540622	0.324768	-0.670834
H536	H	0.873956	0.658101	-0.337501
H537	H	1.207289	0.991434	-0.004168
O538	O	0.386705	0.276073	-0.156624
O539	O	0.720038	0.609406	0.176709
O540	O	1.053372	0.942739	0.510042
H541	H	0.410878	0.296019	-0.136607
H542	H	0.744211	0.629352	0.196727
H543	H	1.077544	0.962685	0.530060
O544	O	0.484230	0.276071	-0.156615
O545	O	0.817564	0.609404	0.176719
O546	O	1.150897	0.942738	0.510052
H547	H	0.520801	0.271244	-0.161447
H548	H	0.854134	0.604578	0.171886
H549	H	1.187468	0.937911	0.505219
H550	H	0.596966	0.268557	-0.387922
H551	H	0.930299	0.601890	-0.054588
H552	H	1.263632	0.935224	0.278745
O553	O	0.560607	0.737886	-0.304822
O554	O	0.893941	1.071219	0.028512
O555	O	1.227274	1.404553	0.361845
H556	H	0.540618	0.762099	-0.324773
H557	H	0.873951	1.095432	0.008560
H558	H	1.207284	1.428766	0.341893
H559	H	0.121624	0.135702	-0.297480
H560	H	0.454957	0.469035	0.035853
H561	H	0.788290	0.802369	0.369186
H562	H	0.701195	0.387423	-0.164365
H563	H	1.034528	0.720756	0.168968
H564	H	1.367861	1.054090	0.502302
H565	H	0.701382	0.164164	-1.045473
H566	H	1.034716	0.497497	-0.712140
H567	H	1.368049	0.830830	-0.378806
O568	O	0.560612	0.304810	-0.597525
O569	O	0.893945	0.638143	-0.264191
O570	O	1.227278	0.971477	0.069142
H571	H	0.540619	0.324780	-0.621716
H572	H	0.873952	0.658113	-0.288383
H573	H	1.207285	0.991446	0.044951
O574	O	0.708920	0.156691	-0.479271
O575	O	1.042254	0.490024	-0.145937
O576	O	1.375587	0.823357	0.187396
H577	H	0.728915	0.136726	-0.455076
H578	H	1.062248	0.470059	-0.121743
H579	H	1.395582	0.803393	0.211590
H580	H	0.701226	0.472532	-0.164374
H581	H	1.034559	0.805865	0.168959
H582	H	1.367893	1.139199	0.502293
O583	O	0.737608	0.597019	-0.128097
O584	O	1.070942	0.930352	0.205236
O585	O	1.404275	1.263685	0.538569
H586	H	0.757608	0.621205	-0.108148
H587	H	1.090941	0.954539	0.225186
H588	H	1.424275	1.287872	0.558519
H589	H	0.262370	0.135705	-0.297474
H590	H	0.595703	0.469039	0.035859
H591	H	0.929037	0.802372	0.369192
H592	H	0.730101	0.135491	-0.744534
H593	H	1.063434	0.468824	-0.411200
H594	H	1.396768	0.802157	-0.077867
H595	H	0.701357	1.044940	-0.164407
H596	H	1.034691	1.378274	0.168926
H597	H	1.368024	1.711607	0.502260
O598	O	0.560650	0.304765	-0.835798
O599	O	0.893983	0.638099	-0.502464
O600	O	1.227317	0.971432	-0.169131
H601	H	0.540650	0.324742	-0.811593
H602	H	0.873983	0.658075	-0.478260
H603	H	1.207316	0.991409	-0.144927
O604	O	0.737688	0.127932	-0.597589
O605	O	1.071021	0.461265	-0.264256
O606	O	1.404355	0.794599	0.069078
H607	H	0.717600	0.105079	-0.576212
H608	H	1.050933	0.438412	-0.242878
H609	H	1.384267	0.771746	0.090455
O610	O	0.737626	0.694530	-0.128096
O611	O	1.070959	1.027864	0.205237
O612	O	1.404292	1.361197	0.538570
H613	H	0.757605	0.670316	-0.108137
H614	H	1.090938	1.003649	0.225197
H615	H	1.424272	1.336982	0.558530
H616	H	0.730095	0.135503	-0.688892
H617	H	1.063428	0.468837	-0.355559
H618	H	1.396761	0.802170	-0.022226
O619	O	0.560630	0.304777	-0.738284
O620	O	0.893963	0.638110	-0.404951
O621	O	1.227296	0.971443	-0.071617
H622	H	0.540637	0.324743	-0.762478
H623	H	0.873970	0.658076	-0.429145
H624	H	1.207303	0.991410	-0.095811
H625	H	0.701338	0.959818	-0.164397
H626	H	1.034671	1.293151	0.168936
H627	H	1.368005	1.626485	0.502270
H628	H	0.177265	0.135702	-0.297477
H629	H	0.510598	0.469036	0.035857
H630	H	0.843932	0.802369	0.369190
O631	O	0.386856	0.156811	-0.276291
O632	O	0.720189	0.490144	0.057042
O633	O	1.053523	0.823478	0.390376
H634	H	0.411079	0.136870	-0.296306
H635	H	0.744413	0.470204	0.037027
H636	H	1.077746	0.803537	0.370360
O637	O	0.589430	1.051211	-0.276139
O638	O	0.922763	1.384544	0.057194
O639	O	1.256096	1.717878	0.390528
H640	H	0.597111	1.042186	-0.311405
H641	H	0.930444	1.375519	0.021928
H642	H	1.263777	1.708853	0.355262
O643	O	0.560610	0.694643	-0.304843
O644	O	0.893943	1.027977	0.028491
O645	O	1.227276	1.361310	0.361824
H646	H	0.540620	0.670455	-0.324801
H647	H	0.873954	1.003789	0.008532
H648	H	1.207287	1.337122	0.341866
O649	O	0.560582	0.597130	-0.304830
O650	O	0.893915	0.930464	0.028503
O651	O	1.227249	1.263797	0.361837
H652	H	0.568261	0.606116	-0.340097
H653	H	0.901594	0.939449	-0.006764
H654	H	1.234928	1.272782	0.326570
O655	O	0.589271	0.381297	-0.276108
O656	O	0.922604	0.714631	0.057225
O657	O	1.255937	1.047964	0.390558
H658	H	0.594098	0.344729	-0.271284
H659	H	0.927432	0.678062	0.062049
H660	H	1.260765	1.011396	0.395382
O661	O	0.737645	0.737765	-0.128107
O662	O	1.070978	1.071098	0.205226
O663	O	1.404311	1.404432	0.538559
H664	H	0.757643	0.761952	-0.108157
H665	H	1.090977	1.095285	0.225177
H666	H	1.424310	1.428618	0.558510
