data_functionalizedCrystal
_audit_creation_method	'MofGen! by Chris Wilmer'
_symmetry_space_group_name_H-M	'P1'
_symmetry_Int_Tables_number	1
_symmetry_cell_setting	triclinic
loop_
_symmetry_equiv_pos_as_xyz
  x,y,z
_cell_length_a	15.995350
_cell_length_b	11.026607
_cell_length_c	10.065875
_cell_angle_alpha	79.268236
_cell_angle_beta	98.743618
_cell_angle_gamma	96.039196
loop_
_atom_site_label
_atom_site_type_symbol
_atom_site_fract_x
_atom_site_fract_y
_atom_site_fract_z
O1	O	-1.144114	-0.138601	-0.113371
O2	O	-0.903252	-0.157912	-0.113398
O3	O	-1.003720	0.028396	-0.113382
O4	O	-1.043646	-0.324909	-0.113387
O5	O	-0.984584	-0.007273	0.113604
O6	O	-0.884116	-0.193581	0.113587
O7	O	-1.124978	-0.174270	0.113615
Zn8	Zn	-1.001509	-0.189589	0.149640
Zn9	Zn	-1.026722	-0.142593	-0.149423
O10	O	-1.024510	-0.360578	0.113598
C11	C	-0.862369	-0.174948	0.000091
C12	C	-0.769059	-0.172552	0.000080
C13	C	-0.986787	0.055773	0.000108
C14	C	-0.964831	0.190488	0.000101
C15	C	-1.165861	-0.157234	0.000123
C16	C	-1.259172	-0.159628	0.000124
C17	C	-0.430013	-0.163959	0.000109
C18	C	-0.457405	-0.031352	0.000617
C19	C	-0.554500	-0.033664	0.000096
C20	C	-0.598218	-0.168221	0.000096
C21	C	-0.577923	-0.213299	-0.129520
C22	C	-0.480793	-0.209950	-0.129619
C23	C	-0.459105	-0.253254	0.128506
C24	C	-0.555902	-0.253491	0.130210
C25	C	-0.693281	-0.170637	0.000083
C26	C	-0.334952	-0.161546	0.000112
C27	C	-1.041443	-0.387955	0.000105
C28	C	-1.063400	-0.522668	0.000103
N29	N	-0.984307	-0.221661	0.353743
C30	C	-1.025457	0.264293	0.000106
C31	C	-1.002765	0.403528	0.000098
N32	N	-1.043928	-0.110511	-0.353526
C33	C	-1.020730	-0.153745	0.421527
C34	C	-1.007500	-0.178438	0.578693
H35	H	-0.567342	0.003179	0.093010
O36	O	-0.882874	0.238048	-0.000154
C37	C	-0.852703	0.216837	-0.117697
H38	H	-0.908640	0.203320	-0.199856
H39	H	-0.808916	0.299796	-0.157168
H40	H	-0.816155	0.130248	-0.091118
O41	O	-0.416321	0.014340	0.111546
C42	C	-0.362211	-0.072960	0.190429
H43	H	-0.346064	-0.137419	0.123268
H44	H	-0.301394	-0.022639	0.234713
H45	H	-0.395420	-0.129414	0.277091
O46	O	-0.587771	0.045414	-0.111093
C47	C	-0.571319	0.008199	-0.230615
H48	H	-0.560195	-0.094485	-0.207954
H49	H	-0.627995	0.024845	-0.313498
H50	H	-0.512465	0.064142	-0.267043
H51	H	-1.084905	-0.034075	0.588160
H52	H	-0.463723	-0.306443	-0.135502
O53	O	-0.935490	-0.312982	0.423154
C54	C	-0.970353	-0.427594	0.388364
H55	H	-1.011290	-0.411125	0.284576
H56	H	-0.916943	-0.486799	0.383632
H57	H	-1.011015	-0.477536	0.468749
O58	O	-0.433801	0.048797	-0.109751
C59	C	-0.392588	-0.014436	-0.187399
H60	H	-0.412970	-0.117603	-0.165364
H61	H	-0.410508	0.022639	-0.300603
H62	H	-0.320962	0.000526	-0.159019
O63	O	-0.460226	-0.134947	-0.245336
C64	C	-0.503606	-0.181722	-0.360232
H65	H	-0.562371	-0.242507	-0.330666
H66	H	-0.523481	-0.101439	-0.444326
H67	H	-0.460044	-0.239043	-0.398613
O68	O	-1.069535	-0.062534	0.351785
C69	C	-1.020227	0.025108	0.269125
H70	H	-0.963850	-0.020059	0.247902
H71	H	-1.060670	0.060051	0.168567
H72	H	-0.996291	0.106202	0.324062
O73	O	-0.958536	-0.269479	0.648402
C74	C	-0.890042	-0.217586	0.731040
H75	H	-0.907114	-0.125871	0.752297
H76	H	-0.876109	-0.283973	0.831582
H77	H	-0.831518	-0.200955	0.676067
H78	H	-0.423749	-0.225314	0.226752
O79	O	-1.107454	0.216807	-0.000129
C80	C	-1.157445	0.274946	-0.117668
H81	H	-1.115361	0.314282	-0.199836
H82	H	-1.207884	0.204385	-0.157126
H83	H	-1.189513	0.353182	-0.091087
O84	O	-1.145417	0.429971	0.000057
C85	C	-1.197376	0.525625	0.000099
H86	H	-1.164643	0.618421	-0.042882
H87	H	-1.260702	0.509418	-0.065790
H88	H	-1.208800	0.526385	0.108999
O89	O	-0.613123	-0.330311	-0.135110
C90	C	-0.656699	-0.373297	-0.021556
H91	H	-0.674410	-0.290909	0.018994
H92	H	-0.716784	-0.432010	-0.053628
H93	H	-0.614142	-0.431733	0.061787
H94	H	-0.567934	-0.220784	0.226099
H95	H	-0.585397	-0.352844	0.138038
H96	H	-0.934059	0.443417	0.000082
O97	O	-0.438809	-0.370209	0.129740
C98	C	-0.465165	-0.449481	0.245310
H99	H	-0.518211	-0.407925	0.281416
H100	H	-0.489331	-0.543786	0.217549
H101	H	-0.409268	-0.460835	0.330415
O102	O	-0.613431	-0.141003	-0.244503
C103	C	-0.702121	-0.148418	-0.246288
H104	H	-0.717979	-0.177736	-0.137674
H105	H	-0.726648	-0.054024	-0.291502
H106	H	-0.733455	-0.219486	-0.311131
