data_functionalizedCrystal
_audit_creation_method	'MofGen! by Chris Wilmer'
_symmetry_space_group_name_H-M	'P1'
_symmetry_Int_Tables_number	1
_symmetry_cell_setting	triclinic
loop_
_symmetry_equiv_pos_as_xyz
  x,y,z
_cell_length_a	17.699077
_cell_length_b	17.699104
_cell_length_c	16.176319
_cell_angle_alpha	89.992259
_cell_angle_beta	89.993140
_cell_angle_gamma	83.286047
loop_
_atom_site_label
_atom_site_type_symbol
_atom_site_fract_x
_atom_site_fract_y
_atom_site_fract_z
O1	O	1.004089	0.095691	-0.068737
O2	O	1.504089	0.595691	0.431263
O3	O	0.783711	0.108148	-0.068742
O4	O	1.283711	0.608148	0.431258
O5	O	0.900118	-0.008269	-0.068732
O6	O	1.400118	0.491731	0.431268
O7	O	0.887682	0.212107	-0.068747
O8	O	1.387682	0.712107	0.431253
O9	O	0.900102	-0.008276	0.068761
O10	O	1.400102	0.491724	0.568761
O11	O	0.783695	0.108140	0.068752
O12	O	1.283695	0.608140	0.568752
O13	O	1.004073	0.095683	0.068756
O14	O	1.504073	0.595683	0.568756
Cu15	Cu	0.893882	0.101911	0.081308
Cu16	Cu	1.393882	0.601911	0.581308
Cu17	Cu	0.893901	0.101920	-0.081294
Cu18	Cu	1.393901	0.601920	0.418706
O19	O	0.887666	0.212100	0.068746
O20	O	1.387666	0.712100	0.568746
C21	C	0.755506	0.107698	0.000005
C22	C	1.255506	0.607698	0.500005
C23	C	0.671487	0.106362	0.000003
C24	C	1.171487	0.606362	0.500003
C25	C	0.899661	-0.036469	0.000015
C26	C	1.399661	0.463531	0.500015
C27	C	0.898317	-0.120487	0.000015
C28	C	1.398317	0.379513	0.500015
C29	C	0.632011	0.105728	0.074952
C30	C	1.132011	0.605728	0.574952
C31	C	0.553068	0.104460	0.074953
C32	C	1.053068	0.604460	0.574953
C33	C	0.513603	0.103831	0.000004
C34	C	1.013603	0.603831	0.500004
C35	C	0.553085	0.104463	-0.074950
C36	C	1.053085	0.604463	0.425050
C37	C	0.632027	0.105725	-0.074950
C38	C	1.132027	0.605725	0.425050
C39	C	0.234721	0.099369	-0.074951
C40	C	0.734721	0.599369	0.425049
C41	C	0.155773	0.098109	-0.074945
C42	C	0.655773	0.598109	0.425055
C43	C	0.155763	0.098104	0.074951
C44	C	0.655763	0.598104	0.574951
C45	C	0.234705	0.099366	0.074951
C46	C	0.734705	0.599366	0.574951
C47	C	0.274180	0.099994	-0.000002
C48	C	0.774180	0.599994	0.499998
C49	C	0.359779	0.101367	-0.000003
C50	C	0.859779	0.601367	0.499997
C51	C	0.428005	0.102463	0.000003
C52	C	0.928005	0.602463	0.500003
C53	C	1.032278	0.096133	0.000008
C54	C	1.532278	0.596133	0.500008
C55	C	1.116296	0.097469	0.000004
C56	C	1.616296	0.597469	0.500004
C57	C	0.959061	-0.645359	-0.000007
C58	C	1.459061	-0.145359	0.499993
C59	C	0.960320	-0.566415	0.000000
C60	C	1.460320	-0.066415	0.500000
C61	C	0.891984	-0.517796	0.000001
C62	C	1.391984	-0.017796	0.500001
C63	C	0.822385	-0.548125	0.000002
C64	C	1.322385	-0.048125	0.500002
C65	C	0.821127	-0.627067	0.000001
C66	C	1.321127	-0.127067	0.500001
C67	C	0.827458	-0.229759	0.000009
C68	C	1.327458	0.270241	0.500009
C69	C	0.828722	-0.150811	0.000008
C70	C	1.328722	0.349189	0.500008
C71	C	0.966651	-0.169107	0.000009
C72	C	1.466651	0.330893	0.500009
C73	C	0.965393	-0.248049	0.000007
C74	C	1.465393	0.251951	0.500007
C75	C	0.895794	-0.278371	0.000013
C76	C	1.395794	0.221629	0.500013
C77	C	0.894430	-0.363971	0.000007
C78	C	1.394430	0.136029	0.500007
C79	C	0.893348	-0.432198	0.000001
C80	C	1.393348	0.067802	0.500001
C81	C	0.888122	0.240300	-0.000002
C82	C	1.388122	0.740300	0.499998
C83	C	0.889467	0.324318	-0.000008
C84	C	1.389467	0.824318	0.499992
N85	N	0.893875	0.101904	0.195673
N86	N	1.393875	0.601904	0.695673
N87	N	0.893915	0.101920	-0.195659
N88	N	1.393915	0.601920	0.304341
C89	C	0.945435	0.050376	0.238942
C90	C	1.445435	0.550376	0.738942
C91	C	0.945439	0.050375	0.325489
C92	C	1.445439	0.550375	0.825489
C93	C	0.893885	0.101907	0.368766
C94	C	1.393885	0.601907	0.868766
C95	C	0.842319	0.153438	0.325491
C96	C	1.342319	0.653438	0.825491
C97	C	0.842312	0.153434	0.238946
C98	C	1.342312	0.653434	0.738946
C99	C	0.842345	0.153452	0.674520
C100	C	1.342345	0.653452	1.174520
C101	C	0.842357	0.153453	0.761071
C102	C	1.342357	0.653453	1.261071
C103	C	0.945472	0.050393	0.761063
C104	C	1.445472	0.550393	1.261063
C105	C	0.945465	0.050390	0.674517
C106	C	1.445465	0.550390	1.174517
C107	C	0.893896	0.101917	0.631250
C108	C	1.393896	0.601917	1.131250
C109	C	0.893892	0.101917	0.537406
C110	C	1.393892	0.601917	1.037406
C111	C	0.893893	0.101912	0.462608
C112	C	1.393893	0.601912	0.962608
H113	H	0.664138	0.106246	0.135983
H114	H	1.164138	0.606246	0.635983
H115	H	0.987459	0.008434	0.796300
H116	H	1.487459	0.508434	1.296300
H117	H	0.766746	-0.508533	0.000008
H118	H	1.266746	-0.008533	0.500008
O119	O	0.670426	0.106210	-0.147735
O120	O	1.170426	0.606210	0.352265
C121	C	0.724794	0.041427	-0.152207
C122	C	1.224794	0.541427	0.347793
H123	H	0.707076	-0.004753	-0.109671
H124	H	1.207076	0.495247	0.390329
H125	H	0.782656	0.057196	-0.132074
H126	H	1.282656	0.557196	0.367926
C127	C	0.751717	0.068458	-0.293993
C128	C	1.251717	0.568458	0.206007
C129	C	0.729952	0.011737	-0.241754
C130	C	1.229952	0.511737	0.258246
H131	H	0.754902	0.050146	-0.349230
H132	H	1.254902	0.550146	0.150770
H133	H	0.715091	0.112106	-0.290979
H134	H	1.215091	0.612106	0.209021
H135	H	0.799934	0.081594	-0.277205
H136	H	1.299934	0.581594	0.222795
H137	H	0.681732	-0.001391	-0.258536
H138	H	1.181732	0.498609	0.241464
H139	H	0.766571	-0.031913	-0.244773
H140	H	1.266571	0.468087	0.255227
H141	H	0.987419	0.008416	0.203711
H142	H	1.487419	0.508416	0.703711
O143	O	1.025513	-0.692476	0.000027
O144	O	1.525513	-0.192476	0.500027
C145	C	1.087207	-0.648779	0.000009
C146	C	1.587207	-0.148779	0.500009
H147	H	1.067882	-0.589829	0.026042
H148	H	1.567882	-0.089829	0.526042
H149	H	1.108554	-0.643186	-0.065952
H150	H	1.608554	-0.143186	0.434048
C151	C	1.175605	-0.760639	0.021956
C152	C	1.675605	-0.260639	0.521956
C153	C	1.151870	-0.688237	0.053936
C154	C	1.651870	-0.188237	0.553936
H155	H	1.215494	-0.784979	0.055217
H156	H	1.715494	-0.284979	0.555217
H157	H	1.134041	-0.790079	0.021965
H158	H	1.634041	-0.290079	0.521965
H159	H	1.193388	-0.755967	-0.033011
H160	H	1.693388	-0.255967	0.466989
H161	H	1.134078	-0.692910	0.108898
H162	H	1.634078	-0.192910	0.608898
H163	H	1.193433	-0.658798	0.053938
H164	H	1.693433	-0.158798	0.553938
O165	O	0.792200	0.203564	0.197040
O166	O	1.292200	0.703564	0.697040
C167	C	0.746686	0.249037	0.253794
C168	C	1.246686	0.749037	0.753794
H169	H	0.777719	0.249857	0.315479
H170	H	1.277719	0.749857	0.815479
H171	H	0.690511	0.224532	0.263017
H172	H	1.190511	0.724532	0.763017
C173	C	0.692818	0.329697	0.144239
C174	C	1.192818	0.829697	0.644239
C175	C	0.730936	0.330709	0.220000
C176	C	1.230936	0.830709	0.720000
H177	H	0.683099	0.380076	0.123394
H178	H	1.183099	0.880076	0.623394
H179	H	0.723479	0.299060	0.106003
H180	H	1.223479	0.799060	0.606003
H181	H	0.646010	0.309273	0.151936
H182	H	1.146010	0.809273	0.651936
H183	H	0.777748	0.351125	0.212301
H184	H	1.277748	0.851125	0.712301
H185	H	0.700282	0.361352	0.258235
H186	H	1.200282	0.861352	0.758235
H187	H	0.266833	0.099882	0.135982
H188	H	0.766833	0.599882	0.635982
H189	H	1.023322	-0.144410	-0.000007
H190	H	1.523322	0.355590	0.499993
H191	H	0.764457	-0.651754	0.000007
H192	H	1.264457	-0.151754	0.500007
H193	H	0.987447	0.008430	0.639284
H194	H	1.487447	0.508430	1.139284
O195	O	0.514833	0.103884	0.147832
O196	O	1.014833	0.603884	0.647832
C197	C	0.566596	0.104697	0.213982
C198	C	1.066596	0.604697	0.713982
H199	H	0.619693	0.129549	0.192004
H200	H	1.119693	0.629549	0.692004
H201	H	0.583043	0.044136	0.237038
H202	H	1.083043	0.544136	0.737038
C203	C	0.463984	0.123295	0.311780
C204	C	0.963984	0.623295	0.811780
C205	C	0.529195	0.153826	0.284788
C206	C	1.029195	0.653826	0.784788
H207	H	0.440913	0.153598	0.355458
H208	H	0.940913	0.653598	0.855458
H209	H	0.429110	0.122745	0.267214
H210	H	0.929110	0.622745	0.767214
H211	H	0.477699	0.072829	0.330987
H212	H	0.977699	0.572829	0.830987
H213	H	0.515478	0.204288	0.265571
H214	H	1.015478	0.704288	0.765571
H215	H	0.564066	0.154386	0.329352
H216	H	1.064066	0.654386	0.829352
O217	O	0.273181	0.099958	-0.147684
O218	O	0.773181	0.599958	0.352316
C219	C	0.351318	0.101225	-0.131622
C220	C	0.851318	0.601225	0.368378
H221	H	0.365276	0.077437	-0.067210
H222	H	0.865276	0.577437	0.432790
H223	H	0.365667	0.162280	-0.135175
H224	H	0.865667	0.662280	0.364825
C225	C	0.381287	0.081485	-0.275397
C226	C	0.881287	0.581485	0.224603
C227	C	0.398432	0.052262	-0.196288
C228	C	0.898432	0.552262	0.303712
H229	H	0.410350	0.051285	-0.315288
H230	H	0.910350	0.551285	0.184712
H231	H	0.328644	0.080634	-0.286220
H232	H	0.828644	0.580634	0.213780
H233	H	0.393245	0.132364	-0.278346
H234	H	0.893245	0.632364	0.221654
H235	H	0.386465	0.001388	-0.193337
H236	H	0.886465	0.501388	0.306663
H237	H	0.451074	0.053103	-0.185466
H238	H	0.951074	0.553103	0.314534
O239	O	0.792197	0.203538	0.802984
O240	O	1.292197	0.703538	1.302984
C241	C	0.746690	0.249028	0.746238
C242	C	1.246690	0.749028	1.246238
H243	H	0.745887	0.217998	0.684551
H244	H	1.245887	0.717998	1.184551
H245	H	0.771152	0.305227	0.737017
H246	H	1.271152	0.805227	1.237017
C247	C	0.666009	0.302832	0.855804
C248	C	1.166009	0.802832	1.355804
C249	C	0.665017	0.264718	0.780040
C250	C	1.165017	0.764718	1.280040
H251	H	0.615629	0.312514	0.876655
H252	H	1.115629	0.812514	1.376655
H253	H	0.696669	0.272187	0.894035
H254	H	1.196669	0.772187	1.394035
H255	H	0.686397	0.349660	0.848109
H256	H	1.186397	0.849660	1.348109
H257	H	0.644637	0.217887	0.787737
H258	H	1.144637	0.717887	1.287737
H259	H	0.634351	0.295356	0.741810
H260	H	1.134351	0.795356	1.241810
O261	O	1.027878	-0.536873	-0.000114
O262	O	1.527878	-0.036873	0.499886
C263	C	1.032747	-0.491761	-0.071331
C264	C	1.532747	0.008239	0.428669
H265	H	0.973059	-0.471986	-0.095067
H266	H	1.473059	0.028014	0.404933
H267	H	1.066294	-0.526693	-0.121199
H268	H	1.566294	-0.026693	0.378801
C269	C	1.146689	-0.446300	-0.020548
C270	C	1.646689	0.053700	0.479452
C271	C	1.073378	-0.422005	-0.049696
C272	C	1.573378	0.077995	0.450304
H273	H	1.171754	-0.403273	-0.007205
H274	H	1.671754	0.096727	0.492795
H275	H	1.143410	-0.476694	0.027431
H276	H	1.643410	0.023306	0.527431
H277	H	1.174635	-0.475410	-0.062109
H278	H	1.674635	0.024590	0.437891
H279	H	1.045430	-0.392904	-0.008132
H280	H	1.545430	0.107096	0.491868
H281	H	1.076653	-0.391604	-0.097668
H282	H	1.576653	0.108396	0.402332
H283	H	0.123613	0.097589	0.135982
H284	H	0.623613	0.597589	0.635982
O285	O	0.762267	-0.103689	0.000051
O286	O	1.262267	0.396311	0.500051
C287	C	0.700567	-0.147378	0.000036
C288	C	1.200567	0.352622	0.500036
H289	H	0.719882	-0.206336	0.026067
H290	H	1.219882	0.293664	0.526067
H291	H	0.679229	-0.152954	-0.065924
H292	H	1.179229	0.347046	0.434076
C293	C	0.612178	-0.035516	0.021989
C294	C	1.112178	0.464484	0.521989
C295	C	0.635900	-0.107926	0.053967
C296	C	1.135900	0.392074	0.553967
H297	H	0.572286	-0.011179	0.055252
H298	H	1.072286	0.488821	0.555252
H299	H	0.653746	-0.006080	0.021995
H300	H	1.153746	0.493920	0.521995
H301	H	0.594401	-0.040172	-0.032978
H302	H	1.094401	0.459828	0.467022
H303	H	0.653685	-0.103268	0.108928
H304	H	1.153685	0.396732	0.608928
H305	H	0.594333	-0.137360	0.053971
H306	H	1.094333	0.362640	0.553971
H307	H	0.987423	0.008417	0.360718
H308	H	1.487423	0.508417	0.860718
H309	H	1.021039	-0.287632	0.000003
H310	H	1.521039	0.212368	0.500003
O311	O	0.759899	-0.259293	-0.000106
O312	O	1.259899	0.240707	0.499894
C313	C	0.755042	-0.304384	-0.071327
C314	C	1.255042	0.195616	0.428673
H315	H	0.814735	-0.324156	-0.095061
H316	H	1.314735	0.175844	0.404939
H317	H	0.721507	-0.269436	-0.121193
H318	H	1.221507	0.230564	0.378807
C319	C	0.641086	-0.349853	-0.020551
C320	C	1.141086	0.150147	0.479449
C321	C	0.714402	-0.374143	-0.049698
C322	C	1.214402	0.125857	0.450302
H323	H	0.616015	-0.392882	-0.007211
H324	H	1.116015	0.107118	0.492789
H325	H	0.644356	-0.319472	0.027431
H326	H	1.144356	0.180528	0.527431
H327	H	0.613150	-0.320729	-0.062111
H328	H	1.113150	0.179271	0.437889
H329	H	0.742340	-0.403257	-0.008134
H330	H	1.242340	0.096743	0.491866
H331	H	0.711136	-0.404530	-0.097672
H332	H	1.211136	0.095470	0.402328
O333	O	0.792365	0.203547	0.632411
O334	O	1.292365	0.703547	1.132411
C335	C	0.832811	0.250200	0.582350
C336	C	1.332811	0.750200	1.082350
H337	H	0.892082	0.219973	0.569367
H338	H	1.392082	0.719973	1.069367
H339	H	0.837865	0.306126	0.615701
H340	H	1.337865	0.806126	1.115701
C341	C	0.717301	0.303572	0.516101
C342	C	1.217301	0.803572	1.016101
C343	C	0.790096	0.266444	0.500148
C344	C	1.290096	0.766444	1.000148
H345	H	0.690951	0.313595	0.465396
H346	H	1.190951	0.813595	0.965396
H347	H	0.690051	0.272143	0.549829
H348	H	1.190051	0.772143	1.049829
H349	H	0.721523	0.350173	0.543895
H350	H	1.221523	0.850173	1.043895
H351	H	0.785873	0.219840	0.472364
H352	H	1.285873	0.719840	0.972364
H353	H	0.817345	0.297865	0.466413
H354	H	1.317345	0.797865	0.966413
H355	H	0.123642	0.097596	-0.135981
H356	H	0.623642	0.597596	0.364019
H357	H	0.520946	0.103945	-0.135974
H358	H	1.020946	0.603945	0.364026
H359	H	0.800339	0.195394	0.360732
H360	H	1.300339	0.695394	0.860732
