data_functionalizedCrystal
_audit_creation_method	'MofGen! by Chris Wilmer'
_symmetry_space_group_name_H-M	'P1'
_symmetry_Int_Tables_number	1
_symmetry_cell_setting	triclinic
loop_
_symmetry_equiv_pos_as_xyz
  x,y,z
_cell_length_a	19.377372
_cell_length_b	21.606444
_cell_length_c	21.606444
_cell_angle_alpha	60.001013
_cell_angle_beta	89.996506
_cell_angle_gamma	72.112173
loop_
_atom_site_label
_atom_site_type_symbol
_atom_site_fract_x
_atom_site_fract_y
_atom_site_fract_z
Zr1	Zr	0.580564	0.861709	-0.173328
O2	O	0.484342	0.960284	-0.256877
O3	O	0.610063	0.741953	-0.147718
O4	O	0.610070	0.871070	-0.276833
O5	O	0.484328	0.831168	-0.025911
O6	O	0.709245	0.902547	-0.292571
O7	O	0.484335	0.831167	-0.127762
O8	O	0.709233	0.671581	-0.061608
O9	O	0.484341	1.062135	-0.256874
O10	O	0.696656	0.822545	-0.148538
O11	O	0.622637	0.799055	-0.060782
O12	O	0.622646	0.951074	-0.212798
O13	O	0.548627	0.927583	-0.125042
Zr14	Zr	0.738727	0.911912	-0.035987
Zr15	Zr	0.738738	0.911911	-0.198428
Zr16	Zr	0.580554	0.861710	-0.010886
Zr17	Zr	0.580563	1.024148	-0.173322
Zr18	Zr	0.738729	0.749472	-0.035992
O19	O	0.709229	1.031667	-0.061596
O20	O	0.709244	1.031665	-0.292567
O21	O	0.484327	0.960286	-0.025906
O22	O	0.834950	0.813336	0.047563
O23	O	0.834965	0.813334	-0.183408
O24	O	0.610048	0.741955	0.083252
O25	O	0.834964	0.942452	-0.183404
O26	O	0.709222	0.902550	0.067519
O27	O	0.610047	0.871073	0.083257
O28	O	0.834957	0.942453	-0.081552
O29	O	0.610067	1.102039	-0.276825
O30	O	0.709224	0.671582	0.067511
O31	O	0.834951	0.711486	0.047559
O32	O	0.834959	0.711485	-0.081560
O33	O	0.484332	1.062136	-0.127754
O34	O	0.610059	1.102040	-0.147706
O35	O	0.696646	0.822547	0.003483
O36	O	0.770665	0.846037	-0.084272
O37	O	0.696654	0.974565	-0.148533
O38	O	0.622636	0.951075	-0.060777
C39	C	0.659648	0.683623	-0.104664
C40	C	0.659649	0.614663	-0.104667
C41	C	0.461795	0.824015	-0.073260
C42	C	0.394646	0.802703	-0.062604
C43	C	0.698284	0.594526	-0.150475
C44	C	0.698286	0.529727	-0.150470
C45	C	0.659649	0.485069	-0.104660
C46	C	0.621013	0.505207	-0.058847
C47	C	0.621015	0.570002	-0.058848
C48	C	0.621004	0.243895	-0.058839
C49	C	0.621003	0.179098	-0.058843
C50	C	0.698276	0.203620	-0.150461
C51	C	0.698278	0.268415	-0.150463
C52	C	0.659645	0.288546	-0.104647
C53	C	0.659644	0.358808	-0.104651
C54	C	0.659646	0.414811	-0.104659
C55	C	-0.019356	1.068054	-0.195276
C56	C	-0.082442	1.048011	-0.185253
C57	C	-0.005172	0.913837	-0.118171
C58	C	0.057923	0.933869	-0.128184
C59	C	0.050824	1.010979	-0.166738
C60	C	0.128102	0.876794	-0.099647
C61	C	0.191191	0.896826	-0.109663
C62	C	0.184100	0.973932	-0.148217
C63	C	0.113912	1.031010	-0.176755
C64	C	0.135199	0.799685	-0.061097
C65	C	0.205379	0.742610	-0.032560
C66	C	0.268469	0.762641	-0.042572
C67	C	0.261378	0.839747	-0.081126
C68	C	0.338656	0.705562	-0.014034
C69	C	0.401745	0.725593	-0.024051
C70	C	0.324467	0.859778	-0.091142
C71	C	0.857497	0.949605	-0.136054
C72	C	0.924645	0.970917	-0.146710
C73	C	0.659659	0.886809	-0.307847
C74	C	0.659663	0.886808	-0.376807
C75	C	0.659644	1.089998	-0.104650
C76	C	0.659643	1.158957	-0.104648
C77	C	0.604992	0.869473	-0.791436
C78	C	0.604998	0.869468	-0.726638
C79	C	0.659639	0.886809	-0.702914
C80	C	0.714281	0.904147	-0.743990
C81	C	0.714277	0.904146	-0.808784
C82	C	0.714299	0.904151	-0.482681
C83	C	0.714298	0.904153	-0.417882
C84	C	0.605020	0.869473	-0.400535
C85	C	0.605016	0.869472	-0.465329
C86	C	0.659660	0.886807	-0.506397
C87	C	0.659653	0.886810	-0.576657
C88	C	0.659643	0.886811	-0.632658
C89	C	0.659633	0.886812	0.098532
C90	C	0.659628	0.886812	0.167493
C91	C	0.857499	0.746418	-0.136061
C92	C	0.924648	0.698770	-0.146719
C93	C	0.659635	0.683624	0.098525
C94	C	0.659631	0.614665	0.167484
C95	C	0.857486	0.746420	0.067128
C96	C	0.924631	0.698772	0.125431
C97	C	0.461806	1.027201	-0.276443
C98	C	0.394661	1.074848	-0.334745
C99	C	0.461793	1.027202	-0.073253
C100	C	0.394644	1.074850	-0.062595
C101	C	0.659657	1.089996	-0.307840
C102	C	0.659660	1.158955	-0.376798
C103	C	0.917551	0.664132	-0.185277
C104	C	0.980639	0.619369	-0.195306
C105	C	1.050824	0.609240	-0.166772
C106	C	1.057920	0.643885	-0.128212
C107	C	0.994832	0.688651	-0.118189
C108	C	0.698261	0.594543	0.233420
C109	C	0.698255	0.529757	0.298220
C110	C	0.659623	0.485090	0.297082
C111	C	0.620988	0.505217	0.231139
C112	C	0.620990	0.570005	0.166341
C113	C	0.994806	0.688660	0.107001
C114	C	1.057902	0.643902	0.161776
C115	C	1.050821	0.609251	0.234979
C116	C	0.980638	0.619367	0.253408
C117	C	0.917544	0.664130	0.198634
C118	C	0.324485	1.084968	-0.316316
C119	C	0.261389	1.129747	-0.371090
C120	C	0.268471	1.164401	-0.444293
C121	C	0.338654	1.154281	-0.462722
C122	C	0.401748	1.109507	-0.407948
C123	C	0.401741	1.109495	-0.024044
C124	C	0.338653	1.154276	-0.014033
C125	C	0.268468	1.164407	-0.042570
C126	C	0.261372	1.129760	-0.081126
C127	C	0.324459	1.084984	-0.091141
C128	C	0.698300	1.203604	-0.375637
C129	C	0.698318	1.268395	-0.440426
C130	C	0.659692	1.288538	-0.506376
C131	C	0.621050	1.243883	-0.507536
C132	C	0.621037	1.179091	-0.442747
H133	H	0.729743	0.630887	-0.187782
F134	F	0.212925	0.660547	0.008469
H135	H	1.115073	0.635631	-0.104983
F136	F	0.316932	1.048091	-0.238411
H137	H	0.458886	1.101268	-0.422963
F138	F	0.772457	0.922609	-0.392636
H139	H	0.344425	0.642780	0.017350
H140	H	0.659708	1.341299	-0.559126
H141	H	0.204219	1.138015	-0.104358
F142	F	0.546859	0.851020	-0.490576
F143	F	0.476439	0.664848	0.006320
H144	H	0.729747	0.513333	-0.187770
F145	F	0.842860	0.674904	-0.215654
H146	H	0.659627	0.432337	0.349850
H147	H	0.729755	1.187214	-0.321944
H148	H	0.589534	0.468840	0.230223
H149	H	1.000586	0.716868	0.047399
F150	F	0.546831	0.851022	-0.816680
F151	F	0.201331	1.212063	-0.031904
F152	F	0.772438	0.922598	-0.718739
F153	F	0.546849	0.851013	-0.682926
F154	F	0.739385	0.642069	0.234647
F155	F	0.579876	0.591409	0.096168
F156	F	0.739379	0.508348	0.368393
H157	H	0.344410	1.182502	-0.522330
F158	F	1.117979	0.561612	0.293267
H159	H	1.115042	0.635671	0.146758
H160	H	0.860406	0.672354	0.213650
H161	H	0.589539	0.142736	-0.021536
H162	H	0.974884	0.591148	0.313016
F163	F	0.579938	1.265335	-0.577730
H164	H	0.204250	1.137976	-0.356071
H165	H	0.560528	0.855355	-0.367088
F166	F	0.739444	1.315912	-0.439176
F167	F	0.201313	1.212051	-0.502581
F168	F	0.579903	1.131582	-0.443993
F169	F	0.476431	1.098725	0.006331
H170	H	0.729737	0.304778	-0.187768
H171	H	0.589550	0.260275	-0.021530
H172	H	0.974846	0.591165	-0.226703
H173	H	0.729736	0.187222	-0.187765
F174	F	0.346221	1.191141	0.027006
H175	H	0.589558	0.468838	-0.021544
F176	F	0.579896	0.591431	-0.010091
H177	H	0.758791	0.918267	-0.516114
H178	H	1.102187	0.572786	-0.174938
F179	F	1.002398	0.725508	-0.077145
F180	F	0.316894	1.048111	-0.132168
F181	F	0.068053	0.778368	-0.050444
H182	H	0.318685	0.922569	-0.122514
H183	H	0.235472	0.990239	-0.156373
H184	H	-0.025138	1.130845	-0.226648
F185	F	0.106360	1.113080	-0.217780
H186	H	-0.139587	1.094494	-0.208497
H187	H	0.758769	0.918265	-0.842224
F188	F	0.002374	0.831774	-0.077142
