data_functionalizedCrystal
_audit_creation_method	'MofGen! by Chris Wilmer'
_symmetry_space_group_name_H-M	'P1'
_symmetry_Int_Tables_number	1
_symmetry_cell_setting	triclinic
loop_
_symmetry_equiv_pos_as_xyz
  x,y,z
_cell_length_a	17.699083
_cell_length_b	15.995350
_cell_length_c	16.176319
_cell_angle_alpha	89.995430
_cell_angle_beta	89.998611
_cell_angle_gamma	83.387695
loop_
_atom_site_label
_atom_site_type_symbol
_atom_site_fract_x
_atom_site_fract_y
_atom_site_fract_z
O1	O	1.004255	0.105885	-0.068627
O2	O	1.504255	0.605885	0.431373
O3	O	0.783899	0.119661	-0.068653
O4	O	1.283899	0.619661	0.431347
O5	O	0.900101	-0.009127	-0.068638
O6	O	1.400101	0.490873	0.431362
O7	O	0.888054	0.234673	-0.068641
O8	O	1.388054	0.734673	0.431359
O9	O	0.900085	-0.009135	0.068855
O10	O	1.400085	0.490865	0.568855
O11	O	0.783883	0.119653	0.068840
O12	O	1.283883	0.619653	0.568840
O13	O	1.004239	0.105877	0.068867
O14	O	1.504239	0.605877	0.568867
Cu15	Cu	0.894060	0.112764	0.081408
Cu16	Cu	1.394060	0.612764	0.581408
Cu17	Cu	0.894079	0.112774	-0.081194
Cu18	Cu	1.394079	0.612774	0.418806
O19	O	0.888038	0.234665	0.068852
O20	O	1.388038	0.734665	0.568852
C21	C	0.755694	0.119163	0.000090
C22	C	1.255694	0.619163	0.500090
C23	C	0.671673	0.117683	0.000080
C24	C	1.171673	0.617683	0.500080
C25	C	0.899595	-0.040324	0.000107
C26	C	1.399595	0.459676	0.500107
C27	C	0.898101	-0.133272	0.000102
C28	C	1.398101	0.366728	0.500102
C29	C	0.623178	0.193278	0.000079
C30	C	1.123178	0.693278	0.500079
C31	C	0.544232	0.191882	0.000090
C32	C	1.044232	0.691882	0.500090
C33	C	0.513783	0.114889	0.000095
C34	C	1.013783	0.614889	0.500095
C35	C	0.562285	0.039287	0.000098
C36	C	1.062285	0.539287	0.500098
C37	C	0.641229	0.040685	0.000094
C38	C	1.141229	0.540685	0.500094
C39	C	0.243912	0.033651	0.000119
C40	C	0.743912	0.533651	0.500119
C41	C	0.164962	0.032259	0.000121
C42	C	0.664962	0.532259	0.500121
C43	C	0.146916	0.184848	0.000115
C44	C	0.646916	0.684848	0.500115
C45	C	0.225860	0.186245	0.000110
C46	C	0.725860	0.686245	0.500110
C47	C	0.274354	0.110644	0.000118
C48	C	0.774354	0.610644	0.500118
C49	C	0.359956	0.112159	0.000108
C50	C	0.859956	0.612159	0.500108
C51	C	0.428183	0.113373	0.000099
C52	C	0.928183	0.613373	0.500099
C53	C	0.892739	-0.471008	0.000104
C54	C	1.392739	0.028992	0.500104
C55	C	0.809983	-0.423406	-0.000214
C56	C	1.309983	0.076594	0.499786
C57	C	0.811476	-0.326719	0.000096
C58	C	1.311476	0.173281	0.500096
C59	C	0.895399	-0.303453	0.000102
C60	C	1.395399	0.196547	0.500102
C61	C	0.936208	-0.344618	0.078621
C62	C	1.436208	0.155382	0.578621
C63	C	0.934129	-0.441250	0.078687
C64	C	1.434129	0.058750	0.578687
C65	C	0.935857	-0.441602	-0.077669
C66	C	1.435857	0.058398	0.422331
C67	C	0.935838	-0.344657	-0.078706
C68	C	1.435838	0.155343	0.421294
C69	C	0.896907	-0.208759	0.000104
C70	C	1.396907	0.291241	0.500104
C71	C	0.891234	-0.565703	0.000108
C72	C	1.391234	-0.065703	0.500108
C73	C	1.032445	0.106375	0.000122
C74	C	1.532445	0.606375	0.500122
C75	C	1.116465	0.107856	0.000126
C76	C	1.616465	0.607856	0.500126
C77	C	0.888544	0.265863	0.000105
C78	C	1.388544	0.765863	0.500105
C79	C	0.890037	0.358810	0.000104
C80	C	1.390037	0.858810	0.500104
N81	N	0.894052	0.112757	0.195773
N82	N	1.394052	0.612757	0.695773
N83	N	0.894092	0.112775	-0.195559
N84	N	1.394092	0.612775	0.304441
C85	C	0.945521	0.055753	0.239043
C86	C	1.445521	0.555753	0.739043
C87	C	0.945525	0.055752	0.325591
C88	C	1.445525	0.555752	0.825591
C89	C	0.894063	0.112760	0.368865
C90	C	1.394063	0.612760	0.868865
C91	C	0.842588	0.169767	0.325589
C92	C	1.342588	0.669767	0.825589
C93	C	0.842581	0.169763	0.239043
C94	C	1.342581	0.669763	0.739043
C95	C	0.842614	0.169782	0.674617
C96	C	1.342614	0.669782	1.174617
C97	C	0.842626	0.169783	0.761168
C98	C	1.342626	0.669783	1.261168
C99	C	0.945558	0.055772	0.761164
C100	C	1.445558	0.555772	1.261164
C101	C	0.945551	0.055768	0.674619
C102	C	1.445551	0.555768	1.174619
C103	C	0.894074	0.112771	0.631350
C104	C	1.394074	0.612771	1.131350
C105	C	0.894069	0.112770	0.537505
C106	C	1.394069	0.612770	1.037505
C107	C	0.894070	0.112765	0.462708
C108	C	1.394070	0.612765	0.962708
H109	H	0.647962	0.255975	0.000074
H110	H	1.147962	0.755975	0.500074
H111	H	0.800682	0.216181	0.360828
H112	H	1.300682	0.716181	0.860828
Br113	Br	1.015399	-0.021597	0.615891
Br114	Br	1.515399	0.478403	1.115891
H115	H	0.908807	-0.462083	-0.137181
H116	H	1.408807	0.037917	0.362819
H117	H	0.997864	-0.330618	0.081546
H118	H	1.497864	0.169382	0.581546
H119	H	0.250646	0.248941	0.000102
H120	H	0.750646	0.748941	0.500102
Br121	Br	0.081097	0.287452	0.000106
Br122	Br	0.581097	0.787452	0.500106
H123	H	0.800700	0.216198	0.639394
H124	H	1.300700	0.716198	1.139394
H125	H	0.907851	-0.316183	0.137047
H126	H	1.407851	0.183817	0.637047
Br127	Br	0.309717	-0.068951	0.000131
Br128	Br	0.809717	0.431049	0.500131
Br129	Br	0.772721	0.247123	0.180318
Br130	Br	1.272721	0.747123	0.680318
H131	H	0.537487	-0.023402	0.000115
H132	H	1.037487	0.476598	0.500115
Br133	Br	0.123639	-0.072239	0.000126
Br134	Br	0.623639	0.427761	0.500126
Br135	Br	1.037554	-0.494745	-0.078542
Br136	Br	1.537554	0.005255	0.421458
Br137	Br	1.035393	-0.495210	0.084643
Br138	Br	1.535393	0.004790	0.584643
Br139	Br	0.707046	-0.061914	0.000102
Br140	Br	1.207046	0.438086	0.500102
Br141	Br	0.478419	0.294481	0.000086
Br142	Br	0.978419	0.794481	0.500086
Br143	Br	0.758009	-0.279228	-0.093718
Br144	Br	1.258009	0.220772	0.406282
Br145	Br	0.886525	-0.298595	-0.175537
Br146	Br	1.386525	0.201405	0.324463
Br147	Br	1.015373	-0.021613	0.180323
Br148	Br	1.515373	0.478387	0.680323
H149	H	0.776912	-0.441867	-0.056522
H150	H	1.276912	0.058133	0.443478
Br151	Br	1.015375	-0.021614	0.384318
Br152	Br	1.515375	0.478386	0.884318
H153	H	0.997038	-0.329419	-0.083442
H154	H	1.497038	0.170581	0.416558
H155	H	0.777046	-0.442936	0.055772
H156	H	1.277046	0.057064	0.555772
Br157	Br	1.015421	-0.021593	0.819891
Br158	Br	1.515421	0.478407	1.319891
H159	H	0.779168	-0.298792	0.056470
H160	H	1.279168	0.201208	0.556470
Br161	Br	0.884506	-0.471663	0.176503
Br162	Br	1.384506	0.028337	0.676503
H163	H	0.800716	0.216208	0.796401
H164	H	1.300716	0.716208	1.296401
