data_functionalizedCrystal
_audit_creation_method	'MofGen! by Chris Wilmer'
_symmetry_space_group_name_H-M	'P1'
_symmetry_Int_Tables_number	1
_symmetry_cell_setting	triclinic
loop_
_symmetry_equiv_pos_as_xyz
  x,y,z
_cell_length_a	12.837943
_cell_length_b	27.732048
_cell_length_c	11.892095
_cell_angle_alpha	93.851775
_cell_angle_beta	85.689438
_cell_angle_gamma	88.735798
loop_
_atom_site_label
_atom_site_type_symbol
_atom_site_fract_x
_atom_site_fract_y
_atom_site_fract_z
O1	O	1.380115	0.122782	-0.094008
O2	O	1.078409	0.116579	-0.094014
O3	O	1.238631	0.049749	-0.093989
O4	O	1.219894	0.189612	-0.094033
O5	O	1.225272	0.055311	0.094016
O6	O	1.065051	0.122142	0.093992
O7	O	1.366757	0.128345	0.093997
Zn8	Zn	1.213783	0.126126	0.123844
Zn9	Zn	1.231383	0.118797	-0.123861
O10	O	1.206535	0.195175	0.093973
C11	C	1.033143	0.117265	-0.000011
C12	C	0.918166	0.111016	-0.000012
C13	C	1.231558	0.034504	0.000017
C14	C	1.230373	-0.019210	0.000026
C15	C	0.676005	0.186144	-0.000019
C16	C	0.567973	0.180275	-0.000020
C17	C	0.594068	0.093407	-0.000005
C18	C	0.702100	0.099277	-0.000005
C19	C	0.743064	0.145647	-0.000014
C20	C	0.851099	0.151516	-0.000022
C21	C	0.877191	0.064649	0.000001
C22	C	0.769159	0.058780	0.000001
C23	C	1.317601	-0.353705	-0.000031
C24	C	1.313207	-0.555583	-0.000046
O25	O	1.392971	-0.582888	-0.000094
N26	N	1.218201	-0.579414	-0.000047
C27	C	1.124288	-0.552772	-0.000051
O28	O	1.043379	-0.577674	-0.000064
C29	C	1.128683	-0.350895	-0.000043
C30	C	1.223695	-0.327067	-0.000031
C31	C	1.412605	-0.329876	-0.000020
C32	C	1.413702	-0.279410	-0.000010
C33	C	1.319795	-0.252772	-0.000010
C34	C	1.224792	-0.276600	-0.000021
C35	C	1.034772	-0.324255	-0.000056
C36	C	1.035879	-0.273783	-0.000056
C37	C	1.130890	-0.249954	-0.000044
C38	C	1.131982	-0.199496	-0.000012
N39	N	1.226988	-0.175665	-0.000011
C40	C	1.320894	-0.202303	-0.000010
C41	C	1.121987	-0.658760	-0.000053
C42	C	1.120887	-0.709229	-0.000053
C43	C	1.309807	-0.712036	-0.000050
C44	C	1.310905	-0.661566	-0.000042
C45	C	1.216992	-0.634929	-0.000052
C46	C	1.323191	-0.096319	0.000012
C47	C	1.324280	-0.045848	0.000027
C48	C	1.135361	-0.043045	0.000018
C49	C	1.134271	-0.093512	0.000009
C50	C	1.228195	-0.120148	0.000002
O51	O	1.052262	-0.172160	0.000024
O52	O	1.401793	-0.177392	-0.000023
C53	C	1.316504	-0.404172	-0.000041
C54	C	1.221500	-0.428000	-0.000051
C55	C	1.127594	-0.401362	-0.000052
C56	C	1.220401	-0.478469	-0.000051
C57	C	1.314308	-0.505107	-0.000051
C58	C	1.409314	-0.481276	-0.000050
C59	C	1.410411	-0.430810	-0.000040
C60	C	1.032588	-0.425193	-0.000053
C61	C	1.031499	-0.475660	-0.000062
C62	C	1.125405	-0.502298	-0.000061
C63	C	1.412023	0.127658	-0.000008
C64	C	1.527001	0.133908	-0.000014
C65	C	1.213608	0.210420	-0.000035
C66	C	1.214794	0.264133	-0.000052
N67	N	1.201778	0.131128	0.292897
N68	N	1.243396	0.113792	-0.292913
C69	C	1.326930	0.078958	0.529564
C70	C	1.318546	0.082459	0.647904
C71	C	1.176623	0.141626	0.647921
C72	C	1.185007	0.138126	0.529580
C73	C	1.260163	0.106791	0.470406
C74	C	1.268551	0.103294	0.352063
C75	C	1.126624	0.162459	0.352082
C76	C	1.118240	0.165959	0.470422
H77	H	0.884449	0.189273	-0.000027
H78	H	1.372913	0.059793	0.696067
H79	H	1.386269	-0.733734	-0.000049
F80	F	0.948570	0.021546	-0.000006
H81	H	1.056903	-0.112913	0.000031
F82	F	0.719606	0.235493	-0.000043
F83	F	1.514828	-0.254057	-0.000021
H84	H	1.043518	-0.728625	-0.000043
H85	H	1.057046	0.191469	0.518616
F86	F	1.425408	-0.020491	0.000039
H87	H	1.388132	0.053448	0.481383
F88	F	1.055568	0.192085	0.289110
F89	F	0.550452	0.044062	0.000018
F90	F	0.725550	0.009432	0.000015
H91	H	1.399673	-0.118000	0.000002
H92	H	0.513376	0.213252	-0.000021
H93	H	1.489079	-0.351560	-0.000023
H94	H	1.388271	-0.642169	-0.000033
F95	F	1.022025	-0.630417	-0.000064
F96	F	1.509255	-0.509635	-0.000043
H97	H	1.115425	0.167134	0.696116
F98	F	0.933646	-0.349604	-0.000073
H99	H	1.058904	-0.021347	0.000022
F100	F	0.935922	-0.245437	-0.000070
H101	H	1.487778	-0.411413	-0.000030
F102	F	0.930367	-0.501014	-0.000067
H103	H	0.956116	-0.403509	-0.000056
F104	F	1.348542	0.069947	0.289087
