data_functionalizedCrystal
_audit_creation_method	'MofGen! by Chris Wilmer'
_symmetry_space_group_name_H-M	'P1'
_symmetry_Int_Tables_number	1
_symmetry_cell_setting	triclinic
loop_
_symmetry_equiv_pos_as_xyz
  x,y,z
_cell_length_a	20.919309
_cell_length_b	14.446369
_cell_length_c	14.446369
_cell_angle_alpha	119.997408
_cell_angle_beta	89.999137
_cell_angle_gamma	57.442498
loop_
_atom_site_label
_atom_site_type_symbol
_atom_site_fract_x
_atom_site_fract_y
_atom_site_fract_z
Zr1	Zr	0.641772	0.940903	0.085368
O2	O	0.535406	1.145991	0.239164
O3	O	0.674378	0.744115	0.038215
O4	O	0.674384	0.937209	0.231327
O5	O	0.535397	0.952915	-0.106272
O6	O	0.784014	0.924855	0.225152
O7	O	0.535400	0.952896	0.046052
O8	O	0.784003	0.579444	-0.120291
O9	O	0.535407	1.298326	0.239171
O10	O	0.770101	0.812763	0.013504
O11	O	0.688283	0.821997	-0.095565
O12	O	0.688290	1.049341	0.131799
O13	O	0.606472	1.058575	0.022731
Zr14	Zr	0.816613	0.921229	-0.167419
Zr15	Zr	0.816619	0.921199	0.075519
Zr16	Zr	0.641766	0.940934	-0.157571
Zr17	Zr	0.641774	1.183861	0.085379
Zr18	Zr	0.816611	0.678272	-0.167430
O19	O	0.784007	1.118018	-0.120266
O20	O	0.784015	1.117974	0.225161
O21	O	0.535398	1.146034	-0.106263
O22	O	0.922979	0.716142	-0.321215
O23	O	0.922987	0.716098	0.024212
O24	O	0.674370	0.744158	-0.307212
O25	O	0.922989	0.909217	0.024220
O26	O	0.784001	0.924923	-0.313378
O27	O	0.674371	0.937277	-0.307203
O28	O	0.922985	0.909236	-0.128103
O29	O	0.674387	1.282664	0.231343
O30	O	0.783998	0.579468	-0.313394
O31	O	0.922978	0.563806	-0.321222
O32	O	0.922983	0.563782	-0.128119
O33	O	0.535402	1.298351	0.046067
O34	O	0.674382	1.282688	0.038239
O35	O	0.770095	0.812791	-0.213851
O36	O	0.851913	0.803557	-0.104782
O37	O	0.770102	1.040135	0.013514
O38	O	0.688284	1.049370	-0.095555
C39	C	0.729191	0.627163	-0.041039
C40	C	0.729190	0.524021	-0.041044
C41	C	0.677835	0.382808	-0.110176
C42	C	0.677555	0.490459	-0.109869
C43	C	0.691551	0.577244	0.084607
C44	C	0.691165	0.470054	0.084254
C45	C	0.818221	0.280536	-0.096502
C46	C	0.818090	0.386702	-0.099015
C47	C	0.510487	0.955713	-0.028707
C48	C	0.436260	0.964078	-0.024526
C49	C	0.444090	0.844519	-0.084305
C50	C	0.374343	0.852387	-0.080374
C51	C	0.296767	0.979815	-0.016657
C52	C	0.288938	1.099382	0.043124
C53	C	0.358684	1.091513	0.039186
C54	C	0.084043	1.009753	-0.001683
C55	C	0.014295	1.017613	0.002254
C56	C	0.099705	0.770617	-0.121247
C57	C	0.169449	0.762759	-0.125174
C58	C	0.161614	0.882326	-0.065398
C59	C	0.225473	0.987860	-0.012634
C60	C	0.232907	0.874280	-0.069428
C61	C	0.947899	0.906419	-0.053344
C62	C	1.022125	0.898054	-0.057525
C63	C	0.729200	0.931028	0.262853
C64	C	0.729203	0.931015	0.365986
C65	C	0.729195	1.234969	-0.041012
C66	C	0.729195	1.338111	-0.041007
C67	C	0.781061	0.781780	0.438039
C68	C	0.780834	0.781716	0.330727
C69	C	0.640306	1.012255	0.445554
C70	C	0.640593	1.011306	0.552393
C71	C	0.765530	1.000179	0.546930
C72	C	0.767326	0.997282	0.438160
C73	C	0.729191	0.931087	0.655087
C74	C	0.729206	0.931046	0.551926
C75	C	0.947897	0.602516	-0.053358
C76	C	1.022123	0.491009	-0.057544
C77	C	0.729183	0.627201	-0.344918
C78	C	0.729180	0.524073	-0.448056
C79	C	0.947889	0.602555	-0.357237
C80	C	1.022113	0.491061	-0.464556
C81	C	0.510496	1.259578	0.275185
C82	C	0.436272	1.371071	0.382505
C83	C	0.510489	1.259616	-0.028693
C84	C	0.436262	1.371123	-0.024508
C85	C	0.729202	1.234931	0.262867
C86	C	0.729205	1.338060	0.366005
C87	C	1.014275	0.443450	0.002245
C88	C	1.084012	0.338691	-0.001665
C89	C	1.161595	0.281488	-0.065370
C90	C	1.169442	0.329057	-0.125161
C91	C	1.099706	0.433820	-0.121244
C92	C	1.099685	0.433881	-0.458022
C93	C	1.169432	0.329134	-0.558851
C94	C	1.161606	0.281561	-0.666212
C95	C	1.084027	0.338751	-0.672744
C96	C	1.014281	0.443504	-0.571916
C97	C	0.358701	1.428263	0.375970
C98	C	0.288953	1.533041	0.476799
C99	C	0.296779	1.580618	0.584161
C100	C	0.374359	1.523422	0.590693
C101	C	0.444104	1.418653	0.489865
C102	C	0.444110	1.418693	-0.084286
C103	C	0.374374	1.523478	-0.080349
C104	C	0.296790	1.580685	-0.016641
C105	C	0.288944	1.533111	0.043145
C106	C	0.358679	1.428334	0.039214
C107	C	0.677327	0.383607	-0.520122
C108	C	0.677549	0.490495	-0.412805
C109	C	0.818078	0.387207	-0.527620
C110	C	0.817796	0.279871	-0.634465
C111	C	0.692861	0.468923	-0.629005
C112	C	0.691059	0.577588	-0.520231
H113	H	0.702803	0.450915	-0.202255
H114	H	0.507265	1.372088	0.495199
O115	O	0.382851	1.574752	-0.144858
H116	H	0.353143	1.684992	-0.083288
O117	O	0.108152	0.641662	-0.185716
H118	H	0.142018	0.580935	-0.278828
H119	H	1.106072	0.472599	-0.370612
H120	H	1.232595	0.282579	-0.553512
O121	O	0.205288	1.594693	0.469726
H122	H	0.171466	1.705398	0.512910
H123	H	0.628387	0.515761	-0.629489
O124	O	1.075597	0.287410	-0.788548
H125	H	1.105337	0.302645	-0.837219
H126	H	0.599854	1.121123	0.633269
H127	H	0.951121	0.490047	-0.577252
O128	O	0.735882	0.615119	-0.556546
H129	H	0.707421	0.652476	-0.607259
O130	O	0.205264	1.236819	0.111851
H131	H	0.198162	1.294535	0.077955
H132	H	0.380721	1.562173	0.678119
O133	O	0.747999	0.711302	0.438525
H134	H	0.785038	0.606025	0.357766
H135	H	1.106107	0.472530	-0.169938
O136	O	0.855314	0.330043	-0.221677
H137	H	0.857444	0.404733	-0.222564
O138	O	0.221587	1.693678	-0.012436
H139	H	0.184755	1.786147	0.077993
O140	O	1.236836	0.168563	-0.774960
H141	H	1.292088	0.136790	-0.752368
O142	O	-0.069384	1.155057	0.070989
H143	H	-0.103213	1.164547	0.012994
O144	O	1.075537	0.287398	0.062826
H145	H	1.105275	0.177146	0.001249
H146	H	0.077653	1.107113	0.047012
O147	O	0.350244	1.220463	0.103668
H148	H	0.284584	1.310395	0.148647
H149	H	0.507277	1.372122	-0.136172
O150	O	0.604391	0.533726	0.142672
H151	H	0.586683	0.474745	0.081425
H152	H	0.858393	0.404914	-0.557120
O153	O	0.205262	1.594817	0.111859
H154	H	0.158096	1.675656	0.104531
O155	O	0.253118	0.625314	-0.193903
H156	H	0.300301	0.639929	-0.186589
H157	H	0.352313	1.389532	0.288561
O158	O	0.868002	0.697399	0.430021
H159	H	0.882649	0.608741	0.425465
H160	H	0.239980	1.665928	0.666253
H161	H	0.702747	0.450183	-0.360442
H162	H	0.352278	1.389607	0.087891
H163	H	0.626666	0.676858	0.128949
H164	H	0.612088	0.587216	-0.354848
O165	O	0.856875	0.331730	-0.461468
H166	H	0.813007	0.401384	-0.371950
O167	O	0.859867	0.151726	-0.217512
H168	H	0.817571	0.127304	-0.239453
O169	O	0.710382	0.261125	-0.520595
H170	H	0.729632	0.275169	-0.446069
H171	H	0.611697	0.428242	-0.514089
O172	O	0.856304	0.155315	-0.636282
H173	H	0.874948	0.172163	-0.560988
H174	H	0.858534	0.245333	-0.715337
O175	O	0.604309	0.707233	-0.447241
H176	H	0.588401	0.733462	-0.359919
O177	O	0.742644	0.430501	-0.735411
H178	H	0.793007	0.318869	-0.791616
O179	O	0.747448	0.711002	0.261359
H180	H	0.731394	0.676729	0.304426
H181	H	0.611888	0.586656	-0.071174
H182	H	0.726158	0.444135	0.138892
O183	O	0.711099	0.261354	-0.232841
H184	H	0.729984	0.276995	-0.292188
O185	O	0.591367	0.439894	-0.059352
H186	H	0.577245	0.377906	-0.125539
O187	O	0.738704	0.610083	0.156166
H188	H	0.789587	0.588770	0.102806
O189	O	0.586904	1.157984	0.484560
H190	H	0.612720	1.208578	0.533305
H191	H	0.856668	0.250222	-0.046430
O192	O	0.873049	0.408979	-0.039812
H193	H	0.875713	0.481085	-0.044862
O194	O	0.601509	0.951097	0.379405
H195	H	0.645375	0.862872	0.289886
H196	H	0.380726	0.755030	-0.129054
O197	O	0.527762	0.707079	-0.153030
H198	H	0.521486	0.625266	-0.193946
H199	H	0.162303	1.091612	0.039244
O200	O	0.316575	0.736844	-0.138138
H201	H	0.350397	0.727357	-0.205628
O202	O	0.867541	0.697911	0.253931
H203	H	0.910014	0.657059	0.293281
H204	H	0.611514	0.963964	0.553759
H205	H	0.830004	0.947014	0.547412
O206	O	0.854081	0.918722	0.365174
H207	H	0.869988	0.832842	0.277853
H208	H	0.733483	1.105770	0.465586
H209	H	0.727926	1.110082	0.627248
O210	O	0.930599	0.505150	0.070972
H211	H	0.936872	0.454479	0.111896
H212	H	1.218372	0.196183	-0.068551
O213	O	1.253123	0.267343	-0.193881
H214	H	1.300289	0.186494	-0.186565
