data_functionalizedCrystal
_audit_creation_method	'MofGen! by Chris Wilmer'
_symmetry_space_group_name_H-M	'P1'
_symmetry_Int_Tables_number	1
_symmetry_cell_setting	triclinic
loop_
_symmetry_equiv_pos_as_xyz
  x,y,z
_cell_length_a	13.897449
_cell_length_b	21.295417
_cell_length_c	21.295396
_cell_angle_alpha	89.894924
_cell_angle_beta	89.928445
_cell_angle_gamma	90.030528
loop_
_atom_site_label
_atom_site_type_symbol
_atom_site_fract_x
_atom_site_fract_y
_atom_site_fract_z
Zn1	Zn	1.475081	-0.250142	-0.355942
Zn2	Zn	1.474805	-0.355549	-0.250669
Zn3	Zn	1.313634	-0.250299	-0.250684
Zn4	Zn	1.313718	-0.355379	-0.355898
O5	O	1.394310	-0.302842	-0.303298
O6	O	1.610026	-0.264130	-0.341989
O7	O	1.453275	-0.341725	-0.162581
O8	O	1.335131	-0.162189	-0.264671
O9	O	1.609824	-0.341572	-0.264646
O10	O	1.453745	-0.162073	-0.342004
O11	O	1.334864	-0.264398	-0.162592
O12	O	1.178664	-0.264233	-0.264629
O13	O	1.335273	-0.341282	-0.443994
O14	O	1.178725	-0.341434	-0.341929
O15	O	1.453826	-0.263965	-0.444026
O16	O	1.453356	-0.443616	-0.264603
O17	O	1.335006	-0.443491	-0.341915
C18	C	1.143695	-0.302833	-0.303276
C19	C	1.036481	-0.302844	-0.303282
C20	C	0.949412	-0.302846	-0.303292
C21	C	0.840179	-0.302850	-0.303312
C22	C	1.394187	-0.466394	-0.303266
C23	C	1.394222	-0.536362	-0.303274
C24	C	1.455949	-0.569111	-0.343570
C25	C	1.455984	-0.634854	-0.343585
C26	C	1.394301	-0.667845	-0.303294
C27	C	1.332562	-0.635087	-0.262995
C28	C	1.332522	-0.569346	-0.262985
N29	N	1.386940	-0.771178	-0.248202
N30	N	1.386983	-0.833630	-0.248214
C31	C	1.394413	-0.865919	-0.303322
N32	N	1.401818	-0.833398	-0.358420
N33	N	1.401780	-0.770941	-0.358408
C34	C	1.394336	-0.739130	-0.303300
C35	C	1.456181	-0.969954	-0.343638
C36	C	1.456208	-1.035698	-0.343655
C37	C	1.332791	-1.035930	-0.263059
C38	C	1.332759	-0.970187	-0.263048
C39	C	1.394459	-0.937203	-0.303337
C40	C	1.645903	-0.302853	-0.303321
C41	C	1.753117	-0.302857	-0.303330
C42	C	1.394590	-0.302587	-0.467489
C43	C	1.394709	-0.302478	-0.537458
C44	C	1.394459	-0.138652	-0.303344
C45	C	1.394523	-0.068684	-0.303364
C46	C	1.394086	-0.303051	-0.139746
C47	C	1.394154	-0.302983	-0.069778
C48	C	1.332589	-0.262539	0.429643
C49	C	1.332513	-0.262604	0.363901
C50	C	1.394576	-0.302600	0.331060
C51	C	1.456701	-0.342547	0.363967
C52	C	1.456767	-0.342486	0.429709
N53	N	1.478952	-0.307128	0.227747
N54	N	1.478886	-0.307183	0.165296
C55	C	1.394376	-0.302788	0.132986
N56	N	1.309934	-0.298324	0.165486
N57	N	1.310001	-0.298266	0.227943
C58	C	1.394510	-0.302671	0.259775
C59	C	1.332169	-0.262916	0.028801
C60	C	1.332092	-0.262985	-0.036942
C61	C	1.456288	-0.342925	-0.036874
C62	C	1.456356	-0.342860	0.028868
C63	C	1.394298	-0.302852	0.061702
H64	H	1.506187	-0.542258	-0.376377
H65	H	1.506473	-1.062361	-0.376471
H66	H	1.507232	-0.375112	0.337224
H67	H	1.506241	-0.661524	-0.376406
H68	H	1.282052	-0.229964	0.456373
H69	H	1.282561	-1.062790	-0.230257
H70	H	1.282256	-0.542681	-0.230171
H71	H	1.506822	-0.375490	-0.063613
H72	H	1.282499	-0.943521	-0.230233
H73	H	1.507358	-0.375008	0.456495
H74	H	1.506944	-0.375381	0.055655
H75	H	1.281499	-0.230464	-0.063728
H76	H	1.282337	-0.661953	-0.230191
H77	H	1.281929	-0.230078	0.337109
H78	H	1.506418	-0.943097	-0.376446
H79	H	1.281637	-0.230340	0.055536
