data_functionalizedCrystal
_audit_creation_method	'MofGen! by Chris Wilmer'
_symmetry_space_group_name_H-M	'P1'
_symmetry_Int_Tables_number	1
_symmetry_cell_setting	triclinic
loop_
_symmetry_equiv_pos_as_xyz
  x,y,z
_cell_length_a	14.519731
_cell_length_b	17.000371
_cell_length_c	12.996460
_cell_angle_alpha	89.993316
_cell_angle_beta	89.994327
_cell_angle_gamma	79.644050
loop_
_atom_site_label
_atom_site_type_symbol
_atom_site_fract_x
_atom_site_fract_y
_atom_site_fract_z
O1	O	1.215191	0.104406	-0.085570
O2	O	1.548524	0.437739	0.247764
O3	O	1.881857	0.771073	0.581097
O4	O	0.945698	0.116674	-0.085571
O5	O	1.279032	0.450007	0.247762
O6	O	1.612365	0.783341	0.581095
O7	O	1.097178	-0.005301	-0.085563
O8	O	1.430511	0.328032	0.247770
O9	O	1.763844	0.661365	0.581104
O10	O	1.063711	0.226381	-0.085578
O11	O	1.397044	0.559715	0.247756
O12	O	1.730378	0.893048	0.581089
O13	O	1.097164	-0.005308	0.085571
O14	O	1.430497	0.328025	0.418904
O15	O	1.763830	0.661358	0.752237
O16	O	0.945684	0.116667	0.085563
O17	O	1.279017	0.450000	0.418896
O18	O	1.612351	0.783334	0.752229
O19	O	1.215177	0.104399	0.085564
O20	O	1.548510	0.437733	0.418898
O21	O	1.881843	0.771066	0.752231
Cu22	Cu	1.080429	0.110533	0.101189
Cu23	Cu	1.413762	0.443866	0.434523
Cu24	Cu	1.747096	0.777199	0.767856
Cu25	Cu	1.080446	0.110541	-0.101196
Cu26	Cu	1.413779	0.443874	0.232137
Cu27	Cu	1.747112	0.777207	0.565470
O28	O	1.063697	0.226375	0.085556
O29	O	1.397030	0.559708	0.418889
O30	O	1.730364	0.893041	0.752223
C31	C	0.911379	0.116096	-0.000004
C32	C	1.244713	0.449429	0.333329
C33	C	1.578046	0.782762	0.666662
C34	C	0.809142	0.114373	-0.000005
C35	C	1.142475	0.447706	0.333328
C36	C	1.475809	0.781040	0.666662
C37	C	0.726114	0.112974	-0.000009
C38	C	1.059447	0.446307	0.333324
C39	C	1.392781	0.779640	0.666658
C40	C	0.621951	0.111225	-0.000009
C41	C	0.955284	0.444558	0.333324
C42	C	1.288617	0.777891	0.666657
C43	C	0.538927	0.109837	-0.000009
C44	C	0.872260	0.443170	0.333324
C45	C	1.205593	0.776503	0.666658
C46	C	0.434756	0.108088	-0.000011
C47	C	0.768090	0.441421	0.333322
C48	C	1.101423	0.774755	0.666655
C49	C	1.098968	-0.034956	0.000004
C50	C	1.432302	0.298377	0.333337
C51	C	1.765635	0.631711	0.666670
C52	C	1.104313	-0.123307	0.000003
C53	C	1.437647	0.210027	0.333336
C54	C	1.770980	0.543360	0.666669
C55	C	1.022057	-0.155455	-0.000002
C56	C	1.355391	0.177879	0.333331
C57	C	1.688724	0.511212	0.666664
C58	C	1.027085	-0.238470	0.000000
C59	C	1.360419	0.094863	0.333334
C60	C	1.693752	0.428197	0.666667
C61	C	1.114370	-0.289336	0.000001
C62	C	1.447703	0.043997	0.333334
C63	C	1.781037	0.377331	0.666668
C64	C	1.196633	-0.257183	0.000009
C65	C	1.529966	0.076150	0.333342
C66	C	1.863299	0.409484	0.666676
C67	C	1.191604	-0.174169	0.000014
C68	C	1.524937	0.159164	0.333347
C69	C	1.858270	0.492498	0.666680
C70	C	1.133795	-0.540453	-0.000006
C71	C	1.467128	-0.207120	0.333327
C72	C	1.800462	0.126214	0.666661
C73	C	1.138817	-0.623472	-0.000014
C74	C	1.472151	-0.290139	0.333320
C75	C	1.805484	0.043194	0.666653
C76	C	0.969269	-0.604754	-0.000020
C77	C	1.302603	-0.271420	0.333313
C78	C	1.635936	0.061913	0.666646
C79	C	0.964248	-0.521739	-0.000022
C80	C	1.297582	-0.188405	0.333311
C81	C	1.630915	0.144928	0.666645
C82	C	1.046511	-0.489593	-0.000008
C83	C	1.379844	-0.156260	0.333325
C84	C	1.713177	0.177074	0.666658
C85	C	1.119512	-0.374191	0.000001
C86	C	1.452845	-0.040858	0.333334
C87	C	1.786178	0.292475	0.666667
C88	C	1.041368	-0.404739	-0.000001
C89	C	1.374702	-0.071406	0.333333
C90	C	1.708035	0.261928	0.666666
C91	C	1.249495	0.104978	-0.000005
C92	C	1.582829	0.438311	0.333329
C93	C	1.916162	0.771644	0.666662
C94	C	1.351733	0.106700	-0.000011
C95	C	1.685066	0.440033	0.333322
C96	C	2.018399	0.773367	0.666656
C97	C	1.061906	0.256029	-0.000013
C98	C	1.395240	0.589362	0.333321
C99	C	1.728573	0.922696	0.666654
C100	C	1.056561	0.344380	-0.000019
C101	C	1.389895	0.677713	0.333315
C102	C	1.723228	1.011046	0.666648
N103	N	1.080424	0.110526	0.243536
N104	N	1.413757	0.443860	0.576870
N105	N	1.747091	0.777193	0.910203
N106	N	1.080459	0.110540	-0.243543
N107	N	1.413792	0.443874	0.089790
N108	N	1.747125	0.777207	0.423123
C109	C	1.080444	0.110541	0.663351
C110	C	1.413778	0.443875	0.996684
C111	C	1.747111	0.777208	1.330017
C112	C	1.080436	0.110540	0.546546
C113	C	1.413769	0.443873	0.879879
C114	C	1.747102	0.777207	1.213212
C115	C	1.080435	0.110535	0.453447
C116	C	1.413768	0.443868	0.786781
C117	C	1.747101	0.777201	1.120114
C118	C	1.080425	0.110532	0.336635
C119	C	1.413758	0.443865	0.669968
C120	C	1.747092	0.777198	1.003301
H121	H	0.950980	-0.114044	-0.000008
H122	H	1.284314	0.219289	0.333326
H123	H	1.617647	0.552622	0.666659
H124	H	0.960103	-0.264640	-0.000011
H125	H	1.293437	0.068693	0.333322
H126	H	1.626770	0.402026	0.666655
F127	F	0.871348	-0.467609	-0.000032
F128	F	1.204681	-0.134275	0.333302
F129	F	1.538014	0.199058	0.666635
H130	H	1.209899	-0.664887	-0.000020
H131	H	1.543232	-0.331553	0.333313
H132	H	1.876566	0.001780	0.666647
F133	F	1.221346	-0.506252	-0.000019
F134	F	1.554680	-0.172918	0.333314
F135	F	1.888013	0.160415	0.666647
F136	F	1.289528	-0.311321	0.000021
F137	F	1.622862	0.022013	0.333354
F138	F	1.956195	0.355346	0.666687
F139	F	0.881726	-0.638972	-0.000034
F140	F	1.215060	-0.305639	0.333300
F141	F	1.548393	0.027695	0.666633
F142	F	1.279152	-0.139956	0.000028
F143	F	1.612485	0.193378	0.333361
F144	F	1.945819	0.526711	0.666694
H145	H	0.970301	-0.363320	0.000005
H146	H	1.303635	-0.029987	0.333339
H147	H	1.636968	0.303346	0.666672
F148	F	1.212404	-0.428334	0.000004
F149	F	1.545738	-0.095000	0.333338
F150	F	1.879071	0.238333	0.666671
