data_functionalizedCrystal
_audit_creation_method	'MofGen! by Chris Wilmer'
_symmetry_space_group_name_H-M	'P1'
_symmetry_Int_Tables_number	1
_symmetry_cell_setting	triclinic
loop_
_symmetry_equiv_pos_as_xyz
  x,y,z
_cell_length_a	16.625546
_cell_length_b	21.395362
_cell_length_c	21.395355
_cell_angle_alpha	89.997168
_cell_angle_beta	89.981524
_cell_angle_gamma	90.043196
loop_
_atom_site_label
_atom_site_type_symbol
_atom_site_fract_x
_atom_site_fract_y
_atom_site_fract_z
Zn1	Zn	-0.320649	0.957895	-0.353899
Zn2	Zn	0.012684	1.291228	-0.020565
Zn3	Zn	0.346017	1.624562	0.312768
Zn4	Zn	-0.455464	0.957813	-0.249121
Zn5	Zn	-0.122131	1.291146	0.084212
Zn6	Zn	0.211202	1.624479	0.417545
Zn7	Zn	-0.320698	0.853110	-0.249175
Zn8	Zn	0.012635	1.186443	0.084158
Zn9	Zn	0.345969	1.519777	0.417492
Zn10	Zn	-0.455492	0.853094	-0.353901
Zn11	Zn	-0.122159	1.186428	-0.020568
Zn12	Zn	0.211174	1.519761	0.312766
O13	O	-0.388076	0.905478	-0.301524
O14	O	-0.054743	1.238811	0.031809
O15	O	0.278591	1.572145	0.365143
O16	O	-0.338501	1.045562	-0.339976
O17	O	-0.005167	1.378895	-0.006643
O18	O	0.328166	1.712229	0.326691
O19	O	-0.437596	0.943896	-0.161450
O20	O	-0.104263	1.277229	0.171883
O21	O	0.229071	1.610562	0.505216
O22	O	-0.207859	0.867051	-0.263088
O23	O	0.125474	1.200384	0.070245
O24	O	0.458807	1.533718	0.403578
O25	O	-0.437549	1.045501	-0.262997
O26	O	-0.104215	1.378835	0.070337
O27	O	0.229118	1.712168	0.403670
O28	O	-0.207823	0.944036	-0.340028
O29	O	0.125510	1.277370	-0.006695
O30	O	0.458843	1.610703	0.326638
O31	O	-0.338584	0.866971	-0.161490
O32	O	-0.005251	1.200305	0.171843
O33	O	0.328083	1.533638	0.505177
O34	O	-0.338611	0.765430	-0.263091
O35	O	-0.005278	1.098763	0.070243
O36	O	0.328056	1.432097	0.403576
O37	O	-0.437596	0.867024	-0.441579
O38	O	-0.104263	1.200358	-0.108245
O39	O	0.229070	1.533691	0.225088
O40	O	-0.437644	0.765419	-0.340032
O41	O	-0.104310	1.098752	-0.006699
O42	O	0.229023	1.432085	0.326634
O43	O	-0.338528	0.944021	-0.441577
O44	O	-0.005194	1.277354	-0.108243
O45	O	0.328139	1.610688	0.225090
O46	O	-0.568300	0.943880	-0.262999
O47	O	-0.234967	1.277214	0.070334
O48	O	0.098366	1.610547	0.403668
O49	O	-0.568321	0.866944	-0.339980
O50	O	-0.234988	1.200278	-0.006647
O51	O	0.098346	1.533611	0.326686
C52	C	-0.597567	0.905419	-0.301498
C53	C	-0.264234	1.238752	0.031836
C54	C	0.069100	1.572085	0.365169
C55	C	-0.687188	0.905451	-0.301507
C56	C	-0.353855	1.238784	0.031826
C57	C	-0.020521	1.572117	0.365159
C58	C	-0.388060	0.905530	-0.464947
C59	C	-0.054726	1.238863	-0.131614
C60	C	0.278607	1.572197	0.201719
C61	C	-0.388053	0.905552	-0.534589
C62	C	-0.054719	1.238886	-0.201255
C63	C	0.278614	1.572219	0.132078
C64	C	-0.388016	1.068901	-0.301480
C65	C	-0.054683	1.402235	0.031853
C66	C	0.278651	1.735568	0.365187
C67	C	-0.387990	1.138543	-0.301461
C68	C	-0.054657	1.471876	0.031872
C69	C	0.278676	1.805209	0.365205
C70	C	-1.015363	0.905560	-0.301573
C71	C	-0.682030	1.238893	0.031761
C72	C	-0.348697	1.572227	0.365094
C73	C	-0.924055	0.905528	-0.301556
C74	C	-0.590722	1.238861	0.031777
C75	C	-0.257388	1.572194	0.365110
C76	C	-0.851279	0.905505	-0.301540
C77	C	-0.517945	1.238838	0.031794
C78	C	-0.184612	1.572172	0.365127
C79	C	-0.759964	0.905473	-0.301524
C80	C	-0.426631	1.238807	0.031809
C81	C	-0.093298	1.572140	0.365143
C82	C	-0.177767	0.905555	-0.301564
C83	C	0.155566	1.238888	0.031769
C84	C	0.488900	1.572221	0.365103
C85	C	-0.088146	0.905587	-0.301581
C86	C	0.245187	1.238921	0.031752
C87	C	0.578521	1.572254	0.365086
C88	C	-0.388136	0.742690	-0.301568
C89	C	-0.054803	1.076024	0.031765
C90	C	0.278530	1.409357	0.365099
C91	C	-0.388182	0.673049	-0.301602
C92	C	-0.054848	1.006382	0.031732
C93	C	0.278485	1.339716	0.365065
C94	C	-0.336431	1.171288	-0.341543
C95	C	-0.003097	1.504622	-0.008210
C96	C	0.330236	1.837955	0.325123
C97	C	-0.336457	1.236724	-0.341565
C98	C	-0.003123	1.570057	-0.008232
C99	C	0.330210	1.903390	0.325102
C100	C	-0.388034	1.269411	-0.301493
C101	C	-0.054701	1.602744	0.031840
C102	C	0.278633	1.936078	0.365174
C103	C	-0.439604	1.236657	-0.261408
C104	C	-0.106270	1.569991	0.071925
C105	C	0.227063	1.903324	0.405259
C106	C	-0.439582	1.171223	-0.261392
C107	C	-0.106249	1.504557	0.071941
C108	C	0.227085	1.837890	0.405274
C109	C	-0.394438	1.373084	-0.245067
C110	C	-0.061105	1.706417	0.088266
C111	C	0.272229	2.039751	0.421599
C112	C	-0.394454	1.438517	-0.245082
C113	C	-0.061121	1.771850	0.088251
C114	C	0.272213	2.105184	0.421585
C115	C	-0.388106	1.471232	-0.301542
C116	C	-0.054772	1.804565	0.031791
C117	C	0.278561	2.137898	0.365125
C118	C	-0.381724	1.438505	-0.357989
C119	C	-0.048391	1.771839	-0.024656
C120	C	0.284943	2.105172	0.308677
C121	C	-0.381702	1.373071	-0.357973
C122	C	-0.048369	1.706404	-0.024640
C123	C	0.284964	2.039738	0.308693
C124	C	-0.388064	1.340363	-0.301506
C125	C	-0.054730	1.673697	0.031827
C126	C	0.278603	2.007030	0.365161
C127	C	-0.336571	1.574930	-0.341651
C128	C	-0.003238	1.908263	-0.008318
C129	C	0.330095	2.241596	0.325016
C130	C	-0.336603	1.640366	-0.341673
C131	C	-0.003270	1.973700	-0.008340
C132	C	0.330064	2.307033	0.324993
C133	C	-0.439746	1.640299	-0.261511
C134	C	-0.106412	1.973632	0.071822
C135	C	0.226921	2.306966	0.405156
C136	C	-0.439718	1.574864	-0.261494
C137	C	-0.106385	1.908197	0.071839
C138	C	0.226949	2.241530	0.405173
C139	C	-0.388127	1.542183	-0.301563
C140	C	-0.054793	1.875516	0.031770
C141	C	0.278540	2.208850	0.365103
C142	C	-0.336465	0.945643	-0.567302
C143	C	-0.003132	1.278976	-0.233968
C144	C	0.330201	1.612309	0.099365
C145	C	-0.336431	0.945642	-0.632737
C146	C	-0.003097	1.278975	-0.299404
C147	C	0.330236	1.612308	0.033929
C148	C	-0.387998	0.905557	-0.665457
C149	C	-0.054664	1.238890	-0.332124
C150	C	0.278669	1.572224	0.001210
C151	C	-0.439589	0.865459	-0.632736
C152	C	-0.106255	1.198792	-0.299403
C153	C	0.227078	1.532126	0.033931
C154	C	-0.439616	0.865456	-0.567302
C155	C	-0.106283	1.198790	-0.233968
C156	C	0.227051	1.532123	0.099365
C157	C	-0.460601	0.900589	-0.769124
C158	C	-0.127267	1.233923	-0.435791
C159	C	0.206066	1.567256	-0.102458
C160	C	-0.460575	0.900596	-0.834557
C161	C	-0.127241	1.233929	-0.501224
C162	C	0.206092	1.567263	-0.167891
C163	C	-0.387913	0.905561	-0.867278
C164	C	-0.054579	1.238894	-0.533944
C165	C	0.278754	1.572228	-0.200611
C166	C	-0.315274	0.910532	-0.834557
C167	C	0.018059	1.243865	-0.501224
C168	C	0.351392	1.577199	-0.167891
C169	C	-0.315302	0.910530	-0.769123
C170	C	0.018032	1.243863	-0.435790
C171	C	0.351365	1.577196	-0.102456
C172	C	-0.387973	0.905555	-0.736409
C173	C	-0.054640	1.238888	-0.403076
C174	C	0.278693	1.572222	-0.069743
C175	C	-0.336283	0.945653	-0.970944
C176	C	-0.002950	1.278986	-0.637610
C177	C	0.330383	1.612319	-0.304277
C178	C	-0.336247	0.945647	-1.036380
C179	C	-0.002914	1.278981	-0.703047
C180	C	0.330419	1.612314	-0.369714
C181	C	-0.439412	0.865468	-1.036378
C182	C	-0.106079	1.198801	-0.703044
C183	C	0.227254	1.532134	-0.369711
C184	C	-0.439441	0.865470	-0.970942
C185	C	-0.106108	1.198803	-0.637609
C186	C	0.227226	1.532136	-0.304276
C187	C	-0.387878	0.905565	-0.938229
C188	C	-0.054544	1.238899	-0.604896
C189	C	0.278789	1.572232	-0.271562
C190	C	-0.388034	0.905462	-0.138736
C191	C	-0.054701	1.238796	0.194597
C192	C	0.278633	1.572129	0.527930
C193	C	-0.387814	0.905562	-0.069095
C194	C	-0.054480	1.238895	0.264238
C195	C	0.278853	1.572228	0.597571
H196	H	-0.294424	1.144684	-0.374174
H197	H	0.038909	1.478017	-0.040840
H198	H	0.372242	1.811350	0.292493
H199	H	-0.256106	0.914576	-0.861197
H200	H	0.077227	1.247909	-0.527863
H201	H	0.410561	1.581243	-0.194530
F202	F	-0.494288	0.822801	-1.071196
F203	F	-0.160955	1.156135	-0.737863
F204	F	0.172378	1.489468	-0.404529
H205	H	-0.376550	1.465140	-0.403964
H206	H	-0.043217	1.798473	-0.070631
H207	H	0.290116	2.131807	0.262703
F208	F	-0.494467	0.822796	-0.667559
F209	F	-0.161134	1.156129	-0.334226
F210	F	0.172199	1.489463	-0.000893
F211	F	-0.281576	1.271581	-0.384227
F212	F	0.051757	1.604914	-0.050893
F213	F	0.385090	1.938248	0.282440
F214	F	-0.401233	1.473341	-0.185006
F215	F	-0.067899	1.806674	0.148327
F216	F	0.265434	2.140007	0.481661
F217	F	-0.237997	0.915817	-0.734302
F218	F	0.095336	1.249150	-0.400968
F219	F	0.428669	1.582484	-0.067635
H220	H	-0.294478	0.978291	-0.540671
H221	H	0.038856	1.311624	-0.207337
H222	H	0.372189	1.644958	0.125996
H223	H	-0.481623	0.832807	-0.540667
H224	H	-0.148290	1.166140	-0.207334
H225	H	0.185043	1.499474	0.126000
F226	F	-0.374916	1.338244	-0.418047
F227	F	-0.041582	1.671577	-0.084713
F228	F	0.291751	2.004910	0.248620
H229	H	-0.481700	1.548202	-0.228852
H230	H	-0.148367	1.881535	0.104481
H231	H	0.184966	2.214868	0.437815
F232	F	-0.281666	1.540146	-0.384297
F233	F	0.051667	1.873480	-0.050964
F234	F	0.385000	2.206813	0.282370
F235	F	-0.281509	0.988303	-0.667560
F236	F	0.051824	1.321636	-0.334227
F237	F	0.385158	1.654970	-0.000893
F238	F	-0.281403	0.988323	-0.936126
F239	F	0.051931	1.321656	-0.602792
F240	F	0.385264	1.654990	-0.269459
F241	F	-0.401206	1.338273	-0.184971
F242	F	-0.067873	1.671606	0.148362
F243	F	0.265461	2.004940	0.481695
H244	H	-0.481454	0.832827	-0.944307
H245	H	-0.148121	1.166161	-0.610974
H246	H	0.185213	1.499494	-0.277640
F247	F	-0.281347	0.988327	-1.071196
F248	F	0.051986	1.321660	-0.737863
F249	F	0.385319	1.654993	-0.404529
H250	H	-0.294619	1.667027	-0.374318
H251	H	0.038714	2.000360	-0.040984
H252	H	0.372048	2.333693	0.292349
H253	H	-0.481747	1.666912	-0.228889
H254	H	-0.148414	2.000245	0.104445
H255	H	0.184920	2.333579	0.437778
H256	H	-0.481600	1.263275	-0.228783
H257	H	-0.148267	1.596609	0.104550
H258	H	0.185066	1.929942	0.437884
H259	H	-0.519721	0.896552	-0.861194
H260	H	-0.186388	1.229885	-0.527860
H261	H	0.146946	1.563219	-0.194527
H262	H	-0.481570	1.144562	-0.228752
H263	H	-0.148236	1.477895	0.104582
H264	H	0.185097	1.811229	0.437915
H265	H	-0.519756	0.896379	-0.742489
H266	H	-0.186423	1.229712	-0.409156
H267	H	0.146911	1.563045	-0.075822
