data_functionalizedCrystal
_audit_creation_method	'MofGen! by Chris Wilmer'
_symmetry_space_group_name_H-M	'P1'
_symmetry_Int_Tables_number	1
_symmetry_cell_setting	triclinic
loop_
_symmetry_equiv_pos_as_xyz
  x,y,z
_cell_length_a	6.817900
_cell_length_b	12.908943
_cell_length_c	13.212833
_cell_angle_alpha	89.852088
_cell_angle_beta	106.298119
_cell_angle_gamma	100.860631
loop_
_atom_site_label
_atom_site_type_symbol
_atom_site_fract_x
_atom_site_fract_y
_atom_site_fract_z
V1	V	-4.004569	-0.315030	-0.143204
O2	O	-3.983830	-0.323209	0.008223
O3	O	-3.964581	-0.299242	-0.285240
O4	O	-3.942683	-0.458646	-0.140413
O5	O	-4.005879	-0.162702	-0.137607
V6	V	-4.488854	-0.298467	-0.125161
O7	O	-4.264155	-0.351364	-0.182783
O8	O	-4.679466	-0.262133	-0.085583
O9	O	-4.305636	-0.314255	0.016875
O10	O	-4.626990	-0.290288	-0.276589
O11	O	-4.604941	-0.450795	-0.130759
O12	O	-4.327534	-0.154851	-0.127953
C13	C	-3.812064	-0.290754	-0.319884
C14	C	-3.860566	-0.278803	-0.435996
C15	C	-3.896817	-0.166818	-0.585126
C16	C	-3.851237	-0.178037	-0.476026
C17	C	-3.915475	-0.368355	-0.505075
C18	C	-3.961055	-0.357135	-0.614174
C19	C	-3.951726	-0.256364	-0.654195
C20	C	-3.997322	-0.245145	-0.763298
C21	C	-4.061545	-0.435461	-0.792343
C22	C	-4.015965	-0.446681	-0.683244
C23	C	-3.784131	-0.494089	-0.135141
C24	C	-3.814871	-0.611405	-0.133798
C25	C	-4.236501	-0.841604	-0.141641
C26	C	-4.265394	-0.951835	-0.140380
C27	C	-3.901549	-0.942097	-0.130008
C28	C	-3.872656	-0.831867	-0.131269
C29	C	-4.040141	-0.781625	-0.137087
C30	C	-4.011249	-0.671393	-0.138355
C31	C	-3.647403	-0.661658	-0.127976
C32	C	-3.676296	-0.771888	-0.126716
C33	C	-4.121495	-0.322739	0.051513
C34	C	-4.052231	-0.334698	0.167624
C35	C	-4.149429	-0.119402	-0.133228
C36	C	-4.097927	-0.002085	-0.134565
H37	H	-3.989728	-0.163092	-0.795881
H38	H	-4.023545	-0.528726	-0.650643
H39	H	-4.106256	-0.508376	-0.848593
C40	C	-4.195482	-0.616128	-0.144750
N41	N	-4.334252	-0.574506	-0.149562
H42	H	-3.923040	-0.450398	-0.472469
H43	H	-4.372879	-0.800697	-0.146389
H44	H	-4.425286	-1.000666	-0.144088
C45	C	-3.717234	-0.997368	-0.123376
N46	N	-3.578369	-1.038995	-0.118300
H47	H	-3.889235	-0.084766	-0.617712
H48	H	-3.806521	-0.105120	-0.419792
H49	H	-3.539941	-0.812810	-0.121975
H50	H	-3.487511	-0.612810	-0.124273
