data_functionalizedCrystal
_audit_creation_method	'MofGen! by Chris Wilmer'
_symmetry_space_group_name_H-M	'P1'
_symmetry_Int_Tables_number	1
_symmetry_cell_setting	triclinic
loop_
_symmetry_equiv_pos_as_xyz
  x,y,z
_cell_length_a	25.639239
_cell_length_b	17.639504
_cell_length_c	25.639234
_cell_angle_alpha	101.235352
_cell_angle_beta	89.978894
_cell_angle_gamma	78.779592
loop_
_atom_site_label
_atom_site_type_symbol
_atom_site_fract_x
_atom_site_fract_y
_atom_site_fract_z
Zn1	Zn	-0.046912	-1.208400	-0.457509
Zn2	Zn	0.453088	-0.708400	0.042491
Zn3	Zn	-0.134349	-1.208290	-0.370058
Zn4	Zn	0.365651	-0.708290	0.129942
Zn5	Zn	-0.064557	-1.076222	-0.352378
Zn6	Zn	0.435443	-0.576222	0.147622
Zn7	Zn	-0.151973	-1.076133	-0.439757
Zn8	Zn	0.348027	-0.576133	0.060243
O9	O	-0.099448	-1.142261	-0.404926
O10	O	0.400552	-0.642261	0.095074
O11	O	-0.043751	-1.319010	-0.460737
O12	O	0.456249	-0.819010	0.039263
O13	O	-0.125100	-1.190761	-0.294547
O14	O	0.374900	-0.690761	0.205453
O15	O	0.010960	-1.093839	-0.366354
O16	O	0.510960	-0.593839	0.133646
O17	O	-0.107991	-1.318929	-0.396487
O18	O	0.392009	-0.818929	0.103513
O19	O	0.023924	-1.190949	-0.443593
O20	O	0.523924	-0.690949	0.056407
O21	O	-0.073824	-1.093732	-0.281557
O22	O	0.426176	-0.593732	0.218443
O23	O	-0.090913	-0.965585	-0.349141
O24	O	0.409087	-0.465585	0.150859
O25	O	-0.138027	-1.093688	-0.515278
O26	O	0.361973	-0.593688	-0.015278
O27	O	-0.155137	-0.965520	-0.413337
O28	O	0.344863	-0.465520	0.086663
O29	O	-0.060839	-1.190863	-0.528320
O30	O	0.439161	-0.690863	-0.028320
O31	O	-0.209863	-1.190676	-0.379274
O32	O	0.290137	-0.690676	0.120726
O33	O	-0.222811	-1.093581	-0.430481
O34	O	0.277189	-0.593581	0.069519
C35	C	-0.126852	-0.936869	-0.377395
C36	C	0.373148	-0.436869	0.122605
C37	C	-0.138589	-0.849001	-0.365629
C38	C	0.361411	-0.349001	0.134371
C39	C	-0.010239	-0.560197	-0.494427
C40	C	0.489761	-0.060197	0.005573
C41	C	-0.021280	-0.477632	-0.483361
C42	C	0.478720	0.022368	0.016639
C43	C	-0.088062	-0.477570	-0.416362
C44	C	0.411938	0.022430	0.083638
C45	C	-0.077028	-0.560136	-0.427424
C46	C	0.422972	-0.060136	0.072576
C47	C	-0.038115	-0.601444	-0.466457
C48	C	0.461885	-0.101444	0.033543
C49	C	-0.104905	-0.601383	-0.399454
C50	C	0.395095	-0.101383	0.100546
C51	C	-0.093870	-0.683943	-0.410513
C52	C	0.406130	-0.183943	0.089487
C53	C	-0.054958	-0.725256	-0.449543
C54	C	0.445042	-0.225256	0.050457
C55	C	-0.027080	-0.684003	-0.477516
C56	C	0.472920	-0.184003	0.022484
C57	C	-0.143814	-0.560074	-0.360418
C58	C	0.356186	-0.060074	0.139582
C59	C	-0.171691	-0.601321	-0.332448
C60	C	0.328309	-0.101321	0.167552
C61	C	-0.160659	-0.683882	-0.343510
C62	C	0.339341	-0.183882	0.156490
C63	C	-0.121747	-0.725195	-0.382540
C64	C	0.378253	-0.225195	0.117460
C65	C	-0.188536	-0.725134	-0.315537
C66	C	0.311464	-0.225134	0.184463
C67	C	-0.177501	-0.807694	-0.326596
C68	C	0.322499	-0.307694	0.173404
C69	C	-0.110712	-0.807754	-0.393599
C70	C	0.389288	-0.307754	0.106401
C71	C	-0.235308	-1.142128	-0.404884
C72	C	0.264692	-0.642128	0.095116
C73	C	-0.293420	-1.142144	-0.404893
C74	C	0.206580	-0.642144	0.095107
C75	C	-0.646995	-1.192950	-0.378337
C76	C	-0.146995	-0.692950	0.121663
C77	C	-0.701596	-1.192981	-0.378348
C78	C	-0.201596	-0.692981	0.121652
O79	O	-0.724079	-1.236040	-0.355724
O80	O	-0.224079	-0.736040	0.144276
N81	N	-0.735668	-1.142400	-0.404979
N82	N	-0.235668	-0.642400	0.095021
C83	C	-0.715138	-1.091791	-0.431605
C84	C	-0.215138	-0.591791	0.068395
O85	O	-0.749133	-1.048771	-0.454258
O86	O	-0.249133	-0.548771	0.045742
C87	C	-0.660538	-1.091765	-0.431597
C88	C	-0.160538	-0.591765	0.068403
C89	C	-0.626468	-1.142343	-0.404960
C90	C	-0.126468	-0.642343	0.095040
C91	C	-0.612926	-1.243525	-0.351702
C92	C	-0.112926	-0.743525	0.148298
C93	C	-0.558330	-1.243493	-0.351690
C94	C	-0.058330	-0.743493	0.148310
C95	C	-0.537803	-1.192886	-0.378313
C96	C	-0.037803	-0.692886	0.121687
C97	C	-0.571872	-1.142311	-0.404948
C98	C	-0.071872	-0.642311	0.095052
C99	C	-0.640008	-1.041160	-0.458226
C100	C	-0.140008	-0.541160	0.041774
C101	C	-0.585403	-1.041139	-0.458216
C102	C	-0.085403	-0.541139	0.041784
C103	C	-0.551334	-1.091717	-0.431578
C104	C	-0.051334	-0.591717	0.068422
C105	C	-0.496749	-1.091673	-0.431559
C106	C	0.003251	-0.591673	0.068441
N107	N	-0.462676	-1.142253	-0.404928
N108	N	0.037324	-0.642253	0.095072
C109	C	-0.483203	-1.192860	-0.378305
C110	C	0.016797	-0.692860	0.121695
C111	C	-0.829800	-1.091850	-0.431621
C112	C	-0.329800	-0.591850	0.068379
C113	C	-0.884400	-1.091872	-0.431626
C114	C	-0.384400	-0.591872	0.068374
C115	C	-0.870854	-1.193063	-0.378370
C116	C	-0.370854	-0.693063	0.121630
C117	C	-0.816254	-1.193037	-0.378362
C118	C	-0.316254	-0.693037	0.121638
C119	C	-0.795728	-1.142431	-0.404990
C120	C	-0.295728	-0.642431	0.095010
C121	C	-0.368547	-1.192789	-0.378282
C122	C	0.131453	-0.692789	0.121718
C123	C	-0.313947	-1.192750	-0.378270
C124	C	0.186053	-0.692750	0.121730
C125	C	-0.327498	-1.091563	-0.431529
C126	C	0.172502	-0.591563	0.068471
C127	C	-0.382093	-1.091598	-0.431538
C128	C	0.117907	-0.591598	0.068462
C129	C	-0.402616	-1.142218	-0.404914
C130	C	0.097384	-0.642218	0.095086
O131	O	-0.474227	-1.048637	-0.454173
O132	O	0.025773	-0.548637	0.045827
O133	O	-0.449201	-1.235880	-0.355661
O134	O	0.050799	-0.735880	0.144339
C135	C	0.036946	-1.142416	-0.404982
C136	C	0.536946	-0.642416	0.095018
C137	C	0.095069	-1.142482	-0.405006
C138	C	0.595069	-0.642482	0.094994
C139	C	-0.099431	-1.142278	-0.541301
C140	C	0.400569	-0.642278	-0.041301
C141	C	-0.099423	-1.142285	-0.599416
C142	C	0.400577	-0.642285	-0.099416
C143	C	-0.071929	-0.348455	-0.432563
C144	C	0.428071	0.151545	0.067437
C145	C	-0.060183	-0.436323	-0.444335
C146	C	0.439817	0.063677	0.055665
C147	C	-0.139542	-1.091738	-0.843820
C148	C	0.360458	-0.591738	-0.343820
C149	C	-0.139556	-1.091725	-0.789214
C150	C	0.360444	-0.591725	-0.289214
O151	O	-0.173728	-1.048672	-0.755194
O152	O	0.326272	-0.548672	-0.255194
N153	N	-0.099377	-1.142315	-0.768694
N154	N	0.400623	-0.642315	-0.268694
C155	C	-0.059179	-1.192917	-0.802783
C156	C	0.440821	-0.692917	-0.302783
O157	O	-0.025005	-1.235947	-0.780315
O158	O	0.474995	-0.735947	-0.280315
C159	C	-0.059164	-1.192927	-0.857388
C160	C	0.440836	-0.692927	-0.357388
C161	C	-0.099348	-1.142338	-0.877905
C162	C	0.400652	-0.642338	-0.377905
C163	C	-0.179723	-1.041154	-0.864337
C164	C	0.320277	-0.541154	-0.364337
C165	C	-0.179710	-1.041169	-0.918940
C166	C	0.320290	-0.541169	-0.418940
C167	C	-0.139516	-1.091769	-0.953025
C168	C	0.360484	-0.591769	-0.453025
C169	C	-0.099335	-1.142353	-0.932507
C170	C	0.400665	-0.642353	-0.432507
C171	C	-0.018965	-1.243524	-0.891475
C172	C	0.481035	-0.743524	-0.391475
C173	C	-0.018953	-1.243529	-0.946083
C174	C	0.481047	-0.743529	-0.446083
C175	C	-0.059137	-1.192940	-0.966600
C176	C	0.440863	-0.692940	-0.466600
C177	C	-0.059128	-1.192968	-1.021195
C178	C	0.440872	-0.692968	-0.521195
N179	N	-0.099307	-1.142378	-1.041715
N180	N	0.400693	-0.642378	-0.541715
C181	C	-0.139500	-1.091778	-1.007629
C182	C	0.360500	-0.591778	-0.507629
C183	C	-0.059214	-1.192893	-0.688109
C184	C	0.440786	-0.692893	-0.188109
C185	C	-0.059231	-1.192888	-0.633506
C186	C	0.440769	-0.692888	-0.133506
C187	C	-0.139607	-1.091694	-0.619940
C188	C	0.360393	-0.591694	-0.119940
C189	C	-0.139592	-1.091704	-0.674545
C190	C	0.360408	-0.591704	-0.174545
C191	C	-0.099393	-1.142302	-0.708629
C192	C	0.400607	-0.642302	-0.208629
C193	C	-0.139470	-1.091814	-1.122299
C194	C	0.360530	-0.591814	-0.622299
C195	C	-0.139454	-1.091836	-1.176908
C196	C	0.360546	-0.591836	-0.676908
C197	C	-0.059077	-1.193027	-1.190469
C198	C	0.440923	-0.693027	-0.690469
C199	C	-0.059094	-1.193008	-1.135865
C200	C	0.440906	-0.693008	-0.635865
C201	C	-0.099293	-1.142395	-1.101781
C202	C	0.400707	-0.642395	-0.601781
O203	O	-0.024972	-1.235996	-1.055246
O204	O	0.475028	-0.735996	-0.555246
O205	O	-0.173665	-1.048748	-1.030104
O206	O	0.326335	-0.548748	-0.530104
C207	C	-0.099421	-1.142290	-0.269087
C208	C	0.400579	-0.642290	0.230913
C209	C	-0.099260	-1.142436	-0.210993
C210	C	0.400740	-0.642436	0.289007
H211	H	-0.045972	-0.792481	-0.458545
H212	H	0.454028	-0.292481	0.041455
H213	H	-0.079027	-0.841389	-0.425386
H214	H	0.420973	-0.341389	0.074614
Br215	Br	-0.396391	-1.261488	-0.342148
Br216	Br	0.103609	-0.761488	0.157852
Br217	Br	-0.194129	-1.023045	-0.702383
Br218	Br	0.305871	-0.523045	-0.202383
Br219	Br	-0.194158	-1.023024	-0.573672
Br220	Br	0.305842	-0.523024	-0.073672
H221	H	-0.026479	-1.234103	-0.715859
H222	H	0.473521	-0.734103	-0.215859
Br223	Br	0.025724	-0.740071	-0.530496
Br224	Br	0.525724	-0.240071	-0.030496
Br225	Br	0.042566	-0.616265	-0.547407
Br226	Br	0.542566	-0.116265	-0.047407
Br227	Br	-0.299628	-1.022888	-0.467661
Br228	Br	0.200372	-0.522888	0.032339
H229	H	-0.788517	-1.234223	-0.356672
H230	H	-0.288517	-0.734223	0.143328
Br231	Br	-0.241336	-0.669065	-0.262558
Br232	Br	0.258664	-0.169065	0.237442
Br233	Br	-0.224496	-0.545254	-0.279474
Br234	Br	0.275504	-0.045254	0.220526
Br235	Br	-0.193996	-1.023180	-1.204749
Br236	Br	0.306004	-0.523180	-0.704749
H237	H	-0.026354	-1.234226	-1.218231
H238	H	0.473646	-0.734226	-0.718231
H239	H	-0.409834	-1.050415	-0.453230
H240	H	0.090166	-0.550415	0.046770
H241	H	0.001426	-0.444052	-0.506138
H242	H	0.501426	0.055948	-0.006138
H243	H	-0.119743	-0.443926	-0.384579
H244	H	0.380257	0.056074	0.115421
H245	H	-0.212454	-0.999944	-0.836590
H246	H	0.287546	-0.499944	-0.336590
Br247	Br	0.035575	-1.312183	-0.863645
Br248	Br	0.535575	-0.812183	-0.363645
H249	H	-0.172200	-1.050593	-1.094553
H250	H	0.327800	-0.550593	-0.594553
H251	H	-0.530593	-1.284681	-0.330002
H252	H	-0.030593	-0.784681	0.169998
Br253	Br	-0.267713	-1.261396	-0.342116
Br254	Br	0.232287	-0.761396	0.157884
H255	H	-0.152786	-0.492849	-0.351403
H256	H	0.347214	0.007151	0.148597
Br257	Br	-0.930632	-1.023215	-0.467769
Br258	Br	-0.430632	-0.523215	0.032231
Br259	Br	0.035612	-1.312192	-0.992336
Br260	Br	0.535612	-0.812192	-0.492336
Br261	Br	-0.215338	-0.863677	-0.288641
Br262	Br	0.284662	-0.363677	0.211359
H263	H	-0.887576	-1.234273	-0.356694
H264	H	-0.387576	-0.734273	0.143306
Br265	Br	-0.234249	-0.972510	-0.946775
Br266	Br	0.265751	-0.472510	-0.446775
Br267	Br	-0.004700	-1.261560	-0.605671
Br268	Br	0.495300	-0.761560	-0.105671
H269	H	-0.568694	-0.999931	-0.479902
H270	H	-0.068694	-0.499931	0.020098
Br271	Br	-0.801950	-1.023159	-0.467759
Br272	Br	-0.301950	-0.523159	0.032241
H273	H	-0.026376	-1.234207	-1.119161
H274	H	0.473624	-0.734207	-0.619161
H275	H	-0.667739	-0.999970	-0.479914
H276	H	-0.167739	-0.499970	0.020086
Br277	Br	-0.640773	-1.312217	-0.315568
Br278	Br	-0.140773	-0.812217	0.184432
