data_functionalizedCrystal
_audit_creation_method	'MofGen! by Chris Wilmer'
_symmetry_space_group_name_H-M	'P1'
_symmetry_Int_Tables_number	1
_symmetry_cell_setting	triclinic
loop_
_symmetry_equiv_pos_as_xyz
  x,y,z
_cell_length_a	17.699104
_cell_length_b	10.723023
_cell_length_c	16.176319
_cell_angle_alpha	89.994236
_cell_angle_beta	89.991696
_cell_angle_gamma	83.879533
loop_
_atom_site_label
_atom_site_type_symbol
_atom_site_fract_x
_atom_site_fract_y
_atom_site_fract_z
O1	O	1.005065	0.157921	-0.068761
O2	O	0.784818	0.178424	-0.068759
O3	O	0.900022	-0.013490	-0.068757
O4	O	0.889861	0.349835	-0.068764
O5	O	0.900006	-0.013502	0.068736
O6	O	0.784802	0.178412	0.068734
O7	O	1.005049	0.157909	0.068732
Cu8	Cu	0.894924	0.168159	0.081287
Cu9	Cu	0.894943	0.168174	-0.081315
O10	O	0.889844	0.349823	0.068729
C11	C	0.756608	0.177679	-0.000012
C12	C	0.672577	0.175461	-0.000012
C13	C	0.148338	0.275607	-0.000022
C14	C	0.227294	0.277683	-0.000024
C15	C	0.275202	0.165022	-0.000022
C16	C	0.244148	0.050278	-0.000026
C17	C	0.165193	0.048203	-0.000029
C18	C	0.562567	0.058641	-0.000013
C19	C	0.641527	0.060725	-0.000007
C20	C	0.624669	0.288121	-0.000008
C21	C	0.545713	0.286046	-0.000011
C22	C	0.514667	0.171303	-0.000019
C23	C	0.429053	0.169054	-0.000018
C24	C	0.360814	0.167270	-0.000017
C25	C	0.899274	-0.059983	-0.000011
C26	C	0.897062	-0.198500	-0.000014
C27	C	0.896085	-0.260243	-0.071241
C28	C	0.893798	-0.403407	-0.071245
C29	C	1.033258	0.158654	-0.000017
C30	C	1.117289	0.160871	-0.000023
C31	C	0.890592	0.396316	-0.000018
C32	C	0.892804	0.534833	-0.000021
N33	N	0.894916	0.168148	0.195652
N34	N	0.894956	0.168175	-0.195680
C35	C	0.945944	0.083203	0.238917
C36	C	0.945948	0.083202	0.325464
C37	C	0.894927	0.168153	0.368745
C38	C	0.843893	0.253101	0.325474
C39	C	0.843886	0.253096	0.238928
C40	C	0.843919	0.253125	0.674502
C41	C	0.843931	0.253126	0.761053
C42	C	0.945981	0.083231	0.761038
C43	C	0.945974	0.083225	0.674493
C44	C	0.894938	0.168169	0.631229
C45	C	0.894933	0.168168	0.537385
C46	C	0.894934	0.168161	0.462587
H47	H	0.537299	-0.034789	-0.000017
O48	O	0.794359	0.335791	0.367420
C49	C	0.807305	0.459292	0.346270
H50	H	0.836473	0.459077	0.283426
H51	H	0.845176	0.497817	0.394966
C52	C	0.695062	0.542710	0.419464
C53	C	0.730882	0.542448	0.342274
H54	H	0.647922	0.594007	0.417003
H55	H	0.686342	0.459506	0.433716
H56	H	0.726629	0.574811	0.460036
H57	H	0.699319	0.510332	0.301706
H58	H	0.739595	0.625649	0.328015
O59	O	0.995550	0.000866	0.367587
C60	C	1.042593	0.067617	0.417616
H61	H	1.012949	0.165316	0.430576
H62	H	1.098569	0.075992	0.384250
C63	C	1.094821	-0.122753	0.483914
C64	C	1.058409	-0.002760	0.499837
H65	H	1.104580	-0.166166	0.534630
H66	H	1.063130	-0.167726	0.450207
H67	H	1.141463	-0.115757	0.456107
H68	H	1.011764	-0.009758	0.527634
H69	H	1.090093	0.042210	0.533551
H70	H	0.802333	0.322265	0.203702
H71	H	0.109336	0.367349	-0.000018
O72	O	0.688143	-0.048639	-0.000122
C73	C	0.734318	-0.054230	-0.071339
H74	H	0.738829	0.044808	-0.095072
H75	H	0.708059	-0.111130	-0.121208
C76	C	0.808594	-0.238900	-0.020557
C77	C	0.814139	-0.117259	-0.049702
H78	H	0.857831	-0.277784	-0.007213
H79	H	0.777484	-0.235137	0.027421
H80	H	0.786709	-0.286300	-0.062120
H81	H	0.836015	-0.069857	-0.008136
H82	H	0.845255	-0.121016	-0.097674
H83	H	0.987522	0.014055	0.639257
O84	O	0.892922	-0.466706	-0.144022
C85	C	0.958852	-0.449277	-0.189664
H86	H	1.005162	-0.423447	-0.145846
H87	H	0.945265	-0.370564	-0.236451
C88	C	0.929789	-0.603183	-0.289327
C89	C	0.986669	-0.571469	-0.235508
H90	H	0.946946	-0.678554	-0.317609
H91	H	0.885369	-0.614922	-0.258579
H92	H	0.918471	-0.537579	-0.328309
H93	H	0.997979	-0.637065	-0.196521
H94	H	1.031092	-0.559743	-0.266250
O95	O	0.499069	0.395370	0.000019
C96	C	0.422723	0.368934	-0.000008
H97	H	0.419177	0.270936	0.026029
H98	H	0.399932	0.373731	-0.065973
C99	C	0.379258	0.586322	0.021921
C100	C	0.374902	0.465963	0.053907
H101	H	0.349758	0.646176	0.055175
H102	H	0.430693	0.604134	0.021936
H103	H	0.360266	0.590302	-0.033049
H104	H	0.393902	0.461980	0.108872
H105	H	0.323469	0.448152	0.053903
H106	H	0.896937	-0.207113	-0.132217
H107	H	0.896202	-0.251627	0.060963
O108	O	0.654863	0.399556	-0.000158
C109	C	0.700053	0.407561	-0.071357
H110	H	0.681049	0.342417	-0.121127
H111	H	0.762154	0.378593	-0.055258
C112	C	0.714535	0.623448	-0.042518
C113	C	0.691191	0.543445	-0.103649
H114	H	0.709072	0.707268	-0.062436
H115	H	0.684093	0.618055	0.005452
H116	H	0.766285	0.599293	-0.029108
H117	H	0.639439	0.567591	-0.117051
H118	H	0.721624	0.548845	-0.151622
H119	H	0.252570	0.371111	-0.000031
H120	H	0.283161	-0.041453	-0.000029
O121	O	0.135155	-0.063360	0.000006
C122	C	0.194368	-0.162354	-0.000012
H123	H	0.248175	-0.127548	0.026025
H124	H	0.205369	-0.197082	-0.065974
C125	C	0.105417	-0.313345	0.021924
C126	C	0.171502	-0.270599	0.053909
H127	H	0.091312	-0.380119	0.055182
H128	H	0.065523	-0.246652	0.021933
H129	H	0.114593	-0.342276	-0.033044
H130	H	0.162322	-0.241655	0.108872
H131	H	0.211394	-0.337290	0.053911
O132	O	0.893699	-0.401952	0.072787
C133	C	0.827742	-0.419327	0.118395
H134	H	0.804423	-0.509089	0.097163
H135	H	0.783094	-0.336069	0.107939
C136	C	0.876149	-0.319276	0.237101
C137	C	0.847511	-0.429528	0.211028
H138	H	0.888341	-0.325563	0.294241
H139	H	0.920584	-0.307565	0.206373
H140	H	0.838937	-0.249906	0.228380
H141	H	0.884726	-0.498894	0.219739
H142	H	0.803082	-0.441251	0.241759
H143	H	0.987494	0.014032	0.203684
H144	H	0.987535	0.014061	0.796273
O145	O	0.794321	0.335763	0.632611
C146	C	0.749282	0.410722	0.689373
H147	H	0.780328	0.412072	0.751055
H148	H	0.692854	0.370314	0.698600
C149	C	0.696242	0.543706	0.579831
C150	C	0.734375	0.545373	0.655588
H151	H	0.687043	0.626764	0.558991
H152	H	0.726583	0.493203	0.541589
H153	H	0.649223	0.510027	0.587531
H154	H	0.781397	0.579037	0.647886
H155	H	0.704041	0.595886	0.693829
H156	H	0.802381	0.322306	0.796291
