data_functionalizedCrystal
_audit_creation_method	'MofGen! by Chris Wilmer'
_symmetry_space_group_name_H-M	'P1'
_symmetry_Int_Tables_number	1
_symmetry_cell_setting	triclinic
loop_
_symmetry_equiv_pos_as_xyz
  x,y,z
_cell_length_a	15.995350
_cell_length_b	15.944551
_cell_length_c	15.072220
_cell_angle_alpha	89.997918
_cell_angle_beta	89.991149
_cell_angle_gamma	83.495557
loop_
_atom_site_label
_atom_site_type_symbol
_atom_site_fract_x
_atom_site_fract_y
_atom_site_fract_z
O1	O	1.111002	0.108264	-0.073709
O2	O	0.867227	0.121634	-0.073728
O3	O	0.995772	-0.007326	-0.073710
O4	O	0.982458	0.237224	-0.073727
O5	O	0.995740	-0.007319	0.073855
O6	O	0.867196	0.121641	0.073837
O7	O	1.110970	0.108271	0.073856
Zn8	Zn	0.989078	0.114957	0.097276
Zn9	Zn	0.989120	0.114948	-0.097148
O10	O	0.982426	0.237232	0.073838
C11	C	0.836017	0.121085	0.000053
C12	C	0.743066	0.119428	0.000046
C13	C	0.405318	0.113477	0.000065
C14	C	0.452747	0.021634	0.000400
C15	C	0.549438	0.023291	0.000061
C16	C	0.572879	0.116429	0.000056
C17	C	0.531813	0.161725	-0.084211
C18	C	0.435177	0.159417	-0.084275
C19	C	0.434802	0.161323	0.083534
C20	C	0.531747	0.161301	0.084642
C21	C	0.667577	0.118102	0.000048
C22	C	0.310620	0.111806	0.000067
C23	C	0.995203	-0.038616	0.000073
C24	C	0.993546	-0.131862	0.000073
C25	C	0.909908	-0.346714	0.000054
C26	C	0.948731	-0.407730	0.072816
C27	C	0.990548	-0.302588	0.000066
C28	C	0.948781	-0.407721	-0.072672
C29	C	0.987647	-0.467501	0.000055
C30	C	1.029394	-0.362376	0.072888
C31	C	1.029433	-0.362360	-0.072665
C32	C	1.068315	-0.423358	0.000114
C33	C	0.992217	-0.207586	0.000073
C34	C	0.985984	-0.562502	0.000055
C35	C	1.142181	0.108821	0.000074
C36	C	1.235131	0.110478	0.000075
C37	C	0.982995	0.268522	0.000053
C38	C	0.984652	0.361768	0.000047
N39	N	0.989055	0.114963	0.229965
N40	N	0.989149	0.114935	-0.229836
C41	C	0.989118	0.114945	0.589166
C42	C	0.920105	0.183717	0.551550
C43	C	0.920264	0.183968	0.448724
C44	C	0.989086	0.114954	0.410962
C45	C	1.076452	0.134096	0.448258
C46	C	1.076065	0.134585	0.551116
C47	C	0.971544	0.026826	0.551271
C48	C	0.969539	0.027414	0.448407
C49	C	0.989074	0.114958	0.310249
C50	C	0.989136	0.114943	0.689879
H51	H	0.577307	-0.012561	-0.060445
H52	H	0.914676	-0.427799	-0.134190
N53	N	0.410928	0.115651	-0.167700
H54	H	0.428038	0.147686	-0.221303
H55	H	0.440473	0.056227	-0.169038
N56	N	0.821249	-0.302582	0.000136
H57	H	0.790473	-0.319763	-0.054254
H58	H	0.790954	-0.318972	0.055182
H59	H	0.403044	0.229038	0.084100
N60	N	1.097453	0.218253	0.414126
H61	H	1.104290	0.257188	0.465830
H62	H	1.151617	0.209794	0.379155
N63	N	0.428189	-0.026986	0.080452
H64	H	0.365589	-0.030738	0.079295
H65	H	0.459378	-0.085709	0.079342
H66	H	0.402933	0.226847	-0.088103
H67	H	0.545942	0.230150	-0.087348
N68	N	0.569393	0.120035	-0.167279
H69	H	0.542559	0.149624	-0.221141
H70	H	0.631999	0.123764	-0.168167
H71	H	0.433164	-0.014912	-0.059693
H72	H	0.414251	0.131301	0.147406
N73	N	1.074594	-0.335687	-0.154138
H74	H	1.134094	-0.364699	-0.154716
H75	H	1.044026	-0.351987	-0.209029
H76	H	1.016539	-0.026161	0.422706
H77	H	0.914610	-0.427834	0.134325
N78	N	0.934786	0.269847	0.585756
H79	H	0.883994	0.294754	0.620582
H80	H	0.985964	0.264428	0.625470
H81	H	1.021871	-0.024352	0.575596
N82	N	1.146108	0.070750	0.584108
H83	H	1.136998	0.012778	0.561715
H84	H	1.201834	0.086196	0.561589
H85	H	0.855323	0.172563	0.423509
N86	N	0.567904	0.117508	0.167223
H87	H	0.610750	0.068804	0.149926
H88	H	0.595900	0.158882	0.204595
N89	N	0.833802	0.168869	0.584342
H90	H	0.838598	0.117420	0.623903
H91	H	0.808555	0.219751	0.619008
H92	H	0.931487	0.249360	0.424107
N93	N	0.552096	0.251270	0.091385
H94	H	0.588425	0.264276	0.039470
H95	H	0.498161	0.290893	0.090664
N96	N	1.096571	0.219707	0.582896
H97	H	1.153962	0.230053	0.560303
H98	H	1.052916	0.265175	0.559771
H99	H	1.063459	-0.342384	0.134469
N100	N	1.157053	-0.467291	0.000166
H101	H	1.187382	-0.450817	0.055147
H102	H	1.155386	-0.530419	-0.000390
N103	N	0.888976	0.002451	0.585664
H104	H	0.862125	0.048289	0.626164
H105	H	0.850194	-0.004987	0.534087
N106	N	1.146102	0.069510	0.415859
H107	H	1.148254	0.070747	0.348905
H108	H	1.201642	0.083086	0.440706
N109	N	0.587083	-0.023865	0.080076
H110	H	0.540871	-0.045921	0.115885
H111	H	0.628441	-0.072711	0.059888
N112	N	0.884381	0.008194	0.416183
H113	H	0.858569	0.055983	0.377481
H114	H	0.891051	-0.045916	0.380757
