data_functionalizedCrystal
_audit_creation_method	'MofGen! by Chris Wilmer'
_symmetry_space_group_name_H-M	'P1'
_symmetry_Int_Tables_number	1
_symmetry_cell_setting	triclinic
loop_
_symmetry_equiv_pos_as_xyz
  x,y,z
_cell_length_a	27.435584
_cell_length_b	27.434948
_cell_length_c	27.431174
_cell_angle_alpha	60.005483
_cell_angle_beta	60.011353
_cell_angle_gamma	59.993028
loop_
_atom_site_label
_atom_site_type_symbol
_atom_site_fract_x
_atom_site_fract_y
_atom_site_fract_z
O1	O	0.067437	-0.712144	0.595551
O2	O	0.567437	-0.212144	1.095551
O3	O	0.025356	-0.554453	0.479848
O4	O	0.525356	-0.054453	0.979848
O5	O	0.125206	-0.654236	0.479781
O6	O	0.625206	-0.154236	0.979781
O7	O	-0.032412	-0.612361	0.595618
O8	O	0.467588	-0.112361	1.095618
O9	O	0.158328	-0.621117	0.512835
O10	O	0.658328	-0.121117	1.012835
O11	O	0.058479	-0.521333	0.512902
O12	O	0.558479	-0.021333	1.012902
O13	O	0.100560	-0.679025	0.628605
O14	O	0.600560	-0.179025	1.128605
Zn15	Zn	0.084778	-0.594921	0.576001
Zn16	Zn	0.584778	-0.094921	1.076001
Zn17	Zn	0.041138	-0.638557	0.532452
Zn18	Zn	0.541138	-0.138557	1.032452
O19	O	0.000710	-0.579241	0.628672
O20	O	0.500710	-0.079241	1.128672
N21	N	0.114563	-0.565144	0.605726
N22	N	0.614563	-0.065144	1.105726
N23	N	0.011358	-0.668338	0.502727
N24	N	0.511358	-0.168338	1.002727
C25	C	0.156385	-0.523520	0.904506
C26	C	0.656385	-0.023520	1.404506
C27	C	0.413419	-0.523497	0.647322
C28	C	0.913419	-0.023497	1.147322
C29	C	0.156253	-0.523488	0.647384
C30	C	0.656253	-0.023488	1.147384
C31	C	0.156238	-0.266354	0.647407
C32	C	0.656238	0.233646	1.147407
C33	C	0.197637	-0.390463	0.688753
C34	C	0.697637	0.109537	1.188753
C35	C	0.197646	-0.482126	0.688741
C36	C	0.697646	0.017874	1.188741
C37	C	0.220575	-0.459215	0.711654
C38	C	0.720575	0.040785	1.211654
C39	C	0.320555	-0.441991	0.659023
C40	C	0.820555	0.058009	1.159023
C41	C	0.383051	-0.462825	0.638179
C42	C	0.883051	0.037175	1.138179
C43	C	0.383069	-0.563942	0.676737
C44	C	0.883069	-0.063942	1.176737
C45	C	0.320575	-0.543107	0.697583
C46	C	0.820575	-0.043107	1.197583
C47	C	0.212704	-0.359206	0.627313
C48	C	0.712704	0.140794	1.127313
C49	C	0.191849	-0.296705	0.606496
C50	C	0.691849	0.203295	1.106496
C51	C	0.140866	-0.296722	0.708562
C52	C	0.640866	0.203278	1.208562
C53	C	0.161721	-0.359223	0.729379
C54	C	0.661721	0.140777	1.229379
C55	C	0.136200	-0.467030	0.703858
C56	C	0.636200	0.032970	1.203858
C57	C	0.115361	-0.487857	0.683021
C58	C	0.615361	0.012143	1.183021
C59	C	0.217408	-0.538877	0.631968
C60	C	0.717408	-0.038877	1.131968
C61	C	0.238249	-0.518050	0.652796
C62	C	0.738249	-0.018050	1.152796
C63	C	0.136259	-0.467047	0.811668
C64	C	0.636259	0.032953	1.311668
C65	C	0.115461	-0.487892	0.874167
C66	C	0.615461	0.012108	1.374167
C67	C	0.217537	-0.538923	0.874131
C68	C	0.717537	-0.038923	1.374131
C69	C	0.238333	-0.518080	0.811631
C70	C	0.738333	-0.018080	1.311631
C71	C	0.197693	-0.482140	0.780401
C72	C	0.697693	0.017860	1.280401
C73	C	0.289320	-0.482131	0.688723
C74	C	0.789320	0.017869	1.188723
C75	C	0.132699	-0.546027	0.973247
C76	C	0.632699	-0.046027	1.473247
C77	C	0.482158	-0.545613	0.624075
C78	C	0.982158	-0.045613	1.124075
C79	C	0.132521	-0.546006	0.624886
C80	C	0.632521	-0.046006	1.124886
C81	C	0.132917	-0.197607	0.625310
C82	C	0.632917	0.302393	1.125310
C83	C	-0.098217	-0.686189	0.484419
C84	C	0.401783	-0.186189	0.984419
C85	C	-0.006438	-0.686322	0.392891
C86	C	0.493562	-0.186322	0.892891
C87	C	-0.006621	-0.777944	0.484592
C88	C	0.493379	-0.277944	0.984592
C89	C	-0.006606	-0.686315	0.484649
C90	C	0.493394	-0.186315	0.984649
C91	C	-0.029470	-0.709193	0.461638
C92	C	0.470530	-0.209193	0.961638
N93	N	0.538410	-0.565162	0.605628
N94	N	1.038410	-0.065162	1.105628
O95	O	0.742647	-0.575135	0.458625
O96	O	1.242647	-0.075135	0.958625
O97	O	0.742821	-0.691181	0.616169
O98	O	1.242821	-0.191181	1.116169
O99	O	0.742757	-0.690917	0.516248
O100	O	1.242757	-0.190917	1.016248
O101	O	0.742711	-0.575399	0.558546
O102	O	1.242711	-0.075399	1.058546
O103	O	0.643472	-0.657878	0.549405
O104	O	1.143472	-0.157878	1.049405
O105	O	0.643536	-0.658142	0.649326
O106	O	1.143536	-0.158142	1.149326
O107	O	0.643362	-0.542096	0.491782
O108	O	1.143362	-0.042096	0.991782
Zn109	Zn	0.627685	-0.594873	0.575818
Zn110	Zn	1.127685	-0.094873	1.075818
Zn111	Zn	0.758498	-0.638404	0.532133
Zn112	Zn	1.258498	-0.138404	1.032133
O113	O	0.643426	-0.542360	0.591702
O114	O	1.143426	-0.042360	1.091702
N115	N	0.847774	-0.668115	0.502317
N116	N	1.347774	-0.168115	1.002317
N117	N	0.114542	-0.141354	0.605766
N118	N	0.614542	0.358646	1.105766
O119	O	-0.032397	0.062987	0.595660
O120	O	0.467603	0.562987	1.095660
O121	O	0.125155	0.062987	0.479633
O122	O	0.625155	0.562987	0.979633
O123	O	0.025219	0.062974	0.479910
O124	O	0.525219	0.562974	0.979910
O125	O	0.067539	0.063001	0.595383
O126	O	0.567539	0.563001	1.095383
O127	O	0.058343	-0.036320	0.513009
O128	O	0.558343	0.463680	1.013009
O129	O	0.158279	-0.036306	0.512732
O130	O	0.658279	0.463694	1.012732
O131	O	0.000728	-0.036306	0.628759
O132	O	0.500728	0.463694	1.128759
Zn133	Zn	0.084763	-0.052071	0.576000
Zn134	Zn	0.584763	0.447929	1.076000
Zn135	Zn	0.041120	0.078752	0.532392
Zn136	Zn	0.541120	0.578752	1.032392
O137	O	0.100664	-0.036292	0.628482
O138	O	0.600664	0.463708	1.128482
N139	N	0.011333	0.168036	0.502628
N140	N	0.511333	0.668036	1.002628
N141	N	0.114782	-0.565197	1.029501
N142	N	0.614782	-0.065197	1.529501
O143	O	0.104681	-0.712124	1.233827
O144	O	0.604681	-0.212124	1.733827
O145	O	-0.011334	-0.554523	1.233839
O146	O	0.488666	-0.054523	1.733839
O147	O	-0.011066	-0.654443	1.233797
O148	O	0.488934	-0.154443	1.733797
O149	O	0.104414	-0.612204	1.233869
O150	O	0.604414	-0.112204	1.733869
O151	O	0.022028	-0.621336	1.134509
O152	O	0.522028	-0.121336	1.634509
O153	O	0.021760	-0.521417	1.134551
O154	O	0.521760	-0.021417	1.634551
O155	O	0.137775	-0.679018	1.134539
O156	O	0.637775	-0.179018	1.634539
Zn157	Zn	0.085022	-0.594961	1.118780
Zn158	Zn	0.585022	-0.094961	1.618780
Zn159	Zn	0.041420	-0.638580	1.249597
Zn160	Zn	0.541420	-0.138580	1.749597
O161	O	0.137508	-0.579098	1.134580
O162	O	0.637508	-0.079098	1.634580
N163	N	0.011658	-0.668350	1.338876
N164	N	0.511658	-0.168350	1.838876
C165	C	0.037974	-0.518023	0.480435
C166	C	0.537974	-0.018023	0.980435
C167	C	0.161625	-0.641592	0.480351
C168	C	0.661625	-0.141592	0.980351
C169	C	0.087941	-0.715455	0.628017
C170	C	0.587941	-0.215455	1.128017
C171	C	-0.035710	-0.591885	0.628101
C172	C	0.464290	-0.091885	1.128101
C173	C	0.693199	-0.690642	0.652596
C174	C	1.193199	-0.190642	1.152596
C175	C	0.693122	-0.690315	0.528855
C176	C	1.193122	-0.190315	1.028855
C177	C	0.692981	-0.542634	0.455356
C178	C	1.192981	-0.042634	0.955356
C179	C	0.693062	-0.542961	0.579095
C180	C	1.193062	-0.042961	1.079095
C181	C	0.161524	0.013463	0.480164
C182	C	0.661524	0.513463	0.980164
C183	C	0.037807	0.013324	0.480547
C184	C	0.537807	0.513324	0.980547
C185	C	-0.035683	0.013341	0.628188
C186	C	0.464317	0.513341	1.128188
C187	C	0.088076	0.013357	0.627845
C188	C	0.588076	0.513357	1.127845
C189	C	-0.010764	-0.518114	1.184196
C190	C	0.489236	-0.018114	1.684196
C191	C	-0.010426	-0.641846	1.184125
C192	C	0.489574	-0.141846	1.684125
C193	C	0.137205	-0.715426	1.184182
C194	C	0.637205	-0.215426	1.684182
C195	C	0.136875	-0.591687	1.184231
C196	C	0.636875	-0.091687	1.684231
H197	H	0.103160	-0.437777	0.786243
H198	H	0.603160	0.062223	1.286243
H199	H	0.173154	-0.582650	1.184245
H200	H	0.673154	-0.082650	1.684245
H201	H	-0.080930	0.013340	0.664614
H202	H	0.419070	0.513340	1.164614
O203	O	0.693153	-0.499684	0.589826
O204	O	1.193153	0.000316	1.089826
C205	C	0.744531	-0.483578	0.548873
C206	C	1.244531	0.016422	1.048873
H207	H	0.780481	-0.521812	0.531349
H208	H	1.280481	-0.021812	1.031349
H209	H	0.761805	-0.473897	0.572129
H210	H	1.261805	0.026103	1.072129
H211	H	0.732855	-0.442001	0.510027
H212	H	1.232855	0.057999	1.010027
O213	O	-0.053745	-0.652609	1.184155
O214	O	0.446255	-0.152609	1.684155
C215	C	-0.104116	-0.645955	1.235546
C216	C	0.395884	-0.145955	1.735546
H217	H	-0.089862	-0.652447	1.271532
H218	H	0.410138	-0.152447	1.771532
H219	H	-0.125290	-0.680715	1.252752
H220	H	0.374710	-0.180715	1.752752
H221	H	-0.137927	-0.599326	1.223910
H222	H	0.362073	-0.099326	1.723910
H223	H	0.173631	-0.760687	1.184171
H224	H	0.673631	-0.260687	1.684171
O225	O	-0.089742	-0.581304	0.671483
O226	O	0.410258	-0.081304	1.171483
C227	C	-0.116208	-0.622306	0.687561
C228	C	0.383792	-0.122306	1.187561
H229	H	-0.096457	-0.639727	0.649264
H230	H	0.403543	-0.139727	1.149264
H231	H	-0.166434	-0.599130	0.697363
H232	H	0.333566	-0.099130	1.197363
H233	H	-0.107134	-0.661216	0.729055
H234	H	0.392866	-0.161216	1.229055
O235	O	-0.054145	-0.464067	1.184119
O236	O	0.445855	0.035933	1.684119
C237	C	-0.033740	-0.419066	1.132701
C238	C	0.466260	0.080934	1.632701
H239	H	0.017145	-0.435499	1.115568
H240	H	0.517145	0.064501	1.615568
H241	H	-0.051196	-0.377411	1.144278
H242	H	0.448804	0.122589	1.644278
H243	H	-0.050669	-0.407898	1.096680
H244	H	0.449331	0.092102	1.596680
H245	H	0.206895	-0.650521	0.443974
H246	H	0.706895	-0.150521	0.943974
H247	H	0.096930	-0.760753	0.664356
H248	H	0.596930	-0.260753	1.164356
H249	H	0.693242	-0.727072	0.697844
H250	H	1.193242	-0.227072	1.197844
O251	O	0.256884	-0.573682	0.596967
O252	O	0.756884	-0.073682	1.096967
C253	C	0.292998	-0.542113	0.544564
C254	C	0.792998	-0.042113	1.044564
H255	H	0.268844	-0.492112	0.535892
H256	H	0.768844	0.007888	1.035892
H257	H	0.302443	-0.553284	0.505186
H258	H	0.802443	-0.053284	1.005186
H259	H	0.336909	-0.555415	0.550239
H260	H	0.836909	-0.055415	1.050239
H261	H	0.206679	0.013739	0.443646
H262	H	0.706679	0.513739	0.943646
H263	H	0.692924	-0.506199	0.410112
H264	H	1.192924	-0.006199	0.910112
H265	H	0.097136	0.013366	0.664120
H266	H	0.597136	0.513366	1.164120
H267	H	0.065433	-0.475593	0.899616
H268	H	0.565433	0.024407	1.399616
H269	H	0.693140	-0.726605	0.519802
H270	H	1.193140	-0.226605	1.019802
H271	H	0.028745	0.013321	0.444270
H272	H	0.528745	0.513321	0.944270
H273	H	0.288361	-0.530376	0.786177
H274	H	0.788361	-0.030376	1.286177
O275	O	0.257040	-0.573909	0.904436
O276	O	0.757040	-0.073909	1.404436
C277	C	0.293189	-0.626315	0.889136
C278	C	0.793189	-0.126315	1.389136
H279	H	0.269048	-0.635009	0.871966
H280	H	0.769048	-0.135009	1.371966
H281	H	0.302670	-0.665687	0.930225
H282	H	0.802670	-0.165687	1.430225
H283	H	0.337080	-0.620626	0.852845
H284	H	0.837080	-0.120626	1.352845
O285	O	0.096677	-0.432116	0.738743
O286	O	0.596677	0.067884	1.238743
C287	C	0.037975	-0.423269	0.747623
C288	C	0.537975	0.076731	1.247623
H289	H	0.038069	-0.430242	0.709943
H290	H	0.538069	0.069758	1.209943
H291	H	0.008298	-0.375869	0.747964
H292	H	0.508298	0.124131	1.247964
H293	H	0.020092	-0.456539	0.792142
H294	H	0.520092	0.043461	1.292142
H295	H	0.288283	-0.530335	0.640482
H296	H	0.788283	-0.030335	1.140482
O297	O	0.055688	-0.473303	0.697725
O298	O	0.555688	0.026697	1.197725
C299	C	0.040609	-0.525820	0.729190
C300	C	0.540609	-0.025820	1.229190
H301	H	0.081800	-0.565086	0.717899
H302	H	0.581800	-0.065086	1.217899
H303	H	0.004357	-0.520230	0.715900
H304	H	0.504357	-0.020230	1.215900
H305	H	0.023476	-0.534612	0.779212
H306	H	0.523476	-0.034612	1.279212
H307	H	0.408519	-0.613593	0.683941
H308	H	0.908519	-0.113593	1.183941
O309	O	0.290324	-0.582178	0.726398
O310	O	0.790324	-0.082178	1.226398
C311	C	0.331315	-0.640465	0.729755
C312	C	0.831315	-0.140465	1.229755
H313	H	0.375852	-0.638088	0.692836
H314	H	0.875852	-0.138088	1.192836
H315	H	0.313252	-0.666114	0.724099
H316	H	0.813252	-0.166114	1.224099
H317	H	0.337986	-0.664326	0.775043
H318	H	0.837986	-0.164326	1.275043
H319	H	0.295112	-0.392340	0.651807
H320	H	0.795112	0.107660	1.151807
O321	O	0.413365	-0.423795	0.609236
O322	O	0.913365	0.076205	1.109236
C323	C	0.398055	-0.381359	0.557725
C324	C	0.898055	0.118641	1.057725
H325	H	0.380866	-0.400616	0.543366
H326	H	0.880866	0.099384	1.043366
H327	H	0.439142	-0.369918	0.520204
H328	H	0.939142	0.130082	1.020204
H329	H	0.361777	-0.339228	0.567949
H330	H	0.861777	0.160772	1.067949
O331	O	0.247562	-0.389461	0.587771
O332	O	0.747562	0.110539	1.087771
C333	C	0.256393	-0.348468	0.529077
C334	C	0.756393	0.151532	1.029077
H335	H	0.218707	-0.303918	0.529204
H336	H	0.718707	0.196082	1.029204
H337	H	0.256701	-0.366521	0.499408
H338	H	0.756701	0.133479	0.999408
H339	H	0.300911	-0.341818	0.511157
H340	H	0.800911	0.158182	1.011157
H341	H	0.204115	-0.271255	0.556464
H342	H	0.704115	0.228745	1.056464
H343	H	0.028987	-0.472723	0.444098
H344	H	0.528987	0.027277	0.944098
H345	H	0.149444	-0.384673	0.779411
H346	H	0.649444	0.115327	1.279411
O347	O	0.105967	-0.266465	0.748105
O348	O	0.605967	0.233535	1.248105
C349	C	0.097164	-0.307455	0.806800
C350	C	0.597164	0.192545	1.306800
H351	H	0.104151	-0.352008	0.806688
H352	H	0.604151	0.147992	1.306688
H353	H	0.049775	-0.289404	0.836487
H354	H	0.549775	0.210596	1.336487
H355	H	0.130446	-0.314100	0.824686
H356	H	0.630446	0.185900	1.324686
