data_functionalizedCrystal
_audit_creation_method	'MofGen! by Chris Wilmer'
_symmetry_space_group_name_H-M	'P1'
_symmetry_Int_Tables_number	1
_symmetry_cell_setting	triclinic
loop_
_symmetry_equiv_pos_as_xyz
  x,y,z
_cell_length_a	26.374263
_cell_length_b	26.373608
_cell_length_c	26.370205
_cell_angle_alpha	60.005297
_cell_angle_beta	60.010839
_cell_angle_gamma	59.993700
loop_
_atom_site_label
_atom_site_type_symbol
_atom_site_fract_x
_atom_site_fract_y
_atom_site_fract_z
O1	O	0.070152	-0.740800	0.619517
O2	O	0.570152	-0.240800	1.119517
O3	O	0.026377	-0.576764	0.499159
O4	O	0.526377	-0.076764	0.999159
O5	O	0.130245	-0.680560	0.499088
O6	O	0.630245	-0.180560	0.999088
O7	O	-0.033715	-0.637003	0.619589
O8	O	0.466285	-0.137003	1.119589
O9	O	0.164701	-0.646107	0.533470
O10	O	0.664701	-0.146107	1.033470
O11	O	0.060833	-0.542310	0.533541
O12	O	0.560833	-0.042310	1.033541
O13	O	0.104608	-0.706346	0.653899
O14	O	0.604608	-0.206346	1.153899
Cu15	Cu	0.085867	-0.621182	0.596859
Cu16	Cu	0.585867	-0.121182	1.096859
Cu17	Cu	0.045119	-0.661927	0.556199
Cu18	Cu	0.545119	-0.161927	1.056199
O19	O	0.000741	-0.602549	0.653971
O20	O	0.500741	-0.102549	1.153971
N21	N	0.114528	-0.592529	0.625461
N22	N	0.614528	-0.092529	1.125461
N23	N	0.016463	-0.690587	0.527598
N24	N	0.516463	-0.190587	1.027598
C25	C	0.181428	-0.355400	0.692330
C26	C	0.681428	0.144600	1.192330
C27	C	0.181530	-0.525690	0.862573
C28	C	0.681530	-0.025690	1.362573
C29	C	0.181440	-0.525667	0.692313
C30	C	0.681440	-0.025667	1.192313
C31	C	0.351736	-0.525673	0.692271
C32	C	0.851736	-0.025673	1.192271
C33	C	0.200174	-0.411588	0.711047
C34	C	0.700174	0.088412	1.211047
C35	C	0.200232	-0.506954	0.806384
C36	C	0.700232	-0.006954	1.306384
C37	C	0.295546	-0.506943	0.711016
C38	C	0.795546	-0.006943	1.211016
C39	C	0.200182	-0.506940	0.711037
C40	C	0.700182	-0.006940	1.211037
C41	C	0.157567	-0.283881	0.668507
C42	C	0.657567	0.216119	1.168507
C43	C	0.157587	-0.549500	0.668479
C44	C	0.657587	-0.049500	1.168479
C45	C	0.224035	-0.483107	0.734871
C46	C	0.724035	0.016893	1.234871
C47	C	0.455739	-0.507754	0.637520
C48	C	0.955739	-0.007754	1.137520
C49	C	0.520749	-0.529425	0.615835
C50	C	1.020749	-0.029425	1.115835
C51	C	0.520768	-0.634611	0.655947
C52	C	1.020768	-0.134611	1.155947
C53	C	0.455759	-0.612939	0.677633
C54	C	0.955759	-0.112939	1.177633
C55	C	0.173240	-0.251367	0.604595
C56	C	0.673240	0.248633	1.104595
C57	C	0.151546	-0.186351	0.582941
C58	C	0.651546	0.313649	1.082941
C59	C	0.098512	-0.186369	0.689113
C60	C	0.598512	0.313631	1.189113
C61	C	0.120206	-0.251385	0.710768
C62	C	0.620206	0.248615	1.210768
C63	C	0.093669	-0.533798	0.684205
C64	C	0.593669	-0.033798	1.184205
C65	C	0.071992	-0.555464	0.662532
C66	C	0.571992	-0.055464	1.162532
C67	C	0.178144	-0.608536	0.609422
C68	C	0.678144	-0.108536	1.109422
C69	C	0.199825	-0.586869	0.631088
C70	C	0.699825	-0.086869	1.131088
C71	C	0.093821	-0.533842	0.966616
C72	C	0.593821	-0.033842	1.466616
C73	C	0.072187	-0.555526	1.031630
C74	C	0.572187	-0.055526	1.531630
C75	C	0.178370	-0.608608	1.031591
C76	C	0.678370	-0.108608	1.531591
C77	C	0.200004	-0.586926	0.966576
C78	C	0.700004	-0.086926	1.466576
C79	C	0.157728	-0.549541	0.934090
C80	C	0.657728	-0.049541	1.434090
C81	C	0.423247	-0.549509	0.668416
C82	C	0.923247	-0.049509	1.168416
C83	C	-0.097522	-0.709158	0.508557
C84	C	0.402478	-0.209158	1.008557
C85	C	-0.002050	-0.709295	0.413344
C86	C	0.497950	-0.209295	0.913344
C87	C	-0.002241	-0.804604	0.508735
C88	C	0.497759	-0.304604	1.008735
C89	C	-0.002225	-0.709288	0.508793
C90	C	0.497775	-0.209288	1.008793
C91	C	-0.026009	-0.733087	0.484858
C92	C	0.473991	-0.233087	0.984858
N93	N	0.552340	-0.592538	0.625346
N94	N	1.052340	-0.092538	1.125346
O95	O	0.750867	-0.598274	0.477076
O96	O	1.250867	-0.098274	0.977076
O97	O	0.751048	-0.718989	0.640960
O98	O	1.251048	-0.218989	1.140960
O99	O	0.750981	-0.718715	0.537020
O100	O	1.250981	-0.218715	1.037020
O101	O	0.750934	-0.598547	0.581017
O102	O	1.250934	-0.098547	1.081017
O103	O	0.647701	-0.684348	0.571512
O104	O	1.147701	-0.184348	1.071512
O105	O	0.647768	-0.684622	0.675452
O106	O	1.147768	-0.184622	1.175452
O107	O	0.647587	-0.563907	0.511569
O108	O	1.147587	-0.063907	1.011569
Cu109	Cu	0.638247	-0.621127	0.596660
Cu110	Cu	1.138247	-0.121127	1.096660
Cu111	Cu	0.760388	-0.661769	0.555869
Cu112	Cu	1.260388	-0.161769	1.055869
O113	O	0.647654	-0.564181	0.615509
O114	O	1.147654	-0.064181	1.115509
N115	N	0.846295	-0.690358	0.527176
N116	N	1.346295	-0.190358	1.027176
N117	N	0.114503	-0.154778	0.625499
N118	N	0.614503	0.345222	1.125499
O119	O	-0.033701	0.043855	0.619632
O120	O	0.466299	0.543855	1.119632
O121	O	0.130190	0.043858	0.498933
O122	O	0.630190	0.543858	0.998933
O123	O	0.026233	0.043841	0.499224
O124	O	0.526233	0.543841	0.999224
O125	O	0.070257	0.043872	0.619341
O126	O	0.570257	0.543872	1.119341
O127	O	0.060690	-0.059448	0.533654
O128	O	0.560690	0.440552	1.033654
O129	O	0.164647	-0.059431	0.533363
O130	O	0.664647	0.440569	1.033363
O131	O	0.000756	-0.059434	0.654062
O132	O	0.500756	0.440566	1.154062
Cu133	Cu	0.085848	-0.068863	0.596857
Cu134	Cu	0.585848	0.431137	1.096857
Cu135	Cu	0.045099	0.053287	0.556138
Cu136	Cu	0.545099	0.553287	1.056138
O137	O	0.104714	-0.059417	0.653771
O138	O	0.604714	0.440583	1.153771
N139	N	0.016435	0.139202	0.527497
N140	N	0.516435	0.639202	1.027497
N141	N	0.114760	-0.592585	1.063190
N142	N	0.614760	-0.092585	1.563190
O143	O	0.108896	-0.740779	1.261808
O144	O	0.608896	-0.240779	1.761808
O145	O	-0.011787	-0.576838	1.261822
O146	O	0.488213	-0.076838	1.761822
O147	O	-0.011509	-0.680779	1.261780
O148	O	0.488491	-0.180779	1.761780
O149	O	0.108618	-0.636838	1.261850
O150	O	0.608618	-0.136838	1.761850
O151	O	0.022916	-0.646341	1.158496
O152	O	0.522916	-0.146341	1.658496
O153	O	0.022638	-0.542399	1.158538
O154	O	0.522638	-0.042399	1.658538
O155	O	0.143321	-0.706341	1.158524
O156	O	0.643321	-0.206341	1.658524
Cu157	Cu	0.086123	-0.621225	1.149100
Cu158	Cu	0.586123	-0.121225	1.649100
Cu159	Cu	0.045411	-0.661953	1.271246
Cu160	Cu	0.545411	-0.161953	1.771246
O161	O	0.143044	-0.602399	1.158566
O162	O	0.643044	-0.102399	1.658566
N163	N	0.016774	-0.690600	1.357156
N164	N	0.516774	-0.190600	1.857156
C165	C	0.039504	-0.538867	0.499769
C166	C	0.539504	-0.038867	0.999769
C167	C	0.168130	-0.667407	0.499680
C168	C	0.668130	-0.167407	0.999680
C169	C	0.091482	-0.744243	0.653289
C170	C	0.591482	-0.244243	1.153289
C171	C	-0.037145	-0.615703	0.653378
C172	C	0.462855	-0.115703	1.153378
C173	C	0.699429	-0.718429	0.678853
C174	C	1.199429	-0.218429	1.178853
C175	C	0.699348	-0.718091	0.550135
C176	C	1.199348	-0.218091	1.050135
C177	C	0.699202	-0.564465	0.473677
C178	C	1.199202	-0.064465	0.973677
C179	C	0.699287	-0.564805	0.602393
C180	C	1.199287	-0.064805	1.102393
C181	C	0.168023	-0.007659	0.499484
C182	C	0.668023	0.492341	0.999484
C183	C	0.039327	-0.007807	0.499887
C184	C	0.539327	0.492193	0.999887
C185	C	-0.037119	-0.007789	0.653468
C186	C	0.462881	0.492211	1.153468
C187	C	0.091620	-0.007770	0.653109
C188	C	0.591620	0.492230	1.153109
C189	C	-0.011194	-0.538964	1.210181
C190	C	0.488806	-0.038964	1.710181
C191	C	-0.010843	-0.667676	1.210109
C192	C	0.489157	-0.167676	1.710109
C193	C	0.142729	-0.744214	1.210165
C194	C	0.642729	-0.244214	1.710165
C195	C	0.142386	-0.615494	1.210214
C196	C	0.642386	-0.115494	1.710214
H197	H	0.020147	-0.542732	1.058106
H198	H	0.520147	-0.042732	1.558106
C199	C	0.699124	-0.513262	0.410100
C200	C	1.199124	-0.013262	0.910100
H201	H	0.699097	-0.477201	0.410051
H202	H	1.199097	0.022799	0.910051
H203	H	0.735127	-0.527476	0.378482
H204	H	1.235127	-0.027476	0.878482
H205	H	0.663090	-0.503510	0.402549
H206	H	1.163090	-0.003510	0.902549
C207	C	-0.100702	-0.007790	0.704661
C208	C	0.399298	0.492210	1.204661
H209	H	-0.126805	-0.007793	0.689666
H210	H	0.373195	0.492207	1.189666
H211	H	-0.095249	-0.043804	0.739954
H212	H	0.404751	0.456196	1.239954
H213	H	-0.119282	0.028238	0.715936
H214	H	0.380718	0.528238	1.215936
H215	H	0.214995	-0.007372	0.461496
H216	H	0.714995	0.492628	0.961496
H217	H	0.100832	-0.791364	0.691090
H218	H	0.600832	-0.291364	1.191090
C219	C	-0.061808	-0.680346	1.210022
C220	C	0.438192	-0.180346	1.710022
H221	H	-0.097948	-0.644437	1.210012
H222	H	0.402052	-0.144437	1.710012
H223	H	-0.047436	-0.690193	1.173986
H224	H	0.452564	-0.190193	1.673986
H225	H	-0.071489	-0.714221	1.246025
H226	H	0.428511	-0.214221	1.746025
H227	H	0.215222	-0.676694	0.461838
H228	H	0.715222	-0.176694	0.961838
C229	C	0.193916	-0.807818	1.210159
C230	C	0.693916	-0.307818	1.710159
H231	H	0.178917	-0.833908	1.210145
H232	H	0.678917	-0.333908	1.710145
H233	H	0.229206	-0.802384	1.174149
H234	H	0.729206	-0.302384	1.674149
H235	H	0.205195	-0.826407	1.246189
H236	H	0.705195	-0.326407	1.746189
H237	H	-0.084239	-0.606419	0.691217
H238	H	0.415761	-0.106419	1.191217
C239	C	0.026601	-0.007823	0.448910
C240	C	0.526601	0.492177	0.948910
H241	H	-0.014519	-0.007832	0.464093
H242	H	0.485481	0.492168	0.964093
H243	H	0.031219	0.028192	0.413586
H244	H	0.531219	0.528192	0.913586
H245	H	0.055251	-0.043851	0.437609
H246	H	0.555251	0.456149	0.937609
C247	C	0.699265	-0.513807	0.615109
C248	C	1.199265	-0.013807	1.115109
H249	H	0.699298	-0.528986	0.656228
H250	H	1.199298	-0.028986	1.156228
H251	H	0.735255	-0.502471	0.586447
H252	H	1.235255	-0.002471	1.086447
H253	H	0.663219	-0.478503	0.610507
H254	H	1.163219	0.021497	1.110507
H255	H	0.699474	-0.756325	0.725922
H256	H	1.199474	-0.256325	1.225922
H257	H	0.059391	-0.503396	0.940172
H258	H	0.559391	-0.003396	1.440172
C259	C	0.104348	-0.007762	0.704088
C260	C	0.604348	0.492238	1.204088
H261	H	0.145472	-0.007763	0.688908
H262	H	0.645472	0.492237	1.188908
H263	H	0.075700	0.028257	0.715399
H264	H	0.575700	0.528257	1.215399
H265	H	0.099735	-0.043785	0.739408
H266	H	0.599735	0.456215	1.239408
H267	H	-0.049082	-0.491880	1.210184
H268	H	0.450918	0.008120	1.710184
H269	H	0.180125	-0.606093	1.210228
H270	H	0.680125	-0.106093	1.710228
C271	C	0.224874	-0.649688	1.067323
C272	C	0.724874	-0.149688	1.567323
H273	H	0.266034	-0.655924	1.038640
H274	H	0.766034	-0.155924	1.538640
H275	H	0.218618	-0.629816	1.092674
H276	H	0.718618	-0.129816	1.592674
H277	H	0.218665	-0.688669	1.092692
H278	H	0.718665	-0.188669	1.592692
C279	C	0.270304	-0.604193	0.930801
C280	C	0.770304	-0.104193	1.430801
H281	H	0.292380	-0.629556	0.959461
H282	H	0.792380	-0.129556	1.459461
H283	H	0.280957	-0.626246	0.905434
H284	H	0.780957	-0.126246	1.405434
H285	H	0.280944	-0.567425	0.905445
H286	H	0.780944	-0.067425	1.405445
H287	H	0.059274	-0.503369	0.714648
H288	H	0.559274	-0.003369	1.214648
H289	H	0.212545	-0.638970	0.578981
H290	H	0.712545	-0.138970	1.078981
C291	C	0.001683	-0.538199	0.679830
C292	C	0.501683	-0.038199	1.179830
H293	H	-0.020368	-0.512849	0.705211
H294	H	0.479632	-0.012849	1.205211
H295	H	-0.009003	-0.516134	0.643080
H296	H	0.490997	-0.016134	1.143080
H297	H	-0.008955	-0.574969	0.701884
H298	H	0.491045	-0.074969	1.201884
H299	H	0.251872	-0.599651	0.618278
H300	H	0.751872	-0.099651	1.118278
C301	C	0.699369	-0.769091	0.537423
C302	C	1.199369	-0.269091	1.037423
H303	H	0.699418	-0.805245	0.573311
H304	H	1.199418	-0.305245	1.073311
H305	H	0.663338	-0.754763	0.527587
H306	H	1.163338	-0.254763	1.027587
H307	H	0.735374	-0.778736	0.503532
H308	H	1.235374	-0.278736	1.003532
C309	C	0.420020	-0.658871	0.711622
C310	C	0.920020	-0.158871	1.211622
H311	H	0.376645	-0.636884	0.723224
H312	H	0.876645	-0.136884	1.223224
H313	H	0.430662	-0.679425	0.684873
H314	H	0.930662	-0.179425	1.184873
H315	H	0.430697	-0.688641	0.747748
H316	H	0.930697	-0.188641	1.247748
C317	C	0.556531	-0.704381	0.666081
C318	C	1.056531	-0.204381	1.166081
H319	H	0.527869	-0.726147	0.687592
H320	H	1.027869	-0.226147	1.187592
H321	H	0.581877	-0.710410	0.627017
H322	H	1.081877	-0.210410	1.127017
H323	H	0.581907	-0.719631	0.689897
H324	H	1.081907	-0.219631	1.189897
H325	H	0.547206	-0.495421	0.590679
H326	H	1.047206	0.004579	1.090679
H327	H	0.429268	-0.456103	0.630015
H328	H	0.929268	0.043897	1.130015
H329	H	0.164306	-0.159876	0.530897
H330	H	0.664306	0.340124	1.030897
C331	C	0.214332	-0.287109	0.558108
C332	C	0.714332	0.212891	1.058108
H333	H	0.220550	-0.258431	0.516941
H334	H	0.720550	0.241569	1.016941
H335	H	0.253309	-0.312470	0.564337
H336	H	0.753309	0.187530	1.064337
H337	H	0.194479	-0.312471	0.564361
H338	H	0.694479	0.187529	1.064361
C339	C	0.057419	-0.150619	0.735596
C340	C	0.557419	0.349381	1.235596
H341	H	0.046744	-0.107242	0.713546
H342	H	0.546744	0.392758	1.213546
H343	H	0.020670	-0.161282	0.760970
H344	H	0.520670	0.338718	1.260970
H345	H	0.079497	-0.161274	0.760945
H346	H	0.579497	0.338726	1.260945
C347	C	0.102988	-0.287147	0.781071
C348	C	0.602988	0.212853	1.281071
H349	H	0.077640	-0.258479	0.803135
H350	H	0.577640	0.241521	1.303135
H351	H	0.080940	-0.312522	0.791753
H352	H	0.580940	0.187478	1.291753
H353	H	0.139773	-0.312497	0.791699
H354	H	0.639773	0.187503	1.291699
H355	H	0.030155	-0.491745	0.461969
H356	H	0.530155	0.008255	0.961969
