data_functionalizedCrystal
_audit_creation_method	'MofGen! by Chris Wilmer'
_symmetry_space_group_name_H-M	'P1'
_symmetry_Int_Tables_number	1
_symmetry_cell_setting	triclinic
loop_
_symmetry_equiv_pos_as_xyz
  x,y,z
_cell_length_a	19.288864
_cell_length_b	14.421503
_cell_length_c	19.288865
_cell_angle_alpha	90.000948
_cell_angle_beta	83.136245
_cell_angle_gamma	90.021447
loop_
_atom_site_label
_atom_site_type_symbol
_atom_site_fract_x
_atom_site_fract_y
_atom_site_fract_z
O1	O	0.921353	0.077420	0.086638
O2	O	1.171353	0.327420	0.336638
O3	O	1.421353	0.577420	0.586638
O4	O	1.671353	0.827420	0.836638
O5	O	0.719092	0.077358	0.098327
O6	O	0.969092	0.327358	0.348327
O7	O	1.219092	0.577358	0.598327
O8	O	1.469092	0.827358	0.848327
O9	O	0.826067	0.077372	-0.008648
O10	O	1.076067	0.327372	0.241352
O11	O	1.326067	0.577372	0.491352
O12	O	1.576067	0.827372	0.741352
O13	O	0.814378	0.077405	0.193613
O14	O	1.064378	0.327405	0.443613
O15	O	1.314378	0.577405	0.693613
O16	O	1.564378	0.827405	0.943613
O17	O	0.826049	-0.076851	-0.008632
O18	O	1.076049	0.173149	0.241368
O19	O	1.326049	0.423149	0.491368
O20	O	1.576049	0.673149	0.741368
O21	O	0.719074	-0.076866	0.098343
O22	O	0.969074	0.173134	0.348343
O23	O	1.219074	0.423134	0.598343
O24	O	1.469074	0.673134	0.848343
O25	O	0.921335	-0.076804	0.086654
O26	O	1.171335	0.173196	0.336654
O27	O	1.421335	0.423196	0.586654
O28	O	1.671335	0.673196	0.836654
Cu29	Cu	0.820203	-0.090917	0.092500
Cu30	Cu	1.070203	0.159083	0.342500
Cu31	Cu	1.320203	0.409083	0.592500
Cu32	Cu	1.570203	0.659083	0.842500
Cu33	Cu	0.820224	0.091470	0.092481
Cu34	Cu	1.070224	0.341470	0.342481
Cu35	Cu	1.320224	0.591470	0.592481
Cu36	Cu	1.570224	0.841470	0.842481
O37	O	0.814360	-0.076818	0.193629
O38	O	1.064360	0.173182	0.443629
O39	O	1.314360	0.423182	0.693629
O40	O	1.564360	0.673182	0.943629
C41	C	0.693207	0.000238	0.097959
C42	C	0.943207	0.250238	0.347959
C43	C	1.193207	0.500238	0.597959
C44	C	1.443207	0.750238	0.847959
C45	C	0.616103	0.000213	0.096830
C46	C	0.866103	0.250213	0.346830
C47	C	1.116103	0.500213	0.596830
C48	C	1.366103	0.750213	0.846830
C49	C	0.571407	0.000238	0.159598
C50	C	0.821407	0.250238	0.409598
C51	C	1.071407	0.500238	0.659598
C52	C	1.321407	0.750238	0.909598
C53	C	0.498960	0.000248	0.158537
C54	C	0.748960	0.250248	0.408537
C55	C	0.998960	0.500248	0.658537
C56	C	1.248960	0.750248	0.908537
C57	C	0.471212	0.000252	0.094705
C58	C	0.721212	0.250252	0.344705
C59	C	0.971212	0.500252	0.594705
C60	C	1.221212	0.750252	0.844705
C61	C	0.515918	0.000222	0.031929
C62	C	0.765918	0.250222	0.281929
C63	C	1.015918	0.500222	0.531929
C64	C	1.265918	0.750222	0.781929
C65	C	0.588364	0.000202	0.032991
C66	C	0.838364	0.250202	0.282991
C67	C	1.088364	0.500202	0.532991
C68	C	1.338364	0.750202	0.782991
C69	C	0.362956	0.054306	0.044520
C70	C	0.612956	0.304306	0.294520
C71	C	0.862956	0.554306	0.544520
C72	C	1.112956	0.804306	0.794520
C73	C	0.290512	0.054331	0.043460
C74	C	0.540512	0.304331	0.293460
C75	C	0.790512	0.554331	0.543460
C76	C	1.040512	0.804331	0.793460
C77	C	0.247767	0.000308	0.091425
C78	C	0.497767	0.250308	0.341425
C79	C	0.747767	0.500308	0.591425
C80	C	0.997767	0.750308	0.841425
C81	C	0.277473	-0.053729	0.140462
C82	C	0.527473	0.196271	0.390462
C83	C	0.777473	0.446271	0.640462
C84	C	1.027473	0.696271	0.890462
C85	C	0.349919	-0.053749	0.141524
C86	C	0.599919	0.196251	0.391524
C87	C	0.849919	0.446251	0.641524
C88	C	1.099919	0.696251	0.891524
C89	C	0.392658	0.000272	0.093546
C90	C	0.642658	0.250272	0.343546
C91	C	0.892658	0.500272	0.593546
C92	C	1.142658	0.750272	0.843546
C93	C	0.124514	0.000342	0.153047
C94	C	0.374514	0.250342	0.403047
C95	C	0.624514	0.500342	0.653047
C96	C	0.874514	0.750342	0.903047
C97	C	0.052066	0.000346	0.151984
C98	C	0.302066	0.250346	0.401984
C99	C	0.552066	0.500346	0.651984
C100	C	0.802066	0.750346	0.901984
C101	C	0.069026	0.000329	0.025374
C102	C	0.319026	0.250329	0.275374
C103	C	0.569026	0.500329	0.525374
C104	C	0.819026	0.750329	0.775374
C105	C	0.141473	0.000316	0.026439
C106	C	0.391473	0.250316	0.276439
C107	C	0.641473	0.500316	0.526439
C108	C	0.891473	0.750316	0.776439
C109	C	0.169212	0.000326	0.090277
C110	C	0.419212	0.250326	0.340277
C111	C	0.669212	0.500326	0.590277
C112	C	0.919212	0.750326	0.840277
N113	N	0.820193	-0.219198	0.092513
N114	N	1.070193	0.030802	0.342513
N115	N	1.320193	0.280802	0.592513
N116	N	1.570193	0.530802	0.842513
C117	C	0.770720	-0.468858	0.141956
C118	C	1.020720	-0.218858	0.391956
C119	C	1.270720	0.031142	0.641956
C120	C	1.520720	0.281142	0.891956
C121	C	0.833441	-0.530639	0.155241
C122	C	1.083441	-0.280639	0.405241
C123	C	1.333441	-0.030639	0.655241
C124	C	1.583441	0.219361	0.905241
C125	C	0.820210	-0.408359	0.092496
C126	C	1.070210	-0.158359	0.342496
C127	C	1.320210	0.091641	0.592496
C128	C	1.570210	0.341641	0.842496
C129	C	0.757505	-0.530673	0.079227
C130	C	1.007505	-0.280673	0.329227
C131	C	1.257505	-0.030673	0.579227
C132	C	1.507505	0.219327	0.829227
C133	C	0.820221	-0.591081	0.092481
C134	C	1.070221	-0.341081	0.342481
C135	C	1.320221	-0.091081	0.592481
C136	C	1.570221	0.158919	0.842481
C137	C	0.882963	-0.468779	0.105812
C138	C	1.132963	-0.218779	0.355812
C139	C	1.382963	0.031221	0.605812
C140	C	1.632963	0.281221	0.855812
C141	C	0.806986	-0.468808	0.029771
C142	C	1.056986	-0.218808	0.279771
C143	C	1.306986	0.031192	0.529771
C144	C	1.556986	0.281192	0.779771
C145	C	0.869753	-0.530560	0.043030
C146	C	1.119753	-0.280560	0.293030
C147	C	1.369753	-0.030560	0.543030
C148	C	1.619753	0.219440	0.793030
C149	C	0.820203	-0.303098	0.092506
C150	C	1.070203	-0.053098	0.342506
C151	C	1.320203	0.196902	0.592506
C152	C	1.570203	0.446902	0.842506
C153	C	0.820235	-0.696340	0.092471
C154	C	1.070235	-0.446340	0.342471
C155	C	1.320235	-0.196340	0.592471
C156	C	1.570235	0.053660	0.842471
C157	C	0.947220	0.000318	0.087022
C158	C	1.197220	0.250318	0.337022
C159	C	1.447220	0.500318	0.587022
C160	C	1.697220	0.750318	0.837022
C161	C	1.024324	0.000349	0.088151
C162	C	1.274324	0.250349	0.338151
C163	C	1.524324	0.500349	0.588151
C164	C	1.774324	0.750349	0.838151
C165	C	0.825682	0.000257	-0.034516
C166	C	1.075682	0.250257	0.215484
C167	C	1.325682	0.500257	0.465484
C168	C	1.575682	0.750257	0.715484
C169	C	0.824553	0.000249	-0.111620
C170	C	1.074553	0.250249	0.138380
C171	C	1.324553	0.500249	0.388380
C172	C	1.574553	0.750249	0.638380
N173	N	0.820239	0.219752	0.092463
N174	N	1.070239	0.469752	0.342463
N175	N	1.320239	0.719752	0.592463
N176	N	1.570239	0.969752	0.842463
C177	C	0.887321	0.000264	-0.156316
C178	C	1.137321	0.250264	0.093684
C179	C	1.387321	0.500264	0.343684
C180	C	1.637321	0.750264	0.593684
C181	C	0.886260	0.000278	-0.228763
C182	C	1.136260	0.250278	0.021237
C183	C	1.386260	0.500278	0.271237
C184	C	1.636260	0.750278	0.521237
C185	C	0.822428	0.000259	-0.256511
C186	C	1.072428	0.250259	-0.006511
C187	C	1.322428	0.500259	0.243489
C188	C	1.572428	0.750259	0.493489
C189	C	0.759652	0.000250	-0.211805
C190	C	1.009652	0.250250	0.038195
C191	C	1.259652	0.500250	0.288195
C192	C	1.509652	0.750250	0.538195
C193	C	0.760714	0.000244	-0.139359
C194	C	1.010714	0.250244	0.110641
C195	C	1.260714	0.500244	0.360641
C196	C	1.510714	0.750244	0.610641
C197	C	0.772242	-0.053778	-0.364793
C198	C	1.022242	0.196222	-0.114793
C199	C	1.272242	0.446222	0.135207
C200	C	1.522242	0.696222	0.385207
C201	C	0.771182	-0.053778	-0.437237
C202	C	1.021182	0.196222	-0.187237
C203	C	1.271182	0.446222	0.062763
C204	C	1.521182	0.696222	0.312763
C205	C	0.819148	0.000279	-0.479956
C206	C	1.069148	0.250279	-0.229956
C207	C	1.319148	0.500279	0.020044
C208	C	1.569148	0.750279	0.270044
C209	C	0.868186	0.054324	-0.450224
C210	C	1.118186	0.304324	-0.200224
C211	C	1.368186	0.554324	0.049776
C212	C	1.618186	0.804324	0.299776
C213	C	0.869248	0.054319	-0.377778
C214	C	1.119248	0.304319	-0.127778
C215	C	1.369248	0.554319	0.122222
C216	C	1.619248	0.804319	0.372222
C217	C	0.821269	0.000265	-0.335065
C218	C	1.071269	0.250265	-0.085065
C219	C	1.321269	0.500265	0.164935
C220	C	1.571269	0.750265	0.414935
C221	C	0.880770	0.000310	-0.603209
C222	C	1.130770	0.250310	-0.353209
C223	C	1.380770	0.500310	-0.103209
C224	C	1.630770	0.750310	0.146791
C225	C	0.879707	0.000330	-0.675657
C226	C	1.129707	0.250330	-0.425657
C227	C	1.379707	0.500330	-0.175657
C228	C	1.629707	0.750330	0.074343
C229	C	0.753097	0.000293	-0.658697
C230	C	1.003097	0.250293	-0.408697
C231	C	1.253097	0.500293	-0.158697
C232	C	1.503097	0.750293	0.091303
C233	C	0.754162	0.000282	-0.586250
C234	C	1.004162	0.250282	-0.336250
C235	C	1.254162	0.500282	-0.086250
C236	C	1.504162	0.750282	0.163750
C237	C	0.818001	0.000286	-0.558511
C238	C	1.068001	0.250286	-0.308511
C239	C	1.318001	0.500286	-0.058511
C240	C	1.568001	0.750286	0.191489
C241	C	0.814745	0.000298	0.219497
C242	C	1.064745	0.250298	0.469497
C243	C	1.314745	0.500298	0.719497
C244	C	1.564745	0.750298	0.969497
C245	C	0.815874	0.000313	0.296601
C246	C	1.065874	0.250313	0.546601
C247	C	1.315874	0.500313	0.796601
C248	C	1.565874	0.750313	1.046601
H249	H	0.624756	0.000183	-0.018124
H250	H	0.874756	0.250183	0.231876
H251	H	1.124756	0.500183	0.481876
H252	H	1.374756	0.750183	0.731876
H253	H	0.937375	0.000294	-0.265162
H254	H	1.187375	0.250294	-0.015162
H255	H	1.437375	0.500294	0.234838
H256	H	1.687375	0.750294	0.484838
H257	H	0.728909	-0.441766	0.183815
H258	H	0.978909	-0.191766	0.433815
H259	H	1.228909	0.058234	0.683815
H260	H	1.478909	0.308234	0.933815
F261	F	0.486386	0.000222	-0.036006
F262	F	0.736386	0.250222	0.213994
F263	F	0.986386	0.500222	0.463994
F264	F	1.236386	0.750222	0.713994
H265	H	0.703049	0.000265	-0.549857
H266	H	0.953049	0.250265	-0.299857
H267	H	1.203049	0.500265	-0.049857
H268	H	1.453049	0.750265	0.200143
H269	H	0.374103	-0.097750	0.181449
H270	H	0.624103	0.152250	0.431449
H271	H	0.874103	0.402250	0.681449
H272	H	1.124103	0.652250	0.931449
H273	H	0.795772	-0.441627	-0.023250
H274	H	1.045772	-0.191627	0.226750
H275	H	1.295772	0.058373	0.476750
H276	H	1.545772	0.308373	0.726750
H277	H	0.844636	-0.557798	0.208279
H278	H	1.094636	-0.307798	0.458279
H279	H	1.344636	-0.057798	0.708279
H280	H	1.594636	0.192202	0.958279
H281	H	0.911656	-0.557482	0.001195
H282	H	1.161656	-0.307482	0.251195
H283	H	1.411656	-0.057482	0.501195
H284	H	1.661656	0.192518	0.751195
H285	H	0.242671	-0.097721	0.179519
H286	H	0.492671	0.152279	0.429519
H287	H	0.742671	0.402279	0.679519
H288	H	0.992671	0.652279	0.929519
F289	F	0.154039	0.000346	0.220989
F290	F	0.404039	0.250346	0.470989
F291	F	0.654039	0.500346	0.720989
F292	F	0.904039	0.750346	0.970989
H293	H	0.015674	0.000361	0.203099
H294	H	0.265674	0.250361	0.453099
H295	H	0.515674	0.500361	0.703099
H296	H	0.765674	0.750361	0.953099
F297	F	0.952297	-0.433397	0.120554
F298	F	1.202297	-0.183397	0.370554
F299	F	1.452297	0.066603	0.620554
F300	F	1.702297	0.316603	0.870554
F301	F	0.921433	0.111841	-0.346137
F302	F	1.171433	0.361841	-0.096137
F303	F	1.421433	0.611841	0.153863
F304	F	1.671433	0.861841	0.403863
H305	H	0.709599	0.000232	-0.102967
H306	H	0.959599	0.250232	0.147033
H307	H	1.209599	0.500232	0.397033
H308	H	1.459599	0.750232	0.647033
F309	F	0.039500	0.000324	-0.042562
F310	F	0.289500	0.250324	0.207438
F311	F	0.539500	0.500324	0.457438
F312	F	0.789500	0.750324	0.707438
F313	F	0.688188	-0.566210	0.064565
F314	F	0.938188	-0.316210	0.314565
F315	F	1.188188	-0.066210	0.564565
F316	F	1.438188	0.183790	0.814565
F317	F	0.721187	-0.111318	-0.319334
F318	F	0.971187	0.138682	-0.069334
F319	F	1.221187	0.388682	0.180666
F320	F	1.471187	0.638682	0.430666
H321	H	0.939303	0.000270	-0.133736
H322	H	1.189303	0.250270	0.116264
H323	H	1.439303	0.500270	0.366264
H324	H	1.689303	0.750270	0.616264
H325	H	0.266330	0.098335	0.003534
H326	H	0.516330	0.348335	0.253534
H327	H	0.766330	0.598335	0.503534
H328	H	1.016330	0.848335	0.753534
H329	H	0.593987	0.000249	0.211580
H330	H	0.843987	0.250249	0.461580
H331	H	1.093987	0.500249	0.711580
H332	H	1.343987	0.750249	0.961580
F333	F	0.189044	0.000294	-0.040368
F334	F	0.439044	0.250294	0.209632
F335	F	0.689044	0.500294	0.459632
F336	F	0.939044	0.750294	0.709632
H337	H	0.907244	0.098343	-0.485005
H338	H	1.157244	0.348343	-0.235005
H339	H	1.407244	0.598343	0.014995
H340	H	1.657244	0.848343	0.264995
H341	H	0.731250	-0.097780	-0.461439
H342	H	0.981250	0.152220	-0.211439
H343	H	1.231250	0.402220	0.038561
H344	H	1.481250	0.652220	0.288561
F345	F	0.948712	0.000311	-0.573684
F346	F	1.198712	0.250311	-0.323684
F347	F	1.448712	0.500311	-0.073684
F348	F	1.698712	0.750311	0.176316
H349	H	0.930822	0.000347	-0.712049
H350	H	1.180822	0.250347	-0.462049
H351	H	1.430822	0.500347	-0.212049
H352	H	1.680822	0.750347	0.037951
F353	F	0.685161	0.000277	-0.688223
F354	F	0.935161	0.250277	-0.438223
F355	F	1.185161	0.500277	-0.188223
F356	F	1.435161	0.750277	0.061777
F357	F	0.691717	0.000235	-0.241337
F358	F	0.941717	0.250235	0.008663
F359	F	1.191717	0.500235	0.258663
F360	F	1.441717	0.750235	0.508663
F361	F	0.451382	0.000272	0.225346
F362	F	0.701382	0.250272	0.475346
F363	F	0.951382	0.500272	0.725346
F364	F	1.201382	0.750272	0.975346
F365	F	0.408443	0.111809	-0.006535
F366	F	0.658443	0.361809	0.243465
F367	F	0.908443	0.611809	0.493465
F368	F	1.158443	0.861809	0.743465
