data_functionalizedCrystal
_audit_creation_method	'MofGen! by Chris Wilmer'
_symmetry_space_group_name_H-M	'P1'
_symmetry_Int_Tables_number	1
_symmetry_cell_setting	triclinic
loop_
_symmetry_equiv_pos_as_xyz
  x,y,z
_cell_length_a	15.944551
_cell_length_b	17.699083
_cell_length_c	16.776229
_cell_angle_alpha	90.007545
_cell_angle_beta	90.002650
_cell_angle_gamma	83.390876
loop_
_atom_site_label
_atom_site_type_symbol
_atom_site_fract_x
_atom_site_fract_y
_atom_site_fract_z
O1	O	-1.114322	-0.097616	-0.066207
O2	O	-0.780989	0.235717	0.267127
O3	O	-0.447655	0.569051	0.600460
O4	O	-0.869747	-0.109651	-0.066227
O5	O	-0.536414	0.223683	0.267107
O6	O	-0.203080	0.557016	0.600440
O7	O	-0.998944	0.006544	-0.066209
O8	O	-0.665611	0.339877	0.267124
O9	O	-0.332278	0.673211	0.600458
O10	O	-0.985125	-0.213811	-0.066224
O11	O	-0.651791	0.119523	0.267109
O12	O	-0.318458	0.452856	0.600442
O13	O	-0.998927	0.006551	0.066367
O14	O	-0.665594	0.339885	0.399701
O15	O	-0.332260	0.673218	0.733034
O16	O	-0.869730	-0.109643	0.066350
O17	O	-0.536396	0.223690	0.399683
O18	O	-0.203063	0.557023	0.733016
O19	O	-1.114305	-0.097609	0.066370
O20	O	-0.780971	0.235725	0.399703
O21	O	-0.447638	0.569058	0.733036
Zn22	Zn	-0.992015	-0.103625	0.087409
Zn23	Zn	-0.658681	0.229708	0.420743
Zn24	Zn	-0.325348	0.563042	0.754076
Zn25	Zn	-0.992037	-0.103634	-0.087266
Zn26	Zn	-0.658704	0.229699	0.246067
Zn27	Zn	-0.325370	0.563032	0.579401
O28	O	-0.985107	-0.213803	0.066352
O29	O	-0.651774	0.119530	0.399686
O30	O	-0.318441	0.452863	0.733019
C31	C	-0.838445	-0.109147	0.000059
C32	C	-0.505112	0.224186	0.333392
C33	C	-0.171779	0.557519	0.666726
C34	C	-0.745203	-0.107650	0.000052
C35	C	-0.411869	0.225684	0.333385
C36	C	-0.078536	0.559017	0.666718
C37	C	-0.998440	0.034746	0.000079
C38	C	-0.665107	0.368079	0.333413
C39	C	-0.331774	0.701412	0.666746
C40	C	-0.996955	0.118766	0.000079
C41	C	-0.663622	0.452100	0.333413
C42	C	-0.330288	0.785433	0.666746
C43	C	-1.145606	-0.098112	0.000082
C44	C	-0.812273	0.235221	0.333416
C45	C	-0.478940	0.568555	0.666749
C46	C	-1.238849	-0.099610	0.000084
C47	C	-0.905516	0.233724	0.333418
C48	C	-0.572182	0.567057	0.666751
C49	C	-0.530505	-0.032046	0.000072
C50	C	-0.197171	0.301287	0.333406
C51	C	0.136162	0.634620	0.666739
C52	C	-0.469419	-0.067158	-0.065297
C53	C	-0.136086	0.266176	0.268036
C54	C	0.197247	0.599509	0.601369
C55	C	-0.574482	-0.104940	0.000061
C56	C	-0.241149	0.228393	0.333395
C57	C	0.092184	0.561727	0.666728
C58	C	-0.469425	-0.067168	0.065413
C59	C	-0.136091	0.266166	0.398746
C60	C	0.197242	0.599499	0.732079
C61	C	-0.409575	-0.102317	0.000074
C62	C	-0.076242	0.231016	0.333407
C63	C	0.257091	0.564350	0.666741
C64	C	-0.514625	-0.140071	-0.065362
C65	C	-0.181292	0.193262	0.267971
C66	C	0.152042	0.526596	0.601304
C67	C	-0.514637	-0.140071	0.065406
C68	C	-0.181303	0.193262	0.398740
C69	C	0.152030	0.526596	0.732073
C70	C	-0.453569	-0.175235	0.000021
C71	C	-0.120235	0.158098	0.333354
C72	C	0.213098	0.491432	0.666687
C73	C	-0.669481	-0.106449	0.000053
C74	C	-0.336148	0.226885	0.333387
C75	C	-0.002815	0.560218	0.666720
C76	C	-0.314577	-0.100814	0.000076
C77	C	0.018756	0.232519	0.333410
C78	C	0.352089	0.565853	0.666743
C79	C	-0.985611	-0.242005	0.000062
C80	C	-0.652278	0.091328	0.333395
C81	C	-0.318944	0.424662	0.666729
C82	C	-0.987097	-0.326026	0.000057
C83	C	-0.653763	0.007308	0.333390
C84	C	-0.320430	0.340641	0.666723
N85	N	-0.992005	-0.103618	0.206620
N86	N	-0.658672	0.229715	0.539954
N87	N	-0.325339	0.563049	0.873287
C88	C	-1.072791	0.167258	0.000087
C89	C	-0.739458	0.500591	0.333420
C90	C	-0.406124	0.833924	0.666753
C91	C	-1.071390	0.246203	0.000080
C92	C	-0.738057	0.579537	0.333413
C93	C	-0.404723	0.912870	0.666746
C94	C	-0.994152	0.276656	0.000071
C95	C	-0.660819	0.609989	0.333404
C96	C	-0.327486	0.943323	0.666737
C97	C	-0.918310	0.228158	0.000061
C98	C	-0.584977	0.561492	0.333394
C99	C	-0.251644	0.894825	0.666728
C100	C	-0.919712	0.149214	0.000063
C101	C	-0.586379	0.482548	0.333396
C102	C	-0.253045	0.815881	0.666729
C103	C	-0.912656	0.546531	0.000054
C104	C	-0.579322	0.879864	0.333387
C105	C	-0.245989	1.213198	0.666721
C106	C	-0.911260	0.625481	0.000055
C107	C	-0.577926	0.958815	0.333388
C108	C	-0.244593	1.292148	0.666722
C109	C	-1.064334	0.643520	0.000071
C110	C	-0.731000	0.976854	0.333405
C111	C	-0.397667	1.310187	0.666738
C112	C	-1.065735	0.564576	0.000073
C113	C	-0.732402	0.897909	0.333406
C114	C	-0.399069	1.231243	0.666739
C115	C	-0.989894	0.516085	0.000059
C116	C	-0.656561	0.849419	0.333392
C117	C	-0.323227	1.182752	0.666725
C118	C	-0.991414	0.430484	0.000065
C119	C	-0.658081	0.763817	0.333398
C120	C	-0.324747	1.097150	0.666732
C121	C	-0.992632	0.362256	0.000070
C122	C	-0.659298	0.695590	0.333404
C123	C	-0.325965	1.028923	0.666737
N124	N	-0.992053	-0.103635	-0.206477
N125	N	-0.658720	0.229698	0.126856
N126	N	-0.325386	0.563031	0.460189
C127	C	-1.049231	-0.052188	0.248345
C128	C	-0.715898	0.281145	0.581679
C129	C	-0.382565	0.614479	0.915012
C130	C	-1.049236	-0.052187	0.331797
C131	C	-0.715903	0.281146	0.665131
C132	C	-0.382569	0.614479	0.998464
C133	C	-0.992018	-0.103621	0.373523
C134	C	-0.658685	0.229712	0.706857
C135	C	-0.325351	0.563046	1.040190
C136	C	-0.934786	-0.155053	0.331793
C137	C	-0.601453	0.178280	0.665126
C138	C	-0.268119	0.511613	0.998459
C139	C	-0.934778	-0.155050	0.248342
C140	C	-0.601445	0.178284	0.581675
C141	C	-0.268111	0.511617	0.915009
C142	C	-0.934816	-0.155068	0.668340
C143	C	-0.601483	0.178265	1.001673
C144	C	-0.268150	0.511598	1.335006
C145	C	-0.934830	-0.155069	0.751796
C146	C	-0.601497	0.178264	1.085130
C147	C	-0.268164	0.511597	1.418463
C148	C	-1.049274	-0.052206	0.751795
C149	C	-0.715941	0.281127	1.085129
C150	C	-0.382608	0.614461	1.418462
C151	C	-1.049266	-0.052202	0.668345
C152	C	-0.715933	0.281131	1.001678
C153	C	-0.382600	0.614464	1.335011
C154	C	-0.992032	-0.103632	0.626621
C155	C	-0.658698	0.229702	0.959955
C156	C	-0.325365	0.563035	1.293288
C157	C	-0.992026	-0.103631	0.536133
C158	C	-0.658693	0.229702	0.869466
C159	C	-0.325360	0.563036	1.202800
C160	C	-0.992027	-0.103626	0.464010
C161	C	-0.658693	0.229707	0.797343
C162	C	-0.325360	0.563041	1.130677
H163	H	-0.563965	0.028449	-0.000004
H164	H	-0.230632	0.361783	0.333329
H165	H	0.102702	0.695116	0.666662
Cl166	Cl	-0.438483	-0.019565	-0.150618
Cl167	Cl	-0.105149	0.313769	0.182715
Cl168	Cl	0.228184	0.647102	0.516048
H169	H	-1.095861	-0.010323	0.634374
H170	H	-0.762528	0.323010	0.967707
H171	H	-0.429194	0.656344	1.301041
Cl172	Cl	-1.121171	0.012472	0.195899
Cl173	Cl	-0.787838	0.345805	0.529232
Cl174	Cl	-0.454504	0.679139	0.862566
H175	H	-0.850901	0.507059	0.000043
H176	H	-0.517567	0.840392	0.333376
H177	H	-0.184234	1.173726	0.666710
H178	H	-0.857958	0.109733	0.000056
H179	H	-0.524625	0.443066	0.333390
H180	H	-0.191292	0.776399	0.666723
H181	H	-1.095875	-0.010327	0.785775
H182	H	-0.762542	0.323006	1.119109
H183	H	-0.429209	0.656340	1.452442
H184	H	-0.855422	0.252959	0.000049
H185	H	-0.522089	0.586292	0.333382
H186	H	-0.188755	0.919626	0.666716
Cl187	Cl	-0.545390	-0.187640	-0.150782
Cl188	Cl	-0.212057	0.145693	0.182551
Cl189	Cl	0.121277	0.479027	0.515885
H190	H	-1.095833	-0.010309	0.365770
H191	H	-0.762500	0.323024	0.699103
H192	H	-0.429166	0.656358	1.032436
Cl193	Cl	-0.814153	0.663763	0.000042
Cl194	Cl	-0.480820	0.997096	0.333376
Cl195	Cl	-0.147486	1.330430	0.666709
H196	H	-0.888234	-0.196954	0.785768
H197	H	-0.554900	0.136379	1.119101
H198	H	-0.221567	0.469712	1.452435
Cl199	Cl	-0.402173	-0.268730	-0.000039
Cl200	Cl	-0.068839	0.064604	0.333294
Cl201	Cl	0.264494	0.397937	0.666627
H202	H	-0.534696	-0.170873	0.120670
H203	H	-0.201363	0.162460	0.454004
H204	H	0.131971	0.495793	0.787337
Cl205	Cl	-0.438504	-0.019545	0.150736
Cl206	Cl	-0.105171	0.313789	0.484070
Cl207	Cl	0.228163	0.647122	0.817403
H208	H	-0.888215	-0.196945	0.634375
H209	H	-0.554882	0.136388	0.967708
H210	H	-0.221549	0.469722	1.301042
H211	H	-1.135687	0.142470	0.000099
H212	H	-0.802354	0.475803	0.333432
H213	H	-0.469020	0.809136	0.666765
Cl214	Cl	-1.166732	0.307161	0.000091
Cl215	Cl	-0.833398	0.640495	0.333425
Cl216	Cl	-0.500065	0.973828	0.666758
H217	H	-1.126087	0.683011	0.000078
H218	H	-0.792754	1.016345	0.333412
H219	H	-0.459421	1.349678	0.666745
H220	H	-0.888178	-0.196928	0.214370
H221	H	-0.554844	0.136405	0.547704
H222	H	-0.221511	0.469738	0.881037
Cl223	Cl	-1.162838	0.526297	0.000081
Cl224	Cl	-0.829505	0.859631	0.333414
Cl225	Cl	-0.496171	1.192964	0.666748
Cl226	Cl	-0.862849	-0.219710	0.384246
Cl227	Cl	-0.529516	0.113623	0.717579
Cl228	Cl	-0.196183	0.446956	1.050913
