data_functionalizedCrystal
_audit_creation_method	'MofGen! by Chris Wilmer'
_symmetry_space_group_name_H-M	'P1'
_symmetry_Int_Tables_number	1
_symmetry_cell_setting	triclinic
loop_
_symmetry_equiv_pos_as_xyz
  x,y,z
_cell_length_a	16.120530
_cell_length_b	16.120484
_cell_length_c	13.897441
_cell_angle_alpha	92.866498
_cell_angle_beta	87.083121
_cell_angle_gamma	90.167327
loop_
_atom_site_label
_atom_site_type_symbol
_atom_site_fract_x
_atom_site_fract_y
_atom_site_fract_z
Zn1	Zn	1.254474	-0.395582	-0.642096
Zn2	Zn	1.504474	-0.145582	-0.392096
Zn3	Zn	1.754474	0.104418	-0.142096
Zn4	Zn	2.004474	0.354418	0.107904
Zn5	Zn	1.247317	-0.534648	-0.488526
Zn6	Zn	1.497317	-0.284648	-0.238526
Zn7	Zn	1.747317	-0.034648	0.011474
Zn8	Zn	1.997317	0.215352	0.261474
Zn9	Zn	1.115414	-0.388556	-0.472251
Zn10	Zn	1.365414	-0.138556	-0.222251
Zn11	Zn	1.615414	0.111444	0.027749
Zn12	Zn	1.865414	0.361444	0.277749
Zn13	Zn	1.108327	-0.527535	-0.641214
Zn14	Zn	1.358327	-0.277535	-0.391214
Zn15	Zn	1.608327	-0.027535	-0.141214
Zn16	Zn	1.858327	0.222465	0.108786
O17	O	1.181383	-0.461580	-0.561022
O18	O	1.431383	-0.211580	-0.311022
O19	O	1.681383	0.038420	-0.061022
O20	O	1.931383	0.288420	0.188978
O21	O	1.369891	-0.419947	-0.628905
O22	O	1.619891	-0.169947	-0.378905
O23	O	1.869891	0.080053	-0.128905
O24	O	2.119891	0.330053	0.121095
O25	O	1.229791	-0.515304	-0.351386
O26	O	1.479791	-0.265304	-0.101386
O27	O	1.729791	-0.015304	0.148614
O28	O	1.979791	0.234696	0.398614
O29	O	1.139822	-0.273125	-0.488340
O30	O	1.389822	-0.023125	-0.238340
O31	O	1.639822	0.226875	0.011660
O32	O	1.889822	0.476875	0.261660
O33	O	1.364632	-0.522118	-0.516078
O34	O	1.614632	-0.272118	-0.266078
O35	O	1.864632	-0.022118	-0.016078
O36	O	2.114632	0.227882	0.233922
O37	O	1.241989	-0.278287	-0.613124
O38	O	1.491989	-0.028287	-0.363124
O39	O	1.741989	0.221713	-0.113124
O40	O	1.991989	0.471713	0.136876
O41	O	1.132882	-0.407971	-0.339429
O42	O	1.382882	-0.157971	-0.089429
O43	O	1.632882	0.092029	0.160571
O44	O	1.882882	0.342029	0.410571
O45	O	0.998108	-0.401074	-0.487484
O46	O	1.248108	-0.151074	-0.237484
O47	O	1.498108	0.098926	0.012516
O48	O	1.748108	0.348926	0.262516
O49	O	1.127743	-0.509995	-0.776312
O50	O	1.377743	-0.259995	-0.526312
O51	O	1.627743	-0.009995	-0.276312
O52	O	1.877743	0.240005	-0.026312
O53	O	0.992901	-0.503182	-0.611620
O54	O	1.242901	-0.253182	-0.361620
O55	O	1.492901	-0.003182	-0.111620
O56	O	1.742901	0.246818	0.138380
O57	O	1.235117	-0.413050	-0.776961
O58	O	1.485117	-0.163050	-0.526961
O59	O	1.735117	0.086950	-0.276961
O60	O	1.985117	0.336950	-0.026961
O61	O	1.222919	-0.650067	-0.515222
O62	O	1.472919	-0.400067	-0.265222
O63	O	1.722919	-0.150067	-0.015222
O64	O	1.972919	0.099933	0.234778
O65	O	1.120803	-0.644842	-0.627401
O66	O	1.370803	-0.394842	-0.377401
O67	O	1.620803	-0.144842	-0.127401
O68	O	1.870803	0.105158	0.122599
C69	C	0.965332	-0.450595	-0.547691
C70	C	1.215332	-0.200595	-0.297691
C71	C	1.465332	0.049405	-0.047691
C72	C	1.715332	0.299405	0.202309
C73	C	0.872904	-0.445915	-0.542012
C74	C	1.122904	-0.195915	-0.292012
C75	C	1.372904	0.054085	-0.042012
C76	C	1.622904	0.304085	0.207988
C77	C	0.703677	-0.437352	-0.531651
C78	C	0.953677	-0.187352	-0.281651
C79	C	1.203677	0.062648	-0.031651
C80	C	1.453677	0.312648	0.218349
C81	C	0.659927	-0.485870	-0.590466
C82	C	0.909927	-0.235870	-0.340466
C83	C	1.159927	0.014130	-0.090466
C84	C	1.409927	0.264130	0.159534
C85	C	0.565763	-0.481105	-0.584701
C86	C	0.815763	-0.231105	-0.334701
C87	C	1.065763	0.018895	-0.084701
C88	C	1.315763	0.268895	0.165299
C89	C	0.797849	-0.442115	-0.537415
C90	C	1.047849	-0.192115	-0.287415
C91	C	1.297849	0.057885	-0.037415
C92	C	1.547849	0.307885	0.212585
C93	C	1.170338	-0.677627	-0.573004
C94	C	1.420338	-0.427627	-0.323004
C95	C	1.670338	-0.177627	-0.073004
C96	C	1.920338	0.072373	0.176996
C97	C	1.165688	-0.770057	-0.578167
C98	C	1.415688	-0.520057	-0.328167
C99	C	1.665688	-0.270057	-0.078167
C100	C	1.915688	-0.020057	0.171833
C101	C	1.157205	-0.939287	-0.587613
C102	C	1.407205	-0.689287	-0.337613
C103	C	1.657205	-0.439287	-0.087613
C104	C	1.907205	-0.189287	0.162387
C105	C	1.205710	-0.983040	-0.534455
C106	C	1.455710	-0.733040	-0.284455
C107	C	1.705710	-0.483040	-0.034455
C108	C	1.955710	-0.233040	0.215545
C109	C	1.200990	-1.077206	-0.539711
C110	C	1.450990	-0.827206	-0.289711
C111	C	1.700990	-0.577206	-0.039711
C112	C	1.950990	-0.327206	0.210289
C113	C	1.161924	-0.845113	-0.582359
C114	C	1.411924	-0.595113	-0.332359
C115	C	1.661924	-0.345113	-0.082359
C116	C	1.911924	-0.095113	0.167641
C117	C	1.398277	-0.472609	-0.574405
C118	C	1.648277	-0.222609	-0.324405
C119	C	1.898277	0.027391	-0.074405
C120	C	2.148277	0.277391	0.175595
C121	C	1.490705	-0.477309	-0.580108
C122	C	1.740705	-0.227309	-0.330108
C123	C	1.990705	0.022691	-0.080108
C124	C	2.240705	0.272691	0.169892
C125	C	1.181437	-0.461513	-0.812614
C126	C	1.431437	-0.211513	-0.562614
C127	C	1.681437	0.038487	-0.312614
C128	C	1.931437	0.288487	-0.062614
C129	C	1.181461	-0.461484	-0.919828
C130	C	1.431461	-0.211484	-0.669828
C131	C	1.681461	0.038516	-0.419828
C132	C	1.931461	0.288516	-0.169828
C133	C	1.192494	-0.244691	-0.549015
C134	C	1.442494	0.005309	-0.299015
C135	C	1.692494	0.255309	-0.049015
C136	C	1.942494	0.505309	0.200985
C137	C	1.197229	-0.152265	-0.543899
C138	C	1.447229	0.097735	-0.293899
C139	C	1.697229	0.347735	-0.043899
C140	C	1.947229	0.597735	0.206101
C141	C	1.181479	-0.461462	-1.006897
C142	C	1.431479	-0.211462	-0.756897
C143	C	1.681479	0.038538	-0.506897
C144	C	1.931479	0.288538	-0.256897
C145	C	1.181505	-0.461425	-1.116129
C146	C	1.431505	-0.211425	-0.866129
C147	C	1.681505	0.038575	-0.616129
C148	C	1.931505	0.288575	-0.366129
C149	C	1.181380	-0.461590	-0.310408
C150	C	1.431380	-0.211590	-0.060408
C151	C	1.681380	0.038410	0.189592
C152	C	1.931380	0.288410	0.439592
C153	C	1.181529	-0.461392	-0.203192
C154	C	1.431529	-0.211392	0.046808
C155	C	1.681529	0.038608	0.296808
C156	C	1.931529	0.288608	0.546808
H157	H	0.670415	-0.392240	-0.476971
H158	H	0.920415	-0.142240	-0.226971
H159	H	1.170415	0.107760	0.023029
H160	H	1.420415	0.357760	0.273029
H161	H	0.693190	-0.530985	-0.645151
H162	H	0.943190	-0.280985	-0.395151
H163	H	1.193190	-0.030985	-0.145151
H164	H	1.443190	0.219015	0.104849
C165	C	1.096311	-0.984222	-0.654414
C166	C	1.346311	-0.734222	-0.404414
C167	C	1.596311	-0.484222	-0.154414
C168	C	1.846311	-0.234222	0.095586
N169	N	1.050442	-1.018076	-0.704722
N170	N	1.300442	-0.768076	-0.454722
N171	N	1.550442	-0.518076	-0.204722
N172	N	1.800442	-0.268076	0.045278
C173	C	1.266594	-0.938105	-0.467632
C174	C	1.516594	-0.688105	-0.217632
C175	C	1.766594	-0.438105	0.032368
C176	C	2.016594	-0.188105	0.282368
N177	N	1.312446	-0.904256	-0.417299
N178	N	1.562446	-0.654256	-0.167299
N179	N	1.812446	-0.404256	0.082701
N180	N	2.062446	-0.154256	0.332701
