data_functionalizedCrystal
_audit_creation_method	'MofGen! by Chris Wilmer'
_symmetry_space_group_name_H-M	'P1'
_symmetry_Int_Tables_number	1
_symmetry_cell_setting	triclinic
loop_
_symmetry_equiv_pos_as_xyz
  x,y,z
_cell_length_a	16.120490
_cell_length_b	12.594516
_cell_length_c	12.594517
_cell_angle_alpha	90.001327
_cell_angle_beta	92.896298
_cell_angle_gamma	87.108688
loop_
_atom_site_label
_atom_site_type_symbol
_atom_site_fract_x
_atom_site_fract_y
_atom_site_fract_z
Zn1	Zn	1.274435	-0.506707	0.684237
Zn2	Zn	1.274397	-0.684637	0.506262
Zn3	Zn	1.135063	-0.497628	0.497259
Zn4	Zn	1.135002	-0.675592	0.675184
O5	O	1.204724	-0.591141	0.590736
O6	O	1.391095	-0.537895	0.668185
O7	O	1.255923	-0.659816	0.356123
O8	O	1.153592	-0.349889	0.522083
O9	O	1.391067	-0.668620	0.537428
O10	O	1.255989	-0.356559	0.659455
O11	O	1.153555	-0.522421	0.349508
O12	O	1.018389	-0.513650	0.513304
O13	O	1.153489	-0.653203	0.825330
O14	O	1.018345	-0.644399	0.644025
O15	O	1.255930	-0.529124	0.831981
O16	O	1.255864	-0.832380	0.528649
O17	O	1.153451	-0.825735	0.652755
C18	C	0.988117	-0.577059	0.576706
C19	C	0.895452	-0.571060	0.570729
C20	C	0.684503	-0.622250	0.621740
C21	C	0.725796	-0.560117	0.559815
C22	C	0.820201	-0.566207	0.565889
C23	C	0.590090	-0.616161	0.615667
C24	C	1.204670	-0.867678	0.590722
C25	C	1.204722	-0.985987	0.590756
C26	C	1.149015	-1.051664	0.658207
C27	C	1.128727	-1.121170	0.559773
C28	C	1.225086	-1.127285	0.689212
C29	C	1.184395	-1.053933	0.492268
C30	C	1.280789	-1.060043	0.621775
C31	C	1.260530	-1.129519	0.523276
C32	C	1.422177	-0.605279	0.604821
C33	C	1.514842	-0.611304	0.610823
C34	C	1.204707	-0.591167	0.868355
C35	C	1.204700	-0.591178	0.986660
C36	C	1.204802	-0.313525	0.590774
C37	C	1.204835	-0.195222	0.590791
C38	C	1.148981	-0.658655	1.052296
C39	C	1.225034	-0.689629	1.128002
C40	C	1.128650	-0.560232	1.121753
C41	C	1.280793	-0.622205	1.060811
C42	C	1.184357	-0.492760	1.054552
C43	C	1.260463	-0.523701	1.130230
C44	C	1.204723	-0.591146	1.314195
C45	C	1.204695	-0.591158	1.195887
H46	H	0.720049	-0.680013	0.679312
H47	H	1.101922	-0.715775	1.018199
H48	H	1.242244	-0.772851	1.160222
H49	H	1.101820	-1.017592	0.715155
H50	H	1.242264	-1.159460	0.772461
H51	H	1.167126	-0.409560	1.022308
H52	H	1.345124	-0.648466	1.034010
H53	H	1.307635	-0.466633	1.164139
H54	H	1.167143	-1.021881	0.408992
H55	H	1.064452	-1.148207	0.533563
H56	H	1.345049	-1.033009	0.648030
H57	H	0.690248	-0.502350	0.502238
H58	H	1.307688	-1.163393	0.466180
H59	H	1.064338	-0.534066	1.148686
