data_functionalizedCrystal
_audit_creation_method	'MofGen! by Chris Wilmer'
_symmetry_space_group_name_H-M	'P1'
_symmetry_Int_Tables_number	1
_symmetry_cell_setting	triclinic
loop_
_symmetry_equiv_pos_as_xyz
  x,y,z
_cell_length_a	6.817900
_cell_length_b	19.551900
_cell_length_c	11.102291
_cell_angle_alpha	94.525906
_cell_angle_beta	108.605752
_cell_angle_gamma	101.664829
loop_
_atom_site_label
_atom_site_type_symbol
_atom_site_fract_x
_atom_site_fract_y
_atom_site_fract_z
V1	V	-4.076543	-0.096684	-0.396856
O2	O	-4.072250	0.004637	-0.388687
O3	O	-4.018928	-0.191700	-0.394733
O4	O	-4.053865	-0.095201	-0.569669
O5	O	-4.037071	-0.092530	-0.212540
V6	V	-4.558032	-0.084564	-0.374739
O7	O	-4.342263	-0.123269	-0.445373
O8	O	-4.742509	-0.057979	-0.326222
O9	O	-4.392440	0.010451	-0.376862
O10	O	-4.679722	-0.185886	-0.382908
O11	O	-4.714901	-0.088719	-0.559055
O12	O	-4.357504	-0.086048	-0.201926
C13	C	-3.860855	-0.214862	-0.388625
C14	C	-3.895206	-0.292539	-0.388042
C15	C	-3.905419	-0.091768	-0.611772
C16	C	-3.968099	-0.091184	-0.753051
C17	C	-4.325915	-0.855893	-0.391411
C18	C	-4.293653	-0.782908	-0.391951
C19	C	-4.094222	-0.742748	-0.384664
C20	C	-3.927025	-0.775576	-0.376803
C21	C	-3.959286	-0.848559	-0.376251
C22	C	-3.937817	-0.630704	-0.454538
C23	C	-3.905568	-0.557723	-0.455098
C24	C	-3.994710	-0.517642	-0.386362
C25	C	-4.116146	-0.550554	-0.317083
C26	C	-4.148406	-0.623537	-0.316531
C27	C	-4.059220	-0.663609	-0.385262
C28	C	-4.126912	-0.405682	-0.394799
C29	C	-4.094639	-0.332694	-0.395331
C30	C	-3.728012	-0.325365	-0.380196
C31	C	-3.760284	-0.398350	-0.379652
C32	C	-3.959741	-0.438505	-0.386959
C33	C	-4.180292	-0.094394	-0.825919
C34	C	-4.239167	-0.093832	-0.958662
C35	C	-3.873637	-0.086851	-0.945658
C36	C	-3.814762	-0.087408	-0.812916
C37	C	-4.333629	-0.098169	-0.766055
C38	C	-4.545837	-0.101381	-0.838923
C39	C	-4.604712	-0.100818	-0.971666
C40	C	-4.451379	-0.097044	-1.031540
C41	C	-4.213855	0.033610	-0.382966
C42	C	-4.158743	0.111286	-0.383559
C43	C	-4.169291	-0.089483	-0.159817
C44	C	-4.085849	-0.090064	-0.018536
H45	H	-4.488324	-0.888583	-0.397357
Br46	Br	-4.253741	-0.098940	-0.585907
H47	H	-4.429786	-0.756179	-0.398337
Br48	Br	-4.313196	-0.668201	-0.222511
H49	H	-4.670667	-0.104449	-0.790164
H50	H	-4.188735	-0.517921	-0.261112
Br51	Br	-3.526771	-0.083037	-0.714011
H52	H	-3.865189	-0.663330	-0.510499
H53	H	-4.289319	-0.438377	-0.400743
Br54	Br	-4.892695	-0.105169	-1.070555
Br55	Br	-4.531276	-0.096264	-1.211688
H56	H	-3.748807	-0.083779	-0.994418
H57	H	-4.230776	-0.305972	-0.401719
H58	H	-3.624155	-0.425073	-0.373263
Br59	Br	-3.457349	-0.270869	-0.370298
Br60	Br	-3.656358	-0.721074	-0.366896
H61	H	-3.823149	-0.875282	-0.369860
Br62	Br	-3.740786	-0.513065	-0.549128
