data_functionalizedCrystal
_audit_creation_method	'MofGen! by Chris Wilmer'
_symmetry_space_group_name_H-M	'P1'
_symmetry_Int_Tables_number	1
_symmetry_cell_setting	triclinic
loop_
_symmetry_equiv_pos_as_xyz
  x,y,z
_cell_length_a	18.101398
_cell_length_b	21.295417
_cell_length_c	21.295420
_cell_angle_alpha	90.018953
_cell_angle_beta	90.011709
_cell_angle_gamma	90.025773
loop_
_atom_site_label
_atom_site_type_symbol
_atom_site_fract_x
_atom_site_fract_y
_atom_site_fract_z
Zn1	Zn	1.132032	-0.250777	0.356000
Zn2	Zn	1.465365	0.082556	0.689334
Zn3	Zn	1.798698	0.415889	1.022667
Zn4	Zn	1.131956	-0.356024	0.250726
Zn5	Zn	1.465290	-0.022691	0.584059
Zn6	Zn	1.798623	0.310643	0.917392
Zn7	Zn	1.008218	-0.250764	0.250736
Zn8	Zn	1.341551	0.082569	0.584069
Zn9	Zn	1.674885	0.415903	0.917402
Zn10	Zn	1.008143	-0.356004	0.355948
Zn11	Zn	1.341476	-0.022670	0.689281
Zn12	Zn	1.674809	0.310663	1.022614
O13	O	1.070087	-0.303392	0.303352
O14	O	1.403421	0.029941	0.636686
O15	O	1.736754	0.363274	0.970019
O16	O	1.235655	-0.264752	0.342053
O17	O	1.568988	0.068581	0.675387
O18	O	1.902321	0.401914	1.008720
O19	O	1.115542	-0.342064	0.162638
O20	O	1.448875	-0.008731	0.495971
O21	O	1.782209	0.324603	0.829304
O22	O	1.024705	-0.162676	0.264725
O23	O	1.358039	0.170657	0.598059
O24	O	1.691372	0.503990	0.931392
O25	O	1.235599	-0.342077	0.264709
O26	O	1.568932	-0.008744	0.598042
O27	O	1.902266	0.324590	0.931375
O28	O	1.115671	-0.162686	0.342063
O29	O	1.449004	0.170647	0.675396
O30	O	1.782337	0.503981	1.008730
O31	O	1.024632	-0.264730	0.162645
O32	O	1.357965	0.068603	0.495978
O33	O	1.691299	0.401937	0.829312
O34	O	0.904575	-0.264710	0.264674
O35	O	1.237909	0.068623	0.598008
O36	O	1.571242	0.401956	0.931341
O37	O	1.024577	-0.342042	0.444044
O38	O	1.357910	-0.008709	0.777377
O39	O	1.691244	0.324624	1.110711
O40	O	0.904520	-0.342029	0.341973
O41	O	1.237853	-0.008696	0.675306
O42	O	1.571187	0.324637	1.008640
O43	O	1.115598	-0.264733	0.444083
O44	O	1.448931	0.068601	0.777416
O45	O	1.782264	0.401934	1.110749
O46	O	1.115469	-0.444111	0.264657
O47	O	1.448802	-0.110777	0.597991
O48	O	1.782136	0.222556	0.931324
O49	O	1.024504	-0.444096	0.341964
O50	O	1.357837	-0.110763	0.675297
O51	O	1.691170	0.222571	1.008630
C52	C	0.877677	-0.303367	0.303319
C53	C	1.211010	0.029967	0.636653
C54	C	1.544343	0.363300	0.969986
C55	C	0.795363	-0.303371	0.303320
C56	C	1.128696	0.029962	0.636654
C57	C	1.462029	0.363296	0.969987
C58	C	0.496272	-0.303410	0.303373
C59	C	0.829605	0.029923	0.636707
C60	C	1.162938	0.363256	0.970040
C61	C	0.527607	-0.254520	0.254976
C62	C	0.860940	0.078813	0.588310
C63	C	1.194273	0.412147	0.921643
C64	C	0.613225	-0.254651	0.254770
C65	C	0.946558	0.078682	0.588103
C66	C	1.279892	0.412016	0.921436
C67	C	0.644654	-0.303390	0.303347
C68	C	0.977987	0.029943	0.636680
C69	C	1.311321	0.363276	0.970014
C70	C	0.613542	-0.369697	0.285216
C71	C	0.946875	-0.036364	0.618549
C72	C	1.280208	0.296970	0.951883
C73	C	0.527896	-0.369425	0.284880
C74	C	0.861230	-0.036092	0.618213
C75	C	1.194563	0.297242	0.951546
C76	C	0.527869	-0.286570	0.370015
C77	C	0.861202	0.046763	0.703348
C78	C	1.194535	0.380096	1.036682
C79	C	0.613520	-0.285093	0.369651
C80	C	0.946853	0.048240	0.702985
C81	C	1.280186	0.381573	1.036318
C82	C	0.728514	-0.303383	0.303333
C83	C	1.061847	0.029950	0.636667
C84	C	1.395180	0.363284	0.970000
C85	C	0.412412	-0.303422	0.303385
C86	C	0.745745	0.029911	0.636719
C87	C	1.079079	0.363245	0.970052
C88	C	1.069990	-0.466944	0.303317
C89	C	1.403323	-0.133611	0.636651
C90	C	1.736657	0.199723	0.969984
C91	C	1.070016	-0.536912	0.303324
C92	C	1.403350	-0.203579	0.636657
C93	C	1.736683	0.129755	0.969990
C94	C	1.117424	-0.569765	0.263112
C95	C	1.450757	-0.236432	0.596445
C96	C	1.784091	0.096901	0.929778
C97	C	1.117459	-0.635508	0.263126
C98	C	1.450792	-0.302175	0.596459
C99	C	1.784125	0.031159	0.929792
C100	C	1.070073	-0.668394	0.303345
C101	C	1.403406	-0.335061	0.636679
C102	C	1.736739	-0.001728	0.970012
C103	C	1.022662	-0.635533	0.343565
C104	C	1.355995	-0.302200	0.676898
C105	C	1.689328	0.031134	1.010232
C106	C	1.022633	-0.569792	0.343554
C107	C	1.355967	-0.236458	0.676888
C108	C	1.689300	0.096875	1.010221
N109	N	1.005287	-0.771657	0.308133
N110	N	1.338620	-0.438323	0.641466
N111	N	1.671954	-0.104990	0.974800
N112	N	1.005316	-0.834108	0.308140
N113	N	1.338649	-0.500775	0.641473
N114	N	1.671983	-0.167442	0.974806
C115	C	1.070155	-0.866469	0.303381
C116	C	1.403489	-0.533136	0.636715
C117	C	1.736822	-0.199802	0.970048
N118	N	1.134967	-0.834019	0.298604
N119	N	1.468300	-0.500686	0.631937
N120	N	1.801633	-0.167353	0.965270
N121	N	1.134937	-0.771562	0.298594
N122	N	1.468270	-0.438229	0.631927
N123	N	1.801604	-0.104896	0.965261
C124	C	1.070098	-0.739680	0.303362
C125	C	1.403431	-0.406346	0.636695
C126	C	1.736765	-0.073013	0.970028
C127	C	1.117605	-0.970608	0.263183
C128	C	1.450938	-0.637275	0.596516
C129	C	1.784271	-0.303942	0.929849
C130	C	1.117641	-1.036352	0.263201
C131	C	1.450974	-0.703019	0.596534
C132	C	1.784307	-0.369685	0.929868
C133	C	1.022837	-1.036376	0.343637
C134	C	1.356170	-0.703042	0.676971
C135	C	1.689504	-0.369709	1.010304
C136	C	1.022808	-0.970633	0.343622
C137	C	1.356141	-0.637300	0.676955
C138	C	1.689474	-0.303967	1.010289
C139	C	1.070191	-0.937753	0.303391
C140	C	1.403524	-0.604420	0.636725
C141	C	1.736857	-0.271087	0.970058
C142	C	1.263249	-0.303418	0.303386
C143	C	1.596582	0.029915	0.636719
C144	C	1.929916	0.363248	0.970052
C145	C	1.345563	-0.303429	0.303400
C146	C	1.678896	0.029904	0.636733
C147	C	2.012230	0.363237	0.970067
C148	C	1.070087	-0.303387	0.467543
C149	C	1.403421	0.029947	0.800876
C150	C	1.736754	0.363280	1.134209
C151	C	1.070088	-0.303384	0.537511
C152	C	1.403421	0.029949	0.870844
C153	C	1.736754	0.363282	1.204177
C154	C	1.070205	-0.139202	0.303401
C155	C	1.403538	0.194131	0.636734
C156	C	1.736872	0.527465	0.970068
C157	C	1.070255	-0.069234	0.303422
C158	C	1.403588	0.264099	0.636755
C159	C	1.736922	0.597433	0.970089
C160	C	1.117449	-0.263136	1.036990
C161	C	1.450783	0.070197	1.370323
C162	C	1.784116	0.403530	1.703656
C163	C	1.117457	-0.263137	0.971247
C164	C	1.450790	0.070196	1.304581
C165	C	1.784124	0.403529	1.637914
C166	C	1.070069	-0.303387	0.938350
C167	C	1.403402	0.029947	1.271683
C168	C	1.736736	0.363280	1.605017
C169	C	1.022683	-0.343649	0.971201
C170	C	1.356017	-0.010316	1.304534
C171	C	1.689350	0.323017	1.637868
C172	C	1.022682	-0.343651	1.036942
C173	C	1.356015	-0.010318	1.370276
C174	C	1.689349	0.323015	1.703609
N175	N	1.005243	-0.308204	0.835116
N176	N	1.338576	0.025129	1.168450
N177	N	1.671909	0.358463	1.501783
N178	N	1.005246	-0.308198	0.772665
N179	N	1.338579	0.025135	1.105998
N180	N	1.671913	0.358468	1.439332
C181	C	1.070071	-0.303384	0.740275
C182	C	1.403404	0.029950	1.073609
C183	C	1.736738	0.363283	1.406942
N184	N	1.134894	-0.298563	0.772697
N185	N	1.468227	0.034770	1.106030
N186	N	1.801561	0.368104	1.439363
N187	N	1.134890	-0.298565	0.835154
N188	N	1.468223	0.034768	1.168487
N189	N	1.801557	0.368101	1.501820
C190	C	1.070065	-0.303389	0.867065
C191	C	1.403399	0.029944	1.200398
C192	C	1.736732	0.363277	1.533731
C193	C	1.117466	-0.263128	0.636147
C194	C	1.450799	0.070205	0.969480
C195	C	1.784133	0.403538	1.302814
C196	C	1.117475	-0.263134	0.570403
C197	C	1.450808	0.070200	0.903737
C198	C	1.784142	0.403533	1.237070
C199	C	1.022695	-0.343642	0.570358
C200	C	1.356028	-0.010309	0.903692
C201	C	1.689361	0.323024	1.237025
C202	C	1.022692	-0.343640	0.636101
C203	C	1.356026	-0.010307	0.969434
C204	C	1.689359	0.323027	1.302767
C205	C	1.070077	-0.303380	0.668991
C206	C	1.403410	0.029954	1.002324
C207	C	1.736744	0.363287	1.335658
C208	C	1.070078	-0.303406	1.139801
C209	C	1.403411	0.029927	1.473134
C210	C	1.736744	0.363261	1.806467
C211	C	1.070067	-0.303391	1.069833
C212	C	1.403400	0.029942	1.403166
C213	C	1.736733	0.363276	1.736499
H214	H	0.506070	-0.265525	0.205883
H215	H	0.839404	0.067808	0.539216
H216	H	1.172737	0.401141	0.872549
H217	H	1.156037	-0.230356	1.063765
H218	H	1.489370	0.102978	1.397098
H219	H	1.822704	0.436311	1.730432
C220	C	1.169580	-0.218849	0.935113
C221	C	1.502913	0.114484	1.268446
C222	C	1.836247	0.447817	1.601779
N223	N	1.208838	-0.185490	0.907898
N224	N	1.542171	0.147844	1.241232
N225	N	1.875504	0.481177	1.574565
C226	C	0.499809	-0.187889	0.270158
C227	C	0.833143	0.145444	0.603491
C228	C	1.166476	0.478777	0.936824
N229	N	0.478867	-0.137702	0.281593
N230	N	0.812200	0.195632	0.614927
N231	N	1.145534	0.528965	0.948260
H232	H	1.156066	-0.662263	0.230380
H233	H	1.489400	-0.328929	0.563714
H234	H	1.822733	0.004404	0.897047
C235	C	0.970554	-0.387922	0.935013
C236	C	1.303888	-0.054589	1.268346
C237	C	1.637221	0.278745	1.601679
N238	N	0.931290	-0.421271	0.907756
N239	N	1.264623	-0.087937	1.241089
N240	N	1.597957	0.245396	1.574423
C241	C	0.641647	-0.188223	0.270115
C242	C	0.974980	0.145111	0.603448
C243	C	1.308314	0.478444	0.936781
N244	N	0.663051	-0.138185	0.281669
N245	N	0.996384	0.195148	0.615002
N246	N	1.329717	0.528482	0.948336
H247	H	0.984096	-0.376433	1.063682
H248	H	1.317430	-0.043099	1.397016
H249	H	1.650763	0.290234	1.730349
C250	C	0.500877	-0.388713	0.219061
C251	C	0.834210	-0.055380	0.552394
C252	C	1.167544	0.277953	0.885728
N253	N	0.480529	-0.403239	0.169484
N254	N	0.813863	-0.069905	0.502817
N255	N	1.147196	0.263428	0.836150
H256	H	0.984105	-0.376417	0.662842
H257	H	1.317438	-0.043084	0.996175
H258	H	1.650772	0.290249	1.329508
H259	H	0.984113	-0.376417	0.543574
H260	H	1.317447	-0.043083	0.876907
H261	H	1.650780	0.290250	1.210241
H262	H	0.633692	-0.265782	0.205389
H263	H	0.967025	0.067551	0.538722
H264	H	1.300358	0.400884	0.872056
C265	C	0.499889	-0.420304	0.330419
C266	C	0.833222	-0.086971	0.663753
C267	C	1.166555	0.246363	0.997086
N268	N	0.478797	-0.458628	0.364717
N269	N	0.812130	-0.125295	0.698050
N270	N	1.145463	0.208039	1.031384
H271	H	0.633898	-0.407099	0.319363
H272	H	0.967231	-0.073766	0.652696
H273	H	1.300564	0.259568	0.986029
C274	C	0.642481	-0.389326	0.220107
C275	C	0.975814	-0.055993	0.553440
C276	C	1.309148	0.277340	0.886774
N277	N	0.664276	-0.404107	0.171065
N278	N	0.997609	-0.070774	0.504398
N279	N	1.330943	0.262560	0.837731
C280	C	1.169737	-0.934438	0.218938
C281	C	1.503071	-0.601105	0.552271
C282	C	1.836404	-0.267772	0.885604
N283	N	1.209007	-0.907197	0.185614
N284	N	1.542340	-0.573863	0.518948
N285	N	1.875673	-0.240530	0.852281
H286	H	0.506292	-0.239062	0.386499
H287	H	0.839625	0.094271	0.719832
H288	H	1.172959	0.427605	1.053165
H289	H	0.633860	-0.236299	0.383323
H290	H	0.967193	0.097034	0.716656
H291	H	1.300526	0.430367	1.049989
H292	H	0.634915	-0.318109	0.407644
H293	H	0.968249	0.015224	0.740977
H294	H	1.301582	0.348558	1.074310
H295	H	0.507603	-0.322180	0.406075
H296	H	0.840937	0.011153	0.739409
H297	H	1.174270	0.344486	1.072742
H298	H	1.156008	-0.542997	0.230355
H299	H	1.489341	-0.209663	0.563688
H300	H	1.822674	0.123670	0.897022
H301	H	1.156049	-0.230345	0.662928
H302	H	1.489382	0.102988	0.996261
H303	H	1.822716	0.436321	1.329594
C304	C	0.970534	-0.671709	0.387805
C305	C	1.303867	-0.338376	0.721138
C306	C	1.637201	-0.005043	1.054471
N307	N	0.931271	-0.698957	0.421128
N308	N	1.264604	-0.365624	0.754461
N309	N	1.597937	-0.032291	1.087794
C310	C	0.970488	-0.533652	0.387801
C311	C	1.303822	-0.200318	0.721134
C312	C	1.637155	0.133015	1.054467
N313	N	0.931215	-0.506430	0.421130
N314	N	1.264548	-0.173097	0.754463
N315	N	1.597881	0.160236	1.087797
C316	C	1.169795	-1.072491	0.218962
C317	C	1.503129	-0.739157	0.552295
C318	C	1.836462	-0.405824	0.885628
N319	N	1.209077	-1.099711	0.185638
N320	N	1.542411	-0.766378	0.518972
N321	N	1.875744	-0.433044	0.852305
C322	C	0.970713	-1.072547	0.387881
C323	C	1.304046	-0.739214	0.721214
C324	C	1.637379	-0.405880	1.054547
N325	N	0.931452	-1.099794	0.421207
N326	N	1.264786	-0.766461	0.754540
N327	N	1.598119	-0.433128	1.087874
C328	C	0.970670	-0.934493	0.387872
C329	C	1.304003	-0.601160	0.721205
C330	C	1.637336	-0.267826	1.054539
N331	N	0.931406	-0.907272	0.421210
N332	N	1.264739	-0.573939	0.754544
N333	N	1.598072	-0.240606	1.087877
C334	C	1.169601	-0.218846	0.534276
C335	C	1.502934	0.114487	0.867610
C336	C	1.836268	0.447820	1.200943
N337	N	1.208861	-0.185487	0.507065
N338	N	1.542195	0.147847	0.840398
N339	N	1.875528	0.481180	1.173732
