data_functionalizedCrystal
_audit_creation_method	'MofGen! by Chris Wilmer'
_symmetry_space_group_name_H-M	'P1'
_symmetry_Int_Tables_number	1
_symmetry_cell_setting	triclinic
loop_
_symmetry_equiv_pos_as_xyz
  x,y,z
_cell_length_a	11.792254
_cell_length_b	19.188925
_cell_length_c	10.868271
_cell_angle_alpha	89.995220
_cell_angle_beta	89.995741
_cell_angle_gamma	83.670573
loop_
_atom_site_label
_atom_site_type_symbol
_atom_site_fract_x
_atom_site_fract_y
_atom_site_fract_z
O1	O	1.505464	0.095737	-0.102320
O2	O	1.174977	0.105591	-0.102323
O3	O	1.349761	-0.000938	-0.102314
O4	O	1.330680	0.202266	-0.102328
O5	O	1.349746	-0.000942	0.102330
O6	O	1.174963	0.105586	0.102322
O7	O	1.505450	0.095733	0.102325
Zn8	Zn	1.340204	0.100659	0.134815
Zn9	Zn	1.340223	0.100665	-0.134813
O10	O	1.330666	0.202261	0.102316
C11	C	1.132688	0.104968	-0.000001
C12	C	1.006703	0.103110	-0.000002
C13	C	0.904389	0.101601	-0.000007
C14	C	0.776031	0.099713	-0.000007
C15	C	1.349137	-0.026954	0.000007
C16	C	1.347285	-0.104470	0.000005
C17	C	1.437443	-0.665727	-0.000026
C18	C	1.439193	-0.592893	-0.000015
C19	C	1.336635	-0.548543	-0.000016
C20	C	1.232320	-0.577031	0.000003
C21	C	1.230573	-0.649863	0.000004
N22	N	1.262393	-0.428283	-0.069672
N23	N	1.264059	-0.359097	-0.069676
C24	C	1.341892	-0.329104	-0.000017
N25	N	1.418013	-0.370912	0.069631
N26	N	1.416350	-0.440106	0.069629
C27	C	1.338518	-0.469568	-0.000016
C28	C	1.448098	-0.221650	-0.000015
C29	C	1.449844	-0.148815	0.000004
C30	C	1.242968	-0.132954	0.000009
C31	C	1.241225	-0.205787	0.000003
C32	C	1.343794	-0.250131	-0.000015
C33	C	1.547738	0.096356	-0.000000
C34	C	1.673723	0.098214	-0.000007
C35	C	1.331290	0.228278	-0.000008
C36	C	1.333141	0.305793	-0.000014
N37	N	1.340199	0.100655	0.318829
N38	N	1.340236	0.100663	-0.318827
C39	C	1.340217	0.100663	0.569835
C40	C	1.340203	0.100661	0.430158
H41	H	1.524130	-0.569700	-0.000024
H42	H	1.145636	-0.673049	0.000017
H43	H	1.159464	-0.096844	0.000019
N44	N	1.542213	-0.711019	0.000001
N45	N	1.564315	-0.753426	0.086275
H46	H	1.638311	-0.785414	0.086301
H47	H	1.156292	-0.228975	0.000004
N48	N	1.127570	-0.531721	0.000013
N49	N	1.129143	-0.466694	0.000011
H50	H	1.055160	-0.434693	0.000024
H51	H	1.531615	-0.257757	-0.000029
N52	N	1.556382	-0.119711	0.000008
N53	N	1.580436	-0.080847	0.086274
H54	H	1.655681	-0.060290	0.086279
