data_functionalizedCrystal
_audit_creation_method	'MofGen! by Chris Wilmer'
_symmetry_space_group_name_H-M	'P1'
_symmetry_Int_Tables_number	1
_symmetry_cell_setting	triclinic
loop_
_symmetry_equiv_pos_as_xyz
  x,y,z
_cell_length_a	17.699083
_cell_length_b	15.944551
_cell_length_c	16.176319
_cell_angle_alpha	89.992246
_cell_angle_beta	89.998611
_cell_angle_gamma	83.390877
loop_
_atom_site_label
_atom_site_type_symbol
_atom_site_fract_x
_atom_site_fract_y
_atom_site_fract_z
O1	O	1.004260	0.106222	-0.068632
O2	O	0.783905	0.120042	-0.068660
O3	O	0.900100	-0.009156	-0.068638
O4	O	0.888065	0.235419	-0.068654
O5	O	0.900084	-0.009164	0.068855
O6	O	0.783889	0.120033	0.068833
O7	O	1.004244	0.106214	0.068861
Cu8	Cu	0.894065	0.113123	0.081401
Cu9	Cu	0.894084	0.113133	-0.081200
O10	O	0.888049	0.235411	0.068839
C11	C	0.755700	0.119542	0.000083
C12	C	0.671679	0.118057	0.000073
C13	C	0.623187	0.193893	0.000068
C14	C	0.544242	0.192492	0.000079
C15	C	0.513789	0.115254	0.000089
C16	C	0.562287	0.039412	0.000096
C17	C	0.641231	0.040814	0.000091
C18	C	0.243914	0.033758	0.000117
C19	C	0.164964	0.032362	0.000119
C20	C	0.146925	0.185436	0.000105
C21	C	0.225869	0.186837	0.000100
C22	C	0.274360	0.110996	0.000112
C23	C	0.359962	0.112516	0.000102
C24	C	0.428189	0.113733	0.000093
C25	C	0.899593	-0.040453	0.000109
C26	C	0.898095	-0.133696	0.000109
C27	C	0.822492	-0.348393	0.000088
C28	C	0.857591	-0.409488	0.067885
C29	C	0.895385	-0.304416	0.000102
C30	C	0.857624	-0.409464	-0.067672
C31	C	0.892762	-0.469323	0.000092
C32	C	0.930505	-0.364283	0.067955
C33	C	0.930527	-0.364252	-0.067663
C34	C	0.965680	-0.425329	0.000150
C35	C	0.896894	-0.209417	0.000109
C36	C	0.891259	-0.564321	0.000092
C37	C	1.032450	0.106713	0.000116
C38	C	1.116471	0.108199	0.000121
C39	C	0.888557	0.266708	0.000090
C40	C	0.890055	0.359951	0.000085
N41	N	0.894058	0.113116	0.195767
N42	N	0.894098	0.113133	-0.195565
C43	C	0.945524	0.055930	0.239040
C44	C	0.945528	0.055929	0.325588
C45	C	0.894068	0.113118	0.368859
C46	C	0.842596	0.170306	0.325579
C47	C	0.842589	0.170303	0.239034
C48	C	0.842622	0.170322	0.674608
C49	C	0.842634	0.170323	0.761159
C50	C	0.945561	0.055949	0.761161
C51	C	0.945554	0.055945	0.674616
C52	C	0.894080	0.113130	0.631343
C53	C	0.894075	0.113129	0.537499
C54	C	0.894076	0.113124	0.462702
H55	H	0.283386	-0.027997	0.000127
C56	C	0.991051	0.004942	0.541949
C57	C	1.001985	-0.007067	0.627052
H58	H	1.025852	-0.034003	0.512588
H59	H	0.940489	-0.003958	0.527862
H60	H	0.999409	0.060929	0.527682
H61	H	0.993621	-0.063053	0.641320
H62	H	1.052559	0.001827	0.641144
H63	H	0.987472	0.009383	0.796403
C64	C	0.740482	-0.046408	-0.070585
C65	C	0.694539	-0.042545	0.000094
H66	H	0.773395	-0.097870	-0.070577
H67	H	0.709310	-0.043777	-0.118522
H68	H	0.769910	-0.000201	-0.070582
H69	H	0.665107	-0.088748	0.000087
H70	H	0.725715	-0.045184	0.048043
C71	C	1.047289	-0.057104	0.316897
C72	C	1.002114	-0.006918	0.373154
H73	H	1.082228	-0.095899	0.346264
H74	H	1.015789	-0.087287	0.283156
H75	H	1.074496	-0.022161	0.283126
H76	H	0.974902	-0.041861	0.406921
H77	H	1.033617	0.023267	0.406909
H78	H	0.961339	-0.344183	-0.124975
C79	C	0.190721	-0.118818	0.000153
C80	C	0.131489	-0.052545	0.000139
H81	H	0.170053	-0.171231	0.000170
H82	H	0.221136	-0.115095	-0.047792
H83	H	0.221138	-0.115081	0.048102
H84	H	0.101075	-0.056278	-0.047813
H85	H	0.101061	-0.056270	0.048089
H86	H	0.987432	0.009364	0.203814
H87	H	0.800693	0.216868	0.360816
H88	H	0.826790	-0.429472	-0.124993
C89	C	0.444995	0.279719	-0.070611
C90	C	0.490941	0.275855	0.000065
H91	H	0.412088	0.331185	-0.070617
H92	H	0.476167	0.277081	-0.118550
H93	H	0.415562	0.233518	-0.070590
H94	H	0.520379	0.322053	0.000041
H95	H	0.459766	0.278501	0.048016
C96	C	0.338875	0.256953	0.000062
C97	C	0.259343	0.271739	0.000075
H98	H	0.359538	0.309370	0.000039
H99	H	0.355519	0.225746	0.048012
H100	H	0.355506	0.225728	-0.047883
H101	H	0.242711	0.302959	0.048023
H102	H	0.242692	0.302959	-0.047880
C103	C	0.740871	0.283371	0.752468
C104	C	0.786058	0.233182	0.808725
H105	H	0.705944	0.322170	0.781836
H106	H	0.772365	0.313547	0.718705
H107	H	0.713651	0.248429	0.718721
H108	H	0.813283	0.268123	0.842469
H109	H	0.754561	0.203004	0.842503
H110	H	0.800711	0.216885	0.639382
H111	H	0.107434	0.247189	0.000100
H112	H	0.537486	-0.023476	0.000116
C113	C	0.701488	0.284285	-0.070633
C114	C	0.656655	0.278798	0.000053
H115	H	0.722142	0.336706	-0.070642
H116	H	0.741666	0.239328	-0.070625
H117	H	0.671055	0.280555	-0.118570
H118	H	0.687089	0.282522	0.047991
H119	H	0.616471	0.323767	0.000053
H120	H	0.826754	-0.429535	0.125194
H121	H	0.761987	-0.314958	0.000149
H122	H	0.961303	-0.344360	0.125335
C123	C	1.085395	-0.447487	0.071253
C124	C	1.047427	-0.470275	0.000210
H125	H	1.135859	-0.475241	0.071293
H126	H	1.086782	-0.388116	0.071702
H127	H	1.059298	-0.463664	0.118945
H128	H	1.073520	-0.454093	-0.047482
H129	H	1.046044	-0.529660	-0.000247
C130	C	0.740855	0.283368	0.247719
C131	C	0.786019	0.233166	0.191464
H132	H	0.705932	0.322180	0.218350
H133	H	0.713635	0.248443	0.281483
H134	H	0.772369	0.313538	0.281467
H135	H	0.754505	0.202991	0.157720
H136	H	0.813241	0.268096	0.157686
