data_functionalizedCrystal
_audit_creation_method	'MofGen! by Chris Wilmer'
_symmetry_space_group_name_H-M	'P1'
_symmetry_Int_Tables_number	1
_symmetry_cell_setting	triclinic
loop_
_symmetry_equiv_pos_as_xyz
  x,y,z
_cell_length_a	14.560432
_cell_length_b	14.560438
_cell_length_c	14.560438
_cell_angle_alpha	60.005846
_cell_angle_beta	89.999693
_cell_angle_gamma	60.000044
loop_
_atom_site_label
_atom_site_type_symbol
_atom_site_fract_x
_atom_site_fract_y
_atom_site_fract_z
Zr1	Zr	0.884804	1.005191	-0.120363
O2	O	0.738167	1.196776	-0.266985
O3	O	0.929750	0.813606	-0.075435
O4	O	0.929762	1.005191	-0.267010
O5	O	0.738152	1.005190	0.075729
O6	O	1.080902	1.005191	-0.267008
O7	O	0.738155	1.005191	-0.075410
O8	O	1.080881	0.662480	0.075685
O9	O	0.738173	1.347901	-0.266963
O10	O	1.061720	0.892407	-0.056249
O11	O	0.948924	0.892407	0.056543
O12	O	0.948937	1.117974	-0.169011
O13	O	0.836141	1.117974	-0.056219
Zr14	Zr	1.125849	1.005190	0.120691
Zr15	Zr	1.125854	1.005190	-0.120359
Zr16	Zr	0.884799	1.005190	0.120687
Zr17	Zr	0.884813	1.246218	-0.120328
Zr18	Zr	1.125839	0.764162	0.120656
O19	O	1.080902	1.196775	0.075763
O20	O	1.080909	1.196776	-0.266980
O21	O	0.738160	1.196775	0.075757
O22	O	1.272486	0.813605	0.267313
O23	O	1.272493	0.813605	-0.075430
O24	O	0.929744	0.813605	0.267307
O25	O	1.272501	1.005190	-0.075402
O26	O	1.080891	1.005190	0.267338
O27	O	0.929751	1.005190	0.267335
O28	O	1.272498	1.005190	0.075738
O29	O	0.929776	1.347901	-0.266960
O30	O	1.080877	0.662479	0.267288
O31	O	1.272480	0.662479	0.267291
O32	O	1.272484	0.662480	0.075688
O33	O	0.738169	1.347901	-0.075360
O34	O	0.929772	1.347901	-0.075357
O35	O	1.061715	0.892407	0.169339
O36	O	1.174511	0.892407	0.056547
O37	O	1.061729	1.117974	-0.056216
O38	O	0.948933	1.117973	0.056576
C39	C	1.005314	0.703702	0.000120
C40	C	1.005310	0.601379	0.000105
C41	C	0.922055	0.636506	-0.083118
C42	C	0.922072	0.540317	-0.083061
C43	C	1.088607	0.373875	0.083450
C44	C	1.088592	0.470063	0.083388
C45	C	0.825904	0.732599	-0.179249
C46	C	0.825922	0.636410	-0.179193
C47	C	0.703809	1.005191	0.000159
C48	C	0.601477	1.005191	0.000157
C49	C	0.526924	0.769696	0.117885
C50	C	0.633874	0.651948	0.176744
C51	C	0.730026	0.651943	0.176745
C52	C	0.719224	0.769699	0.117877
C53	C	0.612274	0.887447	0.059017
C54	C	0.516127	0.887439	0.059025
C55	C	0.494528	1.122939	-0.058703
C56	C	0.398374	1.122946	-0.058698
C57	C	0.483726	1.240695	-0.117571
C58	C	0.376775	1.358446	-0.176426
C59	C	0.280620	1.358445	-0.176423
C60	C	0.291425	1.240694	-0.117558
C61	C	1.306844	1.005190	0.000169
C62	C	1.409176	1.005190	0.000170
C63	C	1.005332	1.005191	-0.301353
C64	C	1.005334	1.005191	-0.403686
C65	C	1.005338	1.306679	0.000208
C66	C	1.005343	1.409002	0.000223
C67	C	1.088593	1.005197	-0.451768
C68	C	1.088588	1.005191	-0.547917
C69	C	0.922055	1.005180	-0.547895
C70	C	0.922066	1.005176	-0.451743
C71	C	1.184737	1.005208	-0.451785
C72	C	1.184732	1.005203	-0.547934
C73	C	1.005320	1.005190	0.301681
C74	C	1.005318	1.005189	0.404013
C75	C	1.306832	0.703701	0.000125
C76	C	1.409160	0.601379	0.000111
C77	C	1.005308	0.703701	0.301637
C78	C	1.005302	0.601378	0.403954
C79	C	1.306825	0.703701	0.301642
C80	C	1.409152	0.601378	0.403961
C81	C	0.703827	1.306680	-0.301314
C82	C	0.601501	1.409003	-0.403633
C83	C	0.703821	1.306679	0.000203
C84	C	0.601493	1.409002	0.000216
C85	C	1.005344	1.306680	-0.301309
C86	C	1.005351	1.409003	-0.403626
C87	C	1.398361	0.553304	-0.058770
C88	C	1.494513	0.457168	-0.058786
C89	C	1.612259	0.457187	0.058969
C90	C	1.516108	0.553327	0.058978
C91	C	1.330381	0.553288	-0.126751
C92	C	1.426533	0.457153	-0.126767
C93	C	1.064177	0.553302	0.510901
C94	C	1.064162	0.457164	0.607035
C95	C	0.946396	0.457183	0.489261
C96	C	0.946405	0.553326	0.393130
C97	C	1.132172	0.553286	0.578898
C98	C	1.132158	0.457148	0.675032
C99	C	1.516103	0.553302	0.393157
C100	C	1.612245	0.457165	0.489300
C101	C	1.494471	0.457184	0.607048
C102	C	1.398331	0.553326	0.510905
C103	C	1.584100	0.553286	0.325177
C104	C	1.680242	0.457149	0.421321
H105	H	0.842722	0.636377	-0.255649
H106	H	0.854260	1.005167	-0.587034
C107	C	1.295669	0.883090	-0.355489
N108	N	1.379220	0.791110	-0.282960
H109	H	1.167939	1.098474	-0.468587
H110	H	1.176440	1.095603	-0.619224
C111	C	1.071570	0.505945	0.743841
N112	N	1.025937	0.542697	0.795670
C113	C	1.253770	0.335535	0.745533
N114	N	1.345365	0.243938	0.798632
H115	H	0.642656	0.556073	0.224673
H116	H	1.435262	0.493286	-0.213815
H117	H	1.156396	0.441451	0.151146
C118	C	0.830402	1.005316	-0.398929
N119	N	0.761328	1.005480	-0.359178
H120	H	0.743811	0.647224	-0.170885
H121	H	0.898450	0.592479	0.306051
H122	H	1.156411	0.266949	0.151257
C123	C	0.881618	0.404312	0.477367
N124	N	0.832827	0.364489	0.468405
H125	H	0.834182	0.795574	-0.261381
H126	H	1.278187	0.643292	-0.216768
C127	C	1.288031	0.879203	-0.525242
N128	N	1.365831	0.784298	-0.508151
C129	C	1.527995	0.606218	0.123740
N130	N	1.536951	0.646054	0.172522
H131	H	1.699347	0.418053	0.106895
H132	H	1.311249	0.592478	0.519711
C133	C	0.847674	0.522416	0.241494
N134	N	0.936286	0.424855	0.290264
H135	H	1.219221	0.517155	0.570165
C136	C	1.482581	0.404312	0.724692
N137	N	1.473623	0.364487	0.813303
C138	C	1.584122	0.674882	0.254677
N139	N	1.584137	0.766468	0.201579
H140	H	1.279464	0.517155	-0.081895
C141	C	0.364906	1.487963	-0.241177
N142	N	0.355969	1.585517	-0.289946
C143	C	1.426536	0.335538	-0.075676
N144	N	1.426540	0.243938	-0.037192
H145	H	1.094360	0.643289	0.578928
H146	H	1.575373	0.517155	0.274256
H147	H	1.731166	0.493278	0.430049
H148	H	0.749434	0.792272	-0.162455
C149	C	0.421160	0.769690	0.117898
N150	N	0.341498	0.769682	0.117908
H151	H	1.732433	0.367129	0.421311
H152	H	0.797521	0.769685	0.117871
C153	C	0.589497	1.240686	-0.117571
N154	N	0.669165	1.240683	-0.117569
H155	H	0.213140	1.240682	-0.117547
C156	C	0.162977	1.487980	-0.241176
N157	N	0.074370	1.585549	-0.289948
