data_functionalizedCrystal
_audit_creation_method	'MofGen! by Chris Wilmer'
_symmetry_space_group_name_H-M	'P1'
_symmetry_Int_Tables_number	1
_symmetry_cell_setting	triclinic
loop_
_symmetry_equiv_pos_as_xyz
  x,y,z
_cell_length_a	10.654550
_cell_length_b	10.489741
_cell_length_c	9.730223
_cell_angle_alpha	89.998920
_cell_angle_beta	89.996251
_cell_angle_gamma	84.512038
loop_
_atom_site_label
_atom_site_type_symbol
_atom_site_fract_x
_atom_site_fract_y
_atom_site_fract_z
O1	O	1.667918	0.179156	-0.114402
O2	O	1.302447	0.196226	-0.114380
O3	O	1.493499	0.002089	-0.114383
O4	O	1.476867	0.373293	-0.114399
O5	O	1.493497	0.002094	0.114196
O6	O	1.302445	0.196231	0.114200
O7	O	1.667916	0.179161	0.114178
Zn8	Zn	1.485180	0.187697	0.150481
Zn9	Zn	1.485183	0.187690	-0.150683
O10	O	1.476864	0.373298	0.114181
C11	C	1.255648	0.194975	-0.000087
C12	C	1.116203	0.191225	-0.000079
C13	C	1.036771	0.305530	-0.000103
C14	C	0.905748	0.301999	-0.000127
C15	C	0.933603	0.069849	-0.000107
C16	C	1.064623	0.073381	-0.000073
C17	C	1.020688	0.439560	-0.000121
C18	C	0.889665	0.436029	-0.000145
C19	C	1.492241	-0.045439	-0.000094
C20	C	1.488483	-0.187067	-0.000096
C21	C	1.366923	-0.255148	-0.000099
C22	C	1.424346	-0.347296	0.112599
C23	C	1.424377	-0.347276	-0.112763
C24	C	1.545956	-0.277350	0.112695
C25	C	1.545970	-0.277319	-0.112768
C26	C	1.603481	-0.369440	-0.000043
C27	C	1.714715	0.180412	-0.000118
C28	C	1.854160	0.184162	-0.000136
C29	C	1.478122	0.420826	-0.000111
C30	C	1.481880	0.562454	-0.000118
N31	N	1.485187	0.187700	0.356017
N32	N	1.485186	0.187677	-0.356220
C33	C	1.569807	0.101766	0.427942
C34	C	1.569803	0.101751	0.571825
C35	C	1.400557	0.273615	0.571846
C36	C	1.400555	0.273623	0.427966
C37	C	1.667524	0.002545	0.427931
C38	C	1.667520	0.002530	0.571814
H39	H	0.844012	0.476536	0.098538
C40	C	1.784392	0.042476	0.223944
C41	C	1.790607	0.044546	0.367661
H42	H	1.860367	0.068435	0.186738
H43	H	1.773407	-0.041855	0.193785
H44	H	1.715195	0.099462	0.193842
H45	H	1.859798	-0.012447	0.397763
H46	H	1.801605	0.128890	0.397832
H47	H	1.636964	-0.090122	0.616435
H48	H	1.266977	-0.205449	0.000020
H49	H	1.703518	-0.418912	0.000014
H50	H	1.764042	0.024385	0.610857
C51	C	1.143229	0.428019	0.207358
C52	C	1.060333	0.510319	0.129017
H53	H	1.167710	0.471705	0.287075
H54	H	1.102402	0.355250	0.233918
H55	H	1.215806	0.401303	0.154213
H56	H	0.987752	0.537028	0.182158
H57	H	1.101160	0.583111	0.102458
H58	H	1.331641	0.343587	0.369406
C59	C	0.770671	0.417960	-0.207623
C60	C	0.833352	0.504189	-0.129295
H61	H	0.735902	0.460042	-0.287346
H62	H	0.828637	0.347849	-0.234172
H63	H	0.704950	0.387526	-0.154473
H64	H	0.899080	0.534615	-0.182441
H65	H	0.775381	0.574323	-0.102747
C66	C	1.231049	-0.330902	0.241033
C67	C	1.354915	-0.389137	0.241227
H68	H	1.188181	-0.356737	0.320436
H69	H	1.232274	-0.240483	0.241542
H70	H	1.188682	-0.356012	0.160998
H71	H	1.397285	-0.364020	0.321257
H72	H	1.353695	-0.479576	0.240731
C73	C	1.721245	-0.175112	-0.201502
C74	C	1.615350	-0.235432	-0.241400
H75	H	1.764072	-0.149258	-0.280924
H76	H	1.695246	-0.102099	-0.147176
H77	H	1.776244	-0.233083	-0.149366
H78	H	1.560346	-0.177458	-0.293528
H79	H	1.641348	-0.308455	-0.295749
H80	H	1.646035	-0.095499	0.388882
C81	C	1.013190	0.622764	-0.148873
C82	C	1.068862	0.497179	-0.133337
H83	H	1.042939	0.658333	-0.231113
H84	H	0.924188	0.622271	-0.153434
H85	H	1.034706	0.672864	-0.072615
H86	H	1.047337	0.447077	-0.209591
H87	H	1.157883	0.497664	-0.128788
H88	H	1.597345	-0.246540	0.208079
C89	C	1.314608	-0.281106	-0.320108
C90	C	1.354929	-0.389066	-0.241391
H91	H	1.271736	-0.306905	-0.399516
H92	H	1.259169	-0.224413	-0.267022
H93	H	1.385581	-0.238795	-0.347190
H94	H	1.283955	-0.431372	-0.214300
H95	H	1.410371	-0.445780	-0.294487
C96	C	1.078989	-0.156441	-0.000039
C97	C	1.151936	-0.052266	-0.000031
H98	H	1.132896	-0.234012	-0.000019
H99	H	1.027286	-0.152978	0.079652
H100	H	1.027328	-0.152993	-0.079771
H101	H	1.203591	-0.055709	0.079706
H102	H	1.203661	-0.055731	-0.079730
C103	C	1.229893	0.299658	0.733670
C104	C	1.307539	0.368061	0.650941
H105	H	1.172473	0.357969	0.782503
H106	H	1.184246	0.246150	0.677536
H107	H	1.280303	0.248479	0.797092
H108	H	1.257129	0.419233	0.587512
H109	H	1.353190	0.421591	0.707080
H110	H	0.891590	-0.026096	-0.000124
