data_functionalizedCrystal
_audit_creation_method	'MofGen! by Chris Wilmer'
_symmetry_space_group_name_H-M	'P1'
_symmetry_Int_Tables_number	1
_symmetry_cell_setting	triclinic
loop_
_symmetry_equiv_pos_as_xyz
  x,y,z
_cell_length_a	17.038272
_cell_length_b	17.038272
_cell_length_c	12.503572
_cell_angle_alpha	93.777379
_cell_angle_beta	86.232200
_cell_angle_gamma	91.111556
loop_
_atom_site_label
_atom_site_type_symbol
_atom_site_fract_x
_atom_site_fract_y
_atom_site_fract_z
O1	O	1.052975	0.166301	-0.089187
O2	O	1.552975	0.666301	0.410813
O3	O	0.825165	0.163592	-0.089218
O4	O	1.325165	0.663592	0.410782
O5	O	0.937715	0.051041	-0.089194
O6	O	1.437715	0.551041	0.410806
O7	O	0.940424	0.278852	-0.089211
O8	O	1.440424	0.778852	0.410789
O9	O	0.929252	0.059521	0.089446
O10	O	1.429252	0.559521	0.589446
O11	O	0.816701	0.172071	0.089422
O12	O	1.316701	0.672071	0.589422
O13	O	1.044511	0.174781	0.089454
O14	O	1.544511	0.674781	0.589454
Cu15	Cu	0.929833	0.174200	0.105749
Cu16	Cu	1.429833	0.674200	0.605749
Cu17	Cu	0.939842	0.164172	-0.105514
Cu18	Cu	1.439842	0.664172	0.394486
O19	O	0.931960	0.287331	0.089429
O20	O	1.431960	0.787331	0.589429
C21	C	0.791640	0.165368	0.000098
C22	C	1.291640	0.665368	0.500098
C23	C	0.704357	0.158020	0.000086
C24	C	1.204357	0.658020	0.500086
C25	C	0.658748	0.225483	0.000082
C26	C	1.158748	0.725483	0.500082
C27	C	0.576736	0.218575	0.000097
C28	C	1.076736	0.718575	0.500097
C29	C	0.540334	0.144202	0.000109
C30	C	1.040334	0.644202	0.500109
C31	C	0.585949	0.076734	0.000116
C32	C	1.085949	0.576734	0.500116
C33	C	0.667960	0.083643	0.000109
C34	C	1.167960	0.583643	0.500109
C35	C	0.292945	0.119793	0.000140
C36	C	0.792945	0.619793	0.500140
C37	C	0.210928	0.112889	0.000144
C38	C	0.710928	0.612889	0.500144
C39	C	0.201720	0.254731	0.000127
C40	C	0.701720	0.754731	0.500127
C41	C	0.283733	0.261633	0.000113
C42	C	0.783733	0.761633	0.500113
C43	C	0.329341	0.194165	0.000126
C44	C	0.829341	0.694165	0.500126
C45	C	0.456504	0.137139	0.000121
C46	C	0.956504	0.637139	0.500121
C47	C	0.413169	0.201229	0.000121
C48	C	0.913169	0.701229	0.500121
C49	C	0.931021	0.025988	0.000126
C50	C	1.431021	0.525988	0.500126
C51	C	0.923673	-0.061296	0.000124
C52	C	1.423673	0.438704	0.500124
C53	C	0.991136	-0.106904	0.000135
C54	C	1.491136	0.393096	0.500135
C55	C	0.984227	-0.188917	0.000124
C56	C	1.484227	0.311083	0.500124
C57	C	0.909855	-0.225318	0.000110
C58	C	1.409855	0.274682	0.500110
C59	C	0.842387	-0.179704	0.000096
C60	C	1.342387	0.320296	0.500096
C61	C	0.849296	-0.097693	0.000099
C62	C	1.349296	0.402307	0.500099
C63	C	0.885445	-0.472707	0.000092
C64	C	1.385445	0.027293	0.500092
C65	C	0.878540	-0.554724	0.000091
C66	C	1.378540	-0.054724	0.500091
C67	C	1.020382	-0.563931	0.000117
C68	C	1.520382	-0.063931	0.500117
C69	C	1.027285	-0.481918	0.000127
C70	C	1.527285	0.018082	0.500127
C71	C	0.959817	-0.436311	0.000107
C72	C	1.459817	0.063689	0.500107
C73	C	0.902791	-0.309148	0.000102
C74	C	1.402791	0.190852	0.500102
C75	C	0.966881	-0.352483	0.000108
C76	C	1.466881	0.147517	0.500108
C77	C	1.078036	0.173004	0.000135
C78	C	1.578036	0.673004	0.500135
C79	C	1.165319	0.180352	0.000140
C80	C	1.665319	0.680352	0.500140
C81	C	0.938655	0.312384	0.000107
C82	C	1.438655	0.812384	0.500107
C83	C	0.946004	0.399668	0.000102
C84	C	1.446004	0.899668	0.500102
N85	N	0.922799	0.181253	0.254340
N86	N	1.422799	0.681253	0.754340
N87	N	0.946882	0.157113	-0.254104
N88	N	1.446882	0.657113	0.245896
C89	C	0.912452	0.191635	0.473453
C90	C	1.412452	0.691635	0.973453
C91	C	0.957227	0.146734	0.526789
C92	C	1.457227	0.646734	1.026789
C93	C	0.951470	0.152511	0.648711
C94	C	1.451470	0.652511	1.148711
C95	C	0.918208	0.185859	0.351520
C96	C	1.418208	0.685859	0.851520
H97	H	0.539604	0.273511	0.000093
H98	H	1.039604	0.773511	0.500093
H99	H	0.781831	-0.209349	0.000078
H100	H	1.281831	0.290651	0.500078
F101	F	0.451911	0.280380	0.000113
F102	F	0.951911	0.780380	0.500113
H103	H	0.794360	-0.060559	0.000091
H104	H	1.294360	0.439441	0.500091
H105	H	0.426855	0.076586	0.000161
H106	H	0.926855	0.576586	0.500161
F107	F	0.823641	-0.347897	0.000082
F108	F	1.323641	0.152103	0.500082
F109	F	0.697482	0.304641	0.000062
F110	F	1.197482	0.804641	0.500062
F111	F	0.322469	0.340790	0.000095
F112	F	0.822469	0.840790	0.500095
H113	H	0.999884	0.103955	0.480886
H114	H	1.499884	0.603955	0.980886
H115	H	0.164578	0.309659	0.000119
H116	H	0.664578	0.809659	0.500119
F117	F	0.172188	0.033728	0.000175
F118	F	0.672188	0.533728	0.500175
F119	F	1.046032	-0.313741	0.000116
F120	F	1.546032	0.186259	0.500116
F121	F	0.856701	0.247550	0.533446
F122	F	1.356701	0.747550	1.033446
H123	H	0.330069	0.064855	0.000151
H124	H	0.830069	0.564855	0.500151
H125	H	0.705094	0.028707	0.000111
H126	H	1.205094	0.528707	0.500111
F127	F	0.547205	-0.002419	0.000136
F128	F	1.047205	0.497581	0.500136
H129	H	1.051698	-0.077272	0.000153
H130	H	1.551698	0.422728	0.500153
F131	F	1.056032	-0.237454	0.000137
F132	F	1.556032	0.262546	0.500137
H133	H	1.087846	-0.452286	0.000138
H134	H	1.587846	0.047714	0.500138
F135	F	1.092181	-0.612475	0.000136
F136	F	1.592181	-0.112475	0.500136
H137	H	0.830508	-0.435583	0.000076
H138	H	1.330508	0.064417	0.500076
F139	F	0.799379	-0.593463	0.000082
F140	F	1.299379	-0.093463	0.500082
