data_functionalizedCrystal
_audit_creation_method	'MofGen! by Chris Wilmer'
_symmetry_space_group_name_H-M	'P1'
_symmetry_Int_Tables_number	1
_symmetry_cell_setting	triclinic
loop_
_symmetry_equiv_pos_as_xyz
  x,y,z
_cell_length_a	18.050589
_cell_length_b	18.050591
_cell_length_c	18.050591
_cell_angle_alpha	89.989914
_cell_angle_beta	90.000604
_cell_angle_gamma	89.978346
loop_
_atom_site_label
_atom_site_type_symbol
_atom_site_fract_x
_atom_site_fract_y
_atom_site_fract_z
Zn1	Zn	-0.295966	-1.135200	0.420090
Zn2	Zn	0.204034	-0.635200	0.920090
Zn3	Zn	-0.420111	-1.135138	0.295909
Zn4	Zn	0.079889	-0.635138	0.795909
Zn5	Zn	-0.295925	-1.011046	0.295897
Zn6	Zn	0.204075	-0.511046	0.795897
Zn7	Zn	-0.420104	-1.010967	0.420041
Zn8	Zn	0.079896	-0.510967	0.920041
O9	O	-0.358026	-1.073088	0.357984
O10	O	0.141974	-0.573088	0.857984
O11	O	-0.312454	-1.239116	0.403643
O12	O	0.187546	-0.739116	0.903643
O13	O	-0.403623	-1.118684	0.191983
O14	O	0.096377	-0.618684	0.691983
O15	O	-0.192006	-1.027575	0.312387
O16	O	0.307994	-0.527575	0.812387
O17	O	-0.403663	-1.239071	0.312408
O18	O	0.096337	-0.739071	0.812408
O19	O	-0.192036	-1.118790	0.403631
O20	O	0.307964	-0.618790	0.903631
O21	O	-0.312384	-1.027515	0.191974
O22	O	0.187616	-0.527515	0.691974
O23	O	-0.312378	-0.907111	0.312339
O24	O	0.187622	-0.407111	0.812339
O25	O	-0.403651	-1.027439	0.523972
O26	O	0.096349	-0.527439	1.023972
O27	O	-0.403612	-0.907053	0.403547
O28	O	0.096388	-0.407053	0.903547
O29	O	-0.312447	-1.118713	0.524008
O30	O	0.187553	-0.618713	1.024008
O31	O	-0.524035	-1.118607	0.312360
O32	O	-0.024035	-0.618607	0.812360
O33	O	-0.524030	-1.027379	0.403559
O34	O	-0.024030	-0.527379	0.903559
C35	C	-0.357990	-0.880136	0.357937
C36	C	0.142010	-0.380136	0.857937
C37	C	-0.357993	-0.797590	0.357934
C38	C	0.142007	-0.297590	0.857934
C39	C	-0.308315	-0.548774	0.308440
C40	C	0.191685	-0.048774	0.808440
C41	C	-0.290257	-0.598191	0.376217
C42	C	0.209743	-0.098191	0.876217
C43	C	-0.358015	-0.500469	0.357980
C44	C	0.141985	-0.000469	0.857980
C45	C	-0.376026	-0.598134	0.290184
C46	C	0.123974	-0.098134	0.790184
C47	C	-0.358002	-0.646454	0.357954
C48	C	0.141998	-0.146454	0.857954
C49	C	-0.339922	-0.548799	0.425793
C50	C	0.160078	-0.048799	0.925793
C51	C	-0.425723	-0.548738	0.339714
C52	C	0.074277	-0.048738	0.839714
C53	C	-0.407691	-0.598132	0.407538
C54	C	0.092309	-0.098132	0.907538
C55	C	-0.358020	-0.416371	0.357994
C56	C	0.141980	0.083629	0.857994
C57	C	-0.357997	-0.730551	0.357948
C58	C	0.142003	-0.230551	0.857948
C59	C	-0.550979	-1.072998	0.357972
C60	C	-0.050979	-0.572998	0.857972
C61	C	-0.633524	-1.073028	0.357991
C62	C	-0.133524	-0.573028	0.857991
C63	C	-0.832999	-1.023467	0.407568
C64	C	-0.332999	-0.523467	0.907568
C65	C	-0.882410	-1.005384	0.339798
C66	C	-0.382410	-0.505384	0.839798
C67	C	-0.784655	-1.073101	0.358001
C68	C	-0.284655	-0.573101	0.858001
C69	C	-0.882325	-1.091220	0.425779
C70	C	-0.382325	-0.591220	0.925779
C71	C	-0.930640	-1.073170	0.358016
C72	C	-0.430640	-0.573170	0.858016
C73	C	-0.832979	-1.054982	0.290195
C74	C	-0.332979	-0.554982	0.790195
C75	C	-0.832889	-1.140850	0.376222
C76	C	-0.332889	-0.640850	0.876222
C77	C	-0.882278	-1.122793	0.308405
C78	C	-0.382278	-0.622793	0.808405
C79	C	-0.700556	-1.073059	0.357993
C80	C	-0.200556	-0.573059	0.857993
C81	C	-1.014736	-1.073211	0.358017
C82	C	-0.514736	-0.573211	0.858017
C83	C	-0.164321	-1.073198	0.358013
C84	C	0.335679	-0.573198	0.858013
C85	C	-0.081775	-1.073245	0.358025
C86	C	0.418225	-0.573245	0.858025
C87	C	-0.358053	-1.073074	0.551690
C88	C	0.141947	-0.573074	1.051690
C89	C	-0.358064	-1.073068	0.634235
C90	C	0.141936	-0.573068	1.134235
C91	C	-0.358050	-0.266793	0.358019
C92	C	0.141950	0.233207	0.858019
C93	C	-0.358027	-0.349339	0.358000
C94	C	0.141973	0.150661	0.858000
C95	C	-0.407655	-1.023428	0.833667
C96	C	0.092345	-0.523428	1.333667
C97	C	-0.425831	-1.091172	0.883069
C98	C	0.074169	-0.591172	1.383069
C99	C	-0.358054	-1.073071	0.785366
C100	C	0.141946	-0.573071	1.285366
C101	C	-0.339902	-1.005332	0.883046
C102	C	0.160098	-0.505332	1.383046
C103	C	-0.358046	-1.073069	0.931351
C104	C	0.141954	-0.573069	1.431351
C105	C	-0.376266	-1.140851	0.833681
C106	C	0.123734	-0.640851	1.333681
C107	C	-0.290305	-1.054966	0.833653
C108	C	0.209695	-0.554966	1.333653
C109	C	-0.308456	-1.122757	0.883033
C110	C	0.191544	-0.622757	1.383033
C111	C	-0.358061	-1.073072	0.701268
C112	C	0.141939	-0.573072	1.201268
C113	C	-0.358039	-1.073076	1.015447
C114	C	0.141961	-0.573076	1.515447
C115	C	-0.358024	-1.073089	1.165032
C116	C	0.141976	-0.573089	1.665032
C117	C	-0.358033	-1.073073	1.082486
C118	C	0.141967	-0.573073	1.582486
H119	H	-0.391266	-0.619807	0.232861
H120	H	0.108734	-0.119807	0.732861
H121	H	-0.483121	-1.106490	0.904774
H122	H	0.016879	-0.606490	1.404774
C123	C	-0.212933	-1.034243	0.804302
C124	C	0.287067	-0.534243	1.304302
N125	N	-0.154655	-1.018626	0.782192
N126	N	0.345345	-0.518626	1.282192
C127	C	-0.464370	-0.966794	0.804366
C128	C	0.035630	-0.466794	1.304366
N129	N	-0.507090	-0.924145	0.782291
N130	N	-0.007090	-0.424145	1.282291
C131	C	-0.911797	-0.928023	0.318981
C132	C	-0.411797	-0.428023	0.818981
N133	N	-0.933929	-0.869753	0.303307
N134	N	-0.433929	-0.369753	0.803307
H135	H	-0.324553	-0.948046	0.904731
H136	H	0.175447	-0.448046	1.404731
H137	H	-0.391680	-1.198153	0.812087
H138	H	0.108320	-0.698153	1.312087
C139	C	-0.251501	-0.519489	0.251932
C140	C	0.248499	-0.019489	0.751932
N141	N	-0.208706	-0.497429	0.209374
N142	N	0.291294	0.002571	0.709374
H143	H	-0.266507	-1.164786	0.904572
H144	H	0.233493	-0.664786	1.404572
C145	C	-0.803820	-1.034222	0.212748
C146	C	-0.303820	-0.534222	0.712748
N147	N	-0.781856	-1.018582	0.154416
N148	N	-0.281856	-0.518582	0.654416
H149	H	-0.324616	-0.527218	0.483133
H150	H	0.175384	-0.027218	0.983133
C151	C	-0.803468	-1.218183	0.397073
C152	C	-0.303468	-0.718183	0.897073
N153	N	-0.781301	-1.276429	0.412788
N154	N	-0.281301	-0.776429	0.912788
C155	C	-0.212897	-0.627540	0.397079
C156	C	0.287103	-0.127540	0.897079
N157	N	-0.154627	-0.649644	0.412788
N158	N	0.345373	-0.149644	0.912788
C159	C	-0.464470	-0.627220	0.464183
C160	C	0.035530	-0.127220	0.964183
N161	N	-0.507235	-0.649126	0.506849
N162	N	-0.007235	-0.149126	1.006849
C163	C	-0.503060	-0.519362	0.318821
C164	C	-0.003060	-0.019362	0.818821
N165	N	-0.561311	-0.497234	0.303076
N166	N	-0.061311	0.002766	0.803076
H167	H	-0.904001	-1.106518	0.483091
H168	H	-0.404001	-0.606518	0.983091
C169	C	-0.911332	-1.179535	0.251721
C170	C	-0.411332	-0.679535	0.751721
N171	N	-0.933219	-1.222270	0.209025
N172	N	-0.433219	-0.722270	0.709025
C173	C	-0.803758	-0.966680	0.464112
C174	C	-0.303758	-0.466680	0.964112
N175	N	-0.781731	-0.923906	0.506697
N176	N	-0.281731	-0.423906	1.006697
