data_functionalizedCrystal
_audit_creation_method	'MofGen! by Chris Wilmer'
_symmetry_space_group_name_H-M	'P1'
_symmetry_Int_Tables_number	1
_symmetry_cell_setting	triclinic
loop_
_symmetry_equiv_pos_as_xyz
  x,y,z
_cell_length_a	9.065218
_cell_length_b	10.654551
_cell_length_c	8.140239
_cell_angle_alpha	89.999303
_cell_angle_beta	89.997198
_cell_angle_gamma	84.750623
loop_
_atom_site_label
_atom_site_type_symbol
_atom_site_fract_x
_atom_site_fract_y
_atom_site_fract_z
O1	O	1.959392	0.184157	-0.136606
O2	O	1.530025	0.199263	-0.136607
O3	O	1.754580	0.009010	-0.136608
O4	O	1.734837	0.374410	-0.136606
O5	O	1.754567	0.009008	0.136619
O6	O	1.530012	0.199261	0.136620
O7	O	1.959380	0.184155	0.136621
Zn8	Zn	1.744694	0.191707	0.180001
Zn9	Zn	1.744710	0.191711	-0.179987
O10	O	1.734825	0.374408	0.136621
C11	C	1.475040	0.197810	0.000006
C12	C	1.311221	0.193469	0.000005
C13	C	1.753123	-0.037795	0.000002
C14	C	1.748785	-0.177255	-0.000009
C15	C	1.746757	-0.242774	-0.148942
C16	C	1.742669	-0.373810	-0.148935
C17	C	1.742643	-0.373798	0.148953
C18	C	1.746721	-0.242763	0.148943
C19	C	1.748822	-0.177266	-0.297894
C20	C	1.746795	-0.242785	-0.446840
C21	C	1.742707	-0.373821	-0.446832
C22	C	1.740645	-0.439339	-0.297879
C23	C	2.014365	0.185608	0.000004
C24	C	2.178184	0.189949	-0.000006
C25	C	1.736281	0.421213	0.000008
C26	C	1.740619	0.560673	0.000008
N27	N	1.744693	0.191705	0.425684
N28	N	1.744722	0.191703	-0.425670
H29	H	1.752155	-0.070570	-0.297917
H30	H	1.740965	-0.427153	0.270223
H31	H	1.748460	-0.189430	-0.568111
H32	H	1.741041	-0.427162	-0.568110
Cl33	Cl	1.735490	-0.604071	-0.297876
H34	H	1.748341	-0.189413	0.270218
