data_functionalizedCrystal
_audit_creation_method	'MofGen! by Chris Wilmer'
_symmetry_space_group_name_H-M	'P1'
_symmetry_Int_Tables_number	1
_symmetry_cell_setting	triclinic
loop_
_symmetry_equiv_pos_as_xyz
  x,y,z
_cell_length_a	19.077105
_cell_length_b	15.299816
_cell_length_c	19.076919
_cell_angle_alpha	77.689900
_cell_angle_beta	89.923776
_cell_angle_gamma	78.483666
loop_
_atom_site_label
_atom_site_type_symbol
_atom_site_fract_x
_atom_site_fract_y
_atom_site_fract_z
Zn1	Zn	1.115517	-0.442478	0.502525
Zn2	Zn	1.615517	0.057522	1.002525
Zn3	Zn	1.139183	-0.589537	0.405660
Zn4	Zn	1.639183	-0.089537	0.905660
Zn5	Zn	1.001149	-0.430226	0.378599
Zn6	Zn	1.501149	0.069774	0.878599
Zn7	Zn	1.016933	-0.588986	0.518335
Zn8	Zn	1.516933	-0.088986	1.018335
O9	O	1.068195	-0.512807	0.451280
O10	O	1.568195	-0.012807	0.951280
O11	O	1.217681	-0.467345	0.494385
O12	O	1.717681	0.032655	0.994385
O13	O	1.124171	-0.563508	0.303052
O14	O	1.624171	-0.063508	0.803052
O15	O	0.999811	-0.303865	0.377096
O16	O	1.499811	0.196135	0.877096
O17	O	1.235068	-0.575388	0.423218
O18	O	1.735068	-0.075388	0.923218
O19	O	1.083836	-0.312867	0.468145
O20	O	1.583836	0.187133	0.968145
O21	O	1.022758	-0.446462	0.283170
O22	O	1.522758	0.053538	0.783170
O23	O	0.904218	-0.445927	0.392427
O24	O	1.404218	0.054073	0.892427
O25	O	1.026712	-0.574448	0.615257
O26	O	1.526712	-0.074448	1.115257
O27	O	0.915814	-0.562568	0.495090
O28	O	1.415814	-0.062568	0.995090
O29	O	1.099141	-0.466810	0.603641
O30	O	1.599141	0.033190	1.103641
O31	O	1.139476	-0.717451	0.438549
O32	O	1.639476	-0.217451	0.938549
O33	O	1.049659	-0.717045	0.521331
O34	O	1.549659	-0.217045	1.021331
C35	C	0.884340	-0.502859	0.442538
C36	C	1.384340	-0.002859	0.942538
C37	C	0.805688	-0.498626	0.438818
C38	C	1.305688	0.001374	0.938818
C39	C	1.098867	-0.750435	0.484608
C40	C	1.598867	-0.250435	0.984608
C41	C	1.112052	-0.852098	0.498893
C42	C	1.612052	-0.352098	0.998893
C43	C	0.774807	-0.557450	0.490463
C44	C	1.274807	-0.057450	0.990463
C45	C	0.700904	-0.553461	0.486970
C46	C	1.200904	-0.053461	0.986970
C47	C	0.657883	-0.490651	0.431828
C48	C	1.157883	0.009349	0.931828
C49	C	0.688769	-0.431820	0.380180
C50	C	1.188769	0.068180	0.880180
C51	C	0.762670	-0.435806	0.383677
C52	C	1.262670	0.064194	0.883677
C53	C	0.436210	-0.472206	0.415646
C54	C	0.936210	0.027794	0.915646
C55	C	0.362304	-0.468227	0.412151
C56	C	0.862304	0.031773	0.912151
C57	C	0.374444	-0.589866	0.518943
C58	C	0.874444	-0.089866	1.018943
C59	C	0.448347	-0.593850	0.522432
C60	C	0.948347	-0.093850	1.022432
C61	C	0.479225	-0.535016	0.470787
C62	C	0.979225	-0.035016	0.970787
N63	N	0.582342	-0.486574	0.428254
N64	N	1.082342	0.013426	0.928254
N65	N	0.554764	-0.539090	0.474364
N66	N	1.054764	-0.039090	0.974364
C67	C	0.974413	-1.120225	0.349448
C68	C	1.474413	-0.620225	0.849448
C69	C	0.962021	-1.024708	0.336029
C70	C	1.462021	-0.524708	0.836029
C71	C	0.999528	-0.981551	0.376743
C72	C	1.499528	-0.481551	0.876743
C73	C	1.049429	-1.033921	0.430880
C74	C	1.549429	-0.533921	0.930880
C75	C	1.061818	-1.129447	0.444305
C76	C	1.561818	-0.629447	0.944305
C77	C	1.086933	-0.990773	0.471600
C78	C	1.586933	-0.490773	0.971600
C79	C	1.136834	-1.043143	0.525737
C80	C	1.636834	-0.543143	1.025737
C81	C	1.149221	-1.138660	0.539159
C82	C	1.649221	-0.638660	1.039159
C83	C	1.111714	-1.181817	0.498444
C84	C	1.611714	-0.681817	0.998444
C85	C	1.074544	-0.895246	0.458175
C86	C	1.574544	-0.395246	0.958175
C87	C	1.161948	-0.904468	0.553032
C88	C	1.661948	-0.404468	1.053032
C89	C	1.174340	-0.999985	0.566451
C90	C	1.674340	-0.499985	1.066451
C91	C	1.252769	-0.522795	0.460057
C92	C	1.752769	-0.022795	0.960057
C93	C	1.331423	-0.527051	0.463797
C94	C	1.831423	-0.027051	0.963797
C95	C	1.062047	-0.521934	0.635841
C96	C	1.562047	-0.021934	1.135841
C97	C	1.059427	-0.525824	0.714490
C98	C	1.559427	-0.025824	1.214490
C99	C	1.037423	-0.274253	0.417838
C100	C	1.537423	0.225747	0.917838
C101	C	1.024309	-0.172595	0.403587
C102	C	1.524309	0.327405	0.903587
C103	C	1.074352	-0.503651	0.267429
C104	C	1.574352	-0.003651	0.767429
C105	C	1.077076	-0.499512	0.188751
C106	C	1.577076	0.000488	0.688751
C107	C	1.095904	-0.471612	0.745394
C108	C	1.595904	0.028388	1.245394
C109	C	1.093433	-0.475263	0.819292
C110	C	1.593433	0.024737	1.319292
C111	C	1.054488	-0.533130	0.862286
C112	C	1.554488	-0.033130	1.362286
C113	C	1.018007	-0.587344	0.831378
C114	C	1.518007	-0.087344	1.331378
C115	C	1.020474	-0.583688	0.757480
C116	C	1.520474	-0.083688	1.257480
C117	C	1.043062	-0.550069	1.083945
C118	C	1.543062	-0.050069	1.583945
C119	C	1.040599	-0.553723	1.157848
C120	C	1.540599	-0.053723	1.657848
C121	C	1.116024	-0.441640	1.145756
C122	C	1.616024	0.058360	1.645756
C123	C	1.118491	-0.437993	1.071858
C124	C	1.618491	0.062007	1.571858
C125	C	1.082007	-0.492203	1.040956
C126	C	1.582007	0.007797	1.540956
N127	N	1.051964	-0.536865	0.937823
N128	N	1.551964	-0.036865	1.437823
N129	N	1.084528	-0.488463	0.965420
N130	N	1.584528	0.011537	1.465420
H131	H	0.809830	-0.608599	0.535364
H132	H	1.309830	-0.108599	1.035364
F133	F	0.469063	-0.409587	0.360681
F134	F	0.969063	0.090413	0.860681
H135	H	1.192488	-0.869330	0.586187
H136	H	1.692488	-0.369330	1.086187
F137	F	0.795535	-0.373195	0.328710
F138	F	1.295535	0.126805	0.828710
F139	F	1.021438	-0.839521	0.400560
F140	F	1.521438	-0.339521	0.900560
H141	H	0.989436	-0.903776	0.365813
H142	H	1.489436	-0.403776	0.865813
H143	H	0.653735	-0.380676	0.335284
H144	H	1.153735	0.119324	0.835284
F145	F	0.908909	-0.968979	0.278420
F146	F	1.408909	-0.468979	0.778420
H147	H	1.150206	-0.390874	1.036857
H148	H	1.650206	0.109126	1.536857
F149	F	0.934493	-1.166162	0.306132
F150	F	1.434493	-0.666162	0.806132
H151	H	1.121803	-1.259595	0.509365
H152	H	1.621803	-0.759595	1.009365
H153	H	1.189850	-1.181297	0.583243
H154	H	1.689850	-0.681297	1.083243
H155	H	1.214970	-1.042638	0.610531
H156	H	1.714970	-0.542638	1.110531
H157	H	0.675764	-0.601363	0.529024
H158	H	1.175764	-0.101363	1.029024
F159	F	0.494127	-0.660703	0.581121
F160	F	0.994127	-0.160703	1.081121
H161	H	0.349294	-0.637764	0.560990
H162	H	0.849294	-0.137764	1.060990
F163	F	1.137358	-0.410025	0.699643
F164	F	1.637358	0.089975	1.199643
H165	H	1.123138	-0.431120	0.844450
H166	H	1.623138	0.068880	1.344450
F167	F	0.316520	-0.401378	0.353455
F168	F	0.816520	0.098622	0.853455
H169	H	1.145727	-0.397504	1.170925
H170	H	1.645727	0.102496	1.670925
H171	H	1.008884	-0.600848	1.192853
H172	H	1.508884	-0.100848	1.692853
F173	F	1.004232	-0.607765	1.051066
F174	F	1.504232	-0.107765	1.551066
H175	H	0.986295	-0.634458	0.866390
H176	H	1.486295	-0.134458	1.366390
F177	F	0.981648	-0.641385	0.724591
F178	F	1.481648	-0.141385	1.224591
