data_functionalizedCrystal
_audit_creation_method	'MofGen! by Chris Wilmer'
_symmetry_space_group_name_H-M	'P1'
_symmetry_Int_Tables_number	1
_symmetry_cell_setting	triclinic
loop_
_symmetry_equiv_pos_as_xyz
  x,y,z
_cell_length_a	19.121241
_cell_length_b	19.120786
_cell_length_c	19.120904
_cell_angle_alpha	89.866497
_cell_angle_beta	89.875472
_cell_angle_gamma	94.790376
loop_
_atom_site_label
_atom_site_type_symbol
_atom_site_fract_x
_atom_site_fract_y
_atom_site_fract_z
Zn1	Zn	1.044531	-0.253560	-0.430924
Zn2	Zn	1.544531	0.246440	0.069076
Zn3	Zn	1.044875	-0.365791	-0.308698
Zn4	Zn	1.544875	0.134209	0.191302
Zn5	Zn	0.932315	-0.253144	-0.308712
Zn6	Zn	1.432315	0.246856	0.191288
Zn7	Zn	0.922279	-0.375740	-0.420443
Zn8	Zn	1.422279	0.124260	0.079557
O9	O	0.986000	-0.312059	-0.367194
O10	O	1.486000	0.187941	0.132806
O11	O	1.142847	-0.264459	-0.419091
O12	O	1.642847	0.235541	0.080909
O13	O	1.034288	-0.346510	-0.210788
O14	O	1.534288	0.153490	0.289212
O15	O	0.951257	-0.154923	-0.329315
O16	O	1.451257	0.345077	0.170685
O17	O	1.143100	-0.346914	-0.329292
O18	O	1.643100	0.153086	0.170708
O19	O	1.033702	-0.155230	-0.419104
O20	O	1.533702	0.344770	0.080896
O21	O	0.951590	-0.263748	-0.210798
O22	O	1.451590	0.236252	0.289202
O23	O	0.832713	-0.273396	-0.319152
O24	O	1.332713	0.226604	0.180848
O25	O	0.934152	-0.363870	-0.519745
O26	O	1.434152	0.136130	-0.019745
O27	O	0.825340	-0.363466	-0.401241
O28	O	1.325340	0.136534	0.098759
O29	O	1.023970	-0.274106	-0.527445
O30	O	1.523970	0.225894	-0.027445
O31	O	1.024557	-0.465386	-0.319129
O32	O	1.524557	0.034614	0.180871
O33	O	0.934485	-0.472695	-0.401228
O34	O	1.434485	0.027305	0.098772
C35	C	0.803546	-0.319466	-0.359061
C36	C	1.303546	0.180534	0.140939
C37	C	0.725490	-0.322652	-0.355598
C38	C	1.225490	0.177348	0.144402
C39	C	0.688682	-0.281294	-0.400789
C40	C	1.188682	0.218706	0.099211
C41	C	0.615341	-0.284284	-0.397529
C42	C	1.115341	0.215716	0.102471
C43	C	0.578808	-0.328637	-0.349080
C44	C	1.078808	0.171363	0.150920
C45	C	0.615621	-0.369997	-0.303884
C46	C	1.115621	0.130003	0.196116
C47	C	0.688962	-0.367003	-0.307141
C48	C	1.188962	0.132997	0.192859
C49	C	0.357374	-0.339820	-0.336900
C50	C	0.857374	0.160180	0.163100
C51	C	0.284029	-0.342813	-0.333647
C52	C	0.784029	0.157187	0.166353
C53	C	0.283753	-0.257098	-0.427291
C54	C	0.783753	0.242902	0.072709
C55	C	0.357095	-0.254111	-0.430547
C56	C	0.857095	0.245889	0.069453
C57	C	0.393902	-0.295468	-0.385349
C58	C	0.893902	0.204532	0.114651
C59	C	0.503841	-0.331697	-0.345748
C60	C	1.003841	0.168303	0.154252
C61	C	0.468868	-0.292404	-0.388678
C62	C	0.968868	0.207596	0.111322
C63	C	0.978488	-0.494522	-0.359056
C64	C	1.478488	0.005478	0.140944
C65	C	0.975337	-0.572579	-0.355600
C66	C	1.475337	-0.072579	0.144400
C67	C	1.016747	-0.609353	-0.400760
C68	C	1.516747	-0.109353	0.099240
C69	C	1.013783	-0.682696	-0.397514
C70	C	1.513783	-0.182696	0.102486
C71	C	0.969414	-0.719264	-0.349105
C72	C	1.469414	-0.219264	0.150895
C73	C	0.928000	-0.682486	-0.303944
C74	C	1.428000	-0.182486	0.196056
C75	C	0.930960	-0.609144	-0.307193
C76	C	1.430960	-0.109144	0.192807
C77	C	0.958328	-0.940703	-0.336957
C78	C	1.458328	-0.440703	0.163043
C79	C	0.955372	-1.014050	-0.333709
C80	C	1.455372	-0.514050	0.166291
C81	C	1.041155	-1.014255	-0.427281
C82	C	1.541155	-0.514255	0.072719
C83	C	1.044114	-0.940912	-0.430523
C84	C	1.544114	-0.440912	0.069477
C85	C	1.002698	-0.904140	-0.385364
C86	C	1.502698	-0.404140	0.114636
C87	C	0.966386	-0.794233	-0.345785
C88	C	1.466386	-0.294233	0.154215
C89	C	1.005723	-0.829174	-0.388688
C90	C	1.505723	-0.329174	0.111312
C91	C	1.169166	-0.304623	-0.375359
C92	C	1.669166	0.195377	0.124641
C93	C	1.247221	-0.301454	-0.378839
C94	C	1.747221	0.198546	0.121161
C95	C	0.977903	-0.320145	-0.549692
C96	C	1.477903	0.179855	-0.049692
C97	C	0.974452	-0.323590	-0.627462
C98	C	1.474452	0.176410	-0.127462
C99	C	0.993560	-0.128882	-0.375380
C100	C	1.493560	0.371118	0.124620
C101	C	0.996782	-0.050823	-0.378869
C102	C	1.496782	0.449177	0.121131
C103	C	1.019593	-0.278476	-0.668008
C104	C	1.519593	0.221524	-0.168008
C105	C	1.016342	-0.281711	-0.741081
C106	C	1.516342	0.218289	-0.241081
C107	C	0.967954	-0.330065	-0.773605
C108	C	1.467954	0.169935	-0.273605
C109	C	0.922809	-0.375181	-0.733054
C110	C	1.422809	0.124819	-0.233054
C111	C	0.926057	-0.371942	-0.659982
C112	C	1.426057	0.128058	-0.159982
C113	C	0.955806	-0.342180	-0.994033
C114	C	1.455806	0.157820	-0.494033
C115	C	0.952563	-0.345417	-1.067109
C116	C	1.452563	0.154583	-0.567109
C117	C	1.046095	-0.251946	-1.075131
C118	C	1.546095	0.248054	-0.575131
C119	C	1.049341	-0.248714	-1.002058
C120	C	1.549341	0.251286	-0.502058
C121	C	1.004194	-0.293828	-0.961513
C122	C	1.504194	0.206172	-0.461513
C123	C	0.964632	-0.333374	-0.848297
C124	C	1.464632	0.166626	-0.348297
C125	C	1.007513	-0.290514	-0.886822
C126	C	1.507513	0.209486	-0.386822
C127	C	0.994108	-0.303952	-0.185410
C128	C	1.494108	0.196048	0.314590
C129	C	0.997703	-0.300303	-0.107656
C130	C	1.497703	0.199697	0.392344
H131	H	0.718930	-0.400681	-0.270341
H132	H	1.218930	0.099319	0.229659
H133	H	0.883408	-0.414550	-0.759541
H134	H	1.383408	0.085450	-0.259541
H135	H	0.387334	-0.373497	-0.300097
H136	H	0.887334	0.126503	0.199903
C137	C	0.575831	-0.418135	-0.251353
C138	C	1.075831	0.081865	0.248647
C139	C	0.503722	-0.411922	-0.258185
C140	C	1.003722	0.088078	0.241815
C141	C	0.467047	-0.456264	-0.209812
C142	C	0.967047	0.043736	0.290188
H143	H	0.590265	-0.405258	-0.205319
H144	H	1.090265	0.094742	0.294681
H145	H	0.585424	-0.465313	-0.259949
H146	H	1.085424	0.034687	0.240051
H147	H	0.494134	-0.364754	-0.249584
H148	H	0.994134	0.135246	0.250416
H149	H	0.489267	-0.424804	-0.304209
H150	H	0.989267	0.075196	0.195791
H151	H	0.476640	-0.503442	-0.218409
H152	H	0.976640	-0.003442	0.281591
H153	H	0.481487	-0.443383	-0.163782
H154	H	0.981487	0.056617	0.336218
H155	H	0.418117	-0.452059	-0.214446
H156	H	0.918117	0.047941	0.285554
H157	H	0.498616	-0.256289	-0.428122
H158	H	0.998616	0.243711	0.071878
C159	C	1.064936	-0.569783	-0.453394
C160	C	1.564936	-0.069783	0.046606
C161	C	1.100550	-0.617691	-0.492262
C162	C	1.600550	-0.117691	0.007738
C163	C	1.144939	-0.581268	-0.540765
C164	C	1.644939	-0.081268	-0.040765
H165	H	1.097958	-0.538722	-0.429372
H166	H	1.597958	-0.038722	0.070628
H167	H	1.037861	-0.543646	-0.483963
H168	H	1.537861	-0.043646	0.016037
H169	H	1.127624	-0.643816	-0.461697
H170	H	1.627624	-0.143816	0.038303
H171	H	1.067546	-0.648753	-0.516299
H172	H	1.567546	-0.148753	-0.016299
H173	H	1.117863	-0.555131	-0.571334
H174	H	1.617863	-0.055131	-0.071334
H175	H	1.177956	-0.550208	-0.516737
H176	H	1.677956	-0.050208	-0.016737
H177	H	1.169103	-0.613768	-0.567147
H178	H	1.669103	-0.113768	-0.067147
C179	C	0.906904	-0.391198	-0.949940
C180	C	1.406904	0.108802	-0.449940
C181	C	0.946660	-0.432732	-0.907736
C182	C	1.446660	0.067268	-0.407736
C183	C	0.901632	-0.477892	-0.867103
C184	C	1.401632	0.022108	-0.367103
H185	H	0.877612	-0.420519	-0.979701
H186	H	1.377612	0.079481	-0.479701
H187	H	0.878688	-0.364331	-0.921232
H188	H	1.378688	0.135669	-0.421232
H189	H	0.974864	-0.459597	-0.936441
H190	H	1.474864	0.040403	-0.436441
H191	H	0.975950	-0.403430	-0.877961
H192	H	1.475950	0.096570	-0.377961
H193	H	0.873416	-0.451026	-0.838395
H194	H	1.373416	0.048974	-0.338395
H195	H	0.872342	-0.507209	-0.896869
H196	H	1.372342	-0.007209	-0.396869
H197	H	0.928600	-0.506074	-0.838458
H198	H	1.428600	-0.006074	-0.338458
H199	H	0.474088	-0.367809	-0.306301
H200	H	0.974088	0.132191	0.193699
H201	H	0.930262	-0.824014	-0.306369
H202	H	1.430262	-0.324014	0.193631
C203	C	1.092265	-0.901083	-0.483016
C204	C	1.592265	-0.401083	0.016984
C205	C	1.086006	-0.828982	-0.476183
C206	C	1.586006	-0.328982	0.023817
C207	C	1.130359	-0.792269	-0.524520
C208	C	1.630359	-0.292269	-0.024520
H209	H	1.079424	-0.915512	-0.529060
H210	H	1.579424	-0.415512	-0.029060
H211	H	1.139444	-0.910652	-0.474384
H212	H	1.639444	-0.410652	0.025616
H213	H	1.038838	-0.819418	-0.484820
H214	H	1.538838	-0.319418	0.015180
H215	H	1.098852	-0.814532	-0.430149
H216	H	1.598852	-0.314532	0.069851
H217	H	1.177539	-0.801838	-0.515889
H218	H	1.677539	-0.301838	-0.015889
H219	H	1.117515	-0.806704	-0.570562
H220	H	1.617515	-0.306704	-0.070562
H221	H	1.126124	-0.743344	-0.519887
H222	H	1.626124	-0.243344	-0.019887
C223	C	0.907149	-1.053854	-0.281256
C224	C	1.407149	-0.553854	0.218744
C225	C	0.858669	-1.099589	-0.316962
C226	C	1.358669	-0.599589	0.183038
C227	C	0.814247	-1.136276	-0.268666
C228	C	1.314247	-0.636276	0.231334
H229	H	0.882835	-1.021536	-0.254801
H230	H	1.382835	-0.521536	0.245199
H231	H	0.934219	-1.080047	-0.250733
H232	H	1.434219	-0.580047	0.249267
H233	H	0.831602	-1.073398	-0.347473
H234	H	1.331602	-0.573398	0.152527
H235	H	0.882963	-1.131921	-0.343414
H236	H	1.382963	-0.631921	0.156586
H237	H	0.841317	-1.162468	-0.238143
H238	H	1.341317	-0.662468	0.261857
H239	H	0.789938	-1.103952	-0.242214
H240	H	1.289938	-0.603952	0.257786
H241	H	0.781353	-1.167316	-0.292885
H242	H	1.281353	-0.667316	0.207115
C243	C	0.913345	-0.900909	-0.287835
C244	C	1.413345	-0.400909	0.212165
C245	C	0.873875	-0.948633	-0.244730
C246	C	1.373875	-0.448633	0.255270
C247	C	0.832437	-0.911997	-0.199459
C248	C	1.332437	-0.411997	0.300541
H249	H	0.882630	-0.874740	-0.314389
H250	H	1.382630	-0.374740	0.185611
H251	H	0.942729	-0.869859	-0.259800
H252	H	1.442729	-0.369859	0.240200
H253	H	0.844493	-0.979671	-0.272762
H254	H	1.344493	-0.479671	0.227238
H255	H	0.904572	-0.974804	-0.218161
H256	H	1.404572	-0.474804	0.281839
H257	H	0.861822	-0.880947	-0.171424
H258	H	1.361822	-0.380947	0.328576
H259	H	0.801727	-0.885829	-0.226019
H260	H	1.301727	-0.385829	0.273981
H261	H	0.805657	-0.944371	-0.170203
H262	H	1.305657	-0.444371	0.329797
C263	C	1.086034	-1.054309	-0.476278
C264	C	1.586034	-0.554309	0.023722
C265	C	1.073934	-1.126366	-0.463087
C266	C	1.573934	-0.626366	0.036913
C267	C	1.115256	-1.163285	-0.508219
C268	C	1.615256	-0.663285	-0.008219
H269	H	1.134188	-1.039967	-0.468758
H270	H	1.634188	-0.539967	0.031242
H271	H	1.074106	-1.044824	-0.523366
H272	H	1.574106	-0.544824	-0.023366
H273	H	1.085866	-1.135847	-0.416010
H274	H	1.585866	-0.635847	0.083990
H275	H	1.025788	-1.140729	-0.470611
H276	H	1.525788	-0.640729	0.029389
H277	H	1.103329	-1.153800	-0.555307
H278	H	1.603329	-0.653800	-0.055307
H279	H	1.163408	-1.148937	-0.500696
H280	H	1.663408	-0.648937	-0.000696
H281	H	1.107048	-1.212180	-0.499280
H282	H	1.607048	-0.712180	0.000720
C283	C	0.879778	-0.722283	-0.251492
C284	C	1.379778	-0.222283	0.248508
C285	C	0.831292	-0.768015	-0.287195
C286	C	1.331292	-0.268015	0.212805
C287	C	0.786866	-0.804692	-0.238896
C288	C	1.286866	-0.304692	0.261104
H289	H	0.855469	-0.689960	-0.225039
H290	H	1.355469	-0.189960	0.274961
H291	H	0.906844	-0.748478	-0.220967
H292	H	1.406844	-0.248478	0.279033
H293	H	0.804228	-0.741822	-0.317707
H294	H	1.304228	-0.241822	0.182293
H295	H	0.855580	-0.800352	-0.313645
H296	H	1.355580	-0.300352	0.186355
H297	H	0.813932	-0.830887	-0.208372
H298	H	1.313932	-0.330887	0.291628
H299	H	0.762562	-0.772364	-0.212446
H300	H	1.262562	-0.272364	0.287554
H301	H	0.753967	-0.835730	-0.263113
H302	H	1.253967	-0.335730	0.236887
C303	C	1.072154	-0.225903	-0.632830
C304	C	1.572154	0.274097	-0.132830
C305	C	1.110976	-0.187074	-0.683982
C306	C	1.610976	0.312926	-0.183982
C307	C	1.159394	-0.138629	-0.651605
C308	C	1.659394	0.361371	-0.151605
H309	H	1.102976	-0.250180	-0.604493
H310	H	1.602976	0.249820	-0.104493
H311	H	1.047836	-0.195093	-0.604511
H312	H	1.547836	0.304907	-0.104511
H313	H	1.135292	-0.217880	-0.712289
H314	H	1.635292	0.282120	-0.212289
H315	H	1.080172	-0.162782	-0.712322
H316	H	1.580172	0.337218	-0.212322
H317	H	1.135077	-0.107818	-0.623286
H318	H	1.635077	0.392182	-0.123286
H319	H	1.190211	-0.162911	-0.623269
H320	H	1.690211	0.337089	-0.123269
H321	H	1.185736	-0.112272	-0.686307
H322	H	1.685736	0.387728	-0.186307
C323	C	1.095072	-0.202845	-1.119067
C324	C	1.595072	0.297155	-0.619067
C325	C	1.083448	-0.133195	-1.103700
C326	C	1.583448	0.366805	-0.603700
C327	C	1.128559	-0.087940	-1.144152
C328	C	1.628559	0.412060	-0.644152
H329	H	1.086258	-0.211600	-1.167261
H330	H	1.586258	0.288400	-0.667261
H331	H	1.142378	-0.210633	-1.108726
H332	H	1.642378	0.289367	-0.608726
H333	H	1.036153	-0.125411	-1.114046
H334	H	1.536153	0.374589	-0.614046
H335	H	1.092267	-0.124418	-1.055514
H336	H	1.592267	0.375582	-0.555514
H337	H	1.175865	-0.095727	-1.133811
H338	H	1.675865	0.404273	-0.633811
H339	H	1.119741	-0.096701	-1.192344
H340	H	1.619741	0.403299	-0.692344
H341	H	1.120683	-0.040677	-1.133727
H342	H	1.620683	0.459323	-0.633727
H343	H	1.053101	-0.244975	-0.774091
H344	H	1.553101	0.255025	-0.274091
H345	H	1.047509	-0.712633	-0.434283
H346	H	1.547509	-0.212633	0.065717
C347	C	0.885970	-0.569340	-0.258080
C348	C	1.385970	-0.069340	0.241920
C349	C	0.846492	-0.617060	-0.214978
C350	C	1.346492	-0.117060	0.285022
C351	C	0.805042	-0.580419	-0.169723
C352	C	1.305042	-0.080419	0.330277
H353	H	0.855261	-0.543176	-0.284646
H354	H	1.355261	-0.043176	0.215354
H355	H	0.915347	-0.538286	-0.230043
H356	H	1.415347	-0.038286	0.269957
H357	H	0.817118	-0.648102	-0.243013
H358	H	1.317118	-0.148102	0.256987
H359	H	0.877184	-0.643226	-0.188398
H360	H	1.377184	-0.143226	0.311602
H361	H	0.834419	-0.549364	-0.141685
H362	H	1.334419	-0.049364	0.358315
H363	H	0.774337	-0.554256	-0.196294
H364	H	1.274337	-0.054256	0.303706
H365	H	0.778256	-0.612790	-0.140469
H366	H	1.278256	-0.112790	0.359531
H367	H	1.041846	-0.799398	-0.428106
H368	H	1.541846	-0.299398	0.071894
C369	C	1.101751	-0.196143	-0.966673
C370	C	1.601751	0.303857	-0.466673
C371	C	1.065688	-0.150900	-0.924963
C372	C	1.565688	0.349100	-0.424963
C373	C	1.113940	-0.102457	-0.892356
C374	C	1.613940	0.397543	-0.392356
H375	H	1.128176	-0.169667	-1.001223
H376	H	1.628176	0.330333	-0.501223
H377	H	1.132515	-0.220451	-0.938283
H378	H	1.632515	0.279549	-0.438283
H379	H	1.034937	-0.126593	-0.953351
H380	H	1.534937	0.373407	-0.453351
H381	H	1.039266	-0.177356	-0.890401
H382	H	1.539266	0.322644	-0.390401
H383	H	1.144704	-0.126766	-0.863967
H384	H	1.644704	0.373234	-0.363967
H385	H	1.140363	-0.075987	-0.926911
H386	H	1.640363	0.424013	-0.426911
H387	H	1.089479	-0.071759	-0.864048
H388	H	1.589479	0.428241	-0.364048
C389	C	0.900087	-0.397886	-1.102554
C390	C	1.400087	0.102114	-0.602554
C391	C	0.906920	-0.391075	-1.175225
C392	C	1.406920	0.108925	-0.675225
C393	C	0.858599	-0.439399	-1.207900
C394	C	1.358599	0.060601	-0.707900
H395	H	0.853828	-0.389032	-1.089014
H396	H	1.353828	0.110968	-0.589014
H397	H	0.908942	-0.444144	-1.088971
H398	H	1.408942	0.055856	-0.588971
H399	H	0.898060	-0.344827	-1.188803
H400	H	1.398060	0.155173	-0.688803
H401	H	0.953169	-0.399936	-1.188785
H402	H	1.453169	0.100064	-0.688785
H403	H	0.867454	-0.485657	-1.194317
H404	H	1.367454	0.014343	-0.694317
H405	H	0.812344	-0.430541	-1.194355
H406	H	1.312344	0.069459	-0.694355
H407	H	0.863234	-0.434789	-1.257210
H408	H	1.363234	0.065211	-0.757210
C409	C	0.877021	-0.421018	-0.616079
C410	C	1.377021	0.078982	-0.116079
C411	C	0.833967	-0.464075	-0.660201
C412	C	1.333967	0.035925	-0.160201
C413	C	0.788794	-0.509301	-0.619783
C414	C	1.288794	-0.009301	-0.119783
H415	H	0.848731	-0.394220	-0.587395
H416	H	1.348731	0.105780	-0.087395
H417	H	0.903879	-0.449299	-0.587423
H418	H	1.403879	0.050701	-0.087423
H419	H	0.807112	-0.435797	-0.688845
H420	H	1.307112	0.064203	-0.188845
H421	H	0.862238	-0.490888	-0.688884
H422	H	1.362238	0.009112	-0.188884
H423	H	0.815651	-0.537583	-0.591126
H424	H	1.315651	-0.037583	-0.091126
H425	H	0.760508	-0.482497	-0.591101
H426	H	1.260508	0.017503	-0.091101
H427	H	0.759580	-0.538525	-0.649713
H428	H	1.259580	-0.038525	-0.149713
H429	H	0.718422	-0.245179	-0.440243
H430	H	1.218422	0.254821	0.059757
H431	H	0.585375	-0.250607	-0.434330
H432	H	1.085375	0.249393	0.065670
H433	H	0.386835	-0.217996	-0.470002
H434	H	0.886835	0.282004	0.029998
H435	H	0.925237	-0.372747	-0.874787
H436	H	1.425237	0.127253	-0.374787
C437	C	0.243819	-0.212285	-0.476472
C438	C	0.743819	0.287715	0.023528
C439	C	0.257955	-0.230034	-0.545780
C440	C	0.757955	0.269966	-0.045780
C441	C	0.221173	-0.188770	-0.591104
C442	C	0.721173	0.311230	-0.091104
H443	H	0.258192	-0.164123	-0.469039
H444	H	0.758192	0.335877	0.030961
H445	H	0.194899	-0.220427	-0.467641
H446	H	0.694899	0.279573	0.032359
H447	H	0.306864	-0.221886	-0.554607
H448	H	0.806864	0.278114	-0.054607
H449	H	0.243579	-0.278189	-0.553234
H450	H	0.743579	0.221811	-0.053234
H451	H	0.172253	-0.196912	-0.582273
H452	H	0.672253	0.303088	-0.082273
H453	H	0.235549	-0.140610	-0.583665
H454	H	0.735549	0.359390	-0.083665
H455	H	0.230754	-0.200811	-0.638134
H456	H	0.730754	0.299189	-0.138134
C457	C	0.244492	-0.390989	-0.280971
C458	C	0.744492	0.109011	0.219029
C459	C	0.292423	-0.426555	-0.242073
C460	C	0.792423	0.073445	0.257927
C461	C	0.256028	-0.470933	-0.193540
C462	C	0.756028	0.029067	0.306460
H463	H	0.213445	-0.424041	-0.304971
H464	H	0.713445	0.075959	0.195029
H465	H	0.218344	-0.363909	-0.250424
H466	H	0.718344	0.136091	0.249576
H467	H	0.318559	-0.453632	-0.272615
H468	H	0.818559	0.046368	0.227385
H469	H	0.323472	-0.393521	-0.218057
H470	H	0.823472	0.106479	0.281943
H471	H	0.229880	-0.443853	-0.162993
H472	H	0.729880	0.056147	0.337007
H473	H	0.224982	-0.503980	-0.217547
H474	H	0.724982	-0.003980	0.282453
H475	H	0.288544	-0.495065	-0.167138
H476	H	0.788544	0.004935	0.332862
H477	H	1.046908	-0.251142	-0.860338
H478	H	1.546908	0.248858	-0.360338
