data_functionalizedCrystal
_audit_creation_method	'MofGen! by Chris Wilmer'
_symmetry_space_group_name_H-M	'P1'
_symmetry_Int_Tables_number	1
_symmetry_cell_setting	triclinic
loop_
_symmetry_equiv_pos_as_xyz
  x,y,z
_cell_length_a	12.827893
_cell_length_b	12.759394
_cell_length_c	12.827885
_cell_angle_alpha	90.029530
_cell_angle_beta	90.019081
_cell_angle_gamma	90.013827
loop_
_atom_site_label
_atom_site_type_symbol
_atom_site_fract_x
_atom_site_fract_y
_atom_site_fract_z
Zn1	Zn	1.597681	-0.418216	0.590845
Zn2	Zn	2.097681	0.081784	1.090845
Zn3	Zn	1.597580	-0.593932	0.416106
Zn4	Zn	2.097580	-0.093932	0.916106
Zn5	Zn	1.422922	-0.418268	0.416119
Zn6	Zn	1.922922	0.081732	0.916119
Zn7	Zn	1.422912	-0.593854	0.590807
Zn8	Zn	1.922912	-0.093854	1.090807
O9	O	1.510274	-0.506067	0.503469
O10	O	2.010274	-0.006067	1.003469
O11	O	1.743903	-0.441537	0.567676
O12	O	2.243903	0.058463	1.067676
O13	O	1.574373	-0.570684	0.269872
O14	O	2.074373	-0.070684	0.769872
O15	O	1.446151	-0.271240	0.439319
O16	O	1.946151	0.228760	0.939319
O17	O	1.743829	-0.570634	0.439296
O18	O	2.243829	-0.070634	0.939296
O19	O	1.574545	-0.271202	0.567689
O20	O	2.074545	0.228798	1.067689
O21	O	1.446053	-0.441624	0.269882
O22	O	1.946053	0.058376	0.769882
O23	O	1.276685	-0.441548	0.439282
O24	O	1.776685	0.058452	0.939282
O25	O	1.446134	-0.570501	0.737048
O26	O	1.946134	-0.070501	1.237048
O27	O	1.276677	-0.570551	0.567624
O28	O	1.776677	-0.070551	1.067624
O29	O	1.574535	-0.441461	0.737076
O30	O	2.074535	0.058539	1.237076
O31	O	1.574363	-0.740943	0.439259
O32	O	2.074363	-0.240943	0.939259
O33	O	1.446036	-0.740885	0.567611
O34	O	1.946036	-0.240885	1.067611
C35	C	1.238764	-0.506047	0.503450
C36	C	1.738764	-0.006047	1.003450
C37	C	1.122611	-0.506064	0.503467
C38	C	1.622611	-0.006064	1.003467
C39	C	0.950818	-0.442314	0.567108
C40	C	1.450818	0.057686	1.067108
C41	C	1.070868	-0.442296	0.567093
C42	C	1.570868	0.057704	1.067093
C43	C	1.510216	-0.779035	0.503452
C44	C	2.010216	-0.279035	1.003452
C45	C	1.510286	-0.895812	0.503480
C46	C	2.010286	-0.395812	1.003480
C47	C	1.643883	-0.895614	0.637252
C48	C	2.143883	-0.395614	1.137252
C49	C	1.710715	-0.950376	0.704146
C50	C	2.210715	-0.450376	1.204146
C51	C	1.710777	-1.060098	0.704169
C52	C	2.210777	-0.560098	1.204169
C53	C	1.643998	-1.115060	0.637292
C54	C	2.143998	-0.615060	1.137292
C55	C	1.577167	-1.060298	0.570398
C56	C	2.077167	-0.560298	1.070398
C57	C	1.577114	-0.950574	0.570381
C58	C	2.077114	-0.450574	1.070381
C59	C	1.443566	-1.060495	0.436633
C60	C	1.943566	-0.560495	0.936633
C61	C	1.443508	-0.950774	0.436603
C62	C	1.943508	-0.450774	0.936603
C63	C	1.376787	-1.115457	0.369756
C64	C	1.876787	-0.615457	0.869756
C65	C	1.309959	-1.060695	0.302856
C66	C	1.809959	-0.560695	0.802856
C67	C	1.309901	-0.950967	0.302835
C68	C	1.809901	-0.450967	0.802835
C69	C	1.376676	-0.896012	0.369709
C70	C	1.876676	-0.396012	0.869709
C71	C	1.782844	-0.506089	0.503489
C72	C	2.282844	-0.006089	1.003489
C73	C	1.898997	-0.506098	0.503498
C74	C	2.398997	-0.006098	1.003498
C75	C	1.510345	-0.505967	0.776040
C76	C	2.010345	-0.005967	1.276040
C77	C	1.510375	-0.505924	0.892193
C78	C	2.010375	-0.005924	1.392193
C79	C	1.510360	-0.232034	0.503510
C80	C	2.010360	0.267966	1.003510
C81	C	1.510397	-0.115257	0.503527
C82	C	2.010397	0.384743	1.003527
C83	C	1.510263	-0.506092	0.231960
C84	C	2.010263	-0.006092	0.731960
C85	C	1.510435	-0.505839	0.115807
C86	C	2.010435	-0.005839	0.615807
C87	C	1.573919	-0.442058	0.943992
C88	C	2.073919	0.057942	1.443992
C89	C	1.573952	-0.442012	1.064042
C90	C	2.073952	0.057988	1.564042
H91	H	0.943507	-0.560697	0.449032
H92	H	1.443507	-0.060697	0.949032
H93	H	1.765084	-0.905617	0.758598
H94	H	2.265084	-0.405617	1.258598
H95	H	1.376839	-1.204798	0.369783
H96	H	1.876839	-0.704798	0.869783
H97	H	1.376639	-0.806670	0.369695
H98	H	1.876639	-0.306670	0.869695
H99	H	1.456034	-0.560524	1.071268
H100	H	1.956034	-0.060524	1.571268
H101	H	1.255475	-0.906385	0.248366
H102	H	1.755475	-0.406385	0.748366
H103	H	1.078052	-0.560672	0.449003
H104	H	1.578052	-0.060672	0.949003
H105	H	1.115433	-0.387684	0.621547
H106	H	1.615433	0.112316	1.121547
H107	H	1.643849	-0.806273	0.637231
H108	H	2.143849	-0.306273	1.137231
H109	H	0.906308	-0.387725	0.621584
H110	H	1.406308	0.112275	1.121584
H111	H	1.628358	-0.387338	1.108588
H112	H	2.128358	0.112662	1.608588
H113	H	1.455990	-0.560560	0.936723
H114	H	1.955990	-0.060560	1.436723
H115	H	1.765186	-1.104685	0.758650
H116	H	2.265186	-0.604685	1.258650
H117	H	1.644046	-1.204401	0.637325
H118	H	2.144046	-0.704401	1.137325
H119	H	1.628294	-0.387411	0.899462
H120	H	2.128294	0.112589	1.399462
H121	H	1.255589	-1.105454	0.248415
H122	H	1.755589	-0.605454	0.748415
