data_functionalizedCrystal
_audit_creation_method	'MofGen! by Chris Wilmer'
_symmetry_space_group_name_H-M	'P1'
_symmetry_Int_Tables_number	1
_symmetry_cell_setting	triclinic
loop_
_symmetry_equiv_pos_as_xyz
  x,y,z
_cell_length_a	13.339070
_cell_length_b	14.971486
_cell_length_c	14.048226
_cell_angle_alpha	90.006640
_cell_angle_beta	89.996358
_cell_angle_gamma	80.378288
loop_
_atom_site_label
_atom_site_type_symbol
_atom_site_fract_x
_atom_site_fract_y
_atom_site_fract_z
O1	O	1.342828	-0.448553	-0.079140
O2	O	1.842828	0.051447	0.420860
O3	O	1.048230	-0.389678	-0.079147
O4	O	1.548230	0.110322	0.420853
O5	O	1.203425	-0.290867	-0.079137
O6	O	1.703425	0.209133	0.420863
O7	O	1.187633	-0.547363	-0.079151
O8	O	1.687633	-0.047363	0.420849
O9	O	1.203406	-0.290855	0.079185
O10	O	1.703406	0.209145	0.579185
O11	O	1.048211	-0.389665	0.079174
O12	O	1.548211	0.110335	0.579174
O13	O	1.342809	-0.448540	0.079181
O14	O	1.842809	0.051460	0.579181
Zn15	Zn	1.195507	-0.419100	0.104315
Zn16	Zn	1.695507	0.080900	0.604315
Zn17	Zn	1.195532	-0.419117	-0.104281
Zn18	Zn	1.695532	0.080883	0.395719
O19	O	1.187614	-0.547350	0.079171
O20	O	1.687614	-0.047350	0.579171
C21	C	1.010519	-0.379726	0.000013
C22	C	1.510519	0.120274	0.500013
C23	C	0.898181	-0.350082	0.000011
C24	C	1.398181	0.149918	0.500011
C25	C	1.202709	-0.257362	0.000024
C26	C	1.702709	0.242638	0.500024
C27	C	1.200593	-0.157541	0.000023
C28	C	1.700593	0.342459	0.500023
C29	C	1.380520	-0.458491	0.000019
C30	C	1.880520	0.041509	0.500019
C31	C	1.492857	-0.488136	0.000015
C32	C	1.992857	0.011864	0.500015
C33	C	1.857372	-0.257639	0.000014
C34	C	2.357372	0.242361	0.500014
C35	C	1.751825	-0.229784	0.000011
C36	C	2.251825	0.270216	0.500011
C37	C	1.687078	-0.294370	0.000013
C38	C	2.187078	0.205630	0.500013
C39	C	1.727888	-0.386815	0.000016
C40	C	2.227888	0.113185	0.500016
C41	C	1.833444	-0.414672	0.000011
C42	C	2.333444	0.085328	0.500011
C43	C	1.663151	-0.451403	0.000010
C44	C	2.163151	0.048597	0.500010
C45	C	1.703961	-0.543848	0.000013
C46	C	2.203961	-0.043848	0.500013
C47	C	1.809507	-0.571701	0.000009
C48	C	2.309507	-0.071701	0.500009
C49	C	1.874254	-0.507115	0.000008
C50	C	2.374254	-0.007115	0.500008
C51	C	1.557594	-0.423545	0.000014
C52	C	2.057594	0.076455	0.500014
C53	C	1.533667	-0.580579	0.000011
C54	C	2.033667	-0.080579	0.500011
C55	C	1.639214	-0.608433	0.000014
C56	C	2.139214	-0.108433	0.500014
C57	C	1.188330	-0.580856	0.000008
C58	C	1.688330	-0.080856	0.500008
C59	C	1.190446	-0.680676	0.000003
C60	C	1.690446	-0.180676	0.500003
N61	N	1.195498	-0.419090	0.246675
N62	N	1.695498	0.080910	0.746675
C63	C	1.291766	-0.122857	0.000025
C64	C	1.791766	0.377143	0.500025
C65	C	1.289771	-0.029064	0.000016
C66	C	1.789771	0.470936	0.500016
C67	C	1.196602	0.030042	0.000010
C68	C	1.696602	0.530042	0.500010
C69	C	1.105422	-0.004648	0.000005
C70	C	1.605422	0.495352	0.500005
C71	C	1.107418	-0.098439	0.000008
C72	C	1.607418	0.401561	0.500008
C73	C	1.101269	0.190841	0.000001
C74	C	1.601269	0.690841	0.500001
C75	C	1.099273	0.284639	0.000000
C76	C	1.599273	0.784639	0.500000
C77	C	1.283622	0.260216	0.000009
C78	C	1.783622	0.760216	0.500009
C79	C	1.285618	0.166425	0.000012
C80	C	1.785618	0.666425	0.500012
C81	C	1.194437	0.131741	0.000008
C82	C	1.694437	0.631741	0.500008
N83	N	1.195549	-0.419122	-0.246641
N84	N	1.695549	0.080878	0.253359
C85	C	1.264240	-0.375368	0.296498
C86	C	1.764240	0.124632	0.796498
C87	C	1.264247	-0.375369	0.396155
C88	C	1.764247	0.124631	0.896155
C89	C	1.195515	-0.419099	0.445989
C90	C	1.695515	0.080901	0.945989
C91	C	1.126766	-0.462823	0.396159
C92	C	1.626766	0.037177	0.896159
C93	C	1.126755	-0.462815	0.296503
C94	C	1.626755	0.037185	0.796503
C95	C	1.126795	-0.462836	0.603873
C96	C	1.626795	0.037164	1.103873
C97	C	1.126807	-0.462845	0.703536
C98	C	1.626807	0.037155	1.203536
C99	C	1.264287	-0.375390	0.703525
C100	C	1.764287	0.124610	1.203525
C101	C	1.264276	-0.375382	0.603870
C102	C	1.764276	0.124618	1.103870
C103	C	1.195527	-0.419108	0.554047
C104	C	1.695527	0.080892	1.054047
H105	H	1.524378	-0.348276	0.000011
H106	H	2.024378	0.151724	0.500011
O107	O	1.338443	-0.328224	0.757247
O108	O	1.838443	0.171776	1.257247
H109	H	1.295812	-0.274136	0.802658
H110	H	1.795812	0.225864	1.302658
O111	O	1.052642	-0.509997	0.449909
O112	O	1.552642	-0.009997	0.949909
H113	H	1.004836	-0.540395	0.398518
H114	H	1.504836	-0.040395	0.898518
O115	O	1.338400	-0.328211	0.550117
O116	O	1.838400	0.171789	1.050117
H117	H	1.417299	-0.359221	0.569226
H118	H	1.917299	0.140779	1.069226
O119	O	1.707807	-0.130084	0.000008
O120	O	2.207807	0.369916	0.500008
H121	H	1.660278	-0.113634	0.064534
H122	H	2.160278	0.386366	0.564534
O123	O	1.853531	-0.671407	0.000001
O124	O	2.353531	-0.171407	0.500001
H125	H	1.901053	-0.687842	0.064524
H126	H	2.401053	-0.187842	0.564524
O127	O	1.009083	-0.135856	0.000015
O128	O	1.509083	0.364144	0.500015
H129	H	0.943961	-0.079001	0.000022
H130	H	1.443961	0.420999	0.500022
H131	H	1.070777	-0.498418	0.255939
H132	H	1.570777	0.001582	0.755939
H133	H	1.029563	0.043484	-0.000006
H134	H	1.529563	0.543484	0.499994
O135	O	1.392261	-0.186598	0.000026
O136	O	1.892261	0.313402	0.500026
H137	H	1.397584	-0.229900	0.064559
H138	H	1.897584	0.270100	0.564559
O139	O	1.573237	-0.264333	0.000027
O140	O	2.073237	0.235667	0.500027
H141	H	1.555737	-0.189201	0.000037
H142	H	2.055737	0.310799	0.500037
O143	O	1.388106	0.008350	0.000017
O144	O	1.888106	0.508350	0.500017
H145	H	1.391589	0.050517	0.064539
H146	H	1.891589	0.550517	0.564539
O147	O	1.988097	-0.537164	0.000032
O148	O	2.488097	-0.037164	0.500032
H149	H	2.026258	-0.476721	0.000038
H150	H	2.526258	0.023279	0.500038
O151	O	1.683232	-0.708141	0.000010
O152	O	2.183232	-0.208141	0.500010
H153	H	1.767504	-0.716655	-0.000000
H154	H	2.267504	-0.216655	0.500000
H155	H	1.480950	-0.633170	0.000012
H156	H	1.980950	-0.133170	0.500012
O157	O	1.386103	0.102669	0.000007
O158	O	1.886103	0.602669	0.500007
H159	H	1.449172	0.142542	-0.000005
H160	H	1.949172	0.642542	0.499995
H161	H	1.910097	-0.205064	0.000006
H162	H	2.410097	0.294936	0.500006
H163	H	1.357865	0.288460	0.000009
H164	H	1.857865	0.788460	0.500009
O165	O	0.998780	0.348383	-0.000011
O166	O	1.498780	0.848383	0.499989
H167	H	0.993444	0.391700	0.064524
H168	H	1.493444	0.891700	0.564524
H169	H	1.027020	0.162606	-0.000004
H170	H	1.527020	0.662606	0.499996
O171	O	1.338368	-0.328197	0.242750
O172	O	1.838368	0.171803	0.742750
H173	H	1.386161	-0.297785	0.294141
H174	H	1.886161	0.202215	0.794141
H175	H	1.320221	-0.339766	0.436721
H176	H	1.820221	0.160234	0.936721
O177	O	1.052658	-0.509986	0.757291
O178	O	1.552658	-0.009986	1.257291
H179	H	1.004835	-0.540372	0.705906
H180	H	1.504835	-0.040372	1.205906
H181	H	1.070810	-0.498439	0.563311
H182	H	1.570810	0.001561	1.063311
