data_functionalizedCrystal
_audit_creation_method	'MofGen! by Chris Wilmer'
_symmetry_space_group_name_H-M	'P1'
_symmetry_Int_Tables_number	1
_symmetry_cell_setting	triclinic
loop_
_symmetry_equiv_pos_as_xyz
  x,y,z
_cell_length_a	16.109301
_cell_length_b	16.776229
_cell_length_c	16.109301
_cell_angle_alpha	89.991926
_cell_angle_beta	96.538468
_cell_angle_gamma	90.004778
loop_
_atom_site_label
_atom_site_type_symbol
_atom_site_fract_x
_atom_site_fract_y
_atom_site_fract_z
O1	O	1.103135	0.066247	-0.106870
O2	O	1.603135	0.566247	0.393130
O3	O	0.861073	0.066258	-0.120169
O4	O	1.361073	0.566258	0.379831
O5	O	0.988753	0.066244	0.007511
O6	O	1.488753	0.566244	0.507511
O7	O	0.975454	0.066261	-0.234551
O8	O	1.475454	0.566261	0.265449
O9	O	0.988736	-0.066332	0.007519
O10	O	1.488736	0.433668	0.507519
O11	O	0.861056	-0.066318	-0.120161
O12	O	1.361056	0.433682	0.379839
O13	O	1.103118	-0.066330	-0.106862
O14	O	1.603118	0.433670	0.393138
Zn15	Zn	0.982084	-0.087373	-0.113511
Zn16	Zn	1.482084	0.412627	0.386489
Zn17	Zn	0.982106	0.087302	-0.113521
Zn18	Zn	1.482106	0.587302	0.386479
O19	O	0.975437	-0.066315	-0.234543
O20	O	1.475437	0.433685	0.265457
C21	C	0.830089	-0.000028	-0.119627
C22	C	1.330089	0.499972	0.380373
C23	C	0.737794	-0.000024	-0.118011
C24	C	1.237794	0.499976	0.381989
C25	C	0.428796	-0.000033	-0.188494
C26	C	0.928796	0.499967	0.311506
C27	C	0.515516	-0.000029	-0.190020
C28	C	1.015516	0.499971	0.309980
C29	C	0.535389	-0.000028	-0.038531
C30	C	1.035389	0.499972	0.461469
C31	C	0.448671	-0.000027	-0.037007
C32	C	0.948671	0.499973	0.462993
C33	C	0.395376	-0.000034	-0.111991
C34	C	0.895376	0.499966	0.388009
C35	C	0.568815	-0.000030	-0.115041
C36	C	1.068815	0.499970	0.384959
C37	C	0.662841	-0.000025	-0.116694
C38	C	1.162841	0.499975	0.383306
C39	C	0.301344	-0.000038	-0.110338
C40	C	0.801344	0.499962	0.389662
N41	N	0.982075	-0.206584	-0.113503
N42	N	1.482075	0.293416	0.386497
C43	C	1.038629	-0.248308	-0.056989
C44	C	1.538629	0.251692	0.443011
C45	C	1.038634	-0.331760	-0.056989
C46	C	1.538634	0.168240	0.443011
C47	C	0.982087	-0.373487	-0.113506
C48	C	1.482087	0.126513	0.386494
C49	C	0.925527	-0.331758	-0.170023
C50	C	1.425527	0.168242	0.329977
C51	C	0.925519	-0.248307	-0.170019
C52	C	1.425519	0.251693	0.329981
C53	C	0.925557	-0.668305	-0.170039
C54	C	1.425557	-0.168305	0.329961
C55	C	0.925571	-0.751762	-0.170040
C56	C	1.425571	-0.251762	0.329960
C57	C	1.038672	-0.751758	-0.057009
C58	C	1.538672	-0.251758	0.442991
C59	C	1.038664	-0.668307	-0.057005
C60	C	1.538664	-0.168307	0.442995
C61	C	0.982101	-0.626585	-0.113518
C62	C	1.482101	-0.126585	0.386482
C63	C	0.982096	-0.536097	-0.113517
C64	C	1.482096	-0.036097	0.386483
C65	C	0.982096	-0.463974	-0.113512
C66	C	1.482096	0.036026	0.386488
C67	C	1.134101	-0.000041	-0.107405
C68	C	1.634101	0.499959	0.392595
C69	C	1.226396	-0.000040	-0.109020
C70	C	1.726396	0.499960	0.390980
C71	C	0.988206	-0.000044	0.038490
C72	C	1.488206	0.499956	0.538490
C73	C	0.986591	-0.000045	0.130785
C74	C	1.486591	0.499955	0.630785
N75	N	0.982122	0.206513	-0.113522
N76	N	1.482122	0.706513	0.386478
C77	C	0.975984	-0.000025	-0.265522
C78	C	1.475984	0.499975	0.234478
C79	C	0.977599	-0.000019	-0.357817
C80	C	1.477599	0.499981	0.142183
C81	C	1.058599	-0.000036	0.353058
C82	C	1.558599	0.499964	0.853058
C83	C	1.057075	-0.000030	0.439778
C84	C	1.557075	0.499970	0.939778
C85	C	0.905586	-0.000025	0.419904
C86	C	1.405586	0.499975	0.919904
C87	C	0.907111	-0.000026	0.333185
C88	C	1.407111	0.499974	0.833185
C89	C	0.983620	-0.000036	0.299765
C90	C	1.483620	0.499964	0.799765
C91	C	0.980571	-0.000028	0.473204
C92	C	1.480571	0.499972	0.973204
C93	C	0.978918	-0.000021	0.567230
C94	C	1.478918	0.499979	1.067230
C95	C	0.985273	-0.000042	0.205733
C96	C	1.485273	0.499958	0.705733
H97	H	0.578792	-0.000025	0.022518
H98	H	1.078792	0.499975	0.522518
C99	C	1.142760	-0.000038	0.316299
C100	C	1.642760	0.499962	0.816299
N101	N	1.206154	-0.000035	0.288614
N102	N	1.706154	0.499965	0.788614
C103	C	0.370174	-0.000033	-0.270979
C104	C	0.870174	0.499967	0.229021
N105	N	0.326023	-0.000030	-0.333109
N106	N	0.826023	0.499970	0.166891
H107	H	0.542722	-0.000027	-0.252317
H108	H	1.042722	0.499973	0.247683
H109	H	1.118130	-0.000028	0.483167
H110	H	1.618130	0.499972	0.983167
H111	H	0.879466	-0.214337	-0.216037
H112	H	1.379466	0.285663	0.283963
H113	H	0.843295	-0.000019	0.447126
H114	H	1.343295	0.499981	0.947126
C115	C	0.411907	-0.000033	0.047158
C116	C	0.911907	0.499967	0.547158
N117	N	0.384216	-0.000038	0.110548
N118	N	0.884216	0.499962	0.610548
C119	C	1.100835	-0.202415	0.005186
C120	C	1.600835	0.297585	0.505186
N121	N	1.147688	-0.167852	0.052021
N122	N	1.647688	0.332148	0.552021
H123	H	1.084684	-0.365731	-0.010970
H124	H	1.584684	0.134269	0.489030
C125	C	1.100867	-0.622412	0.005171
C126	C	1.600867	-0.122412	0.505171
N127	N	1.147717	-0.587845	0.052006
N128	N	1.647717	-0.087845	0.552006
C129	C	0.824624	-0.000022	0.274559
C130	C	1.324624	0.499978	0.774559
N131	N	0.762497	-0.000016	0.230402
N132	N	1.262497	0.499984	0.730402
C133	C	0.863358	-0.797660	-0.232212
C134	C	1.363358	-0.297660	0.267788
N135	N	0.816500	-0.832231	-0.279036
N136	N	1.316500	-0.332231	0.220964
C137	C	1.100886	-0.797659	0.005165
C138	C	1.600886	-0.297659	0.505165
N139	N	1.147744	-0.832231	0.051992
N140	N	1.647744	-0.332231	0.551992
C141	C	0.863444	-0.622422	-0.232313
C142	C	1.363444	-0.122422	0.267687
N143	N	0.816697	-0.587860	-0.279259
N144	N	1.316697	-0.087860	0.220741
H145	H	0.879482	-0.365737	-0.216038
H146	H	1.379482	0.134263	0.283962
