data_functionalizedCrystal
_audit_creation_method	'MofGen! by Chris Wilmer'
_symmetry_space_group_name_H-M	'P1'
_symmetry_Int_Tables_number	1
_symmetry_cell_setting	triclinic
loop_
_symmetry_equiv_pos_as_xyz
  x,y,z
_cell_length_a	19.188925
_cell_length_b	19.188930
_cell_length_c	7.088668
_cell_angle_alpha	96.991245
_cell_angle_beta	96.989027
_cell_angle_gamma	83.143665
loop_
_atom_site_label
_atom_site_type_symbol
_atom_site_fract_x
_atom_site_fract_y
_atom_site_fract_z
O1	O	0.932530	0.093530	0.159060
O2	O	1.432530	0.593530	0.659060
O3	O	0.729218	0.105268	0.159057
O4	O	1.229218	0.605268	0.659057
O5	O	0.836739	-0.002259	0.159021
O6	O	1.336739	0.497741	0.659021
O7	O	0.825008	0.201056	0.159096
O8	O	1.325008	0.701056	0.659096
O9	O	0.823970	-0.015017	-0.158973
O10	O	1.323970	0.484983	0.341027
O11	O	0.716448	0.092509	-0.158937
O12	O	1.216448	0.592509	0.341063
O13	O	0.919760	0.080771	-0.158935
O14	O	1.419760	0.580771	0.341065
Cu15	Cu	0.816938	0.085475	-0.187972
Cu16	Cu	1.316938	0.585475	0.312028
Cu17	Cu	0.832040	0.100564	0.188094
Cu18	Cu	1.332040	0.600564	0.688094
O19	O	0.812239	0.188297	-0.158899
O20	O	1.312239	0.688297	0.341101
C21	C	0.696822	0.098509	0.000059
C22	C	1.196822	0.598509	0.500059
C23	C	0.619317	0.097370	0.000057
C24	C	1.119317	0.597370	0.500057
C25	C	0.057548	0.152835	0.000082
C26	C	0.557548	0.652835	0.500082
C27	C	0.130372	0.153912	0.000092
C28	C	0.630372	0.653912	0.500092
C29	C	0.175305	0.090818	0.000066
C30	C	0.675305	0.590818	0.500066
C31	C	0.147411	0.026645	0.000077
C32	C	0.647411	0.526645	0.500077
C33	C	0.074590	0.025571	0.000086
C34	C	0.574590	0.525571	0.500086
N35	N	0.291635	0.040798	-0.108199
N36	N	0.791635	0.540798	0.391801
N37	N	0.360812	0.041823	-0.108211
N38	N	0.860812	0.541823	0.391789
C39	C	0.394713	0.094052	0.000044
C40	C	0.894713	0.594052	0.500044
N41	N	0.356823	0.145226	0.108288
N42	N	0.856823	0.645226	0.608288
N43	N	0.287639	0.144203	0.108292
N44	N	0.787639	0.644203	0.608292
C45	C	0.254269	0.091976	0.000058
C46	C	0.754269	0.591976	0.500058
C47	C	0.501563	0.159389	0.000058
C48	C	1.001563	0.659389	0.500058
C49	C	0.574389	0.160463	0.000080
C50	C	1.074389	0.660463	0.500080
C51	C	0.591427	0.033195	0.000046
C52	C	1.091427	0.533195	0.500046
C53	C	0.518603	0.032123	0.000043
C54	C	1.018603	0.532123	0.500043
C55	C	0.473675	0.095221	0.000039
C56	C	0.973675	0.595221	0.500039
C57	C	0.829975	-0.034649	0.000018
C58	C	1.329975	0.465351	0.500018
C59	C	0.828833	-0.112154	0.000002
C60	C	1.328833	0.387846	0.500002
C61	C	0.891924	-0.157080	-0.000006
C62	C	1.391924	0.342920	0.499994
C63	C	0.890853	-0.229902	0.000024
C64	C	1.390853	0.270098	0.500024
C65	C	0.826687	-0.257798	0.000025
C66	C	1.326687	0.242202	0.500025
C67	C	0.763589	-0.212862	0.000044
C68	C	1.263589	0.287138	0.500044
C69	C	0.764662	-0.140040	0.000033
C70	C	1.264662	0.359960	0.500033
N71	N	0.773294	-0.370144	-0.108195
N72	N	1.273294	0.129856	0.391805
N73	N	0.772279	-0.439322	-0.108189
N74	N	1.272279	0.060678	0.391811
C75	C	0.823451	-0.477205	0.000063
C76	C	1.323451	0.022795	0.500063
N77	N	0.875686	-0.443298	0.108285
N78	N	1.375686	0.056702	0.608285
N79	N	0.876702	-0.374114	0.108269
N80	N	1.376702	0.125886	0.608269
C81	C	0.825517	-0.336760	0.000038
C82	C	1.325517	0.163240	0.500038
C83	C	0.885385	-0.601093	0.000091
C84	C	1.385385	-0.101093	0.500091
C85	C	0.884312	-0.673916	0.000133
C86	C	1.384312	-0.173916	0.500133
C87	C	0.757045	-0.656875	0.000134
C88	C	1.257045	-0.156875	0.500134
C89	C	0.758120	-0.584053	0.000111
C90	C	1.258120	-0.084053	0.500111
C91	C	0.822292	-0.556167	0.000080
C92	C	1.322292	-0.056167	0.500080
C93	C	0.952156	0.087530	0.000067
C94	C	1.452156	0.587530	0.500067
C95	C	1.029662	0.088670	0.000083
C96	C	1.529662	0.588670	0.500083
C97	C	0.819004	0.220688	0.000108
C98	C	1.319004	0.720688	0.500108
C99	C	0.820146	0.298194	0.000137
C100	C	1.320146	0.798194	0.500137
N101	N	0.806322	0.074862	-0.452476
N102	N	1.306322	0.574862	0.047524
N103	N	0.842662	0.111171	0.452598
N104	N	1.342662	0.611171	0.952598
H105	H	0.020972	0.204215	0.000088
H106	H	0.520972	0.704215	0.500088
H107	H	0.935691	-0.710494	0.000137
H108	H	1.435691	-0.210494	0.500137
H109	H	0.184001	-0.024725	0.000061
H110	H	0.684001	0.475275	0.500061
C111	C	0.755466	0.024034	-0.562854
C112	C	1.255466	0.524034	-0.062854
N113	N	0.717158	-0.014250	-0.646003
N114	N	1.217158	0.485750	-0.146003
C115	C	0.693005	-0.243549	0.000031
C116	C	1.193005	0.256451	0.500031
N117	N	0.639839	-0.266662	0.000022
N118	N	1.139839	0.233338	0.500022
C119	C	0.893522	0.162000	-0.437015
C120	C	1.393522	0.662000	0.062985
N121	N	0.931830	0.200285	-0.353871
N122	N	1.431830	0.700285	0.146129
C123	C	0.686461	-0.687555	0.000141
C124	C	1.186461	-0.187555	0.500141
N125	N	0.633296	-0.710667	0.000152
N126	N	1.133296	-0.210667	0.500152
H127	H	0.713284	-0.103461	0.000039
H128	H	1.213284	0.396539	0.500039
C129	C	0.043914	-0.045019	0.000063
C130	C	0.543914	0.454981	0.500063
N131	N	0.020807	-0.098190	0.000036
N132	N	0.520807	0.401810	0.500036
C133	C	0.452141	0.228799	0.000090
C134	C	0.952141	0.728799	0.500090
N135	N	0.414918	0.281080	0.000122
N136	N	0.914918	0.781080	0.500122
C137	C	0.161053	0.224500	0.000078
C138	C	0.661053	0.724500	0.500078
N139	N	0.184160	0.277668	0.000062
N140	N	0.684160	0.777668	0.500062
H141	H	0.628011	-0.018176	0.000039
H142	H	1.128011	0.481824	0.500039
C143	C	0.487925	-0.038467	0.000003
C144	C	0.987925	0.461533	0.500003
N145	N	0.464820	-0.091638	-0.000030
N146	N	0.964820	0.408362	0.499970
H147	H	0.944178	-0.134380	-0.000025
H148	H	1.444178	0.365620	0.499975
H149	H	0.942231	-0.266487	0.000025
H150	H	1.442231	0.233513	0.500025
H151	H	0.597092	0.212717	0.000095
H152	H	1.097092	0.712717	0.500095
H153	H	0.937638	-0.578387	0.000075
H154	H	1.437638	-0.078387	0.500075
H155	H	0.706744	-0.547473	0.000107
H156	H	1.206744	-0.047473	0.500107
