data_functionalizedCrystal
_audit_creation_method	'MofGen! by Chris Wilmer'
_symmetry_space_group_name_H-M	'P1'
_symmetry_Int_Tables_number	1
_symmetry_cell_setting	triclinic
loop_
_symmetry_equiv_pos_as_xyz
  x,y,z
_cell_length_a	12.759395
_cell_length_b	12.759394
_cell_length_c	12.759387
_cell_angle_alpha	90.029786
_cell_angle_beta	89.982711
_cell_angle_gamma	89.980096
loop_
_atom_site_label
_atom_site_type_symbol
_atom_site_fract_x
_atom_site_fract_y
_atom_site_fract_z
Zn1	Zn	1.606270	0.418062	-0.593922
Zn2	Zn	1.606161	0.593779	-0.418246
Zn3	Zn	1.430568	0.418130	-0.418269
Zn4	Zn	1.430561	0.593715	-0.593895
O5	O	1.518390	0.505922	-0.506083
O6	O	1.753276	0.441368	-0.570620
O7	O	1.582825	0.570534	-0.271228
O8	O	1.453924	0.271100	-0.441591
O9	O	1.753196	0.570467	-0.441552
O10	O	1.583011	0.271050	-0.570643
O11	O	1.453818	0.441486	-0.271245
O12	O	1.283546	0.441425	-0.441564
O13	O	1.453911	0.570359	-0.740920
O14	O	1.283540	0.570426	-0.570596
O15	O	1.583004	0.441307	-0.740940
O16	O	1.582818	0.740791	-0.441525
O17	O	1.453806	0.740745	-0.570573
C18	C	1.245422	0.505927	-0.506080
C19	C	1.128646	0.505954	-0.506104
C20	C	1.518328	0.778889	-0.506067
C21	C	1.518398	0.895666	-0.506095
C22	C	1.518469	0.505819	-0.780117
C23	C	1.518503	0.505775	-0.896893
C24	C	1.792423	0.505917	-0.506086
C25	C	1.909200	0.505915	-0.506088
C26	C	1.909303	0.371476	-0.640478
C27	C	1.964215	0.304261	-0.707674
C28	C	2.073937	0.304274	-0.707681
C29	C	2.128749	0.371511	-0.640487
C30	C	2.073836	0.438726	-0.573292
C31	C	1.964112	0.438704	-0.573290
C32	C	2.073733	0.573169	-0.438909
C33	C	1.964012	0.573153	-0.438895
C34	C	2.128545	0.640407	-0.371715
C35	C	2.073633	0.707618	-0.304513
C36	C	1.963904	0.707602	-0.304508
C37	C	1.909099	0.640368	-0.371699
C38	C	1.518480	0.231888	-0.506123
C39	C	1.518519	0.115111	-0.506139
C40	C	1.384201	1.115328	-0.371657
C41	C	1.317015	1.060575	-0.304400
C42	C	1.316955	0.950854	-0.304371
C43	C	1.384086	0.895882	-0.371609
C44	C	1.451272	0.950635	-0.438866
C45	C	1.451327	1.060359	-0.438886
C46	C	1.585583	0.950418	-0.573352
C47	C	1.585650	1.060140	-0.573377
C48	C	1.652714	0.895447	-0.640590
C49	C	1.719906	0.950199	-0.707844
C50	C	1.719964	1.059927	-0.707869
C51	C	1.652835	1.114892	-0.640635
C52	C	1.652936	0.371401	-0.896934
C53	C	1.720167	0.304199	-0.951815
C54	C	1.720193	0.304161	-1.061537
C55	C	1.652978	0.371330	-1.116380
C56	C	1.585747	0.438532	-1.061499
C57	C	1.585730	0.438565	-0.951775
C58	C	1.451310	0.572898	-1.061458
C59	C	1.451288	0.572944	-0.951736
C60	C	1.384094	0.640068	-1.116301
C61	C	1.316867	0.707277	-1.061420
C62	C	1.316845	0.707313	-0.951691
C63	C	1.384056	0.640146	-0.896855
C64	C	1.518371	0.505948	-0.233115
C65	C	1.518541	0.505696	-0.116339
H66	H	1.919575	0.249519	-0.762383
H67	H	2.218090	0.371526	-0.640509
H68	H	2.217886	0.640419	-0.371732
H69	H	1.384116	0.640028	-1.205642
O70	O	2.127170	0.239037	-0.773100
C71	C	2.100401	0.261964	-0.877812
H72	H	2.020713	0.302332	-0.879990
H73	H	2.096707	0.186118	-0.924929
H74	H	2.162135	0.315978	-0.913192
H75	H	1.652996	0.371284	-1.205721
H76	H	1.262085	0.762026	-0.907014
H77	H	2.118269	0.762363	-0.249815
O78	O	1.251482	0.772551	-1.114530
C79	C	1.192161	0.831902	-1.042567
H80	H	1.188526	0.788903	-0.964356
H81	H	1.109385	0.843092	-1.074258
H82	H	1.230602	0.911701	-1.030896
O83	O	1.384142	0.640353	-0.790272
C84	C	1.411049	0.741067	-0.753603
H85	H	1.456831	0.784487	-0.816839
H86	H	1.461431	0.733575	-0.680215
H87	H	1.336647	0.786580	-0.734102
O88	O	1.802720	0.371358	-0.640633
C89	C	1.766117	0.297582	-0.714323
H90	H	1.829369	0.282848	-0.775711
H91	H	1.692705	0.329252	-0.754185
H92	H	1.746679	0.220993	-0.672663
O93	O	1.785321	1.112948	-0.773246
C94	C	1.844528	1.040896	-0.832603
H95	H	1.848152	0.962714	-0.789551
H96	H	1.927315	1.072516	-0.843901
H97	H	1.805994	1.029196	-0.912355
O98	O	1.910681	0.773043	-0.239285
C99	C	1.937427	0.877748	-0.262267
H100	H	2.017099	0.879915	-0.302663
H101	H	1.941143	0.924898	-0.186444
H102	H	1.875667	0.913097	-0.316276
O103	O	1.802516	0.640546	-0.371700
C104	C	1.765818	0.741212	-0.398707
H105	H	1.829013	0.801746	-0.380755
H106	H	1.692388	0.759900	-0.351321
H107	H	1.746378	0.743391	-0.485882
O108	O	1.384099	1.221911	-0.371579
C109	C	1.310467	1.258689	-0.297792
H110	H	1.249055	1.195526	-0.283016
H111	H	1.270626	1.332109	-0.329475
H112	H	1.352179	1.278173	-0.221223
H113	H	1.262357	1.105345	-0.249658
H114	H	1.384022	0.806541	-0.371588
O115	O	1.251656	0.897825	-0.238944
C116	C	1.192393	0.969864	-0.179628
H117	H	1.235464	1.048045	-0.176033
H118	H	1.181204	0.938227	-0.096837
H119	H	1.112590	0.981573	-0.218047
O120	O	1.652464	0.788864	-0.640568
C121	C	1.551747	0.752269	-0.667481
H122	H	1.491271	0.815563	-0.649497
H123	H	1.533063	0.678915	-0.620058
H124	H	1.549465	0.732735	-0.754648
H125	H	1.774555	0.905434	-0.762589
O126	O	1.652720	1.221475	-0.640752
C127	C	1.552022	1.258192	-0.667631
H128	H	1.508536	1.194962	-0.713383
H129	H	1.559549	1.331554	-0.718031
H130	H	1.506555	1.277752	-0.593215
H131	H	1.652932	0.371436	-0.807593
H132	H	1.774891	0.249510	-0.907150
O133	O	1.785598	0.238848	-1.114692
C134	C	1.844896	0.179548	-1.042765
H135	H	1.848504	0.222601	-0.964541
H136	H	1.927683	0.168338	-1.074483
H137	H	1.806453	0.099756	-1.031112
