data_functionalizedCrystal
_audit_creation_method	'MofGen! by Chris Wilmer'
_symmetry_space_group_name_H-M	'P1'
_symmetry_Int_Tables_number	1
_symmetry_cell_setting	triclinic
loop_
_symmetry_equiv_pos_as_xyz
  x,y,z
_cell_length_a	27.731993
_cell_length_b	18.366186
_cell_length_c	19.288865
_cell_angle_alpha	89.988521
_cell_angle_beta	97.121679
_cell_angle_gamma	89.997513
loop_
_atom_site_label
_atom_site_type_symbol
_atom_site_fract_x
_atom_site_fract_y
_atom_site_fract_z
O1	O	-0.641197	-0.060362	0.082469
O2	O	-0.141197	0.439638	0.582469
O3	O	-0.500438	-0.060408	0.095075
O4	O	-0.000438	0.439592	0.595075
O5	O	-0.574884	-0.060369	-0.012385
O6	O	-0.074884	0.439631	0.487615
O7	O	-0.566750	-0.060400	0.189929
O8	O	-0.066750	0.439600	0.689929
O9	O	-0.574872	0.060730	-0.012390
O10	O	-0.074872	0.560730	0.487610
O11	O	-0.500425	0.060692	0.095070
O12	O	-0.000425	0.560692	0.595070
O13	O	-0.641184	0.060737	0.082464
O14	O	-0.141184	0.560737	0.582464
Zn15	Zn	-0.570803	0.079942	0.088766
Zn16	Zn	-0.070803	0.579942	0.588766
Zn17	Zn	-0.570819	-0.079612	0.088773
Zn18	Zn	-0.070819	0.420388	0.588773
O19	O	-0.566737	0.060699	0.189924
O20	O	-0.066737	0.560699	0.689924
C21	C	-0.482423	0.000137	0.094814
C22	C	0.017577	0.500137	0.594814
C23	C	-0.428764	0.000120	0.094035
C24	C	0.071236	0.500120	0.594035
C25	C	-0.574616	0.000183	-0.038262
C26	C	-0.074616	0.500183	0.461738
C27	C	-0.573831	0.000189	-0.115361
C28	C	-0.073831	0.500189	0.384639
C29	C	-0.659199	0.000192	0.082725
C30	C	-0.159199	0.500192	0.582725
C31	C	-0.712857	0.000204	0.083504
C32	C	-0.212857	0.500204	0.583504
C33	C	-0.045594	-0.065855	0.088389
C34	C	0.454406	0.434145	0.588389
C35	C	-0.247260	-0.065875	0.091359
C36	C	0.252740	0.434125	0.591359
O37	O	-0.273340	-0.122017	0.091718
O38	O	0.226660	0.377983	0.591718
N39	N	-0.272475	0.000134	0.091728
N40	N	0.227525	0.500134	0.591728
C41	C	-0.247270	0.066154	0.091350
C42	C	0.252730	0.566154	0.591350
O43	O	-0.273345	0.122299	0.091725
O44	O	0.226655	0.622299	0.591725
C45	C	-0.045605	0.066173	0.088375
C46	C	0.454395	0.566173	0.588375
C47	C	-0.020393	0.000159	0.088013
C48	C	0.479607	0.500159	0.588013
C49	C	-0.020381	-0.131864	0.088027
C50	C	0.479619	0.368136	0.588027
C51	C	0.030032	-0.131858	0.087288
C52	C	0.530032	0.368142	0.587288
C53	C	0.055234	-0.065844	0.086912
C54	C	0.555234	0.434156	0.586912
C55	C	0.030021	0.000165	0.087274
C56	C	0.530021	0.500165	0.587274
C57	C	-0.020402	0.132192	0.087991
C58	C	0.479598	0.632192	0.587991
C59	C	0.030017	0.132191	0.087246
C60	C	0.530017	0.632191	0.587246
C61	C	0.055230	0.066177	0.086884
C62	C	0.555230	0.566177	0.586884
C63	C	0.105637	0.066185	0.086160
C64	C	0.605637	0.566185	0.586160
N65	N	0.130851	0.000175	0.085791
N66	N	0.630851	0.500175	0.585791
C67	C	0.105650	-0.065839	0.086167
C68	C	0.605650	0.434161	0.586167
C69	C	-0.353147	0.066139	0.092913
C70	C	0.146853	0.566139	0.592913
C71	C	-0.403563	0.066134	0.093658
C72	C	0.096437	0.566134	0.593658
C73	C	-0.403550	-0.065895	0.093667
C74	C	0.096450	0.434105	0.593667
C75	C	-0.353133	-0.065890	0.092926
C76	C	0.146867	0.434110	0.592926
C77	C	-0.327933	0.000129	0.092545
C78	C	0.172067	0.500129	0.592545
C79	C	0.211523	-0.065822	0.084616
C80	C	0.711523	0.434178	0.584616
C81	C	0.261941	-0.065811	0.083880
C82	C	0.761941	0.434189	0.583880
C83	C	0.261923	0.066218	0.083869
C84	C	0.761923	0.566218	0.583869
C85	C	0.211510	0.066207	0.084608
C86	C	0.711510	0.566207	0.584608
C87	C	0.186310	0.000181	0.084979
C88	C	0.686310	0.500181	0.584979
O89	O	0.131747	0.122297	0.085793
O90	O	0.631747	0.622297	0.585793
O91	O	0.131732	-0.121976	0.085777
O92	O	0.631732	0.378024	0.585777
C93	C	-0.096008	-0.065861	0.089128
C94	C	0.403992	0.434139	0.589128
C95	C	-0.121220	0.000148	0.089490
C96	C	0.378780	0.500148	0.589490
C97	C	-0.096019	0.066162	0.089114
C98	C	0.403981	0.566162	0.589114
C99	C	-0.171636	0.000143	0.090236
C100	C	0.328364	0.500143	0.590236
C101	C	-0.196838	-0.065871	0.090612
C102	C	0.303162	0.434129	0.590612
C103	C	-0.171623	-0.131881	0.090243
C104	C	0.328377	0.368119	0.590243
C105	C	-0.121209	-0.131875	0.089504
C106	C	0.378791	0.368125	0.589504
C107	C	-0.121234	0.132172	0.089483
C108	C	0.378766	0.632172	0.589483
C109	C	-0.171648	0.132161	0.090223
C110	C	0.328352	0.632161	0.590223
C111	C	-0.196849	0.066146	0.090599
C112	C	0.303151	0.566146	0.590599
N113	N	-0.570795	0.188833	0.088761
N114	N	-0.070795	0.688833	0.588761
N115	N	-0.570831	-0.188503	0.088772
N116	N	-0.070831	0.311497	0.588772
C117	C	-0.603771	0.226950	0.041201
C118	C	-0.103771	0.726950	0.541201
C119	C	-0.603774	0.303178	0.041198
C120	C	-0.103774	0.803178	0.541198
C121	C	-0.570805	0.341286	0.088767
C122	C	-0.070805	0.841286	0.588767
C123	C	-0.537823	0.303159	0.136330
C124	C	-0.037823	0.803159	0.636330
C125	C	-0.537818	0.226933	0.136328
C126	C	-0.037818	0.726933	0.636328
C127	C	-0.564335	0.462035	0.152097
C128	C	-0.064335	0.962035	0.652097
C129	C	-0.564343	0.538260	0.152100
C130	C	-0.064343	1.038260	0.652100
C131	C	-0.570819	0.576393	0.088775
C132	C	-0.070819	1.076393	0.588775
C133	C	-0.577297	0.538292	0.025443
C134	C	-0.077297	1.038292	0.525443
C135	C	-0.577291	0.462066	0.025441
C136	C	-0.077291	0.962066	0.525441
C137	C	-0.570807	0.423940	0.088775
C138	C	-0.070807	0.923940	0.588775
C139	C	-0.603800	0.697166	0.041208
C140	C	-0.103800	1.197166	0.541208
C141	C	-0.603800	0.773395	0.041204
C142	C	-0.103800	1.273395	0.541204
C143	C	-0.537852	0.773374	0.136342
C144	C	-0.037852	1.273374	0.636342
C145	C	-0.537850	0.697146	0.136340
C146	C	-0.037850	1.197146	0.636340
C147	C	-0.570827	0.659047	0.088774
C148	C	-0.070827	1.159047	0.588774
C149	C	-0.617513	0.000207	-0.160342
C150	C	-0.117513	0.500207	0.339658
C151	C	-0.616775	0.000195	-0.232784
C152	C	-0.116775	0.500195	0.267216
C153	C	-0.572352	0.000180	-0.260242
C154	C	-0.072352	0.500180	0.239758
C155	C	-0.528664	0.000158	-0.215251
C156	C	-0.028664	0.500158	0.284749
C157	C	-0.529403	0.000163	-0.142810
C158	C	-0.029403	0.500163	0.357190
C159	C	-0.537426	0.042587	-0.368304
C160	C	-0.037426	0.542587	0.131696
C161	C	-0.536688	0.042587	-0.440743
C162	C	-0.036688	0.542587	0.059257
C163	C	-0.570069	0.000163	-0.483673
C164	C	-0.070069	0.500163	0.016327
C165	C	-0.604196	-0.042252	-0.454155
C166	C	-0.104196	0.457748	0.045845
C167	C	-0.604936	-0.042247	-0.381715
C168	C	-0.104936	0.457753	0.118285
C169	C	-0.571545	0.000175	-0.338791
C170	C	-0.071545	0.500175	0.161209
C171	C	-0.612954	0.000167	-0.607204
C172	C	-0.112954	0.500167	-0.107204
C173	C	-0.612214	0.000151	-0.679648
C174	C	-0.112214	0.500151	-0.179648
C175	C	-0.524102	0.000121	-0.662113
C176	C	-0.024102	0.500121	-0.162113
C177	C	-0.524844	0.000130	-0.589672
C178	C	-0.024844	0.500130	-0.089672
C179	C	-0.569271	0.000157	-0.562222
C180	C	-0.069271	0.500157	-0.062222
C181	C	-0.567005	0.000146	0.215801
C182	C	-0.067005	0.500146	0.715801
C183	C	-0.567791	0.000135	0.292899
C184	C	-0.067791	0.500135	0.792899
H185	H	0.191011	-0.119587	0.084920
H186	H	0.691011	0.380413	0.584920
N187	N	0.055759	0.199630	0.086874
N188	N	0.555759	0.699630	0.586874
N189	N	0.088453	0.214361	0.135442
N190	N	0.588453	0.714361	0.635442
H191	H	0.106633	0.261990	0.135183
H192	H	0.606633	0.761990	0.635183
H193	H	-0.647787	0.000161	-0.716271
H194	H	-0.147787	0.500161	-0.216271
N195	N	-0.658332	0.000202	-0.579158
N196	N	-0.158332	0.500202	-0.079158
N197	N	-0.687740	0.051259	-0.593130
N198	N	-0.187740	0.551259	-0.093130
H199	H	-0.719789	0.051286	-0.573323
H200	H	-0.219789	0.551286	-0.073323
N201	N	-0.504162	0.658217	0.184928
N202	N	-0.004162	1.158217	0.684928
N203	N	-0.474726	0.692247	0.227395
N204	N	0.025274	1.192247	0.727395
H205	H	-0.450931	0.664754	0.261711
H206	H	0.049069	1.164754	0.761711
H207	H	-0.332634	0.119903	0.092600
H208	H	0.167366	0.619903	0.592600
N209	N	0.287688	-0.133252	0.083516
N210	N	0.787688	0.366748	0.583516
N211	N	0.265176	-0.192187	0.083851
N212	N	0.765176	0.307813	0.583851
H213	H	0.283358	-0.239817	0.083593
H214	H	0.783358	0.260183	0.583593
N215	N	-0.480223	0.000107	-0.543720
N216	N	0.019777	0.500107	-0.043720
N217	N	-0.450649	-0.050951	-0.545929
N218	N	0.049351	0.449049	-0.045929
H219	H	-0.419133	-0.050971	-0.513476
H220	H	0.080867	0.449029	-0.013476
H221	H	-0.632722	-0.076784	-0.357684
H222	H	-0.132722	0.423216	0.142316
N223	N	-0.583891	0.423147	-0.039246
N224	N	-0.083891	0.923147	0.460754
N225	N	-0.551629	0.380622	-0.054507
N226	N	-0.051629	0.880622	0.445493
H227	H	-0.556288	0.353135	-0.100193
H228	H	-0.056288	0.853135	0.399807
N229	N	-0.501844	0.085944	-0.470883
N230	N	-0.001844	0.585944	0.029117
N231	N	-0.472046	0.123828	-0.432549
N232	N	0.027954	0.623828	0.067451
H233	H	-0.447441	0.154459	-0.453834
H234	H	0.052559	0.654459	0.046166
N235	N	-0.583905	0.577245	-0.039242
N236	N	-0.083905	1.077245	0.460758
N237	N	-0.583900	0.645303	-0.039233
N238	N	-0.083900	1.145303	0.460767
H239	H	-0.588564	0.672818	-0.084915
H240	H	-0.088564	1.172818	0.415085
H241	H	-0.652347	0.000206	-0.269415
H242	H	-0.152347	0.500206	0.230585
N243	N	-0.197379	-0.199308	0.090616
N244	N	0.302621	0.300692	0.590616
N245	N	-0.230077	-0.214019	0.042046
N246	N	0.269923	0.285981	0.542046
H247	H	-0.248270	-0.261637	0.042305
H248	H	0.251730	0.238363	0.542305
H249	H	-0.192171	0.185921	0.090523
H250	H	0.307829	0.685921	0.590523
N251	N	-0.638299	-0.085578	-0.498008
N252	N	-0.138299	0.414422	0.001992
N253	N	-0.637636	-0.085577	-0.562686
N254	N	-0.137636	0.414423	-0.062686
H255	H	-0.661723	-0.116170	-0.593661
H256	H	-0.161723	0.383830	-0.093661
H257	H	-0.630627	0.334219	0.002467
H258	H	-0.130627	0.834219	0.502467
N259	N	-0.478729	0.000098	-0.690163
N260	N	0.021271	0.500098	-0.190163
N261	N	-0.478074	0.000090	-0.754842
N262	N	0.021926	0.500090	-0.254842
H263	H	-0.446028	0.000070	-0.774657
H264	H	0.053972	0.500070	-0.274657
N265	N	-0.095504	0.199616	0.089112
N266	N	0.404496	0.699616	0.589112
N267	N	-0.096583	0.243801	0.138176
N268	N	0.403417	0.743801	0.638176
H269	H	-0.078414	0.291440	0.137918
H270	H	0.421586	0.791440	0.637918
H271	H	0.050556	-0.185614	0.086990
H272	H	0.550556	0.314386	0.586990
N273	N	-0.637426	0.658254	-0.007469
N274	N	-0.137426	1.158254	0.492531
N275	N	-0.666824	0.692301	-0.049993
N276	N	-0.166824	1.192301	0.450007
H277	H	-0.690550	0.664821	-0.084404
H278	H	-0.190550	1.164821	0.415596
H279	H	-0.630651	0.804431	0.002471
H280	H	-0.130651	1.304431	0.502471
H281	H	-0.510242	0.077138	-0.333355
H282	H	-0.010242	0.577138	0.166645
N283	N	-0.557724	0.423098	0.216793
N284	N	-0.057724	0.923098	0.716793
N285	N	-0.551952	0.457122	0.273332
N286	N	-0.051952	0.957122	0.773332
H287	H	-0.547287	0.429624	0.319023
H288	H	-0.047287	0.929624	0.819023
H289	H	-0.511007	0.804401	0.175071
H290	H	-0.011007	1.304401	0.675071
N291	N	-0.557733	0.577164	0.216795
N292	N	-0.057733	1.077164	0.716795
N293	N	-0.551947	0.543111	0.273330
N294	N	-0.051947	1.043111	0.773330
H295	H	-0.547279	0.570585	0.319023
H296	H	-0.047279	1.070585	0.819023
H297	H	-0.040895	-0.185624	0.088331
H298	H	0.459105	0.314376	0.588331
N299	N	-0.327388	-0.133327	0.092558
N300	N	0.172612	0.366673	0.592558
N301	N	-0.349901	-0.192260	0.092897
N302	N	0.150099	0.307740	0.592897
H303	H	-0.331722	-0.239892	0.092636
H304	H	0.168278	0.260108	0.592636
H305	H	0.190982	0.119961	0.084916
H306	H	0.690982	0.619961	0.584916
N307	N	-0.483291	0.000137	-0.243307
N308	N	0.016709	0.500137	0.256693
N309	N	-0.482637	0.000133	-0.307986
N310	N	0.017363	0.500133	0.192014
H311	H	-0.450591	0.000114	-0.327801
H312	H	0.049409	0.500114	0.172199
N313	N	-0.046141	0.199631	0.088352
N314	N	0.453859	0.699631	0.588352
N315	N	-0.023625	0.258561	0.088003
N316	N	0.476375	0.758561	0.588003
H317	H	-0.041802	0.306196	0.088252
H318	H	0.458198	0.806196	0.588252
H319	H	-0.424077	-0.119647	0.093975
H320	H	0.075923	0.380353	0.593975
N321	N	-0.429321	0.133559	0.094043
N322	N	0.070679	0.633559	0.594043
N323	N	-0.452887	0.148282	0.143437
N324	N	0.047113	0.648282	0.643437
H325	H	-0.471078	0.195902	0.143706
H326	H	0.028922	0.695902	0.643706
N327	N	-0.484777	0.000141	-0.096869
N328	N	0.015223	0.500141	0.403131
N329	N	-0.445115	0.000120	-0.121389
N330	N	0.054885	0.500120	0.378611
H331	H	-0.413597	0.000105	-0.088943
H332	H	0.086403	0.500105	0.411057
H333	H	-0.100686	-0.185631	0.089210
H334	H	0.399314	0.314369	0.589210
N335	N	0.287673	0.133647	0.083495
N336	N	0.787673	0.633647	0.583495
N337	N	0.320372	0.148373	0.132058
N338	N	0.820372	0.648373	0.632058
H339	H	0.338559	0.195995	0.131791
H340	H	0.838559	0.695995	0.631791
N341	N	-0.637498	0.188045	-0.007332
N342	N	-0.137498	0.688045	0.492668
N343	N	-0.666966	0.222094	-0.049756
N344	N	-0.166966	0.722094	0.450244
H345	H	-0.690801	0.194617	-0.084012
H346	H	-0.190801	0.694617	0.415988
N347	N	-0.662893	0.000240	-0.132305
N348	N	-0.162893	0.500240	0.367695
N349	N	-0.692301	0.051299	-0.146277
N350	N	-0.192301	0.551299	0.353723
H351	H	-0.724351	0.051322	-0.126475
H352	H	-0.224351	0.551322	0.373525
N353	N	-0.504141	0.342082	0.184911
N354	N	-0.004141	0.842082	0.684911
N355	N	-0.474191	0.384625	0.163175
N356	N	0.025809	0.884625	0.663175
H357	H	-0.450399	0.412115	0.197484
H358	H	0.049601	0.912115	0.697484
N359	N	-0.504128	0.188004	0.184914
N360	N	-0.004128	0.688004	0.684914
N361	N	-0.474691	0.222033	0.227380
N362	N	0.025309	0.722033	0.727380
H363	H	-0.450896	0.194539	0.261697
H364	H	0.049104	0.694539	0.761697
