data_functionalizedCrystal
_audit_creation_method	'MofGen! by Chris Wilmer'
_symmetry_space_group_name_H-M	'P1'
_symmetry_Int_Tables_number	1
_symmetry_cell_setting	triclinic
loop_
_symmetry_equiv_pos_as_xyz
  x,y,z
_cell_length_a	19.121063
_cell_length_b	21.395364
_cell_length_c	21.395356
_cell_angle_alpha	89.982872
_cell_angle_beta	87.586704
_cell_angle_gamma	87.514290
loop_
_atom_site_label
_atom_site_type_symbol
_atom_site_fract_x
_atom_site_fract_y
_atom_site_fract_z
Zn1	Zn	-0.279337	-0.947191	0.364894
Zn2	Zn	-0.029337	-0.697191	0.614894
Zn3	Zn	0.220663	-0.447191	0.864894
Zn4	Zn	0.470663	-0.197191	1.114894
Zn5	Zn	-0.396787	-0.942644	0.264582
Zn6	Zn	-0.146787	-0.692644	0.514582
Zn7	Zn	0.103213	-0.442644	0.764582
Zn8	Zn	0.353213	-0.192644	1.014582
Zn9	Zn	-0.279386	-0.842419	0.260131
Zn10	Zn	-0.029386	-0.592419	0.510131
Zn11	Zn	0.220614	-0.342419	0.760131
Zn12	Zn	0.470614	-0.092419	1.010131
Zn13	Zn	-0.396788	-0.837911	0.369321
Zn14	Zn	-0.146788	-0.587911	0.619321
Zn15	Zn	0.103212	-0.337911	0.869321
Zn16	Zn	0.353212	-0.087911	1.119321
O17	O	-0.338075	-0.892541	0.314732
O18	O	-0.088075	-0.642541	0.564732
O19	O	0.161925	-0.392541	0.814732
O20	O	0.411925	-0.142541	1.064732
O21	O	-0.294896	-1.034267	0.351597
O22	O	-0.044896	-0.784267	0.601597
O23	O	0.205104	-0.534267	0.851597
O24	O	0.455104	-0.284267	1.101597
O25	O	-0.381233	-0.929333	0.176314
O26	O	-0.131233	-0.679333	0.426314
O27	O	0.118767	-0.429333	0.676314
O28	O	0.368767	-0.179333	0.926314
O29	O	-0.181094	-0.860107	0.270313
O30	O	0.068906	-0.610107	0.520313
O31	O	0.318906	-0.360107	0.770313
O32	O	0.568906	-0.110107	1.020313
O33	O	-0.381186	-1.030926	0.277899
O34	O	-0.131186	-0.780926	0.527899
O35	O	0.118814	-0.530926	0.777899
O36	O	0.368814	-0.280926	1.027899
O37	O	-0.181058	-0.937082	0.347282
O38	O	0.068942	-0.687082	0.597282
O39	O	0.318942	-0.437082	0.847282
O40	O	0.568942	-0.187082	1.097282
O41	O	-0.294980	-0.855698	0.173045
O42	O	-0.044980	-0.605698	0.423045
O43	O	0.205020	-0.355698	0.673045
O44	O	0.455020	-0.105698	0.923045
O45	O	-0.294981	-0.754142	0.274606
O46	O	-0.044981	-0.504142	0.524606
O47	O	0.205019	-0.254142	0.774606
O48	O	0.455019	-0.004142	1.024606
O49	O	-0.381189	-0.852423	0.456411
O50	O	-0.131189	-0.602423	0.706411
O51	O	0.118811	-0.352423	0.956411
O52	O	0.368811	-0.102423	1.206411
O53	O	-0.381236	-0.750830	0.354827
O54	O	-0.131236	-0.500830	0.604827
O55	O	0.118764	-0.250830	0.854827
O56	O	0.368764	-0.000830	1.104827
O57	O	-0.294898	-0.932711	0.453158
O58	O	-0.044898	-0.682711	0.703158
O59	O	0.205102	-0.432711	0.953158
O60	O	0.455102	-0.182711	1.203158
O61	O	-0.495073	-0.924961	0.282191
O62	O	-0.245073	-0.674961	0.532191
O63	O	0.004927	-0.424961	0.782191
O64	O	0.254927	-0.174961	1.032191
O65	O	-0.495074	-0.848014	0.359142
O66	O	-0.245074	-0.598014	0.609142
O67	O	0.004926	-0.348014	0.859142
O68	O	0.254926	-0.098014	1.109142
C69	C	-0.338115	-0.729752	0.314714
C70	C	-0.088115	-0.479752	0.564714
C71	C	0.161885	-0.229752	0.814714
C72	C	0.411885	0.020248	1.064714
C73	C	-0.338148	-0.660110	0.314722
C74	C	-0.088148	-0.410110	0.564722
C75	C	0.161852	-0.160110	0.814722
C76	C	0.411852	0.089890	1.064722
C77	C	-0.293292	-0.629155	0.353161
C78	C	-0.043292	-0.379155	0.603161
C79	C	0.206708	-0.129155	0.853161
C80	C	0.456708	0.120845	1.103161
C81	C	-0.293276	-0.563721	0.353162
C82	C	-0.043276	-0.313721	0.603162
C83	C	0.206724	-0.063721	0.853162
C84	C	0.456724	0.186279	1.103162
C85	C	-0.338128	-0.529242	0.314730
C86	C	-0.088128	-0.279242	0.564730
C87	C	0.161872	-0.029242	0.814730
C88	C	0.411872	0.220758	1.064730
C89	C	-0.382988	-0.560204	0.276283
C90	C	-0.132988	-0.310204	0.526283
C91	C	0.117012	-0.060204	0.776283
C92	C	0.367012	0.189796	1.026283
C93	C	-0.382998	-0.625638	0.276279
C94	C	-0.132998	-0.375638	0.526279
C95	C	0.117002	-0.125638	0.776279
C96	C	0.367002	0.124362	1.026279
C97	C	-0.401384	-0.423114	0.312096
C98	C	-0.151384	-0.173114	0.562096
C99	C	0.098616	0.076886	0.812096
C100	C	0.348616	0.326886	1.062096
C101	C	-0.401375	-0.357681	0.312105
C102	C	-0.151375	-0.107681	0.562105
C103	C	0.098625	0.142319	0.812105
C104	C	0.348625	0.392319	1.062105
C105	C	-0.338096	-0.327422	0.314741
C106	C	-0.088096	-0.077422	0.564741
C107	C	0.161904	0.172578	0.814741
C108	C	0.411904	0.422578	1.064741
C109	C	-0.274825	-0.362604	0.317380
C110	C	-0.024825	-0.112604	0.567380
C111	C	0.225175	0.137396	0.817380
C112	C	0.475175	0.387396	1.067380
C113	C	-0.274835	-0.428038	0.317375
C114	C	-0.024835	-0.178038	0.567375
C115	C	0.225165	0.071962	0.817375
C116	C	0.475165	0.321962	1.067375
C117	C	-0.338122	-0.458290	0.314731
C118	C	-0.088122	-0.208290	0.564731
C119	C	0.161878	0.041710	0.814731
C120	C	0.411878	0.291710	1.064731
C121	C	-0.293218	-0.225517	0.353183
C122	C	-0.043218	0.024483	0.603183
C123	C	0.206782	0.274483	0.853183
C124	C	0.456782	0.524483	1.103183
C125	C	-0.293201	-0.160081	0.353179
C126	C	-0.043201	0.089919	0.603179
C127	C	0.206799	0.339919	0.853179
C128	C	0.456799	0.589919	1.103179
C129	C	-0.382919	-0.156565	0.276305
C130	C	-0.132919	0.093435	0.526305
C131	C	0.117081	0.343435	0.776305
C132	C	0.367081	0.593435	1.026305
C133	C	-0.382930	-0.222000	0.276305
C134	C	-0.132930	0.028000	0.526305
C135	C	0.117070	0.278000	0.776305
C136	C	0.367070	0.528000	1.026305
C137	C	-0.338081	-0.256472	0.314747
C138	C	-0.088081	-0.006472	0.564747
C139	C	0.161919	0.243528	0.814747
C140	C	0.411919	0.493528	1.064747
C141	C	-0.520558	-0.885522	0.321644
C142	C	-0.270558	-0.635522	0.571644
C143	C	-0.020558	-0.385522	0.821644
C144	C	0.229442	-0.135522	1.071644
C145	C	-0.598626	-0.882577	0.324621
C146	C	-0.348626	-0.632577	0.574621
C147	C	-0.098626	-0.382577	0.824621
C148	C	0.151374	-0.132577	1.074621
C149	C	-0.635278	-0.921286	0.285989
C150	C	-0.385278	-0.671286	0.535989
C151	C	-0.135278	-0.421286	0.785989
C152	C	0.114722	-0.171286	1.035989
C153	C	-0.708630	-0.918520	0.288793
C154	C	-0.458630	-0.668520	0.538793
C155	C	-0.208630	-0.418520	0.788793
C156	C	0.041370	-0.168520	1.038793
C157	C	-0.745329	-0.877040	0.330227
C158	C	-0.495329	-0.627040	0.580227
C159	C	-0.245329	-0.377040	0.830227
C160	C	0.004671	-0.127040	1.080227
C161	C	-0.708672	-0.838329	0.368863
C162	C	-0.458672	-0.588329	0.618863
C163	C	-0.208672	-0.338329	0.868863
C164	C	0.041328	-0.088329	1.118863
C165	C	-0.635321	-0.841099	0.366062
C166	C	-0.385321	-0.591099	0.616062
C167	C	-0.135321	-0.341099	0.866062
C168	C	0.114679	-0.091099	1.116062
C169	C	-0.966803	-0.866674	0.340691
C170	C	-0.716803	-0.616674	0.590691
C171	C	-0.466803	-0.366674	0.840691
C172	C	-0.216803	-0.116674	1.090691
C173	C	-1.040159	-0.863905	0.343489
C174	C	-0.790159	-0.613905	0.593489
C175	C	-0.540159	-0.363905	0.843489
C176	C	-0.290159	-0.113905	1.093489
C177	C	-1.040113	-0.944097	0.263419
C178	C	-0.790113	-0.694097	0.513419
C179	C	-0.540113	-0.444097	0.763419
C180	C	-0.290113	-0.194097	1.013419
C181	C	-0.966760	-0.946861	0.260618
C182	C	-0.716760	-0.696861	0.510618
C183	C	-0.466760	-0.446861	0.760618
C184	C	-0.216760	-0.196861	1.010618
C185	C	-0.930109	-0.908152	0.299257
C186	C	-0.680109	-0.658152	0.549257
C187	C	-0.430109	-0.408152	0.799257
C188	C	-0.180109	-0.158152	1.049257
C189	C	-0.820307	-0.874210	0.333093
C190	C	-0.570307	-0.624210	0.583093
C191	C	-0.320307	-0.374210	0.833093
C192	C	-0.070307	-0.124210	1.083093
C193	C	-0.855133	-0.910986	0.296394
C194	C	-0.605133	-0.660986	0.546394
C195	C	-0.355133	-0.410986	0.796394
C196	C	-0.105133	-0.160986	1.046394
C197	C	-0.154879	-0.899605	0.307807
C198	C	0.095121	-0.649605	0.557807
C199	C	0.345121	-0.399605	0.807807
C200	C	0.595121	-0.149605	1.057807
C201	C	-0.076811	-0.902615	0.304856
C202	C	0.173189	-0.652615	0.554856
C203	C	0.423189	-0.402615	0.804856
C204	C	0.673189	-0.152615	1.054856
C205	C	-0.338038	-0.892571	0.478154
C206	C	-0.088038	-0.642571	0.728154
C207	C	0.161962	-0.392571	0.978154
C208	C	0.411962	-0.142571	1.228154
C209	C	-0.338022	-0.892584	0.547795
C210	C	-0.088022	-0.642584	0.797795
C211	C	0.161978	-0.392584	1.047795
C212	C	0.411978	-0.142584	1.297795
C213	C	-0.338044	-0.055966	0.314748
C214	C	-0.088044	0.194034	0.564748
C215	C	0.161956	0.444034	0.814748
C216	C	0.411956	0.694034	1.064748
C217	C	-0.338053	-0.125607	0.314747
C218	C	-0.088053	0.124393	0.564747
C219	C	0.161947	0.374393	0.814747
C220	C	0.411947	0.624393	1.064747
C221	C	-0.338061	-0.892549	0.151944
C222	C	-0.088061	-0.642549	0.401944
C223	C	0.161939	-0.392549	0.651944
C224	C	0.411939	-0.142549	0.901944
C225	C	-0.337879	-0.892665	0.082296
C226	C	-0.087879	-0.642665	0.332296
C227	C	0.162121	-0.392665	0.582296
C228	C	0.412121	-0.142665	0.832296
C229	C	-0.382787	-0.931002	1.051289
C230	C	-0.132787	-0.681002	1.301289
C231	C	0.117213	-0.431002	1.551289
C232	C	0.367213	-0.181002	1.801289
C233	C	-0.382809	-0.930990	0.985854
C234	C	-0.132809	-0.680990	1.235854
C235	C	0.117191	-0.430990	1.485854
C236	C	0.367191	-0.180990	1.735854
C237	C	-0.337911	-0.892648	0.951429
C238	C	-0.087911	-0.642648	1.201429
C239	C	0.162089	-0.392648	1.451429
C240	C	0.412089	-0.142648	1.701429
C241	C	-0.292999	-0.854304	0.982444
C242	C	-0.042999	-0.604304	1.232444
C243	C	0.207001	-0.354304	1.482444
C244	C	0.457001	-0.104304	1.732444
C245	C	-0.292983	-0.854313	1.047878
C246	C	-0.042983	-0.604313	1.297878
C247	C	0.207017	-0.354313	1.547878
C248	C	0.457017	-0.104313	1.797878
C249	C	-0.274658	-0.890127	0.845369
C250	C	-0.024658	-0.640127	1.095369
C251	C	0.225342	-0.390127	1.345369
C252	C	0.475342	-0.140127	1.595369
C253	C	-0.274673	-0.890123	0.779936
C254	C	-0.024673	-0.640123	1.029936
C255	C	0.225327	-0.390123	1.279936
C256	C	0.475327	-0.140123	1.529936
C257	C	-0.337961	-0.892618	0.749610
C258	C	-0.087961	-0.642618	0.999610
C259	C	0.162039	-0.392618	1.249610
C260	C	0.412039	-0.142618	1.499610
C261	C	-0.401235	-0.895131	0.784724
C262	C	-0.151235	-0.645131	1.034724
C263	C	0.098765	-0.395131	1.284724
C264	C	0.348765	-0.145131	1.534724
C265	C	-0.401219	-0.895139	0.850158
C266	C	-0.151219	-0.645139	1.100158
C267	C	0.098781	-0.395139	1.350158
C268	C	0.348781	-0.145139	1.600158
C269	C	-0.337923	-0.892634	0.880477
C270	C	-0.087923	-0.642634	1.130477
C271	C	0.162077	-0.392634	1.380477
C272	C	0.412077	-0.142634	1.630477
C273	C	-0.382897	-0.930943	0.647651
C274	C	-0.132897	-0.680943	0.897651
C275	C	0.117103	-0.430943	1.147651
C276	C	0.367103	-0.180943	1.397651
C277	C	-0.382920	-0.930927	0.582215
C278	C	-0.132920	-0.680927	0.832215
C279	C	0.117080	-0.430927	1.082215
C280	C	0.367080	-0.180927	1.332215
C281	C	-0.293104	-0.854245	0.578806
C282	C	-0.043104	-0.604245	0.828806
C283	C	0.206896	-0.354245	1.078806
C284	C	0.456896	-0.104245	1.328806
C285	C	-0.293087	-0.854258	0.644241
C286	C	-0.043087	-0.604258	0.894241
C287	C	0.206913	-0.354258	1.144241
C288	C	0.456913	-0.104258	1.394241
C289	C	-0.337982	-0.892610	0.678659
C290	C	-0.087982	-0.642610	0.928659
C291	C	0.162018	-0.392610	1.178659
C292	C	0.412018	-0.142610	1.428659
H293	H	-0.452894	-0.329041	0.309959
H294	H	-0.202894	-0.079041	0.559959
H295	H	0.047106	0.170959	0.809959
H296	H	0.297106	0.420959	1.059959
Cl297	Cl	-0.236526	-0.806110	1.086861
Cl298	Cl	0.013474	-0.556110	1.336861
Cl299	Cl	0.263474	-0.306110	1.586861
Cl300	Cl	0.513474	-0.056110	1.836861
H301	H	-0.936881	-0.980637	0.226880
H302	H	-0.686881	-0.730637	0.476880
H303	H	-0.436881	-0.480637	0.726880
H304	H	-0.186881	-0.230637	0.976880
H305	H	-0.452917	-0.447745	0.309950
H306	H	-0.202917	-0.197745	0.559950
H307	H	0.047083	0.052255	0.809950
H308	H	0.297083	0.302255	1.059950
H309	H	-0.256695	-0.253585	0.384481
H310	H	-0.006695	-0.003585	0.634481
H311	H	0.243305	0.246415	0.884481
H312	H	0.493305	0.496415	1.134481
H313	H	-0.419455	-0.962171	0.675676
H314	H	-0.169455	-0.712171	0.925676
H315	H	0.080545	-0.462171	1.175676
H316	H	0.330545	-0.212171	1.425676
H317	H	-0.419460	-0.247203	0.245006
H318	H	-0.169460	0.002797	0.495006
H319	H	0.080540	0.252797	0.745006
H320	H	0.330540	0.502797	0.995006
Cl321	Cl	-0.920737	-0.818009	0.389265
Cl322	Cl	-0.670737	-0.568009	0.639265
Cl323	Cl	-0.420737	-0.318009	0.889265
Cl324	Cl	-0.170737	-0.068009	1.139265
H325	H	-0.850195	-0.840436	0.366827
H326	H	-0.600195	-0.590436	0.616827
H327	H	-0.350195	-0.340436	0.866827
H328	H	-0.100195	-0.090436	1.116827
H329	H	-0.419497	-0.962142	0.556970
H330	H	-0.169497	-0.712142	0.806970
H331	H	0.080503	-0.462142	1.056970
H332	H	0.330503	-0.212142	1.306970
H333	H	-0.419506	-0.532127	0.244992
H334	H	-0.169506	-0.282127	0.494992
H335	H	0.080494	-0.032127	0.744992
H336	H	0.330494	0.217873	0.994992
H337	H	-0.256772	-0.657218	0.384463
H338	H	-0.006772	-0.407218	0.634463
H339	H	0.243228	-0.157218	0.884463
H340	H	0.493228	0.092782	1.134463
Cl341	Cl	-0.236553	-0.806105	0.939168
Cl342	Cl	0.013447	-0.556105	1.189168
Cl343	Cl	0.263447	-0.306105	1.439168
Cl344	Cl	0.513447	-0.056105	1.689168
H345	H	-0.256548	-0.823025	0.550778
H346	H	-0.006548	-0.573025	0.800778
H347	H	0.243452	-0.323025	1.050778
H348	H	0.493452	-0.073025	1.300778
Cl349	Cl	-0.439392	-0.664554	0.227949
Cl350	Cl	-0.189392	-0.414554	0.477949
Cl351	Cl	0.060608	-0.164554	0.727949
Cl352	Cl	0.310608	0.085446	0.977949
Cl353	Cl	-0.236880	-0.524798	0.401489
Cl354	Cl	0.013120	-0.274798	0.651489
Cl355	Cl	0.263120	-0.024798	0.901489
Cl356	Cl	0.513120	0.225202	1.151489
H357	H	-0.223317	-0.456681	0.319523
H358	H	0.026683	-0.206681	0.569523
H359	H	0.276683	0.043319	0.819523
H360	H	0.526683	0.293319	1.069523
Cl361	Cl	-0.808996	-0.963132	0.244310
Cl362	Cl	-0.558996	-0.713132	0.494310
Cl363	Cl	-0.308996	-0.463132	0.744310
Cl364	Cl	-0.058996	-0.213132	0.994310
Cl365	Cl	-0.589149	-0.973431	0.233894
Cl366	Cl	-0.339149	-0.723431	0.483894
Cl367	Cl	-0.089149	-0.473431	0.733894
Cl368	Cl	0.160851	-0.223431	0.983894
Cl369	Cl	-0.754704	-0.967188	0.240226
Cl370	Cl	-0.504704	-0.717188	0.490226
Cl371	Cl	-0.254704	-0.467188	0.740226
Cl372	Cl	-0.004704	-0.217188	0.990226
Cl373	Cl	-0.195058	-0.887305	0.883485
Cl374	Cl	0.054942	-0.637305	1.133485
Cl375	Cl	0.304942	-0.387305	1.383485
Cl376	Cl	0.554942	-0.137305	1.633485
Cl377	Cl	-1.086192	-0.992761	0.214852
Cl378	Cl	-0.836192	-0.742761	0.464852
Cl379	Cl	-0.586192	-0.492761	0.714852
Cl380	Cl	-0.336192	-0.242761	0.964852
H381	H	-0.419439	-0.128493	0.245013
H382	H	-0.169439	0.121507	0.495013
H383	H	0.080561	0.371507	0.745013
H384	H	0.330561	0.621507	0.995013
Cl385	Cl	-0.236637	-0.806051	0.683225
Cl386	Cl	0.013363	-0.556051	0.933225
Cl387	Cl	0.263363	-0.306051	1.183225
Cl388	Cl	0.513363	-0.056051	1.433225
H389	H	-0.223297	-0.337969	0.319526
H390	H	0.026703	-0.087969	0.569526
H391	H	0.276703	0.162031	0.819526
H392	H	0.526703	0.412031	1.069526
H393	H	-0.419347	-0.962230	1.079308
H394	H	-0.169347	-0.712230	1.329308
H395	H	0.080653	-0.462230	1.579308
H396	H	0.330653	-0.212230	1.829308
Cl397	Cl	-0.236802	-0.121166	0.401505
Cl398	Cl	0.013198	0.128834	0.651505
Cl399	Cl	0.263198	0.378834	0.901505
Cl400	Cl	0.513198	0.628834	1.151505
H401	H	-1.070037	-0.830135	0.377240
H402	H	-0.820037	-0.580135	0.627240
H403	H	-0.570037	-0.330135	0.877240
H404	H	-0.320037	-0.080135	1.127240
H405	H	-0.738558	-0.804558	0.402602
H406	H	-0.488558	-0.554558	0.652602
H407	H	-0.238558	-0.304558	0.902602
H408	H	0.011442	-0.054558	1.152602
Cl409	Cl	-0.589243	-0.792436	0.414632
Cl410	Cl	-0.339243	-0.542436	0.664632
Cl411	Cl	-0.089243	-0.292436	0.914632
Cl412	Cl	0.160757	-0.042436	1.164632
H413	H	-0.419371	-0.962217	0.960602
H414	H	-0.169371	-0.712217	1.210602
H415	H	0.080629	-0.462217	1.460602
H416	H	0.330629	-0.212217	1.710602
Cl417	Cl	-0.480761	-0.898293	0.894299
Cl418	Cl	-0.230761	-0.648293	1.144299
Cl419	Cl	0.019239	-0.398293	1.394299
Cl420	Cl	0.269239	-0.148293	1.644299
H421	H	-0.452770	-0.897164	0.760034
H422	H	-0.202770	-0.647164	1.010034
H423	H	0.047230	-0.397164	1.260034
H424	H	0.297230	-0.147164	1.510034
H425	H	-0.223151	-0.888081	0.751351
H426	H	0.026849	-0.638081	1.001351
H427	H	0.276849	-0.388081	1.251351
H428	H	0.526849	-0.138081	1.501351
