data_functionalizedCrystal
_audit_creation_method	'MofGen! by Chris Wilmer'
_symmetry_space_group_name_H-M	'P1'
_symmetry_Int_Tables_number	1
_symmetry_cell_setting	triclinic
loop_
_symmetry_equiv_pos_as_xyz
  x,y,z
_cell_length_a	11.792241
_cell_length_b	16.109298
_cell_length_c	14.586319
_cell_angle_alpha	90.001604
_cell_angle_beta	90.000696
_cell_angle_gamma	83.826802
loop_
_atom_site_label
_atom_site_type_symbol
_atom_site_fract_x
_atom_site_fract_y
_atom_site_fract_z
O1	O	1.505906	0.113953	-0.076140
O2	O	1.175462	0.125698	-0.076160
O3	O	1.349763	-0.001163	-0.076156
O4	O	1.331604	0.240814	-0.076144
O5	O	1.349751	-0.001165	0.076325
O6	O	1.175450	0.125696	0.076321
O7	O	1.505894	0.113951	0.076341
Cu8	Cu	1.340671	0.119823	0.090254
Cu9	Cu	1.340685	0.119826	-0.090072
O10	O	1.331592	0.240812	0.076337
C11	C	1.133171	0.124959	0.000078
C12	C	1.007177	0.122751	0.000070
C13	C	1.349022	-0.032142	0.000081
C14	C	1.346819	-0.124448	0.000070
C15	C	1.339635	-0.423550	-0.083028
C16	C	1.341721	-0.336820	-0.083035
C17	C	1.341724	-0.336808	0.083208
C18	C	1.339646	-0.423537	0.083214
C19	C	1.338596	-0.466905	0.000093
C20	C	1.342760	-0.293446	0.000081
C21	C	1.345021	-0.199410	0.000075
C22	C	1.336337	-0.560947	0.000099
C23	C	0.776500	0.118691	0.000096
C24	C	0.904866	0.120947	0.000081
C25	C	1.548184	0.114690	0.000102
C26	C	1.674179	0.116898	0.000104
C27	C	1.332333	0.271791	0.000098
C28	C	1.334537	0.364097	0.000103
N29	N	1.340669	0.119821	0.217086
N30	N	1.340696	0.119821	-0.216904
C31	C	1.417875	0.063666	0.452094
C32	C	1.417878	0.063664	0.548075
C33	C	1.263481	0.175979	0.548081
C34	C	1.263474	0.175976	0.452101
C35	C	1.340677	0.119821	0.404110
C36	C	1.340688	0.119822	0.596071
C37	C	1.340691	0.119820	0.700138
C38	C	1.340673	0.119821	0.300037
H39	H	1.342568	-0.301524	-0.150720
H40	H	1.338779	-0.458857	-0.150711
H41	H	1.342577	-0.301486	0.150882
C42	C	1.336434	-0.556480	0.157036
C43	C	1.338481	-0.471198	0.174587
H44	H	1.335718	-0.585903	0.213444
H45	H	1.269958	-0.564641	0.122878
H46	H	1.402251	-0.576736	0.122894
H47	H	1.272660	-0.450941	0.208723
H48	H	1.404964	-0.463033	0.208759
H49	H	1.480737	0.017940	0.413022
H50	H	1.200604	0.221704	0.413031
C51	C	1.570501	-0.047344	0.538422
C52	C	1.502742	0.001941	0.600819
H53	H	1.622897	-0.085447	0.570986
H54	H	1.523271	-0.077483	0.500990
H55	H	1.611301	-0.012523	0.500985
H56	H	1.461935	-0.032879	0.638252
H57	H	1.549978	0.032082	0.638267
H58	H	1.200626	0.221700	0.587165
