data_functionalizedCrystal
_audit_creation_method	'MofGen! by Chris Wilmer'
_symmetry_space_group_name_H-M	'P1'
_symmetry_Int_Tables_number	1
_symmetry_cell_setting	triclinic
loop_
_symmetry_equiv_pos_as_xyz
  x,y,z
_cell_length_a	16.109301
_cell_length_b	16.109301
_cell_length_c	15.186229
_cell_angle_alpha	89.999362
_cell_angle_beta	89.996245
_cell_angle_gamma	83.461532
loop_
_atom_site_label
_atom_site_type_symbol
_atom_site_fract_x
_atom_site_fract_y
_atom_site_fract_z
O1	O	0.106866	1.103131	-0.073173
O2	O	0.606866	1.603131	0.426827
O3	O	0.120165	0.861069	-0.073187
O4	O	0.620165	1.361069	0.426813
O5	O	-0.007515	0.988749	-0.073174
O6	O	0.492485	1.488749	0.426826
O7	O	0.234547	0.975450	-0.073186
O8	O	0.734547	1.475450	0.426814
O9	O	-0.007517	0.988741	0.073284
O10	O	0.492483	1.488741	0.573284
O11	O	0.120164	0.861060	0.073270
O12	O	0.620164	1.361060	0.573270
O13	O	0.106864	1.103122	0.073284
O14	O	0.606864	1.603122	0.573284
Zn15	Zn	0.113514	0.982090	0.096531
Zn16	Zn	0.613514	1.482090	0.596531
Zn17	Zn	0.113516	0.982101	-0.096433
Zn18	Zn	0.613516	1.482101	0.403567
O19	O	0.234545	0.975442	0.073271
O20	O	0.734545	1.475442	0.573271
C21	C	-0.038491	0.988206	0.000055
C22	C	0.461509	1.488206	0.500055
C23	C	-0.130786	0.986591	0.000053
C24	C	0.369214	1.486591	0.500053
C25	C	0.119626	0.830090	0.000040
C26	C	0.619626	1.330090	0.500040
C27	C	0.118011	0.737794	0.000035
C28	C	0.618011	1.237794	0.500035
C29	C	-0.439785	1.057074	0.000042
C30	C	0.060215	1.557074	0.500042
C31	C	-0.353064	1.058600	0.000047
C32	C	0.146936	1.558600	0.500047
C33	C	-0.333191	0.907111	0.000050
C34	C	0.166809	1.407111	0.500050
C35	C	-0.419910	0.905586	0.000051
C36	C	0.080090	1.405586	0.500051
C37	C	-0.473205	0.980571	0.000043
C38	C	0.026795	1.480571	0.500043
C39	C	-0.299766	0.983620	0.000047
C40	C	0.200234	1.483620	0.500047
C41	C	-0.205740	0.985274	0.000052
C42	C	0.294260	1.485274	0.500052
C43	C	-0.567237	0.978917	0.000039
C44	C	-0.067237	1.478917	0.500039
C45	C	0.190018	0.515522	0.000041
C46	C	0.690018	1.015522	0.500041
C47	C	0.188494	0.428802	0.000047
C48	C	0.688494	0.928802	0.500047
C49	C	0.037006	0.448676	0.000051
C50	C	0.537006	0.948676	0.500051
C51	C	0.038530	0.535395	0.000052
C52	C	0.538530	1.035395	0.500052
C53	C	0.115039	0.568815	0.000042
C54	C	0.615039	1.068815	0.500042
C55	C	0.111990	0.395376	0.000047
C56	C	0.611990	0.895376	0.500047
C57	C	0.110337	0.301350	0.000054
C58	C	0.610337	0.801350	0.500054
C59	C	0.116693	0.662847	0.000038
C60	C	0.616693	1.162847	0.500038
C61	C	0.265521	0.975985	0.000041
C62	C	0.765521	1.475985	0.500041
C63	C	0.357816	0.977600	0.000036
C64	C	0.857816	1.477600	0.500036
C65	C	0.107404	1.134101	0.000056
C66	C	0.607404	1.634101	0.500056
C67	C	0.109019	1.226397	0.000055
C68	C	0.609019	1.726397	0.500055
N69	N	0.113511	0.982088	0.228223
N70	N	0.613511	1.482088	0.728223
N71	N	0.113512	0.982109	-0.228126
N72	N	0.613512	1.482109	0.271874
C73	C	0.056994	1.038644	0.453952
C74	C	0.556994	1.538644	0.953952
C75	C	0.056992	1.038647	0.546142
C76	C	0.556992	1.538647	1.046142
C77	C	0.170032	0.925547	0.546139
C78	C	0.670032	1.425547	1.046139
C79	C	0.170030	0.925541	0.453951
C80	C	0.670030	1.425541	0.953951
C81	C	0.113511	0.982094	0.407860
C82	C	0.613511	1.482094	0.907860
C83	C	0.113512	0.982103	0.592238
C84	C	0.613512	1.482103	1.092238
C85	C	0.113510	0.982105	0.692194
C86	C	0.613510	1.482105	1.192194
C87	C	0.113512	0.982091	0.307897
C88	C	0.613512	1.482091	0.807897
H89	H	-0.483175	1.118131	0.000035
H90	H	0.016825	1.618131	0.500035
C91	C	-0.316307	1.142760	0.000044
C92	C	0.183693	1.642760	0.500044
N93	N	-0.288622	1.206153	0.000043
N94	N	0.211378	1.706153	0.500043
C95	C	-0.047150	0.411905	0.000053
C96	C	0.452850	0.911905	0.500053
N97	N	-0.110537	0.384210	0.000051
N98	N	0.389463	0.884210	0.500051
C99	C	-0.274559	0.824633	0.000048
C100	C	0.225441	1.324633	0.500048
N101	N	-0.230398	0.762509	0.000041
N102	N	0.269602	1.262509	0.500041
H103	H	-0.447120	0.843284	0.000056
H104	H	0.052880	1.343284	0.500056
C105	C	0.274180	0.552281	0.000042
C106	C	0.774180	1.052281	0.500042
N107	N	0.337573	0.579966	0.000047
N108	N	0.837573	1.079966	0.500047
C109	C	0.270977	0.370182	0.000050
C110	C	0.770977	0.870182	0.500050
N111	N	0.333108	0.326030	0.000055
N112	N	0.833108	0.826030	0.500055
H113	H	-0.022530	0.578788	0.000055
H114	H	0.477470	1.078788	0.500055
H115	H	0.010969	1.084694	0.583667
H116	H	0.510969	1.584694	1.083667
C117	C	0.232197	0.863340	0.596848
C118	C	0.732197	1.363340	1.096848
N119	N	0.279021	0.816484	0.635041
N120	N	0.779021	1.316484	1.135041
H121	H	0.010972	1.084692	0.416427
H122	H	0.510972	1.584692	0.916427
H123	H	0.216053	0.879487	0.416420
H124	H	0.716053	1.379487	0.916420
