data_functionalizedCrystal
_audit_creation_method	'MofGen! by Chris Wilmer'
_symmetry_space_group_name_H-M	'P1'
_symmetry_Int_Tables_number	1
_symmetry_cell_setting	triclinic
loop_
_symmetry_equiv_pos_as_xyz
  x,y,z
_cell_length_a	12.837943
_cell_length_b	19.188930
_cell_length_c	11.892095
_cell_angle_alpha	93.870839
_cell_angle_beta	85.689438
_cell_angle_gamma	88.986861
loop_
_atom_site_label
_atom_site_type_symbol
_atom_site_fract_x
_atom_site_fract_y
_atom_site_fract_z
O1	O	1.381278	0.177430	-0.094009
O2	O	1.079513	0.168466	-0.094014
O3	O	1.239102	0.071891	-0.093990
O4	O	1.221689	0.274006	-0.094034
O5	O	1.225796	0.079929	0.094016
O6	O	1.066207	0.176505	0.093991
O7	O	1.367972	0.185469	0.093996
Zn8	Zn	1.214977	0.182263	0.123844
Zn9	Zn	1.232508	0.171672	-0.123862
O10	O	1.208383	0.282044	0.093971
C11	C	1.034253	0.169458	-0.000012
C12	C	0.919217	0.160427	-0.000013
C13	C	0.677767	0.268994	-0.000021
C14	C	0.569680	0.260512	-0.000021
C15	C	0.594952	0.134982	-0.000005
C16	C	0.703040	0.143464	-0.000005
C17	C	0.744443	0.210472	-0.000015
C18	C	0.852533	0.218953	-0.000023
C19	C	0.877803	0.093423	0.000001
C20	C	0.769716	0.084941	0.000001
C21	C	1.231885	0.049861	0.000016
C22	C	1.230191	-0.027760	0.000026
C23	C	1.323833	-0.066260	0.000033
C24	C	1.322244	-0.139194	0.000015
C25	C	1.227006	-0.173623	0.000012
C26	C	1.133352	-0.135114	-0.000001
C27	C	1.134944	-0.062182	0.000006
N28	N	1.149679	-0.283886	0.063993
N29	N	1.148172	-0.353168	0.063989
C30	C	1.222201	-0.393362	-0.000010
N31	N	1.297809	-0.361657	-0.063992
N32	N	1.299318	-0.292369	-0.063982
C33	C	1.225268	-0.252705	0.000004
C34	C	1.314126	-0.510946	-0.000025
C35	C	1.312534	-0.583882	-0.000050
C36	C	1.123638	-0.579799	-0.000054
C37	C	1.125234	-0.506866	-0.000041
C38	C	1.220481	-0.472444	-0.000020
C39	C	1.413232	0.184477	-0.000009
C40	C	1.528268	0.193508	-0.000015
C41	C	1.215600	0.304074	-0.000037
C42	C	1.217294	0.381694	-0.000054
N43	N	1.203020	0.189491	0.292896
N44	N	1.244474	0.164439	-0.292914
C45	C	1.327677	0.114101	0.529563
C46	C	1.319327	0.119160	0.647904
C47	C	1.177964	0.204661	0.647920
C48	C	1.186314	0.199603	0.529579
C49	C	1.261175	0.154323	0.470405
C50	C	1.269529	0.149269	0.352062
C51	C	1.128162	0.234767	0.352080
C52	C	1.119812	0.239825	0.470421
H53	H	0.515395	0.308167	-0.000023
O54	O	1.031034	-0.613127	-0.000107
C55	C	0.843843	-0.601377	-0.000043
C56	C	0.948646	-0.563543	-0.000004
H57	H	0.777203	-0.561305	0.000064
H58	H	0.843873	-0.638754	-0.078746
H59	H	0.832864	-0.632088	0.078614
H60	H	0.959692	-0.532794	-0.078607
H61	H	0.948568	-0.526207	0.078751
H62	H	1.373479	0.086407	0.696067
H63	H	0.561216	0.080430	0.000095
H64	H	1.058859	0.276689	0.518614
O65	O	1.063653	0.273947	0.294668
C66	C	1.004899	0.389710	0.258523
C67	C	1.078019	0.345420	0.323589
H68	H	1.016472	0.447503	0.281900
H69	H	1.023722	0.378383	0.163762
H70	H	0.920308	0.376023	0.281797
H71	H	1.162634	0.359081	0.300410
H72	H	1.059106	0.356752	0.418335
O73	O	0.717818	0.334133	0.000012
C74	C	0.681354	0.457744	-0.000092
C75	C	0.635859	0.384015	-0.000102
H76	H	0.615114	0.498092	-0.000209
H77	H	0.725719	0.468265	0.078604
H78	H	0.736929	0.461451	-0.078756
H79	H	0.580241	0.380255	0.078508
H80	H	0.591557	0.373526	-0.078851
H81	H	1.048980	-0.475518	-0.000040
H82	H	0.735989	0.030385	0.000021
O83	O	1.413304	-0.176496	0.000076
C84	C	1.600831	-0.172855	0.000034
C85	C	1.497783	-0.130529	-0.000009
H86	H	1.669161	-0.135710	-0.000058
H87	H	1.599298	-0.203728	0.078731
H88	H	1.610321	-0.210476	-0.078629
H89	H	1.488228	-0.092871	0.078601
H90	H	1.499362	-0.099704	-0.078758
O91	O	1.040912	-0.168639	-0.000152
C92	C	0.936363	-0.252738	-0.097597
C93	C	1.041108	-0.214833	-0.097545
H94	H	0.936477	-0.290084	-0.176342
H95	H	0.925311	-0.283473	-0.018972
H96	H	0.869717	-0.212674	-0.097545
H97	H	1.107816	-0.254850	-0.097636
H98	H	1.052068	-0.184085	-0.176163
H99	H	0.886241	0.273515	-0.000028
H100	H	1.401391	-0.038239	0.000046
O101	O	0.942543	0.036539	-0.000192
C102	C	1.004049	-0.072338	-0.097550
C103	C	0.930702	-0.007947	-0.097479
H104	H	0.994485	-0.108330	-0.176186
H105	H	1.088442	-0.054813	-0.097628
H106	H	0.983466	-0.101564	-0.018830
H107	H	0.951190	0.021308	-0.176186
H108	H	0.846329	-0.025517	-0.097343
O109	O	1.406589	-0.477430	-0.000170
C110	C	1.524925	-0.401637	-0.097594
C111	C	1.420176	-0.439541	-0.097554
H112	H	1.535954	-0.371006	-0.176332
H113	H	1.524846	-0.364197	-0.018962
H114	H	1.591566	-0.441695	-0.097549
H115	H	1.353478	-0.399533	-0.097640
H116	H	1.420345	-0.476993	-0.176180
O117	O	1.342270	0.105227	0.294753
C118	C	1.481636	0.020981	0.307233
C119	C	1.399289	0.070821	0.372272
H120	H	1.527773	-0.006838	0.369878
H121	H	1.441013	-0.019290	0.251877
H122	H	1.537137	0.052217	0.251780
H123	H	1.343764	0.039644	0.427785
H124	H	1.439982	0.111094	0.427556
O125	O	1.400423	0.070065	0.472250
C126	C	1.539808	-0.014168	0.484718
C127	C	1.457453	0.035663	0.549764
H128	H	1.585954	-0.041984	0.547360
H129	H	1.499191	-0.054443	0.429362
H130	H	1.595299	0.017074	0.429266
H131	H	1.401938	0.004479	0.605278
H132	H	1.498140	0.075939	0.605049
O133	O	1.105150	0.248646	0.705236
C134	C	0.965835	0.332933	0.692779
C135	C	1.048240	0.283141	0.627728
H136	H	0.919815	0.360846	0.630142
H137	H	0.910231	0.301719	0.748156
H138	H	1.006510	0.373133	0.748212
H139	H	1.007653	0.242931	0.572233
H140	H	1.103837	0.314401	0.572422
H141	H	1.058687	-0.030834	0.000001
H142	H	1.388792	-0.615228	-0.000050
