data_functionalizedCrystal
_audit_creation_method	'MofGen! by Chris Wilmer'
_symmetry_space_group_name_H-M	'P1'
_symmetry_Int_Tables_number	1
_symmetry_cell_setting	triclinic
loop_
_symmetry_equiv_pos_as_xyz
  x,y,z
_cell_length_a	13.635800
_cell_length_b	7.190339
_cell_length_c	7.076105
_cell_angle_alpha	96.843180
_cell_angle_beta	117.701832
_cell_angle_gamma	60.611724
loop_
_atom_site_label
_atom_site_type_symbol
_atom_site_fract_x
_atom_site_fract_y
_atom_site_fract_z
V1	V	-2.142715	0.291769	-0.663521
O2	O	-2.089376	-0.017451	-0.652442
O3	O	-2.160516	0.581828	-0.657491
O4	O	-2.155337	0.285776	-0.953586
O5	O	-2.094591	0.280650	-0.354297
V6	V	-2.374315	0.254960	-0.626717
O7	O	-2.295634	0.372511	-0.744255
O8	O	-2.446495	0.174218	-0.545983
O9	O	-2.244911	-0.035098	-0.632747
O10	O	-2.486353	0.564180	-0.637796
O11	O	-2.481138	0.266079	-0.935941
O12	O	-2.250090	0.260954	-0.336651
V13	V	-1.874308	0.254960	-0.626717
O14	O	-1.922433	0.266079	-0.935941
O15	O	-1.861686	0.260954	-0.336651
O16	O	-1.856507	-0.035098	-0.632747
O17	O	-1.927647	0.564180	-0.637796
V18	V	-1.642708	0.291769	-0.663521
O19	O	-1.721389	0.174218	-0.545983
O20	O	-1.570528	0.372511	-0.744255
O21	O	-1.766933	0.285776	-0.953586
O22	O	-1.535885	0.280650	-0.354297
O23	O	-1.530670	-0.017451	-0.652442
O24	O	-1.772112	0.581828	-0.657491
C25	C	-2.092052	0.652587	-0.646649
C26	C	-2.148539	0.894162	-0.643600
C27	C	-2.088911	0.274928	-0.024334
C28	C	-2.151677	0.271834	-0.265902
C29	C	-1.931578	0.271791	-0.265890
C30	C	-1.879373	0.274821	-0.024312
C31	C	-1.924977	-0.105844	-0.643602
C32	C	-1.868497	-0.347414	-0.646677
