data_functionalizedCrystal
_audit_creation_method	'MofGen! by Chris Wilmer'
_symmetry_space_group_name_H-M	'P1'
_symmetry_Int_Tables_number	1
_symmetry_cell_setting	triclinic
loop_
_symmetry_equiv_pos_as_xyz
  x,y,z
_cell_length_a	10.654550
_cell_length_b	9.130313
_cell_length_c	10.654550
_cell_angle_alpha	89.995631
_cell_angle_beta	95.515069
_cell_angle_gamma	90.000276
loop_
_atom_site_label
_atom_site_type_symbol
_atom_site_fract_x
_atom_site_fract_y
_atom_site_fract_z
O1	O	1.667839	0.121690	-0.176399
O2	O	2.167839	0.621690	0.323601
O3	O	1.302361	0.121716	-0.193205
O4	O	1.802361	0.621716	0.306795
O5	O	1.493503	0.121693	-0.002063
O6	O	1.993503	0.621693	0.497937
O7	O	1.476697	0.121713	-0.367541
O8	O	1.976697	0.621713	0.132459
O9	O	1.493490	-0.121906	-0.002057
O10	O	1.993490	0.378094	0.497943
O11	O	1.302348	-0.121882	-0.193199
O12	O	1.802348	0.378118	0.306801
O13	O	1.667826	-0.121909	-0.176393
O14	O	2.167826	0.378091	0.323607
Cu15	Cu	1.485086	-0.144138	-0.184796
Cu16	Cu	1.985086	0.355862	0.315204
Cu17	Cu	1.485101	0.143946	-0.184802
Cu18	Cu	1.985101	0.643946	0.315198
O19	O	1.476684	-0.121886	-0.367535
O20	O	1.976684	0.378114	0.132465
C21	C	1.255556	-0.000080	-0.191968
C22	C	1.755556	0.499920	0.308032
C23	C	1.116113	-0.000070	-0.188276
C24	C	1.616113	0.499930	0.311724
N25	N	1.485084	-0.346761	-0.184790
N26	N	1.985084	0.153239	0.315210
C27	C	1.036628	-0.000068	-0.300818
C28	C	1.536628	0.499932	0.199182
C29	C	0.905607	-0.000093	-0.297341
C30	C	1.405607	0.499907	0.202659
C31	C	0.933570	-0.000117	-0.068772
C32	C	1.433570	0.499883	0.431228
C33	C	1.064588	-0.000101	-0.072250
C34	C	1.564588	0.499899	0.427750
C35	C	1.569751	-0.423423	-0.100188
C36	C	2.069751	0.076577	0.399812
C37	C	1.569763	-0.576760	-0.100189
C38	C	2.069763	-0.076760	0.399811
C39	C	1.400437	-0.576759	-0.269404
C40	C	1.900437	-0.076759	0.230596
C41	C	1.400420	-0.423425	-0.269396
C42	C	1.900420	0.076575	0.230604
C43	C	1.714631	-0.000110	-0.177630
C44	C	2.214631	0.499890	0.322370
C45	C	1.854074	-0.000110	-0.181322
C46	C	2.354074	0.499890	0.318678
N47	N	1.485113	0.346568	-0.184798
N48	N	1.985113	0.846568	0.315202
C49	C	1.492263	-0.000105	0.044738
C50	C	1.992263	0.499895	0.544738
C51	C	1.488571	-0.000103	0.184181
C52	C	1.988571	0.499897	0.684181
C53	C	1.477925	-0.000084	-0.414336
C54	C	1.977925	0.499916	0.085664
C55	C	1.481616	-0.000077	-0.553779
C56	C	1.981616	0.499923	-0.053779
C57	C	1.601112	-0.000111	0.263667
C58	C	2.101112	0.499889	0.763667
C59	C	1.597636	-0.000092	0.394688
C60	C	2.097636	0.499908	0.894688
C61	C	1.369066	-0.000065	0.366725
C62	C	1.869066	0.499935	0.866725
C63	C	1.372544	-0.000073	0.235706
C64	C	1.872544	0.499927	0.735706
H65	H	1.078574	-0.000053	-0.395294
H66	H	1.578574	0.499947	0.104706
F67	F	1.659874	-0.658344	-0.010142
F68	F	2.159874	-0.158344	0.489858
H69	H	1.638687	-0.361007	-0.031295
H70	H	2.138687	0.138993	0.468705
H71	H	1.331468	-0.361002	-0.338290
H72	H	1.831468	0.138998	0.161710
F73	F	1.310339	-0.658360	-0.359447
F74	F	1.810339	-0.158360	0.140553
F75	F	1.717418	-0.000098	0.479278
F76	F	2.217418	0.499902	0.979278
F77	F	1.724598	-0.000141	0.208835
F78	F	2.224598	0.499859	0.708835
F79	F	1.149188	-0.000113	0.047539
F80	F	1.649188	0.499887	0.547539
H81	H	1.280893	-0.000062	0.170985
H82	H	1.780893	0.499938	0.670985
F83	F	0.821017	-0.000094	-0.417124
F84	F	1.321017	0.499906	0.082876
F85	F	0.878722	-0.000144	0.054705
F86	F	1.378722	0.499856	0.554705
F87	F	1.245589	-0.000032	0.421573
F88	F	1.745589	0.499968	0.921573
