data_functionalizedCrystal
_audit_creation_method	'MofGen! by Chris Wilmer'
_symmetry_space_group_name_H-M	'P1'
_symmetry_Int_Tables_number	1
_symmetry_cell_setting	triclinic
loop_
_symmetry_equiv_pos_as_xyz
  x,y,z
_cell_length_a	16.120484
_cell_length_b	19.805407
_cell_length_c	19.805399
_cell_angle_alpha	89.983114
_cell_angle_beta	92.869501
_cell_angle_gamma	92.925608
loop_
_atom_site_label
_atom_site_type_symbol
_atom_site_fract_x
_atom_site_fract_y
_atom_site_fract_z
Zn1	Zn	-0.331915	1.021057	-0.396377
Zn2	Zn	-0.471337	1.015239	-0.288925
Zn3	Zn	-0.331942	0.907876	-0.283202
Zn4	Zn	-0.471289	0.902099	-0.402070
O5	O	-0.401621	0.961568	-0.342643
O6	O	-0.350419	1.115002	-0.382135
O7	O	-0.452877	1.000980	-0.193450
O8	O	-0.215272	0.927742	-0.293437
O9	O	-0.452851	1.110727	-0.303191
O10	O	-0.215253	1.010896	-0.376586
O11	O	-0.350464	0.922101	-0.189246
O12	O	-0.350418	0.812394	-0.298958
O13	O	-0.452770	0.917896	-0.496030
O14	O	-0.452796	0.808149	-0.386289
O15	O	-0.350373	1.005294	-0.491847
O16	O	-0.587997	0.995378	-0.308711
O17	O	-0.587962	0.912255	-0.391838
C18	C	-0.401605	0.785713	-0.342621
C19	C	-0.401618	0.710480	-0.342628
C20	C	-0.618229	0.952577	-0.351528
C21	C	-0.710895	0.948792	-0.355352
C22	C	-0.455007	0.672940	-0.388035
C23	C	-0.455008	0.602252	-0.388044
C24	C	-0.401625	0.569104	-0.342643
C25	C	-0.348230	0.606649	-0.297235
C26	C	-0.348225	0.677336	-0.297229
C27	C	-0.348249	0.321575	-0.297258
C28	C	-0.348260	0.250882	-0.297266
C29	C	-0.455032	0.246490	-0.388073
C30	C	-0.455027	0.317178	-0.388067
C31	C	-0.401630	0.354717	-0.342661
C32	C	-0.401628	0.431365	-0.342652
C33	C	-0.401630	0.492457	-0.342649
C34	C	-0.880557	0.941887	-0.362347
C35	C	-0.921844	0.981370	-0.322951
C36	C	-1.016250	0.977528	-0.326843
C37	C	-0.786143	0.945728	-0.358456
C38	C	-0.184167	0.970612	-0.333738
C39	C	-0.091501	0.974467	-0.329944
C40	C	-0.401563	0.961600	-0.519184
C41	C	-0.401538	0.961614	-0.594415
C42	C	-0.401638	1.138110	-0.342666
C43	C	-0.401645	1.213342	-0.342676
C44	C	-0.348207	0.920554	-0.627569
C45	C	-0.348191	0.920564	-0.698257
C46	C	-0.401502	0.961638	-0.735789
C47	C	-0.454840	1.002699	-0.702630
C48	C	-0.454860	1.002685	-0.631944
C49	C	-0.454762	1.002756	-0.987700
C50	C	-0.454736	1.002768	-1.058391
C51	C	-0.348093	0.920635	-1.054013
C52	C	-0.348113	0.920621	-0.983327
C53	C	-0.401453	0.961679	-0.950174
C54	C	-0.401471	0.961667	-0.873527
C55	C	-0.401481	0.961654	-0.812435
C56	C	-0.401618	0.961577	-0.166787
C57	C	-0.401408	0.961705	-0.091547
H58	H	-0.498483	0.571690	-0.425018
H59	H	-0.498481	0.699924	-0.425003
H60	H	-0.498251	1.036139	-0.733195
H61	H	-0.304783	0.223896	-0.260295
O62	O	-0.512254	1.047059	-1.098878
H63	H	-0.549358	1.075599	-1.063950
O64	O	-0.927653	0.893285	-0.410884
H65	H	-0.910954	0.905520	-0.463347
O66	O	-0.874755	1.029970	-0.274401
H67	H	-0.891475	1.017729	-0.221945
O68	O	-0.290699	0.876253	-0.587094
H69	H	-0.299664	0.883146	-0.532370
O70	O	-0.290608	0.876320	-0.942849
H71	H	-0.299576	0.883213	-0.888126
H72	H	-0.498204	1.036181	-0.960716
O73	O	-0.290662	0.876284	-0.734018
H74	H	-0.253585	0.847729	-0.696044
H75	H	-0.304776	0.352131	-0.260280
O76	O	-0.512373	1.046978	-0.596179
H77	H	-0.549434	1.075548	-0.634151
O78	O	-0.290555	0.876355	-1.089775
H79	H	-0.327844	0.840364	-1.123502
H80	H	-0.498507	0.215918	-0.425048
O81	O	-0.512599	0.352932	-0.437039
H82	H	-0.549718	0.314952	-0.468621
H83	H	-0.304761	0.579655	-0.260271
O84	O	-0.290652	0.717831	-0.248248
H85	H	-0.253540	0.682907	-0.216672
