data_functionalizedCrystal
_audit_creation_method	'MofGen! by Chris Wilmer'
_symmetry_space_group_name_H-M	'P1'
_symmetry_Int_Tables_number	1
_symmetry_cell_setting	triclinic
loop_
_symmetry_equiv_pos_as_xyz
  x,y,z
_cell_length_a	11.169416
_cell_length_b	16.120490
_cell_length_c	11.169409
_cell_angle_alpha	92.919204
_cell_angle_beta	90.031365
_cell_angle_gamma	87.102791
loop_
_atom_site_label
_atom_site_type_symbol
_atom_site_fract_x
_atom_site_fract_y
_atom_site_fract_z
Zn1	Zn	-0.570971	1.274677	0.771557
Zn2	Zn	-0.237637	1.608010	1.104890
Zn3	Zn	0.095696	1.941343	1.438223
Zn4	Zn	-0.771705	1.274600	0.570872
Zn5	Zn	-0.438372	1.607933	0.904205
Zn6	Zn	-0.105039	1.941267	1.237538
Zn7	Zn	-0.560840	1.135248	0.560718
Zn8	Zn	-0.227506	1.468582	0.894051
Zn9	Zn	0.105827	1.801915	1.227385
Zn10	Zn	-0.761410	1.135254	0.761349
Zn11	Zn	-0.428076	1.468587	1.094682
Zn12	Zn	-0.094743	1.801921	1.428016
O13	O	-0.666231	1.204945	0.666124
O14	O	-0.332898	1.538278	0.999457
O15	O	0.000435	1.871611	1.332790
O16	O	-0.606147	1.391334	0.753457
O17	O	-0.272814	1.724668	1.086790
O18	O	0.060519	2.058001	1.420123
O19	O	-0.743803	1.256080	0.401572
O20	O	-0.410469	1.589414	0.734906
O21	O	-0.077136	1.922747	1.068239
O22	O	-0.394236	1.153773	0.588709
O23	O	-0.060903	1.487107	0.922042
O24	O	0.272431	1.820440	1.255375
O25	O	-0.753626	1.391278	0.606014
O26	O	-0.420293	1.724612	0.939347
O27	O	-0.086960	2.057945	1.272681
O28	O	-0.401679	1.256211	0.743611
O29	O	-0.068346	1.589544	1.076944
O30	O	0.264988	1.922877	1.410278
O31	O	-0.588880	1.153699	0.394112
O32	O	-0.255547	1.487033	0.727446
O33	O	0.077786	1.820366	1.060779
O34	O	-0.578897	1.018581	0.578811
O35	O	-0.245563	1.351915	0.912144
O36	O	0.087770	1.685248	1.245477
O37	O	-0.736078	1.153783	0.930655
O38	O	-0.402745	1.487116	1.263989
O39	O	-0.069412	1.820450	1.597322
O40	O	-0.726255	1.018585	0.726214
O41	O	-0.392921	1.351919	1.059547
O42	O	-0.059588	1.685252	1.392880
O43	O	-0.596164	1.256216	0.938155
O44	O	-0.262830	1.589550	1.271488
O45	O	0.070503	1.922883	1.604822
O46	O	-0.938287	1.256086	0.596116
O47	O	-0.604954	1.589419	0.929449
O48	O	-0.271621	1.922753	1.262783
O49	O	-0.930723	1.153709	0.736059
O50	O	-0.597390	1.487042	1.069393
O51	O	-0.264056	1.820376	1.402726
C52	C	-0.650360	0.988333	0.650303
C53	C	-0.317027	1.321666	0.983637
C54	C	0.016307	1.654999	1.316970
C55	C	-0.643599	0.895665	0.643564
C56	C	-0.310266	1.228998	0.976897
C57	C	0.023067	1.562332	1.310230
C58	C	-0.701292	0.684735	0.701085
C59	C	-0.367958	1.018069	1.034418
C60	C	-0.034625	1.351402	1.367752
C61	C	-0.631267	0.726005	0.631257
C62	C	-0.297933	1.059339	0.964591
C63	C	0.035400	1.392672	1.297924
C64	C	-0.638131	0.820413	0.638107
C65	C	-0.304797	1.153746	0.971440
C66	C	0.028536	1.487079	1.304773
C67	C	-0.694429	0.590320	0.694237
C68	C	-0.361096	0.923653	1.027571
C69	C	-0.027763	1.256986	1.360904
C70	C	-0.978054	1.204912	0.666110
C71	C	-0.644720	1.538246	0.999443
C72	C	-0.311387	1.871579	1.332776
C73	C	-1.111458	1.204975	0.666149
C74	C	-0.778125	1.538308	0.999483
C75	C	-0.444791	1.871642	1.332816
C76	C	-0.353193	1.205000	0.666166
C77	C	-0.019860	1.538333	0.999499
C78	C	0.313474	1.871667	1.332833
C79	C	-0.219795	1.205023	0.666184
C80	C	0.113539	1.538357	0.999517
C81	C	0.446872	1.871690	1.332851
C82	C	-0.666103	1.205009	0.979171
C83	C	-0.332769	1.538342	1.312504
C84	C	0.000564	1.871675	1.645838
C85	C	-0.666048	1.205036	1.112573
C86	C	-0.332715	1.538369	1.445906
C87	C	0.000619	1.871703	1.779240
C88	C	-0.682165	1.422403	0.682007
C89	C	-0.348832	1.755736	1.015340
C90	C	-0.015499	2.089070	1.348673
C91	C	-0.688956	1.515071	0.688775
C92	C	-0.355622	1.848404	1.022108
C93	C	-0.022289	2.181737	1.355442
C94	C	-0.666276	1.204929	0.354298
C95	C	-0.332943	1.538262	0.687631
C96	C	0.000390	1.871596	1.020965
C97	C	-0.666005	1.205063	0.220908
C98	C	-0.332671	1.538397	0.554242
C99	C	0.000662	1.871730	0.887575
H100	H	-0.566161	0.690435	0.566332
H101	H	-0.232828	1.023769	0.899665
H102	H	0.100505	1.357102	1.232999
F103	F	-0.786394	0.731225	0.785932
F104	F	-0.453061	1.064558	1.119265
F105	F	-0.119727	1.397892	1.452599
