data_functionalizedCrystal
_audit_creation_method	'MofGen! by Chris Wilmer'
_symmetry_space_group_name_H-M	'P1'
_symmetry_Int_Tables_number	1
_symmetry_cell_setting	triclinic
loop_
_symmetry_equiv_pos_as_xyz
  x,y,z
_cell_length_a	7.076090
_cell_length_b	13.635800
_cell_length_c	7.076028
_cell_angle_alpha	117.700652
_cell_angle_beta	70.928329
_cell_angle_gamma	117.701400
loop_
_atom_site_label
_atom_site_type_symbol
_atom_site_fract_x
_atom_site_fract_y
_atom_site_fract_z
V1	V	0.291705	-1.996836	-0.663512
O2	O	-0.017514	-2.098107	-0.652433
O3	O	0.581764	-1.869608	-0.657482
O4	O	0.285683	-2.012457	-0.953573
O5	O	0.280616	-1.954268	-0.354292
V6	V	0.254900	-2.246840	-0.626708
O7	O	0.372439	-2.109384	-0.744245
O8	O	0.174165	-2.359391	-0.545976
O9	O	-0.035159	-2.262465	-0.632738
O10	O	0.564118	-2.204268	-0.637787
O11	O	0.265988	-2.348106	-0.935928
O12	O	0.260921	-2.119616	-0.336647
V13	V	0.291705	-1.496836	-0.663512
O14	O	-0.017514	-1.598107	-0.652433
O15	O	0.581764	-1.369608	-0.657482
O16	O	0.285683	-1.512457	-0.953573
O17	O	0.280616	-1.454268	-0.354292
V18	V	0.254900	-1.746840	-0.626708
O19	O	0.372439	-1.609384	-0.744245
O20	O	0.174165	-1.859391	-0.545976
O21	O	-0.035159	-1.762465	-0.632738
O22	O	0.564118	-1.704268	-0.637787
O23	O	0.265988	-1.848106	-0.935928
O24	O	0.260921	-1.619616	-0.336647
C25	C	0.652525	-1.765764	-0.646640
C26	C	0.894100	-1.701463	-0.643592
C27	C	-0.105907	-2.197991	-0.643587
C28	C	-0.347474	-2.251725	-0.646685
C29	C	0.271768	-2.015759	-0.265888
C30	C	0.274826	-1.951463	-0.024313
C31	C	0.274832	-1.447983	-1.024321
C32	C	0.271768	-1.501707	-1.265894
