data_functionalizedCrystal
_audit_creation_method	'MofGen! by Chris Wilmer'
_symmetry_space_group_name_H-M	'P1'
_symmetry_Int_Tables_number	1
_symmetry_cell_setting	triclinic
loop_
_symmetry_equiv_pos_as_xyz
  x,y,z
_cell_length_a	10.967926
_cell_length_b	14.519731
_cell_length_c	9.482900
_cell_angle_alpha	99.351580
_cell_angle_beta	92.549900
_cell_angle_gamma	84.211611
loop_
_atom_site_label
_atom_site_type_symbol
_atom_site_fract_x
_atom_site_fract_y
_atom_site_fract_z
O1	O	1.610574	0.162804	0.282601
O2	O	1.261365	0.164826	0.195110
O3	O	1.445213	0.029903	0.241185
O4	O	1.426726	0.297727	0.236527
O5	O	1.407869	0.057424	0.473619
O6	O	1.224022	0.192348	0.427544
O7	O	1.573231	0.190325	0.515035
Cu8	Cu	1.395216	0.193849	0.492513
Cu9	Cu	1.439379	0.161302	0.217633
O10	O	1.389383	0.325249	0.468961
C11	C	1.198001	0.176360	0.300130
C12	C	1.064833	0.169714	0.266766
C13	C	0.986117	0.181008	0.372299
C14	C	0.848480	0.174140	0.337819
C15	C	1.425675	0.009274	0.357185
C16	C	1.423078	-0.093197	0.356535
C17	C	1.420969	-0.176415	0.356004
C18	C	1.418335	-0.280818	0.355333
C19	C	1.416244	-0.364031	0.354799
C20	C	1.413610	-0.468439	0.354131
C21	C	1.636595	0.178791	0.410012
C22	C	1.769765	0.185436	0.443367
C23	C	1.408921	0.345877	0.352957
C24	C	1.411519	0.448347	0.353598
N25	N	1.364163	0.216741	0.685851
N26	N	1.470442	0.138403	0.024297
C27	C	1.430212	0.168049	0.774602
C28	C	1.404384	0.187103	0.935547
H29	H	0.813981	0.159383	0.221934
O30	O	1.273814	0.283193	0.737477
C31	C	1.185971	0.241218	0.803507
H32	H	1.229863	0.173275	0.837149
H33	H	1.106243	0.225262	0.724982
C34	C	1.084515	0.392151	0.894946
C35	C	1.138427	0.308705	0.936276
H36	H	1.055182	0.433780	0.976840
H37	H	1.143693	0.420431	0.850456
H38	H	1.018082	0.378841	0.829506
H39	H	1.204867	0.322014	1.001700
H40	H	1.079258	0.280429	0.980780
O41	O	0.810874	0.202877	0.581651
C42	C	0.781364	0.131168	0.654513
H43	H	0.768160	0.065225	0.574144
H44	H	0.693079	0.154852	0.714685
C45	C	0.902445	0.190911	0.860097
C46	C	0.886237	0.109917	0.761387
H47	H	0.967132	0.177805	0.926027
H48	H	0.922323	0.239225	0.811012
H49	H	0.828867	0.210640	0.910226
H50	H	0.959809	0.090196	0.711249
H51	H	0.866374	0.061599	0.810467
H52	H	1.328707	0.242896	0.978706
H53	H	1.020623	0.195757	0.488177
O54	O	1.520374	0.101457	0.722898
C55	C	1.469341	0.032361	0.622072
H56	H	1.379109	0.063250	0.576864
H57	H	1.451867	-0.029472	0.676221
C58	C	1.669909	-0.039258	0.555384
C59	C	1.559091	-0.001316	0.499849
H60	H	1.725273	-0.060036	0.479993
H61	H	1.704292	0.007291	0.623316
H62	H	1.655332	-0.090780	0.600507
H63	H	1.573667	0.050211	0.454743
H64	H	1.524712	-0.047858	0.431906
H65	H	1.030328	0.154958	0.150889
H66	H	1.546110	0.082603	0.981136
