data_functionalizedCrystal
_audit_creation_method	'MofGen! by Chris Wilmer'
_symmetry_space_group_name_H-M	'P1'
_symmetry_Int_Tables_number	1
_symmetry_cell_setting	triclinic
loop_
_symmetry_equiv_pos_as_xyz
  x,y,z
_cell_length_a	12.759395
_cell_length_b	13.897448
_cell_length_c	12.759387
_cell_angle_alpha	90.032712
_cell_angle_beta	90.020509
_cell_angle_gamma	90.019229
loop_
_atom_site_label
_atom_site_type_symbol
_atom_site_fract_x
_atom_site_fract_y
_atom_site_fract_z
Zn1	Zn	1.606247	-0.383924	0.593991
Zn2	Zn	1.606128	-0.545252	0.418306
Zn3	Zn	1.430545	-0.383977	0.418328
Zn4	Zn	1.430528	-0.545184	0.593945
O5	O	1.518362	-0.464584	0.506142
O6	O	1.753252	-0.405332	0.570696
O7	O	1.582794	-0.523909	0.271287
O8	O	1.453909	-0.248988	0.441659
O9	O	1.753165	-0.523858	0.441621
O10	O	1.582996	-0.248950	0.570718
O11	O	1.453794	-0.405421	0.271304
O12	O	1.283522	-0.405355	0.441614
O13	O	1.453880	-0.523741	0.740972
O14	O	1.283509	-0.523792	0.570639
O15	O	1.582980	-0.405265	0.741006
O16	O	1.582778	-0.680225	0.441576
O17	O	1.453765	-0.680174	0.570617
C18	C	1.245395	-0.464573	0.506124
C19	C	1.128618	-0.464591	0.506142
C20	C	1.128644	-0.588119	0.640278
C21	C	1.073796	-0.649891	0.707349
C22	C	0.964074	-0.649903	0.707362
C23	C	0.909198	-0.588134	0.640299
C24	C	0.964046	-0.526362	0.573227
C25	C	1.073770	-0.526359	0.573220
C26	C	0.964020	-0.402830	0.439098
C27	C	1.073742	-0.402822	0.439078
C28	C	0.909144	-0.341061	0.372035
C29	C	0.963992	-0.279293	0.304957
C30	C	1.073720	-0.279284	0.304946
C31	C	1.128590	-0.341050	0.372007
C32	C	1.518285	-0.715199	0.506112
C33	C	1.518349	-0.822413	0.506134
C34	C	1.518459	-1.018708	0.506200
C35	C	1.518395	-0.909475	0.506167
C36	C	1.792395	-0.464597	0.506161
C37	C	1.909172	-0.464602	0.506169
C38	C	1.518441	-0.464490	0.780176
C39	C	1.518475	-0.464449	0.896953
C40	C	1.518468	-0.212991	0.506196
C41	C	1.518513	-0.105777	0.506219
C42	C	1.518344	-0.464609	0.233175
C43	C	1.518513	-0.464377	0.116399
C44	C	1.652916	-0.341088	0.897008
C45	C	1.720151	-0.279393	0.951896
C46	C	1.720176	-0.279358	1.061618
C47	C	1.652958	-0.341022	1.116454
C48	C	1.585723	-0.402718	1.061565
C49	C	1.585707	-0.402748	0.951841
C50	C	1.451278	-0.526072	1.061510
C51	C	1.451256	-0.526114	0.951789
C52	C	1.384059	-0.587737	1.116346
C53	C	1.316828	-0.649438	1.061458
C54	C	1.316806	-0.649472	0.951729
C55	C	1.384021	-0.587809	0.896900
H56	H	1.118371	-0.228975	0.250335
H57	H	1.118488	-0.700181	0.761952
C58	C	1.794134	-0.211496	1.122003
C59	C	1.913564	-0.219389	1.106941
C60	C	1.987521	-0.151529	1.167327
C61	C	1.942049	-0.075774	1.242775
C62	C	1.822613	-0.067878	1.257841
C63	C	1.748656	-0.135739	1.197455
H64	H	1.947231	-0.275470	1.051086
H65	H	2.075936	-0.157374	1.156174
H66	H	1.996797	-0.025540	1.287476
H67	H	1.788946	-0.011797	1.313695
H68	H	1.660241	-0.129893	1.208608
C69	C	1.794094	-0.211569	0.891577
C70	C	1.794080	-0.211606	0.770887
C71	C	1.868023	-0.143781	0.710572
C72	C	1.941980	-0.075920	0.770947
C73	C	1.941997	-0.075881	0.891644
C74	C	1.868054	-0.143705	0.951959
H75	H	1.739330	-0.261843	0.726187
H76	H	1.868010	-0.143811	0.621224
H77	H	1.996717	-0.025712	0.726298
H78	H	1.996747	-0.025644	0.936343
H79	H	1.868067	-0.143676	1.041307
C80	C	0.903734	-0.717851	0.781138
C81	C	0.918778	-0.827496	0.772343
C82	C	0.858437	-0.895443	0.846118
C83	C	0.783051	-0.853745	0.928688
C84	C	0.768003	-0.744094	0.937487
C85	C	0.828344	-0.676147	0.863712
H86	H	0.974586	-0.858369	0.711216
H87	H	0.869577	-0.976614	0.839604
H88	H	0.738383	-0.904044	0.983301
H89	H	0.712195	-0.713222	0.998614
H90	H	0.817204	-0.594976	0.870226
C91	C	1.242894	-0.717262	1.121776
C92	C	1.242913	-0.717218	1.242466
C93	C	1.168978	-0.785044	1.302789
C94	C	1.095024	-0.852914	1.242421
C95	C	1.095003	-0.852960	1.121724
C96	C	1.168937	-0.785134	1.061402
H97	H	1.297660	-0.666974	1.287160
H98	H	1.168995	-0.785009	1.392137
H99	H	1.040294	-0.903123	1.287076
H100	H	1.040255	-0.903204	1.077031
H101	H	1.168921	-0.785169	0.972054
H102	H	1.217931	-0.341052	0.372002
H103	H	1.384014	-0.587834	0.807559
H104	H	0.819857	-0.588141	0.640324
C105	C	1.242846	-0.717339	0.891354
C106	C	1.123417	-0.709445	0.906423
C107	C	1.049456	-0.777313	0.846052
C108	C	1.094924	-0.853075	0.770611
C109	C	1.214359	-0.860973	0.755538
C110	C	1.288320	-0.793104	0.815909
H111	H	1.089754	-0.653358	0.962272
H112	H	0.961043	-0.771467	0.857210
H113	H	1.040174	-0.903316	0.725920
H114	H	1.248023	-0.917059	0.699689
H115	H	1.376734	-0.798951	0.804751
H116	H	0.819803	-0.341071	0.372054
H117	H	1.217985	-0.588123	0.640266
H118	H	1.652912	-0.341120	0.807667
H119	H	0.919303	-0.229001	0.250364
H120	H	1.652975	-0.340980	1.205795
H121	H	1.384081	-0.587700	1.205687
