data_functionalizedCrystal
_audit_creation_method	'MofGen! by Chris Wilmer'
_symmetry_space_group_name_H-M	'P1'
_symmetry_Int_Tables_number	1
_symmetry_cell_setting	triclinic
loop_
_symmetry_equiv_pos_as_xyz
  x,y,z
_cell_length_a	15.995350
_cell_length_b	15.995350
_cell_length_c	15.072220
_cell_angle_alpha	89.998899
_cell_angle_beta	89.993871
_cell_angle_gamma	96.507625
loop_
_atom_site_label
_atom_site_type_symbol
_atom_site_fract_x
_atom_site_fract_y
_atom_site_fract_z
O1	O	1.110996	-0.107921	-0.073647
O2	O	0.867221	-0.121249	-0.073677
O3	O	0.995772	0.007303	-0.073660
O4	O	0.982444	-0.236472	-0.073664
O5	O	0.995740	0.007296	0.073905
O6	O	0.867189	-0.121256	0.073888
O7	O	1.110964	-0.107928	0.073918
Zn8	Zn	0.989071	-0.114593	0.097332
Zn9	Zn	0.989113	-0.114584	-0.097091
O10	O	0.982413	-0.236480	0.073902
C11	C	0.836010	-0.120701	0.000102
C12	C	0.743060	-0.119049	0.000090
N13	N	0.989049	-0.114599	0.230021
C14	C	1.142175	-0.108476	0.000138
C15	C	1.235125	-0.110127	0.000143
C16	C	0.995205	0.038494	0.000121
C17	C	0.993553	0.131444	0.000115
C18	C	1.572873	-0.116060	0.000108
C19	C	1.525439	-0.207612	0.000440
C20	C	1.428748	-0.205959	0.000117
C21	C	1.405312	-0.113117	0.000126
C22	C	1.446391	-0.067956	-0.084142
C23	C	1.543027	-0.070256	-0.084222
C24	C	1.543382	-0.068373	0.083587
C25	C	1.446437	-0.068395	0.084710
C26	C	1.310615	-0.111449	0.000133
C27	C	1.667570	-0.117725	0.000094
C28	C	0.982980	-0.267671	0.000119
C29	C	0.984631	-0.360621	0.000118
C30	C	0.987621	0.469192	0.000118
C31	C	0.896069	0.421758	-0.000225
C32	C	0.897721	0.325068	0.000108
C33	C	0.990564	0.301631	0.000116
C34	C	1.035702	0.342705	0.084387
C35	C	1.033402	0.439341	0.084457
C36	C	1.035330	0.439707	-0.083352
C37	C	1.035308	0.342761	-0.084465
C38	C	0.992231	0.206934	0.000118
C39	C	0.985956	0.563890	0.000122
N40	N	0.989142	-0.114571	-0.229780
C41	C	0.989112	-0.114580	0.589223
C42	C	0.920095	-0.183135	0.551607
C43	C	0.920254	-0.183385	0.448781
C44	C	0.989080	-0.114590	0.411019
C45	C	1.076445	-0.133671	0.448321
C46	C	1.076058	-0.134159	0.551178
C47	C	0.971542	-0.026741	0.551321
C48	C	0.969537	-0.027327	0.448458
C49	C	0.989067	-0.114593	0.310305
C50	C	0.989130	-0.114579	0.689936
H51	H	1.400325	-0.241463	0.060520
F52	F	0.994691	0.305607	0.166350
H53	H	1.419137	-0.101371	0.147051
H54	H	1.129029	-0.085068	0.423858
F55	F	1.550083	-0.255631	0.079105
H56	H	1.431077	-0.000690	0.089803
H57	H	1.432265	0.000253	-0.087269
F58	F	1.030979	0.042479	0.414873
H59	H	1.091540	-0.198219	0.575161
F60	F	1.409298	-0.108945	-0.166108
F61	F	0.848254	0.445982	-0.079216
F62	F	1.392325	-0.252658	-0.078973
F63	F	0.890067	-0.002771	0.585257
F64	F	1.123557	0.481221	-0.084087
H65	H	0.861974	0.297200	0.060612
H66	H	1.129019	-0.086195	0.576060
F67	F	0.835360	-0.168568	0.415816
F68	F	1.570230	-0.107500	0.167064
H69	H	1.103910	0.328579	0.087526
F70	F	0.848312	0.447646	0.078098
F71	F	0.990342	0.463260	0.166785
F72	F	0.851342	0.287919	-0.078851
H73	H	1.575275	-0.003040	-0.088057
H74	H	0.854945	-0.171953	0.576360
H75	H	1.575140	-0.000872	0.084154
H76	H	1.002306	0.315516	-0.146807
H77	H	1.100617	0.471588	0.088286
F78	F	0.996218	0.466548	-0.166838
H79	H	1.103014	0.327400	-0.089548
F80	F	1.551046	-0.255226	-0.078110
H81	H	0.931160	-0.247952	0.577446
H82	H	1.561329	-0.103184	-0.147215
F83	F	0.934890	-0.268594	0.416606
H84	H	1.092297	-0.197002	0.422553
H85	H	0.905271	-0.012846	0.424078
F86	F	1.037326	0.039941	0.583116
