data_functionalizedCrystal
_audit_creation_method	'MofGen! by Chris Wilmer'
_symmetry_space_group_name_H-M	'P1'
_symmetry_Int_Tables_number	1
_symmetry_cell_setting	triclinic
loop_
_symmetry_equiv_pos_as_xyz
  x,y,z
_cell_length_a	31.640172
_cell_length_b	31.640171
_cell_length_c	19.902436
_cell_angle_alpha	59.999201
_cell_angle_beta	90.007929
_cell_angle_gamma	59.979319
loop_
_atom_site_label
_atom_site_type_symbol
_atom_site_fract_x
_atom_site_fract_y
_atom_site_fract_z
Zr1	Zr	0.406962	0.462738	-0.088288
O2	O	0.339429	0.550947	-0.195623
O3	O	0.427694	0.374530	-0.055358
O4	O	0.427650	0.462729	-0.195565
O5	O	0.339475	0.462754	0.055152
O6	O	0.497207	0.462720	-0.195550
O7	O	0.339473	0.462748	-0.055415
O8	O	0.497285	0.304949	0.055255
O9	O	0.339396	0.620525	-0.195653
O10	O	0.488410	0.410804	-0.041335
O11	O	0.436502	0.410815	0.041170
O12	O	0.436450	0.514658	-0.123907
O13	O	0.384542	0.514669	-0.041402
Zr14	Zr	0.517900	0.462733	0.088078
Zr15	Zr	0.517898	0.462724	-0.088265
Zr16	Zr	0.406965	0.462747	0.088054
Zr17	Zr	0.406910	0.573708	-0.088337
Zr18	Zr	0.517953	0.351763	0.088126
O19	O	0.497169	0.550940	0.055147
O20	O	0.497165	0.550927	-0.195589
O21	O	0.339433	0.550960	0.055114
O22	O	0.585433	0.374524	0.195412
O23	O	0.585430	0.374511	-0.055324
O24	O	0.427698	0.374544	0.195379
O25	O	0.585388	0.462717	-0.055363
O26	O	0.497213	0.462742	0.195355
O27	O	0.427656	0.462750	0.195340
O28	O	0.585390	0.462723	0.055205
O29	O	0.427575	0.620514	-0.195634
O30	O	0.497287	0.304957	0.195424
O31	O	0.585466	0.304945	0.195443
O32	O	0.585464	0.304938	0.055274
O33	O	0.339399	0.620533	-0.055484
O34	O	0.427578	0.620522	-0.055466
O35	O	0.488413	0.410813	0.123696
O36	O	0.540321	0.410802	0.041192
O37	O	0.488361	0.514656	-0.041380
O38	O	0.436453	0.514667	0.041124
C39	C	0.462497	0.323929	-0.000044
C40	C	0.462519	0.276819	-0.000024
C41	C	0.500774	-0.097748	0.060827
C42	C	0.500820	0.079205	0.060873
O43	O	0.533443	0.069471	0.112684
N44	N	0.462486	0.139681	-0.000061
C45	C	0.424140	0.155920	-0.061013
O46	O	0.391539	0.211419	-0.112844
C47	C	0.424097	-0.021033	-0.061061
C48	C	0.462430	-0.081510	-0.000119
C49	C	0.539105	-0.158222	0.121764
C50	C	0.539092	-0.202458	0.121755
C51	C	0.500747	-0.186219	0.060808
C52	C	0.462417	-0.125745	-0.000128
C53	C	0.385753	-0.004794	-0.122016
C54	C	0.385747	-0.049039	-0.122024
C55	C	0.424080	-0.109516	-0.061082
C56	C	0.424059	-0.153742	-0.061084
N57	N	0.462393	-0.214218	-0.000150
C58	C	0.500737	-0.230457	0.060796
C59	C	0.424165	0.248820	-0.060982
C60	C	0.424175	0.293058	-0.060970
C61	C	0.500856	0.216339	0.060915
C62	C	0.500843	0.172101	0.060905
C63	C	0.462499	0.188343	-0.000049
C64	C	0.500706	-0.323351	0.060772
C65	C	0.500688	-0.367587	0.060759
C66	C	0.424009	-0.290865	-0.061128
C67	C	0.424025	-0.246633	-0.061113
C68	C	0.462378	-0.262881	-0.000159
O69	O	0.391457	-0.144052	-0.112873
O70	O	0.533340	-0.285959	0.112609
C71	C	0.500788	-0.053513	0.060837
C72	C	0.462457	0.006961	-0.000100
C73	C	0.424113	0.023199	-0.061046
C74	C	0.462467	0.051199	-0.000087
C75	C	0.500811	0.034960	0.060859
C76	C	0.539145	-0.025517	0.121792
C77	C	0.539132	-0.069752	0.121783
C78	C	0.385779	0.083676	-0.121979
C79	C	0.385795	0.127908	-0.121965
C80	C	0.424139	0.111669	-0.061019
C81	C	0.323668	0.462753	-0.000135
C82	C	0.276573	0.462759	-0.000145
C83	C	0.011690	0.408519	0.043013
C84	C	-0.165295	0.408509	0.043029
O85	O	-0.165115	0.362404	0.079716
N86	N	-0.214548	0.462719	-0.000073
C87	C	-0.219553	0.516936	-0.043179
O88	O	-0.265506	0.563044	-0.079833
C89	C	-0.042568	0.516945	-0.043190
C90	C	0.006683	0.462732	-0.000091
C91	C	0.060939	0.354310	0.086109
C92	C	0.105183	0.354313	0.086101
C93	C	0.100176	0.408525	0.042997
C94	C	0.050927	0.462735	-0.000099
C95	C	-0.047574	0.571161	-0.086290
C96	C	-0.003323	0.571159	-0.086287
C97	C	0.045929	0.516945	-0.043189
C98	C	0.090164	0.516950	-0.043212
N99	N	0.139416	0.462740	-0.000109
C100	C	0.144422	0.408528	0.042995
C101	C	-0.312470	0.516927	-0.043172
C102	C	-0.356717	0.516924	-0.043170
C103	C	-0.302456	0.408497	0.043040
C104	C	-0.258209	0.408500	0.043033
C105	C	-0.263218	0.462716	-0.000069
C106	C	0.237334	0.408538	0.042974
C107	C	0.281579	0.408546	0.042960
C108	C	0.227315	0.516973	-0.043246
C109	C	0.183074	0.516965	-0.043235
C110	C	0.188087	0.462743	-0.000119
O111	O	0.090022	0.563031	-0.079871
O112	O	0.190380	0.362426	0.079659
C113	C	-0.032554	0.408516	0.043021
C114	C	-0.081803	0.462725	-0.000075
C115	C	-0.086810	0.516938	-0.043179
C116	C	-0.126049	0.462723	-0.000073
C117	C	-0.121043	0.408511	0.043031
C118	C	-0.071791	0.354301	0.086134
C119	C	-0.027548	0.354304	0.086125
C120	C	-0.136062	0.571148	-0.086282
C121	C	-0.180303	0.571140	-0.086271
C122	C	-0.175297	0.516928	-0.043167
C123	C	0.601195	0.462718	-0.000076
C124	C	0.648290	0.462712	-0.000066
C125	C	0.462428	0.462723	-0.220683
C126	C	0.462427	0.462719	-0.295545
C127	C	0.462366	0.601542	-0.000166
C128	C	0.462344	0.648652	-0.000187
C129	C	0.462430	0.462730	-0.432624
C130	C	0.495205	0.397222	-0.409056
C131	C	0.495382	0.397196	-0.486906
C132	C	0.462433	0.462740	-0.567587
C133	C	0.486126	0.495456	-0.565310
C134	C	0.486372	0.495023	-0.487071
C135	C	0.405944	0.495998	-0.487787
C136	C	0.406031	0.494778	-0.564717
C137	C	0.462434	0.462750	-0.643865
C138	C	0.462430	0.462723	-0.356347
C139	C	0.462435	0.462747	0.220472
C140	C	0.462436	0.462751	0.295334
C141	C	0.601260	0.323911	-0.000015
C142	C	0.648377	0.276796	0.000016
C143	C	0.462500	0.323941	0.220533
C144	C	0.462524	0.276835	0.295416
C145	C	0.601264	0.323923	0.220563
C146	C	0.648382	0.276812	0.295455
C147	C	0.323599	0.601547	-0.220773
C148	C	0.276481	0.648659	-0.295666
C149	C	0.323603	0.601559	-0.000196
C150	C	0.276485	0.648675	-0.000226
C151	C	0.462362	0.601530	-0.220744
C152	C	0.462339	0.648636	-0.295626
C153	C	0.643407	0.254671	-0.043055
C154	C	0.687675	0.210407	-0.043043
C155	C	0.736912	0.188266	0.000046
C156	C	0.741881	0.210395	0.043118
C157	C	0.697614	0.254661	0.043100
C158	C	0.489632	0.254713	0.373667
C159	C	0.489652	0.210458	0.444034
C160	C	0.462567	0.188324	0.436148
C161	C	0.435455	0.210451	0.357889
C162	C	0.435432	0.254707	0.287524
C163	C	0.697610	0.254682	0.287559
C164	C	0.741887	0.210422	0.357922
C165	C	0.736935	0.188289	0.436180
C166	C	0.687702	0.210424	0.444075
C167	C	0.643426	0.254686	0.373713
C168	C	0.227253	0.670794	-0.287770
C169	C	0.182976	0.715068	-0.358133
C170	C	0.187928	0.737203	-0.436391
C171	C	0.237161	0.715066	-0.444285
C172	C	0.281436	0.670796	-0.373923
C173	C	0.281456	0.670805	0.042837
C174	C	0.237188	0.715081	0.042805
C175	C	0.187951	0.737224	-0.000286
C176	C	0.182982	0.715092	-0.043354
C177	C	0.227249	0.670820	-0.043327
C178	C	0.489430	0.670756	-0.287714
C179	C	0.489418	0.715011	-0.358068
C180	C	0.462312	0.737147	-0.436333
C181	C	0.435221	0.715023	-0.444243
C182	C	0.435236	0.670766	-0.373891
H183	H	0.570332	-0.171455	0.171395
H184	H	0.413403	0.192422	0.351480
O185	O	0.595635	0.276185	0.381494
C186	C	0.535750	0.326178	0.433557
C187	C	0.589891	0.301848	0.424811
H188	H	0.531084	0.346944	0.468563
H189	H	0.531107	0.288049	0.468698
H190	H	0.504959	0.361592	0.369822
H191	H	0.620714	0.266444	0.488511
H192	H	0.594489	0.340009	0.389629
H193	H	0.321519	0.652774	-0.380362
O194	O	0.408964	0.736523	-0.520317
C195	C	0.413929	0.750050	-0.649728
C196	C	0.443729	0.725681	-0.563605
H197	H	0.442025	0.741282	-0.684744
H198	H	0.383153	0.800214	-0.684881
H199	H	0.394549	0.726657	-0.643291
H200	H	0.463141	0.749030	-0.569966
H201	H	0.474476	0.675514	-0.528483
H202	H	0.479506	0.371540	-0.485634
H203	H	0.381412	0.544255	-0.507711
O204	O	0.516029	0.188864	0.520092
C205	C	0.583971	0.102469	0.649536
C206	C	0.554133	0.126842	0.563436
H207	H	0.614792	0.052325	0.684598
H208	H	0.555931	0.111138	0.684668
H209	H	0.603303	0.125917	0.643058
H210	H	0.534799	0.103410	0.569839
H211	H	0.582197	0.118183	0.528336
O212	O	0.386762	-0.187912	-0.120388
C213	C	0.310688	-0.116493	-0.241257
C214	C	0.352861	-0.183012	-0.174181
H215	H	0.283262	-0.112509	-0.284755
H216	H	0.329559	-0.093863	-0.277418
H217	H	0.288002	-0.093858	-0.211213
H218	H	0.375562	-0.205698	-0.204157
H219	H	0.333959	-0.205597	-0.138026
O220	O	0.241999	0.736441	-0.520285
C221	C	0.274654	0.713487	-0.615439
C222	C	0.269245	0.689216	-0.529322
H223	H	0.296672	0.675320	-0.622779
H224	H	0.296729	0.734207	-0.623018
H225	H	0.234526	0.748918	-0.664299
H226	H	0.309351	0.653764	-0.480409
H227	H	0.247144	0.668533	-0.521813
H228	H	0.462589	0.152287	0.493451
H229	H	0.386130	0.474887	-0.451368
O230	O	0.408868	0.649370	-0.381729
C231	C	0.355128	0.654048	-0.474647
C232	C	0.384960	0.678338	-0.465880
H233	H	0.335799	0.677449	-0.542678
H234	H	0.324317	0.662785	-0.443941
H235	H	0.383217	0.603888	-0.443802
H236	H	0.356910	0.728500	-0.496729
H237	H	0.415777	0.669554	-0.496564
H238	H	0.531904	-0.416831	0.110389
O239	O	0.515798	0.736446	-0.350414
C240	C	0.583652	0.750001	-0.379822
C241	C	0.553829	0.725689	-0.388535
H242	H	0.614399	0.741325	-0.410652
H243	H	0.603059	0.726572	-0.311810
H244	H	0.555547	0.800151	-0.410607
H245	H	0.581900	0.675544	-0.357796
H246	H	0.534414	0.749163	-0.456562
O247	O	0.537984	-0.339241	0.120066
C248	C	0.614050	-0.420015	0.240937
C249	C	0.571861	-0.402103	0.173844
H250	H	0.641457	-0.470839	0.284424
H251	H	0.595194	-0.401252	0.277108
H252	H	0.636755	-0.401205	0.210909
H253	H	0.549142	-0.420907	0.203804
H254	H	0.590749	-0.420857	0.137680
O255	O	0.329254	0.649290	0.084818
C256	C	0.389150	0.599288	0.216381
C257	C	0.335001	0.623635	0.168937
H258	H	0.393818	0.578529	0.284402
H259	H	0.393807	0.637407	0.190899
H260	H	0.419931	0.563865	0.208966
H261	H	0.304188	0.659048	0.176332
H262	H	0.330388	0.585484	0.194429
H263	H	0.241244	0.733093	0.077880
O264	O	0.145006	0.780208	-0.000189
C265	C	0.111236	0.843749	0.047025
C266	C	0.159911	0.795062	0.046993
H267	H	0.123269	0.855782	0.085154
H268	H	0.087215	0.826361	0.074748
H269	H	0.087184	0.885182	-0.018863
H270	H	0.184003	0.753612	0.112856
H271	H	0.183893	0.812498	0.019223
H272	H	0.142887	0.733128	-0.078438
H273	H	0.223195	0.652803	-0.078392
H274	H	0.413360	0.272714	0.223811
H275	H	0.223248	0.561111	-0.078344
H276	H	0.392788	-0.277653	-0.110746
H277	H	0.701651	0.272696	0.223844
H278	H	0.462304	0.773185	-0.493612
O279	O	0.020254	0.301587	0.128069
C280	C	0.069386	0.194043	0.213537
C281	C	0.015222	0.253705	0.166082
H282	H	0.065336	0.155315	0.244269
H283	H	0.091471	0.191291	0.262504
H284	H	0.091452	0.191358	0.168915
H285	H	-0.006886	0.256431	0.210641
H286	H	-0.006824	0.256432	0.117105
H287	H	-0.220405	0.615291	-0.121375
H288	H	-0.316557	0.561078	-0.078276
H289	H	0.772991	0.152248	0.493467
H290	H	0.142970	0.561111	-0.078341
H291	H	0.223211	0.652774	-0.224054
H292	H	0.781976	0.192361	0.078199
H293	H	0.511502	0.652739	-0.223993
O294	O	0.135195	0.736478	-0.350307
C295	C	0.086135	0.731812	-0.257413
C296	C	0.140276	0.707505	-0.266161
H297	H	0.090224	0.708407	-0.189386
H298	H	0.064054	0.723094	-0.288144
H299	H	0.064042	0.781969	-0.288245
H300	H	0.162412	0.657346	-0.235324
H301	H	0.162317	0.716269	-0.235452
O302	O	0.595620	0.276127	-0.084987
C303	C	0.546541	0.271434	-0.170414
C304	C	0.600688	0.247094	-0.122969
H305	H	0.550620	0.247963	-0.201120
H306	H	0.524436	0.321583	-0.219400
H307	H	0.524479	0.262749	-0.125789
H308	H	0.622794	0.255737	-0.167530
H309	H	0.622755	0.196953	-0.073971
H310	H	0.151871	0.773250	-0.493677
H311	H	0.781970	0.192405	0.351480
H312	H	0.683618	0.192395	-0.078117
O313	O	0.535983	0.467561	-0.443667
C314	C	0.625414	0.418395	-0.435946
C315	C	0.569254	0.449472	-0.485169
H316	H	0.652328	0.403772	-0.469488
H317	H	0.637164	0.377561	-0.372096
H318	H	0.628321	0.450886	-0.429838
H319	H	0.566305	0.417028	-0.491341
H320	H	0.557529	0.490315	-0.548990
O321	O	0.779857	0.145244	0.000008
C322	C	0.813627	0.081752	-0.047283
C323	C	0.764952	0.130465	-0.047293
H324	H	0.801594	0.069798	-0.085537
H325	H	0.837676	0.040271	0.018576
H326	H	0.837650	0.099156	-0.074928
H327	H	0.740889	0.113117	-0.019686
H328	H	0.740941	0.171936	-0.113167
O329	O	0.459724	0.552402	-0.510293
C330	C	0.411195	0.656690	-0.623076
C331	C	0.441366	0.591739	-0.596889
H332	H	0.396335	0.688512	-0.693091
H333	H	0.437850	0.662769	-0.596191
H334	H	0.377031	0.666873	-0.599326
H335	H	0.475530	0.581511	-0.620632
H336	H	0.414676	0.585692	-0.623764
H337	H	0.536627	0.371766	-0.369242
H338	H	0.683678	0.192397	0.507802
H339	H	0.379574	0.542586	-0.622174
O340	O	0.576385	-0.261174	0.180986
C341	C	0.652430	-0.332582	0.301897
C342	C	0.610229	-0.266065	0.234855
H343	H	0.679798	-0.336557	0.345478
H344	H	0.675181	-0.355237	0.271912
H345	H	0.633529	-0.355197	0.337967
H346	H	0.629088	-0.243398	0.198762
H347	H	0.587483	-0.243454	0.264890
H348	H	0.532058	0.122860	0.110530
O349	O	0.538080	0.200672	0.120037
C350	C	0.572055	0.234839	0.174083
C351	C	0.529876	0.252660	0.107077
H352	H	0.565431	0.276860	0.163637
H353	H	0.611773	0.207245	0.171067
H354	H	0.570166	0.207210	0.237192
H355	H	0.531717	0.280309	0.043936
H356	H	0.490176	0.280223	0.110166
H357	H	0.392954	0.342298	-0.110586
H358	H	0.392938	0.262054	-0.110621
O359	O	-0.210407	0.355784	0.084977
C360	C	-0.161271	0.248240	0.170445
C361	C	-0.215436	0.307901	0.122988
H362	H	-0.165318	0.209511	0.201175
H363	H	-0.139188	0.245490	0.219413
H364	H	-0.139203	0.245557	0.125824
H365	H	-0.237546	0.310624	0.167546
H366	H	-0.237478	0.310626	0.074009
O367	O	-0.141022	0.623866	-0.128232
C368	C	-0.199521	0.731409	-0.213707
C369	C	-0.193973	0.671745	-0.166240
H370	H	-0.242328	0.770134	-0.244435
H371	H	-0.180202	0.734161	-0.262678
H372	H	-0.180133	0.734099	-0.169093
H373	H	-0.213364	0.669014	-0.210790
H374	H	-0.213277	0.669018	-0.117258
H375	H	0.701668	0.272669	0.078178
H376	H	0.354541	0.044443	-0.171647
O377	O	0.384826	0.466420	-0.564255
C378	C	0.315836	0.474434	-0.633140
C379	C	0.339788	0.506626	-0.633752
H380	H	0.279424	0.506923	-0.689332
H381	H	0.305392	0.457520	-0.574793
H382	H	0.344986	0.435008	-0.634868
H383	H	0.310663	0.546076	-0.632054
H384	H	0.350243	0.523497	-0.692096
O385	O	0.576422	-0.128469	0.181019
C386	C	0.652462	-0.199876	0.301939
C387	C	0.610265	-0.133359	0.234890
H388	H	0.679828	-0.203852	0.345522
H389	H	0.675214	-0.222537	0.271962
H390	H	0.633555	-0.222486	0.338006
H391	H	0.629129	-0.110698	0.198801
H392	H	0.587516	-0.110743	0.264917
H393	H	0.511688	0.272730	0.380103
H394	H	0.354523	-0.035807	-0.171663
H395	H	0.321682	0.364397	0.078058
O396	O	0.576369	-0.041184	0.180915
C397	C	0.610344	-0.007016	0.234958
C398	C	0.568167	0.010804	0.167950
H399	H	0.603721	0.035006	0.224509
H400	H	0.650063	-0.034613	0.231947
H401	H	0.608452	-0.034641	0.298066
H402	H	0.570010	0.038451	0.104810
H403	H	0.528466	0.038372	0.171034
H404	H	0.354554	0.096907	-0.171611
O405	O	0.348530	0.186628	-0.181249
C406	C	0.272461	0.258040	-0.302124
C407	C	0.314634	0.191522	-0.235041
H408	H	0.245039	0.262019	-0.345622
H409	H	0.291331	0.280671	-0.338284
H410	H	0.249770	0.280678	-0.272086
H411	H	0.337340	0.168833	-0.265012
H412	H	0.295733	0.168936	-0.198888
O413	O	-0.008098	0.623773	-0.128088
C414	C	0.036012	0.671839	-0.166349
C415	C	0.041494	0.612212	-0.118960
H416	H	0.076101	0.662513	-0.159001
H417	H	0.013967	0.698580	-0.140830
H418	H	0.013902	0.698570	-0.234358
H419	H	0.063615	0.585433	-0.050945
H420	H	0.063519	0.585516	-0.144547
O421	O	0.242300	0.355815	0.084867
C422	C	0.300800	0.248272	0.170406
C423	C	0.295251	0.307937	0.122987
H424	H	0.343608	0.209547	0.201252
H425	H	0.281472	0.245513	0.125822
H426	H	0.281422	0.245588	0.219298
H427	H	0.314632	0.310661	0.074094
H428	H	0.314565	0.310670	0.167622
H429	H	0.145282	0.310167	0.121193
O430	O	-0.404585	0.569550	-0.084925
C431	C	-0.486011	0.632500	-0.077058
C432	C	-0.431823	0.572873	-0.029677
H433	H	-0.508045	0.635213	-0.032408
H434	H	-0.508121	0.635221	-0.125956
H435	H	-0.481969	0.671234	-0.107886
H436	H	-0.435817	0.534106	0.001202
H437	H	-0.409733	0.570205	0.019176
O438	O	-0.066958	0.301653	0.128114
C439	C	-0.085460	0.238759	0.236007
C440	C	-0.090955	0.298392	0.188542
H441	H	-0.104867	0.236108	0.284862
H442	H	-0.042668	0.199984	0.266879
H443	H	-0.104811	0.236055	0.191371
H444	H	-0.071633	0.301155	0.233124
H445	H	-0.133756	0.337139	0.157658
H446	H	0.479414	0.371370	-0.369783
H447	H	0.065024	0.310161	0.121214
O448	O	0.545118	0.366645	-0.484765
C449	C	0.629466	0.272775	-0.411489
C450	C	0.573157	0.307304	-0.413803
H451	H	0.652149	0.224788	-0.354131
H452	H	0.648104	0.295324	-0.410004
H453	H	0.629821	0.272643	-0.468663
H454	H	0.572755	0.307447	-0.356641
H455	H	0.554543	0.284743	-0.415330
O456	O	0.535202	0.468756	-0.567419
C457	C	0.593899	0.480224	-0.639764
C458	C	0.538297	0.510537	-0.637492
H459	H	0.596422	0.513995	-0.696403
H460	H	0.604551	0.441127	-0.642600
H461	H	0.621900	0.463116	-0.581928
H462	H	0.510259	0.527683	-0.695316
H463	H	0.527689	0.549607	-0.634615
H464	H	-0.298386	0.364355	0.078132
H465	H	-0.087670	0.615308	-0.121385
H466	H	0.463389	0.543655	-0.622134
