data_functionalizedCrystal
_audit_creation_method	'MofGen! by Chris Wilmer'
_symmetry_space_group_name_H-M	'P1'
_symmetry_Int_Tables_number	1
_symmetry_cell_setting	triclinic
loop_
_symmetry_equiv_pos_as_xyz
  x,y,z
_cell_length_a	12.811445
_cell_length_b	14.044190
_cell_length_c	11.892095
_cell_angle_alpha	94.240074
_cell_angle_beta	80.666316
_cell_angle_gamma	88.597571
loop_
_atom_site_label
_atom_site_type_symbol
_atom_site_fract_x
_atom_site_fract_y
_atom_site_fract_z
O1	O	1.420303	0.112366	-0.239606
O2	O	1.113967	0.128263	-0.208208
O3	O	1.262532	-0.017657	-0.223413
O4	O	1.271738	0.258285	-0.224401
O5	O	1.250143	-0.005509	-0.034137
O6	O	1.101578	0.140410	-0.018933
O7	O	1.407915	0.124514	-0.050330
Zn8	Zn	1.252779	0.134391	-0.004580
Zn9	Zn	1.269102	0.118385	-0.253958
O10	O	1.259350	0.270433	-0.035126
C11	C	1.068331	0.133817	-0.109528
C12	C	0.950807	0.132258	-0.097481
C13	C	0.743472	0.116100	-0.281214
C14	C	0.633048	0.114635	-0.269900
C15	C	0.619533	0.127869	-0.063541
C16	C	0.729957	0.129334	-0.074855
C17	C	0.791923	0.123448	-0.183695
C18	C	0.902349	0.124906	-0.195007
C19	C	0.888832	0.138147	0.011351
C20	C	0.778408	0.136682	0.022665
C21	C	1.252310	-0.046887	-0.128359
C22	C	1.240299	-0.152080	-0.127118
C23	C	1.303525	-0.402537	-0.133643
C24	C	1.218361	-0.344682	-0.124906
C25	C	1.230571	-0.237509	-0.126137
C26	C	1.291318	-0.509720	-0.132412
C27	C	1.453551	0.118959	-0.149013
C28	C	1.571075	0.120518	-0.161067
C29	C	1.269571	0.299663	-0.130182
C30	C	1.281582	0.404856	-0.131430
N31	N	1.241647	0.145313	0.165613
N32	N	1.280242	0.107455	-0.424153
C33	C	1.357700	0.031397	0.390384
C34	C	1.349927	0.039038	0.509521
C35	C	1.218323	0.168233	0.523028
C36	C	1.226096	0.160592	0.403891
C37	C	1.295788	0.092172	0.337573
C38	C	1.303566	0.084535	0.218433
C39	C	1.171957	0.213725	0.231942
C40	C	1.164184	0.221367	0.351079
H41	H	0.569062	0.132670	0.025072
H42	H	0.593603	0.108654	-0.349310
H43	H	1.107439	0.277071	0.405090
C44	C	0.710234	0.143154	0.142382
N45	N	0.658886	0.148025	0.232556
H46	H	0.928292	0.144128	0.090758
H47	H	0.952800	0.120113	-0.283631
C48	C	1.103849	0.280582	0.173840
N49	N	1.052554	0.330939	0.130077
C50	C	1.107473	-0.386504	-0.113542
N51	N	1.023954	-0.418008	-0.104978
C52	C	1.414404	-0.360713	-0.144979
N53	N	1.497917	-0.329199	-0.153508
C54	C	1.380224	0.009271	0.145484
N55	N	1.437962	-0.047424	0.090543
C56	C	1.418032	-0.027823	0.567610
N57	N	1.469329	-0.078187	0.611362
C58	C	0.811636	0.109622	-0.400937
N59	N	0.862977	0.104743	-0.491115
H60	H	1.414453	-0.024307	0.336386
H61	H	1.161574	0.223932	0.577041
