data_functionalizedCrystal
_audit_creation_method	'MofGen! by Chris Wilmer'
_symmetry_space_group_name_H-M	'P1'
_symmetry_Int_Tables_number	1
_symmetry_cell_setting	triclinic
loop_
_symmetry_equiv_pos_as_xyz
  x,y,z
_cell_length_a	9.565339
_cell_length_b	14.044220
_cell_length_c	14.044220
_cell_angle_alpha	86.811123
_cell_angle_beta	89.991408
_cell_angle_gamma	90.002275
loop_
_atom_site_label
_atom_site_type_symbol
_atom_site_fract_x
_atom_site_fract_y
_atom_site_fract_z
O1	O	0.116264	1.277166	-0.230171
O2	O	0.616264	1.777166	0.269829
O3	O	0.116268	1.000494	-0.221866
O4	O	0.616268	1.500494	0.278134
O5	O	0.116252	1.134677	-0.087683
O6	O	0.616252	1.634677	0.412317
O7	O	0.116280	1.142983	-0.364354
O8	O	0.616280	1.642983	0.135646
O9	O	-0.116268	1.134669	-0.087669
O10	O	0.383732	1.634669	0.412331
O11	O	-0.116253	1.000486	-0.221852
O12	O	0.383747	1.500486	0.278148
O13	O	-0.116256	1.277157	-0.230158
O14	O	0.383744	1.777157	0.269842
Zn15	Zn	-0.153172	1.138820	-0.226003
Zn16	Zn	0.346828	1.638820	0.273997
Zn17	Zn	0.153183	1.138831	-0.226021
Zn18	Zn	0.653183	1.638831	0.273979
O19	O	-0.116240	1.142974	-0.364341
O20	O	0.383760	1.642974	0.135659
C21	C	0.000008	0.964868	-0.218223
C22	C	0.500008	1.464868	0.281777
C23	C	0.000009	0.858725	-0.207379
C24	C	0.500009	1.358725	0.292621
C25	C	-0.000008	1.131037	-0.052054
C26	C	0.499992	1.631037	0.447946
C27	C	-0.000010	1.120193	0.054088
C28	C	0.499990	1.620193	0.554088
N29	N	-0.362251	1.138819	-0.225991
N30	N	0.137749	1.638819	0.274009
C31	C	-0.546594	1.200309	-0.163368
C32	C	-0.046594	1.700309	0.336632
C33	C	-0.453347	1.226874	-0.251002
C34	C	0.046653	1.726874	0.248998
C35	C	-0.453429	1.112297	-0.138367
C36	C	0.046571	1.612297	0.361633
C37	C	-0.546542	1.165451	-0.313707
C38	C	-0.046542	1.665451	0.186293
C39	C	-0.546632	1.050832	-0.201013
C40	C	-0.046632	1.550832	0.298987
C41	C	-0.453427	1.077365	-0.288707
C42	C	0.046573	1.577365	0.211293
N43	N	0.362263	1.138839	-0.226026
N44	N	0.862263	1.638839	0.273974
C45	C	0.000007	1.312783	-0.233800
C46	C	0.500007	1.812783	0.266200
C47	C	0.000015	1.418926	-0.244645
C48	C	0.500015	1.918926	0.255355
C49	C	0.000016	1.613264	-0.264471
C50	C	0.500016	2.113264	0.235529
C51	C	0.000008	1.664394	-0.187557
C52	C	0.500008	2.164394	0.312443
C53	C	0.000008	1.772530	-0.198588
C54	C	0.500008	2.272530	0.301412
C55	C	0.000016	1.505118	-0.253441
C56	C	0.500016	2.005118	0.246559
C57	C	0.000023	1.146614	-0.399969
C58	C	0.500023	1.646614	0.100031
C59	C	0.000034	1.157459	-0.506112
C60	C	0.500034	1.657459	-0.006112
C61	C	0.000010	1.100366	0.248426
C62	C	0.500010	1.600366	0.748426
C63	C	0.000014	1.177281	0.299556
C64	C	0.500014	1.677281	0.799556
C65	C	0.000025	1.166249	0.407692
C66	C	0.500025	1.666249	0.907692
C67	C	-0.000001	1.111397	0.140280
C68	C	0.499999	1.611397	0.640280
H69	H	-0.587500	1.252344	-0.110462
H70	H	-0.087500	1.752344	0.389538
H71	H	-0.587637	0.976434	-0.179839
H72	H	-0.087637	1.476434	0.320161
O73	O	0.000078	1.619586	-0.099184
O74	O	0.500078	2.119586	0.400816
C75	C	0.000051	1.520027	-0.107696
C76	C	0.500051	2.020027	0.392304
H77	H	0.044062	1.503064	-0.180264
H78	H	0.544062	2.003064	0.319736
H79	H	0.067570	1.484611	-0.048955
H80	H	0.567570	1.984611	0.451045
H81	H	-0.111497	1.491899	-0.100750
H82	H	0.388503	1.991899	0.399250
H83	H	-0.412525	1.089857	-0.064249
H84	H	0.087475	1.589857	0.435751
H85	H	0.000107	1.251414	0.262117
H86	H	0.500107	1.751414	0.762117
H87	H	0.000025	1.650701	-0.338599
H88	H	0.500025	2.150701	0.161401
H89	H	0.000015	1.026239	0.285863
H90	H	0.500015	1.526239	0.785863
H91	H	-0.587273	1.187972	-0.387849
H92	H	-0.087273	1.687972	0.112151
O93	O	-0.404519	1.315703	-0.276077
O94	O	0.095481	1.815703	0.223923
C95	C	-0.452007	1.380306	-0.209868
C96	C	0.047993	1.880306	0.290132
H97	H	-0.478204	1.339760	-0.139554
H98	H	0.021796	1.839760	0.360446
H99	H	-0.366719	1.434956	-0.197501
H100	H	0.133281	1.934956	0.302499
H101	H	-0.549496	1.418442	-0.239009
H102	H	-0.049496	1.918442	0.260991
H103	H	-0.412778	1.025376	-0.341742
H104	H	0.087222	1.525376	0.158258
