data_functionalizedCrystal
_audit_creation_method	'MofGen! by Chris Wilmer'
_symmetry_space_group_name_H-M	'P1'
_symmetry_Int_Tables_number	1
_symmetry_cell_setting	triclinic
loop_
_symmetry_equiv_pos_as_xyz
  x,y,z
_cell_length_a	17.077404
_cell_length_b	12.759399
_cell_length_c	17.077396
_cell_angle_alpha	89.972395
_cell_angle_beta	89.982940
_cell_angle_gamma	90.015341
loop_
_atom_site_label
_atom_site_type_symbol
_atom_site_fract_x
_atom_site_fract_y
_atom_site_fract_z
Zn1	Zn	1.200078	-0.418243	-0.443856
Zn2	Zn	1.200009	-0.593949	-0.312596
Zn3	Zn	1.068816	-0.418285	-0.312604
Zn4	Zn	1.068796	-0.593882	-0.443820
O5	O	1.134424	-0.506090	-0.378219
O6	O	1.309916	-0.441562	-0.426456
O7	O	1.182585	-0.570692	-0.202750
O8	O	1.086265	-0.271259	-0.330034
O9	O	1.309865	-0.570652	-0.330020
O10	O	1.182703	-0.271228	-0.426464
O11	O	1.086198	-0.441633	-0.202756
O12	O	0.958966	-0.441568	-0.329998
O13	O	1.086231	-0.570537	-0.553671
O14	O	0.958951	-0.570578	-0.426402
O15	O	1.182684	-0.441497	-0.553698
O16	O	1.182566	-0.740961	-0.329984
O17	O	1.086164	-0.740912	-0.426394
C18	C	0.930477	-0.506071	-0.378197
C19	C	0.843227	-0.506088	-0.378207
C20	C	0.802250	-0.573365	-0.428323
C21	C	0.720269	-0.573367	-0.428336
C22	C	0.679267	-0.506097	-0.378227
C23	C	0.720250	-0.438813	-0.328108
C24	C	0.802229	-0.438806	-0.328100
C25	C	0.549380	-0.438833	-0.328127
C26	C	0.467396	-0.438841	-0.328134
C27	C	0.467420	-0.573394	-0.428363
C28	C	0.549399	-0.573388	-0.428355
C29	C	0.590376	-0.506104	-0.378235
C30	C	1.134376	-0.779057	-0.378201
C31	C	1.134428	-0.895834	-0.378220
C32	C	1.184681	-0.950686	-0.328076
C33	C	1.184732	-1.060410	-0.328103
C34	C	1.084268	-1.060419	-0.428418
C35	C	1.084222	-0.950697	-0.428395
C36	C	1.277387	-1.210287	-0.300171
C37	C	1.327634	-1.265143	-0.250016
C38	C	1.339718	-1.229597	-0.173426
C39	C	1.301543	-1.139196	-0.146975
C40	C	1.251290	-1.084345	-0.197127
C41	C	1.239222	-1.119890	-0.273728
C42	C	0.991565	-0.800819	-0.456318
C43	C	0.941308	-0.745966	-0.506466
C44	C	0.929217	-0.781510	-0.583058
C45	C	0.967378	-0.871915	-0.609505
C46	C	1.017635	-0.926768	-0.559357
C47	C	1.029727	-0.891216	-0.482766
C48	C	1.339169	-0.506110	-0.378241
C49	C	1.426419	-0.506118	-0.378251
C50	C	1.134463	-0.506005	-0.582963
C51	C	1.134480	-0.505968	-0.670213
C52	C	1.134494	-0.232056	-0.378254
C53	C	1.134524	-0.115280	-0.378269
C54	C	1.184740	-0.573047	-1.046027
C55	C	1.184720	-0.573078	-0.964047
C56	C	1.134530	-0.505894	-0.923062
C57	C	1.084352	-0.438683	-0.964063
C58	C	1.084368	-0.438658	-1.046042
C59	C	1.084322	-0.438737	-0.793193
C60	C	1.084307	-0.438760	-0.711208
C61	C	1.184674	-0.573157	-0.711197
C62	C	1.184691	-0.573132	-0.793176
C63	C	1.134513	-0.505919	-0.834171
C64	C	1.134431	-0.506099	-0.174271
C65	C	1.134567	-0.505839	-0.087022
H66	H	0.835627	-0.628147	-0.469125
H67	H	1.225566	-0.627818	-0.930672
H68	H	1.043462	-0.384006	-0.826568
O69	O	1.238815	-0.645611	-0.837376
H70	H	1.300428	-0.627625	-0.821651
O71	O	1.030223	-0.366212	-0.919861
H72	H	0.990268	-0.413233	-0.882489
O73	O	0.676019	-0.366283	-0.274049
H74	H	0.638676	-0.312898	-0.309243
H75	H	1.225531	-0.627884	-0.677815
H76	H	0.686909	-0.628151	-0.469145
H77	H	1.225563	-0.906019	-0.287222
H78	H	1.043440	-0.384050	-0.677841
O79	O	1.393919	-1.288763	-0.119336
H80	H	1.360749	-1.315668	-0.067160
O81	O	0.593628	-0.645937	-0.482401
H82	H	0.551363	-0.692716	-0.517261
O83	O	0.846432	-0.366244	-0.274047
H84	H	0.883765	-0.413198	-0.234052
H85	H	1.048710	-1.000377	-0.580899
H86	H	1.043513	-0.383929	-1.079419
H87	H	0.434014	-0.384052	-0.287340
O88	O	0.423231	-0.645960	-0.482430
H89	H	0.359337	-0.634655	-0.474027
H90	H	0.910240	-0.672350	-0.484928
H91	H	0.582741	-0.384035	-0.287321
O92	O	0.954346	-0.910260	-0.692117
H93	H	0.912996	-0.856924	-0.722547
O94	O	1.368815	-1.362638	-0.278541
H95	H	1.351985	-1.378132	-0.340233
H96	H	1.220211	-1.010741	-0.175592
H97	H	1.311379	-1.110268	-0.084605
H98	H	1.001413	-0.771864	-0.393953
O99	O	1.264335	-1.248642	-0.382776
H100	H	1.299303	-1.320733	-0.392730
H101	H	0.888291	-0.736840	-0.623887
O102	O	1.030104	-1.119592	-0.482519
H103	H	1.038568	-1.205104	-0.474103
O104	O	1.238865	-0.645520	-1.090231
H105	H	1.273742	-0.692270	-1.047948
