data_functionalizedCrystal
_audit_creation_method	'MofGen! by Chris Wilmer'
_symmetry_space_group_name_H-M	'P1'
_symmetry_Int_Tables_number	1
_symmetry_cell_setting	triclinic
loop_
_symmetry_equiv_pos_as_xyz
  x,y,z
_cell_length_a	17.038272
_cell_length_b	14.971486
_cell_length_c	14.048226
_cell_angle_alpha	90.006640
_cell_angle_beta	90.000663
_cell_angle_gamma	87.362843
loop_
_atom_site_label
_atom_site_type_symbol
_atom_site_fract_x
_atom_site_fract_y
_atom_site_fract_z
O1	O	-1.037595	-0.194250	-0.079043
O2	O	-0.537595	0.305750	0.420957
O3	O	-0.809961	-0.191166	-0.079071
O4	O	-0.309961	0.308834	0.420929
O5	O	-0.929879	-0.062965	-0.079049
O6	O	-0.429879	0.437035	0.420951
O7	O	-0.917677	-0.322451	-0.079064
O8	O	-0.417677	0.177549	0.420936
O9	O	-0.929865	-0.062956	0.079272
O10	O	-0.429865	0.437044	0.579272
O11	O	-0.809946	-0.191157	0.079251
O12	O	-0.309946	0.308843	0.579251
O13	O	-1.037581	-0.194241	0.079279
O14	O	-0.537581	0.305759	0.579279
Zn15	Zn	-0.923761	-0.192697	0.104402
Zn16	Zn	-0.423761	0.307303	0.604402
Zn17	Zn	-0.923780	-0.192710	-0.104194
Zn18	Zn	-0.423780	0.307290	0.395806
O19	O	-0.917662	-0.322442	0.079257
O20	O	-0.417662	0.177558	0.579257
C21	C	-0.929326	-0.029595	0.000111
C22	C	-0.429326	0.470405	0.500111
C23	C	-0.927691	0.069825	0.000110
C24	C	-0.427691	0.569825	0.500110
C25	C	-0.780822	-0.188356	0.000087
C26	C	-0.280822	0.311644	0.500087
C27	C	-0.694019	-0.179986	0.000076
C28	C	-0.194019	0.320014	0.500076
C29	C	-1.066719	-0.197051	0.000119
C30	C	-0.566719	0.302949	0.500119
C31	C	-1.153522	-0.205421	0.000124
C32	C	-0.653522	0.294579	0.500124
C33	C	-0.643995	-0.256830	0.000072
C34	C	-0.143995	0.243170	0.500072
C35	C	-0.562435	-0.248961	0.000086
C36	C	-0.062435	0.251039	0.500086
C37	C	-0.530901	-0.164246	0.000096
C38	C	-0.030901	0.335754	0.500096
C39	C	-0.580933	-0.087397	0.000103
C40	C	-0.080933	0.412603	0.500103
C41	C	-0.662491	-0.095267	0.000096
C42	C	-0.162491	0.404733	0.500096
C43	C	-0.285111	-0.136442	0.000124
C44	C	0.214889	0.363558	0.500124
C45	C	-0.203547	-0.128577	0.000127
C46	C	0.296453	0.371423	0.500127
C47	C	-0.185054	-0.290142	0.000112
C48	C	0.314946	0.209858	0.500112
C49	C	-0.266615	-0.298005	0.000100
C50	C	0.233385	0.201995	0.500100
C51	C	-0.316639	-0.221155	0.000111
C52	C	0.183361	0.278845	0.500111
C53	C	-0.447535	-0.156200	0.000107
C54	C	0.052465	0.343800	0.500107
C55	C	-0.400004	-0.229202	0.000107
C56	C	0.099996	0.270798	0.500107
C57	C	-0.918215	-0.355812	0.000095
C58	C	-0.418215	0.144188	0.500095
C59	C	-0.919850	-0.455232	0.000090
C60	C	-0.419850	0.044768	0.500090
N61	N	-0.923754	-0.192689	0.246762
N62	N	-0.423754	0.307311	0.746762
C63	C	-0.998140	0.121776	0.000120
C64	C	-0.498140	0.621776	0.500120
C65	C	-0.996598	0.215190	0.000110
C66	C	-0.496598	0.715190	0.500110
C67	C	-0.924607	0.256653	0.000097
C68	C	-0.424607	0.756653	0.500097
C69	C	-0.854153	0.204695	0.000085
C70	C	-0.354153	0.704695	0.500085
C71	C	-0.855695	0.111282	0.000088
C72	C	-0.355695	0.611282	0.500088
C73	C	-0.850944	0.399398	0.000081
C74	C	-0.350944	0.899398	0.500081
C75	C	-0.849402	0.492817	0.000080
C76	C	-0.349402	0.992817	0.500080
C77	C	-0.991847	0.503306	0.000103
C78	C	-0.491847	1.003306	0.500103
C79	C	-0.993389	0.409893	0.000106
C80	C	-0.493389	0.909893	0.500106
C81	C	-0.922935	0.357942	0.000096
C82	C	-0.422935	0.857942	0.500096
N83	N	-0.923794	-0.192711	-0.246554
N84	N	-0.423794	0.307289	0.253446
C85	C	-0.976870	-0.135948	0.296590
C86	C	-0.476870	0.364052	0.796590
C87	C	-0.976876	-0.135948	0.396248
C88	C	-0.476876	0.364052	0.896248
C89	C	-0.923768	-0.192694	0.446076
C90	C	-0.423768	0.307306	0.946076
C91	C	-0.870645	-0.249438	0.396241
C92	C	-0.370645	0.250562	0.896241
C93	C	-0.870637	-0.249433	0.296585
C94	C	-0.370637	0.250567	0.796585
C95	C	-0.870668	-0.249446	0.603956
C96	C	-0.370668	0.250554	1.103956
C97	C	-0.870677	-0.249452	0.703618
C98	C	-0.370677	0.250548	1.203618
C99	C	-0.976907	-0.135961	0.703618
C100	C	-0.476907	0.364039	1.203618
C101	C	-0.976898	-0.135956	0.603962
C102	C	-0.476898	0.364044	1.103962
C103	C	-0.923777	-0.192701	0.554134
C104	C	-0.423777	0.307299	1.054134
H105	H	-0.669662	-0.325813	0.000063
H106	H	-0.169662	0.174187	0.500063
H107	H	-0.827400	-0.295638	0.436817
H108	H	-0.327400	0.204362	0.936817
H109	H	-0.292283	-0.366988	0.000080
H110	H	0.207717	0.133012	0.500080
H111	H	-0.325831	-0.073865	0.000134
H112	H	0.174169	0.426135	0.500134
O113	O	-1.034176	-0.074750	0.449978
O114	O	-0.534176	0.425250	0.949978
H115	H	-1.001238	-0.028734	0.495386
H116	H	-0.501238	0.471266	0.995386
O117	O	-0.813382	-0.310635	0.757368
O118	O	-0.313382	0.189365	1.257368
H119	H	-0.776430	-0.350078	0.705980
H120	H	-0.276430	0.149922	1.205980
H121	H	-0.790780	0.526573	0.000086
H122	H	-0.290780	1.026573	0.500086
O123	O	-0.774954	0.343362	0.000082
O124	O	-0.274954	0.843362	0.500082
H125	H	-0.740504	0.358768	-0.064444
H126	H	-0.240504	0.858768	0.435556
O127	O	-1.072586	0.271219	0.000135
O128	O	-0.572586	0.771219	0.500135
H129	H	-1.107049	0.255789	-0.064379
H130	H	-0.607049	0.755789	0.435621
H131	H	-1.056763	0.088024	0.000135
H132	H	-0.556763	0.588024	0.500135
O133	O	-0.716453	-0.012388	0.000103
O134	O	-0.216453	0.487612	0.500103
H135	H	-0.705241	0.027856	-0.064424
H136	H	-0.205241	0.527856	0.435576
O137	O	-0.813360	-0.310645	0.550225
O138	O	-0.313360	0.189355	1.050225
H139	H	-0.775317	-0.270063	0.504850
H140	H	-0.275317	0.229937	1.004850
O141	O	-0.131103	-0.373027	0.000120
O142	O	0.368897	0.126973	0.500120
H143	H	-0.069092	-0.353327	0.000137
H144	H	0.430908	0.146673	0.500137
O145	O	-0.813351	-0.310636	0.242835
O146	O	-0.313351	0.189364	0.742835
H147	H	-0.776428	-0.350103	0.294224
H148	H	-0.276428	0.149897	0.794224
O149	O	-1.071034	0.365167	0.000108
O150	O	-0.571034	0.865167	0.500108
H151	H	-1.119766	0.416983	0.000101
H152	H	-0.619766	0.916983	0.500101
H153	H	-0.521707	-0.311535	0.000082
H154	H	-0.021707	0.188465	0.500082
H155	H	-1.049214	0.545610	0.000108
H156	H	-0.549214	1.045610	0.500108
O157	O	-0.776506	0.249415	0.000083
O158	O	-0.276506	0.749415	0.500083
H159	H	-0.772401	0.291725	-0.064440
H160	H	-0.272401	0.791725	0.435560
H161	H	-0.177876	-0.059589	0.000135
H162	H	0.322124	0.440411	0.500135
H163	H	-0.798329	0.068984	0.000080
H164	H	-0.298329	0.568984	0.500080
O165	O	-1.034207	-0.074752	0.757345
O166	O	-0.534207	0.425248	1.257345
H167	H	-1.001266	-0.028737	0.802752
H168	H	-0.501266	0.471263	1.302752
O169	O	-1.034149	-0.074739	0.242847
O170	O	-0.534149	0.425261	0.742847
H171	H	-1.071078	-0.035277	0.294242
H172	H	-0.571078	0.464723	0.794242
O173	O	-0.546928	0.003977	0.000118
O174	O	-0.046928	0.503977	0.500118
H175	H	-0.481811	-0.003458	0.000113
H176	H	0.018189	0.496542	0.500113
H177	H	-0.421851	-0.087226	0.000143
H178	H	0.078149	0.412774	0.500143
O179	O	-0.434007	-0.320573	0.000100
O180	O	0.065993	0.179427	0.500100
H181	H	-0.470717	-0.328023	-0.064436
H182	H	0.029283	0.171977	0.435564
O183	O	-1.034174	-0.074751	0.550212
O184	O	-0.534174	0.425249	1.050212
H185	H	-1.071109	-0.035285	0.601600
H186	H	-0.571109	0.464715	1.101600
