data_functionalizedCrystal
_audit_creation_method	'MofGen! by Chris Wilmer'
_symmetry_space_group_name_H-M	'P1'
_symmetry_Int_Tables_number	1
_symmetry_cell_setting	triclinic
loop_
_symmetry_equiv_pos_as_xyz
  x,y,z
_cell_length_a	16.959455
_cell_length_b	17.637651
_cell_length_c	16.959447
_cell_angle_alpha	101.247502
_cell_angle_beta	90.020374
_cell_angle_gamma	101.214853
loop_
_atom_site_label
_atom_site_type_symbol
_atom_site_fract_x
_atom_site_fract_y
_atom_site_fract_z
Zn1	Zn	1.144780	-0.314809	0.383322
Zn2	Zn	1.117987	-0.447035	0.224382
Zn3	Zn	1.012603	-0.314834	0.251141
Zn4	Zn	0.985870	-0.446976	0.356519
O5	O	1.065310	-0.380914	0.303841
O6	O	1.251834	-0.332363	0.362257
O7	O	1.103983	-0.429533	0.117314
O8	O	1.052538	-0.204192	0.291090
O9	O	1.232150	-0.429509	0.245485
O10	O	1.149647	-0.204173	0.388204
O11	O	1.026558	-0.332406	0.136973
O12	O	0.898449	-0.332349	0.265100
O13	O	1.006974	-0.429409	0.470692
O14	O	0.878808	-0.429433	0.342521
O15	O	1.123725	-0.332306	0.490385
O16	O	1.078061	-0.557666	0.219495
O17	O	0.980995	-0.557623	0.316575
C18	C	0.859949	-0.380888	0.303806
C19	C	0.772091	-0.380896	0.303806
C20	C	0.390362	-0.431447	0.243022
C21	C	0.410849	-0.330445	0.364743
C22	C	0.493397	-0.330432	0.364726
C23	C	0.524431	-0.380928	0.303857
C24	C	0.472917	-0.431438	0.243005
C25	C	0.544916	-0.279930	0.425582
C26	C	0.627470	-0.279915	0.425569
C27	C	0.658506	-0.330408	0.364696
C28	C	0.606987	-0.380919	0.303840
C29	C	0.638021	-0.431415	0.242971
C30	C	0.586504	-0.481922	0.182112
C31	C	0.503953	-0.481930	0.182132
C32	C	0.741057	-0.330400	0.364675
C33	C	0.720577	-0.431405	0.242954
C34	C	1.023741	-0.586332	0.262240
C35	C	1.006030	-0.674211	0.244469
C36	C	1.200373	-0.962892	0.439092
C37	C	1.183705	-1.045467	0.422380
C38	C	1.082652	-1.045594	0.321158
C39	C	1.099314	-0.963017	0.337859
C40	C	1.158174	-0.921672	0.396827
C41	C	1.057116	-0.921797	0.295594
C42	C	1.073773	-0.839227	0.312297
C43	C	1.132629	-0.797876	0.371264
C44	C	1.174832	-0.839102	0.413530
C45	C	0.998252	-0.963143	0.236630
C46	C	0.956054	-0.921923	0.194366
C47	C	0.972715	-0.839351	0.211064
C48	C	1.031571	-0.798001	0.270031
C49	C	0.930512	-0.798126	0.168798
C50	C	0.947170	-0.715556	0.185501
C51	C	1.048228	-0.715431	0.286734
C52	C	1.271473	-0.380940	0.303876
C53	C	1.359327	-0.380951	0.303891
C54	C	1.065356	-0.380848	0.510022
C55	C	1.065376	-0.380820	0.597885
C56	C	1.107063	-0.174693	0.345622
C57	C	1.124856	-0.086814	0.363426
C58	C	1.065321	-0.380922	0.098473
C59	C	1.065500	-0.380727	0.010656
C60	C	1.004701	-0.431294	0.959127
C61	C	1.126274	-0.330180	0.979628
C62	C	1.126249	-0.330197	0.897079
C63	C	1.065450	-0.380764	0.845549
C64	C	1.004676	-0.431314	0.876569
C65	C	1.187028	-0.279653	0.866051
C66	C	1.187006	-0.279669	0.783497
C67	C	1.126203	-0.330232	0.731967
C68	C	1.065425	-0.380784	0.762992
C69	C	1.004626	-0.431350	0.711463
C70	C	0.943845	-0.481899	0.742487
C71	C	0.943873	-0.481877	0.825039
C72	C	1.126175	-0.330253	0.649414
C73	C	1.004601	-0.431370	0.628905
H74	H	1.096164	-0.681767	0.334746
F75	F	1.150162	-0.709997	0.389237
F76	F	1.228627	-1.089334	0.467365
H77	H	0.782998	-0.289279	0.414227
F78	F	1.237487	-0.795095	0.476282
H79	H	0.462001	-0.523050	0.132583
F80	F	1.263028	-0.918885	0.501844
F81	F	0.879193	-0.535672	0.858063
H82	H	0.882583	-0.831801	0.120792
H83	H	1.034727	-1.079268	0.273148
H84	H	0.984684	-1.030377	0.223040
H85	H	0.912807	-0.681994	0.151085
F86	F	1.251734	-0.225846	0.920894
F87	F	0.893407	-0.965933	0.131615
F88	F	0.939886	-0.485188	0.574070
F89	F	1.251693	-0.225870	0.750486
F90	F	0.377816	-0.276715	0.429526
H91	H	0.894345	-0.523074	0.700520
H92	H	0.955212	-0.472447	0.984391
F93	F	1.190981	-0.276372	1.034469
H94	H	0.745838	-0.472523	0.193384
H95	H	1.175664	-0.289100	0.624157
H96	H	0.611782	-0.523040	0.132555
H97	H	0.348413	-0.472567	0.193470
H98	H	0.519641	-0.238824	0.475142
H99	H	0.669409	-0.238789	0.475124
