data_functionalizedCrystal
_audit_creation_method	'MofGen! by Chris Wilmer'
_symmetry_space_group_name_H-M	'P1'
_symmetry_Int_Tables_number	1
_symmetry_cell_setting	triclinic
loop_
_symmetry_equiv_pos_as_xyz
  x,y,z
_cell_length_a	16.625546
_cell_length_b	19.077236
_cell_length_c	19.076919
_cell_angle_alpha	89.887323
_cell_angle_beta	92.269917
_cell_angle_gamma	92.315185
loop_
_atom_site_label
_atom_site_type_symbol
_atom_site_fract_x
_atom_site_fract_y
_atom_site_fract_z
Zn1	Zn	-0.292690	1.058301	-0.440534
Zn2	Zn	-0.042690	1.308301	-0.190534
Zn3	Zn	0.207310	1.558301	0.059466
Zn4	Zn	0.457310	1.808301	0.309466
Zn5	Zn	-0.421906	1.062945	-0.323024
Zn6	Zn	-0.171906	1.312945	-0.073024
Zn7	Zn	0.078094	1.562945	0.176976
Zn8	Zn	0.328094	1.812945	0.426976
Zn9	Zn	-0.292268	0.945516	-0.318314
Zn10	Zn	-0.042268	1.195516	-0.068314
Zn11	Zn	0.207732	1.445516	0.181686
Zn12	Zn	0.457732	1.695516	0.431686
Zn13	Zn	-0.432663	0.940764	-0.435762
Zn14	Zn	-0.182663	1.190764	-0.185762
Zn15	Zn	0.067337	1.440764	0.064238
Zn16	Zn	0.317337	1.690764	0.314238
O17	O	-0.359882	1.001881	-0.379409
O18	O	-0.109882	1.251881	-0.129409
O19	O	0.140118	1.501881	0.120591
O20	O	0.390118	1.751881	0.370591
O21	O	-0.305506	1.157250	-0.428915
O22	O	-0.055506	1.407250	-0.178915
O23	O	0.194494	1.657250	0.071085
O24	O	0.444494	1.907250	0.321085
O25	O	-0.400030	1.051300	-0.224069
O26	O	-0.150030	1.301300	0.025931
O27	O	0.099970	1.551300	0.275931
O28	O	0.349970	1.801300	0.525931
O29	O	-0.179490	0.960522	-0.334553
O30	O	0.070510	1.210522	-0.084553
O31	O	0.320510	1.460522	0.165447
O32	O	0.570510	1.710522	0.415447
O33	O	-0.400440	1.160662	-0.342581
O34	O	-0.150440	1.410662	-0.092581
O35	O	0.099560	1.660662	0.157419
O36	O	0.349560	1.910662	0.407419
O37	O	-0.179801	1.043385	-0.424348
O38	O	0.070199	1.293385	-0.174348
O39	O	0.320199	1.543385	0.075652
O40	O	0.570199	1.793385	0.325652
O41	O	-0.304786	0.965025	-0.220609
O42	O	-0.054786	1.215025	0.029391
O43	O	0.195214	1.465025	0.279391
O44	O	0.445214	1.715025	0.529391
O45	O	-0.315216	0.846552	-0.329926
O46	O	-0.065216	1.096552	-0.079926
O47	O	0.184784	1.346552	0.170074
O48	O	0.434784	1.596552	0.420074
O49	O	-0.418774	0.952423	-0.534726
O50	O	-0.168774	1.202423	-0.284726
O51	O	0.081226	1.452423	-0.034726
O52	O	0.331226	1.702423	0.215274
O53	O	-0.418364	0.843061	-0.416214
O54	O	-0.168364	1.093061	-0.166214
O55	O	0.081636	1.343061	0.083786
O56	O	0.331636	1.593061	0.333786
O57	O	-0.315937	1.038777	-0.538232
O58	O	-0.065937	1.288777	-0.288232
O59	O	0.184063	1.538777	-0.038232
O60	O	0.434063	1.788777	0.211768
O61	O	-0.536166	1.046692	-0.337953
O62	O	-0.286166	1.296692	-0.087953
O63	O	-0.036166	1.546692	0.162047
O64	O	0.213834	1.796692	0.412047
O65	O	-0.544069	0.956927	-0.420781
O66	O	-0.294069	1.206927	-0.170781
O67	O	-0.044069	1.456927	0.079219
O68	O	0.205931	1.706927	0.329219
C69	C	-0.367912	0.819310	-0.372042
C70	C	-0.117912	1.069310	-0.122042
C71	C	0.132088	1.319310	0.127958
C72	C	0.382088	1.569310	0.377958
C73	C	-0.371368	0.741204	-0.368907
C74	C	-0.121368	0.991204	-0.118907
C75	C	0.128632	1.241204	0.131093
C76	C	0.378632	1.491204	0.381093
C77	C	-0.323649	0.702731	-0.412452
C78	C	-0.073649	0.952731	-0.162452
C79	C	0.176351	1.202731	0.087548
C80	C	0.426351	1.452731	0.337548
C81	C	-0.326892	0.629343	-0.409500
C82	C	-0.076892	0.879343	-0.159500
C83	C	0.173108	1.129343	0.090500
C84	C	0.423108	1.379343	0.340500
C85	C	-0.377858	0.594429	-0.363006
C86	C	-0.127858	0.844429	-0.113006
C87	C	0.122142	1.094429	0.136994
C88	C	0.372142	1.344429	0.386994
C89	C	-0.425579	0.632907	-0.319456
C90	C	-0.175579	0.882907	-0.069456
C91	C	0.074421	1.132907	0.180544
C92	C	0.324421	1.382907	0.430544
C93	C	-0.422331	0.706294	-0.322405
C94	C	-0.172331	0.956294	-0.072405
C95	C	0.077669	1.206294	0.177595
C96	C	0.327669	1.456294	0.427595
C97	C	-0.392858	0.375136	-0.349356
C98	C	-0.142858	0.625136	-0.099356
C99	C	0.107142	0.875136	0.150644
C100	C	0.357142	1.125136	0.400644
C101	C	-0.396104	0.301744	-0.346412
C102	C	-0.146104	0.551744	-0.096412
C103	C	0.103896	0.801744	0.153588
C104	C	0.353896	1.051744	0.403588
C105	C	-0.297416	0.298185	-0.436456
C106	C	-0.047416	0.548185	-0.186456
C107	C	0.202584	0.798185	0.063544
C108	C	0.452584	1.048185	0.313544
C109	C	-0.294176	0.371573	-0.439403
C110	C	-0.044176	0.621573	-0.189403
C111	C	0.205824	0.871573	0.060597
C112	C	0.455824	1.121573	0.310597
C113	C	-0.341894	0.410045	-0.395851
C114	C	-0.091894	0.660045	-0.145851
C115	C	0.158106	0.910045	0.104149
C116	C	0.408106	1.160045	0.354149
N117	N	-0.381176	0.519414	-0.359989
N118	N	-0.131176	0.769414	-0.109989
N119	N	0.118824	1.019414	0.140011
N120	N	0.368824	1.269414	0.390011
N121	N	-0.338571	0.485059	-0.398864
N122	N	-0.088571	0.735059	-0.148864
N123	N	0.161429	0.985059	0.101136
N124	N	0.411429	1.235059	0.351136
C125	C	-0.569374	1.001816	-0.379377
C126	C	-0.319374	1.251816	-0.129377
C127	C	-0.069374	1.501816	0.120623
C128	C	0.180626	1.751816	0.370623
C129	C	-0.658994	1.001851	-0.379389
C130	C	-0.408994	1.251851	-0.129389
C131	C	-0.158994	1.501851	0.120611
C132	C	0.091006	1.751851	0.370611
C133	C	-0.987168	1.001971	-0.379467
C134	C	-0.737168	1.251971	-0.129467
C135	C	-0.487168	1.501971	0.120533
C136	C	-0.237168	1.751971	0.370533
C137	C	-0.895860	1.001935	-0.379447
C138	C	-0.645860	1.251935	-0.129447
C139	C	-0.395860	1.501935	0.120553
C140	C	-0.145860	1.751935	0.370553
C141	C	-0.823084	1.001911	-0.379428
C142	C	-0.573084	1.251911	-0.129428
C143	C	-0.323084	1.501911	0.120572
C144	C	-0.073084	1.751911	0.370572
C145	C	-0.731770	1.001876	-0.379409
C146	C	-0.481770	1.251876	-0.129409
C147	C	-0.231770	1.501876	0.120591
C148	C	0.018230	1.751876	0.370591
C149	C	-0.149571	1.001965	-0.379457
C150	C	0.100429	1.251965	-0.129457
C151	C	0.350429	1.501965	0.120543
C152	C	0.600429	1.751965	0.370543
C153	C	-0.059949	1.002001	-0.379478
C154	C	0.190051	1.252001	-0.129478
C155	C	0.440051	1.502001	0.120522
C156	C	0.690051	1.752001	0.370522
C157	C	-0.368603	0.994552	-0.562688
C158	C	-0.118603	1.244552	-0.312688
C159	C	0.131397	1.494552	-0.062688
C160	C	0.381397	1.744552	0.187312
C161	C	-0.372319	0.991429	-0.640791
C162	C	-0.122319	1.241429	-0.390791
C163	C	0.127681	1.491429	-0.140791
C164	C	0.377681	1.741429	0.109209
C165	C	-0.351821	1.185166	-0.386805
C166	C	-0.101821	1.435166	-0.136805
C167	C	0.148179	1.685166	0.113195
C168	C	0.398179	1.935166	0.363195
C169	C	-0.348385	1.263271	-0.389957
C170	C	-0.098385	1.513271	-0.139957
C171	C	0.151615	1.763271	0.110043
C172	C	0.401615	2.013271	0.360043
C173	C	-0.320525	1.034919	-0.679310
C174	C	-0.070525	1.284919	-0.429310
C175	C	0.179475	1.534919	-0.179310
C176	C	0.429475	1.784919	0.070690
C177	C	-0.324014	1.031975	-0.752695
C178	C	-0.074014	1.281975	-0.502695
C179	C	0.175986	1.531975	-0.252695
C180	C	0.425986	1.781975	-0.002695
C181	C	-0.379302	0.985545	-0.787560
C182	C	-0.129302	1.235545	-0.537560
C183	C	0.120698	1.485545	-0.287560
C184	C	0.370698	1.735545	-0.037560
C185	C	-0.431097	0.942051	-0.749036
C186	C	-0.181097	1.192051	-0.499036
C187	C	0.068903	1.442051	-0.249036
C188	C	0.318903	1.692051	0.000964
C189	C	-0.427604	0.944991	-0.675651
C190	C	-0.177604	1.194991	-0.425651
C191	C	0.072396	1.444991	-0.175651
C192	C	0.322396	1.694991	0.074349
C193	C	-0.395488	0.971928	-1.006839
C194	C	-0.145488	1.221928	-0.756839
C195	C	0.104512	1.471928	-0.506839
C196	C	0.354512	1.721928	-0.256839
C197	C	-0.398979	0.968992	-1.080229
C198	C	-0.148979	1.218992	-0.830229
C199	C	0.101021	1.468992	-0.580229
C200	C	0.351021	1.718992	-0.330229
C201	C	-0.291895	1.058916	-1.083883
C202	C	-0.041895	1.308916	-0.833883
C203	C	0.208105	1.558916	-0.583883
C204	C	0.458105	1.808916	-0.333883
C205	C	-0.288409	1.061855	-1.010497
C206	C	-0.038409	1.311855	-0.760497
C207	C	0.211591	1.561855	-0.510497
C208	C	0.461591	1.811855	-0.260497
C209	C	-0.340202	1.018358	-0.971979
C210	C	-0.090202	1.268358	-0.721979
C211	C	0.159798	1.518358	-0.471979
C212	C	0.409798	1.768358	-0.221979
N213	N	-0.382871	0.982537	-0.862572
N214	N	-0.132871	1.232537	-0.612572
N215	N	0.117129	1.482537	-0.362572
N216	N	0.367129	1.732537	-0.112572
N217	N	-0.336628	1.021363	-0.896969
N218	N	-0.086628	1.271363	-0.646969
N219	N	0.163372	1.521363	-0.396969
N220	N	0.413372	1.771363	-0.146969
C221	C	-0.351135	1.009223	-0.196844
C222	C	-0.101135	1.259223	0.053156
C223	C	0.148865	1.509223	0.303156
C224	C	0.398865	1.759223	0.553156
C225	C	-0.347186	1.012482	-0.118748
C226	C	-0.097186	1.262482	0.131252
C227	C	0.152814	1.512482	0.381252
C228	C	0.402814	1.762482	0.631252
H229	H	-0.461188	0.737618	-0.286945
H230	H	-0.211188	0.987618	-0.036945
H231	H	0.038812	1.237618	0.213055
H232	H	0.288812	1.487618	0.463055
H233	H	-0.288036	0.598022	-0.444960
H234	H	-0.038036	0.848022	-0.194960
H235	H	0.211964	1.098022	0.055040
H236	H	0.461964	1.348022	0.305040
Cl237	Cl	-0.460600	0.917245	-0.958426
Cl238	Cl	-0.210600	1.167245	-0.708426
Cl239	Cl	0.039400	1.417245	-0.458426
Cl240	Cl	0.289400	1.667245	-0.208426
H241	H	-0.249727	1.094328	-1.115252
H242	H	0.000273	1.344328	-0.865252
H243	H	0.250273	1.594328	-0.615252
H244	H	0.500273	1.844328	-0.365252
Cl245	Cl	-0.500599	0.883678	-0.792866
Cl246	Cl	-0.250599	1.133678	-0.542866
Cl247	Cl	-0.000599	1.383678	-0.292866
Cl248	Cl	0.249401	1.633678	-0.042866
Cl249	Cl	-0.492716	0.890313	-0.627227
Cl250	Cl	-0.242716	1.140313	-0.377227
Cl251	Cl	0.007284	1.390313	-0.127227
Cl252	Cl	0.257284	1.640313	0.122773
H253	H	-0.282149	0.731153	-0.450314
H254	H	-0.032149	0.981153	-0.200314
H255	H	0.217851	1.231153	0.049686
H256	H	0.467851	1.481153	0.299686
Cl257	Cl	-0.230107	0.415460	-0.497860
Cl258	Cl	0.019893	0.665460	-0.247860
Cl259	Cl	0.269893	0.915460	0.002140
Cl260	Cl	0.519893	1.165460	0.252140
H261	H	-0.437611	0.273319	-0.308551
H262	H	-0.187611	0.523319	-0.058551
H263	H	0.062389	0.773319	0.191449
H264	H	0.312389	1.023319	0.441449
Cl265	Cl	-0.237430	0.249817	-0.491202
Cl266	Cl	0.012570	0.499817	-0.241202
Cl267	Cl	0.262570	0.749817	0.008798
Cl268	Cl	0.512570	0.999817	0.258798
Cl269	Cl	-0.218903	1.120228	-0.966673
Cl270	Cl	0.031097	1.370228	-0.716673
Cl271	Cl	0.281097	1.620228	-0.466673
Cl272	Cl	0.531097	1.870228	-0.216673
Cl273	Cl	-0.489646	0.589015	-0.261002
Cl274	Cl	-0.239646	0.839015	-0.011002
Cl275	Cl	0.010354	1.089015	0.238998
Cl276	Cl	0.260354	1.339015	0.488998
H277	H	-0.431714	0.406451	-0.313893
H278	H	-0.181714	0.656451	-0.063893
H279	H	0.068286	0.906451	0.186107
H280	H	0.318286	1.156451	0.436107
H281	H	-0.275507	1.072729	-0.650928
H282	H	-0.025507	1.322729	-0.400928
H283	H	0.224493	1.572729	-0.150928
H284	H	0.474493	1.822729	0.099072
Cl285	Cl	-0.258933	1.086682	-0.801118
Cl286	Cl	-0.008933	1.336682	-0.551118
Cl287	Cl	0.241067	1.586682	-0.301118
Cl288	Cl	0.491067	1.836682	-0.051118
H289	H	-0.444003	0.931181	-1.108613
H290	H	-0.194003	1.181181	-0.858613
H291	H	0.055997	1.431181	-0.608613
H292	H	0.305997	1.681181	-0.358613
