data_functionalizedCrystal
_audit_creation_method	'MofGen! by Chris Wilmer'
_symmetry_space_group_name_H-M	'P1'
_symmetry_Int_Tables_number	1
_symmetry_cell_setting	triclinic
loop_
_symmetry_equiv_pos_as_xyz
  x,y,z
_cell_length_a	12.645330
_cell_length_b	14.908618
_cell_length_c	14.908803
_cell_angle_alpha	90.187686
_cell_angle_beta	86.710539
_cell_angle_gamma	93.292871
loop_
_atom_site_label
_atom_site_type_symbol
_atom_site_fract_x
_atom_site_fract_y
_atom_site_fract_z
Zn1	Zn	-0.553503	-1.345225	0.587633
Zn2	Zn	-0.721125	-1.353859	0.437283
Zn3	Zn	-0.533075	-1.203574	0.428628
Zn4	Zn	-0.719915	-1.194855	0.578928
O5	O	-0.631904	-1.274378	0.508118
O6	O	-0.584794	-1.472195	0.574954
O7	O	-0.688137	-1.341186	0.310312
O8	O	-0.387441	-1.222400	0.449742
O9	O	-0.707945	-1.478539	0.464492
O10	O	-0.402450	-1.326470	0.566562
O11	O	-0.549977	-1.230772	0.303953
O12	O	-0.548804	-1.076592	0.441301
O13	O	-0.705882	-1.207539	0.705906
O14	O	-0.686074	-1.070186	0.551726
O15	O	-0.583621	-1.318016	0.712301
O16	O	-0.869308	-1.332731	0.456051
O17	O	-0.868419	-1.215911	0.560117
C18	C	-0.615092	-1.040764	0.494630
C19	C	-0.607926	-0.940822	0.488881
C20	C	-0.737601	-0.746406	0.592909
C21	C	-0.730872	-0.652501	0.587511
C22	C	-0.587734	-0.659105	0.472691
C23	C	-0.594463	-0.753010	0.478090
C24	C	-0.669400	-0.796657	0.538200
C25	C	-0.676134	-0.890564	0.543593
C26	C	-0.532992	-0.897166	0.428779
C27	C	-0.526262	-0.803261	0.423380
C28	C	-0.907330	-1.274335	0.508100
C29	C	-1.025166	-1.274397	0.508127
C30	C	-1.070572	-1.347965	0.442723
C31	C	-1.193105	-1.347819	0.442466
C32	C	-1.184726	-1.181118	0.477205
C33	C	-1.062120	-1.181506	0.476696
C34	C	-1.078116	-1.293363	0.604637
C35	C	-1.200843	-1.295526	0.604278
C36	C	-0.355406	-1.274445	0.508158
C37	C	-0.237579	-1.274473	0.508174
C38	C	-0.646895	-1.260842	0.742640
C39	C	-0.653284	-1.255073	0.842580
C40	C	-0.648775	-0.508905	0.521653
C41	C	-0.655942	-0.608847	0.527403
C42	C	-0.537952	-1.359270	1.037038
C43	C	-0.543950	-1.353853	1.130940
C44	C	-0.671274	-1.238818	1.124288
C45	C	-0.665275	-1.244235	1.030386
C46	C	-0.598613	-1.304464	0.986764
C47	C	-0.592620	-1.309885	0.892861
C48	C	-0.719937	-1.194846	0.886210
C49	C	-0.725936	-1.189429	0.980112
C50	C	-0.616996	-1.287857	1.274508
C51	C	-0.610610	-1.293630	1.174569
H52	H	-0.798623	-0.781945	0.641848
H53	H	-1.053494	-1.359967	0.631795
H54	H	-0.483678	-1.408315	1.001521
F55	F	-0.446509	-0.756798	0.359414
F56	F	-1.224108	-1.331982	0.349161
H57	H	-0.526717	-0.623550	0.423758
H58	H	-1.209582	-1.164054	0.407259
H59	H	-1.213187	-1.125071	0.523153
F60	F	-0.796877	-1.125331	1.026547
H61	H	-1.236105	-1.364201	0.627535
F62	F	-0.755890	-0.937016	0.607564
F63	F	-0.479385	-1.412184	1.184442
H64	H	-0.769335	-1.150221	0.845267
H65	H	-0.477460	-0.938090	0.384228
H66	H	-0.786406	-0.611590	0.632063
F67	F	-1.240284	-1.438512	0.468599
H68	H	-1.231582	-1.245454	0.656055
H69	H	-1.027650	-1.164824	0.405994
H70	H	-0.725546	-1.189782	1.159821
H71	H	-1.047107	-1.417563	0.462529
H72	H	-1.031698	-1.125109	0.521979
F73	F	-1.023017	-1.332330	0.349937
F74	F	-0.521677	-1.373988	0.846437
F75	F	-1.039756	-1.223255	0.668421
