data_functionalizedCrystal
_audit_creation_method	'MofGen! by Chris Wilmer'
_symmetry_space_group_name_H-M	'P1'
_symmetry_Int_Tables_number	1
_symmetry_cell_setting	triclinic
loop_
_symmetry_equiv_pos_as_xyz
  x,y,z
_cell_length_a	15.298068
_cell_length_b	16.625545
_cell_length_c	15.296720
_cell_angle_alpha	99.644333
_cell_angle_beta	91.645182
_cell_angle_gamma	80.316313
loop_
_atom_site_label
_atom_site_type_symbol
_atom_site_fract_x
_atom_site_fract_y
_atom_site_fract_z
Zn1	Zn	1.253371	0.239864	0.727360
Zn2	Zn	1.278630	0.348154	0.580889
Zn3	Zn	1.132251	0.232029	0.555527
Zn4	Zn	1.106858	0.393356	0.701912
O5	O	1.192778	0.303351	0.641422
O6	O	1.379298	0.238590	0.729195
O7	O	1.280411	0.310554	0.454964
O8	O	1.148375	0.120233	0.578357
O9	O	1.397856	0.318151	0.621583
O10	O	1.237361	0.125989	0.704602
O11	O	1.172867	0.225237	0.436330
O12	O	1.006307	0.269068	0.553681
O13	O	1.105095	0.395191	0.827849
O14	O	0.987650	0.387594	0.661229
O15	O	1.212738	0.282421	0.846545
O16	O	1.255788	0.466986	0.596907
O17	O	1.129587	0.500195	0.685822
C18	C	0.965195	0.332387	0.601942
C19	C	0.867831	0.344832	0.585073
C20	C	0.554671	0.214608	0.761989
C21	C	0.646149	0.202919	0.777843
C22	C	0.701574	0.238396	0.729652
C23	C	0.665512	0.285564	0.665604
C24	C	0.574025	0.297260	0.649753
C25	C	0.720928	0.321048	0.617416
C26	C	0.684866	0.368217	0.553368
C27	C	0.593388	0.379910	0.537519
C28	C	0.537963	0.344433	0.585711
C29	C	0.812415	0.309352	0.633267
C30	C	0.831769	0.392004	0.521031
C31	C	0.740291	0.403694	0.505177
C32	C	1.192693	0.512848	0.641378
C33	C	1.192732	0.602467	0.641403
C34	C	1.192857	0.930643	0.641532
C35	C	1.192819	0.839335	0.641498
C36	C	1.192794	0.766558	0.641467
C37	C	1.192757	0.675244	0.641434
C38	C	1.421248	0.274202	0.681057
C39	C	1.518609	0.261781	0.697947
C40	C	1.153266	0.344722	0.869864
C41	C	1.136429	0.362352	0.967213
C42	C	1.192873	1.093039	0.641498
C43	C	1.192891	1.003424	0.641553
C44	C	1.232186	0.262076	0.413877
C45	C	1.249193	0.244197	0.316558
C46	C	1.313150	0.177200	1.280561
C47	C	1.328975	0.160637	1.189099
C48	C	1.280839	0.211064	1.133623
C49	C	1.216877	0.278058	1.169619
C50	C	1.201055	0.294627	1.261091
C51	C	1.168745	0.328491	1.114153
C52	C	1.104782	0.395485	1.150149
C53	C	1.088963	0.412051	1.241612
C54	C	1.137098	0.361624	1.297088
C55	C	1.184567	0.311922	1.022680
C56	C	1.072472	0.429349	1.003210
C57	C	1.056647	0.445912	1.094673
H58	H	0.710917	0.442100	0.453029
H59	H	0.876896	0.420897	0.481793
H60	H	1.236645	0.257374	0.993381
H61	H	0.675503	0.164517	0.829994
H62	H	0.509536	0.185734	0.801224
Cl63	Cl	1.373662	0.113821	1.350306
Cl64	Cl	1.300732	0.190237	1.018639
H65	H	0.564028	0.418325	0.485374
Cl66	Cl	1.008567	0.496284	1.286865
H67	H	0.776059	0.228872	0.742561
H68	H	0.463472	0.353955	0.572811
Cl69	Cl	1.409381	0.076420	1.143853
H70	H	1.124217	0.375106	1.371566
H71	H	1.004567	0.500460	1.123994
Cl72	Cl	1.011960	0.492751	0.933476
H73	H	0.841767	0.270946	0.685414
