data_functionalizedCrystal
_audit_creation_method	'MofGen! by Chris Wilmer'
_symmetry_space_group_name_H-M	'P1'
_symmetry_Int_Tables_number	1
_symmetry_cell_setting	triclinic
loop_
_symmetry_equiv_pos_as_xyz
  x,y,z
_cell_length_a	19.805407
_cell_length_b	16.120484
_cell_length_c	16.120256
_cell_angle_alpha	84.383827
_cell_angle_beta	87.122650
_cell_angle_gamma	92.925608
loop_
_atom_site_label
_atom_site_type_symbol
_atom_site_fract_x
_atom_site_fract_y
_atom_site_fract_z
Zn1	Zn	0.999909	-0.356764	0.489479
Zn2	Zn	1.499909	0.143236	0.989479
Zn3	Zn	0.999824	-0.489450	0.356789
Zn4	Zn	1.499824	0.010550	0.856789
Zn5	Zn	0.892766	-0.349696	0.349722
Zn6	Zn	1.392766	0.150304	0.849722
Zn7	Zn	0.880647	-0.496495	0.496509
Zn8	Zn	1.380647	0.003505	0.996509
O9	O	0.943287	-0.423101	0.423125
O10	O	1.443287	0.076899	0.923125
O11	O	1.094613	-0.374375	0.471893
O12	O	1.594613	0.125625	0.971893
O13	O	0.990659	-0.465004	0.238889
O14	O	1.490659	0.034996	0.738889
O15	O	0.912086	-0.233668	0.362361
O16	O	1.412086	0.266332	0.862361
O17	O	1.094551	-0.471858	0.374406
O18	O	1.594551	0.028142	0.874406
O19	O	0.990804	-0.238861	0.465040
O20	O	1.490804	0.261139	0.965040
O21	O	0.912004	-0.362328	0.233697
O22	O	1.412004	0.137672	0.733697
O23	O	0.796443	-0.369159	0.369178
O24	O	1.296443	0.130841	0.869178
O25	O	0.891431	-0.483866	0.612539
O26	O	1.391431	0.016134	1.112539
O27	O	0.787539	-0.477012	0.477022
O28	O	1.287539	0.022988	0.977022
O29	O	0.979052	-0.381206	0.607374
O30	O	1.479052	0.118794	1.107374
O31	O	0.978907	-0.607350	0.381223
O32	O	1.478907	-0.107350	0.881223
O33	O	0.891349	-0.612526	0.483875
O34	O	1.391349	-0.112526	0.983875
C35	C	0.767432	-0.423084	0.423097
C36	C	1.267432	0.076916	0.923097
C37	C	0.692199	-0.423098	0.423106
C38	C	1.192199	0.076902	0.923106
C39	C	0.652237	-0.479333	0.479178
C40	C	1.152237	0.020667	0.979178
C41	C	0.581548	-0.479335	0.479190
C42	C	1.081548	0.020665	0.979190
C43	C	0.550823	-0.423105	0.423125
C44	C	1.050823	0.076895	0.923125
C45	C	0.590790	-0.366864	0.367050
C46	C	1.090790	0.133136	0.867050
C47	C	0.661478	-0.366859	0.367043
C48	C	1.161478	0.133141	0.867043
C49	C	0.305715	-0.366884	0.367079
C50	C	0.805715	0.133116	0.867079
C51	C	0.235022	-0.366895	0.367089
C52	C	0.735022	0.133105	0.867089
C53	C	0.225785	-0.479360	0.479225
C54	C	0.725785	0.020640	0.979225
C55	C	0.296473	-0.479355	0.479218
C56	C	0.796473	0.020645	0.979218
C57	C	0.336434	-0.423111	0.423147
C58	C	0.836434	0.076889	0.923147
C59	C	0.413083	-0.423108	0.423136
C60	C	0.913083	0.076892	0.923136
C61	C	0.474175	-0.423111	0.423131
C62	C	0.974175	0.076889	0.923131
C63	C	0.933821	-0.640267	0.434097
C64	C	1.433821	-0.140267	0.934097
C65	C	0.929833	-0.733172	0.438818
C66	C	1.429833	-0.233172	0.938818
C67	C	0.922554	-0.903273	0.447456
C68	C	1.422554	-0.403273	0.947456
C69	C	0.964140	-0.942090	0.398807
C70	C	1.464140	-0.442090	0.898807
C71	C	0.960090	-1.036740	0.403613
C72	C	1.460090	-0.536740	0.903613
C73	C	0.926603	-0.808614	0.442651
C74	C	1.426603	-0.308614	0.942651
C75	C	1.119827	-0.423119	0.423153
C76	C	1.619827	0.076881	0.923153
C77	C	1.195059	-0.423127	0.423165
C78	C	1.695059	0.076873	0.923165
C79	C	0.933900	-0.434111	0.641132
C80	C	1.433900	0.065889	1.141132
C81	C	0.929899	-0.438802	0.734033
C82	C	1.429899	0.061198	1.234033
C83	C	0.952806	-0.205089	0.412128
C84	C	1.452806	0.294911	0.912128
C85	C	0.956863	-0.112185	0.407442
C86	C	1.456863	0.387815	0.907442
C87	C	0.952679	-0.412074	0.205963
C88	C	1.452679	0.087926	0.705963
C89	C	0.956820	-0.407147	0.113050
C90	C	1.456820	0.092853	0.613050
C91	C	0.964147	-0.398614	0.942960
C92	C	1.464147	0.101386	1.442960
C93	C	0.922575	-0.447333	0.904118
C94	C	1.422575	0.052667	1.404118
C95	C	0.926651	-0.442585	0.809474
C96	C	1.426651	0.057415	1.309474
C97	C	0.960071	-0.403361	1.037612
C98	C	1.460071	0.096639	1.537612
H99	H	0.321485	-0.525145	0.524869
H100	H	0.821485	-0.025145	1.024869
O101	O	1.015329	-0.891957	0.338853
O102	O	1.515329	-0.391957	0.838853
H103	H	1.005888	-0.905388	0.274076
H104	H	1.505888	-0.405388	0.774076
O105	O	0.871355	-0.953400	0.507392
O106	O	1.371355	-0.453400	1.007392
H107	H	0.876163	-1.020950	0.501794
H108	H	1.376163	-0.520950	1.001794
H109	H	0.883919	-0.492604	0.941944
H110	H	1.383919	0.007396	1.441944
O111	O	0.182680	-0.540072	0.539655
O112	O	0.682680	-0.040072	1.039655
H113	H	0.215922	-0.579196	0.578611
H114	H	0.715922	-0.079196	1.078611
H115	H	1.002797	-0.353342	0.905136
H116	H	1.502797	0.146658	1.405136
H117	H	0.677248	-0.525124	0.524830
H118	H	1.177248	-0.025124	1.024830
O119	O	0.201873	-0.306247	0.306620
O120	O	0.701873	0.193753	0.806620
H121	H	0.217663	-0.241395	0.317755
H122	H	0.717663	0.258605	0.817755
O123	O	0.538510	-0.540141	0.539587
O124	O	1.038510	-0.040141	1.039587
H125	H	0.549868	-0.529347	0.604524
H126	H	1.049868	-0.029347	1.104524
O127	O	0.348813	-0.306249	0.306580
O128	O	0.848813	0.193751	0.806580
H129	H	0.315570	-0.267166	0.267584
H130	H	0.815570	0.232834	0.767584
H131	H	0.565768	-0.321077	0.321405
H132	H	1.065768	0.178923	0.821405
O133	O	0.704586	-0.306206	0.306566
O134	O	1.204586	0.193794	0.806566
H135	H	0.736996	-0.341398	0.265871
H136	H	1.236996	0.158602	0.765871
