data_functionalizedCrystal
_audit_creation_method	'MofGen! by Chris Wilmer'
_symmetry_space_group_name_H-M	'P1'
_symmetry_Int_Tables_number	1
_symmetry_cell_setting	triclinic
loop_
_symmetry_equiv_pos_as_xyz
  x,y,z
_cell_length_a	13.033409
_cell_length_b	21.295417
_cell_length_c	13.032268
_cell_angle_alpha	82.858212
_cell_angle_beta	74.837427
_cell_angle_gamma	82.860986
loop_
_atom_site_label
_atom_site_type_symbol
_atom_site_fract_x
_atom_site_fract_y
_atom_site_fract_z
Zn1	Zn	1.547310	-0.398966	0.393879
Zn2	Zn	1.569732	-0.492372	0.216273
Zn3	Zn	1.392271	-0.375289	0.238890
Zn4	Zn	1.369650	-0.492349	0.416424
O5	O	1.469741	-0.439744	0.316366
O6	O	1.698904	-0.421275	0.351419
O7	O	1.565042	-0.466942	0.070645
O8	O	1.412920	-0.290349	0.259479
O9	O	1.715378	-0.489900	0.220933
O10	O	1.526827	-0.307744	0.373350
O11	O	1.434662	-0.380922	0.087262
O12	O	1.240650	-0.380899	0.281340
O13	O	1.374366	-0.489860	0.562061
O14	O	1.224031	-0.466902	0.411774
O15	O	1.504893	-0.421252	0.545498
O16	O	1.543108	-0.580450	0.242793
O17	O	1.396108	-0.580433	0.389843
C18	C	1.193805	-0.421329	0.351458
C19	C	1.075755	-0.413468	0.366496
C20	C	0.909274	-0.435728	0.324081
C21	C	1.031285	-0.443854	0.308533
C22	C	1.469612	-0.603283	0.316330
C23	C	1.469650	-0.673255	0.316337
C24	C	1.528916	-0.715122	0.375683
C25	C	1.528950	-0.780869	0.375705
C26	C	1.469732	-0.804745	0.316360
C27	C	1.410453	-0.762868	0.257011
C28	C	1.410412	-0.697123	0.257000
N29	N	1.473520	-0.901269	0.224427
N30	N	1.473565	-0.963724	0.224440
C31	C	1.469850	-1.002831	0.316392
N32	N	1.466108	-0.977124	0.408331
N33	N	1.466069	-0.914663	0.408316
C34	C	1.469769	-0.876034	0.316366
C35	C	1.529156	-1.115990	0.375766
C36	C	1.529182	-1.181737	0.375791
C37	C	1.410692	-1.163735	0.257087
C38	C	1.410658	-1.097989	0.257073
C39	C	1.469896	-1.074120	0.316410
C40	C	1.746754	-0.458231	0.281138
C41	C	1.864801	-0.466110	0.266126
C42	C	1.434605	-0.458195	0.593395
C43	C	1.419632	-0.466057	0.711447
C44	C	1.469896	-0.275570	0.316423
C45	C	1.469962	-0.205609	0.316447
C46	C	1.504801	-0.421324	0.040408
C47	C	1.519980	-0.413298	-0.077670
C48	C	1.477539	-0.435617	0.755884
C49	C	1.462065	-0.443742	0.877897
H50	H	0.857020	-0.403703	0.385212
H51	H	1.401022	-0.475817	0.930181
N52	N	1.593031	-1.090234	0.439769
H53	H	1.671018	-1.105607	0.413691
H54	H	1.566768	-1.105615	0.517734
H55	H	1.581010	-0.381215	0.870049
H56	H	1.538566	-0.403538	0.703598
N57	N	1.338770	-0.508538	0.780695
H58	H	1.339172	-0.508317	0.858043
H59	H	1.357681	-0.553319	0.759255
H60	H	1.083534	-0.475888	0.247408
H61	H	1.023506	-0.381440	0.427630
H62	H	0.917053	-0.498141	0.205005
N63	N	1.592795	-0.689383	0.439696
H64	H	1.543337	-0.662512	0.494370
H65	H	1.647496	-0.662532	0.390235
N66	N	1.346582	-0.788615	0.193001
H67	H	1.355605	-0.836618	0.202009
H68	H	1.372788	-0.773186	0.115050
N69	N	1.592876	-0.826038	0.439715
H70	H	1.630395	-0.800941	0.477303
H71	H	1.647550	-0.853701	0.390261
N72	N	1.346809	-1.189477	0.193087
H73	H	1.355824	-1.237480	0.202101
H74	H	1.373011	-1.174052	0.115133
H75	H	1.577443	-1.215826	0.424122
N76	N	1.346489	-0.651960	0.192986
H77	H	1.308976	-0.677059	0.155395
H78	H	1.395977	-0.624289	0.138361
H79	H	1.362403	-1.063897	0.208743
