data_functionalizedCrystal
_audit_creation_method	'MofGen! by Chris Wilmer'
_symmetry_space_group_name_H-M	'P1'
_symmetry_Int_Tables_number	1
_symmetry_cell_setting	triclinic
loop_
_symmetry_equiv_pos_as_xyz
  x,y,z
_cell_length_a	16.625547
_cell_length_b	21.295418
_cell_length_c	16.625539
_cell_angle_alpha	90.029217
_cell_angle_beta	90.024822
_cell_angle_gamma	90.028324
loop_
_atom_site_label
_atom_site_type_symbol
_atom_site_fract_x
_atom_site_fract_y
_atom_site_fract_z
Zn1	Zn	1.232647	-0.250609	0.455996
Zn2	Zn	1.232537	-0.355882	0.321161
Zn3	Zn	1.097809	-0.250631	0.321166
Zn4	Zn	1.097766	-0.355844	0.455941
O5	O	1.165190	-0.303242	0.388566
O6	O	1.345465	-0.264581	0.438130
O7	O	1.214637	-0.341946	0.208329
O8	O	1.115760	-0.162539	0.339077
O9	O	1.345384	-0.341925	0.339068
O10	O	1.214825	-0.162523	0.438136
O11	O	1.115653	-0.264618	0.208333
O12	O	0.984971	-0.264581	0.339024
O13	O	1.115686	-0.341859	0.568780
O14	O	0.984939	-0.341881	0.438042
O15	O	1.214783	-0.264544	0.568821
O16	O	1.214594	-0.443967	0.339014
O17	O	1.115579	-0.443939	0.438036
C18	C	0.955699	-0.303229	0.388528
C19	C	0.866078	-0.303239	0.388531
C20	C	1.165092	-0.466793	0.388536
C21	C	1.165124	-0.536761	0.388551
C22	C	0.793295	-0.303241	0.388541
C23	C	0.701987	-0.303244	0.388561
C24	C	0.629210	-0.303250	0.388581
C25	C	0.537896	-0.303254	0.388601
C26	C	1.216873	-1.036158	0.440249
C27	C	1.216850	-0.970415	0.440236
C28	C	1.165300	-0.937601	0.388616
C29	C	1.113784	-0.970534	0.336990
C30	C	1.113815	-1.036276	0.336999
N31	N	1.094675	-0.834431	0.382347
N32	N	1.094648	-0.771980	0.382343
C33	C	1.165205	-0.739526	0.388586
N34	N	1.235791	-0.771883	0.394848
N35	N	1.235817	-0.834340	0.394856
C36	C	1.165261	-0.866315	0.388601
C37	C	1.216696	-0.635315	0.440191
C38	C	1.216673	-0.569571	0.440172
C39	C	1.113600	-0.569692	0.336931
C40	C	1.113630	-0.635434	0.336945
C41	C	1.165176	-0.668242	0.388579
C42	C	1.375499	-0.303254	0.388605
C43	C	1.465120	-0.303260	0.388621
C44	C	1.165242	-0.303195	0.598875
C45	C	1.165264	-0.303175	0.688496
C46	C	1.165310	-0.139051	0.388613
C47	C	1.165361	-0.069083	0.388633
C48	C	1.165184	-0.303243	0.179075
C49	C	1.165318	-0.303086	0.089454
C50	C	1.165302	-0.303104	1.016672
C51	C	1.165289	-0.303126	0.925363
C52	C	1.165283	-0.303140	0.852587
C53	C	1.165270	-0.303161	0.761273
H54	H	1.258853	-1.062866	0.482288
O55	O	1.266604	-0.537517	0.490355
C56	C	1.220645	-0.499505	0.542387
H57	H	1.159557	-0.489708	0.513878
H58	H	1.211753	-0.524817	0.602134
C59	C	1.340002	-0.449054	0.592043
C60	C	1.264975	-0.437018	0.557025
H61	H	1.367348	-0.410510	0.601076
H62	H	1.370967	-0.474665	0.556991
H63	H	1.332582	-0.470149	0.641828
H64	H	1.272397	-0.415930	0.507236
H65	H	1.234013	-0.411401	0.592069
H66	H	1.071812	-0.943814	0.294959
H67	H	1.071631	-0.542975	0.294897
O68	O	1.266909	-0.938519	0.490462
C69	C	1.312424	-0.981574	0.536023
H70	H	1.279425	-1.028461	0.538777
H71	H	1.373691	-0.988532	0.506576
C72	C	1.364485	-0.898281	0.618469
C73	C	1.323953	-0.955867	0.621857
H74	H	1.371601	-0.882424	0.671414
H75	H	1.333824	-0.869274	0.587772
H76	H	1.415537	-0.904087	0.593926
H77	H	1.272898	-0.950059	0.646390
H78	H	1.354606	-0.984873	0.652560
O79	O	1.063507	-0.667324	0.286785
C80	C	1.018016	-0.624267	0.241205
H81	H	1.015183	-0.577390	0.274221
H82	H	1.047576	-0.617286	0.179997
C83	C	0.935700	-0.707563	0.188949
C84	C	0.932214	-0.649989	0.229503
H85	H	0.882774	-0.723430	0.181726
H86	H	0.966350	-0.736572	0.219654
H87	H	0.960337	-0.701737	0.137946
H88	H	0.907587	-0.655817	0.280508
H89	H	0.901558	-0.620981	0.198805
O90	O	1.063694	-1.068165	0.286834
C91	C	1.018204	-1.025109	0.241251
H92	H	1.015372	-0.978231	0.274263
H93	H	1.047766	-1.018131	0.180042
C94	C	0.935887	-1.108405	0.188998
C95	C	0.932402	-1.050830	0.229548
H96	H	0.882961	-1.124272	0.181775
H97	H	0.966535	-1.137414	0.219706
H98	H	0.960525	-1.102582	0.137995
H99	H	0.907773	-1.056655	0.280553
H100	H	0.901747	-1.021823	0.198848
H101	H	1.258662	-0.662028	0.482240
