data_functionalizedCrystal
_audit_creation_method	'MofGen! by Chris Wilmer'
_symmetry_space_group_name_H-M	'P1'
_symmetry_Int_Tables_number	1
_symmetry_cell_setting	triclinic
loop_
_symmetry_equiv_pos_as_xyz
  x,y,z
_cell_length_a	12.827893
_cell_length_b	16.959453
_cell_length_c	12.827885
_cell_angle_alpha	89.966028
_cell_angle_beta	89.980728
_cell_angle_gamma	90.020148
loop_
_atom_site_label
_atom_site_type_symbol
_atom_site_fract_x
_atom_site_fract_y
_atom_site_fract_z
Zn1	Zn	1.597636	-0.314640	-0.590818
Zn2	Zn	1.597516	-0.446839	-0.416066
Zn3	Zn	1.422878	-0.314679	-0.416092
Zn4	Zn	1.422849	-0.446781	-0.590766
O5	O	1.510220	-0.380735	-0.503435
O6	O	1.743856	-0.332185	-0.567648
O7	O	1.574312	-0.429348	-0.269833
O8	O	1.446122	-0.204063	-0.439303
O9	O	1.743768	-0.429311	-0.439258
O10	O	1.574516	-0.204034	-0.567673
O11	O	1.446006	-0.332251	-0.269852
O12	O	1.276638	-0.332194	-0.439252
O13	O	1.446073	-0.429211	-0.737009
O14	O	1.276617	-0.429249	-0.567584
O15	O	1.574488	-0.332128	-0.737047
O16	O	1.574284	-0.557442	-0.439207
O17	O	1.445957	-0.557399	-0.567559
C18	C	1.238710	-0.380720	-0.503416
C19	C	1.122557	-0.380733	-0.503432
C20	C	1.070815	-0.332757	-0.567062
C21	C	0.950765	-0.332769	-0.567080
C22	C	1.510133	-0.586101	-0.503397
C23	C	1.510191	-0.673957	-0.503416
C24	C	1.577160	-1.045360	-0.570404
C25	C	1.443571	-1.045506	-0.436622
C26	C	1.443532	-0.962961	-0.436598
C27	C	1.510307	-0.921610	-0.503479
C28	C	1.577121	-0.962806	-0.570384
C29	C	1.376712	-0.921759	-0.369701
C30	C	1.376670	-0.839208	-0.369675
C31	C	1.443451	-0.797856	-0.436552
C32	C	1.510269	-0.839057	-0.503459
C33	C	1.577044	-0.797707	-0.570341
C34	C	1.643867	-0.838906	-0.637243
C35	C	1.643903	-0.921454	-0.637261
C36	C	1.443416	-0.715308	-0.436534
C37	C	1.577005	-0.715153	-0.570321
C38	C	1.782790	-0.380750	-0.503456
C39	C	1.898943	-0.380756	-0.503465
C40	C	1.510291	-0.380659	-0.776006
C41	C	1.510321	-0.380626	-0.892159
C42	C	1.510336	-0.174566	-0.503497
C43	C	1.510385	-0.086710	-0.503523
C44	C	1.573872	-0.332577	-0.943963
C45	C	1.573905	-0.332543	-1.064013
C46	C	1.510209	-0.380753	-0.231926
C47	C	1.510381	-0.380563	-0.115773
H48	H	1.077978	-0.421814	-0.448967
C49	C	1.709056	-0.723300	-0.702569
C50	C	1.650403	-0.669704	-0.643846
H51	H	1.754362	-0.695240	-0.747964
H52	H	1.749071	-0.755496	-0.657079
H53	H	1.663508	-0.755504	-0.742502
H54	H	1.695951	-0.637504	-0.603906
H55	H	1.610386	-0.637495	-0.689341
H56	H	1.628317	-0.291408	-1.108563
H57	H	1.455974	-0.421705	-1.071230
H58	H	0.906269	-0.291698	-0.621560
C59	C	1.495895	-0.486834	-1.014995
C60	C	1.436903	-0.436134	-0.952251
H61	H	1.450567	-0.521107	-1.052084
H62	H	1.535755	-0.456683	-1.063049
H63	H	1.541358	-0.517107	-0.972396
H64	H	1.391445	-0.405857	-0.994851
H65	H	1.397025	-0.466288	-0.904191
H66	H	0.943433	-0.421837	-0.448991
H67	H	1.115394	-0.291671	-0.621521
C68	C	1.244646	-0.913618	-0.237475
C69	C	1.303310	-0.967209	-0.296194
H70	H	1.199325	-0.941682	-0.192099
H71	H	1.290177	-0.881421	-0.197532
H72	H	1.204636	-0.881415	-0.282976
H73	H	1.343326	-0.999409	-0.250693
H74	H	1.257774	-0.999420	-0.336141
H75	H	1.698231	-0.805229	-0.691704
H76	H	1.698306	-0.955006	-0.691731
C77	C	1.636547	-1.171830	-0.629844
C78	C	1.650607	-1.090641	-0.643945
H79	H	1.681887	-1.199783	-0.675251
H80	H	1.651891	-1.185386	-0.559656
H81	H	1.566329	-1.185382	-0.645079
H82	H	1.720824	-1.077088	-0.628702
H83	H	1.635271	-1.077079	-0.714149
H84	H	1.389201	-1.079179	-0.382174
C85	C	1.236061	-0.746463	-0.354996
C86	C	1.303224	-0.793927	-0.296132
H87	H	1.190717	-0.718513	-0.309589
H88	H	1.275823	-0.710023	-0.394810
H89	H	1.196080	-0.778666	-0.400497
H90	H	1.343211	-0.761723	-0.250635
H91	H	1.263458	-0.830371	-0.256300
C92	C	1.302815	-0.622558	-0.421886
C93	C	1.369968	-0.670020	-0.363007
H94	H	1.257466	-0.594604	-0.376489
H95	H	1.342584	-0.586122	-0.461700
H96	H	1.262838	-0.654764	-0.467389
H97	H	1.409950	-0.637813	-0.317510
H98	H	1.330195	-0.706460	-0.323176
C99	C	1.588311	-0.226381	-0.821109
C100	C	1.647295	-0.277079	-0.883861
H101	H	1.633644	-0.192122	-0.784002
H102	H	1.542862	-0.196099	-0.863695
H103	H	1.548436	-0.256539	-0.773060
H104	H	1.687165	-0.246920	-0.931916
H105	H	1.692762	-0.307363	-0.841271
