data_functionalizedCrystal
_audit_creation_method	'MofGen! by Chris Wilmer'
_symmetry_space_group_name_H-M	'P1'
_symmetry_Int_Tables_number	1
_symmetry_cell_setting	triclinic
loop_
_symmetry_equiv_pos_as_xyz
  x,y,z
_cell_length_a	12.837943
_cell_length_b	13.262508
_cell_length_c	11.892095
_cell_angle_alpha	109.778227
_cell_angle_beta	85.689438
_cell_angle_gamma	89.431992
loop_
_atom_site_label
_atom_site_type_symbol
_atom_site_fract_x
_atom_site_fract_y
_atom_site_fract_z
O1	O	1.377347	0.272309	-0.010255
O2	O	1.075781	0.258552	-0.014492
O3	O	1.237510	0.110334	-0.060054
O4	O	1.215618	0.420527	0.035307
O5	O	1.224025	0.122671	0.131746
O6	O	1.062297	0.270889	0.177308
O7	O	1.363863	0.284646	0.181545
Zn8	Zn	1.210939	0.279726	0.209879
Zn9	Zn	1.228705	0.263471	-0.042826
O10	O	1.202134	0.432864	0.227107
C11	C	1.030499	0.260073	0.079979
C12	C	0.915663	0.246213	0.075715
C13	C	0.671808	0.412835	0.126955
C14	C	0.563908	0.399818	0.122951
C15	C	0.591962	0.207161	0.063711
C16	C	0.699861	0.220179	0.067715
C17	C	0.739780	0.323019	0.099336
C18	C	0.847682	0.336036	0.103332
C19	C	0.875733	0.143380	0.044100
C20	C	0.767834	0.130363	0.040096
C21	C	1.230780	0.076523	0.023553
C22	C	1.230806	-0.042604	-0.013078
C23	C	1.201472	-0.351515	0.301882
C24	C	1.201439	-0.239589	0.336299
C25	C	1.208781	-0.190337	0.248958
C26	C	1.216155	-0.253022	0.127194
C27	C	1.216180	-0.364959	0.092773
C28	C	1.223489	-0.203781	0.039849
C29	C	1.230863	-0.266466	-0.081915
C30	C	1.230888	-0.378391	-0.116329
C31	C	1.223546	-0.427643	-0.028988
C32	C	1.223465	-0.091845	0.074270
C33	C	1.238172	-0.105288	-0.134839
C34	C	1.238205	-0.217214	-0.169256
C35	C	1.409145	0.283124	0.087072
C36	C	1.523981	0.296984	0.091328
C37	C	1.208864	0.466674	0.143498
C38	C	1.208838	0.585800	0.180120
N39	N	1.198821	0.290819	0.382343
N40	N	1.240830	0.252370	-0.215292
C41	C	1.325149	0.175116	0.583423
C42	C	1.316687	0.182879	0.704152
C43	C	1.173430	0.314102	0.744528
C44	C	1.181892	0.306339	0.623800
C45	C	1.257756	0.236845	0.543251
C46	C	1.266222	0.229088	0.422523
C47	C	1.122961	0.360305	0.462899
C48	C	1.114498	0.368068	0.583627
H49	H	1.217451	-0.040817	0.173411
H50	H	1.327996	0.172506	0.356941
H51	H	0.735316	0.046634	0.014365
H52	H	1.208753	-0.099202	0.276988
H53	H	1.052729	0.424646	0.649222
F54	F	1.405897	0.101166	0.497701
H55	H	1.068087	0.410572	0.430180
H56	H	1.111657	0.370674	0.810123
H57	H	0.880182	0.419773	0.129081
F58	F	0.491570	0.495413	0.152350
F59	F	1.193642	-0.403939	0.394822
F60	F	0.714296	0.522283	0.160594
H61	H	1.244208	-0.268268	-0.268398
F62	F	1.223581	-0.546769	-0.065612
H63	H	0.559434	0.123439	0.038062
F64	F	0.948084	0.047784	0.014690
H65	H	1.236883	-0.429426	-0.215477
H66	H	1.195446	-0.188559	0.435439
H67	H	1.244143	-0.065188	-0.205960
H68	H	1.371564	0.132611	0.736854
