data_functionalizedCrystal
_audit_creation_method	'MofGen! by Chris Wilmer'
_symmetry_space_group_name_H-M	'P1'
_symmetry_Int_Tables_number	1
_symmetry_cell_setting	triclinic
loop_
_symmetry_equiv_pos_as_xyz
  x,y,z
_cell_length_a	12.759401
_cell_length_b	14.908178
_cell_length_c	12.759393
_cell_angle_alpha	86.667587
_cell_angle_beta	89.981433
_cell_angle_gamma	93.313111
loop_
_atom_site_label
_atom_site_type_symbol
_atom_site_fract_x
_atom_site_fract_y
_atom_site_fract_z
Zn1	Zn	1.582096	-0.359159	-0.569812
Zn2	Zn	1.571839	-0.510058	-0.383977
Zn3	Zn	1.406395	-0.359203	-0.394149
Zn4	Zn	1.396240	-0.509986	-0.559623
O5	O	1.489143	-0.434601	-0.476890
O6	O	1.727755	-0.379188	-0.545168
O7	O	1.549850	-0.490096	-0.238302
O8	O	1.438244	-0.232942	-0.425972
O9	O	1.720220	-0.490053	-0.408636
O10	O	1.567330	-0.232909	-0.555031
O11	O	1.428298	-0.379263	-0.245775
O12	O	1.258027	-0.379193	-0.416092
O13	O	1.420937	-0.489930	-0.707999
O14	O	1.250567	-0.489973	-0.537665
O15	O	1.557484	-0.379117	-0.715485
O16	O	1.540004	-0.636304	-0.398756
O17	O	1.410992	-0.636251	-0.527803
C18	C	1.216177	-0.434580	-0.476877
C19	C	1.099399	-0.434593	-0.476895
C20	C	1.048446	-0.376974	-0.548084
C21	C	0.938721	-0.376992	-0.548090
C22	C	0.930910	-0.492254	-0.405713
C23	C	1.040634	-0.492231	-0.405704
C24	C	1.052955	-0.310431	-0.630287
C25	C	0.943230	-0.310448	-0.630293
C26	C	1.473312	-0.669014	-0.461093
C27	C	1.466635	-0.769297	-0.454370
C28	C	1.588406	-0.957555	-0.576270
C29	C	1.582137	-1.051779	-0.569957
C30	C	1.447823	-1.051972	-0.435436
C31	C	1.454092	-0.957747	-0.441749
C32	C	1.524387	-0.910542	-0.512168
C33	C	1.530661	-0.816316	-0.518475
C34	C	1.396343	-0.816510	-0.383960
C35	C	1.390073	-0.910735	-0.377646
C36	C	1.763174	-0.434623	-0.476904
C37	C	1.879950	-0.434633	-0.476910
C38	C	1.489222	-0.434510	-0.750930
C39	C	1.489256	-0.434472	-0.867709
C40	C	1.505064	-0.199274	-0.492773
C41	C	1.511848	-0.098991	-0.499541
C42	C	1.560366	-0.376766	-0.926471
C43	C	1.560393	-0.376734	-1.036198
C44	C	1.418197	-0.492120	-1.028390
C45	C	1.418166	-0.492147	-0.918666
C46	C	1.642464	-0.310152	-0.930980
C47	C	1.642492	-0.310119	-1.040706
C48	C	1.489128	-0.434627	-0.203921
C49	C	1.489315	-0.434412	-0.087160
H50	H	0.883051	-0.539181	-0.347752
F51	F	1.663228	-0.907313	-0.651203
F52	F	1.095279	-0.343244	-0.729032
H53	H	1.087424	-0.240526	-0.613338
F54	F	1.747204	-0.334571	-1.077988
H55	H	1.082116	-0.539142	-0.347725
F56	F	1.650272	-1.101810	-0.638186
F57	F	1.372995	-1.102226	-0.360519
H58	H	1.360316	-0.539075	-1.069892
F59	F	1.315257	-0.960984	-0.302713
H60	H	1.344217	-0.778222	-0.331760
H61	H	0.913655	-0.244043	-0.605762
H62	H	0.912220	-0.329251	-0.710363
F63	F	1.610155	-0.223383	-1.091052
F64	F	1.605478	-0.766078	-0.593416
F65	F	1.342468	-0.553552	-0.856131
H66	H	1.625396	-0.240279	-0.905926
H67	H	1.718051	-0.335202	-0.895258
