data_functionalizedCrystal
_audit_creation_method	'MofGen! by Chris Wilmer'
_symmetry_space_group_name_H-M	'P1'
_symmetry_Int_Tables_number	1
_symmetry_cell_setting	triclinic
loop_
_symmetry_equiv_pos_as_xyz
  x,y,z
_cell_length_a	6.817900
_cell_length_b	16.256275
_cell_length_c	16.255733
_cell_angle_alpha	95.348650
_cell_angle_beta	103.490223
_cell_angle_gamma	103.500333
loop_
_atom_site_label
_atom_site_type_symbol
_atom_site_fract_x
_atom_site_fract_y
_atom_site_fract_z
V1	V	-4.026787	-0.117772	-0.264173
O2	O	-4.014198	0.004962	-0.258835
O3	O	-3.978401	-0.232852	-0.262665
O4	O	-3.978353	-0.116267	-0.379252
O5	O	-4.014247	-0.112430	-0.141440
V6	V	-4.510417	-0.103056	-0.249457
O7	O	-4.287809	-0.150055	-0.296454
O8	O	-4.699592	-0.070774	-0.217176
O9	O	-4.335597	0.012024	-0.250966
O10	O	-4.640403	-0.225790	-0.254796
O11	O	-4.640354	-0.108398	-0.372191
O12	O	-4.335645	-0.104561	-0.134378
C13	C	-3.823407	-0.260896	-0.258574
C14	C	-3.865132	-0.354978	-0.258107
C15	C	-3.823344	-0.112179	-0.407292
C16	C	-3.865027	-0.111710	-0.501372
C17	C	-4.156079	-0.586808	-0.261382
C18	C	-4.122336	-0.651952	-0.329021
C19	C	-3.941433	-0.527223	-0.257239
C20	C	-4.049512	-0.629717	-0.188785
C21	C	-4.015149	-0.693605	-0.256396
C22	C	-3.907170	-0.591138	-0.324942
C23	C	-3.834339	-0.568888	-0.184643
C24	C	-3.800454	-0.634006	-0.252297
C25	C	-3.898973	-0.431376	-0.257725
C26	C	-4.057596	-0.789451	-0.255916
C27	C	-3.800525	-0.105849	-0.780451
C28	C	-3.834208	-0.038210	-0.715289
C29	C	-4.015179	-0.109990	-0.840006
C30	C	-3.907092	-0.178447	-0.737530
C31	C	-3.941395	-0.110836	-0.673624
C32	C	-4.049383	-0.042286	-0.776074
C33	C	-4.122274	-0.182586	-0.798330
C34	C	-4.156099	-0.114933	-0.733193
C35	C	-4.057678	-0.109501	-0.935855
C36	C	-3.898908	-0.111319	-0.577777
C37	C	-4.153933	0.040064	-0.255054
C38	C	-4.091446	0.134144	-0.255526
C39	C	-4.153996	-0.108652	-0.106334
C40	C	-4.091551	-0.109117	-0.012253
H41	H	-4.306024	-0.565950	-0.265315
H42	H	-3.712042	0.022828	-0.679255
H43	H	-3.650603	-0.101916	-0.801336
H44	H	-4.109821	0.015325	-0.793186
H45	H	-3.846709	-0.574011	-0.382551
C46	C	-4.287236	-0.265040	-0.847047
C47	C	-4.506500	-0.286572	-0.831414
C48	C	-4.671448	-0.369033	-0.880136
C49	C	-4.617133	-0.429963	-0.944490
C50	C	-4.397859	-0.408432	-0.960125
C51	C	-4.232911	-0.325971	-0.911404
H52	H	-4.546717	-0.241467	-0.783773
H53	H	-4.833769	-0.384971	-0.868561
H54	H	-4.739237	-0.491005	-0.980556
H55	H	-4.357642	-0.453537	-1.007767
H56	H	-4.070589	-0.310033	-0.922979
C57	C	-4.131389	-0.653000	-0.111041
C58	C	-4.335848	-0.633636	-0.100931
C59	C	-4.417736	-0.656912	-0.023190
C60	C	-4.295166	-0.699553	0.044440
C61	C	-4.090695	-0.718919	0.034333
C62	C	-4.008807	-0.695643	-0.043408
H63	H	-4.426592	-0.602069	-0.150997
H64	H	-4.569099	-0.642576	-0.015708
H65	H	-4.355784	-0.716783	0.101989
H66	H	-3.999951	-0.750486	0.084399
H67	H	-3.857444	-0.709979	-0.050890
C68	C	-3.825231	-0.256188	-0.714257
C69	C	-3.796317	-0.318793	-0.784806
C70	C	-3.714440	-0.396528	-0.761534
C71	C	-3.661477	-0.411659	-0.667713
C72	C	-3.690390	-0.349052	-0.597157
C73	C	-3.772267	-0.271317	-0.620429
H74	H	-3.835524	-0.307594	-0.854264
H75	H	-3.693037	-0.442873	-0.813764
H76	H	-3.600867	-0.469203	-0.650485
H77	H	-3.651183	-0.360251	-0.527700
H78	H	-3.793670	-0.224972	-0.568199
H79	H	-4.306166	-0.118759	-0.712452
H80	H	-3.650366	-0.654723	-0.248470
C81	C	-4.287330	-0.700657	-0.411475
C82	C	-4.507786	-0.686197	-0.432162
C83	C	-4.672791	-0.734898	-0.514612
C84	C	-4.617338	-0.798060	-0.576376
C85	C	-4.396871	-0.812523	-0.555691
C86	C	-4.231867	-0.763821	-0.473240
H87	H	-4.548845	-0.639438	-0.386440
H88	H	-4.835995	-0.724191	-0.529924
H89	H	-4.739484	-0.834111	-0.637410
H90	H	-4.355813	-0.859281	-0.601413
H91	H	-4.068662	-0.774528	-0.457928
H92	H	-3.712261	-0.532826	-0.123605
