data_functionalizedCrystal
_audit_creation_method	'MofGen! by Chris Wilmer'
_symmetry_space_group_name_H-M	'P1'
_symmetry_Int_Tables_number	1
_symmetry_cell_setting	triclinic
loop_
_symmetry_equiv_pos_as_xyz
  x,y,z
_cell_length_a	14.908662
_cell_length_b	18.215407
_cell_length_c	18.215405
_cell_angle_alpha	89.977530
_cell_angle_beta	93.269870
_cell_angle_gamma	93.317081
loop_
_atom_site_label
_atom_site_type_symbol
_atom_site_fract_x
_atom_site_fract_y
_atom_site_fract_z
Zn1	Zn	-0.510105	-1.149091	-0.316980
Zn2	Zn	-0.359248	-1.141906	-0.432954
Zn3	Zn	-0.359261	-1.018925	-0.309908
Zn4	Zn	-0.510058	-1.025993	-0.440008
O5	O	-0.434668	-1.083979	-0.374962
O6	O	-0.490108	-1.251122	-0.332372
O7	O	-0.233006	-1.119628	-0.410720
O8	O	-0.379296	-1.036240	-0.207863
O9	O	-0.379274	-1.245844	-0.417578
O10	O	-0.490120	-1.131872	-0.213059
O11	O	-0.233016	-1.029274	-0.320319
O12	O	-0.379250	-0.916878	-0.327158
O13	O	-0.636308	-1.048287	-0.429600
O14	O	-0.490041	-0.922070	-0.422742
O15	O	-0.636342	-1.138726	-0.339211
O16	O	-0.379228	-1.126481	-0.536873
O17	O	-0.490028	-1.041320	-0.542055
C18	C	-0.434642	-0.892771	-0.374949
C19	C	-0.434653	-0.810973	-0.374961
C20	C	-0.434641	-1.083909	-0.566168
C21	C	-0.434660	-1.083948	-0.647967
C22	C	-0.669974	-1.095096	-0.385981
C23	C	-0.770247	-1.099834	-0.390677
C24	C	-0.911576	-1.153545	-0.444357
C25	C	-0.817360	-1.149099	-0.439949
C26	C	-0.817356	-1.055010	-0.345811
C27	C	-0.911572	-1.059456	-0.350219
C28	C	-0.958679	-1.108726	-0.399493
C29	C	-1.052896	-1.113175	-0.403897
C30	C	-1.052890	-1.019083	-0.309763
C31	C	-0.958675	-1.014637	-0.305355
C32	C	-0.200278	-1.072947	-0.363934
C33	C	-0.100005	-1.068352	-0.359031
C34	C	-0.434695	-1.275933	-0.374977
C35	C	-0.434706	-1.357732	-0.374983
C36	C	-0.492269	-0.625499	-0.424803
C37	C	-0.492280	-0.548640	-0.424805
C38	C	-0.377087	-0.543212	-0.325137
C39	C	-0.377081	-0.620069	-0.325131
C40	C	-0.434671	-0.661210	-0.374968
C41	C	-0.434688	-0.507495	-0.374977
C42	C	-0.434700	-0.424162	-0.374979
C43	C	-0.434660	-0.744549	-0.374965
C44	C	-0.492455	-1.133792	-0.915677
C45	C	-0.492441	-1.133767	-0.838817
C46	C	-0.376934	-1.034262	-0.833509
C47	C	-0.376944	-1.034291	-0.910367
C48	C	-0.434709	-1.084055	-0.951449
C49	C	-0.434686	-1.084001	-0.797732
C50	C	-0.434670	-1.083973	-0.714398
C51	C	-0.434724	-1.084084	-1.034789
C52	C	-0.434715	-1.084069	-0.183012
C53	C	-0.434735	-1.084108	-0.101214
H54	H	-0.949931	-1.193668	-0.484472
C55	C	-0.555965	-1.188476	-0.799468
C56	C	-0.555954	-1.188452	-0.714927
C57	C	-0.619480	-1.243165	-0.675578
C58	C	-0.683015	-1.297902	-0.720770
C59	C	-0.683028	-1.297928	-0.805315
C60	C	-0.619503	-1.243215	-0.844664
H61	H	-0.508919	-1.147931	-0.681470
H62	H	-0.619470	-1.243146	-0.612992
H63	H	-0.730041	-1.338404	-0.691641
H64	H	-0.730063	-1.338449	-0.838773
H65	H	-0.619512	-1.243235	-0.907250
H66	H	-0.329903	-0.993744	-0.800053
H67	H	-0.539495	-1.174310	-0.949124
C68	C	-0.765546	-1.198403	-0.489297
C69	C	-0.661913	-1.193516	-0.484452
C70	C	-0.610099	-1.242822	-0.533803
C71	C	-0.661918	-1.297015	-0.587999
C72	C	-0.765558	-1.301904	-0.592846
C73	C	-0.817372	-1.252598	-0.543495
H74	H	-0.623548	-1.153397	-0.444331
H75	H	-0.533378	-1.239202	-0.530214
H76	H	-0.623563	-1.333514	-0.624532
H77	H	-0.803923	-1.342023	-0.632968
H78	H	-0.894093	-1.256218	-0.547084
H79	H	-0.778986	-1.014891	-0.305701
C80	C	-0.555636	-0.509358	-0.479628
C81	C	-0.516428	-0.454641	-0.535523
C82	C	-0.579788	-0.415360	-0.590347
C83	C	-0.682356	-0.430796	-0.589276
C84	C	-0.721569	-0.485516	-0.533379
C85	C	-0.658209	-0.524797	-0.478555
H86	H	-0.440496	-0.443212	-0.536317
H87	H	-0.550758	-0.374853	-0.631726
H88	H	-0.729258	-0.401718	-0.629861
H89	H	-0.797501	-0.496945	-0.532585
H90	H	-0.687238	-0.565304	-0.437176
C91	C	-0.313420	-0.979576	-0.949722
C92	C	-0.242638	-1.008195	-0.999236
C93	C	-0.179115	-0.953484	-1.038590
C94	C	-0.186373	-0.870156	-1.028430
C95	C	-0.257157	-0.841533	-0.978914
C96	C	-0.320681	-0.896243	-0.939559
H97	H	-0.237263	-1.069883	-1.006759
H98	H	-0.126715	-0.974673	-1.075246
H99	H	-0.139349	-0.829656	-1.057563
H100	H	-0.262533	-0.779844	-0.971391
H101	H	-0.373080	-0.875054	-0.902904
C102	C	-0.906855	-0.960445	-0.251154
C103	C	-0.919791	-0.877390	-0.257754
C104	C	-0.867975	-0.823198	-0.203549
C105	C	-0.803222	-0.852060	-0.142744
C106	C	-0.790283	-0.935118	-0.136141
C107	C	-0.842100	-0.989310	-0.190346
H108	H	-0.967727	-0.856021	-0.302768
H109	H	-0.877553	-0.761713	-0.208437
H110	H	-0.764865	-0.811943	-0.102619
H111	H	-0.742347	-0.956487	-0.091128
H112	H	-0.832521	-1.050796	-0.185458
C113	C	-0.313734	-0.497954	-0.270324
C114	C	-0.313733	-0.413414	-0.270330
C115	C	-0.250375	-0.368158	-0.215518
C116	C	-0.187019	-0.407442	-0.160699
C117	C	-0.187018	-0.491987	-0.160690
C118	C	-0.250376	-0.537243	-0.215503
H119	H	-0.360635	-0.384329	-0.310912
H120	H	-0.250376	-0.305572	-0.215524
H121	H	-0.140118	-0.373941	-0.120123
H122	H	-0.140116	-0.521071	-0.120108
H123	H	-0.250375	-0.599828	-0.215496
H124	H	-1.091249	-1.153296	-0.444016
C125	C	-1.104702	-0.969779	-0.260405
C126	C	-1.091730	-0.885502	-0.265791
C127	C	-1.143540	-0.836203	-0.216431
C128	C	-1.208322	-0.871181	-0.161684
C129	C	-1.221297	-0.955462	-0.156296
C130	C	-1.169487	-1.004762	-0.205656
H131	H	-1.043771	-0.859605	-0.306320
H132	H	-1.133935	-0.773812	-0.220420
H133	H	-1.246675	-0.834686	-0.125145
H134	H	-1.269256	-0.981359	-0.115767
H135	H	-1.179092	-1.067153	-0.201667
H136	H	-0.330178	-0.649146	-0.284545
H137	H	-0.539164	-0.658994	-0.465382
