data_functionalizedCrystal
_audit_creation_method	'MofGen! by Chris Wilmer'
_symmetry_space_group_name_H-M	'P1'
_symmetry_Int_Tables_number	1
_symmetry_cell_setting	triclinic
loop_
_symmetry_equiv_pos_as_xyz
  x,y,z
_cell_length_a	8.497374
_cell_length_b	21.395362
_cell_length_c	21.395363
_cell_angle_alpha	90.018025
_cell_angle_beta	89.998122
_cell_angle_gamma	90.022954
loop_
_atom_site_label
_atom_site_type_symbol
_atom_site_fract_x
_atom_site_fract_y
_atom_site_fract_z
Zn1	Zn	0.892963	0.957854	-0.249282
Zn2	Zn	0.629213	0.957847	-0.354031
Zn3	Zn	0.629093	0.853107	-0.249300
Zn4	Zn	0.892847	0.853090	-0.354054
O5	O	0.761029	0.905475	-0.301667
O6	O	0.858075	1.045531	-0.263159
O7	O	0.408435	0.943957	-0.340136
O8	O	0.664094	0.867012	-0.161620
O9	O	0.664299	1.045526	-0.340118
O10	O	0.857958	0.943969	-0.161606
O11	O	0.408346	0.867005	-0.263191
O12	O	0.663981	0.765427	-0.263214
O13	O	1.113625	0.866983	-0.340158
O14	O	0.857760	0.765415	-0.340176
O15	O	1.113710	0.943953	-0.263182
O16	O	0.664187	0.943941	-0.441712
O17	O	0.857877	0.866976	-0.441729
C18	C	0.760846	0.742687	-0.301700
C19	C	0.760805	0.673046	-0.301729
C20	C	0.761067	0.905473	-0.464454
C21	C	0.761136	0.905530	-0.534095
C22	C	0.861555	0.640343	-0.341856
C23	C	0.861625	0.574907	-0.341841
C24	C	0.760917	0.542177	-0.301705
C25	C	0.660161	0.574888	-0.261570
C26	C	0.660104	0.640323	-0.261582
C27	C	0.618893	0.438471	-0.296652
C28	C	0.618946	0.373038	-0.296644
C29	C	0.761092	0.340357	-0.301664
C30	C	0.903188	0.373116	-0.306705
C31	C	0.903132	0.438551	-0.306717
C32	C	0.760968	0.471225	-0.301687
C33	C	0.861926	0.236701	-0.341777
C34	C	0.861999	0.171264	-0.341757
C35	C	0.660520	0.171247	-0.261489
C36	C	0.660462	0.236682	-0.261506
C37	C	0.761162	0.269405	-0.301653
C38	C	1.172509	0.905470	-0.301668
C39	C	1.351153	0.905471	-0.301674
C40	C	0.761214	1.068898	-0.301634
C41	C	0.761292	1.138539	-0.301620
C42	C	0.761025	0.905493	-0.138243
C43	C	0.761024	0.905501	-0.068602
C44	C	0.660091	0.865441	-0.035895
C45	C	0.660110	0.865440	0.029540
C46	C	0.761045	0.905511	0.062266
C47	C	0.861997	0.945574	0.029551
C48	C	0.861987	0.945569	-0.035883
C49	C	0.773577	0.961968	0.165947
C50	C	0.773576	0.961974	0.231380
C51	C	0.761086	0.905526	0.264087
C52	C	0.748564	0.849070	0.231353
C53	C	0.748553	0.849065	0.165919
C54	C	0.761068	0.905520	0.133219
C55	C	0.660168	0.865461	0.367747
C56	C	0.660198	0.865460	0.433183
C57	C	0.862077	0.945598	0.433193
C58	C	0.862055	0.945595	0.367757
C59	C	0.761093	0.905527	0.335038
H60	H	0.943556	0.666982	-0.374547
H61	H	0.944237	0.978219	0.341127
H62	H	0.943931	0.263346	-0.374464
O63	O	0.736345	0.794177	0.263019
C64	C	0.725331	0.744350	0.220098
H65	H	0.679625	0.762615	0.173461
H66	H	0.640886	0.707504	0.238998
H67	H	0.846570	0.722638	0.213127
O68	O	0.562860	0.139481	-0.222417
C69	C	0.597517	0.155514	-0.159992
H70	H	0.723536	0.173547	-0.156902
H71	H	0.584091	0.112486	-0.129030
H72	H	0.512950	0.193471	-0.143565
H73	H	0.944182	0.978199	0.056200
O74	O	0.736630	0.794259	0.134054
C75	C	0.870940	0.786182	0.096212
H76	H	0.926803	0.833631	0.086422
H77	H	0.835283	0.763344	0.050192
H78	H	0.959336	0.755040	0.121420
O79	O	0.785656	1.016864	0.134275
C80	C	0.796736	1.066691	0.177195
H81	H	0.743713	1.051862	0.223837
H82	H	0.729779	1.108804	0.158301
H83	H	0.925670	1.079699	0.184153
O84	O	0.960092	0.139564	-0.380710
C85	C	1.117368	0.155598	-0.367117
H86	H	1.120694	0.203121	-0.343042
H87	H	1.187913	0.157836	-0.412384
H88	H	1.170676	0.118804	-0.334933
H89	H	0.577966	0.832833	0.341105
O90	O	0.959555	0.543227	-0.380879
C91	C	1.048461	0.586141	-0.416300
H92	H	0.983798	0.632765	-0.418443
H93	H	1.065118	0.567211	-0.465671
H94	H	1.168357	0.593148	-0.393431
O95	O	1.041299	0.470277	-0.311584
C96	C	1.166778	0.427407	-0.316030
H97	H	1.129558	0.380761	-0.294946
H98	H	1.272893	0.446360	-0.289486
H99	H	1.199351	0.420435	-0.367250
O100	O	0.562352	0.268425	-0.222597
C101	C	0.405083	0.252370	-0.236178
H102	H	0.396940	0.234355	-0.286224
H103	H	0.327127	0.295381	-0.230740
H104	H	0.364011	0.214392	-0.202554
H105	H	0.577916	0.832817	0.056175
H106	H	0.944266	0.978222	0.459838
O107	O	0.561997	0.826523	0.464860
C108	C	0.472915	0.791150	0.421946
H109	H	0.467479	0.816812	0.375310
H110	H	0.348614	0.784476	0.440857
H111	H	0.530616	0.743561	0.414971
O112	O	0.785451	1.016807	0.263200
C113	C	0.651182	1.024883	0.301065
H114	H	0.549698	0.996130	0.281342
H115	H	0.616921	1.076388	0.301817
H116	H	0.678351	1.008661	0.350653
O117	O	0.561980	0.826457	-0.067580
C118	C	0.472870	0.791110	-0.024675
H119	H	0.537492	0.788944	0.021966
H120	H	0.455980	0.741742	-0.043590
H121	H	0.353084	0.814058	-0.017707
H122	H	0.944184	0.978190	-0.062513
H123	H	1.018937	0.346509	-0.310792
H124	H	0.503243	0.346370	-0.292543
O125	O	0.480739	0.470189	-0.291889
C126	C	0.382268	0.454132	-0.342449
H127	H	0.457044	0.436141	-0.382865
H128	H	0.313744	0.497137	-0.358183
H129	H	0.296392	0.416137	-0.327184
H130	H	0.578167	0.548236	-0.228889
H131	H	0.578062	0.666949	-0.228903
