data_functionalizedCrystal
_audit_creation_method	'MofGen! by Chris Wilmer'
_symmetry_space_group_name_H-M	'P1'
_symmetry_Int_Tables_number	1
_symmetry_cell_setting	triclinic
loop_
_symmetry_equiv_pos_as_xyz
  x,y,z
_cell_length_a	15.995350
_cell_length_b	12.837942
_cell_length_c	11.295483
_cell_angle_alpha	85.469583
_cell_angle_beta	94.101747
_cell_angle_gamma	89.160658
loop_
_atom_site_label
_atom_site_type_symbol
_atom_site_fract_x
_atom_site_fract_y
_atom_site_fract_z
O1	O	-1.126724	-0.126645	-0.098922
O2	O	-0.884267	-0.143143	-0.098946
O3	O	-1.000119	0.016009	-0.098927
O4	O	-1.010872	-0.285796	-0.098941
O5	O	-0.989941	0.002051	0.099122
O6	O	-0.874089	-0.157100	0.099103
O7	O	-1.116547	-0.140602	0.099127
Cu8	Cu	-0.994389	-0.150125	0.117198
Cu9	Cu	-1.006425	-0.133619	-0.117018
O10	O	-1.000695	-0.299753	0.099108
C11	C	-0.847929	-0.149439	0.000075
C12	C	-0.754816	-0.147393	0.000066
C13	C	-0.991398	0.047651	0.000096
C14	C	-0.980565	0.162728	0.000093
C15	C	-1.152885	-0.134305	0.000103
C16	C	-1.245998	-0.136350	0.000104
C17	C	-0.416481	-0.140051	0.000091
C18	C	-0.454849	-0.026737	0.000538
C19	C	-0.551725	-0.028750	0.000083
C20	C	-0.584333	-0.143693	0.000079
C21	C	-0.553518	-0.191629	-0.113014
C22	C	-0.456659	-0.188775	-0.113101
C23	C	-0.444934	-0.206989	0.112118
C24	C	-0.541801	-0.207067	0.113605
C25	C	-0.679196	-0.145757	0.000069
C26	C	-0.321619	-0.137990	0.000094
C27	C	-1.009416	-0.331395	0.000082
C28	C	-1.020249	-0.446472	0.000077
N29	N	-0.985930	-0.161734	0.281933
C30	C	-1.110803	0.403687	0.000081
C31	C	-1.100628	0.511813	0.000078
C32	C	-0.950041	0.487109	0.000075
C33	C	-0.960216	0.378983	0.000078
C34	C	-1.040599	0.337276	0.000083
C35	C	-1.050773	0.229147	0.000095
C36	C	-0.900187	0.204446	0.000083
C37	C	-0.890012	0.312572	0.000080
N38	N	-1.014890	-0.122002	-0.281753
C39	C	-1.075780	-0.038379	0.531237
C40	C	-1.069394	-0.047159	0.655900
C41	C	-0.966767	-0.188069	0.655923
C42	C	-0.973153	-0.179289	0.531261
C43	C	-1.027662	-0.104442	0.468922
C44	C	-1.034052	-0.095668	0.344257
C45	C	-0.931422	-0.236572	0.344283
C46	C	-0.925036	-0.245352	0.468945
H47	H	-0.572482	0.009482	0.081154
C48	C	-0.861629	0.533000	0.000070
H49	H	-0.865628	0.606907	0.000073
H50	H	-0.835903	0.515067	-0.068991
H51	H	-0.828815	0.505347	0.069146
H52	H	-1.157795	0.565882	0.000073
H53	H	-0.922381	-0.249000	0.706696
C54	C	-0.822961	0.131392	0.000076
H55	H	-0.840531	0.061022	0.000070
H56	H	-0.786807	0.139174	0.069135
H57	H	-0.793909	0.148902	-0.069002
C58	C	-0.429120	0.041876	-0.108408
H59	H	-0.452561	0.110203	-0.107452
H60	H	-0.449177	0.012259	-0.179231
H61	H	-0.369745	0.045509	-0.105741
H62	H	-1.120169	0.022558	0.480480
C63	C	-0.590234	0.038735	-0.109627
H64	H	-0.546663	0.067481	-0.154098
H65	H	-0.623385	0.093688	-0.084412
H66	H	-0.624403	-0.003340	-0.158074
H67	H	-1.078439	-0.034727	0.293502
H68	H	-0.880653	-0.306288	0.519716
H69	H	-1.116225	0.195192	0.000103
H70	H	-0.431314	-0.271630	-0.118236
H71	H	-0.824566	0.346545	0.000072
H72	H	-0.574597	-0.275778	-0.117222
H73	H	-0.892244	-0.290368	0.293532
H74	H	-1.108575	0.006638	0.706634
C75	C	-0.433396	-0.125646	-0.227294
H76	H	-0.483112	-0.101977	-0.273192
H77	H	-0.401440	-0.168771	-0.272510
H78	H	-0.401295	-0.067222	-0.206624
H79	H	-0.428544	0.012855	0.081642
H80	H	-0.583119	-0.146868	-0.197178
C81	C	-0.407258	-0.165094	0.227926
H82	H	-0.425202	-0.206576	0.294440
H83	H	-0.425509	-0.094726	0.231401
H84	H	-0.347812	-0.168145	0.229386
C85	C	-0.568488	-0.159901	0.226633
H86	H	-0.605399	-0.101832	0.204743
H87	H	-0.520280	-0.137568	0.271050
H88	H	-0.596270	-0.211206	0.273829
H89	H	-0.563503	-0.291368	0.120433
H90	H	-1.176253	0.369728	0.000097
C91	C	-0.410987	-0.319955	0.113150
H92	H	-0.379621	-0.326340	0.045682
H93	H	-0.456519	-0.366603	0.110662
H94	H	-0.375860	-0.336605	0.183733
