data_functionalizedCrystal
_audit_creation_method	'MofGen! by Chris Wilmer'
_symmetry_space_group_name_H-M	'P1'
_symmetry_Int_Tables_number	1
_symmetry_cell_setting	triclinic
loop_
_symmetry_equiv_pos_as_xyz
  x,y,z
_cell_length_a	17.019383
_cell_length_b	17.019294
_cell_length_c	13.596369
_cell_angle_alpha	86.115041
_cell_angle_beta	86.118699
_cell_angle_gamma	83.133350
loop_
_atom_site_label
_atom_site_type_symbol
_atom_site_fract_x
_atom_site_fract_y
_atom_site_fract_z
O1	O	1.046555	0.100560	-0.178861
O2	O	1.379888	0.433893	0.154472
O3	O	1.713222	0.767226	0.487806
O4	O	0.816878	0.113362	-0.160513
O5	O	1.150211	0.446695	0.172820
O6	O	1.483545	0.780029	0.506154
O7	O	0.938124	-0.007879	-0.160498
O8	O	1.271457	0.325454	0.172835
O9	O	1.604790	0.658788	0.506169
O10	O	0.925309	0.221801	-0.178876
O11	O	1.258643	0.555134	0.154457
O12	O	1.591976	0.888467	0.487791
O13	O	0.938112	-0.007885	0.003087
O14	O	1.271445	0.325448	0.336420
O15	O	1.604778	0.658781	0.669753
O16	O	0.816866	0.113356	0.003072
O17	O	1.150199	0.446689	0.336405
O18	O	1.483533	0.780022	0.669738
O19	O	1.046543	0.100553	-0.015276
O20	O	1.379876	0.433887	0.318057
O21	O	1.713210	0.767220	0.651390
Zn22	Zn	0.931703	0.106953	0.019870
Zn23	Zn	1.265036	0.440287	0.353203
Zn24	Zn	1.598369	0.773620	0.686537
Zn25	Zn	0.931718	0.106962	-0.195659
Zn26	Zn	1.265052	0.440295	0.137674
Zn27	Zn	1.598385	0.773629	0.471007
O28	O	0.925297	0.221794	-0.015291
O29	O	1.258631	0.555128	0.318042
O30	O	1.591964	0.888461	0.651375
C31	C	0.787484	0.112871	-0.076193
C32	C	1.120817	0.446205	0.257140
C33	C	1.454151	0.779538	0.590474
C34	C	0.699916	0.111409	-0.068660
C35	C	1.033250	0.444742	0.264673
C36	C	1.366583	0.778076	0.598007
C37	C	0.937632	-0.037271	-0.076176
C38	C	1.270965	0.296062	0.257157
C39	C	1.604298	0.629396	0.590490
C40	C	0.936174	-0.124840	-0.068639
C41	C	1.269507	0.208493	0.264694
C42	C	1.602840	0.541827	0.598028
C43	C	0.658776	0.110727	-0.154284
C44	C	0.992109	0.444061	0.179049
C45	C	1.325443	0.777394	0.512383
C46	C	0.576495	0.109366	-0.147193
C47	C	0.909829	0.442699	0.186141
C48	C	1.243162	0.776032	0.519474
C49	C	0.535357	0.108680	-0.054476
C50	C	0.868691	0.442014	0.278857
C51	C	1.202024	0.775347	0.612190
C52	C	0.576503	0.109364	0.031154
C53	C	0.909836	0.442698	0.364487
C54	C	1.243169	0.776031	0.697821
C55	C	0.658781	0.110732	0.024061
C56	C	0.992115	0.444065	0.357395
C57	C	1.325448	0.777398	0.690728
C58	C	0.286929	0.104558	-0.028600
C59	C	0.620262	0.437891	0.304733
C60	C	0.953595	0.771224	0.638066
C61	C	0.204645	0.103188	-0.021514
C62	C	0.537978	0.436521	0.311819
C63	C	0.871312	0.769855	0.645153
C64	C	0.204643	0.103191	-0.199861
C65	C	0.537976	0.436524	0.133472
C66	C	0.871310	0.769858	0.466805
C67	C	0.286924	0.104553	-0.206946
C68	C	0.620257	0.437887	0.126388
C69	C	0.953590	0.771220	0.459721
C70	C	0.328062	0.105242	-0.121316
C71	C	0.661395	0.438575	0.212017
C72	C	0.994728	0.771908	0.545351
C73	C	0.451253	0.107286	-0.047225
C74	C	0.784587	0.440620	0.286108
C75	C	1.117920	0.773953	0.619441
C76	C	0.412163	0.106641	-0.128568
C77	C	0.745496	0.439975	0.204765
C78	C	1.078830	0.773308	0.538099
C79	C	0.935497	-0.165972	-0.154267
C80	C	1.268831	0.167361	0.179066
C81	C	1.602164	0.500695	0.512399
C82	C	0.934123	-0.248252	-0.147182
C83	C	1.267456	0.085082	0.186152
C84	C	1.600789	0.418415	0.519485
C85	C	0.933430	-0.289399	-0.054467
C86	C	1.266763	0.043935	0.278866
C87	C	1.600097	0.377268	0.612199
C88	C	0.934104	-0.248260	0.031168
C89	C	1.267437	0.085073	0.364501
C90	C	1.600771	0.418406	0.697834
C91	C	0.935473	-0.165981	0.024082
C92	C	1.268806	0.167352	0.357415
C93	C	1.602140	0.500685	0.690748
C94	C	0.929291	-0.537828	-0.028610
C95	C	1.262624	-0.204494	0.304723
C96	C	1.595957	0.128839	0.638056
C97	C	0.927924	-0.620113	-0.021531
C98	C	1.261257	-0.286779	0.311803
C99	C	1.594590	0.046554	0.645136
C100	C	0.927941	-0.620098	-0.199881
C101	C	1.261274	-0.286765	0.133453
C102	C	1.594607	0.046569	0.466786
C103	C	0.929315	-0.537818	-0.206959
C104	C	1.262648	-0.204485	0.126374
C105	C	1.595981	0.128848	0.459708
C106	C	0.929985	-0.496687	-0.121324
C107	C	1.263318	-0.163353	0.212009
C108	C	1.596651	0.169980	0.545343
C109	C	0.932027	-0.373502	-0.047223
C110	C	1.265360	-0.040169	0.286111
C111	C	1.598694	0.293165	0.619444
C112	C	0.931382	-0.412584	-0.128569
C113	C	1.264715	-0.079251	0.204764
C114	C	1.598048	0.254083	0.538098
C115	C	1.075937	0.101044	-0.099599
C116	C	1.409270	0.434377	0.233735
C117	C	1.742604	0.767711	0.567068
C118	C	1.163505	0.102507	-0.107138
C119	C	1.496838	0.435840	0.226196
C120	C	1.830171	0.769173	0.559529
C121	C	0.925789	0.251186	-0.099615
C122	C	1.259123	0.584520	0.233718
C123	C	1.592456	0.917853	0.567052
C124	C	0.927247	0.338755	-0.107159
C125	C	1.260581	0.672089	0.226174
C126	C	1.593914	1.005422	0.559508
N127	N	0.931697	0.106947	0.166963
N128	N	1.265031	0.440281	0.500296
N129	N	1.598364	0.773614	0.833630
N130	N	0.931730	0.106962	-0.342752
N131	N	1.265063	0.440295	-0.009419
N132	N	1.598396	0.773629	0.323914
C133	C	0.931717	0.106963	0.568251
C134	C	1.265051	0.440296	0.901584
C135	C	1.598384	0.773629	1.234918
C136	C	0.931710	0.106961	0.456600
C137	C	1.265043	0.440294	0.789934
C138	C	1.598376	0.773628	1.123267
C139	C	0.931708	0.106956	0.367610
C140	C	1.265041	0.440289	0.700944
C141	C	1.598374	0.773622	1.034277
C142	C	0.931699	0.106953	0.255953
C143	C	1.265033	0.440286	0.589286
C144	C	1.598366	0.773619	0.922620
H145	H	0.692265	0.111283	-0.229784
H146	H	1.025599	0.444616	0.103550
H147	H	1.358932	0.777950	0.436883
Cl148	Cl	0.524785	0.108509	0.147712
Cl149	Cl	0.858118	0.441842	0.481046
Cl150	Cl	1.191452	0.775176	0.814379
Cl151	Cl	0.524780	0.108510	-0.254840
Cl152	Cl	0.858113	0.441843	0.078494
Cl153	Cl	1.191446	0.775176	0.411827
Cl154	Cl	0.399530	0.106423	0.069329
Cl155	Cl	0.732863	0.439756	0.402663
Cl156	Cl	1.066197	0.773090	0.735996
H157	H	0.320414	0.105106	-0.282445
H158	H	0.653747	0.438439	0.050889
H159	H	0.987080	0.771773	0.384222
Cl160	Cl	0.936373	-0.114253	-0.270829
Cl161	Cl	1.269707	0.219080	0.062504
Cl162	Cl	1.603040	0.552413	0.395837
Cl163	Cl	0.927058	-0.671840	0.095033
Cl164	Cl	1.260391	-0.338506	0.428367
Cl165	Cl	1.593725	-0.005173	0.761700
H166	H	0.927394	-0.653596	-0.269600
H167	H	1.260727	-0.320263	0.063734
H168	H	1.594060	0.013070	0.397067
H169	H	0.936013	-0.132491	0.093810
H170	H	1.269346	0.200842	0.427144
H171	H	1.602680	0.534176	0.760477
H172	H	0.931466	-0.407013	0.028266
H173	H	1.264799	-0.073680	0.361599
H174	H	1.598132	0.259653	0.694932
H175	H	0.171139	0.102633	-0.269576
H176	H	0.504473	0.435966	0.063757
H177	H	0.837806	0.769299	0.397090
Cl178	Cl	0.933274	-0.299958	-0.254834
Cl179	Cl	1.266607	0.033376	0.078499
Cl180	Cl	1.599940	0.366709	0.411832
H181	H	0.320414	0.105113	0.041126
H182	H	0.653747	0.438446	0.374459
H183	H	0.987081	0.771779	0.707793
Cl184	Cl	0.152931	0.102310	0.095054
Cl185	Cl	0.486265	0.435644	0.428387
Cl186	Cl	0.819598	0.768977	0.761721
Cl187	Cl	0.930187	-0.486097	-0.323519
Cl188	Cl	1.263521	-0.152764	0.009814
Cl189	Cl	1.596854	0.180570	0.343147
H190	H	0.929852	-0.504350	0.041119
H191	H	1.263185	-0.171017	0.374452
H192	H	1.596518	0.162316	0.707786
Cl193	Cl	0.932257	-0.360856	-0.245121
Cl194	Cl	1.265590	-0.027523	0.088213
Cl195	Cl	1.598923	0.305811	0.421546
H196	H	0.692276	0.111290	0.093785
H197	H	1.025609	0.444623	0.427119
H198	H	1.358943	0.777957	0.760452
Cl199	Cl	0.463881	0.107505	-0.245122
Cl200	Cl	0.797214	0.440839	0.088211
Cl201	Cl	1.130547	0.774172	0.421545
Cl202	Cl	0.933224	-0.299987	0.147725
Cl203	Cl	1.266557	0.033347	0.481058
Cl204	Cl	1.599890	0.366680	0.814391
