data_functionalizedCrystal
_audit_creation_method	'MofGen! by Chris Wilmer'
_symmetry_space_group_name_H-M	'P1'
_symmetry_Int_Tables_number	1
_symmetry_cell_setting	triclinic
loop_
_symmetry_equiv_pos_as_xyz
  x,y,z
_cell_length_a	6.817900
_cell_length_b	14.125469
_cell_length_c	14.125465
_cell_angle_alpha	96.223606
_cell_angle_beta	100.398878
_cell_angle_gamma	100.398878
loop_
_atom_site_label
_atom_site_type_symbol
_atom_site_fract_x
_atom_site_fract_y
_atom_site_fract_z
V1	V	-3.975811	-0.132289	-0.299607
O2	O	-3.980353	0.007207	-0.294286
O3	O	-3.912231	-0.263124	-0.297190
O4	O	-3.912235	-0.129880	-0.430444
O5	O	-3.980349	-0.126958	-0.160110
V6	V	-4.463372	-0.115647	-0.282967
O7	O	-4.228211	-0.168792	-0.336109
O8	O	-4.661169	-0.079143	-0.246465
O9	O	-4.303745	0.015188	-0.285384
O10	O	-4.576227	-0.255143	-0.288288
O11	O	-4.576231	-0.120977	-0.422464
O12	O	-4.303741	-0.118055	-0.152130
C13	C	-3.754030	-0.295030	-0.292369
C14	C	-3.783232	-0.401987	-0.291265
C15	C	-3.836763	-0.597818	-0.289258
C16	C	-4.021786	-0.650129	-0.293319
C17	C	-4.051573	-0.759096	-0.292203
C18	C	-3.806968	-0.488841	-0.290375
C19	C	-3.754035	-0.125064	-0.462346
C20	C	-3.783238	-0.123961	-0.569303
C21	C	-3.836765	-0.121938	-0.765132
C22	C	-4.021787	-0.125996	-0.817442
C23	C	-4.051572	-0.124870	-0.926408
C24	C	-3.806972	-0.123063	-0.656156
C25	C	-4.125288	0.047089	-0.290202
C26	C	-4.075323	0.154046	-0.291313
C27	C	-4.125284	-0.122875	-0.120223
C28	C	-4.075320	-0.123973	-0.013265
H29	H	-3.700742	-0.634868	-0.284941
H30	H	-4.157823	-0.130325	-0.780391
O31	O	-3.674602	-0.116665	-0.809418
C32	C	-3.469015	-0.026227	-0.904516
C33	C	-3.652725	-0.032085	-0.854409
H34	H	-3.451243	0.042162	-0.940887
H35	H	-3.494660	-0.093076	-0.961751
H36	H	-3.325035	-0.023401	-0.847938
H37	H	-3.796789	-0.034880	-0.910915
H38	H	-3.626904	0.034763	-0.797156
O39	O	-4.183844	-0.605773	-0.298413
C40	C	-4.301467	-0.455156	-0.304273
C41	C	-4.117770	-0.505268	-0.298485
H42	H	-4.248119	-0.373892	-0.304354
H43	H	-4.374447	-0.466830	-0.238799
H44	H	-4.417872	-0.487668	-0.374028
H45	H	-4.001227	-0.472787	-0.228771
H46	H	-4.044954	-0.493599	-0.364008
