data_functionalizedCrystal
_audit_creation_method	'MofGen! by Chris Wilmer'
_symmetry_space_group_name_H-M	'P1'
_symmetry_Int_Tables_number	1
_symmetry_cell_setting	triclinic
loop_
_symmetry_equiv_pos_as_xyz
  x,y,z
_cell_length_a	21.295417
_cell_length_b	19.077267
_cell_length_c	19.076919
_cell_angle_alpha	85.333063
_cell_angle_beta	92.266620
_cell_angle_gamma	92.268319
loop_
_atom_site_label
_atom_site_type_symbol
_atom_site_fract_x
_atom_site_fract_y
_atom_site_fract_z
Zn1	Zn	-0.301557	-1.061619	-0.355285
Zn2	Zn	0.198443	-0.561619	0.144715
Zn3	Zn	-0.402757	-1.066262	-0.237396
Zn4	Zn	0.097243	-0.566262	0.262604
Zn5	Zn	-0.293441	-0.948477	-0.242149
Zn6	Zn	0.206559	-0.448477	0.257851
Zn7	Zn	-0.402721	-0.943693	-0.359974
Zn8	Zn	0.097279	-0.443693	0.140026
O9	O	-0.350119	-1.005013	-0.298701
O10	O	0.149881	-0.505013	0.201299
O11	O	-0.318392	-1.160881	-0.335695
O12	O	0.181608	-0.660881	0.164305
O13	O	-0.384875	-1.054583	-0.139379
O14	O	0.115125	-0.554583	0.360621
O15	O	-0.206432	-0.963545	-0.257184
O16	O	0.293568	-0.463545	0.242816
O17	O	-0.392744	-1.164292	-0.249083
O18	O	0.107256	-0.664292	0.250917
O19	O	-0.212394	-1.046669	-0.340304
O20	O	0.287606	-0.546669	0.159696
O21	O	-0.304561	-0.968047	-0.142871
O22	O	0.195439	-0.468047	0.357129
O23	O	-0.304526	-0.849197	-0.261730
O24	O	0.195474	-0.349197	0.238270
O25	O	-0.392683	-0.955391	-0.457999
O26	O	0.107317	-0.455391	0.042001
O27	O	-0.384813	-0.845682	-0.348296
O28	O	0.115187	-0.345682	0.151704
O29	O	-0.318358	-1.042031	-0.454554
O30	O	0.181642	-0.542031	0.045446
O31	O	-0.490838	-1.049944	-0.253629
O32	O	0.009162	-0.549944	0.246371
O33	O	-0.490812	-0.959893	-0.343687
O34	O	0.009188	-0.459893	0.156313
C35	C	-0.343786	-0.821862	-0.306038
C36	C	0.156214	-0.321862	0.193962
C37	C	-0.341092	-0.743508	-0.309194
C38	C	0.158908	-0.243508	0.190806
C39	C	-0.378470	-0.708473	-0.265514
C40	C	0.121530	-0.208473	0.234486
C41	C	-0.375939	-0.634852	-0.268489
C42	C	0.124061	-0.134852	0.231511
C43	C	-0.336028	-0.596266	-0.315139
C44	C	0.163972	-0.096266	0.184861
C45	C	-0.298649	-0.631306	-0.358823
C46	C	0.201351	-0.131306	0.141177
C47	C	-0.301183	-0.704926	-0.355852
C48	C	0.198817	-0.204926	0.144148
C49	C	-0.324308	-0.375894	-0.328871
C50	C	0.175692	0.124106	0.171129
C51	C	-0.321775	-0.302268	-0.331838
C52	C	0.178225	0.197732	0.168162
C53	C	-0.399067	-0.305819	-0.241504
C54	C	0.100933	0.194181	0.258496
C55	C	-0.401595	-0.379441	-0.238534
C56	C	0.098405	0.120559	0.261466
C57	C	-0.364218	-0.414474	-0.282220
C58	C	0.135782	0.085526	0.217780
N59	N	-0.333439	-0.521013	-0.318179
N60	N	0.166561	-0.021013	0.181821
N61	N	-0.366811	-0.489726	-0.279184
N62	N	0.133189	0.010274	0.220816
C63	C	-0.513666	-1.004922	-0.298666
C64	C	-0.013666	-0.504922	0.201334
C65	C	-0.583635	-1.004947	-0.298672
C66	C	-0.083635	-0.504947	0.201328
C67	C	-0.616498	-1.051874	-0.251823
C68	C	-0.116498	-0.551874	0.248177
C69	C	-0.682242	-1.051907	-0.251838
C70	C	-0.182242	-0.551907	0.248162
C71	C	-0.715120	-1.004999	-0.298694
C72	C	-0.215120	-0.504999	0.201306
C73	C	-0.682250	-0.958068	-0.345551
C74	C	-0.182250	-0.458068	0.154449
C75	C	-0.616508	-0.958042	-0.345540
C76	C	-0.116508	-0.458042	0.154460
N77	N	-0.816443	-0.943117	-0.306538
N78	N	-0.316443	-0.443117	0.193462
N79	N	-0.878896	-0.943144	-0.306544
N80	N	-0.378896	-0.443144	0.193456
C81	C	-0.913199	-1.005077	-0.298731
C82	C	-0.413199	-0.505077	0.201269
N83	N	-0.882690	-1.066983	-0.290897
N84	N	-0.382690	-0.566983	0.209103
N85	N	-0.820232	-1.066956	-0.290887
N86	N	-0.320232	-0.566956	0.209113
C87	C	-0.786407	-1.005023	-0.298711
C88	C	-0.286407	-0.505023	0.201289
C89	C	-1.017349	-1.052043	-0.251896
C90	C	-0.517349	-0.552043	0.248104
C91	C	-1.083095	-1.052077	-0.251915
C92	C	-0.583095	-0.552077	0.248085
C93	C	-1.083101	-0.958232	-0.345625
C94	C	-0.583101	-0.458232	0.154375
C95	C	-1.017357	-0.958205	-0.345609
C96	C	-0.517357	-0.458205	0.154391
C97	C	-0.984485	-1.005109	-0.298741
C98	C	-0.484485	-0.505109	0.201259
C99	C	-0.185934	-1.005123	-0.298751
C100	C	0.314066	-0.505123	0.201249
C101	C	-0.115969	-1.005169	-0.298772
C102	C	0.384031	-0.505169	0.201228
C103	C	-0.356421	-0.997659	-0.482570
C104	C	0.143579	-0.497659	0.017430
C105	C	-0.359107	-0.994526	-0.560924
C106	C	0.140893	-0.494526	-0.060924
C107	C	-0.356469	-0.188880	-0.291326
C108	C	0.143531	0.311120	0.208674
C109	C	-0.359152	-0.267234	-0.288159
C110	C	0.140848	0.232766	0.211841
C111	C	-0.321674	-1.038160	-0.595943
C112	C	0.178326	-0.538160	-0.095943
C113	C	-0.324194	-1.035207	-0.669565
C114	C	0.175806	-0.535207	-0.169565
C115	C	-0.364152	-0.988623	-0.708167
C116	C	0.135848	-0.488623	-0.208167
C117	C	-0.401587	-0.944984	-0.673144
C118	C	0.098413	-0.444984	-0.173144
C119	C	-0.399063	-0.947934	-0.599523
C120	C	0.100937	-0.447934	-0.099523
C121	C	-0.375849	-0.974960	-0.928542
C122	C	0.124151	-0.474960	-0.428542
C123	C	-0.378372	-0.972015	-1.002168
C124	C	0.121628	-0.472015	-0.502168
C125	C	-0.300978	-1.062237	-0.998584
C126	C	0.199022	-0.562237	-0.498584
C127	C	-0.298460	-1.065186	-0.924962
C128	C	0.201540	-0.565186	-0.424962
C129	C	-0.335892	-1.021544	-0.889945
C130	C	0.164108	-0.521544	-0.389945
N131	N	-0.366732	-0.985605	-0.783421
N132	N	0.133268	-0.485605	-0.283421
N133	N	-0.333310	-1.024559	-0.814693
N134	N	0.166690	-0.524559	-0.314693
C135	C	-0.343797	-1.012378	-0.115546
C136	C	0.156203	-0.512378	0.384454
C137	C	-0.340939	-1.015649	-0.037187
C138	C	0.159061	-0.515649	0.462813
H139	H	-0.289269	-0.270854	-0.369824
H140	H	0.210731	0.229146	0.130176
N141	N	-0.442357	-0.418861	-0.190880
N142	N	0.057643	0.081139	0.309120
N143	N	-0.420019	-0.461733	-0.144348
N144	N	0.079981	0.038267	0.355652
H145	H	-0.448806	-0.489574	-0.110689
H146	H	0.051194	0.010426	0.389311
H147	H	-0.709004	-1.090123	-0.213688
H148	H	-0.209004	-0.590123	0.286312
H149	H	-1.109850	-1.090295	-0.213767
H150	H	-0.609850	-0.590295	0.286233
H151	H	-0.429497	-0.277287	-0.205938
H152	H	0.070503	0.222713	0.294062
N153	N	-0.582938	-0.910111	-0.393405
N154	N	-0.082938	-0.410111	0.106595
N155	N	-0.592637	-0.912140	-0.458272
N156	N	-0.092637	-0.412140	0.041728
H157	H	-0.568927	-0.878288	-0.492078
H158	H	-0.068927	-0.378288	0.007922
H159	H	-0.429539	-0.912395	-0.571012
H160	H	0.070461	-0.412395	-0.071012
N161	N	-0.983758	-1.099965	-0.204045
N162	N	-0.483758	-0.599965	0.295955
N163	N	-0.925060	-1.099938	-0.204043
N164	N	-0.425060	-0.599938	0.295957
H165	H	-0.901336	-1.133785	-0.170251
H166	H	-0.401336	-0.633785	0.329749
H167	H	-0.293874	-0.404409	-0.364445
H168	H	0.206126	0.095591	0.135555
N169	N	-1.116688	-0.910325	-0.393488
N170	N	-0.616688	-0.410325	0.106512
N171	N	-1.175386	-0.910355	-0.393494
N172	N	-0.675386	-0.410355	0.106506
H173	H	-1.199110	-0.876521	-0.427300
H174	H	-0.699110	-0.376521	0.072700
N175	N	-0.983795	-0.910263	-0.393468
N176	N	-0.483795	-0.410263	0.106532
N177	N	-1.013156	-0.868386	-0.435304
N178	N	-0.513156	-0.368386	0.064696
H179	H	-0.989453	-0.834526	-0.469108
H180	H	-0.489453	-0.334526	0.030892
H181	H	-0.265924	-1.103121	-0.893537
H182	H	0.234076	-0.603121	-0.393537
H183	H	-0.289138	-1.076096	-0.564518
H184	H	0.210862	-0.576096	-0.064518
N185	N	-0.285953	-1.079783	-0.705324
N186	N	0.214047	-0.579783	-0.205324
N187	N	-0.250282	-1.121376	-0.670850
N188	N	0.249718	-0.621376	-0.170850
H189	H	-0.223272	-1.152861	-0.696104
H190	H	0.276728	-0.652861	-0.196104
N191	N	-0.414079	-0.930374	-0.892785
N192	N	0.085921	-0.430374	-0.392785
N193	N	-0.407933	-0.865002	-0.903619
N194	N	0.092067	-0.365002	-0.403619
H195	H	-0.434935	-0.833509	-0.878365
H196	H	0.065065	-0.333509	-0.378365
H197	H	-0.270502	-1.097766	-1.027103
H198	H	0.229498	-0.597766	-0.527103
N199	N	-0.414114	-0.599050	-0.223877
N200	N	0.085886	-0.099050	0.276123
N201	N	-0.453694	-0.556967	-0.250251
N202	N	0.046306	-0.056967	0.249749
H203	H	-0.480656	-0.531679	-0.218743
H204	H	0.019344	-0.031679	0.281257
N205	N	-0.442395	-0.897397	-0.712583
N206	N	0.057605	-0.397397	-0.212583
N207	N	-0.444645	-0.894769	-0.778315
N208	N	0.055355	-0.394769	-0.278315
H209	H	-0.473467	-0.861161	-0.806170
H210	H	0.026533	-0.361161	-0.306170
H211	H	-0.266155	-0.599883	-0.396810
H212	H	0.233845	-0.099883	0.103190
H213	H	-0.270746	-0.733450	-0.391420
H214	H	0.229254	-0.233450	0.108580
H215	H	-0.410912	-0.934078	-1.033596
H216	H	0.089088	-0.434078	-0.533596
N217	N	-0.582929	-1.099780	-0.203936
N218	N	-0.082929	-0.599780	0.296064
N219	N	-0.587924	-1.097750	-0.139074
N220	N	-0.087924	-0.597750	0.360926
H221	H	-0.564218	-1.131583	-0.105250
H222	H	-0.064218	-0.631583	0.394750
N223	N	-0.419236	-0.747874	-0.217851
N224	N	0.080764	-0.247874	0.282149
N225	N	-0.452605	-0.716580	-0.178855
N226	N	0.047395	-0.216580	0.321145
H227	H	-0.481398	-0.744404	-0.145191
H228	H	0.018602	-0.244404	0.354809
H229	H	-0.709024	-0.919877	-0.383703
H230	H	-0.209024	-0.419877	0.116297
