data_functionalizedCrystal
_audit_creation_method	'MofGen! by Chris Wilmer'
_symmetry_space_group_name_H-M	'P1'
_symmetry_Int_Tables_number	1
_symmetry_cell_setting	triclinic
loop_
_symmetry_equiv_pos_as_xyz
  x,y,z
_cell_length_a	6.817900
_cell_length_b	23.449213
_cell_length_c	16.418042
_cell_angle_alpha	86.199063
_cell_angle_beta	76.610432
_cell_angle_gamma	106.107486
loop_
_atom_site_label
_atom_site_type_symbol
_atom_site_fract_x
_atom_site_fract_y
_atom_site_fract_z
V1	V	-4.037657	-0.082435	0.259484
O2	O	-4.012586	0.003466	0.256253
O3	O	-4.001003	-0.162978	0.256066
O4	O	-3.988577	-0.081384	0.373403
O5	O	-4.025098	-0.078693	0.138103
V6	V	-4.519851	-0.072134	0.245165
O7	O	-4.301830	-0.105029	0.290892
O8	O	-4.705874	-0.049540	0.213756
O9	O	-4.333298	0.008409	0.248583
O10	O	-4.662319	-0.158035	0.248396
O11	O	-4.649807	-0.075876	0.366546
O12	O	-4.345724	-0.073185	0.131246
C13	C	-3.848883	-0.182605	0.251548
C14	C	-3.900197	-0.248452	0.249513
C15	C	-3.833032	-0.078524	0.401222
C16	C	-3.874265	-0.078198	0.494341
C17	C	-4.200758	-0.402970	0.248964
C18	C	-4.248961	-0.464840	0.247059
C19	C	-3.883859	-0.458782	0.238817
C20	C	-3.835662	-0.396914	0.240728
C21	C	-3.994117	-0.369009	0.245797
C22	C	-4.090517	-0.492747	0.241981
C23	C	-4.142779	-0.559830	0.239916
C24	C	-3.941853	-0.301922	0.247865
C25	C	-4.148774	0.028034	0.253099
C26	C	-4.075354	0.095116	0.255190
V27	V	-4.215486	0.204254	0.250929
O28	O	-4.159020	0.291663	0.245658
O29	O	-4.210792	0.120356	0.252068
O30	O	-4.197724	0.201926	0.369439
O31	O	-4.172178	0.209529	0.127475
V32	V	-4.657170	0.231397	0.213670
O33	O	-4.477855	0.189527	0.271613
O34	O	-4.814121	0.261386	0.172196
O35	O	-4.453968	0.307728	0.222839
O36	O	-4.822982	0.147968	0.213520
O37	O	-4.809824	0.230102	0.331703
O38	O	-4.467035	0.226158	0.105468
C39	C	-4.164612	-0.076047	0.103422
C40	C	-4.102617	-0.076370	0.010302
C41	C	-4.275829	0.321555	0.235254
C42	C	-4.184437	0.386696	0.238266
C43	C	-4.058694	0.199164	0.404914
C44	C	-4.120147	0.199471	0.498048
C45	C	-4.151609	-0.080401	0.712783
C46	C	-4.190332	-0.080090	0.800277
C47	C	-3.825254	-0.074165	0.791854
C48	C	-3.786530	-0.074472	0.704361
C49	C	-3.949717	-0.077593	0.664828
C50	C	-4.027164	-0.076975	0.839815
C51	C	-4.069148	-0.076637	0.934680
C52	C	-3.907730	-0.077930	0.569957
C53	C	-4.292498	0.217506	0.085535
C54	C	-4.211706	0.216497	-0.006641
C55	C	-4.321190	0.202699	0.537760
C56	C	-4.378948	0.202997	0.625267
C57	C	-4.235665	0.200063	0.673061
C58	C	-4.034603	0.196837	0.633344
C59	C	-3.976843	0.196543	0.545837
C60	C	-4.015529	0.207082	-0.037583
C61	C	-3.939581	0.206139	-0.124191
C62	C	-4.059822	0.214607	-0.179856
C63	C	-4.256015	0.224025	-0.148909
C64	C	-4.331952	0.224972	-0.062303
H65	H	-4.329785	-0.380251	0.253090
Cl66	Cl	-4.631725	0.207046	0.675180
Cl67	Cl	-3.684672	-0.493866	0.232439
H68	H	-3.813136	0.193913	0.513512
Cl69	Cl	-4.508749	-0.507531	0.251042
Cl70	Cl	-3.575866	-0.354217	0.236753
Cl71	Cl	-4.356755	-0.084322	0.663087
H72	H	-3.779830	0.198469	-0.149374
Cl73	Cl	-3.864326	0.196436	0.032378
H74	H	-3.997900	0.213875	-0.250381
H75	H	-4.354728	-0.082376	0.839317
H76	H	-3.692400	-0.071625	0.824052
Cl77	Cl	-4.407159	0.234664	-0.218897
H78	H	-3.917957	0.194448	0.672271
H79	H	-3.622115	-0.072181	0.665314
Cl80	Cl	-4.501353	0.206390	0.477693
Cl81	Cl	-4.578561	0.236827	-0.023420
Cl82	Cl	-4.308317	0.200429	0.783071
