data_functionalizedCrystal
_audit_creation_method	'MofGen! by Chris Wilmer'
_symmetry_space_group_name_H-M	'P1'
_symmetry_Int_Tables_number	1
_symmetry_cell_setting	triclinic
loop_
_symmetry_equiv_pos_as_xyz
  x,y,z
_cell_length_a	17.699077
_cell_length_b	16.776229
_cell_length_c	17.699083
_cell_angle_alpha	89.991718
_cell_angle_beta	96.718205
_cell_angle_gamma	90.000648
loop_
_atom_site_label
_atom_site_type_symbol
_atom_site_fract_x
_atom_site_fract_y
_atom_site_fract_z
O1	O	1.004075	0.066279	-0.095693
O2	O	1.504075	0.566279	0.404307
O3	O	0.783696	0.066283	-0.108150
O4	O	1.283696	0.566283	0.391850
O5	O	0.900111	0.066274	0.008268
O6	O	1.400111	0.566274	0.508268
O7	O	0.887659	0.066288	-0.212111
O8	O	1.387659	0.566288	0.287889
O9	O	0.900109	-0.066302	0.008278
O10	O	1.400109	0.433698	0.508278
O11	O	0.783694	-0.066293	-0.108140
O12	O	1.283694	0.433707	0.391860
O13	O	1.004073	-0.066297	-0.095683
O14	O	1.504073	0.433703	0.404317
Zn15	Zn	0.893883	-0.087345	-0.101910
Zn16	Zn	1.393883	0.412655	0.398090
Zn17	Zn	0.893885	0.087331	-0.101923
Zn18	Zn	1.393885	0.587331	0.398077
O19	O	0.887657	-0.066288	-0.212101
O20	O	1.387657	0.433712	0.287899
C21	C	0.755498	-0.000004	-0.107700
C22	C	1.255498	0.499996	0.392300
C23	C	0.671479	-0.000003	-0.106363
C24	C	1.171479	0.499997	0.393637
C25	C	0.632011	-0.072271	-0.105727
C26	C	1.132011	0.427729	0.394273
C27	C	0.553068	-0.072272	-0.104459
C28	C	1.053068	0.427728	0.395541
C29	C	0.513595	-0.000004	-0.103832
C30	C	1.013595	0.499996	0.396168
C31	C	0.553069	0.072270	-0.104465
C32	C	1.053069	0.572270	0.395535
C33	C	0.632011	0.072270	-0.105728
C34	C	1.132011	0.572270	0.394272
C35	C	0.234706	0.072271	-0.099372
C36	C	0.734706	0.572271	0.400628
C37	C	0.155758	0.072265	-0.098111
C38	C	0.655758	0.572265	0.401889
C39	C	0.155763	-0.072271	-0.098103
C40	C	0.655763	0.427729	0.401897
C41	C	0.234705	-0.072271	-0.099366
C42	C	0.734705	0.427729	0.400634
C43	C	0.274173	0.000002	-0.099995
C44	C	0.774173	0.500002	0.400005
C45	C	0.359772	0.000002	-0.101369
C46	C	0.859772	0.500002	0.398631
C47	C	0.427997	-0.000003	-0.102464
C48	C	0.927997	0.499997	0.397536
C49	C	0.899664	-0.000014	0.036470
C50	C	1.399664	0.499986	0.536470
C51	C	0.898326	-0.000015	0.120488
C52	C	1.398326	0.499985	0.620488
C53	C	1.032271	-0.000008	-0.096133
C54	C	1.532271	0.499992	0.403867
C55	C	1.116289	-0.000004	-0.097470
C56	C	1.616289	0.499996	0.402530
N57	N	0.893888	0.206542	-0.101927
N58	N	1.393888	0.706542	0.398073
N59	N	0.893887	-0.206556	-0.101900
N60	N	1.393887	0.293444	0.398100
C61	C	0.945532	0.248255	-0.050478
C62	C	1.445532	0.748255	0.449522
C63	C	0.945535	0.331707	-0.050476
C64	C	1.445535	0.831707	0.449524
C65	C	0.893889	0.373445	-0.101920
C66	C	1.393889	0.873445	0.398080
C67	C	0.842242	0.331726	-0.153374
C68	C	1.342242	0.831726	0.346626
C69	C	0.842244	0.248275	-0.153379
C70	C	1.342244	0.748275	0.346621
C71	C	0.842237	0.668273	-0.153356
C72	C	1.342237	1.168273	0.346644
C73	C	0.842238	0.751730	-0.153346
C74	C	1.342238	1.251730	0.346654
C75	C	0.945528	0.751705	-0.050453
C76	C	1.445528	1.251705	0.449547
C77	C	0.945529	0.668254	-0.050458
C78	C	1.445529	1.168254	0.449542
C79	C	0.893886	0.626543	-0.101915
C80	C	1.393886	1.126543	0.398085
C81	C	0.893884	0.536054	-0.101917
C82	C	1.393884	1.036054	0.398083
C83	C	0.893887	0.463932	-0.101915
C84	C	1.393887	0.963932	0.398085
C85	C	0.888104	0.000002	-0.240303
C86	C	1.388104	0.500002	0.259697
C87	C	0.889443	0.000008	-0.324321
C88	C	1.389443	0.500008	0.175679
C89	C	0.966659	-0.000017	0.169110
C90	C	1.466659	0.499983	0.669110
C91	C	0.965397	-0.000010	0.248054
C92	C	1.465397	0.499990	0.748054
C93	C	0.895800	-0.000006	0.278373
C94	C	1.395800	0.499994	0.778373
C95	C	0.827461	-0.000001	0.229744
C96	C	1.327461	0.499999	0.729744
C97	C	0.828724	-0.000003	0.150803
C98	C	1.328724	0.499997	0.650803
C99	C	0.822366	0.000005	0.548107
C100	C	1.322366	0.500005	1.048107
C101	C	0.821108	0.000004	0.627055
C102	C	1.321108	0.500004	1.127055
C103	C	0.959039	-0.000002	0.645358
C104	C	1.459039	0.499998	1.145358
C105	C	0.960302	-0.000003	0.566417
C106	C	1.460302	0.499997	1.066417
C107	C	0.891963	0.000006	0.517795
C108	C	1.391963	0.500006	1.017795
C109	C	0.893333	-0.000000	0.432196
C110	C	1.393333	0.500000	0.932196
C111	C	0.894430	-0.000006	0.363971
C112	C	1.394430	0.499994	0.863971
H113	H	0.664145	0.131118	-0.106247
H114	H	1.164145	0.631118	0.393753
C115	C	0.740133	0.256676	-0.255077
C116	C	1.240133	0.756676	0.244923
C117	C	0.785469	0.202421	-0.209928
C118	C	1.285469	0.702421	0.290072
H119	H	0.705080	0.228367	-0.289986
H120	H	1.205080	0.728367	0.210014
H121	H	0.771524	0.289229	-0.282327
H122	H	1.271524	0.789229	0.217673
H123	H	0.713038	0.289220	-0.223537
H124	H	1.213038	0.789220	0.276463
H125	H	0.812568	0.169881	-0.241468
H126	H	1.312568	0.669881	0.258532
H127	H	0.754074	0.169854	-0.182676
H128	H	1.254074	0.669854	0.317324
C129	C	1.076219	-0.068160	0.685281
C130	C	1.576219	0.431840	1.185281
C131	C	1.034160	-0.000003	0.698807
C132	C	1.534160	0.499997	1.198807
H133	H	1.122591	-0.068163	0.718281
H134	H	1.622591	0.431837	1.218281
H135	H	1.086927	-0.068158	0.633934
H136	H	1.586927	0.431842	1.133934
H137	H	1.047664	-0.114384	0.694471
H138	H	1.547664	0.385616	1.194471
H139	H	1.062712	0.046222	0.689612
H140	H	1.562712	0.546222	1.189612
H141	H	1.023453	0.000003	0.750167
H142	H	1.523453	0.500003	1.250167
H143	H	0.987585	0.214278	-0.008584
H144	H	1.487585	0.714278	0.491416
C145	C	0.739197	0.574437	-0.169732
C146	C	1.239197	1.074437	0.330268
C147	C	0.785464	0.622432	-0.209911
C148	C	1.285464	1.122432	0.290089
H149	H	0.704148	0.546132	-0.204650
H150	H	1.204148	1.046132	0.295350
H151	H	0.712103	0.606983	-0.138204
H152	H	1.212103	1.106983	0.361796
H153	H	0.769962	0.537635	-0.139104
H154	H	1.269962	1.037635	0.360896
H155	H	0.754699	0.659238	-0.240536
H156	H	1.254699	1.159238	0.259464
H157	H	0.812559	0.589883	-0.241452
H158	H	1.312559	1.089883	0.258548
H159	H	0.123619	-0.131120	-0.097587
H160	H	0.623619	0.368880	0.402413
H161	H	0.266840	-0.131119	-0.099880
H162	H	0.766840	0.368881	0.400120
H163	H	0.764431	0.000006	0.651737
H164	H	1.264431	0.500006	1.151737
H165	H	1.023333	-0.000025	0.144431
H166	H	1.523333	0.499975	0.644431
H167	H	1.021041	-0.000014	0.287639
H168	H	1.521041	0.499986	0.787639
C169	C	0.455644	-0.156116	-0.168055
C170	C	0.955644	0.343884	0.331945
C171	C	0.509677	-0.151707	-0.103753
C172	C	1.009677	0.348293	0.396247
H173	H	0.428853	-0.205155	-0.167611
H174	H	0.928853	0.294845	0.332389
H175	H	0.480580	-0.153120	-0.212663
H176	H	0.980580	0.346880	0.287337
H177	H	0.420848	-0.113067	-0.167492
H178	H	0.920848	0.386933	0.332508
H179	H	0.544477	-0.194752	-0.104318
H180	H	1.044477	0.305248	0.395682
H181	H	0.484740	-0.154711	-0.059133
H182	H	0.984740	0.345289	0.440867
C183	C	0.739195	0.845578	-0.169718
C184	C	1.239195	1.345578	0.330282
C185	C	0.785469	0.797610	-0.209902
C186	C	1.285469	1.297610	0.290098
H187	H	0.704149	0.873899	-0.204632
H188	H	1.204149	1.373899	0.295368
H189	H	0.769951	0.882359	-0.139078
H190	H	1.269951	1.382359	0.360922
H191	H	0.712093	0.813005	-0.138200
H192	H	1.212093	1.313005	0.361800
H193	H	0.812576	0.830184	-0.241415
H194	H	1.312576	1.330184	0.258585
H195	H	0.754710	0.760825	-0.240555
H196	H	1.254710	1.260825	0.259445
C197	C	0.520135	0.195472	-0.169125
C198	C	1.020135	0.695472	0.330875
C199	C	0.509681	0.151710	-0.103780
C200	C	1.009681	0.651710	0.396220
H201	H	0.493353	0.244517	-0.168700
H202	H	0.993353	0.744517	0.331300
H203	H	0.501342	0.165778	-0.213026
H204	H	1.001342	0.665778	0.286974
H205	H	0.572801	0.205810	-0.169957
H206	H	1.072801	0.705810	0.330043
H207	H	0.457015	0.141366	-0.102951
H208	H	0.957015	0.641366	0.397049
H209	H	0.528471	0.181409	-0.059867
H210	H	1.028471	0.681409	0.440133
H211	H	0.987588	0.365669	-0.008584
H212	H	1.487588	0.865669	0.491416
C213	C	0.796369	0.459659	-0.199049
C214	C	1.296369	0.959659	0.300951
C215	C	0.785469	0.377602	-0.209921
C216	C	1.285469	0.877602	0.290079
H217	H	0.761313	0.487978	-0.233955
H218	H	1.261313	0.987978	0.266045
H219	H	0.846829	0.473337	-0.207305
H220	H	1.346829	0.973337	0.292695
H221	H	0.788342	0.473313	-0.148515
H222	H	1.288342	0.973313	0.351485
H223	H	0.793501	0.363947	-0.260453
H224	H	1.293501	0.863947	0.239547
H225	H	0.734997	0.363919	-0.201671
H226	H	1.234997	0.863919	0.298329
H227	H	1.016974	-0.000010	0.541735
H228	H	1.516974	0.499990	1.041735
H229	H	0.770794	0.000007	0.254436
H230	H	1.270794	0.500007	0.754436
H231	H	0.773080	-0.000001	0.111214
H232	H	1.273080	0.499999	0.611214
C233	C	0.163681	0.215146	-0.098229
C234	C	0.663681	0.715146	0.401771
C235	C	0.112368	0.151709	-0.097415
C236	C	0.612368	0.651709	0.402585
H237	H	0.136892	0.264187	-0.097796
H238	H	0.636892	0.764187	0.402204
H239	H	0.188615	0.212151	-0.142837
H240	H	0.688615	0.712151	0.357163
H241	H	0.200328	0.212129	-0.054599
H242	H	0.700328	0.712129	0.445401
H243	H	0.075724	0.154723	-0.141049
H244	H	0.575724	0.654723	0.358951
H245	H	0.087421	0.154705	-0.052802
H246	H	0.587421	0.654705	0.447198
C247	C	0.314840	0.156134	-0.165834
C248	C	0.814840	0.656134	0.334166
C249	C	0.278080	0.151714	-0.100072
C250	C	0.778080	0.651714	0.399928
H251	H	0.341621	0.205181	-0.166263
H252	H	0.841621	0.705181	0.333737
H253	H	0.278189	0.153131	-0.209452
H254	H	0.778189	0.653131	0.290548
H255	H	0.349649	0.113095	-0.166376
H256	H	0.849649	0.613095	0.333624
H257	H	0.243266	0.194750	-0.099532
H258	H	0.743266	0.694750	0.400468
H259	H	0.314734	0.154725	-0.056442
H260	H	0.814734	0.654725	0.443558
C261	C	0.685899	-0.000006	0.537956
C262	C	1.185899	0.499994	1.037956
C263	C	0.747249	-0.000000	0.494669
C264	C	1.247249	0.500000	0.994669
H265	H	0.639524	-0.000017	0.504961
H266	H	1.139524	0.499983	1.004961
H267	H	0.688273	0.046225	0.569116
H268	H	1.188273	0.546225	1.069116
H269	H	0.688287	-0.046240	0.569138
H270	H	1.188287	0.453760	1.069138
H271	H	0.744864	0.046237	0.463491
H272	H	1.244864	0.546237	0.963491
H273	H	0.744874	-0.046236	0.463496
H274	H	1.244874	0.453764	0.963496
H275	H	0.987582	0.634274	-0.008566
H276	H	1.487582	1.134274	0.491434
H277	H	0.987582	0.785675	-0.008557
H278	H	1.487582	1.285675	0.491443
H279	H	0.664143	-0.131121	-0.106244
H280	H	1.164143	0.368879	0.393756
