data_functionalizedCrystal
_audit_creation_method	'MofGen! by Chris Wilmer'
_symmetry_space_group_name_H-M	'P1'
_symmetry_Int_Tables_number	1
_symmetry_cell_setting	triclinic
loop_
_symmetry_equiv_pos_as_xyz
  x,y,z
_cell_length_a	13.033286
_cell_length_b	12.645324
_cell_length_c	13.032721
_cell_angle_alpha	97.146460
_cell_angle_beta	89.137287
_cell_angle_gamma	97.170025
loop_
_atom_site_label
_atom_site_type_symbol
_atom_site_fract_x
_atom_site_fract_y
_atom_site_fract_z
Zn1	Zn	1.520178	-0.481534	-0.608843
Zn2	Zn	1.498209	-0.329252	-0.780842
Zn3	Zn	1.348195	-0.323684	-0.587080
Zn4	Zn	1.326343	-0.525840	-0.758948
O5	O	1.423231	-0.415077	-0.683928
O6	O	1.661165	-0.445121	-0.649929
O7	O	1.478260	-0.180179	-0.755194
O8	O	1.389348	-0.323750	-0.446058
O9	O	1.645025	-0.333240	-0.776296
O10	O	1.515703	-0.439722	-0.462047
O11	O	1.368045	-0.176088	-0.612838
O12	O	1.201394	-0.366712	-0.591609
O13	O	1.352104	-0.668297	-0.738982
O14	O	1.185339	-0.515236	-0.717880
O15	O	1.494514	-0.635745	-0.628700
O16	O	1.457071	-0.376202	-0.921847
O17	O	1.330802	-0.520635	-0.905762
C18	C	1.156054	-0.445178	-0.650008
C19	C	1.041752	-0.458085	-0.635521
C20	C	0.982819	-0.408368	-0.691489
C21	C	0.864681	-0.421706	-0.676518
C22	C	1.423322	-0.691558	-0.683826
C23	C	1.423361	-0.809377	-0.683783
C24	C	1.513231	-0.956462	-0.614674
C25	C	1.513012	-0.833889	-0.614356
C26	C	1.318766	-0.861800	-0.640585
C27	C	1.319327	-0.984257	-0.640045
C28	C	1.437192	-0.989247	-0.796093
C29	C	1.439632	-0.866295	-0.795847
C30	C	1.691451	-0.384860	-0.717982
C31	C	1.805750	-0.371983	-0.732494
C32	C	1.389209	-0.453851	-0.951122
C33	C	1.374749	-0.470463	-1.065441
C34	C	1.423209	-0.139655	-0.683963
C35	C	1.423406	-0.021772	-0.683742
C36	C	1.430833	-0.406449	-1.124339
C37	C	1.415888	-0.423617	-1.242493
C38	C	1.457413	-0.376173	-0.415695
C39	C	1.471980	-0.359594	-0.301389
H40	H	0.827679	-0.474152	-0.617517
H41	H	0.842749	-0.319550	-0.791507
H42	H	1.591002	-0.797435	-0.642993
H43	H	1.511404	-1.015370	-0.832754
H44	H	1.004746	-0.510527	-0.576524
H45	H	1.531067	-0.292077	-1.264347
H46	H	1.377859	-0.850742	-0.851188
N47	N	1.296494	-0.559903	-1.114502
H48	H	1.296912	-0.559490	-1.191954
H49	H	1.225400	-0.548925	-1.086537
N50	N	1.300429	-0.809587	-0.532359
H51	H	1.358871	-0.819561	-0.485868
H52	H	1.232915	-0.843896	-0.505325
H53	H	1.591517	-0.979507	-0.643113
H54	H	1.019824	-0.355934	-0.750493
H55	H	1.505369	-0.977683	-0.532198
N56	N	1.301716	-1.010367	-0.530721
H57	H	1.236916	-1.062869	-0.528074
H58	H	1.293709	-0.942326	-0.483396
N59	N	1.502387	-0.782275	-0.504478
H60	H	1.497819	-0.839152	-0.456061
H61	H	1.437654	-0.745583	-0.498101
H62	H	1.356809	-0.491140	-1.279538
H63	H	1.250864	-1.028842	-0.687416
H64	H	1.250615	-0.847633	-0.688745
H65	H	1.489916	-0.338937	-1.087293
N66	N	1.541498	-0.820152	-0.838674
H67	H	1.576965	-0.762617	-0.785716
H68	H	1.528646	-0.787939	-0.903727
N69	N	1.350309	-1.047655	-0.864491
H70	H	1.302240	-1.094960	-0.822961
H71	H	1.379937	-1.093386	-0.923992
