data_functionalizedCrystal
_audit_creation_method	'MofGen! by Chris Wilmer'
_symmetry_space_group_name_H-M	'P1'
_symmetry_Int_Tables_number	1
_symmetry_cell_setting	triclinic
loop_
_symmetry_equiv_pos_as_xyz
  x,y,z
_cell_length_a	16.974800
_cell_length_b	18.266242
_cell_length_c	16.974813
_cell_angle_alpha	93.660911
_cell_angle_beta	83.627081
_cell_angle_gamma	86.352222
loop_
_atom_site_label
_atom_site_type_symbol
_atom_site_fract_x
_atom_site_fract_y
_atom_site_fract_z
O1	O	1.049039	0.004670	0.100721
O2	O	0.818820	0.019077	0.113570
O3	O	0.940347	0.004670	-0.007965
O4	O	0.927512	0.019077	0.222257
O5	O	0.940326	-0.117091	-0.007971
O6	O	0.818799	-0.102684	0.113564
O7	O	1.049019	-0.117092	0.100715
Zn8	Zn	0.933906	-0.129220	0.107139
Zn9	Zn	0.933933	0.031206	0.107147
O10	O	0.927492	-0.102684	0.222251
C11	C	0.789352	-0.040086	0.113081
C12	C	0.701577	-0.034969	0.111621
C13	C	0.660334	-0.098939	0.110930
C14	C	0.577862	-0.094135	0.109546
C15	C	0.536634	-0.025359	0.108859
C16	C	0.577883	0.038616	0.109548
C17	C	0.660354	0.033810	0.110926
C18	C	0.289982	-0.003869	0.104732
C19	C	0.207505	0.000932	0.103355
C20	C	0.207490	-0.131820	0.103353
C21	C	0.289962	-0.136619	0.104736
C22	C	0.331205	-0.072644	0.105420
N23	N	0.452334	-0.020446	0.107447
N24	N	0.415504	-0.077558	0.106827
N25	N	0.933893	-0.238706	0.107133
C26	C	0.987723	-0.283394	0.053343
C27	C	0.987728	-0.360040	0.053339
C28	C	0.933911	-0.391994	0.107139
C29	C	0.880071	-0.347296	0.160932
C30	C	0.880062	-0.270652	0.160929
N31	N	0.923771	-0.507577	0.177115
N32	N	0.923784	-0.580386	0.177116
C33	C	0.933933	-0.622917	0.107150
N34	N	0.944084	-0.589890	0.037182
N35	N	0.944075	-0.517074	0.037182
C36	C	0.933914	-0.475101	0.107148
C37	C	0.987771	-0.750713	0.053352
C38	C	0.987771	-0.827360	0.053348
C39	C	0.880117	-0.814614	0.160948
C40	C	0.880114	-0.737969	0.160945
C41	C	0.933945	-0.706024	0.107149
C42	C	1.078487	-0.057927	0.101205
C43	C	1.166262	-0.063038	0.102664
C44	C	0.939848	-0.057926	-0.037426
C45	C	0.938383	-0.063038	-0.125201
N46	N	0.933952	0.140691	0.107147
C47	C	0.937708	0.000932	-0.166431
C48	C	0.936326	-0.003873	-0.248904
C49	C	0.935626	-0.072649	-0.290148
C50	C	0.936299	-0.136623	-0.248913
C51	C	0.937675	-0.131817	-0.166440
C52	C	0.931504	-0.094139	-0.536805
C53	C	0.930131	-0.098940	-0.619284
C54	C	0.930157	0.033811	-0.619270
C55	C	0.931538	0.038611	-0.536796
C56	C	0.932206	-0.025363	-0.495567
N57	N	0.934216	-0.077562	-0.374449
N58	N	0.933610	-0.020449	-0.411266
C59	C	0.927991	-0.040086	0.251712
C60	C	0.929456	-0.034970	0.339487
H61	H	0.544287	-0.146227	0.108970
C62	C	0.929323	-0.174588	-0.664666
C63	C	0.860846	-0.224049	-0.644281
C64	C	0.860024	-0.299687	-0.689669
C65	C	0.927679	-0.325864	-0.755442
C66	C	0.996162	-0.276403	-0.775830
C67	C	0.996983	-0.200764	-0.730442
H68	H	0.810758	-0.204671	-0.595589
H69	H	0.809329	-0.336302	-0.674576
H70	H	0.927071	-0.381857	-0.789042
H71	H	1.046249	-0.295780	-0.824523
H72	H	1.047679	-0.164149	-0.745535
H73	H	0.836295	-0.840630	0.204749
H74	H	0.544309	0.094614	0.108982
H75	H	0.836251	-0.373317	0.204736
C76	C	0.820850	-0.221489	0.220105
C77	C	0.761671	-0.256630	0.279308
C78	C	0.702460	-0.207465	0.338486
C79	C	0.702428	-0.123160	0.338461
C80	C	0.761610	-0.088015	0.279256
C81	C	0.820820	-0.137180	0.220078
H82	H	0.761693	-0.319042	0.279329
H83	H	0.658650	-0.233482	0.382314
H84	H	0.658597	-0.086765	0.382268
H85	H	0.761588	-0.025603	0.279235
H86	H	0.864630	-0.111163	0.176251
H87	H	1.031603	-0.863746	0.009541
C88	C	0.820907	-0.688805	0.220123
C89	C	0.761728	-0.723946	0.279325
C90	C	0.702518	-0.674781	0.338503
C91	C	0.702486	-0.590476	0.338478
C92	C	0.761667	-0.555331	0.279273
C93	C	0.820878	-0.604496	0.220095
H94	H	0.761750	-0.786358	0.279346
H95	H	0.658708	-0.700798	0.382331
H96	H	0.658654	-0.554081	0.382285
H97	H	0.761645	-0.492919	0.279253
H98	H	0.864688	-0.578479	0.176268
H99	H	1.031553	-0.257387	0.009537
C100	C	0.932250	-0.164507	-0.491457
C101	C	1.001818	-0.184058	-0.443814
C102	C	1.002566	-0.254428	-0.398459
C103	C	0.933746	-0.305247	-0.400749
C104	C	0.864172	-0.285697	-0.448394
C105	C	0.863424	-0.215327	-0.493748
H106	H	1.052768	-0.146438	-0.442117
H107	H	1.054070	-0.268900	-0.363189
H108	H	0.934299	-0.357340	-0.367175
H109	H	0.813222	-0.323317	-0.450090
H110	H	0.811920	-0.200855	-0.529018
C111	C	1.046976	-0.715569	-0.005829
C112	C	1.106181	-0.764732	-0.065007
C113	C	1.165386	-0.729591	-0.124190
C114	C	1.165386	-0.645286	-0.124195
C115	C	1.106180	-0.596118	-0.065015
C116	C	1.046974	-0.631259	-0.005832
H117	H	1.106182	-0.827144	-0.065006
H118	H	1.209215	-0.765989	-0.167999
H119	H	1.209214	-0.619273	-0.168005
H120	H	1.106178	-0.533706	-0.065016
H121	H	1.003146	-0.594861	0.037977
C122	C	0.938479	0.076587	-0.121066
C123	C	1.006924	0.126082	-0.141460
C124	C	1.007692	0.201739	-0.096097
C125	C	0.940016	0.227903	-0.030341
C126	C	0.871566	0.178408	-0.009943
C127	C	0.870798	0.102750	-0.055306
H128	H	1.057026	0.106715	-0.190140
H129	H	1.058364	0.238379	-0.111197
H130	H	0.940585	0.283909	0.003239
H131	H	0.821464	0.197774	0.038737
H132	H	0.820126	0.066111	-0.040206
C133	C	0.335348	0.066497	0.105484
C134	C	0.383000	0.086057	0.175051
C135	C	0.428373	0.156425	0.175800
C136	C	0.426094	0.207234	0.106982
C137	C	0.378441	0.187676	0.037410
C138	C	0.333068	0.117307	0.036661
H139	H	0.384689	0.048444	0.225999
H140	H	0.463650	0.170903	0.227303
H141	H	0.459682	0.259325	0.107537
H142	H	0.376752	0.225289	-0.013538
H143	H	0.297791	0.102829	-0.014842
C144	C	0.335319	-0.212278	0.105427
C145	C	0.289959	-0.282649	0.104619
C146	C	0.335320	-0.358311	0.105285
C147	C	0.426041	-0.363601	0.106758
C148	C	0.471406	-0.293227	0.107567
C149	C	0.426045	-0.217566	0.106901
H150	H	0.222798	-0.278735	0.103528
H151	H	0.301737	-0.410406	0.104686
H152	H	0.459620	-0.419610	0.107251
H153	H	0.538567	-0.297141	0.108658
H154	H	0.459628	-0.165471	0.107499
H155	H	0.693895	-0.154944	0.111496
C156	C	0.935590	0.066498	-0.294252
C157	C	1.004423	0.117303	-0.291961
C158	C	1.003687	0.187680	-0.337305
C159	C	0.934118	0.207251	-0.384941
C160	C	0.865280	0.156444	-0.387234
C161	C	0.866016	0.086068	-0.341889
H162	H	1.055927	0.102817	-0.256696
H163	H	1.054646	0.225290	-0.335608
H164	H	0.933573	0.259347	-0.418508
H165	H	0.813776	0.170931	-0.422498
H166	H	0.815057	0.048458	-0.343587
H167	H	0.932109	0.094615	-0.503221
C168	C	0.162149	0.076587	0.102590
C169	C	0.182544	0.126072	0.034145
C170	C	0.137186	0.201722	0.033380
C171	C	0.071434	0.227888	0.101060
C172	C	0.051036	0.178402	0.169510
C173	C	0.096393	0.102752	0.170275
H174	H	0.231221	0.106703	-0.015960
H175	H	0.152287	0.238354	-0.017292
H176	H	0.037857	0.283888	0.100493
H177	H	0.002359	0.197771	0.219615
H178	H	0.081293	0.066120	0.220947
H179	H	0.693933	0.085901	0.111490
C180	C	0.938419	-0.202185	-0.121084
C181	C	0.870733	-0.212529	-0.055333
C182	C	0.871473	-0.282899	-0.009977
C183	C	0.939900	-0.342924	-0.030372
C184	C	1.007592	-0.332581	-0.096125
C185	C	1.006852	-0.262212	-0.141481
H186	H	0.820074	-0.168093	-0.040233
H187	H	0.821363	-0.290554	0.038698
H188	H	0.940448	-0.395015	0.003204
H189	H	1.058251	-0.377017	-0.111225
H190	H	1.056962	-0.254556	-0.190157
H191	H	0.173901	-0.183904	0.102794
H192	H	0.935723	-0.192622	-0.282499
H193	H	1.031564	-0.396432	0.009536
H194	H	0.929611	0.085896	-0.652847
