data_functionalizedCrystal
_audit_creation_method	'MofGen! by Chris Wilmer'
_symmetry_space_group_name_H-M	'P1'
_symmetry_Int_Tables_number	1
_symmetry_cell_setting	triclinic
loop_
_symmetry_equiv_pos_as_xyz
  x,y,z
_cell_length_a	17.077402
_cell_length_b	17.077404
_cell_length_c	17.077395
_cell_angle_alpha	90.017597
_cell_angle_beta	90.029271
_cell_angle_gamma	90.031633
loop_
_atom_site_label
_atom_site_type_symbol
_atom_site_fract_x
_atom_site_fract_y
_atom_site_fract_z
Zn1	Zn	0.312537	-1.199972	-0.443872
Zn2	Zn	0.812537	-0.699972	0.056128
Zn3	Zn	0.443809	-1.199866	-0.312602
Zn4	Zn	0.943809	-0.699866	0.187398
Zn5	Zn	0.312559	-1.068713	-0.312616
Zn6	Zn	0.812559	-0.568713	0.187384
Zn7	Zn	0.443762	-1.068650	-0.443821
Zn8	Zn	0.943762	-0.568650	0.056179
O9	O	0.378167	-1.134300	-0.378228
O10	O	0.878167	-0.634300	0.121772
O11	O	0.329960	-1.309805	-0.426475
O12	O	0.829960	-0.809805	0.073525
O13	O	0.426427	-1.182450	-0.202757
O14	O	0.926427	-0.682450	0.297243
O15	O	0.202709	-1.086195	-0.330055
O16	O	0.702709	-0.586195	0.169945
O17	O	0.426405	-1.309727	-0.330031
O18	O	0.926405	-0.809727	0.169969
O19	O	0.202693	-1.182631	-0.426489
O20	O	0.702693	-0.682631	0.073511
O21	O	0.329998	-1.086092	-0.202767
O22	O	0.829998	-0.586092	0.297233
O23	O	0.329953	-0.958858	-0.330005
O24	O	0.829953	-0.458858	0.169995
O25	O	0.426326	-1.086088	-0.553675
O26	O	0.926326	-0.586088	-0.053675
O27	O	0.426348	-0.958811	-0.426401
O28	O	0.926348	-0.458811	0.073599
O29	O	0.329915	-1.182570	-0.553713
O30	O	0.829915	-0.682570	-0.053713
O31	O	0.553649	-1.182389	-0.329981
O32	O	1.053649	-0.682389	0.170019
O33	O	0.553615	-1.085985	-0.426387
O34	O	1.053615	-0.585985	0.073613
C35	C	0.378148	-0.930352	-0.378199
C36	C	0.878148	-0.430352	0.121801
C37	C	0.378160	-0.843103	-0.378205
C38	C	0.878160	-0.343103	0.121795
C39	C	0.582115	-1.134190	-0.378194
C40	C	1.082115	-0.634190	0.121806
C41	C	0.669364	-1.134215	-0.378205
C42	C	1.169364	-0.634215	0.121795
C43	C	0.428427	-0.802109	-0.428317
C44	C	0.928427	-0.302109	0.071683
C45	C	0.428427	-0.720128	-0.428327
C46	C	0.928427	-0.220128	0.071673
C47	C	0.378163	-0.679143	-0.378220
C48	C	0.878163	-0.179143	0.121780
C49	C	0.327890	-0.720143	-0.328107
C50	C	0.827890	-0.220143	0.171893
C51	C	0.327886	-0.802122	-0.328102
C52	C	0.827886	-0.302122	0.171898
C53	C	0.327902	-0.549273	-0.328120
C54	C	0.827902	-0.049273	0.171880
C55	C	0.327906	-0.467288	-0.328124
C56	C	0.827906	0.032712	0.171876
C57	C	0.428443	-0.467279	-0.428345
C58	C	0.928443	0.032721	0.071655
C59	C	0.428439	-0.549258	-0.428340
C60	C	0.928439	-0.049258	0.071660
C61	C	0.378167	-0.590252	-0.378225
C62	C	0.878167	-0.090252	0.121775
C63	C	1.045107	-1.184515	-0.428515
C64	C	1.545107	-0.684515	0.071485
C65	C	0.963126	-1.184491	-0.428499
C66	C	1.463126	-0.684491	0.071501
C67	C	0.922213	-1.134307	-0.378245
C68	C	1.422213	-0.634307	0.121755
C69	C	0.963285	-1.084150	-0.328000
C70	C	1.463285	-0.584150	0.172000
C71	C	1.045264	-1.084179	-0.328013
C72	C	1.545264	-0.584179	0.171987
C73	C	0.792415	-1.084091	-0.327978
C74	C	1.292415	-0.584091	0.172022
C75	C	0.710430	-1.084060	-0.327965
C76	C	1.210430	-0.584060	0.172035
C77	C	0.710277	-1.184402	-0.428463
C78	C	1.210277	-0.684402	0.071537
C79	C	0.792256	-1.184431	-0.428476
C80	C	1.292256	-0.684431	0.071524
C81	C	0.833322	-1.134274	-0.378231
C82	C	1.333322	-0.634274	0.121769
C83	C	1.173422	-1.134400	-0.378273
C84	C	1.673422	-0.634400	0.121727
C85	C	1.086173	-1.134361	-0.378275
C86	C	1.586173	-0.634361	0.121725
C87	C	0.378113	-1.134334	-0.582972
C88	C	0.878113	-0.634334	-0.082972
C89	C	0.378091	-1.134348	-0.670222
C90	C	0.878091	-0.634348	-0.170222
C91	C	0.378181	-0.339044	-0.378248
C92	C	0.878181	0.160956	0.121752
C93	C	0.378174	-0.426294	-0.378235
C94	C	0.878174	0.073706	0.121765
C95	C	0.327783	-1.184673	-1.046058
C96	C	0.827783	-0.684673	-0.546058
C97	C	0.327810	-1.184657	-0.964077
C98	C	0.827810	-0.684657	-0.464077
C99	C	0.378016	-1.134413	-0.923071
C100	C	0.878016	-0.634413	-0.423071
C101	C	0.428204	-1.084187	-0.964050
C102	C	0.928204	-0.584187	-0.464050
C103	C	0.428180	-1.084207	-1.046029
C104	C	0.928180	-0.584207	-0.546029
C105	C	0.428249	-1.084146	-0.793180
C106	C	0.928249	-0.584146	-0.293180
C107	C	0.428272	-1.084124	-0.711195
C108	C	0.928272	-0.584124	-0.211195
C109	C	0.327880	-1.184596	-0.711228
C110	C	0.827880	-0.684596	-0.211228
C111	C	0.327856	-1.184617	-0.793207
C112	C	0.827856	-0.684617	-0.293207
C113	C	0.378042	-1.134389	-0.834180
C114	C	0.878042	-0.634389	-0.334180
C115	C	0.378163	-1.134312	-0.174280
C116	C	0.878163	-0.634312	0.325720
C117	C	0.377965	-1.134450	-0.087031
C118	C	0.877965	-0.634450	0.412969
H119	H	0.469361	-0.835473	-0.469117
H120	H	0.969361	-0.335473	0.030883
C121	C	0.272679	-1.239852	-0.666156
C122	C	0.772679	-0.739852	-0.166156
N123	N	0.231102	-1.281468	-0.632204
N124	N	0.731102	-0.781468	-0.132204
C125	C	1.090103	-1.239724	-0.483797
C126	C	1.590103	-0.739724	0.016203
N127	N	1.123993	-1.281311	-0.525435
N128	N	1.623993	-0.781311	-0.025435
H129	H	0.929691	-1.225331	-0.469407
H130	H	1.429691	-0.725331	0.030593
H131	H	0.469086	-1.043280	-0.930656
H132	H	0.969086	-0.543280	-0.430656
C133	C	0.272597	-0.675056	-0.272992
C134	C	0.772597	-0.175056	0.227008
N135	N	0.230950	-0.641097	-0.231476
N136	N	0.730950	-0.141097	0.268524
H137	H	0.469361	-0.686755	-0.469132
H138	H	0.969361	-0.186755	0.030868
H139	H	0.469373	-0.582626	-0.469136
H140	H	0.969373	-0.082626	0.030864
C141	C	1.090436	-1.029004	-0.272746
C142	C	1.590436	-0.529004	0.227254
N143	N	1.124459	-0.987445	-0.231117
N144	N	1.624459	-0.487445	0.268883
H145	H	0.469374	-0.433898	-0.469152
H146	H	0.969374	0.066102	0.030848
H147	H	0.929969	-1.043292	-0.287079
H148	H	1.429969	-0.543292	0.212921
H149	H	0.677123	-1.043196	-0.287043
H150	H	1.177123	-0.543196	0.212957
H151	H	0.469136	-1.043193	-0.677810
H152	H	0.969136	-0.543193	-0.177810
H153	H	0.469119	-1.043248	-0.826537
H154	H	0.969119	-0.543248	-0.326537
C155	C	0.483382	-1.028955	-1.091099
C156	C	0.983382	-0.528955	-0.591099
N157	N	0.524963	-0.987339	-1.125044
N158	N	1.024963	-0.487339	-0.625044
H159	H	0.286967	-0.433920	-0.287332
H160	H	0.786967	0.066080	0.212668
C161	C	0.837586	-1.028912	-0.272707
C162	C	1.337586	-0.528912	0.227293
N163	N	0.871608	-0.987349	-0.231082
N164	N	1.371608	-0.487349	0.268918
C165	C	0.272590	-0.847214	-0.272974
C166	C	0.772590	-0.347214	0.227026
N167	N	0.230937	-0.881177	-0.231451
N168	N	0.730937	-0.381177	0.268549
C169	C	0.837259	-1.239640	-0.483754
C170	C	1.337259	-0.739640	0.016246
N171	N	0.871155	-1.281228	-0.525385
N172	N	1.371155	-0.781228	-0.025385
C173	C	0.665103	-1.239579	-0.483730
C174	C	1.165103	-0.739579	0.016270
N175	N	0.631074	-1.281136	-0.525357
N176	N	1.131074	-0.781136	-0.025357
H177	H	0.286894	-1.225583	-1.079439
H178	H	0.786894	-0.725583	-0.579439
C179	C	0.272599	-1.239901	-0.919011
C180	C	0.772599	-0.739901	-0.419011
N181	N	0.231010	-1.281511	-0.885067
N182	N	0.731010	-0.781511	-0.385067
H183	H	0.286958	-0.582647	-0.287318
H184	H	0.786958	-0.082647	0.212682
H185	H	0.286970	-1.225527	-0.826592
H186	H	0.786970	-0.725527	-0.326592
