data_functionalizedCrystal
_audit_creation_method	'MofGen! by Chris Wilmer'
_symmetry_space_group_name_H-M	'P1'
_symmetry_Int_Tables_number	1
_symmetry_cell_setting	triclinic
loop_
_symmetry_equiv_pos_as_xyz
  x,y,z
_cell_length_a	8.559649
_cell_length_b	13.339070
_cell_length_c	7.681481
_cell_angle_alpha	82.700297
_cell_angle_beta	94.913240
_cell_angle_gamma	92.703979
loop_
_atom_site_label
_atom_site_type_symbol
_atom_site_fract_x
_atom_site_fract_y
_atom_site_fract_z
O1	O	2.094922	-0.022785	-0.146401
O2	O	1.652108	0.027721	-0.146409
O3	O	1.822694	-0.140848	-0.146401
O4	O	1.924335	0.145783	-0.146409
O5	O	1.843672	-0.161637	0.146458
O6	O	1.673086	0.006931	0.146450
O7	O	2.115899	-0.043574	0.146458
Zn8	Zn	1.897823	-0.021623	0.192951
Zn9	Zn	1.870184	0.005769	-0.192903
O10	O	1.945313	0.124994	0.146449
C11	C	1.604764	0.021153	0.000020
C12	C	1.432434	0.032546	0.000017
C13	C	1.816014	-0.187598	0.000026
C14	C	1.764836	-0.295923	0.000018
C15	C	2.162764	-0.691632	0.000026
C16	C	2.210854	-0.589856	0.000043
C17	C	2.099353	-0.516368	0.000036
C18	C	1.939755	-0.544665	0.000013
C19	C	1.891662	-0.646451	0.000010
C20	C	1.828251	-0.471188	0.000020
C21	C	1.668653	-0.499485	-0.000003
C22	C	1.620567	-0.601262	-0.000008
C23	C	1.732068	-0.674750	-0.000001
C24	C	1.876344	-0.369401	0.000024
C25	C	1.605242	-0.324221	0.000008
C26	C	1.557152	-0.425997	-0.000010
C27	C	2.163243	-0.037007	0.000025
C28	C	2.335572	-0.048399	0.000017
C29	C	1.951993	0.171744	0.000019
C30	C	2.003170	0.280070	0.000015
N31	N	1.916697	-0.040318	0.456287
N32	N	1.851319	0.024455	-0.456238
H33	H	1.383518	0.110568	0.000005
O34	O	1.771473	0.103292	0.454254
C35	C	1.614692	0.096181	0.499165
H36	H	1.607620	0.049054	0.633068
H37	H	1.571810	0.175186	0.505293
H38	H	1.537870	0.058556	0.395453
H39	H	1.384481	-0.126415	0.000010
H40	H	2.138518	-0.433499	0.000051
H41	H	2.006290	-0.346373	0.000043
H42	H	2.340798	-0.566825	0.000065
O43	O	2.270851	-0.763138	-0.000036
C44	C	2.194179	-0.859041	0.000012
H45	H	2.067152	-0.849585	-0.055447
H46	H	2.256380	-0.906123	-0.084997
H47	H	2.197007	-0.898965	0.140515
O48	O	1.685531	-0.773633	-0.000250
C49	C	1.732924	-0.809243	-0.151952
H50	H	1.836158	-0.760183	-0.202511
H51	H	1.769841	-0.890863	-0.117850
H52	H	1.631100	-0.805481	-0.258161
O53	O	1.996192	-0.119313	0.545805
C54	C	1.924738	-0.210963	0.500928
H55	H	1.855729	-0.196757	0.367037
H56	H	2.018937	-0.267762	0.494789
H57	H	1.841773	-0.242482	0.604665
O58	O	1.465496	-0.628678	-0.000328
C59	C	1.383921	-0.579273	-0.151984
H60	H	1.468861	-0.556987	-0.257991
H61	H	1.287164	-0.632345	-0.202899
H62	H	1.329775	-0.508541	-0.117695
H63	H	1.427204	-0.449051	-0.000028
H64	H	1.514449	-0.264387	0.000011
