data_functionalizedCrystal
_audit_creation_method	'MofGen! by Chris Wilmer'
_symmetry_space_group_name_H-M	'P1'
_symmetry_Int_Tables_number	1
_symmetry_cell_setting	triclinic
loop_
_symmetry_equiv_pos_as_xyz
  x,y,z
_cell_length_a	16.120490
_cell_length_b	16.625546
_cell_length_c	16.625539
_cell_angle_alpha	90.030397
_cell_angle_beta	92.916216
_cell_angle_gamma	87.114737
loop_
_atom_site_label
_atom_site_type_symbol
_atom_site_fract_x
_atom_site_fract_y
_atom_site_fract_z
Zn1	Zn	1.274567	-0.383658	0.518296
Zn2	Zn	1.607900	-0.050325	0.851630
Zn3	Zn	1.941234	0.283008	1.184963
Zn4	Zn	1.274467	-0.518496	0.383454
Zn5	Zn	1.607800	-0.185163	0.716787
Zn6	Zn	1.941134	0.148170	1.050120
Zn7	Zn	1.135147	-0.376832	0.376651
Zn8	Zn	1.468480	-0.043499	0.709985
Zn9	Zn	1.801814	0.289834	1.043318
Zn10	Zn	1.135116	-0.511597	0.511421
Zn11	Zn	1.468450	-0.178264	0.844755
Zn12	Zn	1.801783	0.155070	1.178088
O13	O	1.204824	-0.447646	0.447456
O14	O	1.538158	-0.114313	0.780789
O15	O	1.871491	0.219021	1.114122
O16	O	1.391220	-0.407289	0.506133
O17	O	1.724554	-0.073955	0.839467
O18	O	2.057887	0.259378	1.172800
O19	O	1.255957	-0.499735	0.269718
O20	O	1.589290	-0.166402	0.603051
O21	O	1.922623	0.166932	0.936384
O22	O	1.153696	-0.264908	0.395471
O23	O	1.487029	0.068425	0.728805
O24	O	1.820363	0.401758	1.062138
O25	O	1.391147	-0.506354	0.407065
O26	O	1.724480	-0.173020	0.740398
O27	O	2.057813	0.160313	1.073732
O28	O	1.256127	-0.269923	0.499537
O29	O	1.589461	0.063410	0.832871
O30	O	1.922794	0.396744	1.166204
O31	O	1.153599	-0.395655	0.264720
O32	O	1.486932	-0.062322	0.598053
O33	O	1.820266	0.271011	0.931386
O34	O	1.018477	-0.388965	0.388805
O35	O	1.351810	-0.055632	0.722138
O36	O	1.685143	0.277701	1.055472
O37	O	1.153644	-0.494595	0.625167
O38	O	1.486977	-0.161262	0.958501
O39	O	1.820311	0.172072	1.291834
O40	O	1.018454	-0.487976	0.487820
O41	O	1.351787	-0.154643	0.821153
O42	O	1.685121	0.178690	1.154487
O43	O	1.256098	-0.400599	0.630218
O44	O	1.589431	-0.067265	0.963552
O45	O	1.922764	0.266068	1.296885
O46	O	1.255927	-0.630411	0.400399
O47	O	1.589260	-0.297078	0.733732
O48	O	1.922594	0.036256	1.067065
O49	O	1.153547	-0.625342	0.494416
O50	O	1.486880	-0.292009	0.827749
O51	O	1.820214	0.041325	1.161083
C52	C	1.204745	-0.657133	0.447418
C53	C	1.538079	-0.323800	0.780751
C54	C	1.871412	0.009534	1.114085
C55	C	1.204788	-0.746756	0.447433
C56	C	1.538121	-0.413423	0.780766
C57	C	1.871455	-0.080090	1.114099
C58	C	0.988215	-0.436982	0.436829
C59	C	1.321548	-0.103649	0.770162
C60	C	1.654882	0.229685	1.103495
C61	C	0.895549	-0.432439	0.432302
C62	C	1.228882	-0.099106	0.765635
C63	C	1.562215	0.234227	1.098968
C64	C	1.204933	-1.074939	0.447524
C65	C	1.538267	-0.741606	0.780857
C66	C	1.871600	-0.408272	1.114191
C67	C	1.204890	-0.983628	0.447501
C68	C	1.538224	-0.650295	0.780834
C69	C	1.871557	-0.316962	1.114167
C70	C	1.204860	-0.910850	0.447478
C71	C	1.538193	-0.577517	0.780811
C72	C	1.871527	-0.244184	1.114144
C73	C	1.204818	-0.819534	0.447455
C74	C	1.538152	-0.486201	0.780789
C75	C	1.871485	-0.152867	1.114122
C76	C	0.684609	-0.471203	0.470940
C77	C	1.017942	-0.137870	0.804274
C78	C	1.351275	0.195463	1.137607
C79	C	0.725891	-0.424153	0.424035
C80	C	1.059225	-0.090820	0.757368
C81	C	1.392558	0.242514	1.090702
C82	C	0.820297	-0.428765	0.428636
C83	C	1.153631	-0.095432	0.761969
C84	C	1.486964	0.237902	1.095303
C85	C	0.590194	-0.466593	0.466340
C86	C	0.923527	-0.133259	0.799674
C87	C	1.256861	0.200074	1.133007
C88	C	1.422280	-0.458352	0.458125
C89	C	1.755613	-0.125019	0.791458
C90	C	2.088946	0.208314	1.124791
C91	C	1.514946	-0.462915	0.462671
C92	C	1.848279	-0.129581	0.796005
C93	C	2.181613	0.203752	1.129338
C94	C	1.204879	-0.447589	0.657767
C95	C	1.538212	-0.114255	0.991101
C96	C	1.871545	0.219078	1.324434
C97	C	1.204902	-0.447564	0.747390
C98	C	1.538235	-0.114231	1.080723
C99	C	1.871568	0.219103	1.414056
C100	C	1.204926	-0.237342	0.447512
C101	C	1.538260	0.095991	0.780846
C102	C	1.871593	0.429325	1.114179
C103	C	1.204970	-0.147723	0.447536
C104	C	1.538303	0.185610	0.780870
C105	C	1.871636	0.518944	1.114203
C106	C	1.204818	-0.447647	0.237965
C107	C	1.538152	-0.114314	0.571298
C108	C	1.871485	0.219019	0.904631
C109	C	1.204957	-0.447453	0.148351
C110	C	1.538290	-0.114119	0.481684
C111	C	1.871623	0.219214	0.815017
C112	C	1.204940	-0.447476	1.075567
C113	C	1.538273	-0.114142	1.408901
C114	C	1.871607	0.219191	1.742234
C115	C	1.204927	-0.447503	0.984258
C116	C	1.538260	-0.114169	1.317592
C117	C	1.871594	0.219164	1.650925
C118	C	1.204921	-0.447521	0.911481
C119	C	1.538255	-0.114187	1.244815
C120	C	1.871588	0.219146	1.578148
C121	C	1.204907	-0.447546	0.820166
C122	C	1.538241	-0.114213	1.153500
C123	C	1.871574	0.219120	1.486833
H124	H	0.690333	-0.380408	0.380423
H125	H	1.023666	-0.047075	0.713756
H126	H	1.357000	0.286259	1.047089
C127	C	0.732644	-0.530305	0.529847
C128	C	1.065977	-0.196971	0.863181
C129	C	1.399311	0.136362	1.196514
N130	N	0.768834	-0.574823	0.574212
N131	N	1.102167	-0.241489	0.907545
N132	N	1.435500	0.091844	1.240878
