data_functionalizedCrystal
_audit_creation_method	'MofGen! by Chris Wilmer'
_symmetry_space_group_name_H-M	'P1'
_symmetry_Int_Tables_number	1
_symmetry_cell_setting	triclinic
loop_
_symmetry_equiv_pos_as_xyz
  x,y,z
_cell_length_a	15.944480
_cell_length_b	15.021413
_cell_length_c	11.792241
_cell_angle_alpha	89.996104
_cell_angle_beta	96.168368
_cell_angle_gamma	89.993605
loop_
_atom_site_label
_atom_site_type_symbol
_atom_site_fract_x
_atom_site_fract_y
_atom_site_fract_z
O1	O	-1.115225	0.074013	0.145982
O2	O	-0.870749	0.074019	0.164113
O3	O	-0.998919	0.074010	-0.010174
O4	O	-0.987054	0.074023	0.320269
O5	O	-0.998899	-0.074054	-0.010149
O6	O	-0.870728	-0.074045	0.164138
O7	O	-1.115204	-0.074051	0.146007
Zn8	Zn	-0.992963	-0.097556	0.155077
Zn9	Zn	-0.992990	0.097525	0.155044
O10	O	-0.987033	-0.074042	0.320294
C11	C	-0.839440	-0.000012	0.163387
C12	C	-0.746181	-0.000010	0.161173
N13	N	-0.992951	-0.230694	0.155098
C14	C	-0.510883	-0.000004	0.263772
C15	C	-0.460064	-0.073013	0.208468
C16	C	-0.575440	-0.000011	0.157070
C17	C	-0.460089	0.072967	0.208418
C18	C	-0.410512	-0.000008	0.153115
C19	C	-0.525850	-0.073080	0.101795
C20	C	-0.525878	0.072965	0.101760
C21	C	-0.475093	-0.000062	0.046378
C22	C	-0.670451	-0.000013	0.159352
C23	C	-0.315504	-0.000011	0.150826
C24	C	-0.933675	-0.470373	0.235651
C25	C	-1.009678	-0.529708	0.257659
C26	C	-0.992972	-0.412301	0.155070
C27	C	-0.916991	-0.529707	0.133087
C28	C	-0.992986	-0.587725	0.155045
C29	C	-1.069013	-0.470330	0.177129
C30	C	-0.976276	-0.470324	0.052513
C31	C	-1.052333	-0.529632	0.074477
C32	C	-0.992963	-0.311244	0.155087
C33	C	-0.993004	-0.688780	0.155027
C34	C	-0.146511	-0.000016	0.146749
C35	C	-0.239766	-0.000007	0.149009
C36	C	-0.998164	-0.000022	-0.052446
C37	C	-0.995933	-0.000021	-0.178440
N38	N	-0.993009	0.230662	0.155013
C39	C	-0.991831	-0.000006	-0.409117
C40	C	-0.994110	-0.000014	-0.280752
C41	C	-0.987789	-0.000008	0.362566
C42	C	-0.990020	-0.000003	0.488561
H43	H	-0.431322	-0.134732	0.253540
N44	N	-0.958510	-0.437552	-0.056229
N45	N	-0.956288	-0.355572	-0.073845
H46	H	-0.943732	-0.332424	-0.150643
N47	N	-0.455177	-0.000123	-0.069009
N48	N	-0.479287	-0.062861	-0.134132
H49	H	-0.465222	-0.062909	-0.215624
H50	H	-1.023812	-0.555792	0.344378
H51	H	-0.526921	-0.000069	0.355680
H52	H	-0.852729	-0.555791	0.114505
H53	H	-1.102539	-0.555488	0.006318
N54	N	-0.561755	-0.150586	0.045316
N55	N	-0.639651	-0.163111	0.037963
H56	H	-0.665012	-0.217850	-0.001922
H57	H	-0.554630	0.134688	0.056722
N58	N	-0.424056	0.150385	0.264970
N59	N	-0.432465	0.163377	0.367835
H60	H	-0.407018	0.218051	0.407784
N61	N	-0.870822	-0.437737	0.321194
N62	N	-0.826398	-0.491167	0.382773
H63	H	-0.782009	-0.468118	0.443189
N64	N	-1.149646	-0.437742	0.200561
N65	N	-1.162644	-0.355788	0.204390
H66	H	-1.219590	-0.332770	0.220941
