data_functionalizedCrystal
_audit_creation_method	'MofGen! by Chris Wilmer'
_symmetry_space_group_name_H-M	'P1'
_symmetry_Int_Tables_number	1
_symmetry_cell_setting	triclinic
loop_
_symmetry_equiv_pos_as_xyz
  x,y,z
_cell_length_a	23.096457
_cell_length_b	14.809436
_cell_length_c	14.809374
_cell_angle_alpha	57.530078
_cell_angle_beta	98.950603
_cell_angle_gamma	67.424264
loop_
_atom_site_label
_atom_site_type_symbol
_atom_site_fract_x
_atom_site_fract_y
_atom_site_fract_z
Zr1	Zr	0.605243	1.000615	-0.231478
O2	O	0.509563	1.191322	-0.398680
O3	O	0.626717	0.809906	-0.165487
O4	O	0.619020	1.000615	-0.377439
O5	O	0.532269	1.000613	-0.036297
O6	O	0.714300	1.000618	-0.377445
O7	O	0.517260	1.000612	-0.186728
O8	O	0.728069	0.659474	0.001699
O9	O	0.518501	1.341757	-0.415441
O10	O	0.716475	0.888350	-0.155149
O11	O	0.656570	0.888348	-0.042880
O12	O	0.647508	1.112884	-0.292426
O13	O	0.587603	1.112882	-0.180157
Zr14	Zr	0.781142	1.000619	0.008432
Zr15	Zr	0.757204	1.000619	-0.231487
Zr16	Zr	0.629182	1.000615	0.008441
Zr17	Zr	0.619499	1.240542	-0.258210
Zr18	Zr	0.766887	0.760693	0.035164
O19	O	0.759669	1.191328	-0.057559
O20	O	0.725631	1.191327	-0.398693
O21	O	0.543600	1.191323	-0.057546
O22	O	0.876823	0.809913	0.175634
O23	O	0.842786	0.809912	-0.165500
O24	O	0.660754	0.809907	0.175648
O25	O	0.854117	1.000621	-0.186748
O26	O	0.767365	1.000619	0.154393
O27	O	0.672085	1.000617	0.154399
O28	O	0.869126	1.000622	-0.036318
O29	O	0.639289	1.341760	-0.415449
O30	O	0.747096	0.659474	0.192403
O31	O	0.867885	0.659477	0.192396
O32	O	0.848857	0.659477	0.001692
O33	O	0.537529	1.341757	-0.224737
O34	O	0.658317	1.341761	-0.224745
O35	O	0.738878	0.888350	0.069381
O36	O	0.798783	0.888352	-0.042888
O37	O	0.729816	1.112886	-0.180166
O38	O	0.669911	1.112884	-0.067897
C39	C	0.675362	0.700505	-0.078085
C40	C	0.669310	0.598650	-0.066737
C41	C	0.690062	0.447990	-0.105670
C42	C	0.696328	0.553247	-0.117383
C43	C	0.503113	1.000612	-0.111511
C44	C	0.438602	1.000610	-0.111507
C45	C	0.444296	0.883409	-0.039861
C46	C	0.383681	0.883408	-0.039856
C47	C	0.317370	1.000613	-0.111520
C48	C	0.311680	1.117830	-0.183171
C49	C	0.372296	1.117828	-0.183164
N50	N	0.190242	1.087856	-0.216617
N51	N	0.132662	1.087849	-0.216620
C52	C	0.134736	1.000625	-0.111541
N53	N	0.196572	0.913388	-0.006458
N54	N	0.254158	0.913391	-0.006457
C55	C	0.251639	1.000628	-0.111534
C56	C	0.074707	0.883414	-0.039883
C57	C	0.014090	0.883417	-0.039875
C58	C	-0.057912	1.117843	-0.183201
C59	C	0.002706	1.117836	-0.183198
C60	C	0.069013	1.000618	-0.111541
C61	C	0.883272	1.000622	-0.111534
C62	C	0.947784	1.000624	-0.111538
C63	C	0.663250	1.000616	-0.411625
C64	C	0.653087	1.000616	-0.513477
C65	C	0.711024	1.300729	-0.144961
C66	C	0.717076	1.402584	-0.156309
C67	C	0.698441	1.000617	-0.558889
C68	C	0.687939	1.000617	-0.664159
C69	C	0.723136	1.000618	0.188580
C70	C	0.733298	1.000618	0.290432
C71	C	0.865441	0.700510	-0.078097
C72	C	0.923901	0.598657	-0.066752
C73	C	0.705305	0.700506	0.222017
C74	C	0.709416	0.598651	0.335218
C75	C	0.895385	0.700511	0.222006
C76	C	0.964007	0.598658	0.335202
C77	C	0.491001	1.300723	-0.445052
C78	C	0.422379	1.402576	-0.558248
C79	C	0.520944	1.300724	-0.144949
C80	C	0.462485	1.402577	-0.156294
C81	C	0.681081	1.300728	-0.445063
C82	C	0.676970	1.402583	-0.558264
C83	C	0.908389	0.550824	-0.120033
C84	C	0.963311	0.455135	-0.109398
C85	C	1.033744	0.407274	-0.045473
C86	C	1.049255	0.455116	0.007809
C87	C	0.994334	0.550810	-0.002835
C88	C	1.027508	0.550828	0.329757
C89	C	1.091992	0.455139	0.436107
C90	C	1.092971	0.407276	0.547901
C91	C	1.029463	0.455116	0.553343
C92	C	0.964981	0.550809	0.446994
C93	C	0.358878	1.450418	-0.552805
C94	C	0.294397	1.546137	-0.659157
C95	C	0.293417	1.594005	-0.770952
C96	C	0.356925	1.546159	-0.776393
C97	C	0.421406	1.450448	-0.670042
C98	C	0.477996	1.450420	-0.103023
C99	C	0.423073	1.546135	-0.113688
C100	C	0.352640	1.594000	-0.177617
C101	C	0.337129	1.546153	-0.230894
C102	C	0.392051	1.450446	-0.220235
C103	C	0.663773	0.633697	0.379148
C104	C	0.667621	0.538008	0.485501
C105	C	0.717116	0.407272	0.547927
C106	C	0.762761	0.372226	0.503988
C107	C	0.758909	0.467915	0.397632
C108	C	0.627471	1.533303	-0.620657
C109	C	0.623607	1.629020	-0.727013
C110	C	0.669240	1.594014	-0.770978
C111	C	0.718745	1.463281	-0.708575
C112	C	0.722611	1.367567	-0.602216
H113	H	0.641542	0.559603	-0.014707
O114	O	0.355839	1.592758	-0.885088
C115	C	0.284199	1.740260	-1.100885
C116	C	0.285330	1.687584	-0.977865
H117	H	0.227199	1.816955	-1.175929
H118	H	0.308463	1.657877	-1.101879
H119	H	0.316111	1.785008	-1.115922
H120	H	0.253411	1.642851	-0.962749
H121	H	0.261091	1.770014	-0.976929
O122	O	0.359696	1.404125	-0.444321
C123	C	0.290851	1.414217	-0.339297
C124	C	0.289831	1.466759	-0.462228
H125	H	0.234370	1.464814	-0.353729
H126	H	0.323219	1.433082	-0.293656
H127	H	0.315723	1.305775	-0.279480
H128	H	0.264946	1.575207	-0.522138
H129	H	0.257485	1.447794	-0.507773
H130	H	0.128699	0.787968	0.018488
H131	H	0.388316	0.787966	0.018488
O132	O	0.019742	0.769446	0.029757
C133	C	0.097559	0.536932	0.171950
C134	C	0.091257	0.665911	0.093128
H135	H	0.155377	0.453191	0.223226
H136	H	0.064672	0.530993	0.111940
H137	H	0.077291	0.531134	0.239107
H138	H	0.111534	0.671796	0.025962
H139	H	0.124128	0.671796	0.153214
H140	H	0.307926	1.671931	-0.186286
H141	H	0.851043	0.589792	-0.172101
O142	O	0.750153	0.449343	-0.218378
C143	C	0.786623	0.596787	-0.286538
C144	C	0.749129	0.543973	-0.216234
H145	H	0.785820	0.673284	-0.284806
H146	H	0.758069	0.641747	-0.384115
H147	H	0.843790	0.514345	-0.242661
H148	H	0.691962	0.626342	-0.260008
H149	H	0.777738	0.498975	-0.118659
H150	H	0.583293	1.735461	-0.777811
H151	H	0.242693	1.585077	-0.654703
H152	H	0.498280	0.787961	0.018481
O153	O	0.483046	1.404205	-0.675519
C154	C	0.560899	1.453723	-0.751943
C155	C	0.491070	1.506253	-0.745842
H156	H	0.567416	1.536197	-0.808774
H157	H	0.559854	1.409000	-0.794757
H158	H	0.607152	1.377050	-0.656726
H159	H	0.444780	1.582970	-0.841017
H160	H	0.492176	1.550894	-0.702963
H161	H	1.106609	0.416134	0.059855
O162	O	0.546371	1.404116	-0.040921
C163	C	0.625803	1.414180	0.074256
C164	C	0.548339	1.466742	0.003936
H165	H	0.627421	1.464770	0.110564
H166	H	0.651120	1.433034	0.011490
H167	H	0.656222	1.305739	0.152849
H168	H	0.517862	1.575189	-0.074659
H169	H	0.523077	1.447787	0.066782
O170	O	0.762993	1.429511	-0.751490
C171	C	0.799202	1.503549	-0.907165
C172	C	0.749044	1.541969	-0.858703
H173	H	0.787952	1.594449	-0.993839
H174	H	0.790425	1.443933	-0.926792
H175	H	0.856404	1.443807	-0.836678
H176	H	0.691823	1.601756	-0.929136
H177	H	0.757882	1.601521	-0.839044
H178	H	0.257686	1.213259	-0.241519
O179	O	0.810934	0.245270	0.564623
C180	C	0.934266	0.074273	0.668769
C181	C	0.879782	0.218082	0.600087
H182	H	0.989943	0.052240	0.697483
H183	H	0.924050	0.052141	0.607460
H184	H	0.929138	0.011945	0.752291
H185	H	0.884880	0.280505	0.516565
H186	H	0.890015	0.240110	0.661479
O187	O	0.770674	1.240527	-0.541439
C188	C	0.818776	1.019609	-0.369469
C189	C	0.764318	1.163431	-0.438159
H190	H	0.813646	0.957236	-0.285967
H191	H	0.874476	0.997484	-0.340760
H192	H	0.808490	0.997634	-0.430889
H193	H	0.774539	1.185507	-0.376810
H194	H	0.708637	1.185482	-0.466886
O195	O	0.632395	1.000384	-0.710557
C196	C	0.573941	0.889025	-0.671892
C197	C	0.636884	0.889114	-0.619198
H198	H	0.577541	0.799086	-0.598047
H199	H	0.575369	0.888940	-0.748450
H200	H	0.522282	0.979049	-0.708181
H201	H	0.688574	0.799105	-0.582842
H202	H	0.635393	0.889267	-0.542693
H203	H	0.606485	1.000608	-0.552528
H204	H	0.367655	1.213270	-0.241505
H205	H	0.666083	1.671964	-0.857586
H206	H	1.078458	0.329353	-0.036815
O207	O	1.153635	0.408905	0.430628
C208	C	1.231480	0.458436	0.354188
C209	C	1.161648	0.510961	0.360282
H210	H	1.237989	0.540918	0.297339
H211	H	1.230447	0.413688	0.311396
H212	H	1.277732	0.381783	0.449405
H213	H	1.115359	0.587658	0.265108
H214	H	1.162743	0.555628	0.403139
H215	H	-0.111901	1.213274	-0.241552
O216	O	0.268672	1.592751	-0.292898
C217	C	0.145977	1.740248	-0.361282
C218	C	0.223474	1.687574	-0.291015
H219	H	0.109412	1.816941	-0.359806
H220	H	0.138107	1.657862	-0.317362
H221	H	0.133039	1.784997	-0.458783
H222	H	0.236465	1.642840	-0.193507
H223	H	0.231304	1.770006	-0.335032
H224	H	0.630450	0.566568	0.521261
H225	H	-0.001934	1.213274	-0.241548
O226	O	0.754111	1.000409	-0.512198
C227	C	0.880968	0.889105	-0.414665
C228	C	0.817993	0.889152	-0.467477
H229	H	0.932632	0.799178	-0.378518
H230	H	0.879571	0.889030	-0.338014
H231	H	0.877317	0.979140	-0.488455
H232	H	0.821603	0.799133	-0.393774
H233	H	0.819412	0.889295	-0.544157
H234	H	1.006974	0.589743	0.040562
O235	O	1.155552	0.314361	0.651315
C236	C	1.213791	0.176957	0.868264
C237	C	1.142869	0.282201	0.751246
H238	H	1.203560	0.150904	0.949090
H239	H	1.248941	0.214588	0.864146
H240	H	1.241379	0.087392	0.878184
H241	H	1.115221	0.371800	0.741252
H242	H	1.107770	0.244465	0.755416
H243	H	0.379412	1.411495	-0.263612
H244	H	0.779908	1.000612	-0.670513
H245	H	0.950668	0.416194	-0.152788
O246	O	1.030297	0.408800	0.661839
C247	C	0.961486	0.418792	0.766936
C248	C	0.960439	0.471385	0.643980
H249	H	0.905012	0.469349	0.752541
H250	H	0.993853	0.437662	0.812573
H251	H	0.986375	0.310346	0.826736
H252	H	0.935538	0.579837	0.584086
H253	H	0.928095	0.452415	0.598438
H254	H	1.026724	0.589783	0.238740
H255	H	0.623466	0.740143	0.328332
O256	O	0.903288	0.597458	0.452214
C257	C	0.798850	0.784244	0.391373
C258	C	0.868703	0.731587	0.385372
H259	H	0.770860	0.892697	0.337318
H260	H	0.810597	0.733686	0.489520
H261	H	0.763354	0.765335	0.351654
H262	H	0.904233	0.750484	0.425031
H263	H	0.856904	0.782146	0.287206
O264	O	0.803282	0.434020	0.354942
C265	C	0.895028	0.445744	0.301400
C266	C	0.844798	0.484258	0.349724
H267	H	0.928617	0.486321	0.297190
H268	H	0.862656	0.486438	0.207038
H269	H	0.931032	0.335865	0.364283
H270	H	0.808784	0.594123	0.286931
H271	H	0.877213	0.443470	0.444106
O272	O	0.583069	1.567548	-0.578152
C273	C	0.488186	1.742067	-0.607850
C274	C	0.538465	1.703450	-0.656064
H275	H	0.452101	1.851945	-0.670833
H276	H	0.520518	1.701517	-0.513535
H277	H	0.454684	1.701312	-0.603528
H278	H	0.571978	1.744194	-0.660465
H279	H	0.506092	1.743981	-0.750349
H280	H	0.662300	0.408932	-0.053637
H281	H	0.724099	0.592289	-0.169408
H282	H	0.240908	1.671937	-0.857541
H283	H	0.435716	1.585076	-0.070297
H284	H	0.720244	0.329369	0.634527
