data_functionalizedCrystal
_audit_creation_method	'MofGen! by Chris Wilmer'
_symmetry_space_group_name_H-M	'P1'
_symmetry_Int_Tables_number	1
_symmetry_cell_setting	triclinic
loop_
_symmetry_equiv_pos_as_xyz
  x,y,z
_cell_length_a	12.837932
_cell_length_b	12.837942
_cell_length_c	15.455301
_cell_angle_alpha	92.720400
_cell_angle_beta	92.721025
_cell_angle_gamma	94.829322
loop_
_atom_site_label
_atom_site_type_symbol
_atom_site_fract_x
_atom_site_fract_y
_atom_site_fract_z
O1	O	1.406832	0.276643	0.072133
O2	O	1.103698	0.263198	0.072134
O3	O	1.248543	0.118354	0.072128
O4	O	1.261987	0.421488	0.072139
O5	O	1.239540	0.109360	-0.072135
O6	O	1.094695	0.254205	-0.072129
O7	O	1.397829	0.267650	-0.072130
Cu8	Cu	1.245440	0.260106	-0.085302
Cu9	Cu	1.256087	0.270742	0.085306
O10	O	1.252984	0.412494	-0.072124
C11	C	1.060128	0.254160	0.000003
C12	C	0.943712	0.240615	0.000003
C13	C	0.782686	0.127401	-0.000002
C14	C	0.892069	0.140122	-0.000002
C15	C	0.885965	0.328394	0.000005
C16	C	0.776583	0.315673	0.000004
C17	C	0.724947	0.215174	0.000002
C18	C	0.615563	0.202455	0.000007
C19	C	0.609461	0.390726	0.000007
C20	C	0.718843	0.403446	0.000008
C21	C	1.239500	0.074788	-0.000003
C22	C	1.225956	-0.041627	-0.000001
C23	C	1.388787	-0.266499	0.000016
C24	C	1.376065	-0.375882	0.000018
C25	C	1.187793	-0.369776	0.000009
C26	C	1.200515	-0.260394	0.000008
C27	C	1.301014	-0.208759	0.000010
C28	C	1.313734	-0.099375	0.000002
C29	C	1.125464	-0.093271	0.000000
C30	C	1.112743	-0.202654	0.000002
C31	C	1.441400	0.276688	0.000003
C32	C	1.557816	0.290234	0.000008
C33	C	1.262027	0.456060	0.000009
C34	C	1.275572	0.572476	0.000013
N35	N	1.237959	0.252625	-0.205298
C36	C	1.304892	0.319599	-0.250686
C37	C	1.299248	0.313936	-0.341495
C38	C	1.226664	0.241305	-0.386913
C39	C	1.159728	0.174324	-0.341518
C40	C	1.165378	0.179982	-0.250711
C41	C	1.202290	0.216893	-0.658496
C42	C	1.196643	0.211242	-0.749309
C43	C	1.336165	0.350853	-0.749280
C44	C	1.341804	0.356510	-0.658471
C45	C	1.274872	0.289525	-0.613085
N46	N	1.220891	0.235517	-0.479734
N47	N	1.280651	0.295308	-0.520265
N48	N	1.263576	0.278215	0.205302
H49	H	0.928025	0.410215	-0.000001
H50	H	1.105972	-0.411835	0.000017
H51	H	1.447539	-0.422890	0.000025
Br52	Br	1.390091	0.404833	-0.403091
Br53	Br	0.976358	-0.272738	0.000010
H54	H	0.562438	0.462197	0.000011
Br55	Br	1.006336	-0.014905	-0.000024
Br56	Br	0.788929	0.539831	0.000010
Br57	Br	1.525172	-0.196420	-0.000008
H58	H	0.740644	0.045572	0.000005
Br59	Br	1.450124	-0.029301	-0.000004
Br60	Br	1.403400	0.418179	-0.189056
H61	H	1.400912	0.415651	-0.621498
H62	H	1.390658	0.405387	-0.786244
H63	H	1.137531	0.152096	-0.786286
H64	H	1.147789	0.162349	-0.621553
H65	H	1.110874	0.125445	-0.213757
Br66	Br	0.545486	0.066066	0.000007
Br67	Br	1.061224	0.075747	-0.403156
H68	H	0.939076	0.068648	-0.000005
