data_functionalizedCrystal
_audit_creation_method	'MofGen! by Chris Wilmer'
_symmetry_space_group_name_H-M	'P1'
_symmetry_Int_Tables_number	1
_symmetry_cell_setting	triclinic
loop_
_symmetry_equiv_pos_as_xyz
  x,y,z
_cell_length_a	13.033409
_cell_length_b	13.032721
_cell_length_c	10.686551
_cell_angle_alpha	86.664748
_cell_angle_beta	87.737689
_cell_angle_gamma	89.138002
loop_
_atom_site_label
_atom_site_type_symbol
_atom_site_fract_x
_atom_site_fract_y
_atom_site_fract_z
Zn1	Zn	1.559804	-0.578125	0.562407
Zn2	Zn	2.059804	-0.078125	1.062407
Zn3	Zn	1.525299	-0.759833	0.384556
Zn4	Zn	2.025299	-0.259833	0.884556
Zn5	Zn	1.374828	-0.566428	0.378051
Zn6	Zn	1.874828	-0.066428	0.878051
Zn7	Zn	1.369619	-0.725408	0.614150
Zn8	Zn	1.869619	-0.225408	1.114150
O9	O	1.457388	-0.657448	0.484791
O10	O	1.957388	-0.157448	0.984791
O11	O	1.697793	-0.621531	0.519883
O12	O	2.197793	-0.121531	1.019883
O13	O	1.493078	-0.743689	0.210453
O14	O	1.993078	-0.243689	0.710453
O15	O	1.415986	-0.425401	0.378129
O16	O	1.915986	0.074599	0.878129
O17	O	1.672442	-0.755031	0.389216
O18	O	2.172442	-0.255031	0.889216
O19	O	1.551888	-0.433994	0.513575
O20	O	2.051888	0.066006	1.013575
O21	O	1.382528	-0.601595	0.205674
O22	O	1.882528	-0.101595	0.705674
O23	O	1.231571	-0.568215	0.428302
O24	O	1.731571	-0.068215	0.928302
O25	O	1.407108	-0.696359	0.780526
O26	O	1.907108	-0.196359	1.280526
O27	O	1.227744	-0.685017	0.601763
O28	O	1.727744	-0.185017	1.101763
O29	O	1.546836	-0.588151	0.742511
O30	O	2.046836	-0.088151	1.242511
O31	O	1.488027	-0.897845	0.439389
O32	O	1.988027	-0.397845	0.939389
O33	O	1.373650	-0.872553	0.608071
O34	O	1.873650	-0.372553	1.108071
C35	C	1.192692	-0.621612	0.519942
C36	C	1.692692	-0.121612	1.019942
C37	C	1.079453	-0.606304	0.535014
C38	C	1.579453	-0.106304	1.035014
C39	C	0.899386	-0.649622	0.492527
C40	C	1.399386	-0.149622	0.992527
C41	C	1.016423	-0.665447	0.476945
C42	C	1.516423	-0.165447	0.976945
C43	C	1.426558	-0.922171	0.530074
C44	C	1.926558	-0.422171	1.030074
C45	C	1.413466	-1.035430	0.549476
C46	C	1.913466	-0.535430	1.049476
C47	C	1.464279	-1.098409	0.474714
C48	C	1.964279	-0.598409	0.974714
C49	C	1.450748	-1.215469	0.494764
C50	C	1.950748	-0.715469	0.994764
C51	C	1.723117	-0.693426	0.449504
C52	C	2.223117	-0.193426	0.949504
C53	C	1.836355	-0.708757	0.434466
C54	C	2.336355	-0.208757	0.934466
C55	C	1.480240	-0.639719	0.807694
C56	C	1.980240	-0.139719	1.307694
C57	C	1.489979	-0.632164	0.945295
C58	C	1.989979	-0.132164	1.445295
C59	C	1.488367	-0.391695	0.439355
C60	C	1.988367	0.108305	0.939355
C61	C	1.501569	-0.278446	0.419992
C62	C	2.001569	0.221554	0.919992
C63	C	1.434691	-0.675043	0.163124
C64	C	1.934691	-0.175043	0.663124
C65	C	1.425184	-0.682338	0.025448
C66	C	1.925184	-0.182338	0.525448
H67	H	1.046776	-0.543957	0.596266
H68	H	1.546776	-0.043957	1.096266
H69	H	1.552910	-0.583431	0.981948
H70	H	2.052910	-0.083431	1.481948
H71	H	1.359950	-1.068176	0.628330
H72	H	1.859950	-0.568176	1.128330
N73	N	0.856108	-0.567041	0.573663
N74	N	1.356108	-0.067041	1.073663
H75	H	0.778635	-0.567443	0.573296
H76	H	1.278635	-0.067443	1.073296
H77	H	0.881770	-0.497787	0.539637
H78	H	1.381770	0.002213	1.039637
H79	H	1.397229	-1.248209	0.573624
H80	H	1.897229	-0.748209	1.073624
H81	H	0.869038	-0.771107	0.373230
H82	H	1.369038	-0.271107	0.873230
N83	N	1.341826	-0.746880	0.976898
N84	N	1.841826	-0.246880	1.476898
H85	H	1.272451	-0.719976	1.006302
H86	H	1.772451	-0.219976	1.506302
H87	H	1.350812	-0.820590	1.009688
H88	H	1.850812	-0.320590	1.509688
N89	N	1.059691	-0.748039	0.395810
N90	N	1.559691	-0.248039	0.895810
H91	H	1.101911	-0.798493	0.448274
H92	H	1.601911	-0.298493	0.948274
H93	H	1.104559	-0.715548	0.325604
H94	H	1.604559	-0.215548	0.825604
N95	N	1.535184	-1.055050	0.370272
N96	N	2.035184	-0.555050	0.870272
H97	H	1.534802	-0.977572	0.370756
H98	H	2.034802	-0.477572	0.870756
H99	H	1.510998	-1.076359	0.287098
H100	H	2.010998	-0.576359	0.787098
H101	H	1.555097	-1.245707	0.341140
H102	H	2.055097	-0.745707	0.841140
