data_functionalizedCrystal
_audit_creation_method	'MofGen! by Chris Wilmer'
_symmetry_space_group_name_H-M	'P1'
_symmetry_Int_Tables_number	1
_symmetry_cell_setting	triclinic
loop_
_symmetry_equiv_pos_as_xyz
  x,y,z
_cell_length_a	19.902436
_cell_length_b	17.052862
_cell_length_c	17.052832
_cell_angle_alpha	45.842616
_cell_angle_beta	77.685953
_cell_angle_gamma	70.261738
loop_
_atom_site_label
_atom_site_type_symbol
_atom_site_fract_x
_atom_site_fract_y
_atom_site_fract_z
Zr1	Zr	0.804862	0.878465	-0.240870
O2	O	0.747360	1.045927	-0.394892
O3	O	0.804209	0.711012	-0.175731
O4	O	0.861174	0.878458	-0.369027
O5	O	0.666254	0.878483	-0.069508
O6	O	0.971749	0.878442	-0.369014
O7	O	0.690394	0.878481	-0.201595
O8	O	0.869848	0.578912	-0.023242
O9	O	0.768155	1.178013	-0.415281
O10	O	0.908538	0.779873	-0.169595
O11	O	0.808002	0.779886	-0.071030
O12	O	0.875071	0.977032	-0.298612
O13	O	0.774535	0.977046	-0.200047
Zr14	Zr	0.942715	0.878444	-0.030186
Zr15	Zr	0.981216	0.878440	-0.240849
Zr16	Zr	0.766362	0.878469	-0.030207
Zr17	Zr	0.838029	1.089128	-0.273389
Zr18	Zr	0.909549	0.667781	0.002332
O19	O	0.943369	1.045897	-0.095326
O20	O	0.998111	1.045891	-0.394862
O21	O	0.692617	1.045932	-0.095356
O22	O	1.000218	0.710982	0.123835
O23	O	1.054961	0.710976	-0.175701
O24	O	0.749466	0.711017	0.123805
O25	O	1.081324	0.878426	-0.201548
O26	O	0.886403	0.878451	0.097971
O27	O	0.775829	0.878466	0.097958
O28	O	1.057184	0.878428	-0.069462
O29	O	0.908332	1.177993	-0.415264
O30	O	0.839245	0.578915	0.144208
O31	O	0.979423	0.578895	0.144224
O32	O	1.010026	0.578892	-0.023225
O33	O	0.737552	1.178016	-0.247832
O34	O	0.877730	1.177997	-0.247815
O35	O	0.872507	0.779876	0.027555
O36	O	0.973043	0.779863	-0.071010
O37	O	0.939576	0.977022	-0.200027
O38	O	0.839040	0.977036	-0.101462
C39	C	0.832303	0.614947	-0.094853
C40	C	0.818223	0.525515	-0.081048
C41	C	0.988450	0.273401	-0.247949
C42	C	1.001678	0.357432	-0.260927
C43	C	0.955816	0.399456	-0.215958
C44	C	0.896722	0.357443	-0.158010
C45	C	0.883490	0.273411	-0.145038
C46	C	0.850856	0.399466	-0.113047
C47	C	0.791762	0.357452	-0.055099
C48	C	0.778532	0.273427	-0.042129
C49	C	0.824394	0.231403	-0.087098
C50	C	0.864088	0.483498	-0.126019
C51	C	0.759128	0.483507	-0.023108
C52	C	0.745900	0.399477	-0.010130
C53	C	0.653198	0.878485	-0.135555
C54	C	0.578331	0.878496	-0.135563
C55	C	0.306313	0.878440	-0.135517
C56	C	0.313638	1.002812	-0.216605
C57	C	0.391551	1.002890	-0.216961
C58	C	0.441264	0.878468	-0.135540
C59	C	0.437416	0.816701	-0.171352
C60	C	0.359397	0.817497	-0.171932
C61	C	0.332005	0.814945	-0.018451
C62	C	0.409324	0.817282	-0.018977
C63	C	0.517535	0.878478	-0.135551
C64	C	0.230045	0.878427	-0.135508
C65	C	1.094380	0.878423	-0.135502
C66	C	1.169247	0.878413	-0.135493
C67	C	0.921947	0.878449	-0.399036
C68	C	0.938292	0.878448	-0.488468
C69	C	0.915275	1.141962	-0.176204
C70	C	0.929355	1.231394	-0.190009
C71	C	0.740689	0.878467	-0.740580
C72	C	0.725332	0.878461	-0.656550
C73	C	0.778570	0.878458	-0.614526
C74	C	0.847168	0.878460	-0.656539
C75	C	0.862528	0.878457	-0.740572
C76	C	0.900410	0.878448	-0.614517
C77	C	0.969008	0.878450	-0.656531
C78	C	0.984364	0.878448	-0.740556
C79	C	0.931126	0.878451	-0.782581
C80	C	0.885050	0.878452	-0.530484
C81	C	1.006889	0.878442	-0.530476
C82	C	1.022246	0.878447	-0.614507
C83	C	0.825631	0.878459	0.127979
C84	C	0.809286	0.878461	0.217411
C85	C	1.052894	0.614916	-0.094827
C86	C	1.113681	0.525473	-0.081013
C87	C	0.784145	0.614952	0.168655
C88	C	0.753721	0.525521	0.271891
C89	C	1.004736	0.614921	0.168681
C90	C	1.049178	0.525480	0.271926
C91	C	0.742842	1.141988	-0.439737
C92	C	0.698399	1.231429	-0.542983
C93	C	0.694684	1.141993	-0.176230
C94	C	0.633897	1.231435	-0.190044
C95	C	0.963433	1.141957	-0.439711
C96	C	0.993857	1.231387	-0.542948
C97	C	1.108558	0.483475	-0.125995
C98	C	1.165672	0.399446	-0.113037
C99	C	1.227907	0.357411	-0.055090
C100	C	1.233030	0.399417	-0.010108
C101	C	1.175918	0.483451	-0.023073
C102	C	0.773102	0.483519	0.371842
C103	C	0.744513	0.399501	0.468850
C104	C	0.696545	0.357482	0.465906
C105	C	0.677161	0.399493	0.365945
C106	C	0.705747	0.483515	0.268938
C107	C	1.122535	0.483470	0.268962
C108	C	1.164303	0.399443	0.365962
C109	C	1.132713	0.357421	0.465927
C110	C	1.059350	0.399438	0.468889
C111	C	1.017584	0.483470	0.371888
C112	C	0.625044	1.273448	-0.540020
C113	C	0.583280	1.357502	-0.637025
C114	C	0.614871	1.399529	-0.736990
C115	C	0.688234	1.357506	-0.739951
C116	C	0.729998	1.273459	-0.642948
C117	C	0.639023	1.273442	-0.145072
C118	C	0.581917	1.357494	-0.158057
C119	C	0.519683	1.399533	-0.216007
C120	C	0.514559	1.357522	-0.260985
C121	C	0.571666	1.273477	-0.248006
C122	C	1.041823	1.273380	-0.539969
C123	C	1.070423	1.357398	-0.636961
C124	C	1.051052	1.399428	-0.736932
C125	C	1.003083	1.357427	-0.739908
C126	C	0.974488	1.273404	-0.642916
H127	H	1.049791	0.391637	-0.308109
H128	H	0.673274	0.289066	0.544904
Br129	Br	0.442185	1.513595	-0.233611
H130	H	0.957851	0.517663	0.374318
Br131	Br	1.079147	0.878426	-0.473442
Br132	Br	0.973769	0.513499	-0.233569
Br133	Br	0.838204	0.540521	0.375867
H134	H	1.057892	0.517700	-0.173193
H135	H	0.567482	1.239278	-0.284626
Br136	Br	1.165427	0.540488	0.133308
H137	H	0.766064	0.878454	-0.546104
H138	H	1.274405	0.288985	-0.044540
Br139	Br	0.698326	0.216426	0.036496
H140	H	0.276627	1.051629	-0.193880
Br141	Br	1.050677	0.216380	-0.308988
Br142	Br	1.317496	0.342354	0.068536
H143	H	1.161488	0.365255	-0.149669
H144	H	0.586101	1.391685	-0.121424
Br145	Br	1.189406	0.243376	0.597563
Br146	Br	0.582152	1.216427	-0.404365
Br147	Br	0.430092	1.414583	-0.339626
Br148	Br	0.909385	1.216434	-0.646980
H149	H	0.356673	0.726246	-0.115683
H150	H	1.033637	0.365211	0.550293
Br151	Br	0.696878	0.540542	0.037915
H152	H	1.224037	0.365241	0.363532
Br153	Br	1.068124	1.216359	-0.404308
Br154	Br	0.483721	1.414513	-0.632980
Br155	Br	0.327065	0.662234	0.082338
Br156	Br	0.270380	0.881267	0.034455
H157	H	1.180097	0.517635	0.013565
Br158	Br	0.679438	0.540503	0.133297
H159	H	1.109478	1.391586	-0.634518
H160	H	1.074341	1.467844	-0.815901
Br161	Br	0.770830	0.342503	0.604496
H162	H	0.638103	0.365268	0.363565
Br163	Br	0.558181	1.513593	-0.868629
Br164	Br	0.976795	1.414489	-0.875594
H165	H	0.912203	0.517698	-0.173201
Br166	Br	0.731097	1.414552	-0.875628
H167	H	0.813630	0.162973	-0.076528
Br168	Br	0.951967	0.878470	-0.896635
H169	H	0.789727	1.239248	-0.645373
H170	H	0.689690	1.239221	-0.097877
H171	H	0.697785	0.365258	0.037051
H172	H	0.392426	1.051598	-0.194299
H173	H	0.295748	1.051386	-0.302751
Br174	Br	0.495028	0.664220	-0.076297
Br175	Br	0.334045	0.890661	-0.314785
Br176	Br	0.475071	0.888191	-0.312694
Br177	Br	0.425489	1.084168	-0.361387
H178	H	0.409846	0.862319	0.007947
H179	H	0.443356	0.726510	0.045029
H180	H	0.669480	0.878458	-0.622344
Br181	Br	0.668446	0.878452	-0.797600
Br182	Br	1.077464	0.878426	-0.797561
Br183	Br	1.115340	0.878452	-0.671535
Br184	Br	0.791956	0.878447	-0.473475
