data_functionalizedCrystal
_audit_creation_method	'MofGen! by Chris Wilmer'
_symmetry_space_group_name_H-M	'P1'
_symmetry_Int_Tables_number	1
_symmetry_cell_setting	triclinic
loop_
_symmetry_equiv_pos_as_xyz
  x,y,z
_cell_length_a	14.908571
_cell_length_b	21.295417
_cell_length_c	14.908308
_cell_angle_alpha	86.738273
_cell_angle_beta	89.824947
_cell_angle_gamma	86.725606
loop_
_atom_site_label
_atom_site_type_symbol
_atom_site_fract_x
_atom_site_fract_y
_atom_site_fract_z
Zn1	Zn	1.345222	-0.328502	0.587537
Zn2	Zn	1.678555	0.004831	0.920871
Zn3	Zn	2.011888	0.338164	1.254204
Zn4	Zn	1.353780	-0.428069	0.437164
Zn5	Zn	1.687113	-0.094735	0.770498
Zn6	Zn	2.020447	0.238598	1.103831
Zn7	Zn	1.203540	-0.316412	0.428537
Zn8	Zn	1.536873	0.016922	0.761870
Zn9	Zn	1.870206	0.350255	1.095204
Zn10	Zn	1.194808	-0.427321	0.578816
Zn11	Zn	1.528141	-0.093988	0.912149
Zn12	Zn	1.861474	0.239346	1.245483
O13	O	1.274337	-0.375076	0.508014
O14	O	1.607671	-0.041743	0.841347
O15	O	1.941004	0.291591	1.174680
O16	O	1.472182	-0.347083	0.574851
O17	O	1.805515	-0.013750	0.908184
O18	O	2.138849	0.319584	1.241517
O19	O	1.341086	-0.408510	0.310196
O20	O	1.674419	-0.075177	0.643529
O21	O	2.007753	0.258156	0.976862
O22	O	1.222407	-0.229931	0.449668
O23	O	1.555740	0.103403	0.783001
O24	O	1.889074	0.436736	1.116335
O25	O	1.478469	-0.420234	0.464372
O26	O	1.811803	-0.086901	0.797705
O27	O	2.145136	0.246433	1.131039
O28	O	1.326500	-0.238814	0.566485
O29	O	1.659834	0.094520	0.899818
O30	O	1.993167	0.427853	1.233152
O31	O	1.230705	-0.326476	0.303857
O32	O	1.564039	0.006857	0.637191
O33	O	1.897372	0.340191	0.970524
O34	O	1.076557	-0.325751	0.441211
O35	O	1.409890	0.007582	0.774545
O36	O	1.743223	0.340916	1.107878
O37	O	1.207525	-0.418959	0.705797
O38	O	1.540858	-0.085626	1.039130
O39	O	1.874191	0.247707	1.372464
O40	O	1.070141	-0.407236	0.551621
O41	O	1.403475	-0.073902	0.884954
O42	O	1.736808	0.259431	1.218287
O43	O	1.318033	-0.346358	0.712205
O44	O	1.651366	-0.013025	1.045538
O45	O	1.984700	0.320309	1.378871
O46	O	1.332619	-0.516054	0.455915
O47	O	1.665952	-0.182721	0.789249
O48	O	1.999286	0.150612	1.122582
O49	O	1.215823	-0.515505	0.559986
O50	O	1.549156	-0.182172	0.893319
O51	O	1.882490	0.151162	1.226653
C52	C	1.040724	-0.365101	0.494534
C53	C	1.374057	-0.031767	0.827867
C54	C	1.707391	0.301566	1.161200
C55	C	0.940782	-0.360849	0.488788
C56	C	1.274115	-0.027516	0.822122
C57	C	1.607449	0.305818	1.155455
C58	C	1.274225	-0.538621	0.507961
C59	C	1.607559	-0.205288	0.841295
C60	C	1.940892	0.128046	1.174628
C61	C	1.274258	-0.608591	0.507974
C62	C	1.607591	-0.275258	0.841307
C63	C	1.940925	0.058076	1.174641
C64	C	0.746357	-0.437829	0.592807
C65	C	1.079690	-0.104496	0.926140
C66	C	1.413024	0.228838	1.259474
C67	C	0.652453	-0.433836	0.587412
C68	C	0.985786	-0.100503	0.920745
C69	C	1.319119	0.232830	1.254079
C70	C	0.659066	-0.348869	0.472608
C71	C	0.992399	-0.015535	0.805941
C72	C	1.325733	0.317798	1.139275
C73	C	0.752971	-0.352861	0.478003
C74	C	1.086304	-0.019528	0.811337
C75	C	1.419637	0.313805	1.144670
C76	C	0.796613	-0.397344	0.538104
C77	C	1.129946	-0.064010	0.871437
C78	C	1.463280	0.269323	1.204770
C79	C	0.890520	-0.401339	0.543494
C80	C	1.223853	-0.068005	0.876827
C81	C	1.557186	0.265328	1.210160
C82	C	0.897131	-0.316368	0.428695
C83	C	1.230464	0.016965	0.762029
C84	C	1.563798	0.350298	1.095362
C85	C	0.803226	-0.312376	0.423300
C86	C	1.136560	0.020957	0.756633
C87	C	1.469893	0.354291	1.089967
C88	C	1.328424	-0.646026	0.568840
C89	C	1.661757	-0.312693	0.902173
C90	C	1.995091	0.020641	1.235506
C91	C	1.328454	-0.711771	0.568864
C92	C	1.661788	-0.378437	0.902197
C93	C	1.995121	-0.045104	1.235530
C94	C	1.274329	-0.740078	0.508007
C95	C	1.607663	-0.406744	0.841340
C96	C	1.940996	-0.073411	1.174673
C97	C	1.220152	-0.702634	0.447136
C98	C	1.553486	-0.369301	0.780469
C99	C	1.886819	-0.035967	1.113803
C100	C	1.220117	-0.636891	0.447120
C101	C	1.553450	-0.303557	0.780453
C102	C	1.886783	0.029776	1.113786
N103	N	1.272081	-0.840068	0.428926
N104	N	1.605415	-0.506734	0.762260
N105	N	1.938748	-0.173401	1.095593
N106	N	1.272120	-0.902521	0.428945
N107	N	1.605454	-0.569188	0.762278
N108	N	1.938787	-0.235855	1.095611
C109	C	1.274432	-0.938158	0.508053
C110	C	1.607765	-0.604825	0.841386
C111	C	1.941099	-0.271492	1.174720
N112	N	1.276721	-0.908983	0.587146
N113	N	1.610054	-0.575649	0.920479
N114	N	1.943387	-0.242316	1.253812
N115	N	1.276686	-0.846523	0.587127
N116	N	1.610020	-0.513190	0.920460
N117	N	1.943353	-0.179857	1.253793
C118	C	1.274361	-0.811365	0.508018
C119	C	1.607695	-0.478031	0.841351
C120	C	1.941028	-0.144698	1.174684
C121	C	1.328634	-1.046881	0.568950
C122	C	1.661967	-0.713548	0.902283
C123	C	1.995300	-0.380215	1.235617
C124	C	1.328658	-1.112627	0.568975
C125	C	1.661991	-0.779294	0.902309
C126	C	1.995324	-0.445960	1.235642
C127	C	1.220361	-1.103489	0.447240
C128	C	1.553694	-0.770156	0.780573
C129	C	1.887027	-0.436823	1.113906
C130	C	1.220332	-1.037745	0.447222
C131	C	1.553665	-0.704412	0.780556
C132	C	1.886998	-0.371078	1.113889
C133	C	1.274473	-1.009445	0.508076
C134	C	1.607806	-0.676112	0.841410
C135	C	1.941140	-0.342778	1.174743
C136	C	1.508863	-0.385091	0.521547
C137	C	1.842196	-0.051757	0.854880
C138	C	2.175529	0.281576	1.188213
C139	C	1.608804	-0.389358	0.527313
C140	C	1.942137	-0.056025	0.860647
C141	C	2.275470	0.277308	1.193980
C142	C	1.260850	-0.383924	0.742538
C143	C	1.594184	-0.050591	1.075871
C144	C	1.927517	0.282743	1.409204
C145	C	1.255103	-0.387694	0.842478
C146	C	1.588436	-0.054361	1.175811
C147	C	1.921769	0.278972	1.509145
C148	C	1.274473	-0.210894	0.508087
C149	C	1.607806	0.122439	0.841420
C150	C	1.941140	0.455773	1.174754
C151	C	1.274531	-0.140930	0.508118
C152	C	1.607864	0.192404	0.841452
C153	C	1.941198	0.525737	1.174785
C154	C	1.287824	-0.366219	0.274405
C155	C	1.621157	-0.032886	0.607738
C156	C	1.954490	0.300448	0.941072
C157	C	1.293745	-0.362279	0.174475
C158	C	1.627079	-0.028945	0.507809
C159	C	1.960412	0.304388	0.841142
C160	C	1.359373	-0.319165	1.036950
C161	C	1.692706	0.014169	1.370283
C162	C	2.026039	0.347502	1.703617
C163	C	1.353975	-0.322705	1.130853
C164	C	1.687309	0.010628	1.464186
C165	C	2.020642	0.343961	1.797519
C166	C	1.238907	-0.398313	1.124188
C167	C	1.572240	-0.064979	1.457521
C168	C	1.905573	0.268354	1.790855
C169	C	1.244304	-0.394772	1.030285
C170	C	1.577637	-0.061439	1.363618
C171	C	1.910971	0.271895	1.696952
C172	C	1.304540	-0.355197	0.986670
C173	C	1.637873	-0.021864	1.320003
C174	C	1.971207	0.311469	1.653336
C175	C	1.309941	-0.351661	0.892765
C176	C	1.643275	-0.018327	1.226099
C177	C	1.976608	0.315006	1.559432
C178	C	1.194869	-0.427264	0.886102
C179	C	1.528202	-0.093931	1.219435
C180	C	1.861535	0.239403	1.552769
C181	C	1.189471	-0.430805	0.980005
C182	C	1.522805	-0.097471	1.313338
C183	C	1.856138	0.235862	1.646671
H184	H	0.926052	-0.437559	0.592429
H185	H	1.259385	-0.104226	0.925763
H186	H	1.592718	0.229107	1.259096
H187	H	1.372716	-1.023839	0.618504
H188	H	1.706049	-0.690506	0.951837
H189	H	2.039383	-0.357172	1.285171
F190	F	0.950624	-0.273282	0.370466
F191	F	1.283957	0.060051	0.703799
F192	F	1.617291	0.393384	1.037133
F193	F	1.412335	-0.284354	1.184362
F194	F	1.745668	0.048980	1.517695
F195	F	2.079001	0.382313	1.851029
F196	F	1.386042	-0.615911	0.633611
F197	F	1.719375	-0.282578	0.966944
F198	F	2.052708	0.050756	1.300278
H199	H	0.611537	-0.466803	0.631959
H200	H	0.944871	-0.133469	0.965292
H201	H	1.278204	0.199864	1.298625
F202	F	1.386112	-0.751619	0.633644
F203	F	1.719445	-0.418286	0.966978
F204	F	2.052779	-0.084953	1.300311
H205	H	1.176081	-0.725686	0.397587
H206	H	1.509414	-0.392352	0.730921
H207	H	1.842748	-0.059019	1.064254
H208	H	1.358990	-0.319438	0.857255
H209	H	1.692323	0.013896	1.190588
H210	H	2.025657	0.347229	1.523922
F211	F	0.792807	-0.485175	0.656761
F212	F	1.126140	-0.151842	0.990094
F213	F	1.459474	0.181492	1.323428
H214	H	0.767680	-0.276158	0.374370
H215	H	1.101013	0.057175	0.707704
H216	H	1.434346	0.390508	1.041037
H217	H	1.140427	-0.463024	1.015529
H218	H	1.473761	-0.129690	1.348863
H219	H	1.807094	0.203643	1.682196
F220	F	1.162462	-0.597048	0.382336
F221	F	1.495795	-0.263715	0.715669
F222	F	1.829129	0.069619	1.049003
F223	F	0.612603	-0.301524	0.408662
F224	F	0.945936	0.031809	0.741995
F225	F	1.279270	0.365143	1.075329
F226	F	1.386302	-1.152469	0.633769
F227	F	1.719635	-0.819135	0.967103
F228	F	2.052969	-0.485802	1.300436
F229	F	1.162754	-1.133611	0.382472
F230	F	1.496087	-0.800278	0.715806
F231	F	1.829420	-0.466944	1.049139
F232	F	1.423488	-0.277054	0.990529
F233	F	1.756821	0.056280	1.323863
F234	F	2.090154	0.389613	1.657196
H235	H	1.176228	-1.007263	0.397656
H236	H	1.509562	-0.673930	0.730989
H237	H	1.842895	-0.340596	1.064323
H238	H	1.189865	-0.430532	1.159716
H239	H	1.523199	-0.097199	1.493050
H240	H	1.856532	0.236135	1.826383
F241	F	1.136516	-0.465621	0.832584
F242	F	1.469849	-0.132288	1.165917
F243	F	1.803182	0.201046	1.499250
