data_functionalizedCrystal
_audit_creation_method	'MofGen! by Chris Wilmer'
_symmetry_space_group_name_H-M	'P1'
_symmetry_Int_Tables_number	1
_symmetry_cell_setting	triclinic
loop_
_symmetry_equiv_pos_as_xyz
  x,y,z
_cell_length_a	25.639242
_cell_length_b	25.639239
_cell_length_c	11.169409
_cell_angle_alpha	90.039281
_cell_angle_beta	90.031940
_cell_angle_gamma	90.034213
loop_
_atom_site_label
_atom_site_type_symbol
_atom_site_fract_x
_atom_site_fract_y
_atom_site_fract_z
Zn1	Zn	0.799276	-0.208171	0.678873
Zn2	Zn	0.799184	-0.295621	0.478165
Zn3	Zn	0.711837	-0.208194	0.478165
Zn4	Zn	0.711797	-0.295570	0.678768
O5	O	0.755523	-0.251889	0.578492
O6	O	0.872429	-0.219782	0.652293
O7	O	0.787576	-0.284055	0.310215
O8	O	0.723491	-0.135026	0.504833
O9	O	0.872361	-0.284032	0.504834
O10	O	0.787732	-0.135009	0.652292
O11	O	0.723402	-0.219823	0.310215
O12	O	0.638666	-0.219774	0.504731
O13	O	0.723423	-0.283945	0.846731
O14	O	0.638637	-0.283968	0.652113
O15	O	0.787693	-0.219733	0.846809
O16	O	0.787537	-0.368779	0.504732
O17	O	0.723334	-0.368742	0.652114
C18	C	0.619681	-0.251868	0.578411
C19	C	0.561567	-0.251872	0.578405
C20	C	0.201197	-0.285371	0.655162
C21	C	0.146593	-0.285374	0.655181
O22	O	0.118351	-0.313831	0.720373
N23	N	0.119284	-0.251903	0.578571
C24	C	0.146583	-0.218424	0.501946
O25	O	0.118341	-0.189954	0.436786
C26	C	0.201186	-0.218418	0.501934
C27	C	0.228492	-0.251895	0.578540
C28	C	0.228503	-0.318845	0.731763
C29	C	0.283104	-0.318842	0.731742
C30	C	0.310398	-0.285366	0.655120
C31	C	0.283092	-0.251892	0.578519
C32	C	0.228484	-0.184936	0.425316
C33	C	0.283091	-0.184933	0.425311
C34	C	0.310396	-0.218410	0.501917
C35	C	0.364988	-0.218413	0.501876
N36	N	0.392296	-0.251884	0.578486
C37	C	0.365002	-0.285360	0.655108
C38	C	0.031912	-0.218437	0.501978
C39	C	-0.022690	-0.218445	0.501983
C40	C	-0.022676	-0.285395	0.655220
C41	C	0.031927	-0.285389	0.655208
C42	C	0.059221	-0.251908	0.578588
C43	C	0.479667	-0.285353	0.655058
C44	C	0.534272	-0.285348	0.655027
C45	C	0.534253	-0.218397	0.501795
C46	C	0.479653	-0.218402	0.501821
C47	C	0.452361	-0.251882	0.578462
O48	O	0.393265	-0.189970	0.436721
O49	O	0.393251	-0.313820	0.720268
C50	C	0.755435	-0.387732	0.578437
C51	C	0.755446	-0.445846	0.578454
C52	C	0.789041	-0.806216	0.501882
C53	C	0.789061	-0.860820	0.501898
O54	O	0.817534	-0.889062	0.436733
N55	N	0.755615	-0.888128	0.578572
C56	C	0.722150	-0.860829	0.655244
O57	O	0.693704	-0.889071	0.720464
C58	C	0.722133	-0.806226	0.655233
C59	C	0.755578	-0.778920	0.578545
C60	C	0.822483	-0.778910	0.425201
C61	C	0.822462	-0.724309	0.425184
C62	C	0.788999	-0.697014	0.501847
C63	C	0.755557	-0.724320	0.578528
C64	C	0.688672	-0.778928	0.731910
C65	C	0.688657	-0.724321	0.731893
C66	C	0.722102	-0.697016	0.655205
C67	C	0.722072	-0.642424	0.655174
N68	N	0.755518	-0.615116	0.578500
C69	C	0.788982	-0.642411	0.501836
C70	C	0.722190	-0.975500	0.655262
C71	C	0.722204	-1.030102	0.655268
C72	C	0.789116	-1.030089	0.501923
C73	C	0.789099	-0.975486	0.501912
C74	C	0.755636	-0.948192	0.578588
C75	C	0.788935	-0.527746	0.501805
C76	C	0.788909	-0.473141	0.501791
C77	C	0.721999	-0.473159	0.655140
C78	C	0.722023	-0.527759	0.655150
C79	C	0.755495	-0.555052	0.578478
O80	O	0.693616	-0.614147	0.720309
O81	O	0.817428	-0.614163	0.436638
C82	C	0.891896	-0.251910	0.578575
C83	C	0.950010	-0.251919	0.578610
C84	C	0.755564	-0.251831	0.891535
C85	C	0.755581	-0.251806	1.024935
C86	C	0.755626	-0.115516	0.578574
C87	C	0.755670	-0.057402	0.578609
C88	C	0.755513	-0.251909	0.266668
C89	C	0.755598	-0.251787	0.133268
H90	H	0.816143	-0.450910	0.439338
C91	C	0.313134	-0.355662	0.816026
C92	C	0.305586	-0.415095	0.806001
C93	C	0.335611	-0.451916	0.890296
C94	C	0.373184	-0.429303	0.984616
C95	C	0.380734	-0.369867	0.994644
C96	C	0.350709	-0.333047	0.910349
H97	H	0.277770	-0.431837	0.736177
H98	H	0.330022	-0.495914	0.882872
H99	H	0.395411	-0.456560	1.047016
H100	H	0.408550	-0.353125	1.064468
H101	H	0.356298	-0.289048	0.917773
H102	H	0.816192	-0.549961	0.439374
C103	C	0.198486	-0.355675	0.816051
C104	C	0.205972	-0.415105	0.805991
C105	C	0.175960	-0.451941	0.890279
C106	C	0.138461	-0.429348	0.984626
C107	C	0.130973	-0.369915	0.994690
C108	C	0.160986	-0.333078	0.910403
H109	H	0.233732	-0.431833	0.736146
H110	H	0.181503	-0.495938	0.882828
H111	H	0.116244	-0.456617	1.047021
H112	H	0.103213	-0.353187	1.064535
H113	H	0.155442	-0.289082	0.917854
C114	C	0.859254	-0.694276	0.340833
C115	C	0.900280	-0.656682	0.392926
C116	C	0.937074	-0.626651	0.308574
C117	C	0.932843	-0.634215	0.172128
C118	C	0.891816	-0.671811	0.120028
C119	C	0.855021	-0.701841	0.204381
H120	H	0.903414	-0.651081	0.493938
H121	H	0.967445	-0.598820	0.347143
H122	H	0.960080	-0.611985	0.109686
H123	H	0.888682	-0.677412	0.019017
H124	H	0.824650	-0.729672	0.165812
C125	C	-0.052707	-0.322217	0.739514
C126	C	-0.112769	-0.322216	0.739526
C127	C	-0.142801	-0.359037	0.823812
C128	C	-0.112772	-0.395859	0.908087
C129	C	-0.052707	-0.395861	0.908078
C130	C	-0.022674	-0.359040	0.823791
H131	H	-0.135001	-0.294958	0.677138
H132	H	-0.187265	-0.359035	0.823818
H133	H	-0.135003	-0.423116	0.970481
H134	H	-0.030474	-0.423120	0.970466
H135	H	0.021790	-0.359042	0.823785
C136	C	-0.052723	-0.181626	0.417701
C137	C	-0.022692	-0.144806	0.333419
C138	C	-0.052723	-0.107984	0.249137
C139	C	-0.112784	-0.107982	0.249137
C140	C	-0.142818	-0.144803	0.333422
C141	C	-0.112788	-0.181625	0.417704
H142	H	0.021772	-0.144807	0.333416
H143	H	-0.030489	-0.080727	0.186744
H144	H	-0.135014	-0.080725	0.186747
H145	H	-0.187283	-0.144803	0.333425
H146	H	-0.135022	-0.208882	0.480097
C147	C	0.198452	-0.148110	0.341054
C148	C	0.160875	-0.170714	0.246733
C149	C	0.130843	-0.133886	0.162468
C150	C	0.138388	-0.074454	0.172525
C151	C	0.175968	-0.051847	0.266850
C152	C	0.206000	-0.088675	0.351114
H153	H	0.155288	-0.214712	0.239285
H154	H	0.103024	-0.150622	0.092643
H155	H	0.116157	-0.047192	0.110148
H156	H	0.181555	-0.007849	0.274298
H157	H	0.233818	-0.071939	0.420940
H158	H	0.694936	-0.953280	0.717698
C159	C	0.313114	-0.148102	0.341025
C160	C	0.305638	-0.088671	0.351079
C161	C	0.335661	-0.051841	0.266794
C162	C	0.373159	-0.074443	0.172456
C163	C	0.380636	-0.133878	0.162399
C164	C	0.350614	-0.170707	0.246684
H165	H	0.277878	-0.071937	0.420916
H166	H	0.330125	-0.007844	0.274239
H167	H	0.395383	-0.047180	0.110064
H168	H	0.408396	-0.150612	0.092561
H169	H	0.356149	-0.214705	0.239238
C170	C	0.564287	-0.181572	0.417523
C171	C	0.601862	-0.140554	0.469719
C172	C	0.631899	-0.103726	0.385457
C173	C	0.624360	-0.107917	0.248998
C174	C	0.586783	-0.148937	0.196795
C175	C	0.556747	-0.185765	0.281057
H176	H	0.607444	-0.137450	0.570740
H177	H	0.659716	-0.073360	0.424102
H178	H	0.646595	-0.080654	0.186622
H179	H	0.581201	-0.152040	0.095774
H180	H	0.528930	-0.216130	0.242412
C181	C	0.685233	-0.557796	0.739507
C182	C	0.707887	-0.595272	0.833809
C183	C	0.671101	-0.625303	0.918181
C184	C	0.611662	-0.617858	0.908251
C185	C	0.589006	-0.580381	0.813945
C186	C	0.625791	-0.550350	0.729573
H187	H	0.751889	-0.600784	0.841164
H188	H	0.687873	-0.653046	0.987993
H189	H	0.584432	-0.640089	0.970708
H190	H	0.545003	-0.574869	0.806590
H191	H	0.609019	-0.522607	0.659761
C192	C	0.859296	-0.808928	0.340858
C193	C	0.855052	-0.801459	0.204412
C194	C	0.891864	-0.831472	0.120056
C195	C	0.932921	-0.868953	0.172146
C196	C	0.937167	-0.876423	0.308599
C197	C	0.900355	-0.846410	0.392955
H198	H	0.824658	-0.773712	0.165846
H199	H	0.888721	-0.825942	0.019044
H200	H	0.960172	-0.891170	0.109700
H201	H	0.967561	-0.904170	0.347165
H202	H	0.903498	-0.851940	0.493967
H203	H	0.816332	-0.953257	0.439467
C204	C	0.685410	-1.060135	0.739617
C205	C	0.648603	-1.030103	0.823940
C206	C	0.611811	-1.060133	0.908298
C207	C	0.611826	-1.120195	0.908333
C208	C	0.648634	-1.150229	0.824006
C209	C	0.685427	-1.120199	0.739648
H210	H	0.648591	-0.985639	0.823918
H211	H	0.584563	-1.037899	0.970722
H212	H	0.584590	-1.142425	0.970779
H213	H	0.648646	-1.194694	0.824029
H214	H	0.712675	-1.142433	0.677224
H215	H	0.816365	-1.052323	0.439504
C216	C	0.564308	-0.322173	0.739303
C217	C	0.556760	-0.381606	0.729269
C218	C	0.586793	-0.418429	0.813544
C219	C	0.624373	-0.395819	0.907853
C220	C	0.631922	-0.336383	0.917890
C221	C	0.601889	-0.299560	0.833615
H222	H	0.528940	-0.398346	0.659453
H223	H	0.581205	-0.462427	0.806113
H224	H	0.646605	-0.423077	0.970238
H225	H	0.659743	-0.319643	0.987707
H226	H	0.607478	-0.255562	0.841046
C227	C	0.651883	-0.808952	0.816279
C228	C	0.592446	-0.801494	0.806355
C229	C	0.555656	-0.831516	0.890734
C230	C	0.578303	-0.868995	0.985036
C231	C	0.637743	-0.876455	0.994964
C232	C	0.674533	-0.846433	0.910586
H233	H	0.575678	-0.773748	0.736543
H234	H	0.511654	-0.825994	0.883384
H235	H	0.551068	-0.891219	1.047498
H236	H	0.654510	-0.904201	1.064776
H237	H	0.718535	-0.851955	0.917936
H238	H	0.457452	-0.312614	0.717469
H239	H	0.661409	-0.702101	0.794336
H240	H	0.054131	-0.191173	0.439576
H241	H	0.054156	-0.312648	0.717589
H242	H	0.457419	-0.191144	0.439439
H243	H	0.694752	-0.450927	0.717555
