data_functionalizedCrystal
_audit_creation_method	'MofGen! by Chris Wilmer'
_symmetry_space_group_name_H-M	'P1'
_symmetry_Int_Tables_number	1
_symmetry_cell_setting	triclinic
loop_
_symmetry_equiv_pos_as_xyz
  x,y,z
_cell_length_a	16.956995
_cell_length_b	14.044190
_cell_length_c	15.455313
_cell_angle_alpha	92.904485
_cell_angle_beta	87.515363
_cell_angle_gamma	84.623124
loop_
_atom_site_label
_atom_site_type_symbol
_atom_site_fract_x
_atom_site_fract_y
_atom_site_fract_z
O1	O	1.064002	0.034668	-0.072194
O2	O	0.834199	0.067761	-0.072185
O3	O	0.945647	-0.086499	-0.072172
O4	O	0.952553	0.188928	-0.072207
O5	O	0.939272	-0.077712	0.072089
O6	O	0.827823	0.076548	0.072076
O7	O	1.057626	0.043455	0.072068
Cu8	Cu	0.942143	0.060804	0.085244
Cu9	Cu	0.949682	0.050412	-0.085362
O10	O	0.946178	0.197715	0.072055
C11	C	0.801423	0.073849	-0.000053
C12	C	0.713261	0.078886	-0.000049
C13	C	0.939439	-0.117183	-0.000039
C14	C	0.930429	-0.221703	-0.000031
C15	C	0.216644	0.116569	-0.000086
C16	C	0.299482	0.111829	-0.000085
C17	C	0.344238	0.022848	-0.000067
C18	C	0.306153	-0.061399	-0.000060
C19	C	0.223317	-0.056658	-0.000067
C20	C	0.592340	-0.000619	-0.000049
C21	C	0.675181	-0.005353	-0.000039
C22	C	0.668505	0.167874	-0.000066
C23	C	0.585667	0.172608	-0.000068
C24	C	0.547589	0.088361	-0.000065
N25	N	0.428912	0.018000	-0.000063
N26	N	0.462917	0.093209	-0.000075
C27	C	0.977858	-0.475707	-0.000067
C28	C	0.913971	-0.413072	-0.000058
C29	C	0.923130	-0.306585	-0.000043
C30	C	0.968700	-0.582205	-0.000082
C31	C	1.090402	0.037367	-0.000066
C32	C	1.178564	0.032329	-0.000076
C33	C	0.952386	0.228399	-0.000080
C34	C	0.961397	0.332918	-0.000094
N35	N	0.936845	0.068112	0.205239
N36	N	0.954986	0.043096	-0.205356
C37	C	0.984212	0.002598	0.250639
C38	C	0.980214	0.008133	0.341446
C39	C	0.928852	0.079187	0.386852
C40	C	0.881480	0.144703	0.341446
C41	C	0.885475	0.139164	0.250641
C42	C	0.911608	0.103073	0.658432
C43	C	0.907619	0.108610	0.749244
C44	C	1.006352	-0.027962	0.749237
C45	C	1.010345	-0.033492	0.658430
C46	C	0.962970	0.032021	0.613032
N47	N	0.924766	0.084848	0.479672
N48	N	0.967053	0.026355	0.520214
H49	H	0.180208	0.189027	-0.000094
C50	C	0.724413	-0.103244	-0.000026
N51	N	0.761493	-0.176972	-0.000018
H52	H	0.549232	0.245065	-0.000085
C53	C	0.851112	0.186775	0.799189
N54	N	0.808554	0.245646	0.836807
H55	H	0.192314	-0.125255	-0.000060
H56	H	0.330483	0.180425	-0.000101
H57	H	1.044921	-0.081301	0.786209
C58	C	0.859605	0.175255	0.608506
N59	N	0.820474	0.229667	0.570898
H60	H	0.699517	0.236463	-0.000069
H61	H	0.852397	-0.439424	-0.000061
H62	H	1.039427	-0.449357	-0.000060
H63	H	1.026039	-0.055257	0.213675
C64	C	0.550464	-0.093292	-0.000024
N65	N	0.518921	-0.163098	0.000002
C66	C	1.032301	-0.063959	0.391382
N67	N	1.071527	-0.118270	0.428993
H68	H	0.342600	-0.133849	-0.000050
C69	C	1.066842	-0.111661	0.608490
N70	N	1.109397	-0.170539	0.570875
H71	H	0.839656	0.202554	0.378421
C72	C	0.833374	0.211241	0.200702
N73	N	0.794131	0.265533	0.163089
