data_functionalizedCrystal
_audit_creation_method	'MofGen! by Chris Wilmer'
_symmetry_space_group_name_H-M	'P1'
_symmetry_Int_Tables_number	1
_symmetry_cell_setting	triclinic
loop_
_symmetry_equiv_pos_as_xyz
  x,y,z
_cell_length_a	12.759401
_cell_length_b	19.121063
_cell_length_c	12.759393
_cell_angle_alpha	92.402864
_cell_angle_beta	89.981504
_cell_angle_gamma	92.469135
loop_
_atom_site_label
_atom_site_type_symbol
_atom_site_fract_x
_atom_site_fract_y
_atom_site_fract_z
Zn1	Zn	1.588321	-0.279566	-0.611772
Zn2	Zn	1.580680	-0.397035	-0.443568
Zn3	Zn	1.412621	-0.279603	-0.436114
Zn4	Zn	1.405080	-0.396981	-0.619205
O5	O	1.496675	-0.338296	-0.527665
O6	O	1.734328	-0.295155	-0.589468
O7	O	1.558345	-0.381495	-0.295560
O8	O	1.442282	-0.181314	-0.453185
O9	O	1.728714	-0.381459	-0.465889
O10	O	1.571368	-0.181287	-0.582241
O11	O	1.434872	-0.295219	-0.290084
O12	O	1.264600	-0.295166	-0.460393
O13	O	1.429429	-0.381367	-0.765238
O14	O	1.259059	-0.381403	-0.594909
O15	O	1.564055	-0.295103	-0.759777
O16	O	1.551032	-0.495312	-0.473096
O17	O	1.422019	-0.495272	-0.602137
C18	C	1.223709	-0.338283	-0.527650
C19	C	1.106931	-0.338295	-0.527669
C20	C	0.939476	-0.383278	-0.597618
C21	C	1.049200	-0.383270	-0.597607
C22	C	1.054932	-0.293330	-0.457731
C23	C	0.945209	-0.293342	-0.457738
C24	C	1.484907	-0.520776	-0.539255
C25	C	1.479968	-0.598841	-0.544248
C26	C	1.544871	-0.635514	-0.479465
C27	C	1.540232	-0.708865	-0.484168
C28	C	1.470686	-0.745542	-0.553648
C29	C	1.405781	-0.708864	-0.618438
C30	C	1.410425	-0.635514	-0.613741
C31	C	1.453304	-0.967010	-0.571196
C32	C	1.448663	-1.040365	-0.575887
C33	C	1.583116	-1.040361	-0.441617
C34	C	1.587750	-0.967010	-0.436921
C35	C	1.522849	-0.930339	-0.501715
C36	C	1.465941	-0.820518	-0.558454
C37	C	1.527600	-0.855364	-0.496913
C38	C	1.770708	-0.338309	-0.527681
C39	C	1.887484	-0.338315	-0.527688
C40	C	1.496753	-0.338225	-0.801694
C41	C	1.496786	-0.338195	-0.918469
C42	C	1.508518	-0.155104	-0.516053
C43	C	1.513565	-0.077038	-0.511104
C44	C	1.432519	-0.293262	-0.970478
C45	C	1.432545	-0.293241	-1.080201
C46	C	1.561114	-0.383086	-1.085895
C47	C	1.561082	-0.383110	-0.976174
C48	C	1.496661	-0.338316	-0.254699
C49	C	1.496844	-0.338148	-0.137912
H50	H	0.902877	-0.256727	-0.400787
H51	H	1.380165	-0.256689	-0.923497
H52	H	0.892479	-0.419897	-0.654575
H53	H	1.601498	-0.605657	-0.422882
C54	C	1.611632	-0.749201	-0.412906
C55	C	1.603758	-0.739187	-0.292820
C56	C	1.675167	-0.779521	-0.221558
C57	C	1.754451	-0.829867	-0.270380
C58	C	1.762329	-0.839883	-0.390471
C59	C	1.690919	-0.799549	-0.461734
H60	H	1.545065	-0.701916	-0.256674
H61	H	1.669335	-0.772106	-0.132658
H62	H	1.807313	-0.859724	-0.217627
H63	H	1.821022	-0.877154	-0.426618
H64	H	1.696751	-0.806964	-0.550634
H65	H	1.380211	-0.256653	-1.122542
H66	H	1.400458	-0.937158	-0.623952
H67	H	1.409313	-0.850389	-0.615024
H68	H	1.357576	-0.605656	-0.666495
H69	H	1.613463	-0.419654	-1.132892
H70	H	1.091527	-0.419884	-0.654550
C71	C	1.631786	-0.432539	-0.918960
C72	C	1.751597	-0.426810	-0.933687
C73	C	1.822296	-0.476238	-0.876474
C74	C	1.773183	-0.531394	-0.804535
C75	C	1.653366	-0.537126	-0.789805
C76	C	1.582668	-0.487698	-0.847018
H77	H	1.787959	-0.385977	-0.986943
H78	H	1.910992	-0.471994	-0.887379
H79	H	1.825518	-0.567984	-0.762183
H80	H	1.617004	-0.577958	-0.736549
H81	H	1.493971	-0.491941	-0.836113
C82	C	1.118437	-0.243857	-0.380801
C83	C	1.197425	-0.188744	-0.422967
C84	C	1.260930	-0.139267	-0.346040
C85	C	1.245447	-0.144903	-0.226947
C86	C	1.166456	-0.200018	-0.184775
C87	C	1.102951	-0.249495	-0.261702
H88	H	1.208889	-0.184569	-0.511132
H89	H	1.319404	-0.098467	-0.377259
H90	H	1.292458	-0.108278	-0.170000
H91	H	1.154992	-0.204193	-0.096610
H92	H	1.044477	-0.290295	-0.230483
C93	C	1.654512	-1.080701	-0.370356
C94	C	1.649414	-1.161382	-0.375519
C95	C	1.720818	-1.201721	-0.304258
C96	C	1.797319	-1.161378	-0.227834
C97	C	1.802420	-1.080692	-0.222667
C98	C	1.731017	-1.040353	-0.293929
H99	H	1.592781	-1.191250	-0.432096
H100	H	1.717041	-1.261451	-0.308083
H101	H	1.850176	-1.191240	-0.175082
H102	H	1.859054	-1.050824	-0.166091
H103	H	1.734794	-0.980624	-0.290104
H104	H	1.392042	-1.070226	-0.632485
C105	C	1.329279	-0.749208	-0.694868
C106	C	1.210482	-0.739192	-0.685553
C107	C	1.133976	-0.779535	-0.761982
C108	C	1.176268	-0.829894	-0.847726
C109	C	1.295071	-0.839913	-0.857045
C110	C	1.371577	-0.799570	-0.780616
H111	H	1.179170	-0.701911	-0.622077
H112	H	1.046030	-0.772118	-0.755083
H113	H	1.119634	-0.859759	-0.904303
H114	H	1.326383	-0.877194	-0.920521
H115	H	1.459523	-0.806986	-0.787515
H116	H	1.584229	-0.825499	-0.440346
H117	H	1.644380	-0.937149	-0.380344
