data_functionalizedCrystal
_audit_creation_method	'MofGen! by Chris Wilmer'
_symmetry_space_group_name_H-M	'P1'
_symmetry_Int_Tables_number	1
_symmetry_cell_setting	triclinic
loop_
_symmetry_equiv_pos_as_xyz
  x,y,z
_cell_length_a	17.019284
_cell_length_b	14.971482
_cell_length_c	13.448316
_cell_angle_alpha	89.993798
_cell_angle_beta	86.124009
_cell_angle_gamma	96.498789
loop_
_atom_site_label
_atom_site_type_symbol
_atom_site_fract_x
_atom_site_fract_y
_atom_site_fract_z
O1	O	-0.102786	1.186688	-0.073871
O2	O	-0.115100	0.926256	-0.072821
O3	O	0.005882	1.063743	-0.083179
O4	O	-0.223769	1.049201	-0.063513
O5	O	0.005890	1.063726	0.082204
O6	O	-0.115093	0.926239	0.092563
O7	O	-0.102779	1.186671	0.091512
Cu8	Cu	-0.108935	1.056454	0.107138
Cu9	Cu	-0.108944	1.056474	-0.088447
O10	O	-0.223761	1.049184	0.101870
C11	C	-0.114546	0.892924	0.009823
C12	C	-0.112897	0.793631	0.009680
C13	C	-0.112117	0.746979	0.099765
C14	C	-0.110555	0.653685	0.099633
C15	C	-0.109780	0.607043	0.009414
C16	C	-0.110558	0.653702	-0.080678
C17	C	-0.112114	0.746996	-0.080545
C18	C	-0.107317	0.459248	-0.080949
C19	C	-0.105762	0.365948	-0.081082
C20	C	-0.105758	0.365937	0.099228
C21	C	-0.107314	0.459231	0.099361
C22	C	-0.108094	0.505883	0.009269
C23	C	-0.253155	1.049742	0.021695
C24	C	-0.340726	1.051390	0.029194
C25	C	-0.381869	1.052175	-0.057434
C26	C	-0.464151	1.053735	-0.050387
C27	C	-0.505289	1.054504	0.043288
C28	C	-0.464140	1.053722	0.129922
C29	C	-0.381859	1.052169	0.122875
C30	C	-0.753723	1.059201	0.069076
C31	C	-0.836010	1.060752	0.076116
C32	C	-0.836014	1.060767	-0.104194
C33	C	-0.753733	1.059208	-0.111233
C34	C	-0.712591	1.058431	-0.024599
C35	C	-0.589394	1.056096	0.050492
C36	C	-0.628486	1.056845	-0.031804
C37	C	0.035276	1.063185	-0.003006
C38	C	0.122847	1.061537	-0.010512
C39	C	-0.103333	1.220003	0.008866
C40	C	-0.104981	1.319296	0.009003
N41	N	-0.108928	1.056446	0.244702
N42	N	-0.108944	1.056489	-0.226011
C43	C	-0.055379	1.117344	0.292158
C44	C	-0.055379	1.117349	0.396261
C45	C	-0.108931	1.056460	0.452907
C46	C	-0.162483	0.995556	0.405444
C47	C	-0.162479	0.995547	0.301342
C48	C	-0.162488	0.995581	0.622425
C49	C	-0.162493	0.995591	0.726533
C50	C	-0.055388	1.117383	0.717343
C51	C	-0.055384	1.117374	0.613241
C52	C	-0.108937	1.056471	0.565786
H53	H	-0.112751	0.784978	-0.153901
H54	H	-0.869521	1.061400	-0.174727
O55	O	0.002368	1.183051	0.447438
H56	H	0.063884	1.171759	0.422193
H57	H	-0.869506	1.061352	0.152402
H58	H	-0.622898	1.056721	0.126763
H59	H	-0.720235	1.058570	0.139620
H60	H	-0.109906	0.615707	0.172988
O61	O	0.002384	1.183014	0.231061
H62	H	0.039626	1.225354	0.281554
O63	O	-0.709349	1.058369	-0.212260
H64	H	-0.678851	0.996717	-0.219158
H65	H	-0.348381	1.051540	-0.133714
O66	O	-0.220235	0.929902	0.787635
H67	H	-0.257461	0.887536	0.737149
O68	O	-0.508505	1.054554	0.230962
H69	H	-0.572633	1.055757	0.221311
H70	H	-0.348362	1.051529	0.193417
O71	O	-0.220252	0.929887	0.466534
H72	H	-0.186991	0.886469	0.511142
O73	O	-0.220239	0.929869	0.250150
H74	H	-0.257484	0.887536	0.307027
O75	O	0.002377	1.183042	0.552138
H76	H	0.039621	1.225387	0.602623
H77	H	-0.011783	1.166973	0.755987
O78	O	-0.112963	0.797284	0.197073
H79	H	-0.112154	0.749166	0.259692
O80	O	-0.508523	1.054565	-0.143827
H81	H	-0.485750	1.115196	-0.189020
H82	H	-0.594987	1.056223	-0.108074
O83	O	-0.108164	0.509527	0.196675
H84	H	-0.055155	0.560088	0.196459
H85	H	-0.206094	0.945983	0.583790
H86	H	-0.105123	0.327949	0.172585
H87	H	-0.107952	0.497230	-0.154312
O88	O	-0.104917	0.315639	-0.178387
H89	H	-0.158935	0.325505	-0.217004
O90	O	-0.109718	0.603407	-0.177992
H91	H	-0.162737	0.552862	-0.177775
