data_functionalizedCrystal
_audit_creation_method	'MofGen! by Chris Wilmer'
_symmetry_space_group_name_H-M	'P1'
_symmetry_Int_Tables_number	1
_symmetry_cell_setting	triclinic
loop_
_symmetry_equiv_pos_as_xyz
  x,y,z
_cell_length_a	10.489741
_cell_length_b	14.519731
_cell_length_c	12.996460
_cell_angle_alpha	89.994327
_cell_angle_beta	90.002579
_cell_angle_gamma	95.885987
loop_
_atom_site_label
_atom_site_type_symbol
_atom_site_fract_x
_atom_site_fract_y
_atom_site_fract_z
O1	O	-0.167333	1.224768	-0.085561
O2	O	0.332667	1.724768	0.414439
O3	O	-0.186995	0.956401	-0.085561
O4	O	0.313005	1.456401	0.414439
O5	O	0.008497	1.096691	-0.085563
O6	O	0.508497	1.596691	0.414437
O7	O	-0.362825	1.084478	-0.085559
O8	O	0.137175	1.584478	0.414441
O9	O	0.008508	1.096677	0.085570
O10	O	0.508508	1.596677	0.585570
O11	O	-0.186984	0.956386	0.085572
O12	O	0.313016	1.456386	0.585572
O13	O	-0.167322	1.224754	0.085573
O14	O	0.332678	1.724754	0.585573
Cu15	Cu	-0.177152	1.090569	0.101199
Cu16	Cu	0.322848	1.590569	0.601199
Cu17	Cu	-0.177165	1.090586	-0.101187
Cu18	Cu	0.322835	1.590586	0.398813
O19	O	-0.362814	1.084463	0.085575
O20	O	0.137186	1.584463	0.585575
C21	C	-0.186068	0.922029	0.000005
C22	C	0.313932	1.422029	0.500005
C23	C	-0.183308	0.819634	0.000005
C24	C	0.316692	1.319634	0.500005
C25	C	-0.181064	0.736478	0.000001
C26	C	0.318936	1.236478	0.500001
C27	C	-0.178261	0.632154	0.000000
C28	C	0.321739	1.132154	0.500000
C29	C	-0.176037	0.549003	0.000000
C30	C	0.323963	1.049003	0.500000
C31	C	-0.173234	0.444672	-0.000002
C32	C	0.326766	0.944672	0.499998
C33	C	-0.410342	1.085393	0.000009
C34	C	0.089658	1.585393	0.500009
C35	C	-0.551943	1.088153	0.000010
C36	C	-0.051943	1.588153	0.500010
C37	C	-0.619162	1.177416	0.000003
C38	C	-0.119162	1.677416	0.500003
C39	C	-0.711712	1.135241	0.084380
C40	C	-0.211712	1.635241	0.584380
C41	C	-0.711701	1.135235	-0.084345
C42	C	-0.211701	1.635235	0.415655
C43	C	-0.642628	1.045942	0.084457
C44	C	-0.142628	1.545942	0.584457
C45	C	-0.642607	1.045948	-0.084343
C46	C	-0.142607	1.545948	0.415657
C47	C	-0.735131	1.003709	0.000054
C48	C	-0.235131	1.503709	0.500054
C49	C	0.056024	1.095762	0.000001
C50	C	0.556024	1.595762	0.500001
C51	C	0.197625	1.093002	-0.000008
C52	C	0.697625	1.593002	0.499992
C53	C	-0.168249	1.259125	0.000004
C54	C	0.331751	1.759125	0.500004
C55	C	-0.171010	1.361521	-0.000002
C56	C	0.328990	1.861521	0.499998
N57	N	-0.177142	1.090563	0.243546
N58	N	0.322858	1.590563	0.743546
N59	N	-0.177165	1.090599	-0.243534
N60	N	0.322835	1.590599	0.256466
C61	C	-0.177166	1.090585	0.663360
C62	C	0.322834	1.590585	1.163360
C63	C	-0.177164	1.090576	0.546555
C64	C	0.322836	1.590576	1.046555
C65	C	-0.177155	1.090574	0.453457
C66	C	0.322845	1.590574	0.953457
C67	C	-0.177151	1.090565	0.336644
C68	C	0.322849	1.590565	0.836644
H69	H	-0.742328	1.173004	0.155715
H70	H	-0.242328	1.673004	0.655715
C71	C	-0.601780	0.995681	0.179644
C72	C	-0.101780	1.495681	0.679644
C73	C	-0.468614	0.993732	0.178575
C74	C	0.031386	1.493732	0.678575
C75	C	-0.430935	0.947451	0.266249
C76	C	0.069065	1.447451	0.766249
H77	H	-0.642404	0.934127	0.179971
H78	H	-0.142404	1.434127	0.679971
H79	H	-0.625910	1.027179	0.239520
H80	H	-0.125910	1.527179	0.739520
H81	H	-0.444497	0.962233	0.118715
H82	H	0.055503	1.462233	0.618715
H83	H	-0.427958	1.055273	0.178263
H84	H	0.072042	1.555273	0.678263
H85	H	-0.455065	0.978949	0.326124
H86	H	0.044935	1.478949	0.826124
H87	H	-0.471567	0.885900	0.266568
H88	H	0.028433	1.385900	0.766568
H89	H	-0.340578	0.946130	0.265540
H90	H	0.159422	1.446130	0.765540
H91	H	-0.785313	0.930252	0.000100
H92	H	-0.285313	1.430252	0.500100
C93	C	-0.752749	1.185629	-0.179373
C94	C	-0.252749	1.685629	0.320627
C95	C	-0.886038	1.186844	-0.178581
C96	C	-0.386038	1.686844	0.321419
C97	C	-0.923891	1.233276	-0.266090
C98	C	-0.423891	1.733276	0.233910
H99	H	-0.728061	1.154582	-0.239369
H100	H	-0.228061	1.654582	0.260631
H101	H	-0.712712	1.247362	-0.179266
H102	H	-0.212712	1.747362	0.320734
H103	H	-0.926062	1.125122	-0.178698
H104	H	-0.426062	1.625122	0.321302
H105	H	-0.910760	1.217897	-0.118605
H106	H	-0.410760	1.717897	0.381395
H107	H	-0.883853	1.295009	-0.265983
H108	H	-0.383853	1.795009	0.234017
H109	H	-0.899194	1.202225	-0.326079
H110	H	-0.399194	1.702225	0.173921
H111	H	-1.014329	1.234114	-0.265559
H112	H	-0.514329	1.734114	0.234441
C113	C	-0.601974	0.995650	-0.179553
C114	C	-0.101974	1.495650	0.320447
C115	C	-0.710085	0.967650	-0.239330
C116	C	-0.210085	1.467650	0.260670
C117	C	-0.672698	0.921332	-0.327059
C118	C	-0.172698	1.421332	0.172941
H119	H	-0.561593	0.942842	-0.159432
H120	H	-0.061593	1.442842	0.340568
H121	H	-0.543669	1.036043	-0.218648
H122	H	-0.043669	1.536043	0.281352
H123	H	-0.768369	0.927259	-0.200242
H124	H	-0.268369	1.427259	0.299758
H125	H	-0.750479	1.020441	-0.259477
H126	H	-0.250479	1.520441	0.240523
H127	H	-0.614392	0.961725	-0.366154
H128	H	-0.114392	1.461725	0.133846
H129	H	-0.632316	0.868528	-0.306929
H130	H	-0.132316	1.368528	0.193071
H131	H	-0.746042	0.902336	-0.367634
H132	H	-0.246042	1.402336	0.132366
C133	C	-0.552004	1.275290	0.000323
C134	C	-0.052004	1.775290	0.500323
C135	C	-0.586808	1.321590	0.088878
C136	C	-0.086808	1.821590	0.588878
C137	C	-0.524953	1.411746	0.089220
C138	C	-0.024953	1.911746	0.589220
H139	H	-0.576592	1.307440	-0.058942
H140	H	-0.076592	1.807440	0.441058
H141	H	-0.461838	1.272887	-0.000233
H142	H	0.038162	1.772887	0.499767
H143	H	-0.676954	1.323997	0.089424
H144	H	-0.176954	1.823997	0.589424
H145	H	-0.562218	1.289469	0.148158
H146	H	-0.062218	1.789469	0.648158
H147	H	-0.434787	1.409343	0.088665
H148	H	0.065213	1.909343	0.588665
H149	H	-0.549545	1.443886	0.029951
H150	H	-0.049545	1.943886	0.529951
H151	H	-0.548549	1.443169	0.149308
H152	H	-0.048549	1.943169	0.649308
