data_functionalizedCrystal
_audit_creation_method	'MofGen! by Chris Wilmer'
_symmetry_space_group_name_H-M	'P1'
_symmetry_Int_Tables_number	1
_symmetry_cell_setting	triclinic
loop_
_symmetry_equiv_pos_as_xyz
  x,y,z
_cell_length_a	25.639239
_cell_length_b	25.639242
_cell_length_c	25.639233
_cell_angle_alpha	89.977834
_cell_angle_beta	90.018747
_cell_angle_gamma	89.965787
loop_
_atom_site_label
_atom_site_type_symbol
_atom_site_fract_x
_atom_site_fract_y
_atom_site_fract_z
Zn1	Zn	-0.208277	-0.799225	0.295742
Zn2	Zn	0.291723	-0.299225	0.795742
Zn3	Zn	-0.295696	-0.799149	0.208307
Zn4	Zn	0.204304	-0.299149	0.708307
Zn5	Zn	-0.208269	-0.711801	0.208306
Zn6	Zn	0.291731	-0.211801	0.708306
Zn7	Zn	-0.295676	-0.711746	0.295696
Zn8	Zn	0.204324	-0.211746	0.795696
O9	O	-0.251979	-0.755480	0.252013
O10	O	0.248021	-0.255480	0.752013
O11	O	-0.219884	-0.872380	0.284163
O12	O	0.280116	-0.372380	0.784163
O13	O	-0.284103	-0.787553	0.135141
O14	O	0.215897	-0.287553	0.635141
O15	O	-0.135105	-0.723453	0.219924
O16	O	0.364895	-0.223453	0.719924
O17	O	-0.284111	-0.872324	0.219924
O18	O	0.215889	-0.372324	0.719924
O19	O	-0.135111	-0.787683	0.284163
O20	O	0.364889	-0.287683	0.784163
O21	O	-0.219871	-0.723379	0.135141
O22	O	0.280129	-0.223379	0.635141
O23	O	-0.219853	-0.638629	0.219880
O24	O	0.280147	-0.138629	0.719880
O25	O	-0.284078	-0.723360	0.368868
O26	O	0.215922	-0.223360	0.868868
O27	O	-0.284070	-0.638589	0.284085
O28	O	0.215930	-0.138589	0.784085
O29	O	-0.219866	-0.787630	0.368901
O30	O	0.280134	-0.287630	0.868901
O31	O	-0.368858	-0.787499	0.219880
O32	O	0.131142	-0.287499	0.719880
O33	O	-0.368844	-0.723286	0.284085
O34	O	0.131156	-0.223286	0.784085
C35	C	-0.387822	-0.755392	0.251989
C36	C	0.112178	-0.255392	0.751989
C37	C	-0.445936	-0.755403	0.251996
C38	C	0.054064	-0.255403	0.751996
C39	C	-0.251959	-0.619638	0.251977
C40	C	0.248041	-0.119638	0.751977
C41	C	-0.251963	-0.561524	0.251975
C42	C	0.248037	-0.061524	0.751975
C43	C	-0.806294	-0.789004	0.218638
C44	C	-0.306294	-0.289004	0.718638
C45	C	-0.860898	-0.789024	0.218645
C46	C	-0.360898	-0.289024	0.718645
O47	O	-0.889131	-0.817502	0.190257
O48	O	-0.389131	-0.317502	0.690257
N49	N	-0.888218	-0.755572	0.252048
N50	N	-0.388218	-0.255572	0.752048
C51	C	-0.860932	-0.722102	0.285449
C52	C	-0.360932	-0.222102	0.785449
O53	O	-0.889184	-0.693651	0.313861
O54	O	-0.389184	-0.193651	0.813861
C55	C	-0.806328	-0.722085	0.285444
C56	C	-0.306328	-0.222085	0.785444
C57	C	-0.779011	-0.755535	0.252036
C58	C	-0.279011	-0.255535	0.752036
C59	C	-0.778976	-0.822452	0.185233
C60	C	-0.278976	-0.322452	0.685233
C61	C	-0.724376	-0.822431	0.185226
C62	C	-0.224376	-0.322431	0.685226
C63	C	-0.697093	-0.788962	0.218623
C64	C	-0.197093	-0.288962	0.718623
C65	C	-0.724410	-0.755514	0.252028
C66	C	-0.224410	-0.255514	0.752028
C67	C	-0.779042	-0.688617	0.318847
C68	C	-0.279042	-0.188617	0.818847
C69	C	-0.724435	-0.688603	0.318840
C70	C	-0.224435	-0.188603	0.818840
C71	C	-0.697118	-0.722053	0.285432
C72	C	-0.197118	-0.222053	0.785432
C73	C	-0.642527	-0.722024	0.285418
C74	C	-0.142527	-0.222024	0.785418
N75	N	-0.615206	-0.755475	0.252016
N76	N	-0.115206	-0.255475	0.752016
C77	C	-0.642490	-0.788944	0.218618
C78	C	-0.142490	-0.288944	0.718618
C79	C	-0.975602	-0.722141	0.285457
C80	C	-0.475602	-0.222141	0.785457
C81	C	-1.030204	-0.722155	0.285459
C82	C	-0.530204	-0.222155	0.785459
C83	C	-1.030167	-0.789078	0.218656
C84	C	-0.530167	-0.289078	0.718656
C85	C	-0.975564	-0.789061	0.218652
C86	C	-0.475564	-0.289061	0.718652
C87	C	-0.948282	-0.755593	0.252055
C88	C	-0.448282	-0.255593	0.752055
C89	C	-0.527824	-0.788897	0.218605
C90	C	-0.027824	-0.288897	0.718605
C91	C	-0.473219	-0.788872	0.218599
C92	C	0.026781	-0.288872	0.718599
C93	C	-0.473261	-0.721951	0.285403
C94	C	0.026739	-0.221951	0.785403
C95	C	-0.527862	-0.721974	0.285408
C96	C	-0.027862	-0.221974	0.785408
C97	C	-0.555142	-0.755452	0.252007
C98	C	-0.055142	-0.255452	0.752007
O99	O	-0.614260	-0.693562	0.313793
O100	O	-0.114260	-0.193562	0.813793
O101	O	-0.614231	-0.817396	0.190216
O102	O	-0.114231	-0.317396	0.690216
C103	C	-0.251970	-0.755497	0.388386
C104	C	0.248030	-0.255497	0.888386
C105	C	-0.251966	-0.755504	0.446500
C106	C	0.248034	-0.255504	0.946500
C107	C	-0.115606	-0.755583	0.252048
C108	C	0.384394	-0.255583	0.752048
C109	C	-0.057492	-0.755627	0.252064
C110	C	0.442508	-0.255627	0.752064
C111	C	-0.252000	-0.891853	0.252049
C112	C	0.248000	-0.391853	0.752049
C113	C	-0.252009	-0.949967	0.252064
C114	C	0.247991	-0.449967	0.752064
C115	C	-0.285473	-0.201149	0.285413
C116	C	0.214527	0.298851	0.785413
C117	C	-0.285477	-0.146544	0.285421
C118	C	0.214523	0.353456	0.785421
O119	O	-0.313943	-0.118297	0.313821
O120	O	0.186057	0.381703	0.813821
N121	N	-0.251994	-0.119241	0.252047
N122	N	0.248006	0.380759	0.752047
C123	C	-0.218502	-0.146545	0.218666
C124	C	0.281498	0.353455	0.718666
O125	O	-0.190022	-0.118308	0.190280
O126	O	0.309978	0.381692	0.690280
C127	C	-0.218496	-0.201149	0.218661
C128	C	0.281504	0.298851	0.718661
C129	C	-0.251985	-0.228449	0.252034
C130	C	0.248015	0.271551	0.752034
C131	C	-0.318959	-0.228449	0.318783
C132	C	0.181041	0.271551	0.818783
C133	C	-0.318956	-0.283049	0.318774
C134	C	0.181044	0.216951	0.818774
C135	C	-0.285468	-0.310350	0.285395
C136	C	0.214532	0.189650	0.785395
C137	C	-0.251983	-0.283049	0.252024
C138	C	0.248017	0.216951	0.752024
C139	C	-0.185002	-0.228452	0.185283
C140	C	0.314998	0.271548	0.685283
C141	C	-0.185000	-0.283059	0.185281
C142	C	0.315000	0.216941	0.685281
C143	C	-0.218488	-0.310359	0.218654
C144	C	0.281512	0.189641	0.718654
C145	C	-0.218492	-0.364950	0.218636
C146	C	0.281508	0.135050	0.718636
N147	N	-0.251974	-0.392253	0.252010
N148	N	0.248026	0.107747	0.752010
C149	C	-0.285463	-0.364953	0.285389
C150	C	0.214537	0.135047	0.785389
C151	C	-0.218515	-0.031875	0.218680
C152	C	0.281485	0.468125	0.718680
C153	C	-0.218523	0.022728	0.218683
C154	C	0.281477	0.522728	0.718683
C155	C	-0.285497	0.022725	0.285438
C156	C	0.214503	0.522725	0.785438
C157	C	-0.285492	-0.031878	0.285433
C158	C	0.214508	0.468122	0.785433
C159	C	-0.251998	-0.059178	0.252054
C160	C	0.248002	0.440822	0.752054
C161	C	-0.285455	-0.479618	0.285368
C162	C	0.214545	0.020382	0.785368
C163	C	-0.285451	-0.534223	0.285354
C164	C	0.214549	-0.034223	0.785354
C165	C	-0.218475	-0.534216	0.218601
C166	C	0.281525	-0.034216	0.718601
C167	C	-0.218481	-0.479615	0.218612
C168	C	0.281519	0.020385	0.718612
C169	C	-0.251972	-0.452318	0.252000
C170	C	0.248028	0.047682	0.752000
O171	O	-0.190038	-0.393232	0.190252
O172	O	0.309962	0.106768	0.690252
O173	O	-0.313933	-0.393197	0.313776
O174	O	0.186067	0.106803	0.813776
C175	C	-0.251951	-0.755494	0.116170
C176	C	0.248049	-0.255494	0.616170
C177	C	-0.251807	-0.755588	0.058057
C178	C	0.248193	-0.255588	0.558057
C179	C	-0.218432	-0.789012	0.806886
C180	C	0.281568	-0.289012	1.306886
C181	C	-0.218417	-0.789019	0.861491
C182	C	0.281583	-0.289019	1.361491
O183	O	-0.189967	-0.817466	0.889747
O184	O	0.310033	-0.317466	1.389747
N185	N	-0.251844	-0.755562	0.888783
N186	N	0.248156	-0.255562	1.388783
C187	C	-0.285283	-0.722093	0.861468
C188	C	0.214717	-0.222093	1.361468
O189	O	-0.313713	-0.693636	0.889695
O190	O	0.186287	-0.193636	1.389695
C191	C	-0.285294	-0.722084	0.806864
C192	C	0.214706	-0.222084	1.306864
C193	C	-0.251870	-0.755547	0.779575
C194	C	0.248130	-0.255547	1.279575
C195	C	-0.185009	-0.822472	0.779597
C196	C	0.314991	-0.322472	1.279597
C197	C	-0.185025	-0.822466	0.724997
C198	C	0.314975	-0.322466	1.224997
C199	C	-0.218462	-0.789000	0.697685
C200	C	0.281538	-0.289000	1.197685
C201	C	-0.251885	-0.755541	0.724974
C202	C	0.248115	-0.255541	1.224974
C203	C	-0.318731	-0.688613	0.779550
C204	C	0.181269	-0.188613	1.279550
C205	C	-0.318739	-0.688607	0.724943
C206	C	0.181261	-0.188607	1.224943
C207	C	-0.285314	-0.722069	0.697654
C208	C	0.214686	-0.222069	1.197654
C209	C	-0.285338	-0.722070	0.643063
C210	C	0.214662	-0.222070	1.143063
N211	N	-0.251912	-0.755526	0.615771
N212	N	0.248088	-0.255526	1.115771
C213	C	-0.218474	-0.788992	0.643082
C214	C	0.281526	-0.288992	1.143082
C215	C	-0.285256	-0.722113	0.976138
C216	C	0.214744	-0.222113	1.476138
C217	C	-0.285247	-0.722124	1.030741
C218	C	0.214753	-0.222124	1.530741
C219	C	-0.218381	-0.789049	1.030760
C220	C	0.281619	-0.289049	1.530760
C221	C	-0.218392	-0.789041	0.976157
C222	C	0.281608	-0.289041	1.476157
C223	C	-0.251829	-0.755570	0.948846
C224	C	0.248171	-0.255570	1.448846
C225	C	-0.218509	-0.788977	0.528417
C226	C	0.281491	-0.288977	1.028417
C227	C	-0.218529	-0.788970	0.473811
C228	C	0.281471	-0.288970	0.973811
C229	C	-0.285393	-0.722043	0.473797
C230	C	0.214607	-0.222043	0.973797
C231	C	-0.285375	-0.722052	0.528397
C232	C	0.214625	-0.222052	1.028397
C233	C	-0.251929	-0.755521	0.555706
C234	C	0.248071	-0.255521	1.055706
O235	O	-0.313773	-0.693635	0.614771
O236	O	0.186227	-0.193635	1.114771
O237	O	-0.190044	-0.817439	0.614847
O238	O	0.309956	-0.317439	1.114847
H239	H	-0.550030	-0.816159	0.191408
H240	H	-0.050030	-0.316159	0.691408
H241	H	-0.702137	-0.849670	0.158024
H242	H	-0.202137	-0.349670	0.658024
O243	O	-0.152510	-0.855034	0.806042
O244	O	0.347490	-0.355034	1.306042
C245	C	-0.123008	-0.884549	0.770236
C246	C	0.376992	-0.384549	1.270236
H247	H	-0.144436	-0.886327	0.731313
H248	H	0.355564	-0.386327	1.231313
H249	H	-0.083296	-0.865434	0.764428
H250	H	0.416704	-0.365434	1.264428
C251	C	-0.089160	-0.938025	0.839354
C252	C	0.410840	-0.438025	1.339354
C253	C	-0.115481	-0.940213	0.791549
C254	C	0.384519	-0.440213	1.291549
H255	H	-0.084514	-0.972361	0.852501
H256	H	0.415486	-0.472361	1.352501
H257	H	-0.109034	-0.918139	0.863477
H258	H	0.390966	-0.418139	1.363477
H259	H	-0.056069	-0.922094	0.834507
H260	H	0.443931	-0.422094	1.334507
H261	H	-0.148573	-0.956138	0.796397
H262	H	0.351427	-0.456138	1.296397
H263	H	-0.095612	-0.960103	0.767427
H264	H	0.404388	-0.460103	1.267427
H265	H	-0.312487	-0.694857	0.953905
H266	H	0.187513	-0.194857	1.453905
H267	H	-0.801185	-0.849709	0.158037
H268	H	-0.301185	-0.349709	0.658037
O269	O	-0.318036	-0.058315	0.317903
O270	O	0.181964	0.441685	0.817903
C271	C	-0.347602	-0.022503	0.347352
C272	C	0.152398	0.477497	0.847352
H273	H	-0.326192	0.016408	0.349200
H274	H	0.173808	0.516408	0.849200
H275	H	-0.387284	-0.016667	0.328134
H276	H	0.112716	0.483333	0.828134
C277	C	-0.381516	-0.091620	0.400716
C278	C	0.118484	0.408380	0.900716
C279	C	-0.355217	-0.043831	0.402989
C280	C	0.144783	0.456169	0.902989
H281	H	-0.386215	-0.104777	0.435035
H282	H	0.113785	0.395223	0.935035
H283	H	-0.361598	-0.115748	0.380874
H284	H	0.138402	0.384252	0.880874
H285	H	-0.414581	-0.086751	0.384699
H286	H	0.085419	0.413249	0.884699
H287	H	-0.322150	-0.048702	0.419000
H288	H	0.177850	0.451298	0.919000
H289	H	-0.375129	-0.019704	0.422835
H290	H	0.124871	0.480296	0.922835
O291	O	-0.317976	0.049331	0.317851
O292	O	0.182024	0.549331	0.817851
C293	C	-0.310804	0.103378	0.310688
C294	C	0.189196	0.603378	0.810688
H295	H	-0.270430	0.110817	0.293635
H296	H	0.229570	0.610817	0.793635
H297	H	-0.341776	0.118906	0.282792
H298	H	0.158224	0.618906	0.782792
C299	C	-0.365256	0.122255	0.384528
C300	C	0.134744	0.622255	0.884528
C301	C	-0.315666	0.131392	0.363586
C302	C	0.184334	0.631392	0.863586
H303	H	-0.368257	0.139536	0.417157
H304	H	0.131743	0.639536	0.917157
H305	H	-0.370090	0.085842	0.389353
H306	H	0.129910	0.585842	0.889353
H307	H	-0.391061	0.135194	0.361276
H308	H	0.108939	0.635194	0.861276
H309	H	-0.289862	0.118447	0.386835
H310	H	0.210138	0.618447	0.886835
H311	H	-0.310828	0.167803	0.358767
H312	H	0.189172	0.667803	0.858767
O313	O	-0.351260	-0.656182	0.806069
O314	O	0.148740	-0.156182	1.306069
C315	C	-0.385026	-0.685922	0.837665
C316	C	0.114974	-0.185922	1.337665
H317	H	-0.388260	-0.727100	0.821228
H318	H	0.111740	-0.227100	1.321228
H319	H	-0.368862	-0.687731	0.879055
H320	H	0.131138	-0.187731	1.379055
C321	C	-0.435403	-0.609763	0.858661
C322	C	0.064597	-0.109763	1.358661
C323	C	-0.439379	-0.660337	0.838470
C324	C	0.060621	-0.160337	1.338470
H325	H	-0.468930	-0.593981	0.859159
H326	H	0.031070	-0.093981	1.359159
H327	H	-0.412653	-0.589726	0.837376
H328	H	0.087347	-0.089726	1.337376
H329	H	-0.421931	-0.611278	0.893150
H330	H	0.078069	-0.111278	1.393150
H331	H	-0.452844	-0.658821	0.803979
H332	H	0.047156	-0.158821	1.303979
H333	H	-0.462132	-0.680373	0.859749
H334	H	0.037868	-0.180373	1.359749
H335	H	-0.345963	-0.661345	0.702710
H336	H	0.154037	-0.161345	1.202710
H337	H	-1.052442	-0.694912	0.312659
H338	H	-0.552442	-0.194912	0.812659
H339	H	-0.801275	-0.661376	0.346049
H340	H	-0.301275	-0.161376	0.846049
O341	O	-0.318037	-0.560766	0.317701
O342	O	0.181963	-0.060766	0.817701
C343	C	-0.351754	-0.592326	0.287872
C344	C	0.148246	-0.092326	0.787872
H345	H	-0.354925	-0.575849	0.246689
H346	H	0.145075	-0.075849	0.746689
H347	H	-0.335585	-0.633718	0.286095
H348	H	0.164415	-0.133718	0.786095
C349	C	-0.402248	-0.613384	0.363901
C350	C	0.097752	-0.113384	0.863901
C351	C	-0.406147	-0.593144	0.313321
C352	C	0.093853	-0.093144	0.813321
H353	H	-0.435800	-0.613891	0.379600
H354	H	0.064200	-0.113891	0.879600
H355	H	-0.379531	-0.592123	0.383998
H356	H	0.120469	-0.092123	0.883998
H357	H	-0.388772	-0.647875	0.362414
H358	H	0.111228	-0.147875	0.862414
H359	H	-0.419617	-0.558652	0.314810
H360	H	0.080383	-0.058652	0.814810
H361	H	-0.428867	-0.614400	0.293224
H362	H	0.071133	-0.114400	0.793224
H363	H	-0.191241	-0.054099	0.191496
H364	H	0.308759	0.445901	0.691496
H365	H	-0.953392	-0.694883	0.312656
H366	H	-0.453392	-0.194883	0.812656
H367	H	-0.157806	-0.849714	0.702783
H368	H	0.342194	-0.349714	1.202783
H369	H	-0.346225	-0.305272	0.345950
H370	H	0.153775	0.194728	0.845950
O371	O	-0.152537	-0.309635	0.152829
O372	O	0.347463	0.190365	0.652829
C373	C	-0.182252	-0.341175	0.118990
C374	C	0.317748	0.158825	0.618990
H375	H	-0.221902	-0.349345	0.137356
H376	H	0.278098	0.150655	0.637356
H377	H	-0.187939	-0.320106	0.080238
H378	H	0.312061	0.179894	0.580238
C379	C	-0.104768	-0.383018	0.087009
C380	C	0.395232	0.116982	0.587009
C381	C	-0.153465	-0.393056	0.109568
C382	C	0.346535	0.106944	0.609568
H383	H	-0.087011	-0.415020	0.081195
H384	H	0.412989	0.084980	0.581195
H385	H	-0.084748	-0.361768	0.109806
H386	H	0.415252	0.138232	0.609806
H387	H	-0.109515	-0.365459	0.054718
H388	H	0.390485	0.134541	0.554718
H389	H	-0.148718	-0.410608	0.141862
H390	H	0.351282	0.089392	0.641862
H391	H	-0.173484	-0.414310	0.086777
H392	H	0.326516	0.085690	0.586777
O393	O	-0.185872	-0.821560	0.949731
O394	O	0.314128	-0.321560	1.449731
C395	C	-0.156370	-0.851107	0.985553
C396	C	0.343630	-0.351107	1.485553
H397	H	-0.154552	-0.829698	1.024470
H398	H	0.345448	-0.329698	1.524470
H399	H	-0.175522	-0.890802	0.991366
H400	H	0.324478	-0.390802	1.491366
C401	C	-0.102959	-0.884979	0.916458
C402	C	0.397041	-0.384979	1.416458
C403	C	-0.100723	-0.858681	0.964256
C404	C	0.399277	-0.358681	1.464256
H405	H	-0.068634	-0.889653	0.903321
H406	H	0.431366	-0.389653	1.403321
H407	H	-0.122836	-0.865074	0.892324
H408	H	0.377164	-0.365074	1.392324
H409	H	-0.118921	-0.918055	0.921309
H410	H	0.381079	-0.418055	1.421309
H411	H	-0.084767	-0.825603	0.959403
H412	H	0.415233	-0.325603	1.459403
H413	H	-0.080842	-0.878580	0.988389
H414	H	0.419158	-0.378580	1.488389
O415	O	-0.186094	-0.821515	0.554997
O416	O	0.313906	-0.321515	1.054997
C417	C	-0.215857	-0.855277	0.586578
C418	C	0.284143	-0.355277	1.086578
H419	H	-0.255473	-0.836807	0.594758
H420	H	0.244527	-0.336807	1.094758
H421	H	-0.221618	-0.894013	0.565540
H422	H	0.278382	-0.394013	1.065540
C423	C	-0.138416	-0.887465	0.628400
C424	C	0.361584	-0.387465	1.128400
C425	C	-0.187071	-0.864778	0.638450
C426	C	0.312929	-0.364778	1.138450
H427	H	-0.120659	-0.893328	0.660395
H428	H	0.379341	-0.393328	1.160395
H429	H	-0.118363	-0.864721	0.607122
H430	H	0.381637	-0.364721	1.107122
H431	H	-0.143223	-0.919743	0.610867
H432	H	0.356777	-0.419743	1.110867
H433	H	-0.182263	-0.832498	0.655976
H434	H	0.317737	-0.332498	1.155976
H435	H	-0.207122	-0.887517	0.659732
H436	H	0.292878	-0.387517	1.159732
O437	O	-0.185909	-0.821503	1.057377
O438	O	0.314091	-0.321503	1.557377
C439	C	-0.193076	-0.814338	1.111421
C440	C	0.306924	-0.314338	1.611421
H441	H	-0.210199	-0.773978	1.118860
H442	H	0.289801	-0.273978	1.618860
H443	H	-0.220915	-0.845334	1.126926
H444	H	0.279085	-0.345334	1.626926
C445	C	-0.119137	-0.868728	1.130327
C446	C	0.380863	-0.368728	1.630327
C447	C	-0.140164	-0.819156	1.139464
C448	C	0.359836	-0.319156	1.639464
H449	H	-0.086500	-0.871703	1.147626
H450	H	0.413500	-0.371703	1.647626
H451	H	-0.114310	-0.873558	1.093916
H452	H	0.385690	-0.373558	1.593916
H453	H	-0.142341	-0.894553	1.143248
H454	H	0.357659	-0.394553	1.643248
H455	H	-0.116964	-0.793333	1.126537
H456	H	0.383036	-0.293333	1.626537
H457	H	-0.144987	-0.814323	1.175873
H458	H	0.355013	-0.314323	1.675873
O459	O	-0.697991	-0.656117	0.351361
O460	O	-0.197991	-0.156117	0.851361
C461	C	-0.711291	-0.667527	0.403484
C462	C	-0.211291	-0.167527	0.903484
H463	H	-0.750916	-0.687640	0.404591
H464	H	-0.250916	-0.187640	0.904591
H465	H	-0.680526	-0.694386	0.421118
H466	H	-0.180526	-0.194386	0.921118
C467	C	-0.665181	-0.591835	0.433746
C468	C	-0.165181	-0.091835	0.933746
C469	C	-0.713852	-0.616534	0.435106
C470	C	-0.213852	-0.116534	0.935106
H471	H	-0.666759	-0.560381	0.453253
H472	H	-0.166759	-0.060381	0.953253
H473	H	-0.656219	-0.584149	0.398630
H474	H	-0.156219	-0.084149	0.898630
H475	H	-0.639549	-0.614223	0.448440
H476	H	-0.139549	-0.114223	0.948440
H477	H	-0.739482	-0.594150	0.420406
H478	H	-0.239482	-0.094150	0.920406
H479	H	-0.722819	-0.624216	0.470220
H480	H	-0.222819	-0.124216	0.970220
O481	O	-0.949111	-0.821605	0.186185
O482	O	-0.449111	-0.321605	0.686185
C483	C	-0.984907	-0.851136	0.156699
C484	C	-0.484907	-0.351136	0.656699
H485	H	-1.023819	-0.852940	0.178123
H486	H	-0.523819	-0.352940	0.678123
H487	H	-0.990749	-0.832016	0.116971
H488	H	-0.490749	-0.332016	0.616971
C489	C	-0.915764	-0.904565	0.122906
C490	C	-0.415764	-0.404565	0.622906
C491	C	-0.963554	-0.906786	0.149220
C492	C	-0.463554	-0.406786	0.649220
H493	H	-0.902592	-0.938892	0.118290
H494	H	-0.402592	-0.438892	0.618290
H495	H	-0.891646	-0.884669	0.142769
H496	H	-0.391646	-0.384669	0.642769
H497	H	-0.920638	-0.888630	0.089802
H498	H	-0.420638	-0.388630	0.589802
H499	H	-0.958678	-0.922715	0.182326
H500	H	-0.458678	-0.422715	0.682326
H501	H	-0.987670	-0.926686	0.129362
H502	H	-0.487670	-0.426686	0.629362
O503	O	-0.317737	-0.689573	1.057165
O504	O	0.182263	-0.189573	1.557165
C505	C	-0.347261	-0.660048	1.021344
C506	C	0.152739	-0.160048	1.521344
H507	H	-0.325852	-0.658252	0.982423
H508	H	0.174148	-0.158252	1.482423
H509	H	-0.386974	-0.679165	1.015538
H510	H	0.113026	-0.179165	1.515538
C511	C	-0.381079	-0.606602	1.090436
C512	C	0.118921	-0.106602	1.590436
C513	C	-0.354783	-0.604393	1.042634
C514	C	0.145217	-0.104393	1.542634
H515	H	-0.385722	-0.572272	1.103569
H516	H	0.114278	-0.072272	1.603569
H517	H	-0.361191	-0.626495	1.114570
H518	H	0.138809	-0.126495	1.614570
H519	H	-0.414171	-0.622535	1.085591
H520	H	0.085829	-0.122535	1.585591
H521	H	-0.321690	-0.588466	1.047480
H522	H	0.178310	-0.088466	1.547480
H523	H	-0.374667	-0.584496	1.018501
H524	H	0.125333	-0.084496	1.518501
O525	O	-0.317864	-0.689502	0.554828
O526	O	0.182136	-0.189502	1.054828
C527	C	-0.347392	-0.659976	0.519011
C528	C	0.152608	-0.159976	1.019011
H529	H	-0.325988	-0.658180	0.480087
H530	H	0.174012	-0.158180	0.980087
H531	H	-0.387105	-0.679093	0.513210
H532	H	0.112895	-0.179093	1.013210
C533	C	-0.381202	-0.606530	0.588107
C534	C	0.118798	-0.106530	1.088107
C535	C	-0.354911	-0.604321	0.540302
C536	C	0.145089	-0.104321	1.040302
H537	H	-0.385842	-0.572200	0.601241
H538	H	0.114158	-0.072200	1.101241
H539	H	-0.361310	-0.626423	0.612239
H540	H	0.138690	-0.126423	1.112239
H541	H	-0.414293	-0.622463	0.583267
H542	H	0.085707	-0.122463	1.083267
H543	H	-0.321817	-0.588394	0.545145
H544	H	0.178183	-0.088394	1.045145
H545	H	-0.374797	-0.584424	0.516172
H546	H	0.125203	-0.084424	1.016172
H547	H	-0.450979	-0.816111	0.191392
H548	H	0.049021	-0.316111	0.691392
O549	O	-0.152419	-0.202022	0.152851
O550	O	0.347581	0.297978	0.652851
C551	C	-0.122871	-0.237838	0.123387
C552	C	0.377129	0.262162	0.623387
H553	H	-0.121101	-0.276771	0.144805
H554	H	0.378899	0.223229	0.644805
H555	H	-0.141953	-0.243615	0.083640
H556	H	0.358047	0.256385	0.583640
C557	C	-0.069385	-0.168746	0.089655
C558	C	0.430615	0.331254	0.589655
C559	C	-0.067207	-0.216563	0.115964
C560	C	0.432793	0.283437	0.615964
H561	H	-0.035049	-0.155622	0.085073
H562	H	0.464951	0.344378	0.585073
H563	H	-0.089293	-0.144615	0.109504
H564	H	0.410707	0.355385	0.609504
H565	H	-0.085289	-0.173567	0.056536
H566	H	0.414711	0.326433	0.556536
H567	H	-0.051309	-0.211740	0.149085
H568	H	0.448691	0.288260	0.649085
H569	H	-0.047295	-0.240692	0.096120
H570	H	0.452705	0.259308	0.596120
H571	H	-1.052391	-0.816333	0.191464
H572	H	-0.552391	-0.316333	0.691464
H573	H	-0.191213	-0.457387	0.191436
H574	H	0.308787	0.042613	0.691436
H575	H	-0.550105	-0.694738	0.312613
H576	H	-0.050105	-0.194738	0.812613
H577	H	-0.451039	-0.694699	0.312594
H578	H	0.048961	-0.194699	0.812594
H579	H	-0.312726	-0.457399	0.312556
H580	H	0.187274	0.042601	0.812556
H581	H	-0.346229	-0.206227	0.345967
H582	H	0.153771	0.293773	0.845967
H583	H	-0.191310	-0.816221	0.451595
H584	H	0.308690	-0.316221	0.951595
H585	H	-0.191258	0.044951	0.191502
H586	H	0.308742	0.544951	0.691502
H587	H	-0.191211	-0.556454	0.191422
H588	H	0.308789	-0.056454	0.691422
H589	H	-0.312619	-0.694798	0.451550
H590	H	0.187381	-0.194798	0.951550
