data_functionalizedCrystal
_audit_creation_method	'MofGen! by Chris Wilmer'
_symmetry_space_group_name_H-M	'P1'
_symmetry_Int_Tables_number	1
_symmetry_cell_setting	triclinic
loop_
_symmetry_equiv_pos_as_xyz
  x,y,z
_cell_length_a	6.817900
_cell_length_b	26.552285
_cell_length_c	19.551833
_cell_angle_alpha	85.126870
_cell_angle_beta	78.336523
_cell_angle_gamma	104.518380
loop_
_atom_site_label
_atom_site_type_symbol
_atom_site_fract_x
_atom_site_fract_y
_atom_site_fract_z
V1	V	-4.010628	-0.072399	0.216725
O2	O	-3.994071	0.002919	0.213756
O3	O	-3.966465	-0.143017	0.214130
O4	O	-3.953270	-0.071531	0.311754
O5	O	-4.007357	-0.069061	0.115457
V6	V	-4.494867	-0.063361	0.204748
O7	O	-4.270314	-0.092225	0.242999
O8	O	-4.685378	-0.043536	0.178475
O9	O	-4.315824	0.007256	0.207343
O10	O	-4.628821	-0.138679	0.207717
O11	O	-4.615535	-0.066699	0.306016
O12	O	-4.329019	-0.064229	0.109719
C13	C	-3.812786	-0.160224	0.210424
C14	C	-3.857905	-0.217956	0.208936
C15	C	-3.795954	-0.069037	0.334952
C16	C	-3.830369	-0.068795	0.412632
C17	C	-4.061033	-0.247729	0.211678
C18	C	-4.103431	-0.301975	0.210287
C19	C	-3.942682	-0.326446	0.206140
C20	C	-3.739527	-0.296667	0.203402
C21	C	-3.697139	-0.242422	0.204800
C22	C	-3.848146	-0.405482	0.160236
C23	C	-3.890539	-0.459725	0.158833
C24	C	-4.073416	-0.493754	0.201830
C25	C	-4.213923	-0.473532	0.246221
C26	C	-4.171535	-0.419288	0.247619
C27	C	-3.988625	-0.385264	0.204624
C28	C	-4.322530	-0.582347	0.203064
C29	C	-4.364924	-0.636595	0.201677
C30	C	-4.001009	-0.631284	0.194785
C31	C	-3.958625	-0.577038	0.196179
C32	C	-4.119392	-0.552573	0.200316
C33	C	-4.132859	0.024461	0.211047
C34	C	-4.065748	0.083277	0.212578
V35	V	-4.216710	0.178970	0.208676
O36	O	-4.169053	0.255611	0.204001
O37	O	-4.203848	0.105409	0.209894
O38	O	-4.190006	0.176873	0.307545
O39	O	-4.182990	0.183652	0.105673
V40	V	-4.663749	0.202786	0.177508
O41	O	-4.476138	0.166048	0.225978
O42	O	-4.826640	0.229099	0.142815
O43	O	-4.467227	0.269708	0.184914
O44	O	-4.821533	0.129637	0.177649
O45	O	-4.807596	0.201595	0.275976
O46	O	-4.481068	0.198244	0.087262
C47	C	-4.149677	-0.066725	0.086517
C48	C	-4.094500	-0.066965	0.008837
C49	C	-4.289507	0.281825	0.195227
C50	C	-4.204170	0.338938	0.197532
C51	C	-4.048100	0.174435	0.337148
C52	C	-4.102732	0.174661	0.414840
C53	C	-4.028468	-0.071288	0.452640
C54	C	-4.060805	-0.071060	0.525628
C55	C	-3.895042	-0.068350	0.558607
C56	C	-3.696913	-0.065853	0.518589
C57	C	-3.664576	-0.066076	0.445601
C58	C	-3.833933	-0.096588	0.677477
C59	C	-3.866279	-0.096369	0.750464
C60	C	-3.994767	-0.067661	0.783724
C61	C	-4.090945	-0.039180	0.743991
C62	C	-4.058609	-0.039403	0.671003
C63	C	-3.930084	-0.068108	0.637749
C64	C	-4.227941	-0.069907	0.902875
C65	C	-4.260269	-0.069676	0.975864
C66	C	-3.896375	-0.064475	0.968824
C67	C	-3.864049	-0.064701	0.895835
C68	C	-4.029842	-0.067419	0.862866
C69	C	-4.307164	0.190666	0.070661
C70	C	-4.233055	0.189825	-0.006229
C71	C	-4.301165	0.177472	0.447957
C72	C	-4.352515	0.177692	0.520955
C73	C	-4.205435	0.175097	0.560835
C74	C	-4.006983	0.172287	0.527713
C75	C	-3.955631	0.172071	0.454715
C76	C	-4.038246	0.181585	-0.032011
C77	C	-3.968578	0.180798	-0.104258
C78	C	-4.093729	0.188249	-0.150720
C79	C	-4.288553	0.196492	-0.124934
C80	C	-4.358211	0.197282	-0.052690
H81	H	-4.191949	-0.227813	0.215050
H82	H	-3.776134	-0.476185	0.122683
H83	H	-4.421584	-0.071703	1.008437
H84	H	-3.761402	-0.062264	0.995673
H85	H	-4.036924	0.187641	-0.209551
C86	C	-3.514544	-0.062839	0.554860
N87	N	-3.377165	-0.060555	0.582177
C88	C	-3.737349	0.168967	0.418297
N89	N	-3.572934	0.166627	0.390871
H90	H	-3.936312	0.175517	0.005810
H91	H	-3.809940	0.174086	-0.125241
H92	H	-4.516847	0.203990	-0.031704
H93	H	-4.136918	-0.016211	0.638655
C94	C	-4.426201	0.204686	-0.176053
N95	N	-4.529880	0.210854	-0.214557
H96	H	-4.247277	0.175274	0.620274
H97	H	-4.195576	-0.015805	0.771070
C98	C	-4.499374	-0.555433	0.207616
N99	N	-4.632577	-0.535163	0.211044
C100	C	-3.845199	0.169444	0.571589
N101	N	-3.723343	0.167305	0.604640
H102	H	-4.268848	-0.326221	0.212519
C103	C	-3.646965	-0.368055	0.112931
N104	N	-3.495441	-0.339866	0.077301
H105	H	-4.362938	-0.072119	0.876030
C106	C	-4.326069	-0.397047	0.296459
N107	N	-4.442458	-0.380295	0.333251
H108	H	-4.362650	-0.501246	0.281329
H109	H	-4.530340	-0.660836	0.203914
H110	H	-3.531726	-0.218181	0.202568
C111	C	-3.692599	-0.128175	0.640899
N112	N	-3.586154	-0.151966	0.613350
H113	H	-3.793216	-0.552797	0.193942
C114	C	-3.824180	-0.658199	0.190226
N115	N	-3.690990	-0.678473	0.186793
C116	C	-3.760473	-0.127697	0.794163
N117	N	-3.680769	-0.151293	0.827076
C118	C	-3.562700	-0.323584	0.198836
N119	N	-3.429508	-0.343859	0.195397
C120	C	-3.646132	-0.061968	0.851826
N121	N	-3.481988	-0.059911	0.818679
H122	H	-4.163471	-0.073499	0.425801
C123	C	-3.446650	-0.063339	0.401591
N124	N	-3.282506	-0.061281	0.368443
H125	H	-4.420954	0.179584	0.415496
H126	H	-4.222128	-0.073093	0.558210
H127	H	-4.514116	0.179978	0.547913
