data_functionalizedCrystal
_audit_creation_method	'MofGen! by Chris Wilmer'
_symmetry_space_group_name_H-M	'P1'
_symmetry_Int_Tables_number	1
_symmetry_cell_setting	triclinic
loop_
_symmetry_equiv_pos_as_xyz
  x,y,z
_cell_length_a	10.723023
_cell_length_b	11.792254
_cell_length_c	9.198806
_cell_angle_alpha	89.996642
_cell_angle_beta	89.996191
_cell_angle_gamma	84.333073
loop_
_atom_site_label
_atom_site_type_symbol
_atom_site_fract_x
_atom_site_fract_y
_atom_site_fract_z
O1	O	1.656775	0.159187	-0.120889
O2	O	1.293583	0.174426	-0.120893
O3	O	1.483984	0.001656	-0.120881
O4	O	1.466374	0.331957	-0.120902
O5	O	1.483969	0.001656	0.120904
O6	O	1.293568	0.174425	0.120892
O7	O	1.656760	0.159187	0.120896
Cu8	Cu	1.475162	0.166806	0.142971
Cu9	Cu	1.475180	0.166806	-0.142968
O10	O	1.466358	0.331956	0.120884
C11	C	1.247079	0.173317	-0.000001
C12	C	1.108533	0.169999	-0.000002
C13	C	0.903570	0.165092	0.125245
C14	C	1.046764	0.168520	0.125249
C15	C	1.482868	-0.040637	0.000011
C16	C	1.479547	-0.166658	0.000010
C17	C	1.476849	-0.269000	0.000005
C18	C	1.473476	-0.397394	-0.000009
C19	C	1.703264	0.160296	0.000001
C20	C	1.841810	0.163613	-0.000008
C21	C	1.467475	0.374250	-0.000012
C22	C	1.470796	0.500270	-0.000020
N23	N	1.475159	0.166805	0.344085
N24	N	1.475194	0.166799	-0.344082
C25	C	1.555104	0.093944	0.416287
C26	C	1.555123	0.093940	0.583699
H27	H	1.099877	0.169787	0.232482
H28	H	1.406750	0.229185	0.593837
C29	C	1.647555	0.009671	0.332379
C30	C	1.647289	0.009685	0.164974
C31	C	1.739744	-0.074591	0.081072
C32	C	1.832465	-0.158881	0.164576
C33	C	1.832735	-0.158898	0.331990
C34	C	1.740280	-0.074622	0.415892
H35	H	1.578647	0.072085	0.103151
H36	H	1.739543	-0.074578	-0.042860
H37	H	1.900906	-0.221267	0.102466
H38	H	1.901377	-0.221298	0.393813
H39	H	1.740481	-0.074635	0.539824
H40	H	0.850433	0.163825	0.232474
C41	C	1.036802	0.168282	-0.144883
C42	C	0.960770	0.067751	-0.180996
C43	C	0.889028	0.066033	-0.325876
C44	C	0.893318	0.164846	-0.434644
C45	C	0.969353	0.265385	-0.398534
C46	C	1.041094	0.267103	-0.253654
H47	H	0.957592	-0.005403	-0.100477
H48	H	0.832742	-0.008392	-0.352607
H49	H	0.840210	0.163575	-0.541894
H50	H	0.972531	0.338539	-0.479053
H51	H	1.097380	0.341528	-0.226923
H52	H	0.894945	0.164892	-0.107238
C53	C	1.382709	0.251076	0.427996
C54	C	1.386054	0.380319	0.407203
C55	C	1.293600	0.464593	0.491109
C56	C	1.197802	0.419626	0.595809
C57	C	1.194454	0.290377	0.616607
C58	C	1.286907	0.206102	0.532700
H59	H	1.456972	0.413613	0.329693
H60	H	1.296079	0.560272	0.475713
H61	H	1.129363	0.482011	0.657921
H62	H	1.123535	0.257083	0.694116
H63	H	1.284428	0.110423	0.548097
H64	H	1.623572	0.031565	0.645790
