data_functionalizedCrystal
_audit_creation_method	'MofGen! by Chris Wilmer'
_symmetry_space_group_name_H-M	'P1'
_symmetry_Int_Tables_number	1
_symmetry_cell_setting	triclinic
loop_
_symmetry_equiv_pos_as_xyz
  x,y,z
_cell_length_a	16.625539
_cell_length_b	19.077105
_cell_length_c	19.077068
_cell_angle_alpha	90.115316
_cell_angle_beta	92.266981
_cell_angle_gamma	87.682252
loop_
_atom_site_label
_atom_site_type_symbol
_atom_site_fract_x
_atom_site_fract_y
_atom_site_fract_z
Zn1	Zn	-0.519613	1.063000	-0.322975
Zn2	Zn	-0.186280	1.396334	0.010359
Zn3	Zn	0.147054	1.729667	0.343692
Zn4	Zn	-0.389957	1.058185	-0.440485
Zn5	Zn	-0.056624	1.391518	-0.107152
Zn6	Zn	0.276710	1.724851	0.226182
Zn7	Zn	-0.379175	0.945490	-0.318271
Zn8	Zn	-0.045842	1.278823	0.015063
Zn9	Zn	0.287491	1.612156	0.348396
Zn10	Zn	-0.519129	0.940735	-0.435716
Zn11	Zn	-0.185795	1.274069	-0.102383
Zn12	Zn	0.147538	1.607402	0.230950
O13	O	-0.451969	1.001852	-0.379362
O14	O	-0.118635	1.335186	-0.046028
O15	O	0.214698	1.668519	0.287305
O16	O	-0.507129	1.160693	-0.342527
O17	O	-0.173795	1.494026	-0.009194
O18	O	0.159538	1.827360	0.324140
O19	O	-0.275694	1.043210	-0.424300
O20	O	0.057639	1.376543	-0.090967
O21	O	0.390972	1.709876	0.242367
O22	O	-0.393495	0.965083	-0.220565
O23	O	-0.060162	1.298416	0.112768
O24	O	0.273171	1.631750	0.446102
O25	O	-0.411871	1.157155	-0.428861
O26	O	-0.078538	1.490488	-0.095528
O27	O	0.254796	1.823822	0.237805
O28	O	-0.496674	1.051417	-0.224021
O29	O	-0.163341	1.384751	0.109312
O30	O	0.169992	1.718084	0.442646
O31	O	-0.267773	0.960413	-0.334510
O32	O	0.065560	1.293747	-0.001177
O33	O	0.398893	1.627080	0.332157
O34	O	-0.393026	0.846528	-0.329886
O35	O	-0.059692	1.179861	0.003448
O36	O	0.273641	1.513194	0.336781
O37	O	-0.632025	0.956980	-0.420734
O38	O	-0.298692	1.290313	-0.087400
O39	O	0.034641	1.623646	0.245933
O40	O	-0.495849	0.843034	-0.416173
O41	O	-0.162515	1.176368	-0.082839
O42	O	0.170818	1.509701	0.250494
O43	O	-0.632381	1.046807	-0.337903
O44	O	-0.299048	1.380141	-0.004570
O45	O	0.034286	1.713474	0.328764
O46	O	-0.411401	1.038599	-0.538182
O47	O	-0.078068	1.371933	-0.204849
O48	O	0.255265	1.705266	0.128484
O49	O	-0.506303	0.952310	-0.534679
O50	O	-0.172970	1.285643	-0.201345
O51	O	0.160364	1.618977	0.131988
C52	C	-0.443215	0.819285	-0.372002
C53	C	-0.109882	1.152618	-0.038668
C54	C	0.223452	1.485951	0.294665
C55	C	-0.439490	0.741181	-0.368870
C56	C	-0.106157	1.074514	-0.035537
C57	C	0.227176	1.407847	0.297797
C58	C	-0.491197	0.702684	-0.412391
C59	C	-0.157863	1.036018	-0.079058
C60	C	0.175470	1.369351	0.254275
C61	C	-0.487700	0.629298	-0.409440
C62	C	-0.154367	0.962631	-0.076106
C63	C	0.178966	1.295964	0.257227
C64	C	-0.432493	0.594409	-0.362970
C65	C	-0.099160	0.927742	-0.029636
C66	C	0.234174	1.261075	0.303697
C67	C	-0.380784	0.632910	-0.319443
C68	C	-0.047451	0.966244	0.013890
C69	C	0.285882	1.299577	0.347223
C70	C	-0.384285	0.706296	-0.322392
C71	C	-0.050952	1.039629	0.010941
C72	C	0.282382	1.372963	0.344275
C73	C	-0.416294	0.375123	-0.349322
C74	C	-0.082960	0.708457	-0.015989
C75	C	0.250373	1.041790	0.317344
C76	C	-0.412795	0.301733	-0.346378
C77	C	-0.079462	0.635066	-0.013045
C78	C	0.253872	0.968399	0.320288
C79	C	-0.519713	0.298125	-0.436374
C80	C	-0.186379	0.631458	-0.103041
C81	C	0.146954	0.964792	0.230293
C82	C	-0.523205	0.371512	-0.439322
C83	C	-0.189872	0.704845	-0.105988
C84	C	0.143461	1.038179	0.227345
C85	C	-0.471500	0.410007	-0.395793
C86	C	-0.138166	0.743341	-0.062460
C87	C	0.195167	1.076674	0.270874
N88	N	-0.428916	0.519396	-0.359953
N89	N	-0.095583	0.852729	-0.026619
N90	N	0.237751	1.186062	0.306714
N91	N	-0.475081	0.485019	-0.398807
N92	N	-0.141748	0.818352	-0.065473
N93	N	0.191586	1.151686	0.267860
C94	C	-0.662277	1.001900	-0.379311
C95	C	-0.328944	1.335234	-0.045978
C96	C	0.004389	1.668567	0.287355
C97	C	-0.751898	1.001921	-0.379290
C98	C	-0.418565	1.335254	-0.045956
C99	C	-0.085232	1.668587	0.287377
C100	C	-1.080072	1.001956	-0.379212
C101	C	-0.746739	1.335290	-0.045879
C102	C	-0.413406	1.668623	0.287454
C103	C	-0.988764	1.001944	-0.379236
C104	C	-0.655431	1.335278	-0.045903
C105	C	-0.322098	1.668611	0.287431
C106	C	-0.915988	1.001939	-0.379252
C107	C	-0.582655	1.335272	-0.045918
C108	C	-0.249322	1.668605	0.287415
C109	C	-0.824675	1.001926	-0.379274
C110	C	-0.491341	1.335259	-0.045941
C111	C	-0.158008	1.668593	0.287393
C112	C	-0.242478	1.001847	-0.379363
C113	C	0.090856	1.335181	-0.046030
C114	C	0.424189	1.668514	0.287304
C115	C	-0.152855	1.001971	-0.379192
C116	C	0.180479	1.335304	-0.045859
C117	C	0.513812	1.668638	0.287475
C118	C	-0.459988	0.994435	-0.561927
C119	C	-0.126655	1.327769	-0.228594
C120	C	0.206679	1.661102	0.104740
C121	C	-0.463449	0.991327	-0.640032
C122	C	-0.130116	1.324660	-0.306699
C123	C	0.203218	1.657993	0.026635
C124	C	-0.460757	1.185133	-0.386751
C125	C	-0.127423	1.518466	-0.053418
C126	C	0.205910	1.851800	0.279916
C127	C	-0.464502	1.263236	-0.389900
C128	C	-0.131168	1.596570	-0.056566
C129	C	0.202165	1.929903	0.276767
C130	C	-0.415709	1.034827	-0.678528
C131	C	-0.082376	1.368161	-0.345195
C132	C	0.250958	1.701494	-0.011861
C133	C	-0.418969	1.031907	-0.751916
C134	C	-0.085636	1.365241	-0.418582
C135	C	0.247697	1.698574	-0.085249
C136	C	-0.469965	0.985483	-0.786806
C137	C	-0.136632	1.318816	-0.453473
C138	C	0.196701	1.652150	-0.120140
C139	C	-0.517711	0.941980	-0.748305
C140	C	-0.184377	1.275314	-0.414972
C141	C	0.148956	1.608647	-0.081638
C142	C	-0.514454	0.944904	-0.674919
C143	C	-0.181121	1.278238	-0.341585
C144	C	0.152212	1.611571	-0.008252
C145	C	-0.485002	0.971920	-1.006095
C146	C	-0.151669	1.305254	-0.672761
C147	C	0.181665	1.638587	-0.339428
C148	C	-0.488253	0.968998	-1.079486
C149	C	-0.154920	1.302332	-0.746153
C150	C	0.178414	1.635665	-0.412820
C151	C	-0.389512	1.058927	-1.083092
C152	C	-0.056179	1.392260	-0.749759
C153	C	0.277154	1.725593	-0.416425
C154	C	-0.386257	1.061843	-1.009704
C155	C	-0.052924	1.395177	-0.676371
C156	C	0.280410	1.728510	-0.343037
C157	C	-0.434005	1.018343	-0.971209
C158	C	-0.100672	1.351677	-0.637876
C159	C	0.232661	1.685010	-0.304543
N160	N	-0.473297	0.982496	-0.861820
N161	N	-0.139964	1.315829	-0.528487
N162	N	0.193370	1.649162	-0.195154
N163	N	-0.430677	1.021335	-0.896197
N164	N	-0.097344	1.354668	-0.562863
N165	N	0.235989	1.688001	-0.229530
C166	C	-0.443936	1.009318	-0.196084
C167	C	-0.110603	1.342651	0.137249
C168	C	0.222731	1.675984	0.470582
C169	C	-0.440513	1.012499	-0.117982
C170	C	-0.107180	1.345832	0.215351
C171	C	0.226153	1.679166	0.548684
H172	H	-0.561810	0.266774	-0.471812
H173	H	-0.228476	0.600108	-0.138478
H174	H	0.104857	0.933441	0.194855
Cl175	Cl	-0.581826	0.883622	-0.792167
Cl176	Cl	-0.248492	1.216955	-0.458834
Cl177	Cl	0.084841	1.550288	-0.125501
H178	H	-0.374179	1.072628	-0.650125
H179	H	-0.040846	1.405961	-0.316792
H180	H	0.292488	1.739295	0.016542
Cl181	Cl	-0.574476	0.890218	-0.626523
Cl182	Cl	-0.241142	1.223551	-0.293190
Cl183	Cl	0.092191	1.556884	0.040143
H184	H	-0.367843	0.273329	-0.308529
H185	H	-0.034510	0.606662	0.024805
H186	H	0.298823	0.939995	0.358138
H187	H	-0.374185	0.406458	-0.313884
H188	H	-0.040852	0.739791	0.019450
H189	H	0.292481	1.073124	0.352783
Cl190	Cl	-0.552706	0.580905	-0.464155
Cl191	Cl	-0.219373	0.914238	-0.130822
Cl192	Cl	0.113961	1.247572	0.202512
H193	H	-0.523879	0.936500	-0.974758
H194	H	-0.190546	1.269833	-0.641425
H195	H	0.142788	1.603166	-0.308091
Cl196	Cl	-0.311385	0.589050	-0.261019
Cl197	Cl	0.021948	0.922383	0.072315
Cl198	Cl	0.355281	1.255717	0.405648
H199	H	-0.536150	0.731085	-0.450235
H200	H	-0.202817	1.064419	-0.116902
H201	H	0.130517	1.397752	0.216432
H202	H	-0.342184	0.737639	-0.286949
H203	H	-0.008851	1.070972	0.046385
H204	H	0.324482	1.404306	0.379718
Cl205	Cl	-0.322156	1.120218	-0.965848
Cl206	Cl	0.011177	1.453551	-0.632514
Cl207	Cl	0.344510	1.786885	-0.299181
Cl208	Cl	-0.358953	1.086599	-0.800308
Cl209	Cl	-0.025620	1.419932	-0.466975
Cl210	Cl	0.307714	1.753266	-0.133641
H211	H	-0.350640	1.094343	-1.114442
H212	H	-0.017306	1.427676	-0.781109
H213	H	0.316027	1.761009	-0.447776
H214	H	-0.568159	0.399913	-0.477164
H215	H	-0.234826	0.733247	-0.143831
H216	H	0.098507	1.066580	0.189502
Cl217	Cl	-0.552357	0.910622	-1.123347
Cl218	Cl	-0.219023	1.243956	-0.790014
Cl219	Cl	0.114310	1.577289	-0.456680
