data_functionalizedCrystal
_audit_creation_method	'MofGen! by Chris Wilmer'
_symmetry_space_group_name_H-M	'P1'
_symmetry_Int_Tables_number	1
_symmetry_cell_setting	triclinic
loop_
_symmetry_equiv_pos_as_xyz
  x,y,z
_cell_length_a	6.817900
_cell_length_b	13.563541
_cell_length_c	10.992410
_cell_angle_alpha	107.639355
_cell_angle_beta	108.764651
_cell_angle_gamma	104.704624
loop_
_atom_site_label
_atom_site_type_symbol
_atom_site_fract_x
_atom_site_fract_y
_atom_site_fract_z
V1	V	-4.127880	-0.153615	-0.455052
O2	O	-4.071721	0.007382	-0.390350
O3	O	-4.118857	-0.304593	-0.505837
O4	O	-4.105263	-0.151252	-0.628927
O5	O	-4.085409	-0.147021	-0.266408
V6	V	-4.603065	-0.134358	-0.425942
O7	O	-4.407429	-0.195857	-0.518909
O8	O	-4.773713	-0.092116	-0.362085
O9	O	-4.388882	0.016620	-0.375157
O10	O	-4.776621	-0.295355	-0.490644
O11	O	-4.762933	-0.140953	-0.614586
O12	O	-4.402476	-0.136721	-0.252067
C13	C	-3.972603	-0.341398	-0.512565
C14	C	-4.046684	-0.464825	-0.555247
C15	C	-4.006609	-0.749316	-0.182417
C16	C	-3.936991	-0.633350	-0.142313
C17	C	-3.964411	-0.591213	-0.245543
C18	C	-4.061455	-0.665053	-0.388884
C19	C	-4.131064	-0.781030	-0.428992
C20	C	-4.088866	-0.622927	-0.492117
C21	C	-4.185910	-0.696768	-0.635459
C22	C	-4.255512	-0.812733	-0.675559
C23	C	-4.228092	-0.854870	-0.572329
C24	C	-4.019257	-0.506950	-0.452010
C25	C	-4.143712	-0.538664	-0.698584
C26	C	-4.213330	-0.654630	-0.738689
C27	C	-3.955260	-0.145795	-0.669577
C28	C	-4.018312	-0.144862	-0.812075
C29	C	-3.884681	-0.136362	-1.004185
C30	C	-3.819257	-0.137792	-0.856208
C31	C	-4.226043	-0.254336	-0.927989
C32	C	-4.290270	-0.253367	-1.076212
C33	C	-4.149225	-0.041388	-0.963030
C34	C	-4.078470	-0.040869	-0.813833
C35	C	-4.198479	0.053419	-0.368427
C36	C	-4.103637	0.176844	-0.325755
C37	C	-4.215820	-0.142182	-0.211411
C38	C	-4.132006	-0.143109	-0.068911
H39	H	-4.334507	-0.872851	-0.792276
H40	H	-4.473117	-0.262887	-1.122218
C41	C	-4.001937	0.069349	-0.951005
C42	C	-3.892962	0.048266	-1.038525
C43	C	-3.757222	0.150244	-1.027474
H44	H	-4.092607	0.108365	-0.979504
H45	H	-3.893074	0.113806	-0.855634
H46	H	-4.001811	0.003828	-1.133876
H47	H	-3.802252	0.009267	-1.010045
H48	H	-3.648358	0.194700	-0.932103
H49	H	-3.847909	0.189252	-1.055971
H50	H	-3.683250	0.135953	-1.086843
H51	H	-4.166037	-0.504358	-0.782643
H52	H	-3.663817	-0.059077	-0.774962
H53	H	-4.281543	-0.330389	-1.149788
H54	H	-3.866229	-0.209449	-1.078088
C55	C	-4.318740	-0.734627	-0.894390
C56	C	-4.327918	-0.672918	-0.976224
C57	C	-4.425037	-0.746574	-1.119661
H58	H	-4.230539	-0.776943	-0.909975
H59	H	-4.466628	-0.784127	-0.920601
H60	H	-4.180055	-0.623438	-0.950023
H61	H	-4.416132	-0.630606	-0.960683
H62	H	-4.572925	-0.796073	-1.145872
H63	H	-4.336825	-0.788885	-1.135231
H64	H	-4.431296	-0.704716	-1.175204
H65	H	-3.940243	-0.446840	-0.335300
C66	C	-3.751974	-0.236693	-0.858440
C67	C	-3.770135	-0.295392	-0.993185
C68	C	-3.708205	-0.386520	-0.995303
H69	H	-3.601049	-0.210053	-0.790223
H70	H	-3.848608	-0.285346	-0.836713
H71	H	-3.673502	-0.246748	-1.014895
H72	H	-3.921041	-0.322059	-1.061425
H73	H	-3.804839	-0.435173	-0.973576
H74	H	-3.557283	-0.359870	-0.927080
H75	H	-3.720539	-0.426365	-1.086728
H76	H	-3.760444	-0.057105	-0.994916
H77	H	-4.377229	-0.263462	-0.902421
C78	C	-3.831776	-0.553370	0.013373
C79	C	-3.822707	-0.615090	0.095192
C80	C	-3.725814	-0.541449	0.238622
H81	H	-3.683890	-0.503832	0.039707
H82	H	-3.920125	-0.511097	0.028835
H83	H	-3.734358	-0.657344	0.079738
H84	H	-3.970564	-0.664624	0.068902
H85	H	-3.814162	-0.499176	0.254084
H86	H	-3.577933	-0.491915	0.264941
H87	H	-3.719666	-0.583315	0.294153
H88	H	-3.907713	-0.496787	-0.212880
H89	H	-3.984283	-0.783636	-0.098382
C90	C	-4.174649	-0.357434	-0.930526
C91	C	-4.361752	-0.454281	-1.034481
C92	C	-4.314492	-0.549272	-1.036845
H93	H	-4.049035	-0.354219	-0.951465
H94	H	-4.141322	-0.359400	-0.840670
H95	H	-4.395050	-0.452315	-1.124317
H96	H	-4.487389	-0.457532	-1.013567
H97	H	-4.281165	-0.551238	-0.946988
H98	H	-4.188873	-0.546046	-1.057780
H99	H	-4.441438	-0.614994	-1.107368
H100	H	-4.284788	-0.949298	-0.604976
C101	C	-3.877956	0.067076	-0.705518
C102	C	-3.821554	0.068651	-0.570506
C103	C	-3.636864	0.168075	-0.470681
H104	H	-3.753571	0.070819	-0.727904
H105	H	-3.915341	0.129713	-0.706984
H106	H	-3.784158	0.006031	-0.569043
H107	H	-3.945885	0.064926	-0.548075
H108	H	-3.674249	0.230712	-0.472147
H109	H	-3.512495	0.171809	-0.493081
H110	H	-3.598584	0.169161	-0.379063
H111	H	-4.220469	-0.039583	-0.780866
H112	H	-4.328562	-0.045367	-1.005281
