data_functionalizedCrystal
_audit_creation_method	'MofGen! by Chris Wilmer'
_symmetry_space_group_name_H-M	'P1'
_symmetry_Int_Tables_number	1
_symmetry_cell_setting	triclinic
loop_
_symmetry_equiv_pos_as_xyz
  x,y,z
_cell_length_a	6.817900
_cell_length_b	14.858565
_cell_length_c	10.992410
_cell_angle_alpha	93.421726
_cell_angle_beta	108.764651
_cell_angle_gamma	104.523916
loop_
_atom_site_label
_atom_site_type_symbol
_atom_site_fract_x
_atom_site_fract_y
_atom_site_fract_z
V1	V	-4.092572	-0.128670	-0.400951
O2	O	-4.073418	0.006183	-0.392950
O3	O	-4.048847	-0.255131	-0.398564
O4	O	-4.070498	-0.126691	-0.575658
O5	O	-4.051617	-0.123146	-0.214630
V6	V	-4.572183	-0.112540	-0.378623
O7	O	-4.362412	-0.164052	-0.449931
O8	O	-4.752541	-0.077158	-0.329643
O9	O	-4.392702	0.013921	-0.381010
O10	O	-4.708735	-0.247393	-0.386624
O11	O	-4.730535	-0.118064	-0.564944
O12	O	-4.371051	-0.114519	-0.203916
C13	C	-3.894134	-0.285959	-0.392330
C14	C	-3.939846	-0.389343	-0.391542
C15	C	-3.921750	-0.122120	-0.618230
C16	C	-3.985016	-0.121339	-0.761056
C17	C	-4.107159	-0.767914	-0.388676
C18	C	-4.060599	-0.662584	-0.389473
C19	C	-4.023503	-0.578632	-0.390108
C20	C	-3.976941	-0.473295	-0.390907
C21	C	-3.853338	-0.114218	-0.956160
C22	C	-3.787586	-0.115417	-0.807680
C23	C	-4.167585	-0.213035	-0.838416
C24	C	-4.232035	-0.212224	-0.986980
C25	C	-4.139712	-0.034667	-0.948454
C26	C	-4.069076	-0.034232	-0.799440
C27	C	-4.210757	0.044745	-0.387241
C28	C	-4.144285	0.148127	-0.388037
C29	C	-4.183140	-0.119093	-0.161337
C30	C	-4.099112	-0.119870	-0.018510
H31	H	-3.650238	-0.049483	-0.754156
H32	H	-4.318135	-0.038000	-0.989304
H33	H	-4.048528	0.034965	-0.968618
Br34	Br	-4.306232	-0.032427	-0.745235
Br35	Br	-4.416089	-0.225780	-0.790457
Br36	Br	-4.187991	-0.319751	-1.064408
H37	H	-3.818088	-0.175437	-1.004323
Br38	Br	-3.676592	-0.003465	-0.986988
H39	H	-3.719950	-0.177485	-0.783038
Br40	Br	-4.533129	-0.225490	-1.058075
Br41	Br	-3.849355	0.078831	-0.711872
Br42	Br	-4.073170	-0.320830	-0.796041
