data_functionalizedCrystal
_audit_creation_method	'MofGen! by Chris Wilmer'
_symmetry_space_group_name_H-M	'P1'
_symmetry_Int_Tables_number	1
_symmetry_cell_setting	triclinic
loop_
_symmetry_equiv_pos_as_xyz
  x,y,z
_cell_length_a	12.759395
_cell_length_b	8.497374
_cell_length_c	12.759394
_cell_angle_alpha	90.008752
_cell_angle_beta	90.016374
_cell_angle_gamma	90.001171
loop_
_atom_site_label
_atom_site_type_symbol
_atom_site_fract_x
_atom_site_fract_y
_atom_site_fract_z
Zn1	Zn	1.606067	0.891930	-0.418406
Zn2	Zn	1.606017	0.628131	-0.594052
Zn3	Zn	1.430425	0.628159	-0.418393
Zn4	Zn	1.430357	0.891865	-0.594048
O5	O	1.518216	0.760021	-0.506225
O6	O	1.753082	0.856951	-0.441713
O7	O	1.582731	0.407372	-0.570747
O8	O	1.453773	0.663188	-0.271373
O9	O	1.753044	0.663139	-0.570760
O10	O	1.582817	0.856979	-0.271383
O11	O	1.453724	0.407393	-0.441691
O12	O	1.283395	0.663125	-0.441686
O13	O	1.453658	1.112636	-0.570752
O14	O	1.283345	0.856869	-0.570739
O15	O	1.582752	1.112683	-0.441708
O16	O	1.582666	0.663077	-0.741073
O17	O	1.453610	0.856841	-0.741070
C18	C	1.245249	0.759994	-0.506212
C19	C	1.128472	0.760020	-0.506232
C20	C	1.518153	0.759983	-0.779192
C21	C	1.518222	0.760019	-0.895969
C22	C	1.128459	0.961438	-0.640832
C23	C	1.073592	1.062152	-0.708140
C24	C	0.963871	1.062171	-0.708153
C25	C	0.909014	0.961469	-0.640848
C26	C	0.963881	0.860756	-0.573540
C27	C	1.073605	0.860744	-0.573536
C28	C	0.963894	0.659348	-0.438936
C29	C	1.073615	0.659318	-0.438927
C30	C	0.909037	0.558646	-0.371631
C31	C	0.963904	0.457922	-0.304326
C32	C	1.073632	0.457905	-0.304317
C33	C	1.128483	0.558604	-0.371618
C34	C	1.652710	0.558404	-0.895919
C35	C	1.719980	0.457615	-0.950755
C36	C	1.720042	0.457658	-1.060476
C37	C	1.652828	0.558504	-1.115365
C38	C	1.585557	0.659293	-1.060529
C39	C	1.585500	0.659236	-0.950805
C40	C	1.451077	0.860914	-1.060579
C41	C	1.451008	0.860866	-0.950857
C42	C	1.383862	0.961760	-1.115467
C43	C	1.316585	1.062544	-1.060631
C44	C	1.316525	1.062496	-0.950903
C45	C	1.383737	0.961655	-0.896021
C46	C	1.792250	0.760049	-0.506238
C47	C	1.909026	0.760061	-0.506244
C48	C	1.518209	1.171501	-0.506226
C49	C	1.518211	1.350146	-0.506237
C50	C	1.518308	0.760094	-0.232191
C51	C	1.518348	0.760125	-0.115414
H52	H	1.217800	0.961421	-0.640836
F53	F	1.132018	0.350717	-0.232671
H54	H	0.919198	1.144189	-0.762956
H55	H	1.217824	0.558596	-0.371620
H56	H	0.819673	0.961508	-0.640855
H57	H	1.261869	1.144652	-1.105330
F58	F	1.652880	0.558696	-0.779144
F59	F	0.792261	0.558678	-0.371640
H60	H	0.919231	0.375946	-0.249527
F61	F	1.791515	0.350298	-0.892332
F62	F	1.791643	0.350395	-1.118838
F63	F	1.652549	0.558021	-1.232139
H64	H	1.118269	1.144144	-0.762937
H65	H	1.261749	1.144577	-0.906261
F66	F	1.383582	0.961281	-1.232242
H67	H	1.383688	0.961596	-0.806680
