data_functionalizedCrystal
_audit_creation_method	'MofGen! by Chris Wilmer'
_symmetry_space_group_name_H-M	'P1'
_symmetry_Int_Tables_number	1
_symmetry_cell_setting	triclinic
loop_
_symmetry_equiv_pos_as_xyz
  x,y,z
_cell_length_a	12.837939
_cell_length_b	12.811424
_cell_length_c	11.892095
_cell_angle_alpha	91.507408
_cell_angle_beta	94.310906
_cell_angle_gamma	89.411883
loop_
_atom_site_label
_atom_site_type_symbol
_atom_site_fract_x
_atom_site_fract_y
_atom_site_fract_z
O1	O	-1.385143	-0.265176	-0.121174
O2	O	-1.083183	-0.251780	-0.119806
O3	O	-1.240669	-0.107441	-0.105001
O4	O	-1.227658	-0.409514	-0.135979
O5	O	-1.227538	-0.119456	0.081775
O6	O	-1.070052	-0.263794	0.066970
O7	O	-1.372012	-0.277190	0.065601
Zn8	Zn	-1.218948	-0.272399	0.095940
Zn9	Zn	-1.236248	-0.256570	-0.150144
O10	O	-1.214527	-0.421528	0.050796
C11	C	-1.037945	-0.253262	-0.025955
C12	C	-0.922712	-0.239765	-0.024573
C13	C	-1.232972	-0.074516	-0.007623
C14	C	-1.229587	0.041492	0.004267
C15	C	-0.683627	-0.402026	-0.041195
C16	C	-0.575354	-0.389349	-0.039897
C17	C	-0.597893	-0.201736	-0.020668
C18	C	-0.706165	-0.214413	-0.021967
C19	C	-0.749028	-0.314561	-0.032233
C20	C	-0.857303	-0.327236	-0.033539
C21	C	-0.879839	-0.139624	-0.014303
C22	C	-0.771566	-0.126948	-0.013005
C23	C	-0.417251	-0.275709	-0.028251
C24	C	-0.532484	-0.289207	-0.029635
C25	C	-1.237526	0.272573	-0.177037
C26	C	-1.234347	0.381573	-0.165871
C27	C	-1.220041	0.368495	0.037764
C28	C	-1.223221	0.259494	0.026598
C29	C	-1.231965	0.211538	-0.080806
C30	C	-1.235152	0.102536	-0.091971
C31	C	-1.220839	0.089459	0.111663
C32	C	-1.217660	0.198459	0.122829
C33	C	-1.222223	0.545546	-0.046582
C34	C	-1.225606	0.429538	-0.058474
N35	N	-1.207148	-0.283202	0.263886
N36	N	-1.248056	-0.245760	-0.318090
C37	C	-1.330164	-0.170527	0.512091
C38	C	-1.321923	-0.178087	0.629658
C39	C	-1.182422	-0.305875	0.616588
C40	C	-1.190663	-0.298315	0.499022
C41	C	-1.264537	-0.230641	0.446777
C42	C	-1.272781	-0.223087	0.329208
C43	C	-1.133276	-0.350869	0.316142
C44	C	-1.125036	-0.358429	0.433708
H45	H	-0.718526	-0.483570	-0.049556
C46	C	-1.043786	-0.432869	0.491183
H47	H	-1.048281	-0.428768	0.570555
H48	H	-0.975742	-0.413397	0.473801
H49	H	-1.057225	-0.502380	0.464659
C50	C	-0.724411	-0.016794	-0.001719
H51	H	-0.650562	-0.021769	-0.002237
H52	H	-0.742209	0.015492	0.067147
H53	H	-0.751364	0.023850	-0.063129
C54	C	-0.951778	-0.043405	-0.004444
H55	H	-0.910740	0.018051	0.001846
H56	H	-0.989911	-0.048633	0.060578
H57	H	-0.999056	-0.040266	-0.069696
H58	H	-1.244655	0.233527	-0.264489
H59	H	-1.216315	0.039752	0.190021
H60	H	-1.238871	0.431265	-0.244232
C61	C	-1.210428	0.421260	0.155894
H62	H	-1.209338	0.494918	0.148757
H63	H	-1.147625	0.398762	0.195711
H64	H	-1.268413	0.402664	0.196089
C65	C	-1.354034	-0.148645	0.271740
H66	H	-1.391930	-0.113919	0.327483
H67	H	-1.400886	-0.187528	0.221577
H68	H	-1.319405	-0.098543	0.230724
H69	H	-1.390322	-0.115431	0.469552
H70	H	-1.079842	-0.399821	0.262949
C71	C	-1.208049	0.251218	0.240963
H72	H	-1.206959	0.324876	0.233832
H73	H	-1.145245	0.228717	0.280778
H74	H	-1.266034	0.232618	0.281154
C75	C	-1.394115	-0.111966	0.701499
H76	H	-1.439294	-0.070586	0.653541
H77	H	-1.353069	-0.067765	0.752206
H78	H	-1.434539	-0.156759	0.743058
H79	H	-0.892199	-0.408781	-0.041896
C80	C	-0.503417	-0.485560	-0.049765
H81	H	-0.544456	-0.547015	-0.056074
H82	H	-0.456129	-0.488704	0.015471
H83	H	-0.465296	-0.480324	-0.114802
C84	C	-1.101168	-0.380306	0.674071
H85	H	-1.105665	-0.376198	0.753443
H86	H	-1.033126	-0.360829	0.656689
H87	H	-1.114599	-0.449821	0.647555
H88	H	-0.562968	-0.120206	-0.012218
H89	H	-1.242275	0.063492	-0.179425
