data_functionalizedCrystal
_audit_creation_method	'MofGen! by Chris Wilmer'
_symmetry_space_group_name_H-M	'P1'
_symmetry_Int_Tables_number	1
_symmetry_cell_setting	triclinic
loop_
_symmetry_equiv_pos_as_xyz
  x,y,z
_cell_length_a	19.077105
_cell_length_b	25.639239
_cell_length_c	19.077237
_cell_angle_alpha	92.269360
_cell_angle_beta	85.486555
_cell_angle_gamma	87.734929
loop_
_atom_site_label
_atom_site_type_symbol
_atom_site_fract_x
_atom_site_fract_y
_atom_site_fract_z
Zn1	Zn	1.093599	-0.254028	-0.441820
Zn2	Zn	1.088762	-0.337802	-0.323927
Zn3	Zn	0.970992	-0.246722	-0.319220
Zn4	Zn	0.975650	-0.337766	-0.437044
O5	O	1.032251	-0.294079	-0.380503
O6	O	1.191606	-0.268214	-0.430151
O7	O	1.069166	-0.322678	-0.224654
O8	O	0.987332	-0.174529	-0.335511
O9	O	1.188052	-0.329762	-0.343535
O10	O	1.077410	-0.179897	-0.425586
O11	O	0.982641	-0.255761	-0.221195
O12	O	0.872961	-0.255726	-0.330880
O13	O	0.995269	-0.329700	-0.536327
O14	O	0.876383	-0.322616	-0.417445
O15	O	1.081926	-0.268178	-0.539836
O16	O	1.073682	-0.410959	-0.338904
O17	O	0.990579	-0.410933	-0.422010
C18	C	0.849094	-0.288374	-0.373134
C19	C	0.770739	-0.285947	-0.369998
C20	C	0.735725	-0.319680	-0.413524
C21	C	0.662102	-0.317393	-0.410581
C22	C	0.623495	-0.281374	-0.364109
C23	C	0.658514	-0.247636	-0.320581
C24	C	0.732136	-0.249922	-0.323528
C25	C	0.403119	-0.270796	-0.350473
C26	C	0.329492	-0.268514	-0.347528
C27	C	0.333085	-0.338270	-0.437529
C28	C	0.406708	-0.340555	-0.440469
C29	C	0.441721	-0.306816	-0.396944
N30	N	0.548241	-0.279036	-0.361098
N31	N	0.516973	-0.309152	-0.399959
C32	C	1.032131	-0.429917	-0.380466
C33	C	1.032145	-0.488032	-0.380476
C34	C	1.075643	-0.848406	-0.337311
C35	C	1.075671	-0.903012	-0.337321
O36	O	1.112530	-0.931253	-0.300580
N37	N	1.032376	-0.930324	-0.380555
C38	C	0.989057	-0.903028	-0.423785
O39	O	0.952235	-0.931272	-0.460560
C40	C	0.989033	-0.848423	-0.423778
C41	C	1.032325	-0.821114	-0.380537
C42	C	1.118932	-0.821097	-0.294074
C43	C	1.118903	-0.766495	-0.294062
C44	C	1.075585	-0.739203	-0.337288
C45	C	1.032296	-0.766512	-0.380525
C46	C	0.945718	-0.821128	-0.467012
C47	C	0.945699	-0.766520	-0.467001
C48	C	0.988991	-0.739211	-0.423760
C49	C	0.988950	-0.684618	-0.423740
N50	N	1.032244	-0.657306	-0.380507
C51	C	1.075562	-0.684599	-0.337281
C52	C	0.989110	-1.017700	-0.423798
C53	C	0.989130	-1.072303	-0.423802
C54	C	1.075745	-1.072284	-0.337339
C55	C	1.075721	-1.017680	-0.337332
C56	C	1.032405	-0.990388	-0.380565
C57	C	1.075497	-0.569931	-0.337260
C58	C	1.075463	-0.515324	-0.337250
C59	C	0.988851	-0.515349	-0.423716
C60	C	0.988883	-0.569950	-0.423723
C61	C	1.032212	-0.597240	-0.380493
O62	O	0.952112	-0.656342	-0.460464
O63	O	1.112384	-0.656348	-0.300519
C64	C	1.216123	-0.299807	-0.387901
C65	C	1.294478	-0.302248	-0.391053
C66	C	1.039657	-0.299750	-0.564375
C67	C	1.042813	-0.302167	-0.642730
C68	C	1.032391	-0.157712	-0.380556
C69	C	1.032450	-0.099600	-0.380579
C70	C	1.065454	-0.319537	-1.083981
C71	C	1.062478	-0.317263	-1.010358
C72	C	1.015946	-0.281284	-0.971753
C73	C	0.972381	-0.247580	-1.006776
C74	C	0.975354	-0.249857	-1.080398
C75	C	1.002221	-0.270740	-0.751374
C76	C	0.999253	-0.268464	-0.677747
C77	C	1.089350	-0.338148	-0.681335
C78	C	1.092321	-0.340420	-0.754958
C79	C	1.048754	-0.306718	-0.789974
N80	N	1.012904	-0.278957	-0.896498
N81	N	1.051792	-0.309048	-0.865227
C82	C	1.024914	-0.288394	-0.197348
C83	C	1.021894	-0.285835	-0.118999
H84	H	0.304570	-0.365738	-0.472966
C85	C	1.170140	-0.958858	-0.331416
C86	C	1.123311	-0.987663	-0.289805
H87	H	1.199519	-0.940327	-0.302072
H88	H	1.198323	-0.981918	-0.363233
H89	H	1.144335	-0.934786	-0.357154
H90	H	1.149117	-1.011737	-0.264070
H91	H	1.095125	-0.964600	-0.257976
H92	H	1.110716	-0.493091	-0.302036
C93	C	0.852122	-0.217695	-0.979323
C94	C	0.921229	-0.208033	-0.964340
H95	H	0.820544	-0.193281	-0.953122
H96	H	0.847661	-0.214225	-1.028175
H97	H	0.841291	-0.252130	-0.966822
H98	H	0.932062	-0.173600	-0.976847
H99	H	0.925693	-0.211499	-0.915478
H100	H	0.953580	-0.493119	-0.458908
H101	H	1.110782	-0.592144	-0.302060
H102	H	1.103349	-0.348833	-1.115408
H103	H	1.097941	-0.344713	-0.981850
H104	H	0.298060	-0.239177	-0.309688
H105	H	1.154157	-0.744263	-0.258854
H106	H	0.939884	-0.222412	-1.108908
H107	H	1.124819	-0.365587	-0.652817
H108	H	0.961362	-0.239162	-0.646317
H109	H	0.966745	-0.243298	-0.779875
H110	H	0.910426	-0.744303	-0.502209
C111	C	0.731874	-0.388396	-0.502197
C112	C	0.778158	-0.359273	-0.464612
H113	H	0.758071	-0.412835	-0.533741
H114	H	0.701900	-0.406519	-0.470285
H115	H	0.704270	-0.365582	-0.528065
H116	H	0.805760	-0.382086	-0.438740
H117	H	0.808145	-0.341148	-0.496529
H118	H	1.130212	-0.369718	-0.786385
C119	C	1.204531	-0.815578	-0.208603
C120	C	1.166548	-0.851090	-0.246550
H121	H	1.233922	-0.834093	-0.179255
H122	H	1.232700	-0.796042	-0.240422
H123	H	1.172729	-0.792521	-0.180385
H124	H	1.198351	-0.874146	-0.274771
H125	H	1.138377	-0.870635	-0.214726
C126	C	0.579633	-0.385452	-0.416874
C127	C	0.623608	-0.354474	-0.458420
H128	H	0.555864	-0.408342	-0.446410
H129	H	0.607091	-0.405356	-0.387266
H130	H	0.546111	-0.363664	-0.388779
H131	H	0.657134	-0.376262	-0.486512
H132	H	0.596148	-0.334568	-0.488041
C133	C	0.894631	-0.953716	-0.429695
C134	C	0.941485	-0.987702	-0.471316
H135	H	0.865234	-0.935197	-0.459032
H136	H	0.866469	-0.973261	-0.397881
H137	H	0.920417	-0.929634	-0.403952
H138	H	0.915699	-1.011786	-0.497055
H139	H	0.969650	-0.968156	-0.503142
C140	C	0.434183	-0.370541	-0.560687
C141	C	0.449140	-0.380146	-0.491558
H142	H	0.460382	-0.394984	-0.592226
H143	H	0.385331	-0.374009	-0.565156
H144	H	0.446703	-0.336119	-0.571566
H145	H	0.436614	-0.414567	-0.480678
H146	H	0.498003	-0.376684	-0.487088
C147	C	0.420964	-0.242211	-0.232073
C148	C	0.441596	-0.233712	-0.302627
H149	H	0.444724	-0.219316	-0.202535
H150	H	0.371599	-0.235699	-0.223675
H151	H	0.432591	-0.277381	-0.222159
H152	H	0.429965	-0.198542	-0.312543
H153	H	0.490973	-0.240220	-0.311028
C154	C	0.571889	-0.234765	-0.222460
C155	C	0.616078	-0.208042	-0.269499
H156	H	0.545696	-0.210320	-0.190921
H157	H	0.540503	-0.254525	-0.247960
H158	H	0.599505	-0.257568	-0.196588
H159	H	0.588462	-0.185241	-0.295374
H160	H	0.647469	-0.188273	-0.243995
C161	C	0.721194	-0.180750	-0.234259
C162	C	0.770626	-0.212845	-0.275676
H163	H	0.744957	-0.157862	-0.204715
H164	H	0.693744	-0.160843	-0.263872
H165	H	0.691363	-0.201780	-0.206092
H166	H	0.800453	-0.191816	-0.303848
H167	H	0.798087	-0.232754	-0.246060
C168	C	1.170273	-1.136228	-0.331534
C169	C	1.123424	-1.102270	-0.289861
H170	H	1.199725	-1.154732	-0.302234
H171	H	1.144490	-1.160318	-0.357251
H172	H	1.198386	-1.116659	-0.363372
H173	H	1.095308	-1.121839	-0.258027
H174	H	1.149211	-1.078177	-0.264132
C175	C	0.903515	-1.066824	-0.509266
C176	C	0.941538	-1.102318	-0.471330
H177	H	0.874139	-1.085354	-0.538614
H178	H	0.875328	-1.043773	-0.477440
H179	H	0.935294	-1.047280	-0.537482
H180	H	0.909759	-1.121859	-0.443110
H181	H	0.969726	-1.125378	-0.503161
C182	C	0.860120	-0.815640	-0.552489
C183	C	0.898134	-0.851137	-0.514550
H184	H	0.830747	-0.834167	-0.581842
H185	H	0.831932	-0.792589	-0.520664
H186	H	0.891904	-0.796096	-0.580699
H187	H	0.866350	-0.870679	-0.486335
H188	H	0.926325	-0.874197	-0.546379
C189	C	0.903269	-0.564482	-0.509191
C190	C	0.941296	-0.599972	-0.471254
H191	H	0.873899	-0.583015	-0.538542
H192	H	0.875076	-0.541435	-0.477366
H193	H	0.935046	-0.544934	-0.537404
H194	H	0.909520	-0.619518	-0.443037
H195	H	0.969492	-0.623029	-0.503083
