data_functionalizedCrystal
_audit_creation_method	'MofGen! by Chris Wilmer'
_symmetry_space_group_name_H-M	'P1'
_symmetry_Int_Tables_number	1
_symmetry_cell_setting	triclinic
loop_
_symmetry_equiv_pos_as_xyz
  x,y,z
_cell_length_a	21.395362
_cell_length_b	21.295416
_cell_length_c	21.395355
_cell_angle_alpha	90.018978
_cell_angle_beta	89.956060
_cell_angle_gamma	89.953791
loop_
_atom_site_label
_atom_site_type_symbol
_atom_site_fract_x
_atom_site_fract_y
_atom_site_fract_z
Zn1	Zn	0.957861	0.250415	-0.354584
Zn2	Zn	0.957764	0.355667	-0.249805
Zn3	Zn	0.853076	0.250445	-0.249785
Zn4	Zn	0.853046	0.355680	-0.354510
O5	O	0.905437	0.303052	-0.302171
O6	O	1.045526	0.264359	-0.340724
O7	O	0.943849	0.341716	-0.162125
O8	O	0.867029	0.162351	-0.263709
O9	O	1.045455	0.341687	-0.263744
O10	O	0.944014	0.162330	-0.340704
O11	O	0.866935	0.264409	-0.162110
O12	O	0.765394	0.264422	-0.263638
O13	O	0.866978	0.341709	-0.442198
O14	O	0.765372	0.341738	-0.340579
O15	O	0.943985	0.264372	-0.442252
O16	O	0.943820	0.443758	-0.263672
O17	O	0.866884	0.443767	-0.340598
C18	C	0.742649	0.303085	-0.302098
C19	C	0.673008	0.303114	-0.302082
C20	C	0.640300	0.343426	-0.342085
C21	C	0.574864	0.343411	-0.342113
C22	C	0.542140	0.303090	-0.302127
C23	C	0.574856	0.262771	-0.262121
C24	C	0.640290	0.262783	-0.262098
C25	C	0.438415	0.298019	-0.245721
C26	C	0.372982	0.298011	-0.245743
C27	C	0.340319	0.303049	-0.302196
C28	C	0.373097	0.308108	-0.358629
C29	C	0.438531	0.308120	-0.358607
C30	C	0.471187	0.303072	-0.302147
C31	C	0.236658	0.343346	-0.342233
C32	C	0.171222	0.343326	-0.342262
C33	C	0.171214	0.262690	-0.262264
C34	C	0.236650	0.262706	-0.262240
C35	C	0.269368	0.303038	-0.302224
C36	C	0.905355	0.466603	-0.302143
C37	C	0.905378	0.536571	-0.302152
C38	C	0.945474	0.569412	-0.262139
C39	C	0.945504	0.635155	-0.262156
C40	C	0.905426	0.668054	-0.302180
C41	C	0.865326	0.635205	-0.342200
C42	C	0.865302	0.569464	-0.342187
N43	N	0.850616	0.771336	-0.306936
N44	N	0.850641	0.833787	-0.306945
C45	C	0.905496	0.866129	-0.302224
N46	N	0.960328	0.833659	-0.297481
N47	N	0.960303	0.771202	-0.297468
C48	C	0.905447	0.739339	-0.302199
C49	C	0.945628	0.970255	-0.262227
C50	C	0.945659	1.035999	-0.262249
C51	C	0.865476	1.036048	-0.342289
C52	C	0.865451	0.970305	-0.342271
C53	C	0.905526	0.937413	-0.302237
C54	C	1.068860	0.303019	-0.302244
C55	C	1.138501	0.303005	-0.302275
C56	C	0.905489	0.303039	-0.465594
C57	C	0.905511	0.303033	-0.535236
C58	C	0.905537	1.138861	-0.302223
C59	C	0.905581	1.068893	-0.302273
C60	C	0.945607	0.262762	-0.567978
C61	C	0.945606	0.262735	-0.633413
C62	C	0.905516	0.302991	-0.666104
C63	C	0.865412	0.343265	-0.633354
C64	C	0.865410	0.343286	-0.567920
C65	C	0.900540	0.359672	-0.769767
C66	C	0.900547	0.359652	-0.835200
C67	C	0.905520	0.302924	-0.867925
C68	C	0.910499	0.246215	-0.835208
C69	C	0.910496	0.246237	-0.769774
C70	C	0.905514	0.302972	-0.737056
C71	C	0.945617	0.262620	-0.971620
C72	C	0.945612	0.262592	-1.037056
C73	C	0.865421	0.343127	-1.036996
C74	C	0.865423	0.343150	-0.971560
C75	C	0.905524	0.302897	-0.938876
C76	C	0.905421	0.303019	-0.139383
C77	C	0.905520	0.302847	-0.069742
H78	H	0.346504	0.312209	-0.404599
H79	H	0.548228	0.376237	-0.374691
Cl80	Cl	0.479736	0.314475	-0.429549
H81	H	0.832696	0.661996	-0.374789
H82	H	0.263281	0.229883	-0.229662
H83	H	0.978260	0.229985	-0.541371
H84	H	0.896323	0.405855	-0.743129
H85	H	0.548207	0.229940	-0.229564
H86	H	0.832847	1.062834	-0.374880
H87	H	0.832768	0.376039	-0.659975
H88	H	0.263299	0.376183	-0.374793
H89	H	0.978157	0.661899	-0.229573
H90	H	0.978314	1.062736	-0.229667
H91	H	0.346299	0.293896	-0.199791
Cl92	Cl	0.479470	0.291688	-0.174744
H93	H	0.978256	0.229938	-0.660077
H94	H	0.144592	0.376152	-0.374841
H95	H	0.914549	0.200062	-0.743139
H96	H	0.914549	0.200022	-0.861851
Cl97	Cl	0.815038	0.929017	-0.392573
Cl98	Cl	0.130081	0.211996	-0.211998
Cl99	Cl	0.681411	0.212101	-0.211804
H100	H	0.978107	0.542633	-0.229543
H101	H	0.832772	0.375897	-1.063612
Cl102	Cl	0.815000	0.393918	-0.526756
Cl103	Cl	0.814891	0.528176	-0.392492
H104	H	0.978262	0.943473	-0.229631
H105	H	0.978266	0.229840	-0.945007
H106	H	0.978262	0.229795	-1.063714
H107	H	0.832776	0.375947	-0.944901
H108	H	0.666935	0.376266	-0.374644
Cl109	Cl	0.894294	0.430942	-0.876323
