data_functionalizedCrystal
_audit_creation_method	'MofGen! by Chris Wilmer'
_symmetry_space_group_name_H-M	'P1'
_symmetry_Int_Tables_number	1
_symmetry_cell_setting	triclinic
loop_
_symmetry_equiv_pos_as_xyz
  x,y,z
_cell_length_a	16.974897
_cell_length_b	8.559649
_cell_length_c	15.455313
_cell_angle_alpha	92.289439
_cell_angle_beta	83.675220
_cell_angle_gamma	76.604300
loop_
_atom_site_label
_atom_site_type_symbol
_atom_site_fract_x
_atom_site_fract_y
_atom_site_fract_z
O1	O	1.044600	0.189691	-0.145377
O2	O	0.811943	0.217191	-0.129064
O3	O	0.948769	-0.029343	-0.138657
O4	O	0.907774	0.436225	-0.135784
O5	O	0.940948	-0.015303	0.006153
O6	O	0.804122	0.231231	0.015747
O7	O	1.036779	0.203731	-0.000567
Cu8	Cu	0.919737	0.218763	0.020812
Cu9	Cu	0.928986	0.202159	-0.150443
O10	O	0.899953	0.450265	0.009026
C11	C	0.778523	0.223422	-0.054590
C12	C	0.690595	0.221051	-0.048424
C13	C	0.653542	0.212288	-0.124458
C14	C	0.570920	0.210087	-0.118652
C15	C	0.525355	0.216637	-0.036812
C16	C	0.562413	0.225405	0.039227
C17	C	0.645032	0.227618	0.033420
C18	C	0.277804	0.210852	-0.010982
C19	C	0.195181	0.208633	-0.005181
C20	C	0.203693	0.193318	-0.163060
C21	C	0.286314	0.195522	-0.168860
C22	C	0.323364	0.204298	-0.092821
N23	N	0.440903	0.214382	-0.030876
N24	N	0.407813	0.206564	-0.098758
C25	C	0.947965	-0.081881	-0.066471
C26	C	0.957213	-0.259343	-0.067124
C27	C	1.070199	0.197500	-0.075043
C28	C	1.158128	0.199871	-0.081214
C29	C	0.900757	0.502802	-0.063162
C30	C	0.891510	0.680265	-0.062514
N31	N	0.913237	0.230440	0.141263
N32	N	0.935492	0.190469	-0.270895
C33	C	0.971381	0.125742	0.182581
C34	C	0.966473	0.134588	0.273733
C35	C	0.903422	0.248141	0.323566
C36	C	0.845272	0.352843	0.282242
C37	C	0.850179	0.343989	0.191092
C38	C	0.882248	0.286317	0.596632
C39	C	0.877348	0.295167	0.687788
C40	C	0.998548	0.076909	0.679272
C41	C	1.003451	0.068071	0.588121
C42	C	0.945299	0.172768	0.546805
N43	N	0.898405	0.257189	0.416738
N44	N	0.950314	0.163711	0.453635
H45	H	0.525306	0.230748	0.105863
Br46	Br	0.785958	-0.179635	-0.055108
H47	H	1.045892	-0.008333	0.712920
H48	H	0.826002	0.387642	0.728358
H49	H	0.834900	0.371569	0.563000
Br50	Br	0.771260	0.486076	0.135018
Br51	Br	0.759697	0.506943	0.349869
Br52	Br	0.133348	0.217482	0.105895
Br53	Br	0.695318	0.239525	0.136613
H54	H	1.020542	-0.343411	-0.071558
Br55	Br	1.056959	-0.028362	0.114960
Br56	Br	1.045381	-0.007509	0.329810
Br57	Br	0.328076	0.222766	0.092215
Br58	Br	1.089022	-0.086031	0.520489
H59	H	0.690636	0.206949	-0.191101
Br60	Br	0.348149	0.186614	-0.279932
H61	H	0.173517	0.186176	-0.224967
H62	H	0.540755	0.202951	-0.180566
