data_functionalizedCrystal
_audit_creation_method	'MofGen! by Chris Wilmer'
_symmetry_space_group_name_H-M	'P1'
_symmetry_Int_Tables_number	1
_symmetry_cell_setting	triclinic
loop_
_symmetry_equiv_pos_as_xyz
  x,y,z
_cell_length_a	13.339070
_cell_length_b	13.339070
_cell_length_c	11.804365
_cell_angle_alpha	105.112168
_cell_angle_beta	105.125978
_cell_angle_gamma	64.370703
loop_
_atom_site_label
_atom_site_type_symbol
_atom_site_fract_x
_atom_site_fract_y
_atom_site_fract_z
O1	O	-1.512779	0.534570	-0.099094
O2	O	-1.197968	0.462312	-0.099081
O3	O	-1.319243	0.341037	-0.099083
O4	O	-1.391505	0.655845	-0.099093
O5	O	-1.287303	0.372920	0.098974
O6	O	-1.166028	0.494195	0.098975
O7	O	-1.480840	0.566452	0.098962
Cu8	Cu	-1.320518	0.533235	0.117053
Cu9	Cu	-1.358290	0.495530	-0.117172
O10	O	-1.359565	0.687727	0.098964
C11	C	-1.140883	0.466048	-0.000051
C12	C	-1.018368	0.429665	-0.000047
C13	C	-0.732983	0.712561	-0.000066
C14	C	-0.848093	0.746747	-0.000075
C15	C	-0.890668	0.667479	-0.000067
C16	C	-0.818121	0.554020	-0.000052
C17	C	-0.703001	0.519828	-0.000053
C18	C	-0.860685	0.474747	-0.000054
C19	C	-0.788138	0.361287	-0.000039
C20	C	-0.673030	0.327102	-0.000039
C21	C	-0.630455	0.406370	-0.000047
C22	C	-0.975805	0.508938	-0.000053
C23	C	-0.945822	0.316206	-0.000040
C24	C	-0.830712	0.282020	-0.000032
C25	C	-1.291067	0.315863	-0.000056
C26	C	-1.254684	0.193348	-0.000059
C27	C	-1.537585	-0.092041	-0.000070
C28	C	-1.571771	0.023069	-0.000060
C29	C	-1.492502	0.065645	-0.000060
C30	C	-1.379042	-0.006901	-0.000069
C31	C	-1.344851	-0.122021	-0.000070
C32	C	-1.299768	0.035664	-0.000060
C33	C	-1.186307	-0.036882	-0.000069
C34	C	-1.152122	-0.151990	-0.000071
C35	C	-1.231391	-0.194566	-0.000070
C36	C	-1.333959	0.150784	-0.000060
C37	C	-1.141225	0.120804	-0.000060
C38	C	-1.107039	0.005694	-0.000070
C39	C	-0.537925	0.562718	-0.000064
C40	C	-0.660438	0.599102	-0.000060
C41	C	-1.387741	0.712901	-0.000066
C42	C	-1.424125	0.835415	-0.000071
N43	N	-1.293959	0.559756	0.281794
N44	N	-1.384856	0.469003	-0.281913
C45	C	-1.448628	0.405295	0.655741
C46	C	-1.468717	0.385227	0.531079
C47	C	-1.425029	0.428857	0.468751
C48	C	-1.361249	0.492559	0.531098
C49	C	-1.341165	0.512637	0.655772
C50	C	-1.317566	0.536199	0.468783
C51	C	-1.253785	0.599901	0.531130
C52	C	-1.233704	0.619975	0.655791
C53	C	-1.277392	0.576345	0.718119
C54	C	-1.337650	0.516121	0.344109
C55	C	-1.230186	0.623463	0.344140
C56	C	-1.210097	0.643531	0.468802
H57	H	-0.536724	0.378541	-0.000039
F58	F	-0.986288	-0.071528	-0.000082
H59	H	-1.426339	0.209841	-0.000052
F60	F	-1.183691	0.669905	0.277812
F61	F	-1.013179	0.703867	-0.000074
H62	H	-0.613966	0.234714	-0.000040
H63	H	-0.907155	0.839124	-0.000096
H64	H	-1.520343	0.159374	-0.000052
H65	H	-1.602111	-0.126716	-0.000060
H66	H	-0.698309	0.777086	-0.000082
F67	F	-1.053002	0.629686	-0.000069
F68	F	-0.753490	0.161270	-0.000017
F69	F	-0.991128	0.231836	-0.000040
H70	H	-1.664150	0.082129	-0.000051
H71	H	-1.261032	0.592680	0.819629
H72	H	-1.203563	-0.288298	-0.000083
H73	H	-1.059734	-0.211054	-0.000069
F74	F	-1.495128	0.358878	0.722077
F75	F	-1.056853	0.166110	-0.000053
F76	F	-1.405527	0.448327	0.277769
F77	F	-1.446409	0.407496	0.336074
F78	F	-1.536595	0.317436	0.464729
H79	H	-1.181781	0.671855	0.706554
H80	H	-1.158166	0.695400	0.519581
