data_functionalizedCrystal
_audit_creation_method	'MofGen! by Chris Wilmer'
_symmetry_space_group_name_H-M	'P1'
_symmetry_Int_Tables_number	1
_symmetry_cell_setting	triclinic
loop_
_symmetry_equiv_pos_as_xyz
  x,y,z
_cell_length_a	17.699083
_cell_length_b	19.188924
_cell_length_c	16.176319
_cell_angle_alpha	89.991125
_cell_angle_beta	89.998611
_cell_angle_gamma	83.212490
loop_
_atom_site_label
_atom_site_type_symbol
_atom_site_fract_x
_atom_site_fract_y
_atom_site_fract_z
O1	O	1.003960	0.088295	-0.068634
O2	O	1.503960	0.588295	0.431366
O3	O	0.783566	0.099782	-0.068662
O4	O	1.283566	0.599782	0.431338
O5	O	0.900126	-0.007610	-0.068638
O6	O	1.400126	0.492390	0.431362
O7	O	0.887400	0.195687	-0.068659
O8	O	1.387400	0.695687	0.431341
O9	O	0.900110	-0.007617	0.068855
O10	O	1.400110	0.492383	0.568855
O11	O	0.783550	0.099775	0.068831
O12	O	1.283550	0.599775	0.568831
O13	O	1.003944	0.088288	0.068859
O14	O	1.503944	0.588288	0.568859
Cu15	Cu	0.893746	0.094031	0.081399
Cu16	Cu	1.393746	0.594031	0.581399
Cu17	Cu	0.893765	0.094039	-0.081202
Cu18	Cu	1.393765	0.594039	0.418798
O19	O	0.887384	0.195680	0.068834
O20	O	1.387384	0.695680	0.568834
C21	C	0.755362	0.099367	0.000081
C22	C	1.255362	0.599367	0.500081
C23	C	0.671345	0.098132	0.000071
C24	C	1.171345	0.598132	0.500071
C25	C	0.622640	0.161169	0.000065
C26	C	1.122640	0.661169	0.500065
C27	C	0.543698	0.160005	0.000076
C28	C	1.043698	0.660005	0.500076
C29	C	0.513464	0.095803	0.000087
C30	C	1.013464	0.595803	0.500087
C31	C	0.562175	0.032761	0.000096
C32	C	1.062175	0.532761	0.500096
C33	C	0.641116	0.033926	0.000091
C34	C	1.141116	0.533926	0.500091
C35	C	0.243819	0.028060	0.000116
C36	C	0.743819	0.528060	0.500116
C37	C	0.164872	0.026900	0.000119
C38	C	0.664872	0.526900	0.500119
C39	C	0.146401	0.154139	0.000101
C40	C	0.646401	0.654139	0.500101
C41	C	0.225341	0.155305	0.000096
C42	C	0.725341	0.655305	0.500096
C43	C	0.274046	0.092263	0.000110
C44	C	0.774046	0.592263	0.500110
C45	C	0.359644	0.093526	0.000099
C46	C	0.859644	0.593526	0.500099
C47	C	0.427868	0.094538	0.000091
C48	C	0.927868	0.594538	0.500091
C49	C	0.899707	-0.033625	0.000110
C50	C	1.399707	0.466375	0.500110
C51	C	0.898472	-0.111132	0.000112
C52	C	1.398472	0.388868	0.500112
C53	C	0.897905	-0.147527	-0.074836
C54	C	1.397905	0.352473	0.425164
C55	C	0.896734	-0.220351	-0.074843
C56	C	1.396734	0.279649	0.425157
C57	C	0.896146	-0.256779	0.000103
C58	C	1.396146	0.243221	0.500103
C59	C	0.896710	-0.220374	0.075061
C60	C	1.396710	0.279626	0.575061
C61	C	0.897873	-0.147550	0.075065
C62	C	1.397873	0.352450	0.575065
N63	N	0.937384	-0.376398	0.055889
N64	N	1.437384	0.123602	0.555889
N65	N	0.936281	-0.445578	0.055879
N66	N	1.436281	0.054422	0.555879
C67	C	0.892641	-0.476192	0.000095
C68	C	1.392641	0.023808	0.500095
N69	N	0.850154	-0.435014	-0.055693
N70	N	1.350154	0.064986	0.444307
N71	N	0.851261	-0.365828	-0.055686
N72	N	1.351261	0.134172	0.444314
C73	C	0.894885	-0.335744	0.000107
C74	C	1.394885	0.164256	0.500107
C75	C	0.890803	-0.591552	-0.074865
C76	C	1.390803	-0.091552	0.425135
C77	C	0.889627	-0.664376	-0.074869
C78	C	1.389627	-0.164376	0.425131
C79	C	0.889610	-0.664398	0.075037
C80	C	1.389610	-0.164398	0.575037
C81	C	0.890778	-0.591574	0.075038
C82	C	1.390778	-0.091574	0.575038
C83	C	0.891378	-0.555155	0.000085
C84	C	1.391378	-0.055155	0.500085
C85	C	1.032149	0.088703	0.000114
C86	C	1.532149	0.588703	0.500114
C87	C	1.116165	0.089938	0.000118
C88	C	1.616165	0.589938	0.500118
C89	C	0.887804	0.221695	0.000085
C90	C	1.387804	0.721695	0.500085
C91	C	0.889038	0.299202	0.000078
C92	C	1.389038	0.799202	0.500078
N93	N	0.893738	0.094025	0.195764
N94	N	1.393738	0.594025	0.695764
N95	N	0.893778	0.094040	-0.195568
N96	N	1.393778	0.594040	0.304432
C97	C	0.945366	0.046491	0.239039
C98	C	1.445366	0.546491	0.739039
C99	C	0.945370	0.046490	0.325586
C100	C	1.445370	0.546490	0.825586
C101	C	0.893749	0.094027	0.368857
C102	C	1.393749	0.594027	0.868857
C103	C	0.842115	0.141564	0.325576
C104	C	1.342115	0.641564	0.825576
C105	C	0.842108	0.141560	0.239030
C106	C	1.342108	0.641560	0.739030
C107	C	0.842141	0.141577	0.674604
C108	C	1.342141	0.641577	1.174604
C109	C	0.842153	0.141578	0.761156
C110	C	1.342153	0.641578	1.261156
C111	C	0.945403	0.046506	0.761160
C112	C	1.445403	0.546506	1.261160
C113	C	0.945396	0.046503	0.674615
C114	C	1.445396	0.546503	1.174615
C115	C	0.893760	0.094037	0.631341
C116	C	1.393760	0.594037	1.131341
C117	C	0.893755	0.094036	0.537497
C118	C	1.393755	0.594036	1.037497
C119	C	0.893756	0.094032	0.462700
C120	C	1.393756	0.594032	0.962700
H121	H	0.647250	0.213450	0.000055
H122	H	1.147250	0.713450	0.500055
H123	H	0.800067	0.180267	0.203797
H124	H	1.300067	0.680267	0.703797
O125	O	0.896005	-0.255707	0.147885
O126	O	1.396005	0.244293	0.647885
C127	C	0.830757	-0.229887	0.193480
C128	C	1.330757	0.270113	0.693480
H129	H	0.785277	-0.204258	0.149619
H130	H	1.285277	0.295742	0.649619
H131	H	0.846241	-0.189435	0.240217
H132	H	1.346241	0.310565	0.740217
C133	C	0.855863	-0.322428	0.293271
C134	C	1.355863	0.177572	0.793271
C135	C	0.800002	-0.290954	0.239399
C136	C	1.300002	0.209046	0.739399
H137	H	0.836893	-0.360095	0.321599
H138	H	1.336893	0.139905	0.821599
H139	H	0.899824	-0.339822	0.262555
H140	H	1.399824	0.160178	0.762555
H141	H	0.868761	-0.288711	0.332211
H142	H	1.368761	0.211289	0.832211
H143	H	0.787112	-0.324669	0.200454
H144	H	1.287112	0.175331	0.700454
H145	H	0.756038	-0.273567	0.270109
H146	H	1.256038	0.226433	0.770109
H147	H	0.504044	0.211336	0.000069
H148	H	1.004044	0.711336	0.500069
O149	O	0.898294	-0.112144	0.147851
O150	O	1.398294	0.387856	0.647851
C151	C	0.833444	-0.061984	0.152318
C152	C	1.333444	0.438016	0.652318
H153	H	0.787293	-0.078317	0.109779
H154	H	1.287293	0.421683	0.609779
H155	H	0.849149	-0.008605	0.132184
H156	H	1.349149	0.491395	0.632184
C157	C	0.860419	-0.037178	0.294104
C158	C	1.360419	0.462822	0.794104
C159	C	0.803732	-0.057241	0.241863
C160	C	1.303732	0.442759	0.741863
H161	H	0.842093	-0.034248	0.349340
H162	H	1.342093	0.465752	0.849340
H163	H	0.904111	-0.070969	0.291095
H164	H	1.404111	0.429031	0.791095
H165	H	0.873501	0.007303	0.277316
H166	H	1.373501	0.507303	0.777316
H167	H	0.790659	-0.101724	0.258645
H168	H	1.290659	0.398276	0.758645
H169	H	0.760037	-0.023457	0.244877
H170	H	1.260037	0.476543	0.744877
H171	H	0.896268	-0.249990	-0.135876
H172	H	1.396268	0.250010	0.364124
O173	O	0.891307	-0.556104	0.147769
O174	O	1.391307	-0.056104	0.647769
C175	C	0.892480	-0.484020	0.131703
C176	C	1.392480	0.015980	0.631703
H177	H	0.868690	-0.471132	0.067288
H178	H	1.368690	0.028868	0.567288
H179	H	0.953517	-0.470786	0.135264
H180	H	1.453517	0.029214	0.635264
C181	C	0.872669	-0.456397	0.275475
C182	C	1.372669	0.043603	0.775475
C183	C	0.843442	-0.440567	0.196361
C184	C	1.343442	0.059433	0.696361
H185	H	0.842423	-0.429592	0.315360
H186	H	1.342423	0.070408	0.815360
H187	H	0.871881	-0.504962	0.286300
H188	H	1.371881	-0.004962	0.786300
H189	H	0.923532	-0.445368	0.278430
H190	H	1.423532	0.054632	0.778430
H191	H	0.792584	-0.451604	0.193404
H192	H	1.292584	0.048396	0.693404
H193	H	0.844220	-0.392003	0.185537
H194	H	1.344220	0.107997	0.685537
H195	H	0.898391	-0.117880	-0.135869
H196	H	1.398391	0.382120	0.364131
O197	O	0.291198	-0.033131	0.000009
O198	O	0.791198	0.466869	0.500009
C199	C	0.337397	-0.036272	-0.071213
C200	C	0.837397	0.463728	0.428787
H201	H	0.341210	0.019142	-0.094956
H202	H	0.841210	0.519142	0.405044
H203	H	0.311525	-0.068108	-0.121073
H204	H	0.811525	0.431892	0.378927
C205	C	0.412977	-0.139611	-0.020423
C206	C	0.912977	0.360389	0.479577
C207	C	0.417666	-0.071551	-0.049581
C208	C	0.917666	0.428449	0.450419
H209	H	0.462490	-0.161376	-0.007082
H210	H	0.962490	0.338624	0.492918
H211	H	0.381850	-0.137498	0.027559
H212	H	0.881850	0.362502	0.527559
H213	H	0.391414	-0.166132	-0.061979
H214	H	0.891414	0.333868	0.438021
H215	H	0.439219	-0.045029	-0.008023
H216	H	0.939219	0.454971	0.491977
H217	H	0.448798	-0.073661	-0.097556
H218	H	0.948798	0.426339	0.402444
H219	H	0.249953	0.207585	0.000084
H220	H	0.749953	0.707585	0.500084
H221	H	0.987405	0.007784	0.203814
H222	H	1.487405	0.507784	0.703814
O223	O	0.098980	0.215316	0.000133
O224	O	0.598980	0.715316	0.500133
C225	C	0.022821	0.200526	0.000122
C226	C	0.522821	0.700526	0.500122
H227	H	0.019977	0.145691	0.026164
H228	H	0.519977	0.645691	0.526164
H229	H	-0.000022	0.203212	-0.065839
H230	H	0.499978	0.703212	0.434161
C231	C	-0.022179	0.322166	0.022050
C232	C	0.477821	0.822166	0.522050
C233	C	-0.025673	0.254818	0.054042
C234	C	0.474327	0.754818	0.554042
H235	H	-0.052094	0.355657	0.055307
H236	H	0.447906	0.855657	0.555307
H237	H	0.029130	0.332131	0.022054
H238	H	0.529130	0.832131	0.522054
H239	H	-0.041213	0.324394	-0.032917
H240	H	0.458787	0.824394	0.467083
H241	H	-0.006630	0.252589	0.109004
H242	H	0.493370	0.752589	0.609004
H243	H	-0.076981	0.244854	0.054048
H244	H	0.423019	0.744854	0.554048
H245	H	0.140259	-0.025384	0.000129
H246	H	0.640259	0.474616	0.500129
H247	H	0.537552	-0.019514	0.000116
H248	H	1.037552	0.480486	0.500116
H249	H	0.891287	-0.561898	-0.135897
H250	H	1.391287	-0.061898	0.364103
O251	O	0.688323	-0.027373	0.000055
O252	O	1.188323	0.472627	0.500055
C253	C	0.644712	-0.084290	0.000085
C254	C	1.144712	0.415710	0.500085
H255	H	0.585731	-0.066469	-0.025944
H256	H	1.085731	0.433531	0.474056
H257	H	0.639159	-0.103980	0.066050
H258	H	1.139159	0.396020	0.566050
C259	C	0.756689	-0.165830	-0.021860
C260	C	1.256689	0.334170	0.478140
C261	C	0.684250	-0.143942	-0.053836
C262	C	1.184250	0.356058	0.446164
H263	H	0.781078	-0.202627	-0.055118
H264	H	1.281078	0.297373	0.444882
H265	H	0.786071	-0.127484	-0.021877
H266	H	1.286071	0.372516	0.478123
H267	H	0.752051	-0.182233	0.033110
H268	H	1.252051	0.317767	0.533110
H269	H	0.688889	-0.127532	-0.108802
H270	H	1.188889	0.372468	0.391198
H271	H	0.654869	-0.182287	-0.053830
H272	H	1.154869	0.317713	0.446170
O273	O	0.889119	-0.699631	-0.147751
O274	O	1.389119	-0.199631	0.352249
C275	C	0.889884	-0.651865	-0.213900
C276	C	1.389884	-0.151865	0.286100
H277	H	0.914660	-0.602888	-0.191915
H278	H	1.414660	-0.102888	0.308085
H279	H	0.829309	-0.636689	-0.236970
H280	H	1.329309	-0.136689	0.263030
C281	C	0.908648	-0.746505	-0.311696
C282	C	1.408648	-0.246505	0.188304
C283	C	0.939085	-0.686352	-0.284695
C284	C	1.439085	-0.186352	0.215305
H285	H	0.938995	-0.767778	-0.355368
H286	H	1.438995	-0.267778	0.144632
H287	H	0.908130	-0.778685	-0.267131
H288	H	1.408130	-0.278685	0.232869
H289	H	0.858170	-0.733849	-0.330915
H290	H	1.358170	-0.233849	0.169085
H291	H	0.989559	-0.699009	-0.265468
H292	H	1.489559	-0.199009	0.234532
H293	H	0.939613	-0.654174	-0.329259
H294	H	1.439613	-0.154174	0.170741
O295	O	0.888900	-0.699720	0.147866
O296	O	1.388900	-0.199720	0.647866
C297	C	0.823652	-0.673888	0.193454
C298	C	1.323652	-0.173888	0.693454
H299	H	0.778177	-0.648259	0.149586
H300	H	1.278177	-0.148259	0.649586
H301	H	0.839138	-0.633432	0.240184
H302	H	1.339138	-0.133432	0.740184
C303	C	0.848741	-0.766417	0.293262
C304	C	1.348741	-0.266417	0.793262
C305	C	0.792885	-0.734945	0.239382
C306	C	1.292885	-0.234945	0.739382
H307	H	0.829764	-0.804078	0.321596
H308	H	1.329764	-0.304078	0.821596
H309	H	0.892702	-0.783819	0.262551
H310	H	1.392702	-0.283819	0.762551
H311	H	0.861641	-0.732696	0.332196
H312	H	1.361641	-0.232696	0.832196
H313	H	0.779993	-0.768662	0.200442
H314	H	1.279993	-0.268662	0.700442
H315	H	0.748922	-0.717549	0.270088
H316	H	1.248922	-0.217549	0.770088
H317	H	0.987409	0.007784	0.360821
H318	H	1.487409	0.507784	0.860821
O319	O	0.995569	0.000258	0.632711
O320	O	1.495569	0.500258	1.132711
C321	C	1.041151	-0.041688	0.689466
C322	C	1.541151	0.458312	1.189466
H323	H	1.010132	-0.042438	0.751164
H324	H	1.510132	0.457562	1.251164
H325	H	1.097298	-0.019083	0.698656
H326	H	1.597298	0.480917	1.198656
C327	C	1.095099	-0.116107	0.579926
C328	C	1.595099	0.383893	1.079926
C329	C	1.056997	-0.117033	0.655703
C330	C	1.556997	0.382967	1.155703
H331	H	1.104877	-0.162583	0.559099
H332	H	1.604877	0.337417	1.059099
H333	H	1.064392	-0.087846	0.541688
H334	H	1.564392	0.412154	1.041688
H335	H	1.141884	-0.097266	0.587594
H336	H	1.641884	0.402734	1.087594
H337	H	1.010210	-0.135866	0.648032
H338	H	1.510210	0.364134	1.148032
H339	H	1.087697	-0.145299	0.693939
H340	H	1.587697	0.354701	1.193939
H341	H	0.987445	0.007800	0.796403
H342	H	1.487445	0.507800	1.296403
O343	O	0.791897	0.187684	0.803154
O344	O	1.291897	0.687684	1.303154
C345	C	0.717016	0.176423	0.782008
C346	C	1.217016	0.676423	1.282008
H347	H	0.716840	0.120521	0.758228
H348	H	1.216840	0.620521	1.258228
H349	H	0.694642	0.215147	0.731770
H350	H	1.194642	0.715147	1.231770
C351	C	0.665897	0.255983	0.888106
C352	C	1.165897	0.755983	1.388106
C353	C	0.665680	0.187322	0.858905
C354	C	1.165680	0.687322	1.358905
H355	H	0.634229	0.262710	0.935537
H356	H	1.134229	0.762710	1.435537
H357	H	0.716345	0.263573	0.902350
H358	H	1.216345	0.763573	1.402350
H359	H	0.647253	0.288246	0.846233
H360	H	1.147253	0.788246	1.346233
H361	H	0.684332	0.155061	0.900773
H362	H	1.184332	0.655061	1.400773
H363	H	0.615233	0.179727	0.844669
H364	H	1.115233	0.679727	1.344669
O365	O	0.792043	0.187715	0.367734
O366	O	1.292043	0.687715	0.867734
C367	C	0.803107	0.177516	0.453402
C368	C	1.303107	0.677516	0.953402
H369	H	0.863367	0.151352	0.465221
H370	H	1.363367	0.651352	0.965221
H371	H	0.760391	0.142548	0.477978
H372	H	1.260391	0.642548	0.977978
C373	C	0.717481	0.281092	0.483301
C374	C	1.217481	0.781092	0.983301
C375	C	0.791496	0.248962	0.497818
C376	C	1.291496	0.748962	0.997818
H377	H	0.710315	0.325162	0.510700
H378	H	1.210315	0.825162	1.010700
H379	H	0.710024	0.287962	0.425586
H380	H	1.210024	0.787962	0.925586
H381	H	0.681893	0.251945	0.503782
H382	H	1.181893	0.751945	1.003782
H383	H	0.827082	0.278105	0.477328
H384	H	1.327082	0.778105	0.977328
H385	H	0.798959	0.242098	0.555531
H386	H	1.298959	0.742098	1.055531
H387	H	0.800099	0.180281	0.639378
H388	H	1.300099	0.680281	1.139378
