data_functionalizedCrystal
_audit_creation_method	'MofGen! by Chris Wilmer'
_symmetry_space_group_name_H-M	'P1'
_symmetry_Int_Tables_number	1
_symmetry_cell_setting	triclinic
loop_
_symmetry_equiv_pos_as_xyz
  x,y,z
_cell_length_a	9.065218
_cell_length_b	9.730223
_cell_length_c	10.654550
_cell_angle_alpha	90.004253
_cell_angle_beta	84.750408
_cell_angle_gamma	90.003359
loop_
_atom_site_label
_atom_site_type_symbol
_atom_site_fract_x
_atom_site_fract_y
_atom_site_fract_z
O1	O	1.959392	0.114293	0.184159
O2	O	1.530025	0.114295	0.199265
O3	O	1.754581	0.114285	0.009012
O4	O	1.734837	0.114303	0.374412
O5	O	1.754566	-0.114294	0.009006
O6	O	1.530010	-0.114285	0.199259
O7	O	1.959378	-0.114287	0.184154
Zn8	Zn	1.744692	-0.150578	0.191706
Zn9	Zn	1.744711	0.150586	0.191713
O10	O	1.734822	-0.114277	0.374407
C11	C	1.475039	0.000005	0.197810
C12	C	1.311220	0.000006	0.193469
N13	N	1.744689	-0.356114	0.191700
C14	C	1.753124	-0.000004	-0.037795
C15	C	1.748786	-0.000002	-0.177255
C16	C	2.014364	0.000006	0.185608
C17	C	2.178183	0.000015	0.189949
C18	C	1.844157	-0.428044	0.107492
C19	C	1.844172	-0.571927	0.107493
C20	C	1.645247	-0.571937	0.275920
C21	C	1.645226	-0.428057	0.275912
N22	N	1.744725	0.356123	0.191708
C23	C	1.881001	-0.000002	-0.256217
C24	C	1.876917	0.000015	-0.387254
C25	C	1.608391	0.000026	-0.360354
C26	C	1.612477	0.000019	-0.229320
C27	C	1.736279	0.000015	0.421213
C28	C	1.740616	0.000022	0.560673
H29	H	1.925144	-0.369472	0.038920
C30	C	1.467032	0.000018	-0.142449
C31	C	1.432911	-0.118677	-0.048673
C32	C	1.287475	-0.118672	0.038198
C33	C	1.176159	0.000028	0.031293
C34	C	1.210277	0.118731	-0.062487
C35	C	1.355714	0.118726	-0.149358
H36	H	1.515316	-0.206553	-0.043558
H37	H	1.262219	-0.206544	0.107620
H38	H	1.068498	0.000032	0.095600
H39	H	1.127872	0.206608	-0.067602
H40	H	1.380969	0.206599	-0.218780
C41	C	1.535851	-0.651075	0.368561
C42	C	1.535951	-0.809338	0.368653
C43	C	1.426556	-0.888470	0.461300
C44	C	1.317061	-0.809340	0.553855
C45	C	1.316957	-0.651069	0.553766
C46	C	1.426352	-0.571936	0.461119
H47	H	1.617010	-0.867922	0.300135
H48	H	1.426634	-1.005634	0.461365
H49	H	1.236080	-0.867919	0.622437
H50	H	1.235898	-0.592484	0.622283
H51	H	1.426274	-0.454773	0.461054
C52	C	2.022357	0.000010	-0.474111
C53	C	2.133664	-0.118696	-0.467206
C54	C	2.279112	-0.118699	-0.554063
C55	C	2.313252	0.000005	-0.647825
C56	C	2.201942	0.118720	-0.654734
C57	C	2.056494	0.118723	-0.567878
H58	H	2.108394	-0.206576	-0.397794
H59	H	2.361510	-0.206580	-0.548947
H60	H	2.420921	0.000003	-0.712122
H61	H	2.227212	0.206600	-0.724146
H62	H	1.974096	0.206604	-0.572993
H63	H	1.925165	-0.630489	0.038922
H64	H	1.564221	-0.369487	0.344485
H65	H	1.991993	-0.000016	-0.213831
H66	H	1.497413	0.000041	-0.402762
