data_functionalizedCrystal
_audit_creation_method	'MofGen! by Chris Wilmer'
_symmetry_space_group_name_H-M	'P1'
_symmetry_Int_Tables_number	1
_symmetry_cell_setting	triclinic
loop_
_symmetry_equiv_pos_as_xyz
  x,y,z
_cell_length_a	16.959455
_cell_length_b	16.959454
_cell_length_c	21.395356
_cell_angle_alpha	90.021211
_cell_angle_beta	89.971488
_cell_angle_gamma	89.980044
loop_
_atom_site_label
_atom_site_type_symbol
_atom_site_fract_x
_atom_site_fract_y
_atom_site_fract_z
Zn1	Zn	1.208432	0.314764	-0.354372
Zn2	Zn	1.208329	0.446946	-0.249606
Zn3	Zn	1.076241	0.314779	-0.249600
Zn4	Zn	1.076218	0.446898	-0.354337
O5	O	1.142305	0.380847	-0.301979
O6	O	1.319029	0.332313	-0.340492
O7	O	1.190774	0.429440	-0.161927
O8	O	1.093829	0.204166	-0.263509
O9	O	1.318953	0.429426	-0.263521
O10	O	1.190949	0.204155	-0.340485
O11	O	1.093730	0.332337	-0.161923
O12	O	0.965627	0.332290	-0.263476
O13	O	1.093790	0.429344	-0.442020
O14	O	0.965610	0.429358	-0.340427
O15	O	1.190927	0.332266	-0.442045
O16	O	1.190751	0.557551	-0.263487
O17	O	1.093690	0.557515	-0.340433
C18	C	0.936939	0.380821	-0.301947
C19	C	0.849082	0.380829	-0.301949
C20	C	0.477556	0.431364	-0.261880
C21	C	0.477657	0.330396	-0.342154
C22	C	0.560202	0.330383	-0.342139
C23	C	0.601429	0.380862	-0.301994
C24	C	0.560110	0.431354	-0.261864
C25	C	0.601528	0.279897	-0.382272
C26	C	0.684079	0.279883	-0.382259
C27	C	0.725307	0.330358	-0.342111
C28	C	0.683983	0.380852	-0.301979
C29	C	0.725209	0.431331	-0.261834
C30	C	0.683887	0.481821	-0.221699
C31	C	0.601338	0.481830	-0.221716
C32	C	0.807855	0.330350	-0.342093
C33	C	0.807763	0.431321	-0.261819
C34	C	1.142228	0.586213	-0.301971
C35	C	1.142268	0.674070	-0.301988
C36	C	1.091805	1.045557	-0.342049
C37	C	1.192958	1.045534	-0.261990
C38	C	1.192935	0.962988	-0.261983
C39	C	1.142345	0.921723	-0.302009
C40	C	1.091779	0.963003	-0.342042
C41	C	1.243495	0.921701	-0.221947
C42	C	1.243472	0.839150	-0.221938
C43	C	1.192886	0.797883	-0.261967
C44	C	1.142318	0.839169	-0.302002
C45	C	1.091728	0.797904	-0.342028
C46	C	1.041164	0.839188	-0.382067
C47	C	1.041192	0.921736	-0.382071
C48	C	1.192858	0.715335	-0.261962
C49	C	1.091702	0.715350	-0.342021
C50	C	1.348473	0.380873	-0.302011
C51	C	1.436330	0.380885	-0.302024
C52	C	1.142367	0.380798	-0.465402
C53	C	1.142394	0.380777	-0.535043
C54	C	1.142391	1.174679	-0.302004
C55	C	1.142395	1.086822	-0.302023
C56	C	1.091876	0.330210	-0.567744
C57	C	1.091874	0.330195	-0.633180
C58	C	1.142402	0.380739	-0.665912
C59	C	1.192923	0.431316	-0.633203
C60	C	1.192919	0.431335	-0.567769
C61	C	1.213621	0.386957	-0.769603
C62	C	1.213626	0.386933	-0.835036
C63	C	1.142415	0.380686	-0.867733
C64	C	1.071196	0.374447	-0.834988
C65	C	1.071192	0.374465	-0.769554
C66	C	1.142412	0.380725	-0.736864
C67	C	1.091891	0.330100	-0.971386
C68	C	1.091887	0.330091	-1.036823
C69	C	1.192944	0.431208	-1.036845
C70	C	1.192940	0.431221	-0.971410
C71	C	1.142415	0.380663	-0.938684
C72	C	1.142288	0.380839	-0.139191
C73	C	1.142415	0.380637	-0.069550
H74	H	1.050508	0.681757	-0.374618
C75	C	1.291963	0.393794	-0.871050
H76	H	1.334371	0.397531	-0.842207
H77	H	1.298939	0.348488	-0.896582
H78	H	1.290911	0.439609	-0.896571
C79	C	1.248468	0.669922	-0.217926
H80	H	1.241205	0.614849	-0.223652
H81	H	1.301576	0.683411	-0.227134
H82	H	1.236921	0.683482	-0.175819
H83	H	0.841324	0.472425	-0.229126
H84	H	0.567955	0.238805	-0.414960
H85	H	0.443908	0.472469	-0.229201
H86	H	1.013203	0.369387	-0.742895
C87	C	1.248523	0.486811	-1.072839
H88	H	1.278607	0.516933	-1.043989
H89	H	1.282979	0.456576	-1.098384
H90	H	1.218263	0.521243	-1.098347
H91	H	1.000025	0.955357	-0.414668
H92	H	1.271614	0.392038	-0.742988
C93	C	1.299136	0.967089	-0.177919
H94	H	1.329239	0.930681	-0.154069
H95	H	1.333572	0.999253	-0.201916
H96	H	1.268919	0.999328	-0.150599
H97	H	0.717717	0.238770	-0.414940
H98	H	0.841497	0.289243	-0.374772
H99	H	0.567686	0.522936	-0.189040
C100	C	0.729241	0.537345	-0.177542
H101	H	0.784322	0.530102	-0.183283
H102	H	0.715710	0.590471	-0.186638
H103	H	0.715684	0.525701	-0.135459
C104	C	0.432310	0.274872	-0.386309
H105	H	0.377228	0.282107	-0.380568
H106	H	0.445874	0.286503	-0.428389
H107	H	0.445840	0.221744	-0.377200
H108	H	1.284645	0.805542	-0.189337
H109	H	1.050639	1.079174	-0.374649
C110	C	0.992858	0.367575	-0.870941
H111	H	0.950446	0.363856	-0.842069
H112	H	0.985887	0.412867	-0.896458
H113	H	0.993909	0.321745	-0.896474
H114	H	0.999970	0.805580	-0.414653
C115	C	1.248514	0.486839	-0.935434
H116	H	1.241270	0.479616	-0.891776
H117	H	1.301629	0.475278	-0.946177
H118	H	1.236914	0.539946	-0.946148
C119	C	1.248606	1.090923	-0.217969
H120	H	1.241384	1.145999	-0.223710
H121	H	1.237070	1.077429	-0.175859
H122	H	1.301706	1.077354	-0.227190
H123	H	1.050732	0.289044	-0.541103
H124	H	1.050738	0.289013	-0.659810
H125	H	1.050750	0.288933	-0.944739
C126	C	1.036316	0.274464	-1.072794
H127	H	1.006232	0.244353	-1.043929
H128	H	1.001858	0.304684	-1.098303
H129	H	1.066579	0.240022	-1.098334
C130	C	1.248506	0.486911	-0.669206
H131	H	1.241280	0.479651	-0.712860
H132	H	1.236914	0.540022	-0.658474
H133	H	1.301622	0.475347	-0.658500
H134	H	1.234060	0.472512	-0.541144
