data_functionalizedCrystal
_audit_creation_method	'MofGen! by Chris Wilmer'
_symmetry_space_group_name_H-M	'P1'
_symmetry_Int_Tables_number	1
_symmetry_cell_setting	triclinic
loop_
_symmetry_equiv_pos_as_xyz
  x,y,z
_cell_length_a	19.077105
_cell_length_b	18.101390
_cell_length_c	19.077068
_cell_angle_alpha	87.736754
_cell_angle_beta	89.884684
_cell_angle_gamma	87.683335
loop_
_atom_site_label
_atom_site_type_symbol
_atom_site_fract_x
_atom_site_fract_y
_atom_site_fract_z
Zn1	Zn	1.062992	-0.477246	0.322945
Zn2	Zn	1.562992	0.022754	0.822945
Zn3	Zn	1.058178	-0.358162	0.440463
Zn4	Zn	1.558178	0.141838	0.940463
Zn5	Zn	0.945483	-0.348259	0.318249
Zn6	Zn	1.445483	0.151741	0.818249
Zn7	Zn	0.940727	-0.476801	0.435687
Zn8	Zn	1.440727	0.023199	0.935687
O9	O	1.001845	-0.415117	0.379336
O10	O	1.501845	0.084883	0.879336
O11	O	1.160685	-0.465780	0.342498
O12	O	1.660685	0.034220	0.842498
O13	O	1.043205	-0.253216	0.424284
O14	O	1.543205	0.246784	0.924284
O15	O	0.965076	-0.361411	0.220543
O16	O	1.465076	0.138589	0.720543
O17	O	1.157148	-0.378289	0.428838
O18	O	1.657148	0.121711	0.928838
O19	O	1.051409	-0.456178	0.223993
O20	O	1.551409	0.043822	0.723993
O21	O	0.960409	-0.245940	0.334495
O22	O	1.460409	0.254060	0.834495
O23	O	0.846521	-0.360980	0.329863
O24	O	1.346521	0.139020	0.829863
O25	O	0.956969	-0.580493	0.420698
O26	O	1.456969	-0.080493	0.920698
O27	O	0.843026	-0.455419	0.416144
O28	O	1.343026	0.044581	0.916144
O29	O	1.046797	-0.580820	0.337867
O30	O	1.546797	-0.080820	0.837867
O31	O	1.038593	-0.377858	0.538159
O32	O	1.538593	0.122142	1.038159
O33	O	0.952302	-0.465021	0.534650
O34	O	1.452302	0.034979	1.034650
C35	C	0.819277	-0.407077	0.371977
C36	C	1.319277	0.092923	0.871977
C37	C	0.741173	-0.403656	0.368845
C38	C	1.241173	0.096344	0.868845
C39	C	0.702676	-0.451147	0.412364
C40	C	1.202676	0.048853	0.912364
C41	C	0.629290	-0.447935	0.409412
C42	C	1.129290	0.052065	0.909412
C43	C	0.594402	-0.397229	0.362945
C44	C	1.094402	0.102771	0.862945
C45	C	0.632904	-0.349737	0.319422
C46	C	1.132904	0.150263	0.819422
C47	C	0.706290	-0.352952	0.322370
C48	C	1.206290	0.147048	0.822370
C49	C	0.375117	-0.382351	0.349299
C50	C	0.875117	0.117649	0.849299
C51	C	0.301726	-0.379138	0.346355
C52	C	0.801726	0.120862	0.846355
C53	C	0.298117	-0.477338	0.436345
C54	C	0.798117	0.022662	0.936345
C55	C	0.371503	-0.480545	0.439292
C56	C	0.871503	0.019455	0.939292
C57	C	0.410000	-0.433056	0.395766
C58	C	0.910000	0.066944	0.895766
N59	N	0.519389	-0.393944	0.359928
N60	N	1.019389	0.106056	0.859928
N61	N	0.485011	-0.436345	0.398780
N62	N	0.985011	0.063655	0.898780
C63	C	1.001889	-0.608278	0.379274
C64	C	1.501889	-0.108278	0.879274
C65	C	1.001908	-0.690592	0.379247
C66	C	1.501908	-0.190592	0.879247
C67	C	1.001948	-0.989683	0.379205
C68	C	1.501948	-0.489683	0.879205
C69	C	1.058636	-0.958579	0.327288
C70	C	1.558636	-0.458579	0.827288
C71	C	1.058474	-0.872945	0.327080
C72	C	1.558474	-0.372945	0.827080
C73	C	1.001929	-0.841301	0.379226
C74	C	1.501929	-0.341301	0.879226
C75	C	0.928710	-0.868308	0.356128
C76	C	1.428710	-0.368308	0.856128
C77	C	0.929053	-0.953951	0.355736
C78	C	1.429053	-0.453951	0.855736
C79	C	1.017821	-0.961936	0.454331
C80	C	1.517821	-0.461936	0.954331
C81	C	1.019461	-0.876342	0.454018
C82	C	1.519461	-0.376342	0.954018
C83	C	1.001913	-0.757441	0.379239
C84	C	1.501913	-0.257441	0.879239
C85	C	1.001958	-1.073542	0.379190
C86	C	1.501958	-0.573542	0.879190
C87	C	1.185125	-0.423189	0.386725
C88	C	1.685125	0.076811	0.886725
C89	C	1.263229	-0.426628	0.389873
C90	C	1.763229	0.073372	0.889873
C91	C	0.994428	-0.422483	0.561901
C92	C	1.494428	0.077517	1.061901
C93	C	0.991319	-0.425661	0.640006
C94	C	1.491319	0.074339	1.140006
C95	C	1.001843	-0.222707	0.379349
C96	C	1.501843	0.277293	0.879349
C97	C	1.001969	-0.140392	0.379183
C98	C	1.501969	0.359608	0.879183
C99	C	1.009310	-0.407740	0.196059
C100	C	1.509310	0.092260	0.696059
C101	C	1.012492	-0.404596	0.117957
C102	C	1.512492	0.095404	0.617957
C103	C	1.034820	-0.381814	0.678504
C104	C	1.534820	0.118186	1.178504
C105	C	1.031901	-0.384808	0.751892
C106	C	1.531901	0.115192	1.251892
C107	C	0.985475	-0.431647	0.786779
C108	C	1.485475	0.068353	1.286779
C109	C	0.941972	-0.475499	0.748276
C110	C	1.441972	0.024501	1.248276
C111	C	0.944896	-0.472508	0.674889
C112	C	1.444896	0.027492	1.174889
C113	C	0.971912	-0.445457	1.006067
C114	C	1.471912	0.054543	1.506067
C115	C	0.968990	-0.448443	1.079458
C116	C	1.468990	0.051557	1.579458
C117	C	1.058920	-0.357753	1.083070
C118	C	1.558920	0.142247	1.583070
C119	C	1.061837	-0.354763	1.009682
C120	C	1.561837	0.145237	1.509682
C121	C	1.018336	-0.398618	0.971185
C122	C	1.518336	0.101382	1.471185
N123	N	0.982488	-0.434707	0.861793
N124	N	1.482488	0.065293	1.361793
N125	N	1.021328	-0.395562	0.896172
N126	N	1.521328	0.104438	1.396172
H127	H	0.266765	-0.516002	0.471780
H128	H	0.766765	-0.016002	0.971780
H129	H	0.597948	-0.486606	0.444850
H130	H	1.097948	0.013394	0.944850
H131	H	1.067324	-0.349102	0.783235
H132	H	1.567324	0.150898	1.283235
H133	H	1.048203	-0.849692	0.271485
H134	H	1.548203	-0.349692	0.771485
H135	H	0.399904	-0.521834	0.477132
H136	H	0.899904	-0.021834	0.977132
H137	H	1.113208	-0.982104	0.341947
H138	H	1.613208	-0.482104	0.841947
H139	H	0.273323	-0.337851	0.308508
H140	H	0.773323	0.162149	0.808508
H141	H	1.072622	-0.343670	0.650104
H142	H	1.572622	0.156330	1.150104
H143	H	1.073329	-0.859039	0.471380
H144	H	1.573329	-0.359039	0.971380
H145	H	0.915248	-0.971038	0.300730
H146	H	1.415248	-0.471038	0.800730
H147	H	0.931193	-0.486598	1.107862
H148	H	1.431193	0.013402	1.607862
H149	H	0.885539	-0.974342	0.391743
H150	H	1.385539	-0.474342	0.891743
H151	H	0.731077	-0.492435	0.450204
H152	H	1.231077	0.007565	0.950204
H153	H	1.094337	-0.322050	1.114422
H154	H	1.594337	0.177950	1.614422
H155	H	1.099640	-0.316624	0.981278
H156	H	1.599640	0.183376	1.481278
H157	H	0.976499	-0.982076	0.493052
H158	H	1.476499	-0.482076	0.993052
H159	H	0.936491	-0.481164	0.974728
H160	H	1.436491	0.018836	1.474728
H161	H	0.904174	-0.513639	0.776687
H162	H	1.404174	-0.013639	1.276687
H163	H	0.909473	-0.508214	0.643544
H164	H	1.409473	-0.008214	1.143544
H165	H	0.406451	-0.343676	0.313862
H166	H	0.906451	0.156324	0.813862
H167	H	0.604493	-0.308454	0.281584
H168	H	1.104493	0.191546	0.781584
H169	H	0.737633	-0.314284	0.286929
H170	H	1.237633	0.185716	0.786929
H171	H	1.048511	-0.977356	0.272006
H172	H	1.548511	-0.477356	0.772006
H173	H	0.885455	-0.847644	0.392647
H174	H	1.385455	-0.347644	0.892647
H175	H	1.112861	-0.854858	0.341888
H176	H	1.612861	-0.354858	0.841888
H177	H	0.914590	-0.843977	0.301715
H178	H	1.414590	-0.343977	0.801715
H179	H	1.070119	-0.986652	0.474785
H180	H	1.570119	-0.486652	0.974785
H181	H	0.980936	-0.855029	0.495019
H182	H	1.480936	-0.355029	0.995019
