data_functionalizedCrystal
_audit_creation_method	'MofGen! by Chris Wilmer'
_symmetry_space_group_name_H-M	'P1'
_symmetry_Int_Tables_number	1
_symmetry_cell_setting	triclinic
loop_
_symmetry_equiv_pos_as_xyz
  x,y,z
_cell_length_a	19.288864
_cell_length_b	9.130313
_cell_length_c	10.654558
_cell_angle_alpha	90.000339
_cell_angle_beta	83.812236
_cell_angle_gamma	90.014070
loop_
_atom_site_label
_atom_site_type_symbol
_atom_site_fract_x
_atom_site_fract_y
_atom_site_fract_z
O1	O	0.922373	0.122267	0.156649
O2	O	0.720251	0.122166	0.177781
O3	O	0.825956	0.122212	-0.015623
O4	O	0.816667	0.122220	0.350053
O5	O	0.825955	-0.121386	-0.015618
O6	O	0.720249	-0.121433	0.177786
O7	O	0.922371	-0.121332	0.156654
Cu8	Cu	0.821310	-0.143625	0.167221
Cu9	Cu	0.821312	0.144459	0.167214
O10	O	0.816666	-0.121378	0.350058
C11	C	0.694369	0.000354	0.177104
C12	C	0.617252	0.000316	0.175063
N13	N	0.821314	-0.346248	0.167224
C14	C	0.573301	0.000341	0.288544
C15	C	0.500841	0.000357	0.286626
C16	C	0.472336	0.000377	0.171221
C17	C	0.516297	0.000343	0.057725
C18	C	0.588755	0.000313	0.059646
C19	C	0.363479	0.085768	0.080498
C20	C	0.291022	0.085808	0.078582
C21	C	0.248851	0.000466	0.165291
C22	C	0.279146	-0.084897	0.253939
C23	C	0.351604	-0.084928	0.255860
C24	C	0.393768	0.000410	0.169125
C25	C	0.126330	0.000507	0.276701
C26	C	0.053870	0.000514	0.274778
C27	C	0.069328	0.000515	0.045874
C28	C	0.141787	0.000493	0.047800
C29	C	0.170283	0.000496	0.163217
C30	C	0.868133	-0.422879	0.081613
C31	C	0.868131	-0.576216	0.081598
C32	C	0.774490	-0.576276	0.252816
C33	C	0.774489	-0.422942	0.252824
C34	C	0.914958	-0.346184	-0.003986
C35	C	0.961781	-0.422816	-0.089603
C36	C	0.961779	-0.576153	-0.089618
C37	C	0.914954	-0.652858	-0.004016
C38	C	0.948253	0.000483	0.157331
C39	C	1.025370	0.000531	0.159372
C40	C	0.825272	0.000414	-0.062404
C41	C	0.823228	0.000418	-0.201803
N42	N	0.821313	0.347082	0.167201
C43	C	0.822266	-0.132366	-0.267293
C44	C	0.820351	-0.132361	-0.398274
C45	C	0.820359	0.133223	-0.398264
C46	C	0.822278	0.133217	-0.267286
C47	C	0.823215	-0.265166	-0.201810
C48	C	0.822252	-0.397960	-0.267300
C49	C	0.820338	-0.397956	-0.398282
C50	C	0.819386	-0.265156	-0.463773
C51	C	0.817350	0.000423	0.396839
C52	C	0.819394	0.000429	0.536238
H53	H	0.596498	0.000346	0.382525
C54	C	0.823333	0.279287	-0.195241
N55	N	0.824129	0.389310	-0.140978
C56	C	0.819280	-0.544030	-0.470317
N57	N	0.818478	-0.654059	-0.524571
H58	H	0.397809	0.155273	0.009886
C59	C	0.157679	0.000492	0.403660
N60	N	0.181289	0.000477	0.499287
H61	H	0.819583	0.241343	-0.451597
C62	C	0.190135	0.000482	-0.077040
N63	N	0.226552	0.000471	-0.171075
C64	C	0.257706	0.179698	-0.018938
N65	N	0.232614	0.250413	-0.092398
H66	H	0.817833	-0.265162	-0.570429
C67	C	1.013274	-0.660443	-0.183814
N68	N	1.052063	-0.723928	-0.254766
C69	C	0.914955	-0.821534	-0.004038
N70	N	0.914959	-0.948579	-0.004050
H71	H	0.493084	0.000380	-0.036239
H72	H	0.018085	0.000526	0.367192
H73	H	0.046120	0.000622	-0.048091
H74	H	0.736368	-0.638740	0.322510
H75	H	0.376266	-0.154438	0.328035
C76	C	0.452486	0.000403	0.411468
N77	N	0.416066	0.000444	0.505500
H78	H	0.624541	0.000293	-0.032767
C79	C	1.013276	-0.338438	-0.183775
N80	N	1.052061	-0.274885	-0.254712
C81	C	0.722971	-0.338643	0.346973
N82	N	0.684159	-0.275148	0.417875
C83	C	0.232763	-0.178787	0.349324
N84	N	0.197825	-0.249501	0.421165
H85	H	0.824772	-0.265185	-0.095157
H86	H	0.914965	-0.221330	-0.003980
H87	H	0.823033	-0.506081	-0.213969
