data_functionalizedCrystal
_audit_creation_method	'MofGen! by Chris Wilmer'
_symmetry_space_group_name_H-M	'P1'
_symmetry_Int_Tables_number	1
_symmetry_cell_setting	triclinic
loop_
_symmetry_equiv_pos_as_xyz
  x,y,z
_cell_length_a	13.185407
_cell_length_b	19.288857
_cell_length_c	18.366186
_cell_angle_alpha	89.991598
_cell_angle_beta	90.008881
_cell_angle_gamma	112.446704
loop_
_atom_site_label
_atom_site_type_symbol
_atom_site_fract_x
_atom_site_fract_y
_atom_site_fract_z
O1	O	1.447872	0.181120	0.060520
O2	O	1.947872	0.681120	0.560520
O3	O	1.130026	0.110648	0.060529
O4	O	1.630026	0.610648	0.560529
O5	O	1.298138	0.248714	0.060515
O6	O	1.798138	0.748714	0.560515
O7	O	1.279760	0.043054	0.060533
O8	O	1.779760	0.543054	0.560533
O9	O	1.298109	0.248714	-0.060584
O10	O	1.798109	0.748714	0.439416
O11	O	1.129997	0.110648	-0.060570
O12	O	1.629997	0.610648	0.439430
O13	O	1.447844	0.181120	-0.060580
O14	O	1.947844	0.681120	0.439420
Zn15	Zn	1.288916	0.145884	-0.079802
Zn16	Zn	1.788916	0.645884	0.420198
Zn17	Zn	1.288954	0.145884	0.079752
Zn18	Zn	1.788954	0.645884	0.579752
O19	O	1.279732	0.043054	-0.060566
O20	O	1.779732	0.543054	0.439434
C21	C	1.089348	0.103504	-0.000020
C22	C	1.589348	0.603504	0.499980
C23	C	0.968182	0.082225	-0.000016
C24	C	1.468182	0.582225	0.499984
C25	C	0.679933	0.285308	-0.000037
C26	C	1.179933	0.785308	0.499963
C27	C	0.793775	0.305304	-0.000045
C28	C	1.293775	0.805304	0.499955
C29	C	0.837382	0.249536	-0.000038
C30	C	1.337382	0.749536	0.499962
C31	C	0.767137	0.173769	-0.000023
C32	C	1.267137	0.673769	0.499977
C33	C	0.653284	0.153772	-0.000021
C34	C	1.153284	0.653772	0.499979
C35	C	0.810733	0.117999	-0.000021
C36	C	1.310733	0.617999	0.499979
C37	C	0.740487	0.042232	-0.000007
C38	C	1.240487	0.542232	0.499993
C39	C	0.626646	0.022239	-0.000004
C40	C	1.126646	0.522239	0.499996
C41	C	0.583038	0.078006	-0.000012
C42	C	1.083038	0.578006	0.499988
C43	C	0.924586	0.137996	-0.000023
C44	C	1.424586	0.637996	0.499977
C45	C	0.897936	0.006460	-0.000007
C46	C	1.397936	0.506460	0.499993
C47	C	0.784095	-0.013536	0.000001
C48	C	1.284095	0.486464	0.500001
C49	C	1.297534	0.274481	-0.000035
C50	C	1.797534	0.774481	0.499965
C51	C	1.295763	0.351258	-0.000037
C52	C	1.795763	0.851258	0.499963
C53	C	1.488522	0.188264	-0.000029
C54	C	1.988522	0.688264	0.499971
C55	C	1.609688	0.209543	-0.000028
C56	C	2.109688	0.709543	0.499972
C57	C	1.280336	0.017287	-0.000014
C58	C	1.780336	0.517287	0.499986
C59	C	1.282107	-0.059490	-0.000007
C60	C	1.782107	0.440510	0.499993
C61	C	1.294952	0.387316	0.065974
C62	C	1.794952	0.887316	0.565974
C63	C	1.293272	0.459451	0.065980
C64	C	1.793272	0.959451	0.565980
C65	C	1.292426	0.495532	-0.000030
C66	C	1.792426	0.995532	0.499970
C67	C	1.293231	0.459464	-0.066050
C68	C	1.793231	0.959464	0.433950
C69	C	1.294899	0.387327	-0.066054
C70	C	1.794899	0.887327	0.433946
C71	C	1.353704	0.627098	-0.050599
C72	C	1.853704	1.127098	0.449401
C73	C	1.352042	0.699236	-0.050593
C74	C	1.852042	1.199236	0.449407
C75	C	1.287275	0.718025	-0.000021
C76	C	1.787275	1.218025	0.499979
C77	C	1.224184	0.664672	0.050556
C78	C	1.724184	1.164672	0.550556
C79	C	1.225852	0.592535	0.050552
C80	C	1.725852	1.092535	0.550552
C81	C	1.290616	0.573752	-0.000033
C82	C	1.790616	1.073752	0.499967
C83	C	1.284641	0.832300	0.066000
C84	C	1.784641	1.332300	0.566000
C85	C	1.282955	0.904435	0.066003
C86	C	1.782955	1.404435	0.566003
C87	C	1.282925	0.904449	-0.066029
C88	C	1.782925	1.404449	0.433971
C89	C	1.284600	0.832313	-0.066029
C90	C	1.784600	1.332313	0.433971
C91	C	1.285463	0.796244	-0.000013
C92	C	1.785463	1.296244	0.499987
N93	N	1.288898	0.145886	-0.188693
N94	N	1.788898	0.645886	0.311307
C95	C	1.363363	0.207003	-0.226800
C96	C	1.863363	0.707003	0.273200
C97	C	1.363370	0.207007	-0.303028
C98	C	1.863370	0.707007	0.196972
C99	C	1.288923	0.145885	-0.341146
C100	C	1.788923	0.645885	0.158854
C101	C	1.214445	0.084762	-0.303030
C102	C	1.714445	0.584762	0.196970
C103	C	1.214432	0.084762	-0.226804
C104	C	1.714432	0.584762	0.273196
C105	C	1.274308	0.079894	-0.461900
C106	C	1.774308	0.579894	0.038100
C107	C	1.274328	0.079894	-0.538125
C108	C	1.774328	0.579894	-0.038125
C109	C	1.288954	0.145882	-0.576254
C110	C	1.788954	0.645882	-0.076254
C111	C	1.303583	0.211877	-0.538147
C112	C	1.803583	0.711877	-0.038147
C113	C	1.303571	0.211878	-0.461921
C114	C	1.803571	0.711878	0.038079
C115	C	1.288927	0.145877	-0.423801
C116	C	1.788927	0.645877	0.076199
C117	C	1.363429	0.207008	-0.697015
C118	C	1.863429	0.707008	-0.197015
C119	C	1.363429	0.207012	-0.773244
C120	C	1.863429	0.707012	-0.273244
C121	C	1.214509	0.084761	-0.773246
C122	C	1.714509	0.584761	-0.273246
C123	C	1.214504	0.084762	-0.697018
C124	C	1.714504	0.584762	-0.197018
C125	C	1.288970	0.145886	-0.658907
C126	C	1.788970	0.645886	-0.158907
N127	N	1.288980	0.145889	0.188643
N128	N	1.788980	0.645889	0.688643
H129	H	0.850961	0.366993	-0.000060
H130	H	1.350961	0.866993	0.499940
H131	H	1.406444	0.611808	-0.091786
H132	H	1.906444	1.111808	0.408214
H133	H	1.292605	0.488813	0.119736
H134	H	1.792605	0.988813	0.619736
Cl135	Cl	0.439918	0.052872	0.000009
Cl136	Cl	0.939918	0.552872	0.500009
Cl137	Cl	1.120849	0.007924	-0.350949
Cl138	Cl	1.620849	0.507924	0.149051
H139	H	0.981769	0.199686	-0.000034
H140	H	1.481769	0.699686	0.499966
Cl141	Cl	1.256022	-0.003054	-0.413976
Cl142	Cl	1.756022	0.496946	0.086024
Cl143	Cl	0.538339	-0.073011	0.000005
Cl144	Cl	1.038339	0.426989	0.500005
H145	H	1.153793	0.034993	-0.195777
H146	H	1.653793	0.534993	0.304223
H147	H	0.726885	-0.075226	0.000012
H148	H	1.226885	0.424774	0.500012
Cl149	Cl	1.321948	0.294836	-0.414018
Cl150	Cl	1.821948	0.794836	0.085982
H151	H	0.933440	-0.038951	-0.000003
H152	H	1.433440	0.461049	0.499997
Cl153	Cl	0.625106	0.355407	-0.000055
Cl154	Cl	1.125106	0.855407	0.499945
H155	H	1.295652	0.357952	0.119730
H156	H	1.795652	0.857952	0.619730
Cl157	Cl	1.321979	0.294841	-0.586071
Cl158	Cl	1.821979	0.794841	-0.086071
H159	H	1.262423	0.026158	-0.569146
H160	H	1.762423	0.526158	-0.069146
Cl161	Cl	1.146537	0.525464	0.114128
Cl162	Cl	1.646537	1.025464	0.614128
H163	H	0.930078	0.265821	-0.000044
H164	H	1.430078	0.765821	0.499956
H165	H	1.171444	0.679967	0.091736
H166	H	1.671444	1.179967	0.591736
H167	H	1.285338	0.802929	0.119755
H168	H	1.785338	1.302929	0.619755
Cl169	Cl	1.281928	0.949763	0.148997
Cl170	Cl	1.781928	1.449763	0.648997
Cl171	Cl	1.281854	0.949799	-0.149013
Cl172	Cl	1.781854	1.449799	0.350987
Cl173	Cl	1.285619	0.786980	-0.149020
Cl174	Cl	1.785619	1.286980	0.350980
H175	H	1.403419	0.742672	-0.091773
H176	H	1.903419	1.242672	0.408227
H177	H	1.292538	0.488844	-0.119795
H178	H	1.792538	0.988844	0.380205
H179	H	1.424061	0.256780	-0.665984
H180	H	1.924061	0.756780	-0.165984
Cl181	Cl	1.295917	0.341994	-0.149046
Cl182	Cl	1.795917	0.841994	0.350954
Cl183	Cl	1.456969	0.283844	-0.178890
Cl184	Cl	1.956969	0.783844	0.321110
Cl185	Cl	1.456991	0.283846	-0.350941
Cl186	Cl	1.956991	0.783846	0.149059
H187	H	1.424063	0.256783	-0.804271
H188	H	1.924063	0.756783	-0.304271
Cl189	Cl	1.120910	0.007925	-0.821161
Cl190	Cl	1.620910	0.507925	-0.321161
Cl191	Cl	1.120894	0.007924	-0.649108
Cl192	Cl	1.620894	0.507924	-0.149108
