data_functionalizedCrystal
_audit_creation_method	'MofGen! by Chris Wilmer'
_symmetry_space_group_name_H-M	'P1'
_symmetry_Int_Tables_number	1
_symmetry_cell_setting	triclinic
loop_
_symmetry_equiv_pos_as_xyz
  x,y,z
_cell_length_a	6.817900
_cell_length_b	16.886426
_cell_length_c	17.329528
_cell_angle_alpha	86.238455
_cell_angle_beta	103.027692
_cell_angle_gamma	83.786827
loop_
_atom_site_label
_atom_site_type_symbol
_atom_site_fract_x
_atom_site_fract_y
_atom_site_fract_z
V1	V	-3.942190	0.241295	-0.110322
O2	O	-3.936365	0.244133	0.003617
O3	O	-3.889426	0.232498	-0.217130
O4	O	-3.859121	0.349793	-0.109364
O5	O	-3.966880	0.126026	-0.104895
V6	V	-4.430875	0.228376	-0.096606
O7	O	-4.192123	0.269634	-0.140408
O8	O	-4.631139	0.200038	-0.066519
O9	O	-4.260432	0.237173	0.010202
O10	O	-4.554097	0.225539	-0.210545
O11	O	-4.523582	0.343645	-0.102033
O12	O	-4.290737	0.119879	-0.097564
C13	C	-3.734487	0.226848	-0.243144
C14	C	-3.772402	0.220378	-0.330465
C15	C	-3.985883	0.180095	-0.823738
C16	C	-3.950270	0.186187	-0.741692
C17	C	-3.948825	0.261481	-0.712378
C18	C	-3.982975	0.330687	-0.765114
C19	C	-4.018572	0.324594	-0.847158
C20	C	-3.842149	0.283492	-0.465245
C21	C	-3.806554	0.289579	-0.383195
C22	C	-3.773848	0.145078	-0.359779
C23	C	-3.809460	0.138992	-0.441825
C24	C	-3.843596	0.208198	-0.494554
C25	C	-3.912430	0.267710	-0.628515
C26	C	-3.879976	0.201968	-0.578415
C27	C	-4.117372	0.093199	-0.101253
C28	C	-4.083274	0.004548	-0.101326
C29	C	-3.893187	-0.033305	-0.105313
C30	C	-3.861166	-0.116601	-0.105389
C31	C	-4.019239	-0.162043	-0.101484
C32	C	-4.209340	-0.124184	-0.097495
C33	C	-4.241354	-0.040889	-0.097413
C34	C	-3.931282	-0.413728	-0.101529
C35	C	-3.899253	-0.497028	-0.101614
C36	C	-3.551080	-0.489440	-0.109506
C37	C	-3.583114	-0.406144	-0.109429
C38	C	-3.773208	-0.368293	-0.105435
C39	C	-3.986514	-0.247185	-0.101565
C40	C	-3.805926	-0.283153	-0.105349
C41	C	-3.695829	0.376468	-0.105677
C42	C	-3.709166	0.465118	-0.105600
C43	C	-4.078714	0.242821	0.036212
C44	C	-4.020035	0.249296	0.123533
H45	H	-3.746048	0.088735	-0.316839
C46	C	-3.811036	0.056163	-0.474063
N47	N	-3.812227	-0.006226	-0.498345
H48	H	-4.086061	-0.382921	-0.098275
H49	H	-3.706388	-0.147417	-0.108645
C50	C	-4.450465	0.000749	-0.093029
N51	N	-4.607972	0.032109	-0.089725
C52	C	-3.987467	0.097265	-0.855975
N53	N	-3.988649	0.034874	-0.880253
C54	C	-3.804968	0.372412	-0.350952
N55	N	-3.803777	0.434799	-0.326667
C56	C	-3.632044	-0.233166	-0.109633
N57	N	-3.501079	-0.195509	-0.112858
C58	C	-4.160388	-0.297178	-0.097271
N59	N	-4.291346	-0.334836	-0.094036
C60	C	-3.879712	0.359622	-0.523236
N61	N	-3.908011	0.416967	-0.566919
H62	H	-3.764464	0.003688	-0.108496
C63	C	-3.341980	-0.531084	-0.113891
N64	N	-3.184475	-0.562451	-0.117190
H65	H	-3.922470	0.129836	-0.698763
H66	H	-3.881142	0.140664	-0.602286
C67	C	-3.981380	0.413512	-0.732865
N68	N	-3.980187	0.475897	-0.708577
H69	H	-4.046374	0.380945	-0.890090
H70	H	-3.911254	0.329015	-0.604638
H71	H	-3.454392	-0.369151	-0.112612
H72	H	-4.027988	-0.534025	-0.098435
H73	H	-4.338039	-0.161189	-0.094309
