data_functionalizedCrystal
_audit_creation_method	'MofGen! by Chris Wilmer'
_symmetry_space_group_name_H-M	'P1'
_symmetry_Int_Tables_number	1
_symmetry_cell_setting	triclinic
loop_
_symmetry_equiv_pos_as_xyz
  x,y,z
_cell_length_a	12.827893
_cell_length_b	13.032721
_cell_length_c	12.827885
_cell_angle_alpha	97.149059
_cell_angle_beta	89.980538
_cell_angle_gamma	97.204267
loop_
_atom_site_label
_atom_site_type_symbol
_atom_site_fract_x
_atom_site_fract_y
_atom_site_fract_z
Zn1	Zn	1.544800	-0.415987	-0.643644
Zn2	Zn	1.522480	-0.590766	-0.491086
Zn3	Zn	1.370035	-0.416038	-0.468924
Zn4	Zn	1.347823	-0.590688	-0.665776
O5	O	1.446284	-0.503370	-0.567357
O6	O	1.688074	-0.439183	-0.623419
O7	O	1.502212	-0.567642	-0.341917
O8	O	1.411855	-0.269794	-0.473563
O9	O	1.671675	-0.567593	-0.511336
O10	O	1.540254	-0.269756	-0.601929
O11	O	1.390211	-0.439270	-0.325634
O12	O	1.220854	-0.439194	-0.495024
O13	O	1.373998	-0.567460	-0.809070
O14	O	1.204535	-0.567509	-0.639651
O15	O	1.518716	-0.439108	-0.792809
O16	O	1.480674	-0.736993	-0.532797
O17	O	1.352354	-0.736936	-0.661141
C18	C	1.174777	-0.503350	-0.567335
C19	C	1.058622	-0.503366	-0.567353
C20	C	0.998777	-0.566960	-0.638834
C21	C	0.878724	-0.566978	-0.638854
C22	C	1.411710	-0.774882	-0.601798
C23	C	1.397015	-0.891037	-0.616567
C24	C	1.454009	-0.942815	-0.559696
C25	C	1.438823	-1.062867	-0.574959
C26	C	1.718852	-0.503391	-0.567381
C27	C	1.835004	-0.503400	-0.567391
C28	C	1.446369	-0.503270	-0.839915
C29	C	1.446405	-0.503227	-0.956063
C30	C	1.481022	-0.230797	-0.532805
C31	C	1.495825	-0.114643	-0.518081
C32	C	1.391006	-0.439692	-0.999789
C33	C	1.391042	-0.439646	-1.119833
C34	C	1.446270	-0.503394	-0.295851
C35	C	1.446473	-0.503143	-0.179666
H36	H	1.036420	-0.621387	-0.700019
H37	H	1.493860	-0.557589	-1.007500
C38	C	1.317094	-0.950369	-0.696726
C39	C	1.343145	-0.923817	-0.796791
C40	C	1.269552	-0.978461	-0.870664
H41	H	1.249076	-0.932652	-0.679272
H42	H	1.317535	-1.023174	-0.696426
H43	H	1.342692	-0.851028	-0.797088
H44	H	1.411150	-0.941537	-0.814277
H45	H	1.269994	-1.051265	-0.870363
H46	H	1.201539	-0.960739	-0.853200
H47	H	1.287223	-0.960460	-0.938566
H48	H	1.493910	-0.557536	-1.142038
C49	C	1.327609	-0.367167	-0.931398
C50	C	1.276484	-0.308563	-0.995005
C51	C	1.218059	-0.241752	-0.932045
H52	H	1.373298	-0.321599	-0.883037
H53	H	1.276950	-0.407176	-0.893913
H54	H	1.327137	-0.268557	-1.032472
H55	H	1.230777	-0.354103	-1.043364
H56	H	1.167400	-0.281761	-0.894560
H57	H	1.263755	-0.196191	-0.883687
H58	H	1.183356	-0.201988	-0.975193
C59	C	0.810326	-0.639689	-0.720518
C60	C	0.873933	-0.698356	-0.786429
C61	C	0.810959	-0.765358	-0.861664
H62	H	0.772834	-0.599849	-0.761119
H63	H	0.761959	-0.685202	-0.686236
H64	H	0.922282	-0.652849	-0.820709
H65	H	0.911425	-0.738218	-0.745857
H66	H	0.762592	-0.810871	-0.827382
H67	H	0.773470	-0.725509	-0.902258
H68	H	0.854106	-0.805178	-0.906388
H69	H	1.514053	-0.898270	-0.499712
H70	H	1.555872	-1.070100	-0.458092
H71	H	1.343617	-0.385247	-1.157467
H72	H	1.378784	-1.107411	-0.634956
H73	H	0.886431	-0.448956	-0.506187
H74	H	1.020979	-0.448931	-0.506175
