data_functionalizedCrystal
_audit_creation_method	'MofGen! by Chris Wilmer'
_symmetry_space_group_name_H-M	'P1'
_symmetry_Int_Tables_number	1
_symmetry_cell_setting	triclinic
loop_
_symmetry_equiv_pos_as_xyz
  x,y,z
_cell_length_a	10.654550
_cell_length_b	12.837942
_cell_length_c	9.130313
_cell_angle_alpha	89.996012
_cell_angle_beta	89.999724
_cell_angle_gamma	89.656935
loop_
_atom_site_label
_atom_site_type_symbol
_atom_site_fract_x
_atom_site_fract_y
_atom_site_fract_z
O1	O	1.683741	0.145723	-0.121688
O2	O	2.183741	0.645723	0.378312
O3	O	1.319778	0.159606	-0.121715
O4	O	1.819778	0.659606	0.378285
O5	O	1.493689	0.001704	-0.121693
O6	O	1.993689	0.501704	0.378307
O7	O	1.509830	0.303626	-0.121710
O8	O	2.009830	0.803626	0.378290
O9	O	1.493675	0.001699	0.121906
O10	O	1.993675	0.501699	0.621906
O11	O	1.319764	0.159602	0.121884
O12	O	1.819764	0.659602	0.621884
O13	O	1.683728	0.145718	0.121911
O14	O	2.183728	0.645718	0.621911
Cu15	Cu	1.501745	0.152660	0.144140
Cu16	Cu	2.001745	0.652660	0.644140
Cu17	Cu	1.501761	0.152665	-0.143944
Cu18	Cu	2.001761	0.652665	0.356056
O19	O	1.509816	0.303621	0.121889
O20	O	2.009816	0.803621	0.621889
C21	C	1.272862	0.158585	0.000081
C22	C	1.772862	0.658585	0.500081
C23	C	1.133086	0.155535	0.000071
C24	C	1.633086	0.655535	0.500071
C25	C	1.063746	0.248505	0.000070
C26	C	1.563746	0.748505	0.500070
C27	C	0.932411	0.245633	0.000096
C28	C	1.432411	0.745633	0.500096
C29	C	0.939770	0.056812	0.000117
C30	C	1.439770	0.556812	0.500117
C31	C	1.071101	0.059685	0.000102
C32	C	1.571101	0.559685	0.500102
C33	C	1.488230	-0.036958	0.000105
C34	C	1.988230	0.463042	0.500105
C35	C	1.471967	-0.152152	0.000101
C36	C	1.971967	0.347848	0.500101
C37	C	1.667472	-0.391705	0.000085
C38	C	2.167472	0.108295	0.500085
C39	C	1.652197	-0.499941	0.000082
C40	C	2.152197	0.000059	0.500082
C41	C	1.426146	-0.476861	0.000080
C42	C	1.926146	0.023139	0.500080
C43	C	1.441420	-0.368626	0.000084
C44	C	1.941420	0.131374	0.500084
C45	C	1.562087	-0.326052	0.000088
C46	C	2.062087	0.173948	0.500088
C47	C	1.577360	-0.217814	0.000103
C48	C	2.077360	0.282186	0.500103
C49	C	1.351309	-0.194737	0.000091
C50	C	1.851309	0.305263	0.500091
C51	C	1.336035	-0.302972	0.000087
C52	C	1.836035	0.197028	0.500087
C53	C	1.730644	0.146740	0.000111
C54	C	2.230644	0.646740	0.500111
C55	C	1.870420	0.149790	0.000112
C56	C	2.370420	0.649790	0.500112
C57	C	1.515276	0.342283	0.000087
C58	C	2.015276	0.842283	0.500087
C59	C	1.531538	0.457477	0.000081
C60	C	2.031538	0.957477	0.500081
N61	N	1.501742	0.152655	0.346762
N62	N	2.001742	0.652655	0.846762
N63	N	1.501772	0.152661	-0.346567
N64	N	2.001772	0.652661	0.153433
C65	C	1.578782	0.082766	0.423424
C66	C	2.078782	0.582766	0.923424
C67	C	1.578794	0.082766	0.576761
C68	C	2.078794	0.582766	1.076761
C69	C	1.424723	0.222554	0.576761
C70	C	1.924723	0.722554	1.076761
C71	C	1.424706	0.222548	0.423427
C72	C	1.924706	0.722548	0.923427
H73	H	1.675613	-0.183153	0.000112
H74	H	2.175613	0.316847	0.500112
H75	H	0.889286	-0.021225	0.000151
H76	H	1.389286	0.478775	0.500151
H77	H	1.127560	-0.016027	0.000107
H78	H	1.627560	0.483973	0.500107
N79	N	0.857593	0.345894	0.000098
N80	N	1.357593	0.845894	0.500098
H81	H	0.802956	0.348893	0.090414
H82	H	1.302956	0.848893	0.590414
H83	H	0.916848	0.407004	0.000025
H84	H	1.416848	0.907004	0.500025
N85	N	1.130603	0.351880	0.000035
N86	N	1.630603	0.851880	0.500035
H87	H	1.066743	0.410340	0.000040
H88	H	1.566743	0.910340	0.500040
H89	H	1.184944	0.357188	0.090331
H90	H	1.684944	0.857188	0.590331
H91	H	1.765723	-0.357041	0.000103
H92	H	2.265723	0.142959	0.500103
H93	H	1.738013	-0.553393	0.000074
H94	H	2.238013	-0.053393	0.500074
N95	N	1.341616	0.297941	0.340734
N96	N	1.841616	0.797941	0.840734
H97	H	1.353293	0.287327	0.231965
H98	H	1.853293	0.787327	0.731965
H99	H	1.251019	0.285271	0.367551
H100	H	1.751019	0.785271	0.867551
H101	H	1.327904	-0.511544	0.000061
H102	H	1.827904	-0.011544	0.500061
H103	H	1.641508	0.025853	0.361007
H104	H	2.141508	0.525853	0.861007
N105	N	1.341658	0.297948	0.659455
N106	N	1.841658	0.797948	1.159455
H107	H	1.292849	0.342222	0.587618
H108	H	1.792849	0.842222	1.087618
H109	H	1.281349	0.257806	0.723096
H110	H	1.781349	0.757806	1.223096
H111	H	1.641526	0.025854	0.639174
H112	H	2.141526	0.525854	1.139174
N113	N	1.205894	-0.348894	0.000077
N114	N	1.705894	0.151106	0.500077
H115	H	1.212206	-0.427424	0.000073
H116	H	1.712206	0.072576	0.500073
H117	H	1.159212	-0.324943	0.090387
H118	H	1.659212	0.175057	0.590387
N119	N	1.237633	-0.123925	0.000102
N120	N	1.737633	0.376075	0.500102
H121	H	1.265615	-0.048897	0.000109
H122	H	1.765615	0.451103	0.500109
H123	H	1.185608	-0.137796	-0.090204
H124	H	1.685608	0.362204	0.409796
