data_functionalizedCrystal
_audit_creation_method	'MofGen! by Chris Wilmer'
_symmetry_space_group_name_H-M	'P1'
_symmetry_Int_Tables_number	1
_symmetry_cell_setting	triclinic
loop_
_symmetry_equiv_pos_as_xyz
  x,y,z
_cell_length_a	6.817900
_cell_length_b	15.866870
_cell_length_c	10.992410
_cell_angle_alpha	110.457062
_cell_angle_beta	108.764651
_cell_angle_gamma	102.655915
loop_
_atom_site_label
_atom_site_type_symbol
_atom_site_fract_x
_atom_site_fract_y
_atom_site_fract_z
V1	V	-4.122271	-0.132635	-0.463409
O2	O	-4.071990	0.006374	-0.389949
O3	O	-4.107734	-0.262994	-0.522407
O4	O	-4.099739	-0.130595	-0.637155
O5	O	-4.080041	-0.126941	-0.274406
V6	V	-4.598159	-0.116008	-0.433251
O7	O	-4.400277	-0.169108	-0.529564
O8	O	-4.770350	-0.079535	-0.367096
O9	O	-4.389489	0.014350	-0.374253
O10	O	-4.765836	-0.255017	-0.506711
O11	O	-4.757785	-0.121702	-0.622254
O12	O	-4.397483	-0.118048	-0.259505
C13	C	-3.960136	-0.294772	-0.531138
C14	C	-4.029710	-0.401342	-0.580534
C15	C	-3.949936	-0.125884	-0.677509
C16	C	-4.013022	-0.125078	-0.819955
C17	C	-3.950392	-0.683426	-0.122343
C18	C	-4.015783	-0.783569	-0.168801
C19	C	-4.139039	-0.810921	-0.417066
C20	C	-4.073647	-0.710778	-0.370629
C21	C	-3.979328	-0.647038	-0.223266
C22	C	-4.102583	-0.674391	-0.471551
C23	C	-4.037207	-0.574257	-0.425117
C24	C	-3.942895	-0.510511	-0.277760
C25	C	-3.913952	-0.546904	-0.176832
C26	C	-4.196917	-0.738133	-0.618914
C27	C	-4.225853	-0.701745	-0.719836
C28	C	-4.160462	-0.601610	-0.673402
C29	C	-4.066150	-0.537863	-0.526046
C30	C	-4.189405	-0.565216	-0.774331
C31	C	-4.124029	-0.465082	-0.727897
C32	C	-4.000774	-0.437729	-0.479612
C33	C	-3.879701	-0.117738	-1.011603
C34	C	-3.814226	-0.118973	-0.863704
C35	C	-4.216755	-0.219600	-0.941825
C36	C	-4.281018	-0.218764	-1.089996
C37	C	-4.147714	-0.035735	-0.965282
C38	C	-4.076977	-0.035287	-0.816056
C39	C	-4.200429	0.046123	-0.365521
C40	C	-4.110095	0.152692	-0.316134
C41	C	-4.210628	-0.122763	-0.219146
C42	C	-4.126780	-0.123564	-0.076696
H43	H	-3.923937	-0.385827	-0.359612
Cl44	Cl	-4.257617	-0.891060	-0.602317
H45	H	-3.889673	-0.428976	-0.239957
H46	H	-3.837116	-0.495001	-0.056832
Cl47	Cl	-4.279114	-0.864018	-0.677288
H48	H	-4.302662	-0.753656	-0.839820
Cl49	Cl	-4.449671	-0.231771	-0.903127
H50	H	-4.463517	-0.226983	-1.136520
Cl51	Cl	-4.308008	-0.645358	-0.959581
H52	H	-3.873556	-0.631523	-0.002344
H53	H	-4.147624	-0.435456	-0.810080
H54	H	-4.326905	-0.039171	-1.007749
Cl55	Cl	-3.847083	-0.215170	-1.131832
Cl56	Cl	-4.263203	-0.321437	-1.210065
Cl57	Cl	-3.578622	-0.014058	-0.731658
H58	H	-3.760915	-0.182955	-0.869191
H59	H	-3.758358	-0.049306	-0.998022
Cl60	Cl	-4.152340	-0.322529	-0.951044
H61	H	-4.040458	0.036042	-0.951646
Cl62	Cl	-3.849273	0.072672	-0.684100
Cl63	Cl	-4.296276	-0.033565	-0.765037
H64	H	-3.992206	-0.813189	-0.086607
