data_functionalizedCrystal
_audit_creation_method	'MofGen! by Chris Wilmer'
_symmetry_space_group_name_H-M	'P1'
_symmetry_Int_Tables_number	1
_symmetry_cell_setting	triclinic
loop_
_symmetry_equiv_pos_as_xyz
  x,y,z
_cell_length_a	21.395362
_cell_length_b	16.120484
_cell_length_c	21.395356
_cell_angle_alpha	87.126786
_cell_angle_beta	90.035770
_cell_angle_gamma	92.942400
loop_
_atom_site_label
_atom_site_type_symbol
_atom_site_fract_x
_atom_site_fract_y
_atom_site_fract_z
Zn1	Zn	0.945194	-0.331598	0.367213
Zn2	Zn	1.445194	0.168402	0.867213
Zn3	Zn	0.939808	-0.471013	0.267744
Zn4	Zn	1.439808	0.028987	0.767744
Zn5	Zn	0.840422	-0.331654	0.262416
Zn6	Zn	1.340422	0.168346	0.762416
Zn7	Zn	0.835075	-0.471013	0.372449
Zn8	Zn	1.335075	0.028987	0.872449
O9	O	0.890125	-0.401320	0.317456
O10	O	1.390125	0.098680	0.817456
O11	O	1.032159	-0.350069	0.354057
O12	O	1.532159	0.149931	0.854057
O13	O	0.926608	-0.452551	0.179361
O14	O	1.426608	0.047449	0.679361
O15	O	0.858812	-0.214979	0.271897
O16	O	1.358812	0.285021	0.771897
O17	O	1.028202	-0.452496	0.280977
O18	O	1.528202	0.047504	0.780977
O19	O	0.935788	-0.214938	0.348890
O20	O	1.435788	0.285062	0.848890
O21	O	0.853590	-0.350164	0.175446
O22	O	1.353590	0.149836	0.675446
O23	O	0.752034	-0.350164	0.276974
O24	O	1.252034	0.149836	0.776974
O25	O	0.849699	-0.452496	0.459431
O26	O	1.349699	0.047504	0.959431
O27	O	0.748106	-0.452550	0.357815
O28	O	1.248106	0.047450	0.857815
O29	O	0.930603	-0.350068	0.455584
O30	O	1.430603	0.149932	0.955584
O31	O	0.921423	-0.587681	0.286055
O32	O	1.421423	-0.087681	0.786055
O33	O	0.844476	-0.587681	0.362981
O34	O	1.344476	-0.087681	0.862981
C35	C	0.727336	-0.401364	0.317385
C36	C	1.227336	0.098636	0.817385
C37	C	0.657693	-0.401403	0.317370
C38	C	1.157693	0.098597	0.817370
C39	C	0.881802	-0.617932	0.325678
C40	C	1.381802	-0.117932	0.825678
C41	C	0.878299	-0.710600	0.329216
C42	C	1.378299	-0.210600	0.829216
C43	C	0.622948	-0.454786	0.359406
C44	C	1.122948	0.045214	0.859406
C45	C	0.557513	-0.454766	0.359433
C46	C	1.057513	0.045234	0.859433
C47	C	0.526826	-0.401371	0.317413
C48	C	1.026826	0.098629	0.817413
C49	C	0.561579	-0.347977	0.275374
C50	C	1.061579	0.152023	0.775374
C51	C	0.627013	-0.347993	0.275352
C52	C	1.127013	0.152007	0.775352
C53	C	0.423364	-0.394664	0.260753
C54	C	0.923364	0.105336	0.760753
C55	C	0.357932	-0.394653	0.260774
C56	C	0.857932	0.105347	0.760774
C57	C	0.325007	-0.401316	0.317480
C58	C	0.825007	0.098684	0.817480
C59	C	0.357523	-0.408007	0.374169
C60	C	0.857523	0.091993	0.874169
C61	C	0.422956	-0.408023	0.374147
C62	C	0.922956	0.091977	0.874147
C63	C	0.455874	-0.401347	0.317432
C64	C	0.955874	0.098653	0.817432
C65	C	0.219310	-0.454680	0.359550
C66	C	0.719310	0.045320	0.859550
C67	C	0.153875	-0.454654	0.359578
C68	C	0.653875	0.045346	0.859578
C69	C	0.157942	-0.347870	0.275513
C70	C	0.657942	0.152130	0.775513
C71	C	0.223376	-0.347892	0.275490
C72	C	0.723376	0.152108	0.775490
C73	C	0.254056	-0.401301	0.317508
C74	C	0.754056	0.098699	0.817508
C75	C	0.871906	-0.880264	0.335690
C76	C	1.371906	-0.380264	0.835690
C77	C	0.908456	-0.921535	0.299232
C78	C	1.408456	-0.421535	0.799232
C79	C	0.904899	-1.015942	0.302834
C80	C	1.404899	-0.515942	0.802834
C81	C	0.875462	-0.785848	0.332089
C82	C	1.375462	-0.285848	0.832089
C83	C	1.053550	-0.401276	0.317527
C84	C	1.553550	0.098724	0.817527
C85	C	1.123192	-0.401258	0.317558
C86	C	1.623192	0.098742	0.817558
C87	C	0.890155	-0.401276	0.480877
C88	C	1.390155	0.098724	0.980877
C89	C	0.890168	-0.401257	0.550518
C90	C	1.390168	0.098743	1.050518
C91	C	0.898498	-0.183862	0.309215
C92	C	1.398498	0.316138	0.809215
C93	C	0.902065	-0.091194	0.305703
C94	C	1.402065	0.408806	0.805703
C95	C	0.890133	-0.401303	0.154667
C96	C	1.390133	0.098697	0.654667
C97	C	0.890250	-0.401087	0.085018
C98	C	1.390250	0.098913	0.585018
C99	C	0.928266	-0.454395	1.054346
C100	C	1.428266	0.045605	1.554346
C101	C	0.928254	-0.454422	0.988912
C102	C	1.428254	0.045578	1.488912
C103	C	0.890233	-0.401125	0.954151
C104	C	1.390233	0.098875	1.454151
C105	C	0.852210	-0.347813	0.984831
C106	C	1.352210	0.152187	1.484831
C107	C	0.852219	-0.347794	1.050265
C108	C	1.352219	0.152206	1.550265
C109	C	0.888164	-0.326043	0.847635
C110	C	1.388164	0.173957	1.347635
C111	C	0.888160	-0.326060	0.782203
C112	C	1.388160	0.173940	1.282203
C113	C	0.890203	-0.401184	0.752333
C114	C	1.390203	0.098816	1.252333
C115	C	0.892263	-0.476293	0.787903
C116	C	1.392263	0.023707	1.287903
C117	C	0.892272	-0.476274	0.853336
C118	C	1.392272	0.023726	1.353336
C119	C	0.890219	-0.401140	0.883200
C120	C	1.390219	0.098860	1.383200
C121	C	0.928207	-0.454526	0.650710
C122	C	1.428207	0.045474	1.150710
C123	C	0.928190	-0.454553	0.585274
C124	C	1.428190	0.045447	1.085274
C125	C	0.852150	-0.347938	0.581194
C126	C	1.352150	0.152062	1.081194
C127	C	0.852163	-0.347917	0.646629
C128	C	1.352163	0.152083	1.146629
C129	C	0.890195	-0.401210	0.681382
C130	C	1.390195	0.098790	1.181382
H131	H	0.647924	-0.498275	0.393621
H132	H	1.147924	0.001725	0.893621
H133	H	0.449428	-0.413468	0.420305
H134	H	0.949428	0.086532	0.920305
N135	N	0.969198	-0.512053	0.552193
N136	N	1.469198	-0.012053	1.052193
H137	H	0.999528	-0.478165	0.523772
H138	H	1.499528	0.021835	1.023772
H139	H	0.942204	-0.550700	0.526534
H140	H	1.442204	-0.050700	1.026534
H141	H	0.450166	-0.389234	0.214572
H142	H	0.950166	0.110766	0.714572
N143	N	0.116398	-0.512241	0.404917
N144	N	0.616398	-0.012241	0.904917
H145	H	0.070290	-0.504125	0.398558
H146	H	0.570290	-0.004125	0.898558
H147	H	0.128381	-0.499356	0.449188
H148	H	0.628381	0.000644	0.949188
N149	N	0.322864	-0.387444	0.199635
N150	N	0.822864	0.112556	0.699635
H151	H	0.353649	-0.383215	0.163708
H152	H	0.853649	0.116785	0.663708
H153	H	0.297707	-0.336070	0.198662
H154	H	0.797707	0.163930	0.698662
N155	N	0.528485	-0.290396	0.230044
N156	N	1.028485	0.209604	0.730044
H157	H	0.481760	-0.298492	0.236432
H158	H	0.981760	0.201508	0.736432
H159	H	0.539386	-0.303307	0.185770
H160	H	1.039386	0.196693	0.685770
N161	N	0.953442	-0.874424	0.254303
N162	N	1.453442	-0.374424	0.754303
H163	H	0.943178	-0.889581	0.210091
H164	H	1.443178	-0.389581	0.710091
H165	H	0.997630	-0.889465	0.264705
H166	H	1.497630	-0.389465	0.764705
H167	H	0.886486	-0.264902	0.753247
H168	H	1.386486	0.235098	1.253247
H169	H	0.330717	-0.413431	0.420345
H170	H	0.830717	0.086569	0.920345
N171	N	0.826919	-0.927370	0.380613
N172	N	1.326919	-0.427370	0.880613
H173	H	0.830724	-0.989111	0.376846
H174	H	1.330724	-0.489111	0.876846
H175	H	0.782735	-0.912282	0.370235
H176	H	1.282735	-0.412282	0.870235
H177	H	0.959233	-0.497793	1.082639
H178	H	1.459233	0.002207	1.582639
H179	H	0.132957	-0.304391	0.241302
H180	H	0.632957	0.195609	0.741302
H181	H	0.886542	-0.264859	0.871950
H182	H	1.386542	0.235141	1.371950
N183	N	0.811135	-0.290458	0.543712
N184	N	1.311135	0.209542	1.043712
H185	H	0.816896	-0.298560	0.497605
H186	H	1.316896	0.201440	0.997605
H187	H	0.823178	-0.230908	0.552895
H188	H	1.323178	0.269092	1.052895
N189	N	0.664486	-0.290406	0.230011
N190	N	1.164486	0.209594	0.730011
H191	H	0.652555	-0.303266	0.185719
H192	H	1.152555	0.196734	0.685719
H193	H	0.710582	-0.298542	0.236424
H194	H	1.210582	0.201458	0.736424
N195	N	0.894486	-0.557273	0.891706
N196	N	1.394486	-0.057273	1.391706
H197	H	0.933941	-0.585639	0.881418
H198	H	1.433941	-0.085639	1.381418
H199	H	0.856791	-0.594534	0.881701
H200	H	1.356791	-0.094534	1.381701
N201	N	0.969258	-0.511923	0.955822
N202	N	1.469258	-0.011923	1.455822
H203	H	0.993350	-0.545679	0.987770
H204	H	1.493350	-0.045679	1.487770
H205	H	0.999553	-0.477979	0.927402
H206	H	1.499553	0.022021	1.427402
H207	H	0.893928	-0.537466	0.763584
H208	H	1.393928	-0.037466	1.263584
N209	N	0.811198	-0.290332	0.947344
N210	N	1.311198	0.209668	1.447344
H211	H	0.816962	-0.298431	0.901237
H212	H	1.316962	0.201569	1.401237
H213	H	0.823241	-0.230782	0.956530
H214	H	1.323241	0.269218	1.456530
N215	N	0.252404	-0.512280	0.404870
N216	N	0.752404	-0.012280	0.904870
H217	H	0.280897	-0.478461	0.432652
H218	H	0.780897	0.021539	0.932652
H219	H	0.277991	-0.550867	0.380768
H220	H	0.777991	-0.050867	0.880768
N221	N	0.969222	-0.512004	0.688200
N222	N	1.469222	-0.012004	1.188200
H223	H	0.993301	-0.545784	0.658838
H224	H	1.493301	-0.045784	1.158838
H225	H	0.942238	-0.550584	0.716802
H226	H	1.442238	-0.050584	1.216802
H227	H	0.821209	-0.304505	0.671602
H228	H	1.321209	0.195495	1.171602
N229	N	0.811213	-0.290295	1.083349
N230	N	1.311213	0.209705	1.583349
H231	H	0.823231	-0.230726	1.069708
H232	H	1.323231	0.269274	1.569708
H233	H	0.817006	-0.298441	1.130065
H234	H	1.317006	0.201559	1.630065
N235	N	0.520027	-0.512344	0.404775
N236	N	1.020027	-0.012344	0.904775
H237	H	0.549392	-0.546179	0.431390
H238	H	1.049392	-0.046179	0.931390
H239	H	0.491360	-0.550869	0.380690
H240	H	0.991360	-0.050869	0.880690
H241	H	0.251666	-0.304425	0.241256
H242	H	0.751666	0.195575	0.741256
