data_functionalizedCrystal
_audit_creation_method	'MofGen! by Chris Wilmer'
_symmetry_space_group_name_H-M	'P1'
_symmetry_Int_Tables_number	1
_symmetry_cell_setting	triclinic
loop_
_symmetry_equiv_pos_as_xyz
  x,y,z
_cell_length_a	10.489711
_cell_length_b	10.489741
_cell_length_c	9.016244
_cell_angle_alpha	89.998079
_cell_angle_beta	89.991106
_cell_angle_gamma	84.533091
loop_
_atom_site_label
_atom_site_type_symbol
_atom_site_fract_x
_atom_site_fract_y
_atom_site_fract_z
O1	O	1.694082	0.179782	-0.123393
O2	O	1.322881	0.196714	-0.123384
O3	O	1.516928	0.002649	-0.123380
O4	O	1.500035	0.373847	-0.123397
O5	O	1.516899	0.002654	0.123301
O6	O	1.322852	0.196719	0.123296
O7	O	1.694053	0.179786	0.123288
Cu8	Cu	1.508450	0.188253	0.145816
Cu9	Cu	1.508484	0.188248	-0.145913
O10	O	1.500006	0.373851	0.123283
C11	C	1.275334	0.195446	-0.000043
C12	C	1.133703	0.191644	-0.000039
C13	C	1.515638	-0.044880	-0.000041
C14	C	1.511820	-0.186509	-0.000043
C15	C	0.951317	0.308348	-0.000062
C16	C	1.043476	0.250051	-0.121683
C17	C	1.043421	0.250024	0.121525
C18	C	0.973525	0.126508	-0.121793
C19	C	0.973460	0.126498	0.121525
C20	C	1.065593	0.068111	-0.000127
C21	C	1.388354	-0.254636	-0.000051
C22	C	1.446664	-0.346762	0.121574
C23	C	1.446722	-0.346741	-0.121634
C24	C	1.570181	-0.276770	0.121682
C25	C	1.570222	-0.276740	-0.121635
C26	C	1.628622	-0.368839	0.000020
C27	C	1.741600	0.181055	-0.000057
C28	C	1.883231	0.184857	-0.000070
C29	C	1.501296	0.421381	-0.000059
C30	C	1.505114	0.563010	-0.000067
N31	N	1.508436	0.188256	0.351002
N32	N	1.508508	0.188235	-0.351099
C33	C	1.404315	0.291719	0.586033
C34	C	1.404545	0.292107	0.414141
C35	C	1.641805	0.218537	0.413336
C36	C	1.641237	0.219269	0.585281
C37	C	1.480511	0.054172	0.585553
C38	C	1.477451	0.055041	0.413599
H39	H	0.901626	0.409850	-0.000187
Br40	Br	0.921729	0.039479	0.292920
Br41	Br	0.922208	0.039477	-0.293361
Br42	Br	1.433934	0.456567	0.657980
Br43	Br	1.239353	0.261828	0.343895
H44	H	1.115050	-0.033484	-0.000183
H45	H	1.622365	-0.245942	0.224622
H46	H	1.074365	0.302299	0.224348
H47	H	1.556480	-0.022852	0.626207
H48	H	1.286841	-0.204974	0.000074
Br49	Br	1.359579	-0.398437	0.292964
H50	H	1.730226	-0.418274	0.000085
H51	H	1.074483	0.302305	-0.224506
Br52	Br	1.657244	-0.225005	-0.293031
H53	H	1.394477	-0.377701	-0.224468
H54	H	1.304908	0.273779	0.627429
Br55	Br	1.434483	0.457902	0.345538
Br56	Br	1.682046	0.382288	0.652098
H57	H	1.721256	0.146933	0.626864
Br58	Br	1.774199	0.096339	0.345177
Br59	Br	1.321812	0.006162	0.657921
Br60	Br	1.683533	0.379713	0.341531
H61	H	1.379337	0.032089	0.372860
H62	H	1.548310	-0.025667	0.370625
