data_functionalizedCrystal
_audit_creation_method	'MofGen! by Chris Wilmer'
_symmetry_space_group_name_H-M	'P1'
_symmetry_Int_Tables_number	1
_symmetry_cell_setting	triclinic
loop_
_symmetry_equiv_pos_as_xyz
  x,y,z
_cell_length_a	33.428889
_cell_length_b	33.428139
_cell_length_c	33.424847
_cell_angle_alpha	60.004234
_cell_angle_beta	60.008465
_cell_angle_gamma	59.994972
loop_
_atom_site_label
_atom_site_type_symbol
_atom_site_fract_x
_atom_site_fract_y
_atom_site_fract_z
O1	O	0.055565	-0.584504	0.488714
O2	O	0.555565	-0.084504	0.988714
O3	O	0.020982	-0.455083	0.393778
O4	O	0.520982	0.044917	0.893778
O5	O	0.102943	-0.536959	0.393689
O6	O	0.602943	-0.036959	0.893689
O7	O	-0.026396	-0.502628	0.488803
O8	O	0.473604	-0.002628	0.988803
O9	O	0.130140	-0.509767	0.420792
O10	O	0.630140	-0.009767	0.920792
O11	O	0.048179	-0.427891	0.420881
O12	O	0.548179	0.072109	0.920881
O13	O	0.082762	-0.557312	0.515817
O14	O	0.582762	-0.057312	1.015817
Cu15	Cu	0.067954	-0.490119	0.470823
Cu16	Cu	0.567954	0.009881	0.970823
Cu17	Cu	0.035790	-0.522276	0.438771
Cu18	Cu	0.535790	-0.022276	0.938771
O19	O	0.000801	-0.475436	0.515906
O20	O	0.500801	0.024564	1.015906
N21	N	0.090577	-0.467504	0.493370
N22	N	0.590577	0.032496	0.993370
N23	N	0.013171	-0.544895	0.416225
N24	N	0.513171	-0.044895	0.916225
C25	C	0.143377	-0.280390	0.546067
C26	C	0.643377	0.219610	1.046067
C27	C	0.143515	-0.414755	0.680369
C28	C	0.643515	0.085245	1.180369
C29	C	0.143392	-0.414735	0.546069
C30	C	0.643392	0.085265	1.046069
C31	C	0.277766	-0.414702	0.545966
C32	C	0.777766	0.085298	1.045966
C33	C	0.158177	-0.324719	0.560828
C34	C	0.658177	0.175281	1.060828
C35	C	0.158255	-0.399967	0.636038
C36	C	0.658255	0.100033	1.136038
C37	C	0.233434	-0.399936	0.560773
C38	C	0.733434	0.100064	1.060773
C39	C	0.158186	-0.399955	0.560829
C40	C	0.658186	0.100045	1.060829
C41	C	0.124540	-0.223964	0.527278
C42	C	0.624540	0.276036	1.027278
C43	C	0.124565	-0.433545	0.527281
C44	C	0.624565	0.066455	1.027281
C45	C	0.177014	-0.381145	0.579617
C46	C	0.677014	0.118855	1.079617
C47	C	0.359814	-0.400540	0.502735
C48	C	0.859814	0.099460	1.002735
C49	C	0.411105	-0.417624	0.485606
C50	C	0.911105	0.082376	0.985606
C51	C	0.411136	-0.500620	0.517255
C52	C	0.911136	-0.000620	1.017255
C53	C	0.359845	-0.483534	0.534385
C54	C	0.859845	0.016466	1.034385
C55	C	0.136887	-0.198305	0.476855
C56	C	0.636887	0.301695	0.976855
C57	C	0.119761	-0.147011	0.459777
C58	C	0.619761	0.352989	0.959777
C59	C	0.077945	-0.147038	0.543547
C60	C	0.577945	0.352962	1.043547
C61	C	0.095072	-0.198332	0.560625
C62	C	0.595072	0.301668	1.060625
C63	C	0.074134	-0.421169	0.539710
C64	C	0.574134	0.078831	1.039710
C65	C	0.057023	-0.438269	0.522625
C66	C	0.557023	0.061731	1.022625
C67	C	0.140770	-0.480120	0.480694
C68	C	0.640770	0.019880	0.980694
C69	C	0.157883	-0.463020	0.497773
C70	C	0.657883	0.036980	0.997773
C71	C	0.074339	-0.421208	0.762475
C72	C	0.574339	0.078792	1.262475
C73	C	0.057288	-0.438323	0.813768
C74	C	0.557288	0.061677	1.313768
C75	C	0.141075	-0.480183	0.813699
C76	C	0.641075	0.019817	1.313699
C77	C	0.158125	-0.463069	0.762404
C78	C	0.658125	0.036931	1.262404
C79	C	0.124756	-0.433580	0.736794
C80	C	0.624756	0.066420	1.236794
C81	C	0.334186	-0.433494	0.527123
C82	C	0.834186	0.066506	1.027123
C83	C	-0.173769	-0.597444	0.363037
C84	C	0.326231	-0.097444	0.863037
C85	C	-0.039302	-0.597595	0.228856
C86	C	0.460698	-0.097595	0.728856
C87	C	-0.039496	-0.597587	0.363300
C88	C	0.460504	-0.097587	0.863300
C89	C	-0.039512	-0.731889	0.363237
C90	C	0.460488	-0.231889	0.863237
C91	C	-0.129442	-0.612265	0.348329
C92	C	0.370558	-0.112265	0.848329
C93	C	-0.054138	-0.612351	0.273187
C94	C	0.445862	-0.112351	0.773187
C95	C	-0.054257	-0.687554	0.348440
C96	C	0.445743	-0.187554	0.848440
C97	C	-0.054247	-0.612346	0.348477
C98	C	0.445753	-0.112346	0.848477
C99	C	-0.230191	-0.578579	0.381758
C100	C	0.269809	-0.078579	0.881758
C101	C	-0.020722	-0.578803	0.382168
C102	C	0.479278	-0.078803	0.882168
C103	C	-0.073020	-0.631130	0.329609
C104	C	0.426980	-0.131130	0.829609
C105	C	-0.053713	-0.813916	0.406386
C106	C	0.446287	-0.313916	0.906386
C107	C	-0.036654	-0.865210	0.423504
C108	C	0.463346	-0.365210	0.923504
C109	C	0.046338	-0.865293	0.391984
C110	C	0.546338	-0.365293	0.891984
C111	C	0.029278	-0.813999	0.374865
C112	C	0.529278	-0.313999	0.874865
C113	C	-0.255900	-0.590938	0.432169
C114	C	0.244100	-0.090938	0.932169
C115	C	-0.307191	-0.573786	0.449185
C116	C	0.192809	-0.073786	0.949185
C117	C	-0.307060	-0.531922	0.365377
C118	C	0.192940	-0.031922	0.865377
C119	C	-0.255769	-0.549074	0.348360
C120	C	0.244231	-0.049074	0.848360
C121	C	-0.033081	-0.528377	0.369764
C122	C	0.466919	-0.028377	0.869764
C123	C	-0.016014	-0.511306	0.386922
C124	C	0.483986	-0.011306	0.886922
C125	C	0.025770	-0.595083	0.428877
C126	C	0.525770	-0.095083	0.928877
C127	C	0.008703	-0.612156	0.411725
C128	C	0.508703	-0.112156	0.911725
C129	C	-0.032755	-0.528393	0.146761
C130	C	0.467245	-0.028393	0.646761
C131	C	-0.015585	-0.511324	0.095468
C132	C	0.484415	-0.011324	0.595468
C133	C	0.026262	-0.595106	0.095516
C134	C	0.526262	-0.095106	0.595516
C135	C	0.009094	-0.612174	0.146811
C136	C	0.509094	-0.112174	0.646811
C137	C	-0.020417	-0.578816	0.172432
C138	C	0.479583	-0.078816	0.672432
C139	C	-0.020748	-0.788312	0.382068
C140	C	0.479252	-0.288312	0.882068
N141	N	0.436037	-0.467415	0.493101
N142	N	0.936037	0.032585	0.993101
O143	O	0.592642	-0.471896	0.376066
O144	O	1.092642	0.028104	0.876066
O145	O	0.592838	-0.567146	0.505347
O146	O	1.092838	-0.067146	1.005347
O147	O	0.592754	-0.566928	0.423360
O148	O	1.092754	-0.066928	0.923360
O149	O	0.592727	-0.472113	0.458053
O150	O	1.092727	0.027887	0.958053
O151	O	0.511269	-0.539835	0.450606
O152	O	1.011269	-0.039835	0.950606
O153	O	0.511353	-0.540052	0.532594
O154	O	1.011353	-0.040052	1.032594
O155	O	0.511157	-0.444802	0.403312
O156	O	1.011157	0.055198	0.903312
Cu157	Cu	0.503815	-0.489954	0.470441
Cu158	Cu	1.003815	0.010046	0.970441
Cu159	Cu	0.600180	-0.521995	0.438219
Cu160	Cu	1.100180	-0.021995	0.938219
O161	O	0.511242	-0.445020	0.485300
O162	O	1.011242	0.054980	0.985300
N163	N	0.667959	-0.544533	0.415554
N164	N	1.167959	-0.044533	0.915554
N165	N	0.090544	-0.122107	0.493359
N166	N	0.590544	0.377893	0.993359
O167	O	-0.026406	0.034587	0.488773
O168	O	0.473594	0.534587	0.988773
O169	O	0.102877	0.034627	0.393499
O170	O	0.602877	0.534627	0.893499
O171	O	0.020848	0.034591	0.393771
O172	O	0.520848	0.534591	0.893771
O173	O	0.055623	0.034623	0.488500
O174	O	0.555623	0.534623	0.988500
O175	O	0.048051	-0.046899	0.420925
O176	O	0.548051	0.453101	0.920925
O177	O	0.130080	-0.046864	0.420653
O178	O	0.630080	0.453136	0.920653
O179	O	0.000796	-0.046903	0.515927
O180	O	0.500796	0.453097	1.015927
Cu181	Cu	0.067922	-0.054324	0.470769
Cu182	Cu	0.567922	0.445676	0.970769
Cu183	Cu	0.035752	0.042048	0.438656
Cu184	Cu	0.535752	0.542048	0.938656
O185	O	0.082825	-0.046867	0.515655
O186	O	0.582825	0.453133	1.015655
N187	N	0.013123	0.109830	0.416068
N188	N	0.513123	0.609830	0.916068
N189	N	0.090892	-0.467554	0.838649
N190	N	0.590892	0.032446	1.338649
O191	O	0.086330	-0.584488	0.995334
O192	O	0.586330	-0.084488	1.495334
O193	O	-0.008902	-0.455160	0.995379
O194	O	0.491098	0.044840	1.495379
O195	O	-0.008679	-0.537172	0.995355
O196	O	0.491321	-0.037172	1.495355
O197	O	0.086107	-0.502475	0.995358
O198	O	0.586107	-0.002475	1.495358
O199	O	0.018452	-0.509990	0.913868
O200	O	0.518452	-0.009990	1.413868
O201	O	0.018230	-0.427978	0.913891
O202	O	0.518230	0.072022	1.413891
O203	O	0.113461	-0.557306	0.913847
O204	O	0.613461	-0.057306	1.413847
Cu205	Cu	0.068323	-0.490160	0.906429
Cu206	Cu	0.568323	0.009840	1.406429
Cu207	Cu	0.036237	-0.522306	1.002797
Cu208	Cu	0.536237	-0.022306	1.502797
O209	O	0.113239	-0.475293	0.913870
O210	O	0.613239	0.024707	1.413870
N211	N	0.013667	-0.544916	1.070577
N212	N	0.513667	-0.044916	1.570577
C213	C	0.031339	-0.425179	0.394250
C214	C	0.531339	0.074821	0.894250
C215	C	0.132837	-0.526572	0.394139
C216	C	0.632837	-0.026572	0.894139
C217	C	0.072405	-0.587216	0.515344
C218	C	0.572405	-0.087216	1.015344
C219	C	-0.029093	-0.485823	0.515455
C220	C	0.470907	0.014177	1.015455
C221	C	0.552119	-0.566716	0.535258
C222	C	1.052119	-0.066716	1.035258
C223	C	0.552016	-0.566447	0.433726
C224	C	1.052016	-0.066447	0.933726
C225	C	0.551873	-0.445232	0.373402
C226	C	1.051873	0.054768	0.873402
C227	C	0.551980	-0.445502	0.474933
C228	C	1.051980	0.054498	0.974933
C229	C	0.132731	-0.006013	0.393923
C230	C	0.632731	0.493987	0.893923
C231	C	0.031182	-0.006158	0.394293
C232	C	0.531182	0.493842	0.894293
C233	C	-0.029092	-0.006163	0.515469
C234	C	0.470908	0.493837	1.015469
C235	C	0.072491	-0.006119	0.515133
C236	C	0.572491	0.493881	1.015133
C237	C	-0.008451	-0.425276	0.954641
C238	C	0.491549	0.074724	1.454641
C239	C	-0.008170	-0.526833	0.954596
C240	C	0.491830	-0.026833	1.454596
C241	C	0.113010	-0.587190	0.954585
C242	C	0.613010	-0.087190	1.454585
C243	C	0.112735	-0.485627	0.954611
C244	C	0.612735	0.014373	1.454611
H245	H	0.047163	-0.397193	0.741627
H246	H	0.547163	0.102807	1.241627
H247	H	0.551811	-0.415327	0.336274
H248	H	1.051811	0.084673	0.836274
O249	O	0.041703	-0.392521	0.568347
O250	O	0.541703	0.107479	1.068347
C251	C	-0.006478	-0.385273	0.575657
C252	C	0.493522	0.114727	1.075657
H253	H	-0.006412	-0.390999	0.544741
H254	H	0.493588	0.109001	1.044741
H255	H	-0.030837	-0.346374	0.575942
H256	H	0.469163	0.153626	1.075942
H257	H	-0.021143	-0.412583	0.612199
H258	H	0.478857	0.087417	1.112199
H259	H	-0.066220	-0.006175	0.545378
H260	H	0.433780	0.493825	1.045378
O261	O	0.008047	-0.426338	0.534715
O262	O	0.508047	0.073662	1.034715
C263	C	-0.004319	-0.469448	0.560542
C264	C	0.495681	0.030552	1.060542
H265	H	0.029490	-0.501665	0.551262
H266	H	0.529490	-0.001665	1.051262
H267	H	-0.034079	-0.464867	0.549652
H268	H	0.465921	0.035133	1.049652
H269	H	-0.018365	-0.476671	0.601596
H270	H	0.481635	0.023329	1.101596
O271	O	0.148324	-0.476807	0.954539
O272	O	0.648324	0.023193	1.454539
C273	C	0.189619	-0.482231	0.912319
C274	C	0.689619	0.017769	1.412319
H275	H	0.189230	-0.506806	0.898245
H276	H	0.689230	-0.006806	1.398245
H277	H	0.224403	-0.499517	0.921798
H278	H	0.724403	0.000483	1.421798
H279	H	0.188619	-0.444758	0.882775
H280	H	0.688619	0.055242	1.382775
O281	O	0.177186	-0.535370	0.358566
O282	O	0.677186	-0.035370	0.858566
C283	C	0.207637	-0.583516	0.376264
C284	C	0.707637	-0.083516	0.876264
H285	H	0.194350	-0.596494	0.417998
H286	H	0.694350	-0.096494	0.917998
H287	H	0.246897	-0.584130	0.361249
H288	H	0.746897	-0.084130	0.861249
H289	H	0.206287	-0.608855	0.363857
H290	H	0.706287	-0.108855	0.863857
H291	H	0.016234	-0.428240	0.834672
H292	H	0.516234	0.071760	1.334672
O293	O	0.081424	-0.006204	0.550658
O294	O	0.581424	0.493796	1.050658
C295	C	0.121127	-0.048395	0.561879
C296	C	0.621127	0.451605	1.061879
H297	H	0.124980	-0.077893	0.551119
H298	H	0.624980	0.422107	1.051119
H299	H	0.114256	-0.062567	0.602870
H300	H	0.614256	0.437433	1.102870
H301	H	0.156248	-0.038840	0.540724
H302	H	0.656248	0.461160	1.040724
H303	H	0.552170	-0.596617	0.572390
H304	H	1.052170	-0.096617	1.072390
O305	O	0.551946	-0.410013	0.483873
O306	O	1.051946	0.089987	0.983873
C307	C	0.552022	-0.427869	0.532016
C308	C	1.052022	0.072131	1.032016
H309	H	0.536637	-0.459344	0.555205
H310	H	1.036637	0.040656	1.055205
H311	H	0.528361	-0.397194	0.548521
H312	H	1.028361	0.102806	1.048521
H313	H	0.591129	-0.441507	0.531253
H314	H	1.091129	0.058493	1.031253
O315	O	-0.044107	-0.380945	0.954569
O316	O	0.455893	0.119055	1.454569
C317	C	-0.057284	-0.359261	0.912376
C318	C	0.442716	0.140739	1.412376
H319	H	-0.025821	-0.375464	0.882870
H320	H	0.474179	0.124536	1.382870
H321	H	-0.065388	-0.318029	0.898220
H322	H	0.434612	0.181971	1.398220
H323	H	-0.091298	-0.366754	0.921920
H324	H	0.408702	0.133246	1.421920
O325	O	-0.043621	-0.535745	0.954532
O326	O	0.456379	-0.035745	1.454532
C327	C	-0.025771	-0.583909	0.954516
C328	C	0.474229	-0.083909	1.454516
H329	H	0.015963	-0.596807	0.939106
H330	H	0.515963	-0.096807	1.439106
H331	H	-0.040672	-0.584600	0.930829
H332	H	0.459328	-0.084600	1.430829
H333	H	-0.038170	-0.609266	0.993599
H334	H	0.461830	-0.109266	1.493599
O335	O	0.552007	-0.601922	0.424800
O336	O	1.052007	-0.101922	0.924800
C337	C	0.551959	-0.584075	0.376648
C338	C	1.051959	-0.084075	0.876648
H339	H	0.536491	-0.542340	0.363776
H340	H	1.036491	-0.042340	0.863776
H341	H	0.528307	-0.599016	0.375964
H342	H	1.028307	-0.099016	0.875964
H343	H	0.591038	-0.596436	0.351267
H344	H	1.091038	-0.096436	0.851267
O345	O	0.081290	-0.631603	0.550857
O346	O	0.581290	-0.131603	1.050857
C347	C	0.129445	-0.661983	0.533073
C348	C	0.629445	-0.161983	1.033073
H349	H	0.142359	-0.648627	0.491340
H350	H	0.642359	-0.148627	0.991340
H351	H	0.130116	-0.701259	0.548040
H352	H	0.630116	-0.201259	1.048040
H353	H	0.154799	-0.660628	0.545459
H354	H	0.654799	-0.160628	1.045459
O355	O	-0.073389	-0.477189	0.551135
O356	O	0.426611	0.022811	1.051135
C357	C	-0.073413	-0.519326	0.593353
C358	C	0.426587	-0.019326	1.093353
H359	H	-0.044418	-0.552949	0.582547
H360	H	0.455582	-0.052949	1.082547
H361	H	-0.110987	-0.523713	0.611684
H362	H	0.389013	-0.023713	1.111684
H363	H	-0.064852	-0.515388	0.619966
H364	H	0.435148	-0.015388	1.119966
H365	H	0.169783	-0.005775	0.363939
H366	H	0.669783	0.494225	0.863939
H367	H	0.142910	-0.624330	0.954565
H368	H	0.642910	-0.124330	1.454565
O369	O	0.022232	-0.006203	0.358852
O370	O	0.522232	0.493797	0.858852
C371	C	-0.025930	-0.006215	0.376721
C372	C	0.474070	0.493785	0.876721
H373	H	-0.038798	-0.021631	0.418456
H374	H	0.461202	0.478369	0.918456
H375	H	-0.026640	-0.029897	0.361830
H376	H	0.473360	0.470103	0.861830
H377	H	-0.051297	0.032871	0.364329
H378	H	0.448703	0.532871	0.864329
H379	H	0.199181	-0.473148	0.741498
H380	H	0.699181	0.026852	1.241498
O381	O	0.173557	-0.508839	0.838501
O382	O	0.673557	-0.008839	1.338501
C383	C	0.221713	-0.516079	0.804836
C384	C	0.721713	-0.016079	1.304836
H385	H	0.221587	-0.510335	0.768281
H386	H	0.721587	-0.010335	1.268281
H387	H	0.246087	-0.554981	0.819629
H388	H	0.746087	-0.054981	1.319629
H389	H	0.236406	-0.488776	0.799375
H390	H	0.736406	0.011224	1.299375
O391	O	0.173204	-0.508734	0.452020
O392	O	0.673204	-0.008734	0.952020
C393	C	0.221385	-0.516001	0.444728
C394	C	0.721385	-0.016001	0.944728
H395	H	0.221296	-0.485077	0.450457
H396	H	0.721296	0.014923	0.950457
H397	H	0.245708	-0.516257	0.405818
H398	H	0.745708	-0.016257	0.905818
H399	H	0.236110	-0.552544	0.472011
H400	H	0.736110	-0.052544	0.972011
H401	H	0.198948	-0.473094	0.487648
H402	H	0.698948	0.026906	0.987648
H403	H	0.432025	-0.541365	0.523165
H404	H	0.932025	-0.041365	1.023165
O405	O	0.334978	-0.515559	0.557995
O406	O	0.834978	-0.015559	1.057995
C407	C	0.347505	-0.539581	0.526605
C408	C	0.847505	-0.039581	1.026605
H409	H	0.361568	-0.516215	0.486897
H410	H	0.861568	-0.016215	0.986897
H411	H	0.313775	-0.545362	0.532684
H412	H	0.813775	-0.045362	1.032684
H413	H	0.377300	-0.576592	0.534851
H414	H	0.877300	-0.076592	1.034851
O415	O	0.435981	-0.385582	0.461839
O416	O	0.935981	0.114418	0.961839
C417	C	0.423395	-0.350755	0.419575
C418	C	0.923395	0.149245	0.919575
H419	H	0.409278	-0.366563	0.407806
H420	H	0.909278	0.133437	0.907806
H421	H	0.457108	-0.341357	0.388767
H422	H	0.957108	0.158643	0.888767
H423	H	0.393623	-0.316182	0.427975
H424	H	0.893623	0.183818	0.927975
O425	O	0.334811	-0.351942	0.495705
O426	O	0.834811	0.148058	0.995705
C427	C	0.284044	-0.343927	0.516062
C428	C	0.784044	0.156073	1.016062
H429	H	0.277039	-0.375280	0.518537
H430	H	0.777039	0.124720	1.018537
H431	H	0.264524	-0.307902	0.491818
H432	H	0.764524	0.192098	0.991818
H433	H	0.269517	-0.342116	0.554289
H434	H	0.769517	0.157884	1.054289
O435	O	0.165488	-0.223126	0.444394
O436	O	0.665488	0.276874	0.944394
C437	C	0.172718	-0.189478	0.396226
C438	C	0.672718	0.310522	0.896226
H439	H	0.141783	-0.152922	0.396341
H440	H	0.641783	0.347078	0.896341
H441	H	0.172965	-0.204296	0.371883
H442	H	0.672965	0.295704	0.871883
H443	H	0.209252	-0.184007	0.381503
H444	H	0.709252	0.315993	0.881503
H445	H	0.053957	-0.126168	0.570702
H446	H	0.553957	0.373832	1.070702
O447	O	0.131773	-0.122028	0.410805
O448	O	0.631773	0.377972	0.910805
C449	C	0.157594	-0.092354	0.398389
C450	C	0.657594	0.407646	0.898389
H451	H	0.148367	-0.084676	0.432187
H452	H	0.648367	0.415324	0.932187
H453	H	0.146648	-0.056281	0.368657
H454	H	0.646648	0.443719	0.868657
H455	H	0.198646	-0.112107	0.384283
H456	H	0.698646	0.387893	0.884283
H457	H	-0.025639	-0.470264	0.074572
H458	H	0.474361	0.029736	0.574572
O459	O	0.083136	-0.223221	0.609614
O460	O	0.583136	0.276779	1.109614
C461	C	0.100691	-0.210656	0.630877
C462	C	0.600691	0.289344	1.130877
H463	H	0.132309	-0.196549	0.601647
H464	H	0.632309	0.303451	1.101647
H465	H	0.114034	-0.244380	0.661109
H466	H	0.614034	0.255620	1.161109
H467	H	0.069925	-0.180880	0.647069
H468	H	0.569925	0.319120	1.147069
O469	O	-0.061404	-0.495921	0.171571
O470	O	0.438596	0.004079	0.671571
C471	C	-0.068624	-0.447756	0.137913
C472	C	0.431376	0.052244	0.637913
H473	H	-0.037660	-0.447882	0.101383
H474	H	0.462340	0.052118	0.601383
H475	H	-0.068917	-0.423406	0.152754
H476	H	0.431083	0.076594	0.652754
H477	H	-0.105134	-0.433031	0.132385
H478	H	0.394866	0.066969	0.632385
H479	H	0.050281	-0.622271	0.074658
H480	H	0.550281	-0.122271	0.574658
H481	H	-0.057039	-0.501216	0.345698
H482	H	0.442961	-0.001216	0.845698
O483	O	0.021107	-0.661174	0.171670
O484	O	0.521107	-0.161174	0.671670
C485	C	0.050840	-0.686953	0.138056
C486	C	0.550840	-0.186953	0.638056
H487	H	0.044355	-0.662490	0.101460
H488	H	0.544355	-0.162490	0.601460
H489	H	0.041202	-0.721160	0.152853
H490	H	0.541202	-0.221160	0.652853
H491	H	0.091005	-0.698056	0.132672
H492	H	0.591005	-0.198056	0.632672
H493	H	-0.328125	-0.583847	0.490235
H494	H	0.171875	-0.083847	0.990235
H495	H	-0.026079	-0.470245	0.376824
H496	H	0.473921	0.029755	0.876824
H497	H	0.018765	-0.653217	0.421828
H498	H	0.518765	-0.153217	0.921828
O499	O	0.054337	-0.627552	0.457597
O500	O	0.554337	-0.127552	0.957597
C501	C	0.061597	-0.675720	0.464851
C502	C	0.561597	-0.175720	0.964851
H503	H	0.030696	-0.675597	0.459056
H504	H	0.530696	-0.175597	0.959056
H505	H	0.061808	-0.700064	0.503772
H506	H	0.561808	-0.200064	1.003772
H507	H	0.098157	-0.690448	0.437591
H508	H	0.598157	-0.190448	0.937591
H509	H	0.056124	-0.793157	0.355062
H510	H	0.556124	-0.293157	0.855062
H511	H	-0.063498	-0.886058	0.443304
H512	H	0.436502	-0.386058	0.943304
O513	O	0.094951	-0.890170	0.384930
O514	O	0.594951	-0.390170	0.884930
C515	C	0.120389	-0.856572	0.359806
C516	C	0.620389	-0.356572	0.859806
H517	H	0.098055	-0.819997	0.338749
H518	H	0.598055	-0.319997	0.838749
H519	H	0.157393	-0.871427	0.333069
H520	H	0.657393	-0.371427	0.833069
H521	H	0.126287	-0.851124	0.387283
H522	H	0.626287	-0.351124	0.887283
H523	H	-0.094449	-0.793002	0.412253
H524	H	0.405551	-0.293002	0.912253
H525	H	-0.235077	-0.614964	0.459366
H526	H	0.264923	-0.114964	0.959366
H527	H	-0.234840	-0.539009	0.307312
H528	H	0.265160	-0.039009	0.807312
O529	O	-0.331855	-0.503322	0.332888
O530	O	0.168145	-0.003322	0.832888
C531	C	-0.319298	-0.529238	0.303236
C532	C	0.180702	-0.029238	0.803236
H533	H	-0.282079	-0.559128	0.302794
H534	H	0.217921	-0.059128	0.802794
H535	H	-0.317480	-0.502935	0.264320
H536	H	0.182520	-0.002935	0.764320
H537	H	-0.348181	-0.546609	0.318615
H538	H	0.151819	-0.046609	0.818615
O539	O	0.022437	-0.380808	0.358721
O540	O	0.522437	0.119192	0.858721
C541	C	-0.025709	-0.350420	0.376514
C542	C	0.474291	0.149580	0.876514
H543	H	-0.048920	-0.374069	0.407986
H544	H	0.451080	0.125931	0.907986
H545	H	-0.042173	-0.326932	0.345807
H546	H	0.457827	0.173068	0.845807
H547	H	-0.024967	-0.325686	0.390135
H548	H	0.475033	0.174314	0.890135
