data_functionalizedCrystal
_audit_creation_method	'MofGen! by Chris Wilmer'
_symmetry_space_group_name_H-M	'P1'
_symmetry_Int_Tables_number	1
_symmetry_cell_setting	triclinic
loop_
_symmetry_equiv_pos_as_xyz
  x,y,z
_cell_length_a	11.792241
_cell_length_b	16.109301
_cell_length_c	14.586319
_cell_angle_alpha	89.986216
_cell_angle_beta	89.996002
_cell_angle_gamma	83.827448
loop_
_atom_site_label
_atom_site_type_symbol
_atom_site_fract_x
_atom_site_fract_y
_atom_site_fract_z
O1	O	-1.505914	-0.113963	0.076155
O2	O	-1.175470	-0.125707	0.076176
O3	O	-1.349770	0.001153	0.076155
O4	O	-1.331614	-0.240823	0.076175
O5	O	-1.349745	0.001175	-0.076325
O6	O	-1.175445	-0.125686	-0.076305
O7	O	-1.505889	-0.113941	-0.076326
Cu8	Cu	-1.340665	-0.119812	-0.090238
Cu9	Cu	-1.340694	-0.119837	0.090088
O10	O	-1.331590	-0.240802	-0.076306
C11	C	-1.349022	0.032142	-0.000085
C12	C	-1.346817	0.124448	-0.000087
C13	C	-1.133173	-0.124959	-0.000062
C14	C	-1.007179	-0.122751	-0.000054
C15	C	-1.548186	-0.114690	-0.000087
C16	C	-1.674181	-0.116898	-0.000088
C17	C	-0.776502	-0.118690	-0.000080
C18	C	-0.904868	-0.120946	-0.000066
C19	C	-1.332338	-0.271791	-0.000063
C20	C	-1.334542	-0.364097	-0.000055
N21	N	-1.340653	-0.119793	-0.217070
C22	C	-1.445116	0.346258	-0.000078
C23	C	-1.443036	0.432988	-0.000071
C24	C	-1.236235	0.414087	-0.000061
C25	C	-1.238317	0.327358	-0.000062
C26	C	-1.342761	0.293446	-0.000075
C27	C	-1.338599	0.466905	-0.000067
C28	C	-1.336342	0.560942	-0.000058
C29	C	-1.345018	0.199404	-0.000082
C30	C	-1.271875	-0.069065	-0.548098
C31	C	-1.271866	-0.069053	-0.452117
C32	C	-1.409502	-0.170579	-0.452058
C33	C	-1.409516	-0.170586	-0.548038
C34	C	-1.340696	-0.119830	-0.596055
C35	C	-1.340673	-0.119812	-0.404095
C36	C	-1.340663	-0.119800	-0.300028
C37	C	-1.340706	-0.119841	-0.700129
N38	N	-1.340716	-0.119849	0.216920
H39	H	-1.530161	0.318650	-0.000088
C40	C	-1.196181	-0.013229	-0.600917
C41	C	-1.103724	-0.052766	-0.666897
C42	C	-1.028030	0.003073	-0.719712
C43	C	-1.044792	0.098448	-0.706547
C44	C	-1.137254	0.137990	-0.640565
C45	C	-1.212948	0.082151	-0.587750
H46	H	-1.091311	-0.123373	-0.676645
H47	H	-0.959583	-0.026199	-0.768557
H48	H	-0.988759	0.139783	-0.745644
H49	H	-1.149666	0.208597	-0.630817
H50	H	-1.281394	0.111423	-0.538905
C51	C	-1.125718	0.269259	-0.000061
C52	C	-1.040136	0.273369	0.079120
C53	C	-0.927542	0.215270	0.079125
C54	C	-0.900531	0.153062	-0.000052
C55	C	-0.986115	0.148949	-0.079239
C56	C	-1.098708	0.207048	-0.079244
H57	H	-1.060129	0.319422	0.137737
H58	H	-0.864187	0.218315	0.137745
H59	H	-0.817182	0.110054	-0.000048
H60	H	-0.966121	0.102897	-0.137856
H61	H	-1.162063	0.204003	-0.137864
H62	H	-1.465531	-0.211904	-0.412951
C63	C	-1.485226	-0.226432	-0.600795
C64	C	-1.615530	-0.214813	-0.587579
C65	C	-1.691242	-0.270654	-0.640335
C66	C	-1.636650	-0.338113	-0.706308
C67	C	-1.506339	-0.349735	-0.719527
C68	C	-1.430627	-0.293895	-0.666771
H69	H	-1.655949	-0.164873	-0.538740
H70	H	-1.787707	-0.262050	-0.630549
H71	H	-1.692696	-0.379449	-0.745362
H72	H	-1.465920	-0.399675	-0.768367
H73	H	-1.334162	-0.302498	-0.676557
C74	C	-1.555630	0.491080	-0.000078
C75	C	-1.641204	0.486971	-0.079265
C76	C	-1.753804	0.545063	-0.079270
C77	C	-1.780829	0.607263	-0.000088
C78	C	-1.695252	0.611375	0.079105
C79	C	-1.582653	0.553283	0.079110
H80	H	-1.621200	0.440924	-0.137885
H81	H	-1.817153	0.542019	-0.137894
H82	H	-1.864182	0.650266	-0.000091
H83	H	-1.715256	0.657422	0.137726
H84	H	-1.519304	0.556327	0.137735
C85	C	-1.196155	-0.013214	-0.399364
C86	C	-1.120459	0.042612	-0.452186
C87	C	-1.044746	0.098454	-0.399433
C88	C	-1.044728	0.098469	-0.293860
C89	C	-1.120427	0.042641	-0.241033
C90	C	-1.196141	-0.013201	-0.293785
H91	H	-1.120470	0.042603	-0.530343
H92	H	-0.988708	0.139782	-0.438540
H93	H	-0.988681	0.139807	-0.254809
H94	H	-1.120417	0.042650	-0.162875
H95	H	-1.252178	-0.054529	-0.254678
H96	H	-1.151201	0.441709	-0.000052
