data_functionalizedCrystal
_audit_creation_method	'MofGen! by Chris Wilmer'
_symmetry_space_group_name_H-M	'P1'
_symmetry_Int_Tables_number	1
_symmetry_cell_setting	triclinic
loop_
_symmetry_equiv_pos_as_xyz
  x,y,z
_cell_length_a	18.050589
_cell_length_b	19.077105
_cell_length_c	19.076919
_cell_angle_alpha	90.076224
_cell_angle_beta	87.724745
_cell_angle_gamma	92.275269
loop_
_atom_site_label
_atom_site_type_symbol
_atom_site_fract_x
_atom_site_fract_y
_atom_site_fract_z
Zn1	Zn	-0.359281	-1.058247	0.440438
Zn2	Zn	0.140719	-0.558247	0.940438
Zn3	Zn	-0.478689	-1.062879	0.322938
Zn4	Zn	0.021311	-0.562879	0.822938
Zn5	Zn	-0.349333	-0.945466	0.318231
Zn6	Zn	0.150667	-0.445466	0.818231
Zn7	Zn	-0.478241	-0.940701	0.435691
Zn8	Zn	0.021759	-0.440701	0.935691
O9	O	-0.416386	-1.001823	0.379325
O10	O	0.083614	-0.501823	0.879325
O11	O	-0.379472	-1.157193	0.428809
O12	O	0.120528	-0.657193	0.928809
O13	O	-0.457554	-1.051237	0.223983
O14	O	0.042446	-0.551237	0.723983
O15	O	-0.246731	-0.960482	0.334459
O16	O	0.253269	-0.460482	0.834459
O17	O	-0.467201	-1.160596	0.342482
O18	O	0.032799	-0.660596	0.842482
O19	O	-0.254040	-1.043342	0.424244
O20	O	0.245960	-0.543342	0.924244
O21	O	-0.362516	-0.964973	0.220524
O22	O	0.137484	-0.464973	0.720524
O23	O	-0.362082	-0.846502	0.329856
O24	O	0.137918	-0.346502	0.829856
O25	O	-0.466437	-0.952361	0.534652
O26	O	0.033563	-0.452361	1.034652
O27	O	-0.456790	-0.843002	0.416153
O28	O	0.043210	-0.343002	0.916153
O29	O	-0.379038	-1.038722	0.538140
O30	O	0.120962	-0.538722	1.038140
O31	O	-0.582551	-1.046617	0.337879
O32	O	-0.082551	-0.546617	0.837879
O33	O	-0.582222	-0.956853	0.420717
O34	O	-0.082222	-0.456853	0.920717
C35	C	-0.408308	-0.819256	0.371979
C36	C	0.091692	-0.319256	0.871979
C37	C	-0.404871	-0.741152	0.368853
C38	C	0.095129	-0.241152	0.868853
C39	C	-0.609334	-1.001739	0.379310
C40	C	-0.109334	-0.501739	0.879310
C41	C	-0.691882	-1.001766	0.379329
C42	C	-0.191882	-0.501766	0.879329
C43	C	-0.423797	-0.994493	0.562605
C44	C	0.076203	-0.494493	1.062605
C45	C	-0.426955	-0.991370	0.640709
C46	C	0.073045	-0.491370	1.140709
C47	C	-0.891182	-0.952999	0.424363
C48	C	-0.391182	-0.452999	0.924363
C49	C	-0.937256	-0.938449	0.359556
C50	C	-0.437256	-0.438449	0.859556
C51	C	-0.843016	-1.001835	0.379341
C52	C	-0.343016	-0.501835	0.879341
C53	C	-0.944025	-1.016419	0.444157
C54	C	-0.444025	-0.516419	0.944157
C55	C	-0.989004	-1.001900	0.379358
C56	C	-0.489004	-0.501900	0.879358
C57	C	-0.887999	-0.987253	0.314499
C58	C	-0.387999	-0.487253	0.814499
C59	C	-0.894768	-1.065250	0.399145
C60	C	-0.394768	-0.565250	0.899145
C61	C	-0.940818	-1.050726	0.334295
C62	C	-0.440818	-0.550726	0.834295
C63	C	-0.758915	-1.001796	0.379332
C64	C	-0.258915	-0.501796	0.879332
C65	C	-1.073102	-1.001939	0.379360
C66	C	-0.573102	-0.501939	0.879360
C67	C	-0.222686	-1.001926	0.379356
C68	C	0.277314	-0.501926	0.879356
C69	C	-0.140143	-1.001970	0.379369
C70	C	0.359857	-0.501970	0.879369
C71	C	-0.424496	-1.185104	0.386700
C72	C	0.075504	-0.685104	0.886700
C73	C	-0.427952	-1.263207	0.389843
C74	C	0.072048	-0.763207	0.889843
C75	C	-0.452635	-0.702657	0.412244
C76	C	0.047365	-0.202657	0.912244
C77	C	-0.449396	-0.629270	0.409310
C78	C	0.050604	-0.129270	0.909310
C79	C	-0.398396	-0.594379	0.362981
C80	C	0.101604	-0.094379	0.862981
C81	C	-0.350627	-0.632879	0.319588
C82	C	0.149373	-0.132879	0.819588
C83	C	-0.353863	-0.706264	0.322526
C84	C	0.146137	-0.206264	0.822526
C85	C	-0.383419	-0.375093	0.349388
C86	C	0.116581	0.124907	0.849388
C87	C	-0.380188	-0.301702	0.346452
C88	C	0.119812	0.198298	0.846452
C89	C	-0.478956	-0.298098	0.436175
C90	C	0.021044	0.201902	0.936175
C91	C	-0.482191	-0.371485	0.439105
C92	C	0.017809	0.128515	0.939105
C93	C	-0.434419	-0.409979	0.395715
C94	C	0.065581	0.090021	0.895715
N95	N	-0.395085	-0.519366	0.359980
N96	N	0.104915	-0.019366	0.859980
N97	N	-0.437727	-0.484990	0.398721
N98	N	0.062273	0.015010	0.898721
C99	C	-0.408952	-1.009165	0.196759
C100	C	0.091048	-0.509165	0.696759
C101	C	-0.405591	-1.012425	0.118661
C102	C	0.094409	-0.512425	0.618661
C103	C	-0.382937	-1.034863	0.679219
C104	C	0.117063	-0.534863	1.179219
C105	C	-0.385901	-1.031920	0.752605
C106	C	0.114099	-0.531920	1.252605
C107	C	-0.432888	-0.985486	0.787479
C108	C	0.067112	-0.485486	1.287479
C109	C	-0.476908	-0.941988	0.748964
C110	C	0.023092	-0.441988	1.248964
C111	C	-0.473940	-0.944928	0.675579
C112	C	0.026060	-0.444928	1.175579
C113	C	-0.446642	-0.971867	1.006761
C114	C	0.053358	-0.471867	1.506761
C115	C	-0.449609	-0.968931	1.080151
C116	C	0.050391	-0.468931	1.580151
C117	C	-0.358601	-1.058863	1.083787
C118	C	0.141399	-0.558863	1.583787
C119	C	-0.355639	-1.061802	1.010401
C120	C	0.144361	-0.561802	1.510401
C121	C	-0.399657	-1.018301	0.971892
C122	C	0.100343	-0.518301	1.471892
N123	N	-0.435921	-0.982478	0.862492
N124	N	0.064079	-0.482478	1.362492
N125	N	-0.396619	-1.021307	0.896881
N126	N	0.103381	-0.521307	1.396881
H127	H	-0.869387	-0.911645	0.462377
H128	H	-0.369387	-0.411645	0.962377
O129	O	-0.531630	-0.405448	0.484155
O130	O	-0.031630	0.094552	0.984155
C131	C	-0.493129	-0.446090	0.531319
C132	C	0.006871	0.053910	1.031319
H133	H	-0.436298	-0.458092	0.507064
H134	H	0.063702	0.041908	1.007064
H135	H	-0.526049	-0.497308	0.542758
H136	H	-0.026049	0.002692	1.042758
H137	H	-0.485910	-0.415735	0.582271
H138	H	0.014090	0.084265	1.082271
H139	H	-0.309099	-0.604465	0.281869
H140	H	0.190901	-0.104465	0.781869
O141	O	-0.966614	-1.099955	0.288733
O142	O	-0.466614	-0.599955	0.788733
C143	C	-0.937794	-1.084358	0.220512
C144	C	-0.437794	-0.584358	0.720512
H145	H	-0.921434	-1.026109	0.216781
H146	H	-0.421434	-0.526109	0.716781
H147	H	-0.981758	-1.097810	0.180833
H148	H	-0.481758	-0.597810	0.680833
H149	H	-0.886887	-1.116541	0.208756
H150	H	-0.386887	-0.616541	0.708756
H151	H	-0.968523	-1.028729	0.498964
H152	H	-0.468523	-0.528729	0.998964
O153	O	-0.872379	-1.129149	0.419265
O154	O	-0.372379	-0.629149	0.919265
C155	C	-0.901004	-1.144295	0.487648
C156	C	-0.401004	-0.644295	0.987648
H157	H	-0.913944	-1.093271	0.515920
H158	H	-0.413944	-0.593271	1.015920
H159	H	-0.858254	-1.173272	0.517702
H160	H	-0.358254	-0.673272	1.017702
H161	H	-0.953961	-1.178588	0.484619
H162	H	-0.453961	-0.678588	0.984619
H163	H	-0.314965	-0.737606	0.287196
H164	H	0.185035	-0.237606	0.787196
O165	O	-0.337228	-1.079988	0.645454
O166	O	0.162772	-0.579988	1.145454
C167	C	-0.299026	-1.117757	0.695185
C168	C	0.200974	-0.617757	1.195185
H169	H	-0.297298	-1.086879	0.746336
H170	H	0.202702	-0.586879	1.246336
H171	H	-0.239988	-1.126133	0.674296
H172	H	0.260012	-0.626133	1.174296
H173	H	-0.328897	-1.170797	0.705137
H174	H	0.171103	-0.670797	1.205137
H175	H	-0.494167	-0.731060	0.449968
H176	H	0.005833	-0.231060	0.949968
H177	H	-0.488291	-0.597931	0.444643
H178	H	0.011709	-0.097931	0.944643
O179	O	-0.525278	-0.260597	0.478299
O180	O	-0.025278	0.239403	0.978299
C181	C	-0.511502	-0.188344	0.465762
C182	C	-0.011502	0.311656	0.965762
H183	H	-0.452784	-0.179254	0.442439
H184	H	0.047216	0.320746	0.942439
H185	H	-0.517523	-0.158359	0.517273
H186	H	-0.017523	0.341641	1.017273
H187	H	-0.553058	-0.168992	0.427439
H188	H	-0.053058	0.331008	0.927439
O189	O	-0.330576	-0.267917	0.301429
O190	O	0.169424	0.232083	0.801429
C191	C	-0.289117	-0.317628	0.263749
C192	C	0.210883	0.182372	0.763749
H193	H	-0.290059	-0.368796	0.294628
H194	H	0.209941	0.131204	0.794628
H195	H	-0.229360	-0.296737	0.255502
H196	H	0.270640	0.203263	0.755502
H197	H	-0.314404	-0.327549	0.210648
H198	H	0.185596	0.172451	0.710648
O199	O	-0.858968	-0.972392	0.249083
O200	O	-0.358968	-0.472392	0.749083
C201	C	-0.881101	-0.905761	0.228232
C202	C	-0.381101	-0.405761	0.728232
H203	H	-0.933975	-0.892102	0.259067
H204	H	-0.433975	-0.392102	0.759067
H205	H	-0.891963	-0.906523	0.169769
H206	H	-0.391963	-0.406523	0.669769
H207	H	-0.835264	-0.864778	0.238996
H208	H	-0.335264	-0.364778	0.738996
H209	H	-0.344525	-0.406425	0.314051
H210	H	0.155475	0.093575	0.814051
O211	O	-0.343052	-1.074066	0.790035
O212	O	0.156948	-0.574066	1.290035
C213	C	-0.295041	-1.032382	0.830884
C214	C	0.204959	-0.532382	1.330884
H215	H	-0.287120	-0.977927	0.806539
H216	H	0.212880	-0.477927	1.306539
H217	H	-0.239045	-1.057789	0.832740
H218	H	0.260955	-0.557789	1.332740
H219	H	-0.320134	-1.027724	0.886404
H220	H	0.179866	-0.527724	1.386404
O221	O	-0.309872	-1.106829	0.976568
O222	O	0.190128	-0.606829	1.476568
C223	C	-0.235913	-1.090789	0.993926
C224	C	0.264087	-0.590789	1.493926
H225	H	-0.230511	-1.033843	1.011828
H226	H	0.269489	-0.533843	1.511828
H227	H	-0.197524	-1.098797	0.945928
H228	H	0.302476	-0.598797	1.445928
H229	H	-0.219899	-1.126755	1.038057
H230	H	0.280101	-0.626755	1.538057
O231	O	-0.315865	-1.101042	1.121301
O232	O	0.184135	-0.601042	1.621301
C233	C	-0.328571	-1.088505	1.193551
C234	C	0.171429	-0.588505	1.693551
H235	H	-0.350901	-1.033863	1.201385
H236	H	0.149099	-0.533863	1.701385
H237	H	-0.274282	-1.092181	1.221641
H238	H	0.225718	-0.592181	1.721641
H239	H	-0.370802	-1.129331	1.216050
H240	H	0.129198	-0.629331	1.716050
H241	H	-0.487874	-0.931117	1.108544
H242	H	0.012126	-0.431117	1.608544
O243	O	-0.489463	-0.929577	0.969467
O244	O	0.010537	-0.429577	1.469467
C245	C	-0.531551	-0.887948	1.015987
C246	C	-0.031551	-0.387948	1.515987
H247	H	-0.537528	-0.914643	1.069452
H248	H	-0.037528	-0.414643	1.569452
H249	H	-0.588867	-0.881248	0.994466
H250	H	-0.088867	-0.381248	1.494466
H251	H	-0.502294	-0.834292	1.021660
H252	H	-0.002294	-0.334292	1.521660
O253	O	-0.522534	-0.896941	0.782950
O254	O	-0.022534	-0.396941	1.282950
C255	C	-0.515704	-0.903660	0.855979
C256	C	-0.015704	-0.403660	1.355979
H257	H	-0.494189	-0.957500	0.868193
H258	H	0.005811	-0.457500	1.368193
H259	H	-0.572247	-0.897745	0.883667
H260	H	-0.072247	-0.397745	1.383667
H261	H	-0.475153	-0.861168	0.875132
H262	H	0.024847	-0.361168	1.375132
O263	O	-0.516783	-0.902661	0.638276
O264	O	-0.016783	-0.402661	1.138276
C265	C	-0.558883	-0.861038	0.684791
C266	C	-0.058883	-0.361038	1.184791
H267	H	-0.564836	-0.887719	0.738265
H268	H	-0.064836	-0.387719	1.238265
H269	H	-0.616208	-0.854371	0.663279
H270	H	-0.116208	-0.354371	1.163279
H271	H	-0.529651	-0.807368	0.690444
H272	H	-0.029651	-0.307368	1.190444
H273	H	-0.956052	-0.884851	0.342820
H274	H	-0.456052	-0.384851	0.842820
