data_functionalizedCrystal
_audit_creation_method	'MofGen! by Chris Wilmer'
_symmetry_space_group_name_H-M	'P1'
_symmetry_Int_Tables_number	1
_symmetry_cell_setting	triclinic
loop_
_symmetry_equiv_pos_as_xyz
  x,y,z
_cell_length_a	16.120530
_cell_length_b	18.215404
_cell_length_c	16.120297
_cell_angle_alpha	87.128027
_cell_angle_beta	90.128140
_cell_angle_gamma	92.880662
loop_
_atom_site_label
_atom_site_type_symbol
_atom_site_fract_x
_atom_site_fract_y
_atom_site_fract_z
Zn1	Zn	1.247438	0.372844	-0.534560
Zn2	Zn	1.747438	0.872844	-0.034560
Zn3	Zn	1.254388	0.489999	-0.395501
Zn4	Zn	1.754388	0.989999	0.104499
Zn5	Zn	1.115429	0.360408	-0.388478
Zn6	Zn	1.615429	0.860408	0.111522
Zn7	Zn	1.108345	0.489321	-0.527470
Zn8	Zn	1.608345	0.989321	-0.027470
O9	O	1.181400	0.428143	-0.461502
O10	O	1.681400	0.928143	0.038498
O11	O	1.364726	0.393873	-0.522020
O12	O	1.864726	0.893873	-0.022020
O13	O	1.241828	0.467888	-0.278204
O14	O	1.741828	0.967888	0.221796
O15	O	1.132996	0.259077	-0.407884
O16	O	1.632996	0.759077	0.092116
O17	O	1.369833	0.479946	-0.419854
O18	O	1.869833	0.979946	0.080146
O19	O	1.229983	0.268214	-0.515210
O20	O	1.729983	0.768214	-0.015210
O21	O	1.139735	0.372678	-0.273044
O22	O	1.639735	0.872678	0.226956
O23	O	0.998123	0.372020	-0.401010
O24	O	1.498123	0.872020	0.098990
O25	O	1.120922	0.478791	-0.644776
O26	O	1.620922	0.978791	-0.144776
O27	O	0.992918	0.466733	-0.503127
O28	O	1.492918	0.966733	-0.003127
O29	O	1.223114	0.393216	-0.649985
O30	O	1.723114	0.893216	-0.149985
O31	O	1.234959	0.592890	-0.412979
O32	O	1.734959	1.092890	0.087021
O33	O	1.127662	0.592392	-0.509936
O34	O	1.627662	1.092392	-0.009936
C35	C	0.965348	0.417954	-0.450537
C36	C	1.465348	0.917954	0.049463
C37	C	0.872919	0.413614	-0.445866
C38	C	1.372919	0.913614	0.054134
C39	C	1.181318	0.619344	-0.461470
C40	C	1.681318	1.119344	0.038530
C41	C	1.181357	0.701146	-0.461487
C42	C	1.681357	1.201146	0.038513
C43	C	1.170453	0.437315	-0.678396
C44	C	1.670453	0.937315	-0.178396
C45	C	1.165788	0.441224	-0.770824
C46	C	1.665788	0.941224	-0.270824
C47	C	0.703689	0.405673	-0.437345
C48	C	1.203689	0.905673	0.062655
C49	C	0.659948	0.450670	-0.485721
C50	C	1.159948	0.950670	0.014279
C51	C	0.565783	0.446252	-0.480980
C52	C	1.065783	0.946252	0.019020
C53	C	0.797863	0.410090	-0.442085
C54	C	1.297863	0.910090	0.057915
C55	C	1.398296	0.438372	-0.472511
C56	C	1.898296	0.938372	0.027489
C57	C	1.490724	0.442731	-0.477202
C58	C	1.990724	0.942731	0.022798
C59	C	1.237350	0.889585	-0.411117
C60	C	1.737350	1.389585	0.088883
C61	C	1.237388	0.966447	-0.411144
C62	C	1.737388	1.466447	0.088856
C63	C	1.125571	0.965960	-0.512014
C64	C	1.625571	1.465960	-0.012014
C65	C	1.125538	0.889100	-0.511991
C66	C	1.625538	1.389100	-0.011991
C67	C	1.181427	0.850914	-0.461538
C68	C	1.681427	1.350914	0.038462
C69	C	1.181497	1.004636	-0.461587
C70	C	1.681497	1.504636	0.038413
C71	C	1.181537	1.087973	-0.461617
C72	C	1.681537	1.587973	0.038383
C73	C	1.181388	0.767573	-0.461509
C74	C	1.681388	1.267573	0.038491
C75	C	1.181509	1.236198	-0.461570
C76	C	1.681509	1.736198	0.038430
C77	C	1.181567	1.154405	-0.461638
C78	C	1.681567	1.654405	0.038362
C79	C	1.157240	0.448342	-0.940048
C80	C	1.657240	0.948342	-0.440048
C81	C	1.205724	0.407732	-0.983817
C82	C	1.705724	0.907732	-0.483817
C83	C	1.200968	0.411692	-1.077979
C84	C	1.700968	0.911692	-0.577979
C85	C	1.161995	0.444382	-0.845877
C86	C	1.661995	0.944382	-0.345877
C87	C	1.192352	0.418956	-0.245455
C88	C	1.692352	0.918956	0.254545
C89	C	1.197179	0.414848	-0.153036
C90	C	1.697179	0.914848	0.346964
H91	H	0.693220	0.492512	-0.530699
H92	H	1.193220	0.992512	-0.030699
Br93	Br	1.049643	0.836614	-0.580431
Br94	Br	1.549643	1.336614	-0.080431
H95	H	0.670419	0.363834	-0.392371
H96	H	1.170419	0.863834	0.107629
H97	H	1.282859	0.858496	-0.370037
H98	H	1.782859	1.358496	0.129963
H99	H	1.282927	0.997929	-0.370088
H100	H	1.782927	1.497929	0.129912
H101	H	1.250803	0.369989	-0.950570
H102	H	1.750803	0.869989	-0.450570
H103	H	1.080067	0.997060	-0.553089
H104	H	1.580067	1.497060	-0.053089
H105	H	1.112164	0.486081	-0.973293
H106	H	1.612164	0.986081	-0.473293
