data_functionalizedCrystal
_audit_creation_method	'MofGen! by Chris Wilmer'
_symmetry_space_group_name_H-M	'P1'
_symmetry_Int_Tables_number	1
_symmetry_cell_setting	triclinic
loop_
_symmetry_equiv_pos_as_xyz
  x,y,z
_cell_length_a	23.532409
_cell_length_b	11.792241
_cell_length_c	10.868271
_cell_angle_alpha	90.000107
_cell_angle_beta	89.997933
_cell_angle_gamma	96.478512
loop_
_atom_site_label
_atom_site_type_symbol
_atom_site_fract_x
_atom_site_fract_y
_atom_site_fract_z
O1	O	0.078055	-1.505072	-0.102194
O2	O	0.411388	-1.171739	0.231140
O3	O	0.744721	-0.838406	0.564473
O4	O	0.086099	-1.174542	-0.102222
O5	O	0.419432	-0.841209	0.231112
O6	O	0.752766	-0.507875	0.564445
O7	O	-0.000796	-1.349773	-0.102208
O8	O	0.332538	-1.016440	0.231125
O9	O	0.665871	-0.683106	0.564458
O10	O	0.164950	-1.329841	-0.102207
O11	O	0.498283	-0.996508	0.231126
O12	O	0.831616	-0.663175	0.564460
O13	O	-0.000799	-1.349759	0.102436
O14	O	0.332534	-1.016425	0.435770
O15	O	0.665868	-0.683092	0.769103
O16	O	0.086096	-1.174528	0.102423
O17	O	0.419429	-0.841194	0.435756
O18	O	0.752762	-0.507861	0.769090
O19	O	0.078051	-1.505058	0.102451
O20	O	0.411385	-1.171725	0.435784
O21	O	0.744718	-0.838391	0.769118
Zn22	Zn	0.082073	-1.339791	0.134929
Zn23	Zn	0.415406	-1.006457	0.468262
Zn24	Zn	0.748740	-0.673124	0.801595
Zn25	Zn	0.082078	-1.339809	-0.134699
Zn26	Zn	0.415411	-1.006476	0.198634
Zn27	Zn	0.748744	-0.673143	0.531967
O28	O	0.164946	-1.329827	0.102438
O29	O	0.498279	-0.996494	0.435771
O30	O	0.831613	-0.663160	0.769104
C31	C	0.085592	-1.132256	0.000097
C32	C	0.418925	-0.798922	0.333430
C33	C	0.752259	-0.465589	0.666764
C34	C	0.084080	-1.006278	0.000086
C35	C	0.417413	-0.672944	0.333420
C36	C	0.750746	-0.339611	0.666753
C37	C	-0.022016	-1.349258	0.000111
C38	C	0.311317	-1.015925	0.333444
C39	C	0.644650	-0.682591	0.666778
C40	C	-0.085242	-1.347731	0.000102
C41	C	0.248091	-1.014397	0.333435
C42	C	0.581424	-0.681064	0.666768
C43	C	0.078558	-1.547344	0.000129
C44	C	0.411892	-1.214011	0.333463
C45	C	0.745225	-0.880678	0.666796
C46	C	0.080071	-1.673322	0.000132
C47	C	0.413404	-1.339989	0.333466
C48	C	0.746738	-1.006656	0.666799
C49	C	-0.358524	-1.341244	-0.111456
C50	C	-0.025191	-1.007911	0.221877
C51	C	0.308143	-0.674577	0.555211
C52	C	-0.299115	-1.342662	-0.111456
C53	C	0.034218	-1.009329	0.221877
C54	C	0.367551	-0.675996	0.555211
O55	O	-0.268384	-1.343442	-0.206323
O56	O	0.064949	-1.010109	0.127010
O57	O	0.398282	-0.676775	0.460344
N58	N	-0.269411	-1.343356	0.000098
N59	N	0.063922	-1.010023	0.333431
N60	N	0.397256	-0.676690	0.666764
C61	C	-0.299119	-1.342644	0.111659
C62	C	0.034214	-1.009311	0.444992
C63	C	0.367548	-0.675977	0.778325
O64	O	-0.268398	-1.343366	0.206544
O65	O	0.064935	-1.010032	0.539877
O66	O	0.398269	-0.676699	0.873210
C67	C	-0.358527	-1.341234	0.111658
C68	C	-0.025194	-1.007901	0.444991
C69	C	0.308140	-0.674567	0.778324
C70	C	-0.388228	-1.340528	0.000097
C71	C	-0.054894	-1.007195	0.333430
C72	C	0.278439	-0.673862	0.666763
C73	C	-0.388225	-1.340540	-0.223008
C74	C	-0.054891	-1.007206	0.110325
C75	C	0.278442	-0.673873	0.443659
C76	C	-0.447629	-1.339119	-0.223007
C77	C	-0.114296	-1.005786	0.110326
C78	C	0.219038	-0.672453	0.443659
C79	C	-0.477333	-1.338404	-0.111455
C80	C	-0.143999	-1.005070	0.221879
C81	C	0.189334	-0.671737	0.555212
C82	C	-0.447632	-1.339108	0.000097
C83	C	-0.114299	-1.005775	0.333430
C84	C	0.219035	-0.672441	0.666764
C85	C	-0.388234	-1.340530	0.223217
C86	C	-0.054901	-1.007196	0.556551
C87	C	0.278432	-0.673863	0.889884
C88	C	-0.447647	-1.339120	0.223207
C89	C	-0.114313	-1.005787	0.556540
C90	C	0.219020	-0.672454	0.889873
C91	C	-0.477347	-1.338415	0.111646
C92	C	-0.144014	-1.005081	0.444979
C93	C	0.189320	-0.671748	0.778312
C94	C	-0.536740	-1.336972	0.111650
C95	C	-0.203407	-1.003639	0.444984
C96	C	0.129927	-0.670305	0.778317
N97	N	-0.566444	-1.336278	0.000097
N98	N	-0.233111	-1.002945	0.333430
N99	N	0.100222	-0.669611	0.666763
C100	C	-0.536741	-1.336994	-0.111456
C101	C	-0.203407	-1.003660	0.221877
C102	C	0.129926	-0.670327	0.555211
C103	C	-0.174358	-1.345607	0.111653
C104	C	0.158975	-1.012274	0.444986
C105	C	0.492308	-0.678940	0.778319
C106	C	-0.114951	-1.347009	0.111655
C107	C	0.218383	-1.013675	0.444988
C108	C	0.551716	-0.680342	0.778322
C109	C	-0.114951	-1.347029	-0.111460
C110	C	0.218382	-1.013696	0.221873
C111	C	0.551715	-0.680363	0.555206
C112	C	-0.174359	-1.345619	-0.111461
C113	C	0.158974	-1.012286	0.221872
C114	C	0.492307	-0.678953	0.555205
C115	C	-0.204063	-1.344913	0.000099
C116	C	0.129271	-1.011580	0.333432
C117	C	0.462604	-0.678246	0.666766
C118	C	-0.661494	-1.334010	-0.111446
C119	C	-0.328161	-1.000677	0.221887
C120	C	0.005172	-0.667343	0.555220
C121	C	-0.720904	-1.332585	-0.111436
C122	C	-0.387570	-0.999252	0.221898
C123	C	-0.054237	-0.665918	0.555231
C124	C	-0.720898	-1.332571	0.111679
C125	C	-0.387565	-0.999237	0.445012
C126	C	-0.054231	-0.665904	0.778345
C127	C	-0.661494	-1.333990	0.111669
C128	C	-0.328160	-1.000656	0.445002
C129	C	0.005173	-0.667323	0.778336
C130	C	-0.631793	-1.334713	0.000097
C131	C	-0.298460	-1.001380	0.333430
C132	C	0.034873	-0.668047	0.666763
O133	O	-0.567509	-1.336196	0.206469
O134	O	-0.234176	-1.002863	0.539802
O135	O	0.099158	-0.669530	0.873135
O136	O	-0.567470	-1.336287	-0.206325
O137	O	-0.234137	-1.002953	0.127008
O138	O	0.099197	-0.669620	0.460342
C139	C	0.186167	-1.330342	0.000116
C140	C	0.519500	-0.997009	0.333449
C141	C	0.852834	-0.663675	0.666782
C142	C	0.249393	-1.331869	0.000117
C143	C	0.582726	-0.998536	0.333450
C144	C	0.916060	-0.665203	0.666783
N145	N	0.082070	-1.339786	0.318943
N146	N	0.415403	-1.006453	0.652276
N147	N	0.748736	-0.673119	0.985609
C148	C	0.081299	-0.775631	0.000121
C149	C	0.414632	-0.442298	0.333455
C150	C	0.747965	-0.108964	0.666788
C151	C	0.082844	-0.903980	0.000102
C152	C	0.416177	-0.570646	0.333435
C153	C	0.749510	-0.237313	0.666769
N154	N	0.082076	-1.339823	-0.318714
N155	N	0.415410	-1.006490	0.014620
N156	N	0.748743	-0.673156	0.347953
C157	C	0.082076	-1.339803	0.569949
C158	C	0.415410	-1.006470	0.903282
C159	C	0.748743	-0.673137	1.236616
C160	C	0.082074	-1.339790	0.430271
C161	C	0.415408	-1.006457	0.763605
C162	C	0.748741	-0.673123	1.096938
H163	H	-0.745083	-1.332006	-0.202286
H164	H	-0.411750	-0.998673	0.131047
H165	H	-0.078416	-0.665340	0.464381
H166	H	-0.637319	-1.334600	-0.202299
H167	H	-0.303986	-1.001267	0.131034
H168	H	0.029347	-0.667934	0.464367
H169	H	-0.637307	-1.334519	0.202511
H170	H	-0.303974	-1.001186	0.535844
H171	H	0.029359	-0.667853	0.869178
H172	H	-0.090756	-1.347608	-0.202293
H173	H	0.242578	-1.014275	0.131041
H174	H	0.575911	-0.680942	0.464374
H175	H	-0.471828	-1.338546	0.314055
H176	H	-0.138494	-1.005213	0.647388
H177	H	0.194839	-0.671879	0.980721
C178	C	-0.753583	-1.331779	0.234381
C179	C	-0.420250	-0.998446	0.567714
C180	C	-0.086916	-0.665112	0.901047
N181	N	-0.778204	-1.331189	0.326801
N182	N	-0.444870	-0.997856	0.660134
N183	N	-0.111537	-0.664522	0.993467
H184	H	-0.471807	-1.338553	-0.313852
H185	H	-0.138473	-1.005220	0.019481
H186	H	0.194860	-0.671886	0.352815
C187	C	-0.082286	-1.347769	0.234381
C188	C	0.251048	-1.014436	0.567714
C189	C	0.584381	-0.681103	0.901048
N190	N	-0.057685	-1.348349	0.326823
N191	N	0.275648	-1.015016	0.660156
N192	N	0.608982	-0.681683	0.993489
C193	C	-0.207025	-1.344808	0.234386
C194	C	0.126308	-1.011475	0.567719
C195	C	0.459642	-0.678142	0.901053
N196	N	-0.231627	-1.344205	0.326829
N197	N	0.101707	-1.010872	0.660162
N198	N	0.435040	-0.677538	0.993495
H199	H	-0.198538	-1.345042	-0.202304
H200	H	0.134796	-1.011709	0.131029
H201	H	0.468129	-0.678376	0.464362
C202	C	-0.355560	-1.341322	-0.345736
C203	C	-0.022226	-1.007989	-0.012402
C204	C	0.311107	-0.674655	0.320931
N205	N	-0.330960	-1.341902	-0.438182
N206	N	0.002373	-1.008568	-0.104849
N207	N	0.335707	-0.675235	0.228484
C208	C	-0.355577	-1.341311	0.345946
C209	C	-0.022244	-1.007977	0.679279
C210	C	0.311089	-0.674644	1.012612
N211	N	-0.330981	-1.341902	0.438392
N212	N	0.002352	-1.008568	0.771726
N213	N	0.335686	-0.675235	1.105059
