data_functionalizedCrystal
_audit_creation_method	'MofGen! by Chris Wilmer'
_symmetry_space_group_name_H-M	'P1'
_symmetry_Int_Tables_number	1
_symmetry_cell_setting	triclinic
loop_
_symmetry_equiv_pos_as_xyz
  x,y,z
_cell_length_a	17.077404
_cell_length_b	12.594516
_cell_length_c	17.077396
_cell_angle_alpha	90.023494
_cell_angle_beta	89.981638
_cell_angle_gamma	89.975299
loop_
_atom_site_label
_atom_site_type_symbol
_atom_site_fract_x
_atom_site_fract_y
_atom_site_fract_z
Zn1	Zn	1.200034	0.423800	-0.443846
Zn2	Zn	1.700034	0.923800	0.056154
Zn3	Zn	1.199932	0.601801	-0.312591
Zn4	Zn	1.699932	1.101801	0.187409
Zn5	Zn	1.068765	0.423830	-0.312597
Zn6	Zn	1.568765	0.923830	0.187403
Zn7	Zn	1.068725	0.601730	-0.443818
Zn8	Zn	1.568725	1.101730	0.056182
O9	O	1.134364	0.512790	-0.378213
O10	O	1.634364	1.012790	0.121787
O11	O	1.309867	0.447429	-0.426445
O12	O	1.809867	0.947429	0.073555
O13	O	1.182507	0.578234	-0.202745
O14	O	1.682507	1.078234	0.297255
O15	O	1.086238	0.274880	-0.330021
O16	O	1.586238	0.774880	0.169979
O17	O	1.309792	0.578205	-0.330012
O18	O	1.809792	1.078205	0.169988
O19	O	1.182680	0.274858	-0.426450
O20	O	1.682680	0.774858	0.073550
O21	O	1.086139	0.447480	-0.202749
O22	O	1.586139	0.947480	0.297251
O23	O	0.958913	0.447412	-0.329994
O24	O	1.458913	0.947412	0.170006
O25	O	1.086169	0.578085	-0.553668
O26	O	1.586169	1.078085	-0.053668
O27	O	0.958883	0.578115	-0.426401
O28	O	1.458883	1.078115	0.073599
O29	O	1.182641	0.447361	-0.553689
O30	O	1.682641	0.947361	-0.053689
O31	O	1.182467	0.750737	-0.329985
O32	O	1.682467	1.250737	0.170015
O33	O	1.086070	0.750686	-0.426396
O34	O	1.586070	1.250686	0.073604
C35	C	0.930416	0.512760	-0.378195
C36	C	1.430416	1.012760	0.121805
C37	C	0.843166	0.512773	-0.378206
C38	C	1.343166	1.012773	0.121794
C39	C	0.802216	0.444799	-0.428495
C40	C	1.302216	0.944799	0.071505
C41	C	0.720235	0.444805	-0.428499
C42	C	1.220235	0.944805	0.071501
C43	C	0.679207	0.512793	-0.378217
C44	C	1.179207	1.012793	0.121783
C45	C	0.720163	0.580770	-0.327923
C46	C	1.220163	1.080770	0.172077
C47	C	0.802142	0.580757	-0.327916
C48	C	1.302142	1.080757	0.172084
C49	C	0.549293	0.580794	-0.327942
C50	C	1.049293	1.080794	0.172058
C51	C	0.467308	0.580809	-0.327950
C52	C	0.967308	1.080809	0.172050
C53	C	0.467386	0.444843	-0.428525
C54	C	0.967386	0.944843	0.071475
C55	C	0.549365	0.444830	-0.428518
C56	C	1.049365	0.944830	0.071482
C57	C	0.590316	0.512808	-0.378225
C58	C	1.090316	1.012808	0.121775
C59	C	1.134274	0.789331	-0.378204
C60	C	1.634274	1.289331	0.121796
C61	C	1.134308	0.907637	-0.378226
C62	C	1.634308	1.407637	0.121774
C63	C	1.081863	0.976900	-0.430627
C64	C	1.581863	1.476900	0.069373
C65	C	1.062729	1.047760	-0.359000
C66	C	1.562729	1.547760	0.141000
C67	C	1.153484	1.047576	-0.449865
C68	C	1.653484	1.547576	0.050135
C69	C	1.115137	0.976938	-0.306561
C70	C	1.615137	1.476938	0.193439
C71	C	1.205925	0.976748	-0.397475
C72	C	1.705925	1.476748	0.102525
C73	C	1.186819	1.047575	-0.325798
C74	C	1.686819	1.547575	0.174202
C75	C	1.339108	0.512821	-0.378231
C76	C	1.839108	1.012821	0.121769
C77	C	1.426358	0.512835	-0.378239
C78	C	1.926358	1.012835	0.121761
C79	C	1.134411	0.512712	-0.582957
C80	C	1.634411	1.012712	-0.082957
C81	C	1.134432	0.512678	-0.670207
C82	C	1.634432	1.012678	-0.170207
C83	C	1.134441	1.235169	-0.378238
C84	C	1.634441	1.735169	0.121762
C85	C	1.134385	1.116864	-0.378246
C86	C	1.634385	1.616864	0.121754
C87	C	1.184667	0.444604	-0.711209
C88	C	1.684667	0.944604	-0.211209
C89	C	1.184676	0.444569	-0.793190
C90	C	1.684676	0.944569	-0.293190
C91	C	1.134454	0.512614	-0.834167
C92	C	1.634454	1.012614	-0.334167
C93	C	1.084214	0.580691	-0.793159
C94	C	1.584214	1.080691	-0.293159
C95	C	1.084201	0.580720	-0.711180
C96	C	1.584201	1.080720	-0.211180
C97	C	1.084245	0.580627	-0.964029
C98	C	1.584245	1.080627	-0.464029
C99	C	1.084259	0.580599	-1.046013
C100	C	1.584259	1.080599	-0.546013
C101	C	1.184720	0.444476	-1.046039
C102	C	1.684720	0.944476	-0.546039
C103	C	1.184708	0.444505	-0.964060
C104	C	1.684708	0.944505	-0.464060
C105	C	1.134468	0.512584	-0.923058
C106	C	1.634468	1.012584	-0.423058
C107	C	1.134362	0.512792	-0.174265
C108	C	1.634362	1.012792	0.325735
C109	C	1.134494	0.512525	-0.087016
C110	C	1.634494	1.012525	0.412984
H111	H	0.433905	0.636171	-0.287006
H112	H	0.933905	1.136171	0.212994
H113	H	0.582632	0.636147	-0.286986
H114	H	1.082632	1.136147	0.213014
Cl115	Cl	0.668584	0.666234	-0.264706
Cl116	Cl	1.168584	1.166234	0.235294
Cl117	Cl	0.853786	0.359328	-0.491714
Cl118	Cl	1.353786	0.859328	0.008286
H119	H	1.043362	0.636005	-1.079374
H120	H	1.543362	1.136005	-0.579374
Cl121	Cl	1.021043	0.666299	-0.659634
Cl122	Cl	1.521043	1.166299	-0.159634
Cl123	Cl	1.021085	0.666212	-0.912484
Cl124	Cl	1.521085	1.166212	-0.412484
H125	H	0.582768	0.389475	-0.469467
H126	H	1.082768	0.889475	0.030533
Cl127	Cl	0.668758	0.359351	-0.491725
Cl128	Cl	1.168758	0.859351	0.008275
Cl129	Cl	0.853623	0.666215	-0.264693
Cl130	Cl	1.353623	1.166215	0.235307
H131	H	0.434040	0.389490	-0.469475
H132	H	0.934040	0.889490	0.030525
H133	H	1.169673	1.078605	-0.510442
H134	H	1.669673	1.578605	-0.010442
H135	H	1.266440	0.945536	-0.413774
H136	H	1.766440	1.445536	0.086226
H137	H	1.231203	1.078412	-0.281441
H138	H	1.731203	1.578412	0.218559
Cl139	Cl	1.021074	0.666230	-0.844672
Cl140	Cl	1.521074	1.166230	-0.344672
H141	H	1.225566	0.389197	-0.677852
H142	H	1.725566	0.889197	-0.177852
Cl143	Cl	1.013289	0.928983	-0.498946
Cl144	Cl	1.513289	1.428983	0.001054
H145	H	1.002201	1.078975	-0.342735
H146	H	1.502201	1.578975	0.157265
H147	H	1.098878	0.946037	-0.245968
H148	H	1.598878	1.446037	0.254032
Cl149	Cl	1.247866	0.359033	-0.844732
Cl150	Cl	1.747866	0.859033	-0.344732
H151	H	1.225607	0.389103	-0.930699
H152	H	1.725607	0.889103	-0.430699
Cl153	Cl	1.247880	0.358892	-1.097584
Cl154	Cl	1.747880	0.858892	-0.597584
