data_functionalizedCrystal
_audit_creation_method	'MofGen! by Chris Wilmer'
_symmetry_space_group_name_H-M	'P1'
_symmetry_Int_Tables_number	1
_symmetry_cell_setting	triclinic
loop_
_symmetry_equiv_pos_as_xyz
  x,y,z
_cell_length_a	12.503572
_cell_length_b	17.699083
_cell_length_c	17.699083
_cell_angle_alpha	83.283015
_cell_angle_beta	93.515225
_cell_angle_gamma	86.494917
loop_
_atom_site_label
_atom_site_type_symbol
_atom_site_fract_x
_atom_site_fract_y
_atom_site_fract_z
O1	O	0.089171	-1.008441	-0.091332
O2	O	0.422505	-0.675108	0.242001
O3	O	0.755838	-0.341774	0.575335
O4	O	0.089207	-0.788064	-0.103783
O5	O	0.422540	-0.454731	0.229551
O6	O	0.755874	-0.121398	0.562884
O7	O	0.089179	-0.904478	0.012631
O8	O	0.422512	-0.571145	0.345965
O9	O	0.755845	-0.237812	0.679298
O10	O	0.089200	-0.892027	-0.207746
O11	O	0.422533	-0.558694	0.125587
O12	O	0.755866	-0.225360	0.458921
O13	O	-0.089461	-0.895723	0.003862
O14	O	0.243872	-0.562390	0.337195
O15	O	0.577206	-0.229057	0.670529
O16	O	-0.089433	-0.779309	-0.112552
O17	O	0.243900	-0.445976	0.220781
O18	O	0.577234	-0.112643	0.554114
O19	O	-0.089468	-0.999686	-0.100101
O20	O	0.243865	-0.666353	0.233232
O21	O	0.577198	-0.333019	0.566565
Cu22	Cu	-0.105762	-0.888698	-0.107128
Cu23	Cu	0.227571	-0.555365	0.226206
Cu24	Cu	0.560905	-0.222032	0.559539
Cu25	Cu	0.105500	-0.899052	-0.096757
Cu26	Cu	0.438834	-0.565719	0.236577
Cu27	Cu	0.772167	-0.232385	0.569910
O28	O	-0.089440	-0.883272	-0.216516
O29	O	0.243893	-0.549939	0.116818
O30	O	0.577226	-0.216605	0.450151
C31	C	-0.000109	-0.755490	-0.107721
C32	C	0.333225	-0.422157	0.225612
C33	C	0.666558	-0.088823	0.558946
C34	C	-0.000095	-0.671473	-0.106382
C35	C	0.333238	-0.338139	0.226952
C36	C	0.666571	-0.004806	0.560285
N37	N	-0.254352	-0.881421	-0.114421
N38	N	0.078981	-0.548088	0.218912
N39	N	0.412314	-0.214755	0.552245
C40	C	-0.000151	-1.032260	-0.096163
C41	C	0.333183	-0.698927	0.237170
C42	C	0.666516	-0.365594	0.570504
C43	C	-0.000157	-1.116278	-0.097502
C44	C	0.333177	-0.782945	0.235831
C45	C	0.666510	-0.449612	0.569165
C46	C	-0.473465	-0.870717	-0.125157
C47	C	-0.140132	-0.537384	0.208176
C48	C	0.193202	-0.204050	0.541509
C49	C	-0.526803	-0.917037	-0.078723
C50	C	-0.193470	-0.583704	0.254610
C51	C	0.139863	-0.250370	0.587943
C52	C	-0.648725	-0.911081	-0.084697
C53	C	-0.315392	-0.577748	0.248636
C54	C	0.017941	-0.244414	0.581970
C55	C	-0.351532	-0.876672	-0.119185
C56	C	-0.018199	-0.543339	0.214149
C57	C	0.315134	-0.210005	0.547482
N58	N	0.254091	-0.906335	-0.089457
N59	N	0.587424	-0.573002	0.243877
N60	N	0.920758	-0.239668	0.577210
C61	C	-0.000141	-0.899655	0.036444
C62	C	0.333192	-0.566321	0.369777
C63	C	0.666525	-0.232988	0.703110
C64	C	-0.000142	-0.898316	0.120462
C65	C	0.333192	-0.564983	0.453795
C66	C	0.666525	-0.231649	0.787128
C67	C	-0.000089	-0.622852	-0.174715
C68	C	0.333244	-0.289519	0.158618
C69	C	0.666577	0.043815	0.491952
C70	C	-0.000103	-0.543908	-0.173453
C71	C	0.333230	-0.210575	0.159880
C72	C	0.666563	0.122759	0.493213
C73	C	-0.000116	-0.513587	-0.103857
C74	C	0.333218	-0.180253	0.229476
C75	C	0.666551	0.153080	0.562809
C76	C	-0.000125	-0.562213	-0.035519
C77	C	0.333208	-0.228880	0.297814
C78	C	0.666542	0.104453	0.631147
C79	C	-0.000119	-0.641155	-0.036782
C80	C	0.333215	-0.307822	0.296551
C81	C	0.666548	0.025511	0.629885
C82	C	-0.000152	-0.243849	-0.030425
C83	C	0.333181	0.089484	0.302908
C84	C	0.666515	0.422818	0.636241
C85	C	-0.000155	-0.164901	-0.029168
C86	C	0.333178	0.168433	0.304166
C87	C	0.666511	0.501766	0.637499
C88	C	-0.000137	-0.146602	-0.167097
C89	C	0.333197	0.186732	0.166237
C90	C	0.666530	0.520065	0.499570
C91	C	-0.000130	-0.225544	-0.168359
C92	C	0.333203	0.107790	0.164974
C93	C	0.666536	0.441123	0.498307
C94	C	-0.000145	-0.274163	-0.100022
C95	C	0.333188	0.059170	0.233311
C96	C	0.666521	0.392504	0.566645
C97	C	-0.000132	-0.359763	-0.101391
C98	C	0.333201	-0.026430	0.231943
C99	C	0.666535	0.306904	0.565276
C100	C	-0.000121	-0.427989	-0.102487
C101	C	0.333212	-0.094655	0.230846
C102	C	0.666545	0.238678	0.564179
C103	C	-0.000118	-0.888096	-0.240328
C104	C	0.333215	-0.554762	0.093006
C105	C	0.666549	-0.221429	0.426339
C106	C	-0.000111	-0.889435	-0.324345
C107	C	0.333223	-0.556101	0.008988
C108	C	0.666556	-0.222768	0.342321
C109	C	-0.000154	-0.966649	0.169082
C110	C	0.333179	-0.633316	0.502415
C111	C	0.666513	-0.299982	0.835749
C112	C	-0.000144	-0.965387	0.248026
C113	C	0.333189	-0.632054	0.581359
C114	C	0.666522	-0.298720	0.914692
C115	C	-0.000130	-0.895791	0.278347
C116	C	0.333204	-0.562458	0.611681
C117	C	0.666537	-0.229125	0.945014
C118	C	-0.000114	-0.827453	0.229721
C119	C	0.333219	-0.494120	0.563054
C120	C	0.666553	-0.160787	0.896388
C121	C	-0.000116	-0.828716	0.150779
C122	C	0.333217	-0.495383	0.484112
C123	C	0.666551	-0.162050	0.817446
C124	C	-0.000105	-0.822359	0.548084
C125	C	0.333229	-0.489025	0.881418
C126	C	0.666562	-0.155692	1.214751
C127	C	-0.000106	-0.821101	0.627032
C128	C	0.333228	-0.487767	0.960366
C129	C	0.666561	-0.154434	1.293699
C130	C	-0.000133	-0.959029	0.645331
C131	C	0.333201	-0.625696	0.978665
C132	C	0.666534	-0.292363	1.311998
C133	C	-0.000135	-0.960292	0.566389
C134	C	0.333199	-0.626959	0.899723
C135	C	0.666532	-0.293626	1.233056
C136	C	-0.000113	-0.891955	0.517770
C137	C	0.333220	-0.558622	0.851103
C138	C	0.666553	-0.225288	1.184437
C139	C	-0.000122	-0.893324	0.432171
C140	C	0.333211	-0.559991	0.765504
C141	C	0.666545	-0.226658	1.098837
C142	C	-0.000129	-0.894421	0.363945
C143	C	0.333204	-0.561088	0.697278
C144	C	0.666538	-0.227754	1.030612
H145	H	-0.480901	-0.961167	-0.034484
H146	H	-0.147568	-0.627833	0.298849
H147	H	0.185765	-0.294500	0.632183
Cl148	Cl	-0.000083	-0.739962	0.267840
Cl149	Cl	0.333251	-0.406628	0.601173
Cl150	Cl	0.666584	-0.073295	0.934507
H151	H	-0.000097	-0.504324	-0.229097
H152	H	0.333236	-0.170990	0.104236
H153	H	0.666570	0.162343	0.437570
H154	H	-0.000152	-1.016964	0.541706
H155	H	0.333181	-0.683631	0.875039
H156	H	0.666515	-0.350297	1.208373
H157	H	-0.519362	-0.826591	-0.169395
H158	H	-0.186028	-0.493258	0.163938
H159	H	0.147305	-0.159924	0.497272
Cl160	Cl	-0.000066	-0.660962	-0.262212
Cl161	Cl	0.333267	-0.327629	0.071122
Cl162	Cl	0.666600	0.005704	0.404455
Cl163	Cl	-0.000108	-0.263658	-0.255854
Cl164	Cl	0.333225	0.069676	0.077479
Cl165	Cl	0.666558	0.403009	0.410812
Cl166	Cl	-0.000183	-1.054145	0.130971
Cl167	Cl	0.333150	-0.720812	0.464305
Cl168	Cl	0.666483	-0.387479	0.797638
Cl169	Cl	-0.000163	-1.051295	0.309146
Cl170	Cl	0.333170	-0.717962	0.642479
Cl171	Cl	0.666503	-0.384629	0.975812
Cl172	Cl	-0.000148	-0.524095	0.051973
Cl173	Cl	0.333186	-0.190761	0.385306
Cl174	Cl	0.666519	0.142572	0.718640
Cl175	Cl	-0.000123	-0.085475	-0.253008
Cl176	Cl	0.333211	0.247859	0.080325
Cl177	Cl	0.666544	0.581192	0.413658
Cl178	Cl	-0.000085	-0.733602	0.665149
Cl179	Cl	0.333248	-0.400269	0.998483
Cl180	Cl	0.666582	-0.066936	1.331816
H181	H	-0.000145	-1.014673	0.684927
H182	H	0.333189	-0.681340	1.018260
H183	H	0.666522	-0.348006	1.351594
H184	H	-0.000123	-0.680742	0.018862
H185	H	0.333210	-0.347409	0.352195
H186	H	0.666543	-0.014076	0.685529
H187	H	-0.000087	-0.766714	0.508508
H188	H	0.333246	-0.433381	0.841841
H189	H	0.666579	-0.100047	1.175174
Cl190	Cl	-0.000172	-0.126784	0.058331
Cl191	Cl	0.333162	0.206549	0.391664
Cl192	Cl	0.666495	0.539883	0.724998
H193	H	-0.000106	-0.773073	0.111192
H194	H	0.333228	-0.439739	0.444526
H195	H	0.666561	-0.106406	0.777859
Cl196	Cl	-0.000170	-0.304960	0.055485
Cl197	Cl	0.333163	0.028373	0.388819
Cl198	Cl	0.666497	0.361706	0.722152
