data_functionalizedCrystal
_audit_creation_method	'MofGen! by Chris Wilmer'
_symmetry_space_group_name_H-M	'P1'
_symmetry_Int_Tables_number	1
_symmetry_cell_setting	triclinic
loop_
_symmetry_equiv_pos_as_xyz
  x,y,z
_cell_length_a	11.792241
_cell_length_b	16.109311
_cell_length_c	15.186229
_cell_angle_alpha	89.994947
_cell_angle_beta	89.999155
_cell_angle_gamma	96.170438
loop_
_atom_site_label
_atom_site_type_symbol
_atom_site_fract_x
_atom_site_fract_y
_atom_site_fract_z
O1	O	-1.505913	0.113953	-0.073146
O2	O	-1.255913	0.363953	0.176854
O3	O	-1.005913	0.613953	0.426854
O4	O	-0.755913	0.863953	0.676854
O5	O	-1.175470	0.125697	-0.073167
O6	O	-0.925470	0.375697	0.176833
O7	O	-0.675470	0.625697	0.426833
O8	O	-0.425470	0.875697	0.676833
O9	O	-1.349763	-0.001163	-0.073147
O10	O	-1.099763	0.248837	0.176853
O11	O	-0.849763	0.498837	0.426853
O12	O	-0.599763	0.748837	0.676853
O13	O	-1.331620	0.240812	-0.073166
O14	O	-1.081620	0.490812	0.176834
O15	O	-0.831620	0.740812	0.426834
O16	O	-0.581620	0.990812	0.676834
O17	O	-1.349751	-0.001165	0.073310
O18	O	-1.099751	0.248835	0.323310
O19	O	-0.849751	0.498835	0.573310
O20	O	-0.599751	0.748835	0.823310
O21	O	-1.175458	0.125695	0.073291
O22	O	-0.925458	0.375695	0.323291
O23	O	-0.675458	0.625695	0.573291
O24	O	-0.425458	0.875695	0.823291
O25	O	-1.505902	0.113951	0.073311
O26	O	-1.255902	0.363951	0.323311
O27	O	-1.005902	0.613951	0.573311
O28	O	-0.755902	0.863951	0.823311
Zn29	Zn	-1.340678	0.119823	0.096554
Zn30	Zn	-1.090678	0.369823	0.346554
Zn31	Zn	-0.840678	0.619823	0.596554
Zn32	Zn	-0.590678	0.869823	0.846554
Zn33	Zn	-1.340693	0.119825	-0.096410
Zn34	Zn	-1.090693	0.369825	0.153590
Zn35	Zn	-0.840693	0.619825	0.403590
Zn36	Zn	-0.590693	0.869825	0.653590
O37	O	-1.331609	0.240811	0.073292
O38	O	-1.081609	0.490811	0.323292
O39	O	-0.831609	0.740811	0.573292
O40	O	-0.581609	0.990811	0.823292
C41	C	-1.133180	0.124958	0.000059
C42	C	-0.883180	0.374958	0.250059
C43	C	-0.633180	0.624958	0.500059
C44	C	-0.383180	0.874958	0.750059
C45	C	-1.007185	0.122750	0.000052
C46	C	-0.757185	0.372750	0.250052
C47	C	-0.507185	0.622750	0.500052
C48	C	-0.257185	0.872750	0.750052
C49	C	-1.548192	0.114689	0.000083
C50	C	-1.298192	0.364689	0.250083
C51	C	-1.048192	0.614689	0.500083
C52	C	-0.798192	0.864689	0.750083
C53	C	-1.674187	0.116897	0.000085
C54	C	-1.424187	0.366897	0.250085
C55	C	-1.174187	0.616897	0.500085
C56	C	-0.924187	0.866897	0.750085
C57	C	-1.349020	-0.032142	0.000082
C58	C	-1.099020	0.217858	0.250082
C59	C	-0.849020	0.467858	0.500082
C60	C	-0.599020	0.717858	0.750082
C61	C	-1.346811	-0.124447	0.000083
C62	C	-1.096811	0.125553	0.250083
C63	C	-0.846811	0.375553	0.500083
C64	C	-0.596811	0.625553	0.750083
C65	C	-0.776508	0.118690	0.000077
C66	C	-0.526508	0.368690	0.250077
C67	C	-0.276508	0.618690	0.500077
C68	C	-0.026508	0.868690	0.750077
C69	C	-0.904874	0.120946	0.000063
C70	C	-0.654874	0.370946	0.250063
C71	C	-0.404874	0.620946	0.500063
C72	C	-0.154874	0.870946	0.750063
N73	N	-1.340676	0.119820	0.228247
N74	N	-1.090676	0.369820	0.478247
N75	N	-0.840676	0.619820	0.728247
N76	N	-0.590676	0.869820	0.978247
C77	C	-1.332351	0.271790	0.000061
C78	C	-1.082351	0.521790	0.250061
C79	C	-0.832351	0.771790	0.500061
C80	C	-0.582351	1.021790	0.750061
C81	C	-1.334561	0.364095	0.000054
C82	C	-1.084561	0.614095	0.250054
C83	C	-0.834561	0.864095	0.500054
C84	C	-0.584561	1.114095	0.750054
C85	C	-1.341739	0.663201	-0.079764
C86	C	-1.091739	0.913201	0.170236
C87	C	-0.841739	1.163201	0.420236
C88	C	-0.591739	1.413201	0.670236
C89	C	-1.339659	0.576471	-0.079769
C90	C	-1.089659	0.826471	0.170231
C91	C	-0.839659	1.076471	0.420231
C92	C	-0.589659	1.326471	0.670231
C93	C	-1.339630	0.576453	0.079907
C94	C	-1.089630	0.826453	0.329907
C95	C	-0.839630	1.076453	0.579907
C96	C	-0.589630	1.326453	0.829907
C97	C	-1.341702	0.663182	0.079911
C98	C	-1.091702	0.913182	0.329911
C99	C	-0.841702	1.163182	0.579911
C100	C	-0.591702	1.413182	0.829911
C101	C	-1.342762	0.706554	0.000074
C102	C	-1.092762	0.956554	0.250074
C103	C	-0.842762	1.206554	0.500074
C104	C	-0.592762	1.456554	0.750074
C105	C	-1.338610	0.533094	0.000063
C106	C	-1.088610	0.783094	0.250063
C107	C	-0.838610	1.033094	0.500063
C108	C	-0.588610	1.283094	0.750063
C109	C	-1.336354	0.439057	0.000058
C110	C	-1.086354	0.689057	0.250058
C111	C	-0.836354	0.939057	0.500058
C112	C	-0.586354	1.189057	0.750058
C113	C	-1.345015	0.800597	0.000079
C114	C	-1.095015	1.050597	0.250079
C115	C	-0.845015	1.300597	0.500079
C116	C	-0.595015	1.550597	0.750079
N117	N	-1.340705	0.119821	-0.228102
N118	N	-1.090705	0.369821	0.021898
N119	N	-0.840705	0.619821	0.271898
N120	N	-0.590705	0.869821	0.521898
C121	C	-1.417879	0.063666	0.453978
C122	C	-1.167879	0.313666	0.703978
C123	C	-0.917879	0.563666	0.953978
C124	C	-0.667879	0.813666	1.203978
C125	C	-1.417883	0.063664	0.546168
C126	C	-1.167883	0.313664	0.796168
C127	C	-0.917883	0.563664	1.046168
C128	C	-0.667883	0.813664	1.296168
C129	C	-1.263493	0.175978	0.546160
C130	C	-1.013493	0.425978	0.796160
C131	C	-0.763493	0.675978	1.046160
C132	C	-0.513493	0.925978	1.296160
C133	C	-1.263485	0.175975	0.453972
C134	C	-1.013485	0.425975	0.703972
C135	C	-0.763485	0.675975	0.953972
C136	C	-0.513485	0.925975	1.203972
C137	C	-1.340684	0.119820	0.407884
C138	C	-1.090684	0.369820	0.657884
C139	C	-0.840684	0.619820	0.907884
C140	C	-0.590684	0.869820	1.157884
C141	C	-1.340696	0.119821	0.592261
C142	C	-1.090696	0.369821	0.842261
C143	C	-0.840696	0.619821	1.092261
C144	C	-0.590696	0.869821	1.342261
C145	C	-1.340699	0.119819	0.692217
C146	C	-1.090699	0.369819	0.942217
C147	C	-0.840699	0.619819	1.192217
C148	C	-0.590699	0.869819	1.442217
C149	C	-1.340680	0.119821	0.307921
C150	C	-1.090680	0.369821	0.557921
C151	C	-0.840680	0.619821	0.807921
C152	C	-0.590680	0.869821	1.057921
H153	H	-1.342599	0.698512	-0.144773
H154	H	-1.092599	0.948512	0.105227
H155	H	-0.842599	1.198512	0.355227
H156	H	-0.592599	1.448512	0.605227
H157	H	-1.200618	0.221703	0.416439
H158	H	-0.950618	0.471703	0.666439
H159	H	-0.700618	0.721703	0.916439
H160	H	-0.450618	0.971703	1.166439
H161	H	-1.200641	0.221699	0.583694
H162	H	-0.950641	0.471699	0.833694
H163	H	-0.700641	0.721699	1.083694
H164	H	-0.450641	0.971699	1.333694
H165	H	-1.338823	0.541177	-0.144781
H166	H	-1.088823	0.791177	0.105219
H167	H	-0.838823	1.041177	0.355219
H168	H	-0.588823	1.291177	0.605219
H169	H	-1.480740	0.017937	0.583696
H170	H	-1.230740	0.267937	0.833696
H171	H	-0.980740	0.517937	1.083696
H172	H	-0.730740	0.767937	1.333696
H173	H	-1.338769	0.541129	0.144908
H174	H	-1.088769	0.791129	0.394908
H175	H	-0.838769	1.041129	0.644908
H176	H	-0.588769	1.291129	0.894908
H177	H	-1.480738	0.017940	0.416456
H178	H	-1.230738	0.267940	0.666456
H179	H	-0.980738	0.517940	0.916456
H180	H	-0.730738	0.767940	1.166456
H181	H	-1.342528	0.698481	0.144928
H182	H	-1.092528	0.948481	0.394928
H183	H	-0.842528	1.198481	0.644928
H184	H	-0.592528	1.448481	0.894928
