data_functionalizedCrystal
_audit_creation_method	'MofGen! by Chris Wilmer'
_symmetry_space_group_name_H-M	'P1'
_symmetry_Int_Tables_number	1
_symmetry_cell_setting	triclinic
loop_
_symmetry_equiv_pos_as_xyz
  x,y,z
_cell_length_a	12.811457
_cell_length_b	9.065218
_cell_length_c	11.892276
_cell_angle_alpha	85.688865
_cell_angle_beta	99.759449
_cell_angle_gamma	95.472633
loop_
_atom_site_label
_atom_site_type_symbol
_atom_site_fract_x
_atom_site_fract_y
_atom_site_fract_z
O1	O	1.397727	-0.203141	0.049290
O2	O	1.897727	0.296859	0.549290
O3	O	1.090319	-0.221917	0.017775
O4	O	1.590319	0.278083	0.517775
O5	O	1.250377	0.002135	0.034186
O6	O	1.750377	0.502135	0.534186
O7	O	1.237669	-0.427192	0.032879
O8	O	1.737669	0.072808	0.532879
O9	O	1.262572	-0.014888	0.223438
O10	O	1.762572	0.485112	0.723438
O11	O	1.102514	-0.238940	0.207027
O12	O	1.602514	0.261060	0.707027
O13	O	1.409922	-0.220164	0.238542
O14	O	1.909922	0.279836	0.738542
Zn15	Zn	1.258154	-0.232255	0.252832
Zn16	Zn	1.758154	0.267745	0.752832
Zn17	Zn	1.242087	-0.209826	0.003484
Zn18	Zn	1.742087	0.290174	0.503484
O19	O	1.249864	-0.444215	0.222131
O20	O	1.749864	0.055785	0.722131
C21	C	1.057041	-0.228855	0.108364
C22	C	1.557041	0.271145	0.608364
C23	C	0.939714	-0.224148	0.096336
C24	C	1.439714	0.275852	0.596336
C25	C	0.732541	-0.233835	0.280079
C26	C	1.232541	0.266165	0.780079
C27	C	0.622303	-0.229413	0.268783
C28	C	1.122303	0.270587	0.768783
C29	C	0.608997	-0.210869	0.062449
C30	C	1.108997	0.289131	0.562449
C31	C	0.719235	-0.215292	0.073745
C32	C	1.219235	0.284708	0.573745
C33	C	0.781004	-0.226777	0.182563
C34	C	1.281004	0.273223	0.682563
C35	C	0.891244	-0.231211	0.193858
C36	C	1.391244	0.268789	0.693858
C37	C	0.877937	-0.212657	-0.012475
C38	C	1.377937	0.287343	0.487525
C39	C	0.767698	-0.208234	-0.023771
C40	C	1.267698	0.291766	0.476229
C41	C	1.255253	0.048606	0.128685
C42	C	1.755253	0.548606	0.628685
C43	C	1.251601	0.212437	0.128305
C44	C	1.751601	0.712437	0.628305
C45	C	1.443200	-0.213226	0.147950
C46	C	1.943200	0.286774	0.647950
C47	C	1.560527	-0.217932	0.159971
C48	C	2.060527	0.282068	0.659971
C49	C	1.244988	-0.490686	0.127629
C50	C	1.744988	0.009314	0.627629
C51	C	1.248639	-0.654517	0.128002
C52	C	1.748639	-0.154517	0.628002
N53	N	1.269128	-0.247561	0.423006
N54	N	1.769128	0.252439	0.923006
C55	C	1.154630	-0.087941	0.647968
C56	C	1.654630	0.412059	1.147968
C57	C	1.162325	-0.098649	0.767095
C58	C	1.662325	0.401351	1.267095
C59	C	1.292206	-0.279693	0.780390
C60	C	1.792206	0.220307	1.280390
C61	C	1.284511	-0.268984	0.661263
C62	C	1.784511	0.231016	1.161263
C63	C	1.215722	-0.173104	0.595056
C64	C	1.715722	0.326896	1.095056
C65	C	1.208034	-0.162388	0.475927
C66	C	1.708034	0.337612	0.975927
C67	C	1.337909	-0.343439	0.489223
C68	C	1.837909	0.156561	0.989223
C69	C	1.345604	-0.354147	0.608350
C70	C	1.845604	0.145853	1.108350
N71	N	1.231112	-0.194520	0.833310
N72	N	1.731112	0.305480	1.333310
H73	H	0.941534	-0.240571	0.282464
H74	H	1.441534	0.259429	0.782464
C75	C	1.367856	-0.385167	0.853223
C76	C	1.867856	0.114833	1.353223
H77	H	1.403134	-0.434368	0.804651
H78	H	1.903134	0.065632	1.304651
H79	H	1.418904	-0.329672	0.904622
H80	H	1.918904	0.170328	1.404622
H81	H	1.328190	-0.456559	0.895317
H82	H	1.828190	0.043441	1.395317
H83	H	1.387656	-0.412783	0.446130
H84	H	1.887656	0.087217	0.946130
H85	H	0.782833	-0.243207	0.368683
H86	H	1.282833	0.256793	0.868683
H87	H	0.917405	-0.206918	-0.091879
H88	H	1.417405	0.293082	0.408121
H89	H	0.582849	-0.235168	0.348190
H90	H	1.082849	0.264832	0.848190
H91	H	1.112575	-0.029303	0.810171
H92	H	1.612575	0.470697	1.310171
C93	C	1.421265	-0.459610	0.681178
C94	C	1.921265	0.040390	1.181178
H95	H	1.456543	-0.508803	0.632600
H96	H	1.956543	-0.008803	1.132600
H97	H	1.472313	-0.404106	0.732571
H98	H	1.972313	0.095894	1.232571
H99	H	1.381611	-0.531010	0.723279
H100	H	1.881611	-0.031010	1.223279
C101	C	1.132365	-0.056933	0.403100
C102	C	1.632365	0.443067	0.903100
H103	H	1.097075	-0.007760	0.451679
H104	H	1.597075	0.492240	0.951679
H105	H	1.172005	0.014462	0.360990
H106	H	1.672005	0.514462	0.860990
H107	H	1.081313	-0.112457	0.351715
H108	H	1.581313	0.387543	0.851715
C109	C	0.541041	-0.198228	-0.057238
C110	C	1.041041	0.301772	0.442762
H111	H	0.468447	-0.196610	-0.049994
H112	H	0.968447	0.303390	0.450006
H113	H	0.563609	-0.109279	-0.097039
H114	H	1.063609	0.390721	0.402961
H115	H	0.549130	-0.281023	-0.098516
H116	H	1.049130	0.218977	0.401484
H117	H	0.717392	-0.198876	-0.112368
H118	H	1.217392	0.301124	0.387632
C119	C	1.078971	0.017524	0.575138
C120	C	1.578971	0.517524	1.075138
H121	H	1.043685	0.066708	0.623713
H122	H	1.543685	0.566708	1.123713
H123	H	1.118618	0.088908	0.533028
H124	H	1.618618	0.588908	1.033028
H125	H	1.027915	-0.037994	0.523752
H126	H	1.527915	0.462006	1.023752
