data_functionalizedCrystal
_audit_creation_method	'MofGen! by Chris Wilmer'
_symmetry_space_group_name_H-M	'P1'
_symmetry_Int_Tables_number	1
_symmetry_cell_setting	triclinic
loop_
_symmetry_equiv_pos_as_xyz
  x,y,z
_cell_length_a	12.811457
_cell_length_b	14.044190
_cell_length_c	11.892095
_cell_angle_alpha	94.240074
_cell_angle_beta	91.498327
_cell_angle_gamma	88.597539
loop_
_atom_site_label
_atom_site_type_symbol
_atom_site_fract_x
_atom_site_fract_y
_atom_site_fract_z
O1	O	1.401373	0.130896	0.049646
O2	O	1.734706	0.464230	0.382980
O3	O	2.068040	0.797563	0.716313
O4	O	1.099119	0.142797	0.018657
O5	O	1.432452	0.476130	0.351990
O6	O	1.765786	0.809463	0.685323
O7	O	1.245704	-0.001185	0.033708
O8	O	1.579037	0.332149	0.367041
O9	O	1.912371	0.665482	0.700375
O10	O	1.254788	0.274878	0.034595
O11	O	1.588121	0.608211	0.367928
O12	O	1.921455	0.941544	0.701262
O13	O	1.233480	0.010802	0.220460
O14	O	1.566814	0.344135	0.553794
O15	O	1.900147	0.677468	0.887127
O16	O	1.086895	0.154783	0.205409
O17	O	1.420229	0.488116	0.538742
O18	O	1.753562	0.821450	0.872076
O19	O	1.389149	0.142883	0.236399
O20	O	1.722482	0.476216	0.569732
O21	O	2.055816	0.809549	0.903065
Zn22	Zn	1.236081	0.150736	0.250555
Zn23	Zn	1.569415	0.484069	0.583888
Zn24	Zn	1.902748	0.817403	0.917221
Zn25	Zn	1.252187	0.134943	0.004501
Zn26	Zn	1.585520	0.468277	0.337834
Zn27	Zn	1.918853	0.801610	0.671167
O28	O	1.242564	0.286864	0.221347
O29	O	1.575898	0.620197	0.554681
O30	O	1.909231	0.953531	0.888014
C31	C	1.054092	0.147756	0.108043
C32	C	1.387425	0.481089	0.441377
C33	C	1.720758	0.814422	0.774710
C34	C	0.938134	0.144663	0.096155
C35	C	1.271467	0.477996	0.429489
C36	C	1.604801	0.811330	0.762822
C37	C	0.706909	0.151902	0.277437
C38	C	1.040242	0.485235	0.610770
C39	C	1.373576	0.818569	0.944104
C40	C	0.597956	0.148996	0.266273
C41	C	0.931290	0.482329	0.599606
C42	C	1.264623	0.815663	0.932940
C43	C	0.611274	0.135938	0.062664
C44	C	0.944608	0.469272	0.395998
C45	C	1.277941	0.802605	0.729331
C46	C	0.720227	0.138844	0.073828
C47	C	1.053560	0.472178	0.407162
C48	C	1.386894	0.805511	0.740495
C49	C	0.768040	0.146828	0.181218
C50	C	1.101374	0.480161	0.514552
C51	C	1.434707	0.813494	0.847885
C52	C	0.876995	0.149740	0.192381
C53	C	1.210328	0.483074	0.525715
C54	C	1.543661	0.816407	0.859048
C55	C	0.890311	0.136676	-0.011226
C56	C	1.223644	0.470009	0.322107
C57	C	1.556977	0.803342	0.655440
C58	C	0.781358	0.133770	-0.022390
C59	C	1.114691	0.467103	0.310943
C60	C	1.448025	0.800437	0.644276
C61	C	1.235619	-0.030548	0.126680
C62	C	1.568952	0.302786	0.460014
C63	C	1.902286	0.636119	0.793347
C64	C	1.223768	-0.135898	0.125475
C65	C	1.557101	0.197435	0.458808
C66	C	1.890435	0.530769	0.792142
C67	C	1.286151	-0.385529	0.131827
C68	C	1.619484	-0.052196	0.465160
C69	C	1.952818	0.281137	0.798493
C70	C	1.202122	-0.328786	0.123219
C71	C	1.535456	0.004547	0.456553
C72	C	1.868789	0.337881	0.789886
C73	C	1.214169	-0.221453	0.124475
C74	C	1.547502	0.111880	0.457808
C75	C	1.880836	0.445213	0.791141
C76	C	1.274106	-0.492872	0.130571
C77	C	1.607439	-0.159539	0.463905
C78	C	1.940773	0.173794	0.797238
C79	C	1.434177	0.137924	0.147010
C80	C	1.767510	0.471257	0.480343
C81	C	2.100844	0.804590	0.813676
C82	C	1.550135	0.141016	0.158890
C83	C	1.883468	0.474349	0.492223
C84	C	2.216801	0.807682	0.825557
C85	C	1.252649	0.316227	0.128373
C86	C	1.585983	0.649560	0.461706
C87	C	1.919316	0.982894	0.795039
C88	C	1.264501	0.421577	0.129570
C89	C	1.597834	0.754910	0.462904
C90	C	1.931167	1.088243	0.796237
N91	N	1.225098	0.161513	0.418481
N92	N	1.558431	0.494847	0.751814
N93	N	1.891764	0.828180	1.085148
N94	N	1.263178	0.124159	-0.163425
N95	N	1.596511	0.457492	0.169908
N96	N	1.929845	0.790825	0.503242
C97	C	1.339604	0.049111	0.666886
C98	C	1.672937	0.382444	1.000220
C99	C	2.006270	0.715777	1.333553
C100	C	1.331934	0.056651	0.784441
C101	C	1.665268	0.389984	1.117774
C102	C	1.998601	0.723318	1.451107
C103	C	1.202085	0.184129	0.771146
C104	C	1.535418	0.517462	1.104479
C105	C	1.868751	0.850795	1.437813
C106	C	1.209754	0.176588	0.653592
C107	C	1.543087	0.509922	0.986925
C108	C	1.876421	0.843255	1.320258
C109	C	1.278517	0.109078	0.601466
C110	C	1.611850	0.442412	0.934800
C111	C	1.945184	0.775745	1.268133
C112	C	1.286191	0.101543	0.483910
C113	C	1.619525	0.434877	0.817244
C114	C	1.952858	0.768210	1.150577
C115	C	1.156337	0.229016	0.470617
C116	C	1.489670	0.562349	0.803950
C117	C	1.823003	0.895682	1.137284
C118	C	1.148667	0.236556	0.588171
C119	C	1.482001	0.569889	0.921505
C120	C	1.815334	0.903223	1.254838
H121	H	0.572326	0.129422	-0.024767
H122	H	0.905659	0.462756	0.308566
H123	H	1.238993	0.796089	0.641899
N124	N	1.394325	-0.004597	0.851283
N125	N	1.727659	0.328737	1.184616
N126	N	2.060992	0.662070	1.517950
N127	N	1.387466	0.002139	0.956240
N128	N	1.720799	0.335472	1.289573
N129	N	2.054133	0.668805	1.622907
H130	H	1.431527	-0.041123	1.003450
H131	H	1.764861	0.292210	1.336783
H132	H	2.098194	0.625543	1.670116
H133	H	0.742413	0.127265	-0.109824
H134	H	1.075747	0.460599	0.223509
H135	H	1.409080	0.793932	0.556843
H136	H	1.146092	0.239088	0.813601
H137	H	1.479425	0.572421	1.146934
H138	H	1.812759	0.905754	1.480268
H139	H	0.745839	0.158415	0.364878
H140	H	1.079172	0.491748	0.698211
H141	H	1.412505	0.825082	1.031545
N142	N	0.925855	0.157881	0.302064
N143	N	1.259189	0.491214	0.635397
N144	N	1.592522	0.824548	0.968730
N145	N	1.023134	0.160472	0.312022
N146	N	1.356468	0.493806	0.645355
N147	N	1.689801	0.827139	0.978688
H148	H	1.057642	0.166218	0.389487
H149	H	1.390975	0.499551	0.722821
H150	H	1.724309	0.832885	1.056154
H151	H	1.395601	-0.005853	0.624446
H152	H	1.728934	0.327481	0.957780
H153	H	2.062267	0.660814	1.291113
H154	H	0.940095	0.132550	-0.089575
H155	H	1.273429	0.465883	0.243758
H156	H	1.606762	0.799216	0.577092
H157	H	1.121136	-0.360816	0.114909
H158	H	1.454469	-0.027483	0.448243
H159	H	1.787802	0.305851	0.781576
N160	N	1.387736	-0.345341	0.142249
N161	N	1.721069	-0.012008	0.475583
N162	N	2.054403	0.321325	0.808916
N163	N	1.397499	-0.256941	0.143268
N164	N	1.730832	0.076392	0.476601
N165	N	2.064165	0.409726	0.809935
H166	H	1.469242	-0.228546	0.150631
H167	H	1.802575	0.104787	0.483965
H168	H	2.135909	0.438120	0.817298
H169	H	0.548187	0.153133	0.344624
H170	H	0.881520	0.486467	0.677958
H171	H	1.214853	0.819800	1.011291
H172	H	1.342184	0.046576	0.441471
H173	H	1.675517	0.379909	0.774805
H174	H	2.008851	0.713242	1.108138
H175	H	1.106599	0.277848	0.417338
H176	H	1.439932	0.611181	0.750672
H177	H	1.773266	0.944515	1.084005
H178	H	1.092679	0.291519	0.630625
H179	H	1.426012	0.624853	0.963959
H180	H	1.759345	0.958186	1.297292
