data_functionalizedCrystal
_audit_creation_method	'MofGen! by Chris Wilmer'
_symmetry_space_group_name_H-M	'P1'
_symmetry_Int_Tables_number	1
_symmetry_cell_setting	triclinic
loop_
_symmetry_equiv_pos_as_xyz
  x,y,z
_cell_length_a	27.731988
_cell_length_b	19.188924
_cell_length_c	26.809956
_cell_angle_alpha	89.993348
_cell_angle_beta	90.004168
_cell_angle_gamma	97.119837
loop_
_atom_site_label
_atom_site_type_symbol
_atom_site_fract_x
_atom_site_fract_y
_atom_site_fract_z
O1	O	-0.641206	0.082879	-0.041344
O2	O	-0.500447	0.095554	-0.041375
O3	O	-0.574890	-0.012467	-0.041353
O4	O	-0.566763	0.190900	-0.041366
O5	O	-0.574868	-0.012467	0.041606
O6	O	-0.500424	0.095554	0.041584
O7	O	-0.641183	0.082879	0.041616
Zn8	Zn	-0.570800	0.089216	0.054771
Zn9	Zn	-0.570830	0.089216	-0.054531
O10	O	-0.566740	0.190900	0.041593
C11	C	-0.482427	0.095295	0.000100
C12	C	-0.428769	0.094513	0.000088
C13	C	-0.045603	0.088845	-0.045110
C14	C	-0.247270	0.091826	-0.045123
O15	O	-0.273355	0.092183	-0.083582
N16	N	-0.272479	0.092198	0.000097
C17	C	-0.247268	0.091822	0.045324
O18	O	-0.273338	0.092200	0.083786
C19	C	-0.045603	0.088836	0.045336
C20	C	-0.020396	0.088470	0.000113
C21	C	-0.020396	0.088479	-0.090330
C22	C	0.030018	0.087737	-0.090326
C23	C	0.055225	0.087363	-0.045103
C24	C	0.030018	0.087729	0.000116
C25	C	-0.020394	0.088454	0.090562
C26	C	0.030026	0.087706	0.090561
C27	C	0.055233	0.087340	0.045338
C28	C	0.105639	0.086613	0.045343
N29	N	0.130848	0.086240	0.000123
C30	C	0.105641	0.086615	-0.045100
C31	C	-0.353146	0.093390	0.045314
C32	C	-0.403562	0.094138	0.045312
C33	C	-0.403560	0.094141	-0.045135
C34	C	-0.353142	0.093398	-0.045132
C35	C	-0.327937	0.093017	0.000094
C36	C	0.211515	0.085059	-0.045089
C37	C	0.261933	0.084321	-0.045082
C38	C	0.261927	0.084314	0.045365
C39	C	0.211513	0.085056	0.045357
C40	C	0.186308	0.085426	0.000126
O41	O	0.131755	0.086248	0.083782
O42	O	0.131719	0.086221	-0.083557
C43	C	-0.096017	0.089586	-0.045114
C44	C	-0.121224	0.089953	0.000105
C45	C	-0.096017	0.089578	0.045329
C46	C	-0.171640	0.090700	0.000103
C47	C	-0.196847	0.091075	-0.045120
C48	C	-0.171638	0.090702	-0.090341
C49	C	-0.121224	0.089961	-0.090337
C50	C	-0.121226	0.089951	0.090549
C51	C	-0.171640	0.090693	0.090541
C52	C	-0.196847	0.091068	0.045318
C53	C	-0.574616	-0.038476	0.000127
C54	C	-0.573828	-0.115976	0.000128
C55	C	0.340798	0.083145	0.000137
C56	C	0.287141	0.083946	0.000141
C57	C	-0.573472	-0.152372	-0.045093
C58	C	-0.572725	-0.225190	-0.045097
C59	C	-0.572342	-0.261610	0.000123
C60	C	-0.572695	-0.225204	0.045350
C61	C	-0.573438	-0.152387	0.045353
N62	N	-0.598675	-0.381450	0.033785
N63	N	-0.597970	-0.450623	0.033780
C64	C	-0.570103	-0.481004	0.000118
N65	N	-0.542974	-0.439600	-0.033546
N66	N	-0.543681	-0.370421	-0.033542
C67	C	-0.571537	-0.340568	0.000125
C68	C	-0.568936	-0.596358	-0.045111
C69	C	-0.568186	-0.669176	-0.045113
C70	C	-0.568161	-0.669191	0.045335
C71	C	-0.568907	-0.596373	0.045336
C72	C	-0.569297	-0.559961	0.000112
C73	C	-0.567014	0.216909	0.000112
C74	C	-0.567803	0.294408	0.000107
N75	N	-0.570783	0.089216	0.129367
N76	N	-0.570851	0.089211	-0.129127
C77	C	-0.600050	0.131255	0.473997
C78	C	-0.600065	0.131255	0.682875
O79	O	-0.624936	0.166990	0.709882
N80	N	-0.570842	0.089209	0.708994
C81	C	-0.541615	0.047157	0.682891
O82	O	-0.516763	0.011390	0.709900
C83	C	-0.541602	0.047155	0.474014
C84	C	-0.570824	0.089208	0.447898
C85	C	-0.629269	0.173305	0.447881
C86	C	-0.629263	0.173307	0.395664
C87	C	-0.600037	0.131261	0.369565
C88	C	-0.570818	0.089211	0.395681
C89	C	-0.512378	0.005100	0.447912
C90	C	-0.512379	0.005102	0.395689
C91	C	-0.541600	0.047155	0.369573
C92	C	-0.541586	0.047167	0.317365
N93	N	-0.570809	0.089212	0.291246
C94	C	-0.600035	0.131259	0.317346
C95	C	-0.541623	0.047163	0.792554
C96	C	-0.541625	0.047164	0.844773
C97	C	-0.600076	0.131261	0.844754
C98	C	-0.600071	0.131263	0.792534
C99	C	-0.570846	0.089208	0.766435
C100	C	-0.600019	0.131262	0.207688
C101	C	-0.600009	0.131263	0.155467
C102	C	-0.541560	0.047164	0.155491
C103	C	-0.541568	0.047165	0.207707
C104	C	-0.570802	0.089216	0.233805
O105	O	-0.516732	0.011444	0.290326
O106	O	-0.624891	0.167010	0.290328
C107	C	-0.600056	0.131253	0.526214
C108	C	-0.570836	0.089203	0.552330
C109	C	-0.541610	0.047156	0.526231
C110	C	-0.570839	0.089205	0.604549
C111	C	-0.600064	0.131252	0.630649
C112	C	-0.629288	0.173297	0.604530
C113	C	-0.629281	0.173300	0.552313
C114	C	-0.512387	0.005111	0.552350
C115	C	-0.512395	0.005112	0.604566
C116	C	-0.541621	0.047159	0.630666
H117	H	-0.332622	0.093100	-0.081957
H118	H	-0.567846	-0.698843	0.082154
H119	H	-0.040909	0.088750	0.127387
H120	H	0.282460	0.084012	0.082184
H121	H	-0.623824	0.165503	0.228930
H122	H	-0.569200	-0.566739	0.082160
H123	H	-0.488588	-0.029131	0.531105
H124	H	-0.569251	-0.566710	-0.081935
H125	H	-0.424092	0.094448	-0.081958
O126	O	-0.196051	0.091097	-0.134316
C127	C	-0.162999	0.090593	-0.174234
H128	H	-0.125008	0.112176	-0.160982
H129	H	-0.174428	0.124718	-0.205863
H130	H	-0.162834	0.034478	-0.188135
O131	O	0.286341	0.083934	-0.089059
C132	C	0.253279	0.084439	-0.128972
H133	H	0.215292	0.062854	-0.115714
H134	H	0.264701	0.050316	-0.160599
H135	H	0.253110	0.140555	-0.142880
H136	H	0.190999	0.085361	-0.081921
O137	O	-0.513167	0.006255	0.233002
C138	C	-0.487359	-0.030837	0.198764
H139	H	-0.507373	-0.035108	0.161536
H140	H	-0.484483	-0.085715	0.213851
H141	H	-0.449355	-0.001683	0.193218
H142	H	-0.488584	-0.029146	0.469167
O143	O	-0.483943	-0.035768	0.370415
C144	C	-0.458165	-0.072894	0.404669
H145	H	-0.455286	-0.043960	0.441890
H146	H	-0.420163	-0.076839	0.389591
H147	H	-0.478199	-0.127904	0.410223
O148	O	-0.572239	-0.260530	0.089290
C149	C	-0.530563	-0.234357	0.116796
H150	H	-0.501520	-0.208484	0.090329
H151	H	-0.516020	-0.279437	0.137305
H152	H	-0.540447	-0.193986	0.144997
O153	O	-0.096680	0.089679	0.134448
C154	C	-0.061918	0.149751	0.137162
H155	H	-0.052492	0.169810	0.097898
H156	H	-0.027728	0.135622	0.156308
H157	H	-0.077424	0.192395	0.159473
O158	O	-0.628504	0.172128	0.767244
C159	C	-0.654286	0.209252	0.801484
H160	H	-0.657168	0.180317	0.838709
H161	H	-0.692287	0.213195	0.786396
H162	H	-0.634254	0.264262	0.807035
O163	O	-0.573852	-0.116966	0.089252
C164	C	-0.616143	-0.083237	0.091976
H165	H	-0.630221	-0.075115	0.052716
H166	H	-0.607248	-0.030152	0.111114
H167	H	-0.645157	-0.117170	0.114299
H168	H	-0.567894	-0.698809	-0.081939
H169	H	-0.573789	-0.122730	-0.081918
O170	O	-0.657698	0.214170	0.370376
C171	C	-0.683484	0.251287	0.404618
H172	H	-0.686362	0.222350	0.441843
H173	H	-0.721485	0.255225	0.389532
H174	H	-0.663455	0.306300	0.410171
H175	H	-0.653077	0.207544	0.531054
O176	O	0.054422	0.087341	-0.134301
C177	C	0.021356	0.087845	-0.174211
H178	H	-0.016631	0.066269	-0.160946
H179	H	0.032770	0.053713	-0.205836
H180	H	0.021190	0.143959	-0.188124
H181	H	-0.623804	0.165511	0.134205
H182	H	-0.192159	0.090997	0.127370
H183	H	-0.040914	0.088781	-0.127158
H184	H	-0.424080	0.094447	0.082137
O185	O	-0.484075	-0.035782	0.629988
C186	C	-0.513658	-0.083742	0.660179
H187	H	-0.549474	-0.062376	0.667997
H188	H	-0.494248	-0.091331	0.696902
H189	H	-0.521174	-0.136298	0.640052
H190	H	-0.653071	0.207545	0.469126
O191	O	-0.328736	0.093059	0.089295
C192	C	-0.361804	0.093533	0.129201
H193	H	-0.395690	0.116177	0.115932
H194	H	-0.344098	0.127230	0.160829
H195	H	-0.372364	0.037577	0.143110
H196	H	0.050546	0.087402	0.127390
O197	O	-0.628457	0.172037	0.870189
C198	C	-0.622181	0.163027	0.921878
H199	H	-0.608508	0.110288	0.929010
H200	H	-0.658406	0.164401	0.941722
H201	H	-0.594554	0.207106	0.936698
O202	O	0.187096	0.085383	0.089331
C203	C	0.220160	0.084914	0.129246
H204	H	0.254051	0.062281	0.115989
H205	H	0.202454	0.051210	0.160874
H206	H	0.230711	0.140870	0.143151
O207	O	-0.513147	0.006418	0.130076
C208	C	-0.480062	0.049327	0.099879
H209	H	-0.494985	0.100987	0.092055
H210	H	-0.474746	0.021316	0.063158
H211	H	-0.443702	0.060376	0.120002
O212	O	-0.572385	-0.260448	-0.089071
C213	C	-0.572864	-0.212691	-0.128986
H214	H	-0.588705	-0.163855	-0.115732
H215	H	-0.596105	-0.238427	-0.160619
H216	H	-0.534172	-0.197173	-0.142884
H217	H	-0.517825	0.012928	0.866033
H218	H	-0.517823	0.012915	0.771309
H219	H	-0.100705	0.089663	-0.127162
O220	O	-0.657735	0.214035	0.629910
C221	C	-0.690800	0.171114	0.660122
H222	H	-0.696107	0.115504	0.644383
H223	H	-0.727163	0.193050	0.660713
H224	H	-0.675866	0.170082	0.699698
