data_functionalizedCrystal
_audit_creation_method	'MofGen! by Chris Wilmer'
_symmetry_space_group_name_H-M	'P1'
_symmetry_Int_Tables_number	1
_symmetry_cell_setting	triclinic
loop_
_symmetry_equiv_pos_as_xyz
  x,y,z
_cell_length_a	19.077105
_cell_length_b	16.959454
_cell_length_c	19.077271
_cell_angle_alpha	87.709468
_cell_angle_beta	89.912562
_cell_angle_gamma	87.716588
loop_
_atom_site_label
_atom_site_type_symbol
_atom_site_fract_x
_atom_site_fract_y
_atom_site_fract_z
Zn1	Zn	1.058214	-0.382525	0.440436
Zn2	Zn	1.062884	-0.509583	0.322938
Zn3	Zn	0.945454	-0.371901	0.318230
Zn4	Zn	0.940685	-0.509139	0.435689
O5	O	1.001809	-0.443287	0.379323
O6	O	1.157165	-0.404012	0.428807
O7	O	1.051257	-0.487059	0.223983
O8	O	0.960453	-0.262702	0.334457
O9	O	1.160596	-0.497360	0.342481
O10	O	1.043297	-0.270508	0.424242
O11	O	0.964981	-0.385905	0.220524
O12	O	0.846490	-0.385474	0.329855
O13	O	0.952325	-0.496603	0.534650
O14	O	0.842986	-0.486302	0.416151
O15	O	1.038673	-0.403581	0.538137
O16	O	1.046632	-0.620132	0.337878
O17	O	0.956853	-0.619806	0.420716
C18	C	0.819241	-0.434687	0.371977
C19	C	0.741138	-0.431028	0.368851
C20	C	1.001751	-0.648650	0.379309
C21	C	1.001789	-0.736509	0.379329
C22	C	0.702641	-0.481878	0.412242
C23	C	0.629254	-0.478429	0.409309
C24	C	0.594365	-0.424135	0.362980
C25	C	0.632867	-0.373280	0.319587
C26	C	0.706252	-0.376725	0.322525
C27	C	0.375079	-0.408190	0.349386
C28	C	0.301689	-0.404750	0.346450
C29	C	0.298081	-0.509900	0.436173
C30	C	0.371469	-0.513343	0.439104
C31	C	0.409964	-0.462485	0.395714
N32	N	0.519352	-0.420610	0.359978
N33	N	0.484975	-0.466007	0.398719
C34	C	0.955126	-1.107848	0.422455
C35	C	1.048684	-1.108135	0.336271
C36	C	1.048660	-1.025588	0.336264
C37	C	1.001868	-0.984167	0.379352
C38	C	0.955099	-1.025293	0.422447
C39	C	1.095423	-0.984455	0.293164
C40	C	1.095400	-0.901902	0.293154
C41	C	1.048610	-0.860480	0.336246
C42	C	1.001840	-0.901612	0.379344
C43	C	0.955048	-0.860191	0.422432
C44	C	0.908281	-0.901321	0.465534
C45	C	0.908309	-0.983871	0.465540
C46	C	1.048582	-0.777930	0.336241
C47	C	0.955021	-0.777636	0.422425
C48	C	1.185089	-0.451921	0.386698
C49	C	1.263192	-0.455600	0.389841
C50	C	0.994446	-0.451228	0.562603
C51	C	0.991308	-0.454611	0.640705
C52	C	1.001886	-0.237124	0.379354
C53	C	1.001919	-0.149269	0.379367
C54	C	1.034789	-0.407772	0.679215
C55	C	1.031832	-0.410948	0.752600
C56	C	0.985398	-0.460968	0.787475
C57	C	0.941913	-0.507810	0.748960
C58	C	0.944866	-0.504629	0.675576
C59	C	0.971740	-0.475670	1.006755
C60	C	0.968791	-0.478849	1.080144
C61	C	1.058710	-0.381986	1.083780
C62	C	1.061663	-0.378813	1.010394
C63	C	1.018175	-0.425651	0.971885
N64	N	0.982376	-0.464218	0.862487
N65	N	1.021194	-0.422397	0.896875
C66	C	1.009137	-0.435394	1.196757
C67	C	1.012272	-0.432009	1.118654
H68	H	0.731043	-0.526093	0.449966
C69	C	1.141053	-0.786509	0.251044
C70	C	1.099980	-0.732720	0.288866
H71	H	1.172789	-0.758596	0.221799
H72	H	1.111547	-0.816132	0.222918
H73	H	1.166688	-0.821269	0.282769
H74	H	1.074341	-0.697963	0.257141
H75	H	1.129490	-0.703083	0.316995
H76	H	0.870179	-0.867587	0.500614
C77	C	1.079243	-0.359883	0.568338
C78	C	1.085829	-0.352785	0.640883
H79	H	1.110756	-0.325936	0.544677
H80	H	1.032524	-0.345572	0.554415
H81	H	1.089996	-0.412955	0.556724
H82	H	1.075071	-0.299714	0.652499
H83	H	1.132559	-0.367091	0.654812
C84	C	0.866801	-1.110285	0.503806
C85	C	0.856900	-1.029082	0.512906
H86	H	0.835058	-1.138197	0.533043
H87	H	0.913588	-1.126437	0.516033
H88	H	0.858460	-1.121293	0.456170
H89	H	0.865246	-1.018074	0.560542
H90	H	0.810102	-1.012924	0.500683
H91	H	0.909453	-0.542763	0.644222
H92	H	0.399870	-0.557557	0.476828
H93	H	0.904103	-0.548534	0.777360
H94	H	0.406414	-0.366784	0.314050
H95	H	0.917052	-1.141340	0.457550
H96	H	0.266731	-0.551304	0.471500
C97	C	1.090221	-1.234801	0.297971
C98	C	1.100087	-1.153660	0.288879
H99	H	1.121952	-1.262907	0.268705
H100	H	1.043430	-1.245679	0.285776
H101	H	1.098602	-1.250849	0.345598
H102	H	1.091701	-1.137612	0.241252
H103	H	1.146890	-1.142777	0.301069
C104	C	1.215800	-1.013988	0.263779
C105	C	1.146820	-1.030024	0.245798
H106	H	1.247521	-1.042133	0.234532
H107	H	1.224160	-1.030011	0.311409
H108	H	1.222502	-0.958945	0.257579
H109	H	1.140117	-1.085066	0.252003
H110	H	1.138457	-1.014006	0.198157
H111	H	1.133480	-0.868419	0.258059
H112	H	0.597914	-0.519837	0.444642
C113	C	0.521975	-0.321309	0.275245
C114	C	0.594518	-0.313594	0.268664
H115	H	0.498303	-0.284464	0.243803
H116	H	0.508068	-0.311308	0.321989
H117	H	0.510356	-0.373387	0.264394
H118	H	0.606138	-0.261518	0.279519
H119	H	0.608430	-0.323590	0.221909
C120	C	0.702452	-0.272456	0.233532
C121	C	0.748570	-0.320836	0.274822
H122	H	0.728579	-0.237956	0.204080
H123	H	0.672614	-0.242258	0.263047
H124	H	0.674893	-0.304347	0.205460
H125	H	0.776126	-0.288946	0.302899
H126	H	0.778420	-0.351037	0.245304
H127	H	0.916919	-0.743916	0.457515
H128	H	1.099476	-0.338083	0.982004
H129	H	1.067240	-0.372808	0.783952
H130	H	1.094115	-0.343851	1.115141
H131	H	0.936340	-0.513822	0.975410
C132	C	0.312621	-0.301146	0.258063
C133	C	0.263337	-0.345061	0.295525
H134	H	0.288942	-0.264297	0.226629
H135	H	0.342312	-0.335708	0.232276
H136	H	0.340026	-0.273639	0.289879
H137	H	0.235935	-0.372573	0.263709
H138	H	0.233634	-0.310494	0.321314
C139	C	0.880194	-0.574270	1.069184
C140	C	0.917744	-0.533832	1.118480
H141	H	0.848680	-0.608210	1.092852
H142	H	0.911945	-0.604708	1.041789
H143	H	0.854482	-0.537316	1.039484
H144	H	0.943461	-0.570787	1.148177
H145	H	0.885989	-0.503393	1.145886
