data_functionalizedCrystal
_audit_creation_method	'MofGen! by Chris Wilmer'
_symmetry_space_group_name_H-M	'P1'
_symmetry_Int_Tables_number	1
_symmetry_cell_setting	triclinic
loop_
_symmetry_equiv_pos_as_xyz
  x,y,z
_cell_length_a	12.759401
_cell_length_b	13.897448
_cell_length_c	12.759393
_cell_angle_alpha	90.033346
_cell_angle_beta	90.018496
_cell_angle_gamma	90.017853
loop_
_atom_site_label
_atom_site_type_symbol
_atom_site_fract_x
_atom_site_fract_y
_atom_site_fract_z
Zn1	Zn	1.606234	-0.383954	0.593968
Zn2	Zn	1.606119	-0.545283	0.418283
Zn3	Zn	1.430536	-0.384004	0.418308
Zn4	Zn	1.430515	-0.545209	0.593924
O5	O	1.518351	-0.464613	0.506121
O6	O	1.753239	-0.405365	0.570671
O7	O	1.582788	-0.523942	0.271265
O8	O	1.453899	-0.249016	0.441638
O9	O	1.753155	-0.523893	0.441596
O10	O	1.582983	-0.248979	0.570695
O11	O	1.453788	-0.405451	0.271283
O12	O	1.283512	-0.405379	0.441596
O13	O	1.453864	-0.523766	0.740951
O14	O	1.283497	-0.523815	0.570621
O15	O	1.582964	-0.405293	0.740984
O16	O	1.582768	-0.680255	0.441554
O17	O	1.453753	-0.680201	0.570597
C18	C	1.245383	-0.464595	0.506107
C19	C	1.128607	-0.464611	0.506125
C20	C	1.073764	-0.526379	0.573198
C21	C	0.964040	-0.526391	0.573209
C22	C	0.964011	-0.402864	0.439067
C23	C	1.073733	-0.402847	0.439062
C24	C	1.128638	-0.588142	0.640261
C25	C	1.073796	-0.649917	0.707338
C26	C	0.964072	-0.649929	0.707349
C27	C	0.909190	-0.588167	0.640284
C28	C	1.518274	-0.715227	0.506090
C29	C	1.518337	-0.822441	0.506113
C30	C	1.518448	-1.018736	0.506178
C31	C	1.518383	-0.909503	0.506145
C32	C	1.792384	-0.464631	0.506136
C33	C	1.909161	-0.464639	0.506142
C34	C	1.518424	-0.464515	0.780154
C35	C	1.518456	-0.464474	0.896931
C36	C	1.518456	-0.213020	0.506174
C37	C	1.518501	-0.105806	0.506197
C38	C	1.518338	-0.464640	0.233154
C39	C	1.518510	-0.464410	0.116377
C40	C	1.585687	-0.402779	0.951812
C41	C	1.585712	-0.402744	1.061536
C42	C	1.451271	-0.526107	1.061489
C43	C	1.451242	-0.526137	0.951767
C44	C	1.652901	-0.341116	0.896976
C45	C	1.720139	-0.279417	0.951856
C46	C	1.720164	-0.279382	1.061580
C47	C	1.652951	-0.341046	1.116424
H48	H	1.118488	-0.700195	0.761947
H49	H	0.919422	-0.700221	0.761974
C50	C	1.794067	-0.211585	0.891535
C51	C	1.913502	-0.219461	0.906634
C52	C	1.987431	-0.151627	0.846315
C53	C	1.941925	-0.075917	0.770898
C54	C	1.822483	-0.068038	0.755796
C55	C	1.748554	-0.135872	0.816114
H56	H	1.947195	-0.275509	0.962465
H57	H	2.075850	-0.157460	0.857495
H58	H	1.996651	-0.025702	0.726247
H59	H	1.788790	-0.011990	0.699964
H60	H	1.660135	-0.130039	0.804934
C61	C	1.794117	-0.211512	1.121951
C62	C	1.868044	-0.143686	1.061629
C63	C	1.942003	-0.075817	1.121997
C64	C	1.942035	-0.075773	1.242688
C65	C	1.868105	-0.143601	1.303016
C66	C	1.794146	-0.211470	1.242648
H67	H	1.868022	-0.143717	0.972281
H68	H	1.996730	-0.025606	1.077338
H69	H	1.996784	-0.025532	1.287376
H70	H	1.868127	-0.143571	1.392364
H71	H	1.739419	-0.261681	1.287308
H72	H	0.919317	-0.352581	0.384465
C73	C	1.377349	-0.593942	1.121814
C74	C	1.377384	-0.593915	1.242504
C75	C	1.303464	-0.661753	1.302827
C76	C	1.229508	-0.729618	1.242460
C77	C	1.229470	-0.729648	1.121764
C78	C	1.303391	-0.661810	1.061440
H79	H	1.432133	-0.543674	1.287197
H80	H	1.303493	-0.661731	1.392175
H81	H	1.174788	-0.779837	1.287115
H82	H	1.174722	-0.779889	1.077070
H83	H	1.303362	-0.661832	0.972092
H84	H	1.118386	-0.352543	0.384454
H85	H	1.652890	-0.341139	0.807633
C86	C	1.377300	-0.594004	0.891379
C87	C	1.257868	-0.586128	0.906442
C88	C	1.183926	-0.653993	0.846048
C89	C	1.229415	-0.729734	0.770590
C90	C	1.348853	-0.737612	0.755523
C91	C	1.422795	-0.669747	0.815917
H92	H	1.224189	-0.530058	0.962304
H93	H	1.095510	-0.648161	0.857202
H94	H	1.174678	-0.779972	0.725882
H95	H	1.382532	-0.793683	0.699661
H96	H	1.511211	-0.675580	0.804763
H97	H	0.819845	-0.588173	0.640308
H98	H	1.217981	-0.588141	0.640258
H99	H	1.652964	-0.341002	1.205769
