data_functionalizedCrystal
_audit_creation_method	'MofGen! by Chris Wilmer'
_symmetry_space_group_name_H-M	'P1'
_symmetry_Int_Tables_number	1
_symmetry_cell_setting	triclinic
loop_
_symmetry_equiv_pos_as_xyz
  x,y,z
_cell_length_a	16.992694
_cell_length_b	10.065918
_cell_length_c	16.992695
_cell_angle_alpha	80.758456
_cell_angle_beta	89.331777
_cell_angle_gamma	99.282685
loop_
_atom_site_label
_atom_site_type_symbol
_atom_site_fract_x
_atom_site_fract_y
_atom_site_fract_z
O1	O	1.061807	0.113323	-0.177819
O2	O	0.833411	0.113364	-0.175992
O3	O	0.946693	0.113333	-0.062705
O4	O	0.948526	0.113354	-0.291107
O5	O	0.924736	-0.113654	-0.040862
O6	O	0.811454	-0.113623	-0.154149
O7	O	1.039850	-0.113663	-0.155977
Zn8	Zn	0.922166	-0.149682	-0.151595
Zn9	Zn	0.951095	0.149382	-0.180374
O10	O	0.926569	-0.113632	-0.269264
C11	C	0.793073	-0.000125	-0.162715
C12	C	0.705590	-0.000110	-0.155688
C13	C	0.659599	-0.000104	-0.223507
C14	C	0.577397	-0.000124	-0.216896
C15	C	0.541187	-0.000139	-0.142467
C16	C	0.587183	-0.000148	-0.074643
C17	C	0.669383	-0.000138	-0.081253
C18	C	0.295869	-0.000178	-0.115068
C19	C	0.213663	-0.000183	-0.108463
C20	C	0.203882	-0.000162	-0.250717
C21	C	0.286085	-0.000144	-0.257322
C22	C	0.332073	-0.000160	-0.189497
N23	N	0.457163	-0.000154	-0.135708
N24	N	0.416095	-0.000154	-0.196255
N25	N	0.902428	-0.353786	-0.131954
C26	C	0.944223	-0.421569	-0.173540
C27	C	0.929038	-0.578734	-0.158417
C28	C	1.080189	-0.000172	-0.169254
C29	C	1.167673	-0.000178	-0.176282
C30	C	0.933358	-0.000160	-0.022423
C31	C	0.926330	-0.000158	0.065061
N32	N	0.970839	0.353486	-0.200009
C33	C	0.939903	-0.000137	-0.309546
C34	C	0.946933	-0.000129	-0.397031
C35	C	0.994147	-0.000172	0.111053
C36	C	0.987539	-0.000158	0.193253
C37	C	0.913113	-0.000140	0.229459
C38	C	0.845292	-0.000122	0.183461
C39	C	0.851901	-0.000127	0.101262
C40	C	0.885721	-0.000116	0.474771
C41	C	0.879116	-0.000116	0.556977
C42	C	1.021364	-0.000149	0.566763
C43	C	1.027966	-0.000161	0.484563
C44	C	0.960146	-0.000136	0.438571
N45	N	0.906357	-0.000130	0.313481
N46	N	0.966904	-0.000137	0.354550
H47	H	0.689075	-0.000091	-0.284115
H48	H	0.991249	-0.363246	-0.220336
O49	O	1.100223	-0.000410	0.449376
C50	C	1.178842	-0.117979	0.373523
C51	C	1.096978	-0.117878	0.413355
H52	H	1.176241	-0.212927	0.344375
H53	H	1.226208	-0.118072	0.420486
H54	H	1.194666	-0.022944	0.326168
H55	H	1.081078	-0.212896	0.460703
H56	H	1.049659	-0.117714	0.366345
H57	H	0.830496	-0.000097	0.437334
H58	H	0.333303	-0.000192	-0.059840
H59	H	0.539955	-0.000118	-0.272121
O60	O	0.773048	-0.000165	0.218761
C61	C	0.699830	-0.000072	0.341046
C62	C	0.781692	-0.000050	0.301175
H63	H	0.706793	0.000050	0.407681
H64	H	0.656849	-0.095082	0.331673
H65	H	0.675248	0.094906	0.313281
H66	H	0.806346	-0.094964	0.328914
H67	H	0.824619	0.095022	0.310542
O68	O	0.785938	-0.000174	0.056705
C69	C	0.644159	-0.000049	0.055660
C70	C	0.718795	-0.000038	0.106216
H71	H	0.589859	0.000090	0.095665
H72	H	0.634447	-0.095062	0.026093
H73	H	0.652934	0.094925	0.007772
H74	H	0.710076	-0.094948	0.154144
H75	H	0.728485	0.095038	0.135725
H76	H	0.818505	-0.000124	0.586455
H77	H	0.882014	-0.637052	-0.111613
O78	O	0.551997	0.000079	-0.002383
C79	C	0.476195	0.117617	0.076307
C80	C	0.516022	0.117540	-0.005563
H81	H	0.447084	0.212560	0.073758
H82	H	0.523162	0.117700	0.123670
H83	H	0.428804	0.022577	0.092088
H84	H	0.563407	0.212564	-0.021419
H85	H	0.469008	0.117386	-0.052879
H86	H	0.315563	-0.000116	-0.317931
H87	H	0.184184	-0.000194	-0.047851
H88	H	0.706828	-0.000142	-0.026028
H89	H	1.076580	-0.000166	0.604218
H90	H	1.017868	-0.588198	-0.246810
H91	H	0.855407	-0.412108	-0.085153
H92	H	0.166430	-0.000151	-0.305935
O93	O	1.066512	-0.000125	0.076006
C94	C	1.206897	-0.000219	0.094404
C95	C	1.124994	-0.000248	0.134191
H96	H	1.254199	-0.000347	0.141431
H97	H	1.222790	0.094796	0.047044
H98	H	1.204324	-0.095191	0.065283
H99	H	1.127505	0.094660	0.163357
H100	H	1.109132	-0.095325	0.181509
O101	O	1.053419	0.000072	0.237936
C102	C	1.139872	0.117625	0.325127
C103	C	1.065253	0.117545	0.274542
H104	H	1.149454	0.212578	0.354749
H105	H	1.194234	0.117693	0.285155
H106	H	1.131136	0.022595	0.372972
H107	H	1.073911	0.212559	0.226691
H108	H	1.010918	0.117406	0.314565
