data_functionalizedCrystal
_audit_creation_method	'MofGen! by Chris Wilmer'
_symmetry_space_group_name_H-M	'P1'
_symmetry_Int_Tables_number	1
_symmetry_cell_setting	triclinic
loop_
_symmetry_equiv_pos_as_xyz
  x,y,z
_cell_length_a	13.032831
_cell_length_b	18.215405
_cell_length_c	18.215399
_cell_angle_alpha	89.969449
_cell_angle_beta	97.190803
_cell_angle_gamma	97.170997
loop_
_atom_site_label
_atom_site_type_symbol
_atom_site_fract_x
_atom_site_fract_y
_atom_site_fract_z
Zn1	Zn	1.597611	0.436094	0.558719
Zn2	Zn	2.097611	0.936094	1.058719
Zn3	Zn	1.597481	0.559154	0.435635
Zn4	Zn	2.097481	1.059154	0.935635
Zn5	Zn	1.422854	0.420464	0.420066
Zn6	Zn	1.922854	0.920464	0.920066
Zn7	Zn	1.422806	0.543466	0.543067
Zn8	Zn	1.922806	1.043466	1.043067
O9	O	1.510188	0.489795	0.489372
O10	O	2.010188	0.989795	0.989372
O11	O	1.743832	0.465525	0.555458
O12	O	2.243832	0.965525	1.055458
O13	O	1.574282	0.540781	0.330583
O14	O	2.074282	1.040781	0.830583
O15	O	1.446111	0.319560	0.438493
O16	O	1.946111	0.819560	0.938493
O17	O	1.743737	0.555937	0.465029
O18	O	2.243737	1.055937	0.965029
O19	O	1.574504	0.331043	0.540361
O20	O	2.074504	0.831043	1.040361
O21	O	1.445985	0.438886	0.319144
O22	O	1.945985	0.938886	0.819144
O23	O	1.276609	0.423674	0.423316
O24	O	1.776609	0.923674	0.923316
O25	O	1.446028	0.529199	0.648131
O26	O	1.946028	1.029199	1.148131
O27	O	1.276574	0.514043	0.513685
O28	O	1.776574	1.014043	1.013685
O29	O	1.574457	0.450313	0.659630
O30	O	2.074457	0.950313	1.159630
O31	O	1.574235	0.660051	0.449852
O32	O	2.074235	1.160051	0.949852
O33	O	1.445902	0.648525	0.528782
O34	O	1.945902	1.148525	1.028782
C35	C	1.510078	0.680991	0.489327
C36	C	2.010078	1.180991	0.989327
C37	C	1.510126	0.762794	0.489340
C38	C	2.010126	1.262794	0.989340
C39	C	1.238674	0.465460	0.465113
C40	C	1.738674	0.965460	0.965113
C41	C	1.122519	0.455068	0.454753
C42	C	1.622519	0.955068	0.954753
C43	C	1.510252	0.489750	0.681331
C44	C	2.010252	0.989750	1.181331
C45	C	1.510279	0.489730	0.763132
C46	C	2.010279	0.989730	1.263132
C47	C	1.070743	0.495219	0.494779
C48	C	1.570743	0.995219	0.994779
C49	C	0.950691	0.484478	0.484072
C50	C	1.450691	0.984478	0.984072
C51	C	1.782763	0.514225	0.513726
C52	C	2.282763	1.014225	1.013726
C53	C	1.898918	0.524635	0.524104
C54	C	2.398918	1.024635	1.024104
C55	C	1.510327	0.297854	0.489436
C56	C	2.010327	0.797854	0.989436
C57	C	1.510387	0.216061	0.489463
C58	C	2.010387	0.716061	0.989463
C59	C	1.577106	0.956979	0.448342
C60	C	2.077106	1.456979	0.948342
C61	C	1.577153	1.033842	0.448364
C62	C	2.077153	1.533842	0.948364
C63	C	1.443404	1.021870	0.530466
C64	C	1.943404	1.521870	1.030466
C65	C	1.443363	0.945009	0.530448
C66	C	1.943363	1.445009	1.030448
C67	C	1.510213	0.912565	0.489382
C68	C	2.010213	1.412565	0.989382
C69	C	1.510300	1.066289	0.489422
C70	C	2.010300	1.566289	0.989422
C71	C	1.510350	1.149627	0.489446
C72	C	2.010350	1.649627	0.989446
C73	C	1.510164	0.829222	0.489358
C74	C	2.010164	1.329222	0.989358
C75	C	1.510185	0.489792	0.298165
C76	C	2.010185	0.989792	0.798165
C77	C	1.510360	0.489622	0.216383
C78	C	2.010360	0.989622	0.716383
C79	C	1.577176	0.448613	0.957317
C80	C	2.077176	0.948613	1.457317
C81	C	1.577188	0.448593	1.034177
C82	C	2.077188	0.948593	1.534177
C83	C	1.443456	0.530741	1.022192
C84	C	1.943456	1.030741	1.522192
C85	C	1.443439	0.530756	0.945333
C86	C	1.943439	1.030756	1.445333
C87	C	1.510305	0.489694	0.912898
C88	C	2.010305	0.989694	1.412898
C89	C	1.510334	0.489658	1.066617
C90	C	2.010334	0.989658	1.566617
C91	C	1.510347	0.489636	1.149952
C92	C	2.010347	0.989636	1.649952
C93	C	1.510291	0.489715	0.829558
C94	C	2.010291	0.989715	1.329558
H95	H	1.115294	0.537542	0.536977
H96	H	1.615294	1.037542	1.036977
H97	H	1.631625	1.070001	0.414947
H98	H	2.131625	1.570001	0.914947
H99	H	1.631540	0.930566	0.414905
H100	H	2.131540	1.430566	0.914905
O101	O	1.371283	1.056859	0.574743
O102	O	1.871283	1.556859	1.074743
H103	H	1.382536	1.117767	0.567852
H104	H	1.882536	1.617767	1.067852
H105	H	1.388890	0.908844	0.563871
H106	H	1.888890	1.408844	1.063871
O107	O	1.371304	0.575067	0.897420
O108	O	1.871304	1.075067	1.397420
H109	H	1.382518	0.568170	0.838526
H110	H	1.882518	1.068170	1.338526
H111	H	0.906143	0.442146	0.441877
H112	H	1.406143	0.942146	0.941877
O113	O	0.957909	0.580705	0.580006
O114	O	1.457909	1.080705	1.080006
H115	H	1.042945	0.580345	0.579644
H116	H	1.542945	1.080345	1.079644
H117	H	1.631619	0.415175	0.930911
H118	H	2.131619	0.915175	1.430911
O119	O	1.649318	0.404289	1.082089
O120	O	2.149318	0.904289	1.582089
H121	H	1.695814	0.375745	1.046621
H122	H	2.195814	0.875745	1.546621
O123	O	1.063521	0.399011	0.398844
O124	O	1.563521	0.899011	0.898844
H125	H	0.978485	0.399382	0.399198
H126	H	1.478485	0.899382	0.899198
O127	O	1.371339	0.575030	1.057174
O128	O	1.871339	1.075030	1.557174
H129	H	1.382590	0.568123	1.118082
H130	H	1.882590	1.068123	1.618082
