data_functionalizedCrystal
_audit_creation_method	'MofGen! by Chris Wilmer'
_symmetry_space_group_name_H-M	'P1'
_symmetry_Int_Tables_number	1
_symmetry_cell_setting	triclinic
loop_
_symmetry_equiv_pos_as_xyz
  x,y,z
_cell_length_a	11.792254
_cell_length_b	19.188930
_cell_length_c	10.868271
_cell_angle_alpha	89.989749
_cell_angle_beta	89.995741
_cell_angle_gamma	83.671689
loop_
_atom_site_label
_atom_site_type_symbol
_atom_site_fract_x
_atom_site_fract_y
_atom_site_fract_z
O1	O	1.505467	0.095737	-0.102336
O2	O	1.174980	0.105590	-0.102341
O3	O	1.349761	-0.000938	-0.102314
O4	O	1.330686	0.202265	-0.102363
O5	O	1.349746	-0.000942	0.102330
O6	O	1.174966	0.105586	0.102304
O7	O	1.505453	0.095733	0.102308
Zn8	Zn	1.340207	0.100659	0.134798
Zn9	Zn	1.340226	0.100664	-0.134830
O10	O	1.330672	0.202261	0.102282
C11	C	1.132692	0.104968	-0.000018
C12	C	1.006706	0.103110	-0.000019
C13	C	0.904392	0.101600	-0.000024
C14	C	0.776034	0.099713	-0.000024
C15	C	1.349136	-0.026954	0.000012
C16	C	1.347282	-0.104469	0.000022
C17	C	1.449837	-0.148809	0.000029
C18	C	1.448095	-0.221643	0.000010
C19	C	1.343792	-0.250134	0.000007
C20	C	1.241223	-0.205784	-0.000007
C21	C	1.242968	-0.132951	0.000001
N22	N	1.264059	-0.358594	0.069651
N23	N	1.262409	-0.427782	0.069646
C24	C	1.338528	-0.469572	-0.000018
N25	N	1.416378	-0.439562	-0.069662
N26	N	1.418032	-0.370368	-0.069652
C27	C	1.341888	-0.329107	-0.000001
C28	C	1.439202	-0.592887	-0.000034
C29	C	1.437455	-0.665722	-0.000061
C30	C	1.230580	-0.649861	-0.000065
C31	C	1.232330	-0.577028	-0.000050
C32	C	1.336643	-0.548546	-0.000028
C33	C	1.547741	0.096356	-0.000016
C34	C	1.673726	0.098214	-0.000024
C35	C	1.331297	0.228278	-0.000047
C36	C	1.333151	0.305793	-0.000065
N37	N	1.340202	0.100655	0.318812
N38	N	1.340239	0.100663	-0.318844
C39	C	1.340220	0.100663	0.569818
C40	C	1.340207	0.100660	0.430141
H41	H	1.534777	-0.125624	0.000043
O42	O	1.132630	-0.534024	-0.000205
C43	C	1.069298	-0.546970	-0.106210
H44	H	1.097445	-0.602101	-0.141553
H45	H	0.974614	-0.542213	-0.082373
H46	H	1.084622	-0.507068	-0.180421
H47	H	1.520972	-0.701824	-0.000062
H48	H	1.531611	-0.257752	0.000011
H49	H	1.156298	-0.228985	-0.000011
O50	O	1.143266	-0.089947	-0.000163
C51	C	1.079936	-0.102890	-0.106172
H52	H	1.108081	-0.158020	-0.141517
H53	H	0.985251	-0.098130	-0.082339
H54	H	1.095265	-0.062986	-0.180379
H55	H	1.524140	-0.569696	-0.000022
H56	H	1.145654	-0.673057	-0.000073
