data_functionalizedCrystal
_audit_creation_method	'MofGen! by Chris Wilmer'
_symmetry_space_group_name_H-M	'P1'
_symmetry_Int_Tables_number	1
_symmetry_cell_setting	triclinic
loop_
_symmetry_equiv_pos_as_xyz
  x,y,z
_cell_length_a	9.065215
_cell_length_b	10.654546
_cell_length_c	7.540329
_cell_angle_alpha	90.000091
_cell_angle_beta	89.999686
_cell_angle_gamma	95.250889
loop_
_atom_site_label
_atom_site_type_symbol
_atom_site_fract_x
_atom_site_fract_y
_atom_site_fract_z
O1	O	1.959387	-0.184143	-0.147440
O2	O	1.530019	-0.199253	-0.147446
O3	O	1.754577	-0.008998	-0.147453
O4	O	1.734828	-0.374399	-0.147433
O5	O	1.754573	-0.008989	0.147512
O6	O	1.530015	-0.199244	0.147519
O7	O	1.959383	-0.184135	0.147525
Cu8	Cu	1.744699	-0.191689	0.174455
Cu9	Cu	1.744703	-0.191699	-0.174376
O10	O	1.734824	-0.374390	0.147532
C11	C	1.475038	-0.197797	0.000035
C12	C	1.311219	-0.193458	0.000032
C13	C	1.753126	0.037810	0.000023
C14	C	1.748791	0.177271	0.000004
C15	C	1.881007	0.256234	0.000004
C16	C	1.876925	0.387271	-0.000021
C17	C	1.608399	0.360369	-0.000039
C18	C	1.612482	0.229335	-0.000027
C19	C	2.017316	0.204171	0.000034
C20	C	2.149543	0.283135	0.000037
C21	C	2.145460	0.414172	0.000012
C22	C	2.009151	0.466245	-0.000015
C23	C	2.014364	-0.185590	0.000040
C24	C	2.178183	-0.189930	0.000032
N25	N	1.744707	-0.191697	-0.419724
C26	C	1.736279	0.578802	0.000029
C27	C	1.740625	0.439343	-0.000033
N28	N	1.744706	-0.191681	0.419803
H29	H	2.020655	0.097475	0.000060
H30	H	1.497422	0.402778	-0.000058
H31	H	2.260521	0.240729	0.000014
H32	H	2.253126	0.478462	-0.000004
H33	H	2.005837	0.572945	-0.000054
H34	H	1.504820	0.165040	-0.000025
