data_functionalizedCrystal
_audit_creation_method	'MofGen! by Chris Wilmer'
_symmetry_space_group_name_H-M	'P1'
_symmetry_Int_Tables_number	1
_symmetry_cell_setting	triclinic
loop_
_symmetry_equiv_pos_as_xyz
  x,y,z
_cell_length_a	12.827893
_cell_length_b	21.395361
_cell_length_c	21.395356
_cell_angle_alpha	90.030681
_cell_angle_beta	89.978398
_cell_angle_gamma	89.969321
loop_
_atom_site_label
_atom_site_type_symbol
_atom_site_fract_x
_atom_site_fract_y
_atom_site_fract_z
Zn1	Zn	1.597582	0.249455	-0.354215
Zn2	Zn	1.597423	0.354232	-0.249432
Zn3	Zn	1.422817	0.249472	-0.249455
Zn4	Zn	1.422762	0.354199	-0.354176
O5	O	1.510146	0.301839	-0.301820
O6	O	1.743797	0.263361	-0.340322
O7	O	1.574217	0.340356	-0.161757
O8	O	1.446089	0.161792	-0.263378
O9	O	1.743680	0.340339	-0.263338
O10	O	1.574489	0.161779	-0.340345
O11	O	1.445934	0.263389	-0.161774
O12	O	1.276573	0.263357	-0.263340
O13	O	1.445997	0.340283	-0.441859
O14	O	1.276534	0.340300	-0.340278
O15	O	1.574436	0.263329	-0.441888
O16	O	1.574164	0.441905	-0.263301
O17	O	1.445842	0.441881	-0.340255
C18	C	1.238636	0.301827	-0.301808
C19	C	1.122483	0.301837	-0.301817
C20	C	1.510008	0.464627	-0.301785
C21	C	1.510045	0.534268	-0.301791
C22	C	1.510228	0.301800	-0.465243
C23	C	1.510263	0.301784	-0.534884
C24	C	1.070706	0.339970	-0.339830
C25	C	0.950656	0.339981	-0.339841
C26	C	1.782716	0.301852	-0.301832
C27	C	1.898869	0.301857	-0.301837
C28	C	1.510313	0.138416	-0.301868
C29	C	1.510384	0.068775	-0.301889
C30	C	1.576921	0.566973	-0.261761
C31	C	1.576970	0.632408	-0.261776
C32	C	1.510123	0.665136	-0.301812
C33	C	1.443242	0.632424	-0.341849
C34	C	1.443203	0.566989	-0.341839
C35	C	1.416030	0.768851	-0.306724
C36	C	1.416068	0.834284	-0.306731
C37	C	1.510245	0.866957	-0.301849
C38	C	1.604387	0.834190	-0.296948
C39	C	1.604348	0.768755	-0.296937
C40	C	1.510159	0.736089	-0.301829
C41	C	1.577180	0.970615	-0.261833
C42	C	1.577230	1.036051	-0.261851
C43	C	1.443493	1.036065	-0.341922
C44	C	1.443452	0.970630	-0.341907
C45	C	1.510294	0.937908	-0.301859
C46	C	1.443485	0.261703	-0.567596
C47	C	1.443481	0.261691	-0.633032
C48	C	1.510275	0.301754	-0.665753
C49	C	1.577058	0.341843	-0.633033
C50	C	1.577052	0.341858	-0.567598
C51	C	1.604430	0.306680	-0.769437
C52	C	1.604437	0.306661	-0.834870
C53	C	1.510292	0.301712	-0.867574
C54	C	1.416136	0.296769	-0.834836
C55	C	1.416130	0.296784	-0.769402
C56	C	1.510288	0.301743	-0.736705
C57	C	1.443504	0.261616	-0.971238
C58	C	1.443498	0.261609	-1.036675
C59	C	1.577085	0.341757	-1.036674
C60	C	1.577081	0.341768	-0.971239
C61	C	1.510292	0.301694	-0.938525
C62	C	1.510124	0.301833	-0.139032
C63	C	1.510292	0.301673	-0.069391
H64	H	1.115255	0.372607	-0.372368
H65	H	1.389070	1.062711	-0.374523
H66	H	1.389096	0.229074	-0.540965
H67	H	0.906129	0.372630	-0.372383
O68	O	1.378580	0.222694	-0.664721
C69	C	1.246054	0.143217	-0.657821
C70	C	1.319516	0.187339	-0.621858
H71	H	1.198266	0.114631	-0.623182
H72	H	1.294028	0.110413	-0.688456
H73	H	1.191428	0.171980	-0.688455
H74	H	1.374156	0.158626	-0.591190
H75	H	1.271476	0.220145	-0.591262
H76	H	1.631432	0.659042	-0.229179
O77	O	1.641978	0.380817	-0.664718
C78	C	1.774517	0.460288	-0.657813
C79	C	1.701033	0.416188	-0.621853
H80	H	1.822298	0.488887	-0.623172
H81	H	1.726560	0.493081	-0.688413
H82	H	1.829148	0.431506	-0.688482
H83	H	1.646388	0.444919	-0.591150
H84	H	1.749055	0.383393	-0.591292
O85	O	1.324586	0.291931	-0.866499
C86	C	1.137811	0.282161	-0.859556
C87	C	1.241412	0.287624	-0.823617
H88	H	1.070536	0.278691	-0.824902
H89	H	1.139404	0.238557	-0.890190
H90	H	1.126793	0.325241	-0.890189
H91	H	1.252495	0.244577	-0.792950
H92	H	1.239771	0.331255	-0.793022
H93	H	1.681076	0.860791	-0.292973
H94	H	0.943389	0.269211	-0.269289
H95	H	1.631436	0.374496	-0.540964
H96	H	1.077934	0.269196	-0.269284
O97	O	1.642060	0.380717	-0.939556
C98	C	1.774517	0.460234	-0.946462
C99	C	1.700998	0.416142	-0.982421
H100	H	1.822172	0.488896	-0.981103
H101	H	1.829255	0.431506	-0.915866
H102	H	1.726488	0.492973	-0.915790
H103	H	1.748942	0.383394	-1.013127
H104	H	1.646257	0.444909	-1.012978
O105	O	1.641958	0.535286	-0.222847
C106	C	1.774569	0.542180	-0.143407
C107	C	1.700982	0.578146	-0.187453
H108	H	1.822292	0.576817	-0.114770
H109	H	1.829240	0.511517	-0.172168
H110	H	1.726589	0.511574	-0.110641
H111	H	1.748877	0.608786	-0.220227
H112	H	1.646308	0.608770	-0.158652
O113	O	1.378378	0.938953	-0.380805
C114	C	1.245775	0.945875	-0.460248
C115	C	1.319402	0.981825	-0.416214
H116	H	1.198090	0.980521	-0.488896
H117	H	1.191071	0.915308	-0.431476
H118	H	1.293721	0.915173	-0.493003
H119	H	1.271541	1.012561	-0.383450
H120	H	1.374110	1.012352	-0.445025
H121	H	1.339466	0.292760	-0.742750
H122	H	1.681001	0.742078	-0.292949
O123	O	1.324590	0.737050	-0.311381
C124	C	1.207428	0.663304	-0.263372
C125	C	1.311016	0.699265	-0.258024
H126	H	1.196410	0.632756	-0.220234
H127	H	1.208965	0.632596	-0.306926
H128	H	1.140179	0.697977	-0.266900
H129	H	1.378321	0.664637	-0.254471
H130	H	1.309390	0.729982	-0.214479
O131	O	1.642209	0.938921	-0.222915
C132	C	1.774809	0.945812	-0.143468
C133	C	1.701237	0.981780	-0.187522
H134	H	1.822537	0.980447	-0.114832
H135	H	1.829477	0.915141	-0.172225
H136	H	1.726817	0.915214	-0.110702
H137	H	1.749145	1.012412	-0.220297
H138	H	1.646567	1.012412	-0.158727
H139	H	1.389112	0.228972	-1.063308
O140	O	1.642395	1.067822	-0.223083
C141	C	1.783645	1.141564	-0.214830
C142	C	1.709871	1.105629	-0.258789
H143	H	1.838203	1.172150	-0.243680
H144	H	1.831479	1.106930	-0.186255
H145	H	1.735808	1.172250	-0.182003
H146	H	1.757627	1.074942	-0.291654
H147	H	1.662034	1.140297	-0.287320
H148	H	1.339411	0.860958	-0.310715
H149	H	1.388817	0.659075	-0.374449
O150	O	1.378134	0.535314	-0.380743
C151	C	1.245542	0.542232	-0.460192
C152	C	1.319163	0.578184	-0.416155
H153	H	1.197860	0.576878	-0.488844
H154	H	1.190833	0.511667	-0.431422
H155	H	1.293491	0.511530	-0.492944
H156	H	1.271297	0.608921	-0.383394
H157	H	1.373874	0.608711	-0.444965
H158	H	1.681101	0.310705	-0.742815
H159	H	1.389119	0.228986	-0.944601
O160	O	1.641945	0.380610	-1.068548
C161	C	1.701132	0.416125	-1.169353
C162	C	1.627638	0.372082	-1.133331
H163	H	1.689574	0.409254	-1.221736
H164	H	1.785425	0.405120	-1.156551
H165	H	1.682752	0.466644	-1.156433
H166	H	1.645923	0.321548	-1.146231
H167	H	1.543367	0.383140	-1.146136
O168	O	1.695984	0.311494	-0.866571
C169	C	1.882756	0.321280	-0.859697
C170	C	1.779151	0.315824	-0.823720
H171	H	1.950025	0.324769	-0.825068
H172	H	1.881158	0.364871	-0.890302
H173	H	1.893786	0.278188	-0.890363
H174	H	1.768055	0.358883	-0.793021
H175	H	1.780796	0.272206	-0.793154
