data_functionalizedCrystal
_audit_creation_method	'MofGen! by Chris Wilmer'
_symmetry_space_group_name_H-M	'P1'
_symmetry_Int_Tables_number	1
_symmetry_cell_setting	triclinic
loop_
_symmetry_equiv_pos_as_xyz
  x,y,z
_cell_length_a	14.395555
_cell_length_b	23.196402
_cell_length_c	23.196402
_cell_angle_alpha	90.003744
_cell_angle_beta	60.001357
_cell_angle_gamma	60.002323
loop_
_atom_site_label
_atom_site_type_symbol
_atom_site_fract_x
_atom_site_fract_y
_atom_site_fract_z
Zr1	Zr	1.016804	-0.075682	0.555374
O2	O	1.210595	-0.167731	0.463320
O3	O	0.823009	-0.047463	0.583591
O4	O	1.016802	-0.167733	0.583585
O5	O	1.016805	0.047409	0.463335
O6	O	1.016805	-0.167737	0.678455
O7	O	1.016802	-0.047461	0.463327
O8	O	0.670145	0.047405	0.678467
O9	O	1.363465	-0.167732	0.463323
O10	O	0.902723	-0.035432	0.666429
O11	O	0.902723	0.035371	0.595635
O12	O	1.130889	-0.106232	0.595627
O13	O	1.130889	-0.035429	0.524833
Zr14	Zr	1.016811	0.075619	0.706694
Zr15	Zr	1.016808	-0.075687	0.706681
Zr16	Zr	1.016808	0.075624	0.555387
Zr17	Zr	1.260613	-0.075684	0.555379
Zr18	Zr	0.773002	0.075621	0.706689
O19	O	1.210606	0.047400	0.678477
O20	O	1.210600	-0.167738	0.678458
O21	O	1.210600	0.047407	0.463338
O22	O	0.823020	0.167668	0.798748
O23	O	0.823015	-0.047470	0.798730
O24	O	0.823015	0.167675	0.583610
O25	O	1.016811	-0.047472	0.798734
O26	O	1.016813	0.167670	0.678483
O27	O	1.016811	0.167674	0.583613
O28	O	1.016813	0.047398	0.798742
O29	O	1.363468	-0.167737	0.583591
O30	O	0.670148	0.167674	0.678477
O31	O	0.670151	0.167669	0.798745
O32	O	0.670148	0.047401	0.798735
O33	O	1.363468	-0.047464	0.463333
O34	O	1.363471	-0.047468	0.583602
O35	O	0.902726	0.106169	0.666441
O36	O	0.902726	0.035366	0.737235
O37	O	1.130892	-0.035434	0.666433
O38	O	1.130892	0.035369	0.595639
C39	C	0.711840	-0.000029	0.631028
C40	C	0.608336	-0.000028	0.631026
C41	C	1.016803	-0.000025	0.441773
C42	C	1.016801	-0.000023	0.377539
C43	C	1.016812	0.189230	0.631050
C44	C	1.016814	0.253464	0.631056
C45	C	0.547744	0.038579	0.592429
C46	C	0.561998	-0.027995	0.564446
C47	C	0.409686	0.066526	0.658992
C48	C	0.624016	-0.066641	0.603005
C49	C	0.471642	0.027928	0.697588
C50	C	0.485943	-0.038686	0.669622
C51	C	1.321776	-0.000034	0.631040
C52	C	1.425279	-0.000035	0.631042
C53	C	1.016803	-0.189293	0.631018
C54	C	1.016801	-0.253527	0.631013
C55	C	1.135911	0.246682	0.594101
C56	C	1.135912	0.307036	0.594090
C57	C	1.016811	0.374172	0.631049
C58	C	0.897698	0.380951	0.668005
C59	C	0.897700	0.320597	0.668009
C60	C	0.925563	0.498108	0.692949
C61	C	0.925566	0.558459	0.692947
C62	C	1.016801	0.560326	0.631037
C63	C	1.108054	0.501826	0.569128
C64	C	1.108055	0.441472	0.569132
C65	C	1.016796	0.439620	0.631049
C66	C	1.135907	0.618985	0.594067
C67	C	1.135904	0.679341	0.594055
C68	C	0.897687	0.753256	0.667977
C69	C	0.897693	0.692900	0.667982
C70	C	1.016807	0.625766	0.631029
C71	C	0.897705	0.036927	0.384322
C72	C	0.897703	0.036930	0.323967
C73	C	1.016805	-0.000031	0.256831
C74	C	1.135917	-0.036982	0.250050
C75	C	1.135915	-0.036978	0.310404
C76	C	1.108052	-0.061941	0.132898
C77	C	1.108049	-0.061947	0.072547
C78	C	1.016815	-0.000042	0.070677
C79	C	0.925562	0.061870	0.129173
C80	C	0.925560	0.061874	0.189527
C81	C	1.016820	-0.000039	0.191383
C82	C	0.897708	0.036915	0.012019
C83	C	0.897711	0.036920	-0.048338
C84	C	1.135929	-0.037000	-0.122255
C85	C	1.135922	-0.036998	-0.061898
C86	C	1.016808	-0.000042	0.005236
C87	C	1.016812	-0.000038	0.820296
C88	C	1.016814	-0.000040	0.884529
C89	C	0.711844	-0.000035	0.820290
C90	C	0.608342	-0.000036	0.884522
C91	C	0.711844	0.189233	0.631044
C92	C	0.608342	0.253467	0.631048
C93	C	0.711849	0.189226	0.820306
C94	C	0.608349	0.253459	0.884543
C95	C	1.321766	-0.189289	0.441762
C96	C	1.425267	-0.253522	0.377525
C97	C	1.321771	-0.000028	0.441778
C98	C	1.425273	-0.000027	0.377547
C99	C	1.321771	-0.189296	0.631024
C100	C	1.425273	-0.253530	0.631020
C101	C	0.559735	-0.036999	0.877725
C102	C	0.462498	-0.037015	0.938072
C103	C	0.413863	-0.000063	1.005214
C104	C	0.462480	0.036901	1.012009
C105	C	0.559722	0.036912	0.951663
C106	C	0.559739	0.320595	0.668010
C107	C	0.462501	0.380956	0.668010
C108	C	0.413863	0.374188	0.631053
C109	C	0.462476	0.307053	0.594086
C110	C	0.559718	0.246694	0.594082
C111	C	0.559744	0.246664	0.951670
C112	C	0.462508	0.307012	1.012033
C113	C	0.413872	0.374153	1.005268
C114	C	0.462486	0.380945	0.938134
C115	C	0.559727	0.320599	0.877773
C116	C	1.473883	-0.246727	0.310398
C117	C	1.571149	-0.307075	0.250035
C118	C	1.619790	-0.374216	0.256800
C119	C	1.571170	-0.381008	0.323934
C120	C	1.473912	-0.320662	0.384296
C121	C	1.473890	0.036930	0.384343
C122	C	1.571155	0.036929	0.323996
C123	C	1.619793	-0.000025	0.256854
C124	C	1.571172	-0.036986	0.250059
C125	C	1.473916	-0.036989	0.310405
C126	C	1.473881	-0.246740	0.667985
C127	C	1.571119	-0.307089	0.667995
C128	C	1.619754	-0.374229	0.631037
C129	C	1.571137	-0.381018	0.594071
C130	C	1.473894	-0.320669	0.594065
H131	H	0.599181	-0.051647	0.508161
H132	H	1.610788	-0.067073	0.195384
C133	C	0.613177	0.328077	0.803935
H134	H	0.678063	0.282525	0.768949
H135	H	0.543346	0.353161	0.798655
H136	H	0.651121	0.353155	0.798647
H137	H	1.610720	-0.301530	0.195378
H138	H	0.800712	0.698425	0.698078
H139	H	1.434334	-0.067081	0.304861
C140	C	0.613235	0.172816	0.959121
H141	H	0.678104	0.137842	0.913562
H142	H	0.651180	0.167522	0.984195
H143	H	0.543412	0.167522	0.984200
H144	H	0.422932	0.435613	0.698115
C145	C	1.624655	-0.454873	0.553413
H146	H	1.689542	-0.489836	0.558708
H147	H	1.554859	-0.460182	0.571651
H148	H	1.662615	-0.460168	0.504786
H149	H	0.422925	-0.067115	0.932526
C150	C	1.266925	-0.077640	0.176204
H151	H	1.249870	-0.072357	0.141230
H152	H	1.315865	-0.059389	0.170907
H153	H	1.315859	-0.126264	0.170912
C154	C	1.420428	-0.328144	0.458131
H155	H	1.463322	-0.376775	0.453508
H156	H	1.436350	-0.306140	0.483229
H157	H	1.328612	-0.306145	0.483204
H158	H	0.574970	0.071179	0.559743
H159	H	1.434328	-0.326208	0.563961
C160	C	0.408982	0.454800	0.930698
H161	H	0.451857	0.450211	0.882075
H162	H	0.317166	0.479878	0.952715
H163	H	0.424936	0.479873	0.952711
C164	C	1.420395	-0.172895	0.708645
H165	H	1.463271	-0.177504	0.730665
H166	H	1.436336	-0.147810	0.676752
H167	H	1.328575	-0.147817	0.743620
H168	H	0.422860	0.301553	0.563997
C169	C	0.306894	0.440585	0.631064
H170	H	0.284886	0.426945	0.603757
H171	H	0.231026	0.467886	0.678152
H172	H	0.338791	0.467883	0.611276
C173	C	1.266926	-0.077471	-0.069354
H174	H	1.249867	-0.072116	-0.023795
H175	H	1.316128	-0.126120	-0.094446
H176	H	1.315599	-0.059079	-0.094414
C177	C	0.408956	0.077559	1.085866
H178	H	0.451826	0.099577	1.081278
H179	H	0.317141	0.112522	1.110934
H180	H	0.424894	0.045658	1.110948
H181	H	0.800712	0.807918	0.698064
C182	C	0.409037	0.299527	1.085871
H183	H	0.451918	0.250897	1.081249
H184	H	0.424983	0.321522	1.110960
H185	H	0.317217	0.321536	1.110951
H186	H	1.610786	-0.435682	0.329433
C187	C	1.624625	0.077586	0.331479
H188	H	1.689528	0.072290	0.285927
H189	H	1.554809	0.126207	0.356557
H190	H	1.662552	0.059329	0.356564
C191	C	0.306887	-0.000073	1.071589
H192	H	0.284900	-0.027374	1.057918
H193	H	0.338747	-0.019860	1.098897
H194	H	0.230998	0.047015	1.098891
H195	H	0.851264	0.112285	0.237151
C196	C	0.613164	0.172858	0.553427
H197	H	0.570254	0.177478	0.531425
H198	H	0.704978	0.147767	0.518451
H199	H	0.597203	0.147779	0.585329
H200	H	0.334692	0.423285	1.054424
H201	H	0.715580	-0.122955	0.579294
H202	H	0.599333	-0.067099	0.823060
C203	C	0.449532	-0.082854	0.713713
H204	H	0.525016	-0.130113	0.693746
H205	H	0.418089	-0.063402	0.760789
H206	H	0.383040	-0.082307	0.713792
H207	H	1.232901	-0.067066	0.304876
H208	H	1.182348	-0.112360	0.024923
C209	C	0.613165	0.077583	0.959148
H210	H	0.570255	0.099592	1.007779
H211	H	0.704980	0.045696	0.937143
H212	H	0.597199	0.112566	0.937151
C213	C	1.420409	-0.172880	0.302943
H214	H	1.463318	-0.177487	0.254316
H215	H	1.328596	-0.147793	0.324944
H216	H	1.436360	-0.147807	0.324957
C217	C	1.726768	-0.000015	0.190480
H218	H	1.748742	0.027295	0.204150
H219	H	1.802652	-0.047098	0.163170
H220	H	1.694890	0.019782	0.163177
H221	H	1.434296	0.067027	0.439008
H222	H	1.698936	-0.423363	0.631047
C223	C	1.624595	-0.299609	0.708650
H224	H	1.581715	-0.250979	0.730647
H225	H	1.608652	-0.321606	0.743630
H226	H	1.716415	-0.321617	0.676745
H227	H	0.434477	0.051596	0.753860
H228	H	0.599329	0.326119	0.698105
C229	C	1.726753	-0.440590	0.190398
H230	H	1.748722	-0.426922	0.149453
H231	H	1.802644	-0.467903	0.190380
H232	H	1.694862	-0.467888	0.190389
H233	H	0.800724	0.067014	-0.042809
C234	C	0.285932	0.142563	0.690942
H235	H	0.213755	0.146466	0.731564
H236	H	0.300686	0.174419	0.703905
H237	H	0.266997	0.153707	0.657062
C238	C	1.266930	0.172840	0.553446
H239	H	1.337861	0.177449	0.531430
H240	H	1.271887	0.147760	0.585344
H241	H	1.271881	0.147758	0.518469
H242	H	1.232898	0.301514	0.563994
H243	H	1.182354	0.393844	0.518724
H244	H	1.232904	-0.067094	-0.176918
H245	H	1.232897	0.564321	0.563974
C246	C	1.208417	0.503867	0.501021
H247	H	1.262765	0.460383	0.464155
H248	H	1.163235	0.541425	0.488027
H249	H	1.261189	0.511040	0.508864
C250	C	1.266914	0.671884	0.553403
H251	H	1.249857	0.717443	0.558686
H252	H	1.315847	0.646816	0.571659
H253	H	1.315857	0.646800	0.504778
H254	H	0.851269	0.606085	0.743358
H255	H	0.800725	0.435617	0.698095
C256	C	0.825186	0.496066	0.761051
H257	H	0.770850	0.539545	0.797921
H258	H	0.772422	0.488894	0.753204
H259	H	0.870364	0.458505	0.774049
H260	H	0.800714	0.326124	0.698102
C261	C	0.766692	0.077573	0.331423
H262	H	0.695753	0.099579	0.380049
H263	H	0.761734	0.112545	0.309415
H264	H	0.761755	0.045661	0.309413
C265	C	0.766688	0.077585	0.458166
H266	H	0.783740	0.072293	0.493142
H267	H	0.717752	0.126205	0.463458
H268	H	0.717752	0.059328	0.463461
H269	H	0.800718	0.067021	0.066683
C270	C	0.825194	0.129971	0.127130
H271	H	0.770845	0.166839	0.170612
H272	H	0.870373	0.142964	0.089568
H273	H	0.772424	0.122123	0.119960
C274	C	1.208408	-0.130044	0.134950
H275	H	1.262737	-0.166918	0.091475
H276	H	1.261181	-0.122206	0.142121
H277	H	1.163205	-0.143029	0.172516
