data_functionalizedCrystal
_audit_creation_method	'MofGen! by Chris Wilmer'
_symmetry_space_group_name_H-M	'P1'
_symmetry_Int_Tables_number	1
_symmetry_cell_setting	triclinic
loop_
_symmetry_equiv_pos_as_xyz
  x,y,z
_cell_length_a	13.032831
_cell_length_b	12.827892
_cell_length_c	12.827885
_cell_angle_alpha	90.029786
_cell_angle_beta	82.806703
_cell_angle_gamma	97.179570
loop_
_atom_site_label
_atom_site_type_symbol
_atom_site_fract_x
_atom_site_fract_y
_atom_site_fract_z
Zn1	Zn	1.597738	0.619181	-0.793461
Zn2	Zn	1.597632	0.793945	-0.618708
Zn3	Zn	1.422972	0.597005	-0.596572
Zn4	Zn	1.422957	0.771652	-0.771257
O5	O	1.510325	0.695446	-0.694999
O6	O	1.743966	0.660974	-0.788836
O7	O	1.574424	0.767869	-0.469530
O8	O	1.446205	0.453717	-0.622718
O9	O	1.743888	0.789372	-0.660445
O10	O	1.574605	0.470010	-0.767372
O11	O	1.446102	0.623179	-0.453267
O12	O	1.276728	0.601562	-0.601188
O13	O	1.446181	0.751378	-0.920443
O14	O	1.276717	0.729875	-0.729528
O15	O	1.574592	0.639358	-0.936757
O16	O	1.574410	0.937217	-0.638915
O17	O	1.446078	0.920839	-0.750992
C18	C	1.238803	0.660894	-0.660547
C19	C	1.122645	0.646138	-0.645833
C20	C	1.510397	0.695355	-0.967579
C21	C	1.510427	0.695316	-1.083736
C22	C	1.510259	0.966947	-0.694973
C23	C	1.510327	1.083109	-0.695008
C24	C	1.070881	0.703147	-0.702679
C25	C	0.950826	0.687897	-0.687472
C26	C	1.782906	0.730133	-0.729587
C27	C	1.899064	0.744915	-0.744326
C28	C	1.510419	0.422888	-0.695053
C29	C	1.510459	0.306740	-0.695075
C30	C	1.573905	1.142973	-0.639629
C31	C	1.573977	1.263033	-0.639665
C32	C	1.446950	0.623708	-1.127476
C33	C	1.446980	0.623667	-1.247530
C34	C	1.510313	0.695469	-0.423488
C35	C	1.510485	0.695239	-0.307357
H36	H	0.906267	0.627791	-0.627548
H37	H	0.943622	0.805011	-0.804261
O38	O	1.374927	0.542538	-1.059359
H39	H	1.392863	0.462779	-1.082542
H40	H	1.455952	1.120741	-0.742451
H41	H	1.078082	0.586036	-0.585913
H42	H	1.628405	1.314483	-0.592249
O43	O	1.375000	0.542441	-1.297384
H44	H	1.386322	0.555152	-1.383855
O45	O	1.582487	0.776455	-1.257517
H46	H	1.535641	0.823643	-1.201841
O47	O	1.129894	0.782733	-0.782086
H48	H	1.214930	0.782213	-0.781577
O49	O	1.645965	1.093145	-0.576810
H50	H	1.634607	1.006666	-0.586648
O51	O	1.438342	1.238611	-0.757884
H52	H	1.485096	1.194754	-0.816975
O53	O	1.582448	0.776495	-1.151844
H54	H	1.635611	0.736429	-1.208320
