data_functionalizedCrystal
_audit_creation_method	'MofGen! by Chris Wilmer'
_symmetry_space_group_name_H-M	'P1'
_symmetry_Int_Tables_number	1
_symmetry_cell_setting	triclinic
loop_
_symmetry_equiv_pos_as_xyz
  x,y,z
_cell_length_a	14.519709
_cell_length_b	14.519731
_cell_length_c	13.330367
_cell_angle_alpha	90.007646
_cell_angle_beta	89.994415
_cell_angle_gamma	96.315501
loop_
_atom_site_label
_atom_site_type_symbol
_atom_site_fract_x
_atom_site_fract_y
_atom_site_fract_z
O1	O	0.120984	-1.223860	-0.083428
O2	O	0.620984	-0.723860	0.416572
O3	O	0.135200	-0.955385	-0.083430
O4	O	0.635200	-0.455385	0.416570
O5	O	-0.006146	-1.096741	-0.083420
O6	O	0.493854	-0.596741	0.416580
O7	O	0.262330	-1.082504	-0.083438
O8	O	0.762330	-0.582504	0.416562
O9	O	-0.006149	-1.096720	0.083427
O10	O	0.493851	-0.596720	0.583427
O11	O	0.135197	-0.955365	0.083417
O12	O	0.635197	-0.455365	0.583417
O13	O	0.120981	-1.223839	0.083419
O14	O	0.620981	-0.723839	0.583419
Cu15	Cu	0.128089	-1.089600	0.098653
Cu16	Cu	0.628089	-0.589600	0.598653
Cu17	Cu	0.128092	-1.089624	-0.098663
Cu18	Cu	0.628092	-0.589624	0.401337
O19	O	0.262327	-1.082484	0.083409
O20	O	0.762327	-0.582484	0.583409
C21	C	-0.040507	-1.096067	0.000004
C22	C	0.459493	-0.596067	0.500004
C23	C	-0.142889	-1.094079	0.000005
C24	C	0.357111	-0.594079	0.500005
C25	C	0.134532	-0.921016	-0.000006
C26	C	0.634532	-0.421016	0.499994
C27	C	0.132536	-0.818635	-0.000007
C28	C	0.632536	-0.318635	0.499993
C29	C	0.121649	-1.258209	-0.000006
C30	C	0.621649	-0.758209	0.499994
C31	C	0.123645	-1.360589	-0.000013
C32	C	0.623645	-0.860589	0.499987
C33	C	-0.517785	-1.086759	-0.000022
C34	C	-0.017785	-0.586759	0.499978
C35	C	-0.413477	-1.088792	-0.000014
C36	C	0.086523	-0.588792	0.499986
C37	C	-0.330340	-1.090419	-0.000008
C38	C	0.169660	-0.590419	0.499992
C39	C	-0.226025	-1.092452	-0.000002
C40	C	0.273975	-0.592452	0.499998
C41	C	0.296688	-1.083157	-0.000017
C42	C	0.796688	-0.583157	0.499983
C43	C	0.399070	-1.085146	-0.000024
C44	C	0.899070	-0.585146	0.499976
C45	C	0.130915	-0.735491	-0.000011
C46	C	0.630915	-0.235491	0.499989
C47	C	0.128888	-0.631182	-0.000011
C48	C	0.628888	-0.131182	0.499989
C49	C	0.127280	-0.548043	-0.000011
C50	C	0.627280	-0.048043	0.499989
C51	C	0.125253	-0.443728	-0.000013
C52	C	0.625253	0.056272	0.499987
N53	N	0.128085	-1.089590	0.237434
N54	N	0.628085	-0.589590	0.737434
N55	N	0.128088	-1.089642	-0.237445
N56	N	0.628088	-0.589642	0.262555
C57	C	0.190656	-1.027029	0.710053
C58	C	0.690656	-0.527029	1.210053
C59	C	0.065522	-1.152244	0.710030
C60	C	0.565522	-0.652244	1.210030
C61	C	0.065519	-1.152234	0.605011
C62	C	0.565519	-0.652234	1.105011
C63	C	0.128086	-1.089621	0.552509
C64	C	0.628086	-0.589621	1.052509
C65	C	0.190657	-1.027019	0.605025
C66	C	0.690657	-0.527019	1.105025
C67	C	0.002956	-1.214841	0.552488
C68	C	0.502956	-0.714841	1.052488
C69	C	0.002952	-1.214834	0.447463
C70	C	0.502952	-0.714834	0.947463
C71	C	0.065515	-1.152216	0.394958
C72	C	0.565515	-0.652216	0.894958
C73	C	0.128087	-1.089611	0.447481
C74	C	0.628087	-0.589611	0.947481
C75	C	0.190655	-1.026998	0.394978
C76	C	0.690655	-0.526998	0.894978
C77	C	0.253223	-0.964387	0.447499
C78	C	0.753223	-0.464387	0.947499
C79	C	0.253220	-0.964401	0.552520
C80	C	0.753220	-0.464401	1.052520
C81	C	0.065518	-1.152202	0.289937
C82	C	0.565518	-0.652202	0.789937
C83	C	0.190656	-1.026988	0.289950
C84	C	0.690656	-0.526988	0.789950
H85	H	0.241603	-0.975997	0.247209
H86	H	0.741603	-0.475997	0.747209
H87	H	-0.047980	-1.265823	0.595238
H88	H	0.452020	-0.765823	1.095238
H89	H	0.304170	-0.913412	0.404739
H90	H	0.804170	-0.413412	0.904739
H91	H	0.304162	-0.913427	0.595289
H92	H	0.804162	-0.413427	1.095289
H93	H	-0.047995	-1.265813	0.404707
H94	H	0.452005	-0.765813	0.904707
H95	H	0.241596	-0.976050	0.752818
H96	H	0.741596	-0.476050	1.252818
H97	H	0.014586	-1.203226	0.752780
H98	H	0.514586	-0.703226	1.252780
H99	H	0.014580	-1.203183	0.247179
H100	H	0.514580	-0.703183	0.747179
