data_functionalizedCrystal
_audit_creation_method	'MofGen! by Chris Wilmer'
_symmetry_space_group_name_H-M	'P1'
_symmetry_Int_Tables_number	1
_symmetry_cell_setting	triclinic
loop_
_symmetry_equiv_pos_as_xyz
  x,y,z
_cell_length_a	18.215405
_cell_length_b	12.759395
_cell_length_c	18.215399
_cell_angle_alpha	89.980379
_cell_angle_beta	90.027541
_cell_angle_gamma	89.977914
loop_
_atom_site_label
_atom_site_type_symbol
_atom_site_fract_x
_atom_site_fract_y
_atom_site_fract_z
Zn1	Zn	-0.293004	-1.606177	0.416114
Zn2	Zn	0.206996	-1.106177	0.916114
Zn3	Zn	-0.416076	-1.606053	0.293048
Zn4	Zn	0.083924	-1.106053	0.793048
Zn5	Zn	-0.293026	-1.430485	0.293062
Zn6	Zn	0.206974	-0.930485	0.793062
Zn7	Zn	-0.416032	-1.430443	0.416074
Zn8	Zn	0.083968	-0.930443	0.916074
O9	O	-0.354535	-1.518289	0.354574
O10	O	0.145465	-1.018289	0.854574
O11	O	-0.309339	-1.753181	0.399800
O12	O	0.190661	-1.253181	0.899800
O13	O	-0.399780	-1.582729	0.190066
O14	O	0.100220	-1.082729	0.690066
O15	O	-0.190039	-1.453860	0.309407
O16	O	0.309961	-0.953860	0.809407
O17	O	-0.399759	-1.753090	0.309385
O18	O	0.100241	-1.253090	0.809385
O19	O	-0.190023	-1.582940	0.399813
O20	O	0.309977	-1.082940	0.899813
O21	O	-0.309376	-1.453740	0.190076
O22	O	0.190624	-0.953740	0.690076
O23	O	-0.309334	-1.283458	0.309368
O24	O	0.190666	-0.783458	0.809368
O25	O	-0.399685	-1.453789	0.519063
O26	O	0.100315	-0.953789	1.019063
O27	O	-0.399706	-1.283427	0.399745
O28	O	0.100294	-0.783427	0.899745
O29	O	-0.309297	-1.582900	0.519093
O30	O	0.190703	-1.082900	1.019093
O31	O	-0.519054	-1.582688	0.309346
O32	O	-0.019054	-1.082688	0.809346
O33	O	-0.519022	-1.453668	0.399732
O34	O	-0.019022	-0.953668	0.899732
C35	C	-0.354518	-1.245322	0.354554
C36	C	0.145482	-0.745322	0.854554
C37	C	-0.354529	-1.128545	0.354563
C38	C	0.145471	-0.628545	0.854563
C39	C	-0.545741	-1.518189	0.354549
C40	C	-0.045741	-1.018189	0.854549
C41	C	-0.627540	-1.518242	0.354563
C42	C	-0.127540	-1.018242	0.854563
C43	C	-0.448799	-0.909128	0.448544
C44	C	0.051201	-0.409128	0.948544
C45	C	-0.495922	-0.964003	0.495520
C46	C	0.004078	-0.464003	0.995520
C47	C	-0.495914	-1.073724	0.495512
C48	C	0.004086	-0.573724	0.995512
C49	C	-0.448781	-1.128574	0.448522
C50	C	0.051219	-0.628574	0.948522
C51	C	-0.401659	-1.073698	0.401546
C52	C	0.098341	-0.573698	0.901546
C53	C	-0.401670	-0.963974	0.401560
C54	C	0.098330	-0.463974	0.901560
C55	C	-0.307407	-1.073670	0.307587
C56	C	0.192593	-0.573670	0.807587
C57	C	-0.307409	-0.963948	0.307597
C58	C	0.192591	-0.463948	0.807597
C59	C	-0.260274	-1.128519	0.260597
C60	C	0.239726	-0.628519	0.760597
C61	C	-0.213147	-1.073644	0.213623
C62	C	0.286853	-0.573644	0.713623
C63	C	-0.213155	-0.963916	0.213634
C64	C	0.286845	-0.463916	0.713634
C65	C	-0.260287	-0.909073	0.260621
C66	C	0.239713	-0.409073	0.760621
C67	C	-0.815664	-1.585486	0.401701
C68	C	-0.315664	-1.085486	0.901701
C69	C	-0.892523	-1.585524	0.401715
C70	C	-0.392523	-1.085524	0.901715
C71	C	-0.892653	-1.451223	0.307494
C72	C	-0.392653	-0.951223	0.807494
C73	C	-0.815796	-1.451180	0.307484
C74	C	-0.315796	-0.951180	0.807484
C75	C	-0.777303	-1.518318	0.354587
C76	C	-0.277303	-1.018318	0.854587
C77	C	-0.931019	-1.518398	0.354610
C78	C	-0.431019	-1.018398	0.854610
C79	C	-1.014353	-1.518439	0.354625
C80	C	-0.514353	-1.018439	0.854625
C81	C	-0.693964	-1.518276	0.354573
C82	C	-0.193964	-1.018276	0.854573
C83	C	-0.162582	-1.518419	0.354616
C84	C	0.337418	-1.018419	0.854616
C85	C	-0.080783	-1.518474	0.354634
C86	C	0.419217	-1.018474	0.854634
C87	C	-0.354484	-1.518353	0.546527
C88	C	0.145516	-1.018353	1.046527
C89	C	-0.354462	-1.518380	0.628326
C90	C	0.145538	-1.018380	1.128326
C91	C	-0.354547	-0.792323	0.354591
C92	C	0.145453	-0.292323	0.854591
C93	C	-0.354542	-0.909099	0.354587
C94	C	0.145458	-0.409099	0.854587
C95	C	-0.354532	-1.518286	0.163368
C96	C	0.145468	-1.018286	0.663368
C97	C	-0.354346	-1.518462	0.081570
C98	C	0.145654	-1.018462	0.581570
C99	C	-0.307353	-1.585633	0.816537
C100	C	0.192647	-1.085633	1.316537
C101	C	-0.307332	-1.585645	0.893396
C102	C	0.192668	-1.085645	1.393396
C103	C	-0.401458	-1.451202	0.893354
C104	C	0.098542	-0.951202	1.393354
C105	C	-0.401475	-1.451185	0.816496
C106	C	0.098525	-0.951185	1.316496
C107	C	-0.354424	-1.518407	0.778090
C108	C	0.145576	-1.018407	1.278090
C109	C	-0.354385	-1.518436	0.931806
C110	C	0.145615	-1.018436	1.431806
C111	C	-0.354362	-1.518449	1.015140
C112	C	0.145638	-1.018449	1.515140
C113	C	-0.354445	-1.518392	0.694751
C114	C	0.145555	-1.018392	1.194751
H115	H	-0.448803	-0.819787	0.448562
H116	H	0.051197	-0.319787	0.948562
H117	H	-0.439767	-1.396476	0.924634
H118	H	0.060233	-0.896476	1.424634
H119	H	-0.269039	-1.640366	0.785269
H120	H	0.230961	-1.140366	1.285269
O121	O	-0.162316	-1.132793	0.162941
O122	O	0.337684	-0.632793	0.662941
H123	H	-0.124912	-1.182820	0.195939
H124	H	0.375088	-0.682820	0.695939
H125	H	-0.269001	-1.640386	0.924696
H126	H	0.230999	-1.140386	1.424696
O127	O	-0.546754	-0.904848	0.546205
O128	O	-0.046754	-0.404848	1.046205
H129	H	-0.538839	-0.819333	0.538327
H130	H	-0.038839	-0.319333	1.038327
O131	O	-0.452224	-1.378644	0.775020
O132	O	0.047776	-0.878644	1.275020
H133	H	-0.484939	-1.331903	0.814637
H134	H	0.015061	-0.831903	1.314637
H135	H	-0.923753	-1.640216	0.440082
H136	H	-0.423753	-1.140216	0.940082
O137	O	-0.260298	-0.790731	0.260637
O138	O	0.239702	-0.290731	0.760637
H139	H	-0.219611	-0.761783	0.220082
H140	H	0.280389	-0.261783	0.720082
H141	H	-0.534287	-1.118404	0.533762
H142	H	-0.034287	-0.618404	1.033762
H143	H	-0.784560	-1.396479	0.269118
H144	H	-0.284560	-0.896479	0.769118
H145	H	-0.784326	-1.640151	0.440056
H146	H	-0.284326	-1.140151	0.940056
O147	O	-0.448785	-1.246916	0.448501
O148	O	0.051215	-0.746916	0.948501
H149	H	-0.433984	-1.275906	0.504029
H150	H	0.066016	-0.775906	1.004029
O151	O	-0.260272	-1.246862	0.260579
O152	O	0.239728	-0.746862	0.760579
H153	H	-0.245464	-1.275844	0.316107
H154	H	0.254536	-0.775844	0.816107
H155	H	-0.174783	-0.919243	0.175379
H156	H	0.325217	-0.419243	0.675379
O157	O	-0.934168	-1.378834	0.256676
O158	O	-0.434168	-0.878834	0.756676
H159	H	-0.994057	-1.390159	0.264587
H160	H	-0.494057	-0.890159	0.764587
