data_functionalizedCrystal
_audit_creation_method	'MofGen! by Chris Wilmer'
_symmetry_space_group_name_H-M	'P1'
_symmetry_Int_Tables_number	1
_symmetry_cell_setting	triclinic
loop_
_symmetry_equiv_pos_as_xyz
  x,y,z
_cell_length_a	23.532407
_cell_length_b	23.532407
_cell_length_c	17.666332
_cell_angle_alpha	89.990114
_cell_angle_beta	89.993426
_cell_angle_gamma	82.848712
loop_
_atom_site_label
_atom_site_type_symbol
_atom_site_fract_x
_atom_site_fract_y
_atom_site_fract_z
O1	O	0.755263	0.069135	-0.062908
O2	O	1.088597	0.402468	0.270425
O3	O	1.421930	0.735802	0.603758
O4	O	0.589400	0.079138	-0.062921
O5	O	0.922733	0.412472	0.270412
O6	O	1.256067	0.745805	0.603745
O7	O	0.677333	-0.008795	-0.062900
O8	O	1.010667	0.324538	0.270433
O9	O	1.344000	0.657872	0.603766
O10	O	0.667330	0.157068	-0.062929
O11	O	1.000663	0.490402	0.270404
O12	O	1.333997	0.823735	0.603738
O13	O	0.677318	-0.008797	0.062996
O14	O	1.010651	0.324536	0.396330
O15	O	1.343985	0.657869	0.729663
O16	O	0.589385	0.079136	0.062976
O17	O	0.922718	0.412469	0.396309
O18	O	1.256051	0.745802	0.729642
O19	O	0.755248	0.069133	0.062989
O20	O	1.088581	0.402466	0.396322
O21	O	1.421915	0.735799	0.729655
Cu22	Cu	0.672315	0.074134	0.074477
Cu23	Cu	1.005648	0.407467	0.407811
Cu24	Cu	1.338982	0.740801	0.741144
Cu25	Cu	0.672333	0.074137	-0.074410
Cu26	Cu	1.005666	0.407470	0.258923
Cu27	Cu	1.339000	0.740804	0.592257
O28	O	0.667315	0.157066	0.062968
O29	O	1.000648	0.490399	0.396301
O30	O	1.333981	0.823733	0.729634
C31	C	0.568176	0.078882	0.000026
C32	C	0.901510	0.412216	0.333359
C33	C	1.234843	0.745549	0.666692
C34	C	0.504959	0.078116	0.000021
C35	C	0.838293	0.411450	0.333355
C36	C	1.171626	0.744783	0.666688
C37	C	0.238792	0.022921	0.000051
C38	C	0.572125	0.356254	0.333385
C39	C	0.905458	0.689588	0.666718
C40	C	0.298192	0.023632	0.000051
C41	C	0.631525	0.356966	0.333384
C42	C	0.964859	0.690299	0.666718
O43	O	0.334937	-0.020153	0.000085
O44	O	0.668270	0.313180	0.333418
O45	O	1.001603	0.646513	0.666751
N46	N	0.320818	0.075909	0.000037
N47	N	0.654152	0.409242	0.333370
N48	N	0.987485	0.742575	0.666704
C49	C	0.284041	0.127477	0.000031
C50	C	0.617374	0.460810	0.333364
C51	C	0.950707	0.794144	0.666697
O52	O	0.308740	0.172007	0.000019
O53	O	0.642074	0.505341	0.333353
O54	O	0.975407	0.838674	0.666686
C55	C	0.224642	0.126765	0.000037
C56	C	0.557975	0.460098	0.333370
C57	C	0.891308	0.793432	0.666703
C58	C	0.202019	0.074485	0.000043
C59	C	0.535352	0.407819	0.333376
C60	C	0.868686	0.741152	0.666710
C61	C	0.216168	-0.029354	0.000059
C62	C	0.549502	0.303979	0.333392
C63	C	0.882835	0.637312	0.666725
C64	C	0.156772	-0.030066	0.000058
C65	C	0.490106	0.303268	0.333391
C66	C	0.823439	0.636601	0.666724
C67	C	0.119999	0.021499	0.000049
C68	C	0.453333	0.354832	0.333383
C69	C	0.786666	0.688165	0.666716
C70	C	0.142623	0.073774	0.000042
C71	C	0.475956	0.407107	0.333375
C72	C	0.809289	0.740441	0.666709
C73	C	0.187865	0.178333	0.000036
C74	C	0.521199	0.511666	0.333369
C75	C	0.854532	0.844999	0.666703
C76	C	0.128463	0.177616	0.000042
C77	C	0.461796	0.510949	0.333376
C78	C	0.795129	0.844283	0.666709
C79	C	0.105840	0.125336	0.000049
C80	C	0.439173	0.458670	0.333382
C81	C	0.772507	0.792003	0.666715
C82	C	0.046454	0.124627	0.000032
C83	C	0.379787	0.457960	0.333366
C84	C	0.713120	0.791294	0.666699
N85	N	0.023828	0.072351	0.000047
N86	N	0.357161	0.405684	0.333380
N87	N	0.690494	0.739017	0.666713
C88	C	0.060600	0.020787	0.000055
C89	C	0.393934	0.354120	0.333388
C90	C	0.727267	0.687453	0.666722
C91	C	0.408783	0.128968	0.000020
C92	C	0.742117	0.462302	0.333353
C93	C	1.075450	0.795635	0.666687
C94	C	0.468181	0.129681	0.000009
C95	C	0.801514	0.463014	0.333342
C96	C	1.134848	0.796348	0.666676
C97	C	0.482328	0.025836	0.000031
C98	C	0.815662	0.359170	0.333364
C99	C	1.148995	0.692503	0.666697
C100	C	0.422929	0.025124	0.000036
C101	C	0.756263	0.358457	0.333370
C102	C	1.089596	0.691791	0.666703
C103	C	0.386157	0.076692	0.000034
C104	C	0.719490	0.410025	0.333368
C105	C	1.052824	0.743359	0.666701
C106	C	-0.064136	0.019297	0.000052
C107	C	0.269197	0.352630	0.333385
C108	C	0.602530	0.685964	0.666719
C109	C	-0.123538	0.018590	0.000048
C110	C	0.209795	0.351924	0.333381
C111	C	0.543128	0.685257	0.666714
C112	C	-0.137680	0.122435	0.000030
C113	C	0.195653	0.455768	0.333363
C114	C	0.528986	0.789101	0.666697
C115	C	-0.078284	0.123142	0.000030
C116	C	0.255050	0.456475	0.333364
C117	C	0.588383	0.789808	0.666697
C118	C	-0.041512	0.071568	0.000044
C119	C	0.291821	0.404901	0.333377
C120	C	0.625154	0.738235	0.666711
O121	O	0.009675	0.168390	0.000002
O122	O	0.343008	0.501723	0.333335
O123	O	0.676341	0.835057	0.666668
O124	O	0.035892	-0.023737	0.000076
O125	O	0.369226	0.309597	0.333410
O126	O	0.702559	0.642930	0.666743
C127	C	0.677071	-0.030012	0.000050
C128	C	1.010404	0.303321	0.333383
C129	C	1.343738	0.636654	0.666717
C130	C	0.676305	-0.093229	0.000056
C131	C	1.009638	0.240104	0.333389
C132	C	1.342972	0.573437	0.666722
C133	C	0.723538	-0.492332	0.000018
C134	C	1.056872	-0.158999	0.333351
C135	C	1.390205	0.174334	0.666684
C136	C	0.722827	-0.551733	0.000012
C137	C	1.056160	-0.218399	0.333345
C138	C	1.389494	0.114934	0.666679
O139	O	0.766613	-0.588477	-0.000012
O140	O	1.099946	-0.255144	0.333321
O141	O	1.433280	0.078190	0.666654
N142	N	0.670551	-0.574359	0.000008
N143	N	1.003884	-0.241025	0.333342
N144	N	1.337217	0.092308	0.666675
C145	C	0.618982	-0.537581	0.000003
C146	C	0.952316	-0.204248	0.333336
C147	C	1.285649	0.129085	0.666670
O148	O	0.574452	-0.562281	-0.000001
O149	O	0.907785	-0.228948	0.333332
O150	O	1.241119	0.104386	0.666665
C151	C	0.619695	-0.478182	0.000003
C152	C	0.953028	-0.144849	0.333337
C153	C	1.286361	0.188485	0.666670
C154	C	0.671974	-0.455559	0.000015
C155	C	1.005308	-0.122226	0.333348
C156	C	1.338641	0.211107	0.666681
C157	C	0.775814	-0.469709	0.000028
C158	C	1.109147	-0.136376	0.333362
C159	C	1.442481	0.196958	0.666695
C160	C	0.776525	-0.410313	0.000035
C161	C	1.109858	-0.076980	0.333369
C162	C	1.443192	0.256354	0.666702
C163	C	0.724961	-0.373540	0.000032
C164	C	1.058294	-0.040207	0.333366
C165	C	1.391628	0.293127	0.666699
C166	C	0.672685	-0.396163	0.000022
C167	C	1.006019	-0.062830	0.333355
C168	C	1.339352	0.270503	0.666689
C169	C	0.568127	-0.441406	-0.000007
C170	C	0.901460	-0.108072	0.333326
C171	C	1.234794	0.225261	0.666659
C172	C	0.568843	-0.382003	-0.000008
C173	C	0.902177	-0.048670	0.333326
C174	C	1.235510	0.284663	0.666659
C175	C	0.621123	-0.359381	0.000004
C176	C	0.954457	-0.026047	0.333337
C177	C	1.287790	0.307286	0.666670
C178	C	0.621832	-0.299994	0.000026
C179	C	0.955166	0.033339	0.333359
C180	C	1.288499	0.366672	0.666693
N181	N	0.674109	-0.277368	0.000029
N182	N	1.007442	0.055965	0.333363
N183	N	1.340775	0.389299	0.666696
C184	C	0.725673	-0.314141	0.000033
C185	C	1.059006	0.019192	0.333366
C186	C	1.392340	0.352526	0.666699
C187	C	0.617491	-0.662324	0.000001
C188	C	0.950824	-0.328990	0.333334
C189	C	1.284158	0.004343	0.666668
C190	C	0.616778	-0.721722	0.000006
C191	C	0.950112	-0.388388	0.333339
C192	C	1.283445	-0.055055	0.666673
C193	C	0.720623	-0.735869	0.000014
C194	C	1.053957	-0.402536	0.333347
C195	C	1.387290	-0.069202	0.666680
C196	C	0.721335	-0.676470	0.000014
C197	C	1.054669	-0.343137	0.333347
C198	C	1.388002	-0.009803	0.666681
C199	C	0.669767	-0.639698	0.000004
C200	C	1.003101	-0.306364	0.333338
C201	C	1.336434	0.026969	0.666671
C202	C	0.727163	-0.189404	0.000048
C203	C	1.060496	0.143929	0.333382
C204	C	1.393829	0.477262	0.666715
C205	C	0.727869	-0.130002	0.000059
C206	C	1.061203	0.203331	0.333392
C207	C	1.394536	0.536664	0.666725
C208	C	0.624025	-0.115860	0.000047
C209	C	0.957358	0.217473	0.333381
C210	C	1.290691	0.550807	0.666714
C211	C	0.623318	-0.175257	0.000041
C212	C	0.956651	0.158076	0.333374
C213	C	1.289984	0.491410	0.666707
C214	C	0.674891	-0.212028	0.000039
C215	C	1.008225	0.121305	0.333372
C216	C	1.341558	0.454639	0.666706
O217	O	0.578069	-0.263215	0.000047
O218	O	0.911403	0.070118	0.333381
O219	O	1.244736	0.403452	0.666714
O220	O	0.770196	-0.289433	0.000027
O221	O	1.103529	0.043900	0.333360
O222	O	1.436863	0.377234	0.666694
C223	C	0.776472	0.069389	0.000040
C224	C	1.109805	0.402722	0.333373
C225	C	1.443138	0.736055	0.666707
C226	C	0.839689	0.070155	0.000039
C227	C	1.173022	0.403488	0.333373
C228	C	1.506355	0.736821	0.666706
C229	C	0.667577	0.178283	0.000016
C230	C	1.000910	0.511617	0.333349
C231	C	1.334244	0.844950	0.666682
C232	C	0.668343	0.241500	0.000005
C233	C	1.001676	0.574834	0.333338
C234	C	1.335010	0.908167	0.666672
N235	N	0.672306	0.074132	0.179197
N236	N	1.005640	0.407465	0.512530
N237	N	1.338973	0.740798	0.845864
N238	N	0.672346	0.074135	-0.179130
N239	N	1.005680	0.407468	0.154204
N240	N	1.339013	0.740802	0.487537
C241	C	0.706646	0.108501	0.218797
C242	C	1.039979	0.441834	0.552130
C243	C	1.373313	0.775168	0.885464
C244	C	0.706655	0.108499	0.298044
C245	C	1.039988	0.441833	0.631378
C246	C	1.373322	0.775166	0.964711
C247	C	0.672314	0.074135	0.337689
C248	C	1.005647	0.407468	0.671022
C249	C	1.338981	0.740802	1.004356
C250	C	0.637972	0.039758	0.298079
C251	C	0.971305	0.373092	0.631413
C252	C	1.304639	0.706425	0.964746
C253	C	0.637968	0.039757	0.218833
C254	C	0.971302	0.373090	0.552167
C255	C	1.304635	0.706423	0.885500
N256	N	0.622440	0.072862	0.462125
N257	N	0.955773	0.406195	0.795459
N258	N	1.289106	0.739528	1.128792
N259	N	0.622445	0.072866	0.537406
N260	N	0.955778	0.406200	0.870739
N261	N	1.289111	0.739533	1.204072
C262	C	0.672324	0.074137	0.576453
C263	C	1.005658	0.407470	0.909786
C264	C	1.338991	0.740803	1.243120
N265	N	0.722199	0.075413	0.537376
N266	N	1.055532	0.408747	0.870709
N267	N	1.388866	0.742080	1.204043
N268	N	0.722193	0.075412	0.462089
N269	N	1.055526	0.408745	0.795422
N270	N	1.388860	0.742078	1.128755
C271	C	0.672314	0.074133	0.423618
C272	C	1.005648	0.407466	0.756951
C273	C	1.338981	0.740799	1.090285
C274	C	0.706677	0.108506	0.701982
C275	C	1.040010	0.441840	1.035316
C276	C	1.373343	0.775173	1.368649
C277	C	0.706687	0.108500	0.781231
C278	C	1.040020	0.441834	1.114565
C279	C	1.373354	0.775167	1.447898
C280	C	0.637999	0.039763	0.781265
C281	C	0.971332	0.373096	1.114598
C282	C	1.304666	0.706429	1.447932
C283	C	0.637994	0.039765	0.702017
C284	C	0.971327	0.373099	1.035351
C285	C	1.304661	0.706432	1.368684
C286	C	0.672332	0.074140	0.662381
C287	C	1.005665	0.407473	0.995714
C288	C	1.338998	0.740807	1.329047
H289	H	-0.167631	0.164417	0.000019
H290	H	0.165702	0.497750	0.333353
H291	H	0.499035	0.831084	0.666686
H292	H	0.770443	-0.111587	0.000070
H293	H	1.103777	0.221747	0.333403
H294	H	1.437110	0.555080	0.666737
H295	H	0.138359	-0.072637	0.000066
H296	H	0.471692	0.260696	0.333399
H297	H	0.805026	0.594030	0.666733
Br298	Br	0.532246	-0.044145	0.000039
Br299	Br	0.865579	0.289189	0.333372
Br300	Br	1.198913	0.622522	0.666706
Br301	Br	0.497171	-0.472092	-0.000026
Br302	Br	0.830505	-0.138759	0.333308
Br303	Br	1.163838	0.194575	0.666641
H304	H	0.610028	0.011780	0.669775
H305	H	0.943362	0.345114	1.003108
H306	H	1.276695	0.678447	1.336441
Br307	Br	0.753233	0.155166	0.165008
Br308	Br	1.086566	0.488499	0.498341
Br309	Br	1.419900	0.821833	0.831674
H310	H	-0.141954	-0.023984	0.000051
H311	H	0.191379	0.309349	0.333384
H312	H	0.524713	0.642683	0.666718
Br313	Br	0.591370	-0.006883	0.351880
Br314	Br	0.924703	0.326450	0.685214
Br315	Br	1.258036	0.659783	1.018547
Br316	Br	0.753300	0.155144	0.834976
Br317	Br	1.086633	0.488478	1.168310
Br318	Br	1.419966	0.821811	1.501643
H319	H	0.206274	0.220904	0.000027
H320	H	0.539607	0.554238	0.333361
H321	H	0.872940	0.887571	0.666694
Br322	Br	0.591358	-0.006889	0.165086
Br323	Br	0.924692	0.326445	0.498420
Br324	Br	1.258025	0.659778	0.831753
H325	H	0.734637	0.136496	0.669709
H326	H	1.067970	0.469829	1.003042
H327	H	1.401304	0.803162	1.336375
Br328	Br	0.591401	-0.006885	0.835059
Br329	Br	0.924734	0.326448	1.168393
Br330	Br	1.258068	0.659782	1.501726
Br331	Br	0.753264	0.155145	0.351799
Br332	Br	1.086597	0.488478	0.685133
Br333	Br	1.419931	0.821812	1.018466
Br334	Br	-0.014242	-0.050696	0.000070
Br335	Br	0.319092	0.282637	0.333404
Br336	Br	0.652425	0.615970	0.666737
H337	H	0.580747	-0.193677	0.000053
H338	H	0.914081	0.139656	0.333386
H339	H	1.247414	0.472990	0.666719
Br340	Br	0.266065	-0.099344	0.000073
Br341	Br	0.599398	0.233989	0.333406
Br342	Br	0.932731	0.567322	0.666739
H343	H	0.404515	-0.017447	0.000042
H344	H	0.737848	0.315887	0.333375
H345	H	1.071181	0.649220	0.666709
Br346	Br	0.498876	0.200635	-0.000019
Br347	Br	0.832209	0.533968	0.333314
Br348	Br	1.165542	0.867301	0.666648
Br349	Br	0.797156	-0.239299	0.000045
Br350	Br	1.130489	0.094034	0.333378
Br351	Br	1.463823	0.427368	0.666712
H352	H	0.575496	-0.632386	-0.000000
H353	H	0.908829	-0.299053	0.333333
H354	H	1.242162	0.034281	0.666666
H355	H	0.819097	-0.391900	0.000041
H356	H	1.152430	-0.058566	0.333375
H357	H	1.485763	0.274767	0.666708
H358	H	0.378846	0.170964	0.000013
H359	H	0.712179	0.504297	0.333346
H360	H	1.045512	0.837630	0.666679
Br361	Br	0.078560	0.247605	0.000045
Br362	Br	0.411894	0.580939	0.333378
Br363	Br	0.745227	0.914272	0.666712
Br364	Br	-0.047580	0.194093	0.000009
Br365	Br	0.285753	0.527426	0.333342
Br366	Br	0.619087	0.860760	0.666676
Br367	Br	0.845804	-0.519605	0.000032
Br368	Br	1.179137	-0.186272	0.333365
Br369	Br	1.512471	0.147061	0.666699
H370	H	0.582043	-0.085909	0.000047
H371	H	0.915376	0.247424	0.333381
H372	H	1.248709	0.580758	0.666714
H373	H	0.762610	-0.765821	0.000013
H374	H	1.095943	-0.432487	0.333347
H375	H	1.429276	-0.099154	0.666680
Br376	Br	0.545825	-0.752416	0.000009
Br377	Br	0.879158	-0.419083	0.333342
Br378	Br	1.212491	-0.085749	0.666675
Br379	Br	0.792288	-0.645774	0.000031
Br380	Br	1.125622	-0.312441	0.333364
Br381	Br	1.458955	0.020892	0.666697
Br382	Br	0.498854	-0.332101	-0.000024
Br383	Br	0.832188	0.001233	0.333309
Br384	Br	1.165521	0.334566	0.666643
