data_functionalizedCrystal
_audit_creation_method	'MofGen! by Chris Wilmer'
_symmetry_space_group_name_H-M	'P1'
_symmetry_Int_Tables_number	1
_symmetry_cell_setting	triclinic
loop_
_symmetry_equiv_pos_as_xyz
  x,y,z
_cell_length_a	12.827893
_cell_length_b	12.759394
_cell_length_c	12.827885
_cell_angle_alpha	89.968776
_cell_angle_beta	89.980728
_cell_angle_gamma	90.014808
loop_
_atom_site_label
_atom_site_type_symbol
_atom_site_fract_x
_atom_site_fract_y
_atom_site_fract_z
Zn1	Zn	1.597674	-0.418216	-0.590838
Zn2	Zn	2.097674	0.081784	-0.090838
Zn3	Zn	1.597569	-0.593932	-0.416094
Zn4	Zn	2.097569	-0.093932	0.083906
Zn5	Zn	1.422915	-0.418268	-0.416112
Zn6	Zn	1.922915	0.081732	0.083888
Zn7	Zn	1.422902	-0.593854	-0.590794
Zn8	Zn	1.922902	-0.093854	-0.090794
O9	O	1.510265	-0.506068	-0.503460
O10	O	2.010265	-0.006068	-0.003460
O11	O	1.743896	-0.441537	-0.567669
O12	O	2.243896	0.058463	-0.067669
O13	O	1.574363	-0.570684	-0.269860
O14	O	2.074363	-0.070684	0.230140
O15	O	1.446146	-0.271240	-0.439316
O16	O	1.946146	0.228760	0.060684
O17	O	1.743819	-0.570634	-0.439285
O18	O	2.243819	-0.070634	0.060715
O19	O	1.574541	-0.271202	-0.567686
O20	O	2.074541	0.228798	-0.067686
O21	O	1.446045	-0.441624	-0.269873
O22	O	1.946045	0.058376	0.230127
O23	O	1.276677	-0.441548	-0.439273
O24	O	1.776677	0.058452	0.060727
O25	O	1.446124	-0.570501	-0.737036
O26	O	1.946124	-0.070501	-0.237036
O27	O	1.276668	-0.570551	-0.567611
O28	O	1.776668	-0.070551	-0.067611
O29	O	1.574528	-0.441461	-0.737069
O30	O	2.074528	0.058539	-0.237069
O31	O	1.574350	-0.740943	-0.439243
O32	O	2.074350	-0.240943	0.060757
O33	O	1.446023	-0.740885	-0.567594
O34	O	1.946023	-0.240885	-0.067594
C35	C	1.238755	-0.506047	-0.503440
C36	C	1.738755	-0.006047	-0.003440
C37	C	1.122602	-0.506064	-0.503456
C38	C	1.622602	-0.006064	-0.003456
C39	C	1.070840	-0.569998	-0.566864
C40	C	1.570840	-0.069998	-0.066864
C41	C	0.950790	-0.570017	-0.566882
C42	C	1.450790	-0.070017	-0.066882
C43	C	1.510202	-0.779035	-0.503434
C44	C	2.010202	-0.279035	-0.003434
C45	C	1.510271	-0.895812	-0.503458
C46	C	2.010271	-0.395812	-0.003458
C47	C	1.643999	-0.895818	-0.369906
C48	C	2.143999	-0.395818	0.130094
C49	C	1.710890	-0.950682	-0.303143
C50	C	2.210890	-0.450682	0.196857
C51	C	1.710951	-1.060404	-0.303171
C52	C	2.210951	-0.560404	0.196829
C53	C	1.644116	-1.115264	-0.369973
C54	C	2.144116	-0.615264	0.130027
C55	C	1.577225	-1.060400	-0.436736
C56	C	2.077225	-0.560400	0.063264
C57	C	1.577169	-0.950676	-0.436698
C58	C	2.077169	-0.450676	0.063302
C59	C	1.443504	-1.060393	-0.570292
C60	C	1.943504	-0.560393	-0.070292
C61	C	1.443436	-0.950672	-0.570260
C62	C	1.943436	-0.450672	-0.070260
C63	C	1.376670	-1.115253	-0.637094
C64	C	1.876670	-0.615253	-0.137094
C65	C	1.309772	-1.060389	-0.703854
C66	C	1.809772	-0.560389	-0.203854
C67	C	1.309712	-0.950661	-0.703822
C68	C	1.809712	-0.450661	-0.203822
C69	C	1.376545	-0.895808	-0.637024
C70	C	1.876545	-0.395808	-0.137024
C71	C	1.782835	-0.506089	-0.503480
C72	C	2.282835	-0.006089	-0.003480
C73	C	1.898988	-0.506098	-0.503489
C74	C	2.398988	-0.006098	-0.003489
C75	C	1.510336	-0.505967	-0.776030
C76	C	2.010336	-0.005967	-0.276030
C77	C	1.510366	-0.505924	-0.892183
C78	C	2.010366	-0.005924	-0.392183
C79	C	1.510356	-0.232034	-0.503508
C80	C	2.010356	0.267966	-0.003508
C81	C	1.510395	-0.115257	-0.503528
C82	C	2.010395	0.384743	-0.003528
C83	C	1.573912	-0.442058	-0.943984
C84	C	2.073912	0.057942	-0.443984
C85	C	1.573944	-0.442012	-1.064034
C86	C	2.073944	0.057988	-0.564034
C87	C	1.510254	-0.506092	-0.231950
C88	C	2.010254	-0.006092	0.268050
C89	C	1.510426	-0.505839	-0.115797
C90	C	2.010426	-0.005839	0.384203
H91	H	1.078041	-0.451337	-0.449188
H92	H	1.578041	0.048663	0.050812
H93	H	1.644181	-1.204605	-0.369999
H94	H	2.144181	-0.704605	0.130001
H95	H	1.115402	-0.624717	-0.621140
H96	H	1.615402	-0.124717	-0.121140
N97	N	1.438338	-0.578315	-0.951156
N98	N	1.938338	-0.078315	-0.451156
H99	H	1.395927	-0.620944	-0.900093
H100	H	1.895927	-0.120944	-0.400093
H101	H	1.390043	-0.535488	-0.996446
H102	H	1.890043	-0.035488	-0.496446
H103	H	1.376497	-0.806467	-0.636984
H104	H	1.876497	-0.306467	-0.136984
N105	N	1.646007	-0.369568	-1.123024
N106	N	2.146007	0.130432	-0.623024
H107	H	1.720680	-0.385876	-1.104086
H108	H	2.220680	0.114124	-0.604086
H109	H	1.635729	-0.379829	-1.200403
H110	H	2.135729	0.120171	-0.700403
N111	N	1.438339	-0.578255	-1.056804
N112	N	1.938339	-0.078255	-0.556804
H113	H	1.395951	-0.620839	-1.107847
H114	H	1.895951	-0.120839	-0.607847
H115	H	1.480877	-0.626861	-1.011506
H116	H	1.980877	-0.126861	-0.511506
H117	H	0.906276	-0.624756	-0.621165
H118	H	1.406276	-0.124756	-0.121165
H119	H	0.943496	-0.451362	-0.449197
H120	H	1.443496	0.048638	0.050803
N121	N	1.645972	-0.369695	-0.885015
N122	N	2.145972	0.130305	-0.385015
H123	H	1.635746	-0.379997	-0.807614
H124	H	2.135746	0.120003	-0.307614
H125	H	1.720612	-0.386059	-0.904056
H126	H	2.220612	0.113941	-0.404056
H127	H	1.765425	-1.105074	-0.248811
H128	H	2.265425	-0.605074	0.251189
N129	N	1.643918	-0.777477	-0.369862
N130	N	2.143918	-0.277477	0.130138
H131	H	1.696402	-0.751048	-0.317413
H132	H	2.196402	-0.251048	0.182587
H133	H	1.663049	-0.751047	-0.441590
H134	H	2.163049	-0.251047	0.058410
N135	N	1.376735	-1.233595	-0.637133
N136	N	1.876735	-0.733595	-0.137133
H137	H	1.429248	-1.260029	-0.584701
H138	H	1.929248	-0.760029	-0.084701
H139	H	1.305033	-1.260011	-0.617910
H140	H	1.805033	-0.760011	-0.117910
H141	H	1.255365	-1.105065	-0.758243
H142	H	1.755365	-0.605065	-0.258243
N143	N	1.782980	-0.891514	-0.231101
N144	N	2.282980	-0.391514	0.268899
H145	H	1.772794	-0.813680	-0.241209
H146	H	2.272794	-0.313680	0.258791
H147	H	1.766761	-0.910768	-0.156460
H148	H	2.266761	-0.410768	0.343540
H149	H	1.255246	-0.905997	-0.758193
H150	H	1.755246	-0.405997	-0.258193
