data_functionalizedCrystal
_audit_creation_method	'MofGen! by Chris Wilmer'
_symmetry_space_group_name_H-M	'P1'
_symmetry_Int_Tables_number	1
_symmetry_cell_setting	triclinic
loop_
_symmetry_equiv_pos_as_xyz
  x,y,z
_cell_length_a	14.628931
_cell_length_b	19.902436
_cell_length_c	14.628931
_cell_angle_alpha	90.001278
_cell_angle_beta	60.000000
_cell_angle_gamma	59.996936
loop_
_atom_site_label
_atom_site_type_symbol
_atom_site_fract_x
_atom_site_fract_y
_atom_site_fract_z
Zr1	Zr	1.000474	0.647322	-0.119891
O2	O	1.191197	0.540030	-0.265863
O3	O	0.809764	0.680212	-0.075142
O4	O	1.000469	0.680213	-0.265847
O5	O	1.000492	0.540029	0.075274
O6	O	1.000451	0.790791	-0.265835
O7	O	1.000492	0.540029	-0.075158
O8	O	0.659314	0.790791	0.075302
O9	O	1.341629	0.540030	-0.265863
O10	O	0.888188	0.776764	-0.056048
O11	O	0.888202	0.694240	0.056208
O12	O	1.112732	0.694240	-0.168323
O13	O	1.112746	0.611716	-0.056067
Zr14	Zr	1.000447	0.823682	0.120050
Zr15	Zr	1.000446	0.823682	-0.119871
Zr16	Zr	1.000475	0.647321	0.120031
Zr17	Zr	1.240396	0.647322	-0.119891
Zr18	Zr	0.760525	0.823682	0.120051
O19	O	1.191158	0.790791	0.075301
O20	O	1.191157	0.790792	-0.265836
O21	O	1.191198	0.540029	0.075274
O22	O	0.809724	0.930974	0.266023
O23	O	0.809723	0.930974	-0.075114
O24	O	0.809765	0.680212	0.265995
O25	O	1.000429	0.930974	-0.075114
O26	O	1.000452	0.790791	0.266007
O27	O	1.000470	0.680212	0.265995
O28	O	1.000429	0.930974	0.075317
O29	O	1.341606	0.680213	-0.265848
O30	O	0.659315	0.790791	0.266008
O31	O	0.659292	0.930974	0.266023
O32	O	0.659292	0.930974	0.075318
O33	O	1.341629	0.540030	-0.075158
O34	O	1.341607	0.680213	-0.075143
O35	O	0.888189	0.776763	0.168483
O36	O	0.888175	0.859287	0.056226
O37	O	1.112719	0.776764	-0.056049
O38	O	1.112733	0.694240	0.056208
C39	C	0.700355	0.735501	0.000080
C40	C	0.598502	0.735501	0.000080
C41	C	0.553086	0.776439	-0.055606
C42	C	0.447816	0.776440	-0.055607
C43	C	1.000496	0.514902	0.000055
C44	C	1.000508	0.440032	0.000047
C45	C	1.000444	0.168030	0.000091
C46	C	1.142091	0.144463	-0.070395
C47	C	1.142180	0.222301	-0.070787
C48	C	1.000477	0.302973	0.000069
C49	C	0.930132	0.300562	-0.051575
C50	C	0.931037	0.222334	-0.052096
C51	C	0.928129	0.223322	0.122252
C52	C	0.930791	0.300243	0.122065
C53	C	1.000488	0.379240	0.000058
C54	C	1.000429	0.091765	0.000098
C55	C	1.300566	0.735502	0.000079
C56	C	1.402419	0.735502	0.000079
C57	C	1.000460	0.735502	-0.300025
C58	C	1.000459	0.735502	-0.401878
C59	C	1.000425	0.956102	0.000104
C60	C	1.000413	1.030971	0.000112
C61	C	1.111848	0.694565	-0.502983
C62	C	1.111851	0.694564	-0.608254
C63	C	1.000461	0.735501	0.300185
C64	C	1.000462	0.735501	0.402037
C65	C	0.700320	0.956101	0.000105
C66	C	0.598455	1.030971	0.000113
C67	C	0.700356	0.735501	0.300185
C68	C	0.598504	0.735501	0.402038
C69	C	0.700321	0.956101	0.300209
C70	C	0.598456	1.030971	0.402071
C71	C	1.300600	0.514902	-0.300050
C72	C	1.402465	0.440033	-0.401911
C73	C	1.300601	0.514902	0.000055
C74	C	1.402466	0.440033	0.000047
C75	C	1.300565	0.735502	-0.300025
C76	C	1.402418	0.735503	-0.401878
C77	C	0.550625	1.023054	-0.058499
C78	C	0.454925	1.093395	-0.058514
C79	C	0.407051	1.171652	0.000091
C80	C	0.454890	1.179568	0.058705
C81	C	0.550595	1.109227	0.058713
C82	C	0.550612	1.109214	0.391309
C83	C	0.454913	1.179569	0.487009
C84	C	0.407053	1.171678	0.593470
C85	C	0.454906	1.093426	0.604230
C86	C	0.550610	1.023073	0.508530
C87	C	1.450320	0.361790	-0.391149
C88	C	1.546049	0.291435	-0.486850
C89	C	1.593915	0.299326	-0.593311
C90	C	1.546055	0.377578	-0.604070
C91	C	1.450335	0.447930	-0.508371
C92	C	1.450306	0.447950	0.058649
C93	C	1.546032	0.377608	0.058637
C94	C	1.593910	0.299351	0.000029
C95	C	1.546066	0.291436	-0.058581
C96	C	1.450348	0.361776	-0.058575
C97	C	0.553088	0.776438	0.503143
C98	C	0.447818	0.776439	0.608415
H99	H	0.441475	0.700449	0.047752
H100	H	0.329124	1.228970	0.671386
H101	H	1.585040	0.383993	-0.690762
H102	H	0.905093	0.770547	-0.511232
Cl103	Cl	1.390143	0.546322	0.132331
H104	H	1.671850	0.242082	0.000033
H105	H	0.905097	0.770552	-0.393254
H106	H	0.592132	0.811490	-0.103277
Cl107	Cl	1.606263	0.193049	-0.132249
H108	H	0.408765	0.811484	-0.103288
Cl109	Cl	0.767023	0.254087	0.203714
H110	H	1.207215	0.659512	-0.694989
Cl111	Cl	0.610795	0.924682	-0.132189
H112	H	1.411372	0.511638	-0.517146
H113	H	1.207211	0.659522	-0.511607
H114	H	0.559447	0.700456	0.047758
H115	H	1.197653	0.221023	-0.036415
H116	H	1.584971	0.384069	0.106368
H117	H	0.415986	1.086934	-0.106244
H118	H	1.411399	0.355318	-0.106293
H119	H	1.197688	0.105297	-0.035932
H120	H	0.592145	0.811482	0.511767
Cl121	Cl	0.538224	0.681382	0.388711
Cl122	Cl	0.286732	1.260073	0.000074
Cl123	Cl	0.387516	0.830558	0.742324
Cl124	Cl	0.394686	1.277955	0.132381
Cl125	Cl	0.462702	0.681391	0.464217
Cl126	Cl	1.227508	0.082846	-0.208690
Cl127	Cl	1.227925	0.219559	-0.209915
Cl128	Cl	0.610704	1.119195	0.132414
H129	H	0.981026	0.185792	-0.141990
H130	H	0.827113	0.241682	-0.004077
H131	H	0.825942	0.357375	-0.002705
Cl132	Cl	0.610768	1.119156	0.257484
Cl133	Cl	1.005557	0.302954	-0.189046
Cl134	Cl	0.998098	0.167256	0.188865
Cl135	Cl	1.009957	0.299682	0.181646
H136	H	0.415961	1.243278	0.478229
Cl137	Cl	0.771159	0.388941	0.209967
H138	H	0.415924	1.087013	0.690923
H139	H	0.589552	0.959367	0.517308
H140	H	1.411354	0.355349	-0.304472
H141	H	1.585000	0.227726	-0.478067
H142	H	1.671856	0.242033	-0.671226
