data_functionalizedCrystal
_audit_creation_method	'MofGen! by Chris Wilmer'
_symmetry_space_group_name_H-M	'P1'
_symmetry_Int_Tables_number	1
_symmetry_cell_setting	triclinic
loop_
_symmetry_equiv_pos_as_xyz
  x,y,z
_cell_length_a	14.853568
_cell_length_b	13.330367
_cell_length_c	14.853567
_cell_angle_alpha	89.991237
_cell_angle_beta	96.364941
_cell_angle_gamma	89.995890
loop_
_atom_site_label
_atom_site_type_symbol
_atom_site_fract_x
_atom_site_fract_y
_atom_site_fract_z
O1	O	-1.196369	0.083350	0.117694
O2	O	-0.933910	0.083365	0.131714
O3	O	-1.072150	0.083360	-0.006526
O4	O	-1.058129	0.083355	0.255934
O5	O	-1.072129	-0.083487	-0.006504
O6	O	-0.933888	-0.083482	0.131737
O7	O	-1.196348	-0.083498	0.117716
Cu8	Cu	-1.065116	-0.098724	0.124728
Cu9	Cu	-1.065141	0.098592	0.124702
O10	O	-1.058107	-0.083493	0.255956
C11	C	-0.900310	-0.000057	0.131090
C12	C	-0.800227	-0.000050	0.129186
C13	C	-0.387693	-0.000072	0.039019
C14	C	-0.366412	-0.000075	0.203252
C15	C	-0.460446	-0.000071	0.205043
C16	C	-0.518107	-0.000067	0.123820
C17	C	-0.481736	-0.000066	0.040807
C18	C	-0.496825	-0.000062	0.288054
C19	C	-0.590864	-0.000057	0.289848
C20	C	-0.648527	-0.000060	0.208624
C21	C	-0.612150	-0.000060	0.125608
C22	C	-0.669812	-0.000056	0.044385
C23	C	-0.633437	-0.000063	-0.038632
C24	C	-0.539399	-0.000069	-0.040416
C25	C	-0.742565	-0.000055	0.210409
C26	C	-0.763855	-0.000049	0.046173
C27	C	-0.229947	-0.000075	0.118340
C28	C	-0.330031	-0.000077	0.120242
N29	N	-1.065105	-0.237506	0.124746
C30	C	-1.119897	-0.710123	0.179465
C31	C	-1.010413	-0.710103	0.069902
C32	C	-1.010400	-0.605084	0.069916
C33	C	-1.065137	-0.552580	0.124705
C34	C	-1.119887	-0.605095	0.179479
C35	C	-0.955657	-0.552562	0.015136
C36	C	-0.955643	-0.447538	0.015147
C37	C	-1.010376	-0.395032	0.069941
C38	C	-1.065128	-0.447552	0.124718
C39	C	-1.119865	-0.395048	0.179507
C40	C	-1.174612	-0.447567	0.234290
C41	C	-1.174620	-0.552589	0.234273
C42	C	-1.010368	-0.290010	0.069958
C43	C	-1.119855	-0.290020	0.179520
N44	N	-1.065159	0.237373	0.124677
C45	C	-1.071504	-0.000061	-0.040103
C46	C	-1.069600	-0.000052	-0.140187
C47	C	-0.979435	-0.000066	-0.552721
C48	C	-1.143667	-0.000075	-0.574002
C49	C	-1.145457	-0.000070	-0.479968
C50	C	-1.064235	-0.000063	-0.422306
C51	C	-0.981222	-0.000063	-0.458678
C52	C	-1.228469	-0.000080	-0.443589
C53	C	-1.230262	-0.000075	-0.349550
C54	C	-1.149039	-0.000062	-0.291886
C55	C	-1.066023	-0.000061	-0.328263
C56	C	-0.984800	-0.000054	-0.270602
C57	C	-0.901783	-0.000046	-0.306977
C58	C	-0.899999	-0.000050	-0.401015
C59	C	-1.150823	-0.000058	-0.197849
C60	C	-0.986588	-0.000052	-0.176559
C61	C	-1.058753	-0.000070	0.289534
C62	C	-1.060657	-0.000072	0.389617
H63	H	-0.319459	-0.000070	0.269380
Br64	Br	-1.194184	-0.781393	0.253819
Br65	Br	-0.936095	-0.218738	-0.004404
Br66	Br	-0.842104	-0.000055	-0.064064
Br67	Br	-0.791557	-0.000050	-0.228712
Br68	Br	-0.881329	-0.376271	-0.059183
H69	H	-1.218414	-0.000072	-0.168236
Br70	Br	-1.194137	-0.218773	0.253889
Br71	Br	-1.338692	-0.000116	-0.521846
H72	H	-1.219195	-0.595359	0.278872
Br73	Br	-0.787343	-0.000032	-0.450387
Br74	Br	-0.881376	-0.623821	-0.059215
Br75	Br	-0.711703	-0.000045	-0.148858
Br76	Br	-0.866774	-0.000040	-0.602084
Br77	Br	-0.640223	-0.000048	0.402510
Br78	Br	-1.253893	-0.000105	-0.652256
Br79	Br	-0.936134	-0.781358	-0.004454
H80	H	-0.772178	-0.000051	0.278000
H81	H	-0.509774	-0.000098	-0.108004
Br82	Br	-0.338330	-0.000091	-0.073641
Br83	Br	-0.418567	-0.000046	0.398277
H84	H	-1.219183	-0.404805	0.278894
Br85	Br	-1.342925	-0.000072	-0.300190
H86	H	-0.920445	-0.000042	-0.129616
