data_functionalizedCrystal
_audit_creation_method	'MofGen! by Chris Wilmer'
_symmetry_space_group_name_H-M	'P1'
_symmetry_Int_Tables_number	1
_symmetry_cell_setting	triclinic
loop_
_symmetry_equiv_pos_as_xyz
  x,y,z
_cell_length_a	15.944551
_cell_length_b	11.792241
_cell_length_c	10.268362
_cell_angle_alpha	90.000374
_cell_angle_beta	89.993764
_cell_angle_gamma	96.153923
loop_
_atom_site_label
_atom_site_type_symbol
_atom_site_fract_x
_atom_site_fract_y
_atom_site_fract_z
O1	O	0.115128	-1.505960	-0.108177
O2	O	0.126993	-1.175521	-0.108207
O3	O	-0.001173	-1.349764	-0.108180
O4	O	0.243295	-1.331717	-0.108205
O5	O	-0.001179	-1.349749	0.108421
O6	O	0.126988	-1.175506	0.108393
O7	O	0.115123	-1.505945	0.108424
Cu8	Cu	0.121055	-1.340724	0.128186
Cu9	Cu	0.121061	-1.340742	-0.127970
O10	O	0.243290	-1.331702	0.108396
C11	C	0.126245	-1.133229	0.000089
C12	C	0.124015	-1.007234	0.000078
C13	C	-0.032473	-1.349008	0.000121
C14	C	-0.125729	-1.346761	0.000121
N15	N	0.121050	-1.340720	0.308352
C16	C	-0.341098	-1.233389	0.000093
C17	C	-0.401880	-1.286028	0.106895
C18	C	-0.296474	-1.342698	0.000111
C19	C	-0.401858	-1.286069	-0.106656
C20	C	-0.461404	-1.338765	0.000095
C21	C	-0.356028	-1.395367	0.107001
C22	C	-0.355999	-1.395392	-0.106646
C23	C	-0.416764	-1.448111	0.000182
C24	C	-0.201461	-1.344961	0.000121
C25	C	-0.556415	-1.336511	0.000095
C26	C	0.274590	-1.332459	0.000093
C27	C	0.367846	-1.334705	0.000084
C28	C	0.115871	-1.548237	0.000124
C29	C	0.118102	-1.674233	0.000127
C30	C	0.119913	-0.776555	0.000116
C31	C	0.122192	-0.904922	0.000095
N32	N	0.121060	-1.340756	-0.308135
C33	C	0.121060	-1.340736	0.574022
C34	C	0.121057	-1.340724	0.426184
H35	H	-0.308200	-1.142657	0.000191
H36	H	-0.422199	-1.239788	0.197179
O37	O	-0.332031	-1.450359	0.214978
C38	C	-0.355929	-1.392950	0.327257
H39	H	-0.410207	-1.341225	0.302371
H40	H	-0.299952	-1.333306	0.364074
C41	C	-0.317663	-1.544209	0.464355
C42	C	-0.384334	-1.480687	0.433791
H43	H	-0.335181	-1.598328	0.530073
H44	H	-0.301560	-1.582885	0.388711
H45	H	-0.271021	-1.494494	0.495028
H46	H	-0.430970	-1.530401	0.403103
H47	H	-0.400446	-1.442021	0.509432
O48	O	-0.455803	-1.556463	0.000489
C49	C	-0.432417	-1.613653	0.113224
H50	H	-0.410808	-1.548488	0.191562
H51	H	-0.378690	-1.666502	0.088768
C52	C	-0.535179	-1.772798	0.067367
C53	C	-0.508644	-1.692762	0.163587
H54	H	-0.582197	-1.821600	0.098431
H55	H	-0.550933	-1.734271	-0.008588
H56	H	-0.490400	-1.816827	0.046996
H57	H	-0.553419	-1.648726	0.183945
H58	H	-0.492900	-1.731284	0.239547
H59	H	-0.422141	-1.239827	-0.196955
H60	H	-0.335658	-1.441593	-0.196935
