data_functionalizedCrystal
_audit_creation_method	'MofGen! by Chris Wilmer'
_symmetry_space_group_name_H-M	'P1'
_symmetry_Int_Tables_number	1
_symmetry_cell_setting	triclinic
loop_
_symmetry_equiv_pos_as_xyz
  x,y,z
_cell_length_a	17.699083
_cell_length_b	17.699097
_cell_length_c	16.776229
_cell_angle_alpha	89.989262
_cell_angle_beta	89.992455
_cell_angle_gamma	83.285722
loop_
_atom_site_label
_atom_site_type_symbol
_atom_site_fract_x
_atom_site_fract_y
_atom_site_fract_z
O1	O	0.095761	1.004072	-0.066356
O2	O	0.595761	1.504072	0.433644
O3	O	0.108203	0.783695	-0.066343
O4	O	0.608203	1.283695	0.433657
O5	O	-0.008207	0.900110	-0.066343
O6	O	0.491793	1.400110	0.433657
O7	O	0.212171	0.887657	-0.066356
O8	O	0.712171	1.387657	0.433644
O9	O	-0.008214	0.900094	0.066234
O10	O	0.491786	1.400094	0.566234
O11	O	0.108196	0.783680	0.066233
O12	O	0.608196	1.283680	0.566233
O13	O	0.095754	1.004057	0.066221
O14	O	0.595754	1.504057	0.566221
Zn15	Zn	0.101974	0.893866	0.087276
Zn16	Zn	0.601974	1.393866	0.587276
Zn17	Zn	0.101983	0.893886	-0.087399
Zn18	Zn	0.601983	1.393886	0.412601
O19	O	0.212164	0.887642	0.066220
O20	O	0.712164	1.387642	0.566220
C21	C	0.107752	0.755491	-0.000053
C22	C	0.607752	1.255491	0.499947
C23	C	0.106409	0.671473	-0.000048
C24	C	0.606409	1.171473	0.499952
C25	C	0.098184	0.155763	-0.072347
C26	C	0.598184	0.655763	0.427653
C27	C	0.099440	0.234707	-0.072343
C28	C	0.599440	0.734707	0.427657
C29	C	0.100065	0.274165	-0.000073
C30	C	0.600065	0.774165	0.499927
C31	C	0.099427	0.234675	0.072199
C32	C	0.599427	0.734675	0.572199
C33	C	0.098165	0.155733	0.072194
C34	C	0.598165	0.655733	0.572194
C35	C	0.104514	0.553039	0.072219
C36	C	0.604514	1.053039	0.572219
C37	C	0.105778	0.631987	0.072219
C38	C	0.605778	1.131987	0.572219
C39	C	0.105789	0.632013	-0.072318
C40	C	0.605789	1.132013	0.427682
C41	C	0.104527	0.553071	-0.072323
C42	C	0.604527	1.053071	0.427677
C43	C	0.103885	0.513589	-0.000052
C44	C	0.603885	1.013589	0.499948
C45	C	0.102521	0.427989	-0.000057
C46	C	0.602521	0.927989	0.499943
C47	C	0.101434	0.359763	-0.000067
C48	C	0.601434	0.859763	0.499933
C49	C	-0.036408	0.899656	-0.000055
C50	C	0.463592	1.399656	0.499945
C51	C	-0.120426	0.898317	-0.000054
C52	C	0.379574	1.398317	0.499946
C53	C	-0.169044	0.966650	-0.000057
C54	C	0.330956	1.466650	0.499943
C55	C	-0.247987	0.965388	-0.000064
C56	C	0.252013	1.465388	0.499936
C57	C	-0.278311	0.895792	-0.000062
C58	C	0.221689	1.395792	0.499938
C59	C	-0.229687	0.827454	-0.000062
C60	C	0.270313	1.327454	0.499938
C61	C	-0.150745	0.828717	-0.000061
C62	C	0.349255	1.328717	0.499939
C63	C	-0.548050	0.822359	-0.000068
C64	C	-0.048050	1.322359	0.499932
C65	C	-0.626998	0.821101	-0.000067
C66	C	-0.126998	1.321101	0.499933
C67	C	-0.645292	0.959030	-0.000071
C68	C	-0.145292	1.459030	0.499929
C69	C	-0.566350	0.960293	-0.000070
C70	C	-0.066350	1.460293	0.499930
C71	C	-0.517733	0.891955	-0.000074
C72	C	-0.017733	1.391955	0.499926
C73	C	-0.432134	0.893325	-0.000068
C74	C	0.067866	1.393325	0.499932
C75	C	-0.363909	0.894422	-0.000063
C76	C	0.136091	1.394422	0.499937
C77	C	0.240364	0.888096	-0.000070
C78	C	0.740364	1.388096	0.499930
C79	C	0.324382	0.889435	-0.000076
C80	C	0.824382	1.389435	0.499924
C81	C	0.096205	1.032261	-0.000071
C82	C	0.596205	1.532261	0.499929
C83	C	0.097547	1.116279	-0.000081
C84	C	0.597547	1.616279	0.499919
N85	N	0.101967	0.893857	0.206488
N86	N	0.601967	1.393857	0.706488
N87	N	0.101984	0.893900	-0.206610
N88	N	0.601984	1.393900	0.293390
C89	C	0.050441	0.945422	0.248205
C90	C	0.550441	1.445422	0.748205
C91	C	0.050441	0.945426	0.331657
C92	C	0.550441	1.445426	0.831657
C93	C	0.101970	0.893869	0.373390
C94	C	0.601970	1.393869	0.873390
C95	C	0.153497	0.842299	0.331667
C96	C	0.653497	1.342299	0.831667
C97	C	0.153494	0.842292	0.248217
C98	C	0.653494	1.342292	0.748217
C99	C	0.153512	0.842327	0.668215
C100	C	0.653512	1.342327	1.168215
C101	C	0.153513	0.842339	0.751671
C102	C	0.653513	1.342339	1.251671
C103	C	0.050459	0.945460	0.751655
C104	C	0.550459	1.445460	1.251655
C105	C	0.050456	0.945453	0.668204
C106	C	0.550456	1.445453	1.168204
C107	C	0.101980	0.893881	0.626488
C108	C	0.601980	1.393881	1.126488
C109	C	0.101979	0.893876	0.536000
C110	C	0.601979	1.393876	1.036000
C111	C	0.101975	0.893877	0.463877
C112	C	0.601975	1.393877	0.963877
H113	H	0.106287	0.664111	0.131074
H114	H	0.606287	1.164111	0.631074
C115	C	0.106486	0.675447	-0.151816
C116	C	0.606486	1.175447	0.348184
H117	H	0.107319	0.728114	-0.141467
H118	H	0.607319	1.228114	0.358533
H119	H	0.150401	0.656664	-0.181512
H120	H	0.650401	1.156664	0.318488
H121	H	0.062158	0.668366	-0.181508
H122	H	0.562158	1.168366	0.318492
C123	C	-0.301467	1.040552	-0.000075
C124	C	0.198533	1.540552	0.499925
H125	H	-0.352825	1.029835	-0.000089
H126	H	0.147175	1.529835	0.499911
H127	H	-0.292300	1.069095	0.046154
H128	H	0.207700	1.569095	0.546154
H129	H	-0.292275	1.069095	-0.046316
H130	H	0.207725	1.569095	0.453684
H131	H	0.195466	0.800336	0.634256
H132	H	0.695466	1.300336	1.134256
H133	H	0.008499	0.987438	0.634227
H134	H	0.508499	1.487438	1.134227
H135	H	-0.541665	1.016965	-0.000067
H136	H	-0.041665	1.516965	0.499933
C137	C	-0.135690	1.043205	-0.000056
C138	C	0.364310	1.543205	0.499944
H139	H	-0.081712	1.034173	-0.000047
H140	H	0.418288	1.534173	0.499953
H141	H	-0.152381	1.071342	-0.046289
H142	H	0.347619	1.571342	0.453711
H143	H	-0.152394	1.071326	0.046181
H144	H	0.347606	1.571326	0.546181
C145	C	-0.006225	1.002182	0.797544
C146	C	0.493775	1.502182	1.297544
H147	H	0.001148	0.994799	0.853222
H148	H	0.501148	1.494799	1.353222
H149	H	0.001933	1.052675	0.783852
H150	H	0.501933	1.552675	1.283852
H151	H	-0.056732	0.994052	0.783876
H152	H	0.443268	1.494052	1.283876
H153	H	-0.684886	1.014674	-0.000072
H154	H	-0.184886	1.514674	0.499928
C155	C	-0.660353	0.744542	-0.000076
C156	C	-0.160353	1.244542	0.499924
H157	H	-0.620093	0.704023	-0.000087
H158	H	-0.120093	1.204023	0.499913
H159	H	-0.690774	0.741171	0.046155
H160	H	-0.190774	1.241171	0.546155
H161	H	-0.690763	0.741198	-0.046315
H162	H	-0.190763	1.241198	0.453685
C163	C	0.210179	0.785589	0.377572
C164	C	0.710179	1.285589	0.877572
H165	H	0.202808	0.792983	0.433247
H166	H	0.702808	1.292983	0.933247
H167	H	0.202022	0.735093	0.363915
H168	H	0.702022	1.235093	0.863915
H169	H	0.260684	0.793718	0.363881
H170	H	0.760684	1.293718	0.863881
H171	H	-0.111161	0.773073	-0.000059
H172	H	0.388839	1.273073	0.499941
C173	C	0.097469	0.112300	0.151686
C174	C	0.597469	0.612300	0.651686
H175	H	0.098030	0.147103	0.194729
H176	H	0.598030	0.647103	0.694729
H177	H	0.052858	0.087356	0.154692
H178	H	0.552858	0.587356	0.654692
H179	H	0.141101	0.075652	0.154685
H180	H	0.641101	0.575652	0.654685
C181	C	0.097502	0.112366	-0.151846
C182	C	0.597502	0.612366	0.348154
H183	H	0.098056	0.147192	-0.194884
H184	H	0.598056	0.647192	0.305116
H185	H	0.141130	0.075720	-0.154853
H186	H	0.641130	0.575720	0.345147
H187	H	0.052887	0.087424	-0.154854
H188	H	0.552887	0.587424	0.345146
C189	C	0.100144	0.278136	-0.151836
C190	C	0.600144	0.778136	0.348164
H191	H	0.099601	0.243329	-0.194878
H192	H	0.599601	0.743329	0.305122
H193	H	0.056517	0.314784	-0.154842
H194	H	0.556517	0.814784	0.345158
H195	H	0.144761	0.303079	-0.154837
H196	H	0.644761	0.803079	0.345163
H197	H	-0.508475	0.766714	-0.000071
H198	H	-0.008475	1.266714	0.499929
C199	C	0.210192	0.785622	0.797580
C200	C	0.710192	1.285622	1.297580
H201	H	0.202819	0.793021	0.853255
H202	H	0.702819	1.293021	1.353255
H203	H	0.202030	0.735127	0.783926
H204	H	0.702030	1.235127	1.283926
H205	H	0.260700	0.793744	0.783892
H206	H	0.760700	1.293744	1.283892
C207	C	-0.263042	0.750900	-0.000058
C208	C	0.236958	1.250900	0.499942
H209	H	-0.317020	0.759933	-0.000050
H210	H	0.182980	1.259933	0.499950
H211	H	-0.246341	0.722773	-0.046288
H212	H	0.253659	1.222773	0.453712
H213	H	-0.246349	0.722768	0.046183
H214	H	0.253651	1.222768	0.546183
H215	H	0.195450	0.800303	0.214251
H216	H	0.695450	1.300303	0.714251
C217	C	0.103840	0.509668	-0.151818
C218	C	0.603840	1.009668	0.348182
H219	H	0.103004	0.456998	-0.141470
H220	H	0.603004	0.956998	0.358530
H221	H	0.059930	0.528464	-0.181511
H222	H	0.559930	1.028464	0.318489
H223	H	0.148173	0.516758	-0.181513
H224	H	0.648173	1.016758	0.318487
C225	C	0.103818	0.509617	0.151714
C226	C	0.603818	1.009617	0.651714
H227	H	0.104381	0.544424	0.194754
H228	H	0.604381	1.044424	0.694754
H229	H	0.059208	0.484673	0.154725
H230	H	0.559208	0.984673	0.654725
H231	H	0.147451	0.472970	0.154713
H232	H	0.647451	0.972970	0.654713
H233	H	0.008484	0.987408	0.214231
H234	H	0.508484	1.487408	0.714231
C235	C	-0.006230	1.002153	0.377543
C236	C	0.493770	1.502153	0.877543
H237	H	-0.036911	1.032865	0.340736
H238	H	0.463089	1.532865	0.840736
H239	H	-0.037708	0.974999	0.410113
H240	H	0.462292	1.474999	0.910113
H241	H	0.020972	1.033607	0.410079
H242	H	0.520972	1.533607	0.910079
H243	H	0.099931	0.266809	0.131043
H244	H	0.599931	0.766809	0.631043
