data_functionalizedCrystal
_audit_creation_method	'MofGen! by Chris Wilmer'
_symmetry_space_group_name_H-M	'P1'
_symmetry_Int_Tables_number	1
_symmetry_cell_setting	triclinic
loop_
_symmetry_equiv_pos_as_xyz
  x,y,z
_cell_length_a	10.908937
_cell_length_b	10.967870
_cell_length_c	8.965430
_cell_angle_alpha	102.136692
_cell_angle_beta	89.994167
_cell_angle_gamma	107.314702
loop_
_atom_site_label
_atom_site_type_symbol
_atom_site_fract_x
_atom_site_fract_y
_atom_site_fract_z
O1	O	1.702139	0.192356	-0.074638
O2	O	1.329136	0.095093	-0.099632
O3	O	1.524238	0.327162	-0.039975
O4	O	1.507036	-0.039713	-0.134296
O5	O	1.524227	0.327178	0.208108
O6	O	1.329125	0.095108	0.148450
O7	O	1.702128	0.192372	0.173445
Cu8	Cu	1.515625	0.143742	0.183600
Cu9	Cu	1.515638	0.143723	-0.109787
O10	O	1.507025	-0.039697	0.113787
C11	C	1.281370	0.086011	0.022074
C12	C	1.139057	0.058942	0.015118
C13	C	1.522980	0.373400	0.095949
C14	C	1.519231	0.511149	0.131354
C15	C	0.942091	0.129749	0.033295
C16	C	1.089178	0.157729	0.040508
C17	C	1.749894	0.201454	0.051736
C18	C	1.892207	0.228523	0.058681
C19	C	1.517566	0.572548	0.018623
C20	C	1.513691	0.714918	0.055213
C21	C	1.508282	0.914064	-0.022135
C22	C	1.512026	0.776313	-0.057535
N23	N	1.515626	0.143757	0.389953
N24	N	1.515648	0.143720	-0.316137
C25	C	1.605148	0.251621	0.614351
C26	C	1.632041	0.144790	0.487408
C27	C	1.488790	0.250591	0.514689
C28	C	1.542600	0.036844	0.559097
C29	C	1.399297	0.142708	0.586403
C30	C	1.426142	0.035785	0.459481
H31	H	1.155360	0.263015	0.067573
O32	O	1.513932	0.706337	-0.221272
H33	H	1.426044	0.701876	-0.287292
H34	H	1.565414	-0.053521	0.579328
H35	H	1.512240	0.767746	0.178822
O36	O	1.519468	0.502566	-0.145107
H37	H	1.517647	0.569195	-0.222121
H38	H	1.517780	0.563982	0.254955
H39	H	0.958392	0.333802	0.085745
H40	H	0.875905	0.024471	0.006214
H41	H	1.680897	0.342780	0.681422
O42	O	1.762353	0.145920	0.429764
H43	H	1.836492	0.235561	0.492597
O44	O	1.325866	-0.085160	0.370931
H45	H	1.348460	-0.173639	0.388193
O46	O	1.269023	0.141626	0.644115
H47	H	1.246958	0.230472	0.627243
O48	O	1.458688	0.370277	0.487651
H49	H	1.533123	0.459685	0.550460
H50	H	1.072877	-0.046345	-0.011960
