data_functionalizedCrystal
_audit_creation_method	'MofGen! by Chris Wilmer'
_symmetry_space_group_name_H-M	'P1'
_symmetry_Int_Tables_number	1
_symmetry_cell_setting	triclinic
loop_
_symmetry_equiv_pos_as_xyz
  x,y,z
_cell_length_a	10.967874
_cell_length_b	9.482944
_cell_length_c	9.065218
_cell_angle_alpha	100.297871
_cell_angle_beta	84.859232
_cell_angle_gamma	112.344705
loop_
_atom_site_label
_atom_site_type_symbol
_atom_site_fract_x
_atom_site_fract_y
_atom_site_fract_z
O1	O	1.739444	0.556661	0.302195
O2	O	1.362562	0.462246	0.305847
O3	O	1.558793	0.511402	0.089669
O4	O	1.543213	0.507505	0.518372
O5	O	1.522078	0.260411	0.046717
O6	O	1.325847	0.211255	0.262894
O7	O	1.702729	0.305671	0.259243
Cu8	Cu	1.510936	0.235546	0.257147
Cu9	Cu	1.554355	0.532371	0.307943
O10	O	1.506498	0.256515	0.475420
C11	C	1.295930	0.324657	0.280860
C12	C	1.152088	0.288622	0.270381
N13	N	1.480406	0.026777	0.221419
C14	C	1.106978	0.402577	0.287959
C15	C	0.958310	0.365336	0.277129
C16	C	1.545341	-0.029154	0.297403
C17	C	1.519950	-0.202933	0.267664
C18	C	1.769361	0.443263	0.284230
C19	C	1.913205	0.479307	0.294711
C20	C	1.538938	0.385534	0.013151
C21	C	1.534462	0.384420	-0.150858
N22	N	1.584895	0.741142	0.343659
C23	C	1.526353	0.382386	0.551939
C24	C	1.530831	0.383510	0.715950
H25	H	1.178420	0.527708	0.311035
F26	F	1.006573	0.642876	0.324882
H27	H	1.445559	-0.283695	0.180584
F28	F	1.642583	0.076410	0.411205
H29	H	0.886869	0.240196	0.254069
H30	H	1.659293	-0.178096	0.430732
H31	H	1.406019	-0.053990	0.134345
H32	H	1.080644	0.163491	0.247321
