data_functionalizedCrystal
_audit_creation_method	'MofGen! by Chris Wilmer'
_symmetry_space_group_name_H-M	'P1'
_symmetry_Int_Tables_number	1
_symmetry_cell_setting	triclinic
loop_
_symmetry_equiv_pos_as_xyz
  x,y,z
_cell_length_a	27.732048
_cell_length_b	27.731996
_cell_length_c	18.266242
_cell_angle_alpha	89.987663
_cell_angle_beta	89.996455
_cell_angle_gamma	82.632022
loop_
_atom_site_label
_atom_site_type_symbol
_atom_site_fract_x
_atom_site_fract_y
_atom_site_fract_z
O1	O	0.640919	0.057519	-0.060796
O2	O	0.974253	0.390853	0.272537
O3	O	1.307586	0.724186	0.605871
O4	O	0.500124	0.066265	-0.060819
O5	O	0.833458	0.399598	0.272514
O6	O	1.166791	0.732932	0.605847
O7	O	0.574908	-0.008506	-0.060791
O8	O	0.908241	0.324827	0.272542
O9	O	1.241574	0.658160	0.605876
O10	O	0.566136	0.132291	-0.060824
O11	O	0.899469	0.465624	0.272509
O12	O	1.232803	0.798957	0.605842
O13	O	0.574895	-0.008510	0.060971
O14	O	0.908229	0.324823	0.394304
O15	O	1.241562	0.658156	0.727637
O16	O	0.500112	0.066261	0.060943
O17	O	0.833445	0.399595	0.394276
O18	O	1.166778	0.732928	0.727609
O19	O	0.640907	0.057515	0.060966
O20	O	0.974240	0.390849	0.394299
O21	O	1.307574	0.724182	0.727633
Zn22	Zn	0.570507	0.061888	0.080287
Zn23	Zn	0.903841	0.395221	0.413620
Zn24	Zn	1.237174	0.728554	0.746953
Zn25	Zn	0.570524	0.061893	-0.080140
Zn26	Zn	0.903857	0.395226	0.253193
Zn27	Zn	1.237191	0.728559	0.586527
O28	O	0.566123	0.132287	0.060938
O29	O	0.899457	0.465620	0.394271
O30	O	1.232790	0.798954	0.727604
C31	C	0.482111	0.066079	0.000059
C32	C	0.815445	0.399413	0.333392
C33	C	1.148778	0.732746	0.666725
C34	C	0.428456	0.065527	0.000051
C35	C	0.761790	0.398860	0.333384
C36	C	1.095123	0.732193	0.666717
C37	C	0.089634	0.106231	0.000073
C38	C	0.422967	0.439565	0.333406
C39	C	0.756300	0.772898	0.666739
C40	C	-0.112026	0.104180	0.000080
C41	C	0.221308	0.437514	0.333413
C42	C	0.554641	0.770847	0.666746
O43	O	-0.143288	0.141402	0.000103
O44	O	0.190045	0.474735	0.333436
O45	O	0.523379	0.808069	0.666769
N46	N	-0.131141	0.059844	0.000089
N47	N	0.202192	0.393177	0.333422
N48	N	0.535526	0.726511	0.666755
C49	C	-0.099838	0.016017	0.000101
C50	C	0.233495	0.349351	0.333434
C51	C	0.566829	0.682684	0.666768
O52	O	-0.120724	-0.021740	0.000116
O53	O	0.212609	0.311593	0.333450
O54	O	0.545943	0.644926	0.666783
C55	C	0.101820	0.018069	0.000099
C56	C	0.435153	0.351402	0.333433
C57	C	0.768487	0.684736	0.666766
C58	C	0.120933	0.062408	0.000083
C59	C	0.454266	0.395741	0.333416
C60	C	0.787599	0.729075	0.666749
C61	C	0.108747	0.150567	0.000057
C62	C	0.442080	0.483900	0.333390
C63	C	0.775413	0.817234	0.666724
C64	C	0.159159	0.151079	0.000051
C65	C	0.492492	0.484413	0.333385
C66	C	0.825825	0.817746	0.666718
C67	C	0.190457	0.107256	0.000061
C68	C	0.523791	0.440589	0.333394
C69	C	0.857124	0.773923	0.666728
C70	C	0.171344	0.062920	0.000077
C71	C	0.504678	0.396254	0.333410
C72	C	0.838011	0.729587	0.666744
C73	C	0.133122	-0.025757	0.000117
C74	C	0.466455	0.307576	0.333450
C75	C	0.799789	0.640909	0.666783
C76	C	0.183539	-0.025240	0.000118
C77	C	0.516873	0.308093	0.333451
C78	C	0.850206	0.641426	0.666785
C79	C	0.202652	0.019099	0.000101
C80	C	0.535985	0.352432	0.333435
C81	C	0.869318	0.685765	0.666768
C82	C	0.253055	0.019609	0.000081
C83	C	0.586388	0.352943	0.333414
C84	C	0.919722	0.686276	0.666748
N85	N	0.272171	0.063946	0.000072
N86	N	0.605504	0.397279	0.333405
N87	N	0.938837	0.730612	0.666739
C88	C	0.240872	0.107769	0.000062
C89	C	0.574205	0.441102	0.333395
C90	C	0.907538	0.774436	0.666729
C91	C	-0.205712	0.014943	0.000100
C92	C	0.127621	0.348277	0.333434
C93	C	0.460955	0.681610	0.666767
C94	C	-0.256126	0.014430	0.000100
C95	C	0.077207	0.347764	0.333433
C96	C	0.410540	0.681097	0.666766
C97	C	-0.268310	0.102594	0.000080
C98	C	0.065023	0.435927	0.333413
C99	C	0.398356	0.769260	0.666746
C100	C	-0.217895	0.103106	0.000075
C101	C	0.115438	0.436440	0.333409
C102	C	0.448772	0.769773	0.666742
C103	C	-0.186597	0.059280	0.000091
C104	C	0.146737	0.392613	0.333425
C105	C	0.480070	0.725946	0.666758
C106	C	0.346741	0.108842	0.000049
C107	C	0.680074	0.442175	0.333383
C108	C	1.013407	0.775508	0.666716
C109	C	0.397158	0.109350	0.000041
C110	C	0.730491	0.442683	0.333374
C111	C	1.063824	0.776017	0.666707
C112	C	0.409337	0.021187	0.000064
C113	C	0.742670	0.354520	0.333398
C114	C	1.076004	0.687854	0.666731
C115	C	0.358925	0.020678	0.000069
C116	C	0.692258	0.354012	0.333403
C117	C	1.025591	0.687345	0.666736
C118	C	0.327627	0.064510	0.000064
C119	C	0.660961	0.397843	0.333398
C120	C	0.994294	0.731176	0.666731
O121	O	0.284346	-0.017592	0.000066
O122	O	0.617679	0.315741	0.333400
O123	O	0.951013	0.649074	0.666733
O124	O	0.261767	0.145521	0.000063
O125	O	0.595101	0.478855	0.333396
O126	O	0.928434	0.812188	0.666729
C127	C	0.039222	0.105719	0.000078
C128	C	0.372555	0.439053	0.333412
C129	C	0.705889	0.772386	0.666745
C130	C	0.020109	0.061384	0.000094
C131	C	0.353442	0.394717	0.333427
C132	C	0.686776	0.728050	0.666761
C133	C	0.051408	0.017560	0.000104
C134	C	0.384741	0.350894	0.333437
C135	C	0.718074	0.684227	0.666771
C136	C	-0.030305	0.060871	0.000093
C137	C	0.303028	0.394204	0.333427
C138	C	0.636361	0.727537	0.666760
C139	C	-0.061604	0.104694	0.000083
C140	C	0.271729	0.438027	0.333417
C141	C	0.605062	0.771361	0.666750
C142	C	-0.042489	0.149030	0.000074
C143	C	0.290844	0.482364	0.333407
C144	C	0.624178	0.815697	0.666741
C145	C	0.007923	0.149543	0.000068
C146	C	0.341256	0.482876	0.333402
C147	C	0.674590	0.816209	0.666735
C148	C	0.032292	-0.026776	0.000113
C149	C	0.365626	0.306557	0.333447
C150	C	0.698959	0.639891	0.666780
C151	C	-0.018120	-0.027285	0.000118
C152	C	0.315213	0.306049	0.333451
C153	C	0.648547	0.639382	0.666785
C154	C	-0.049419	0.016539	0.000108
C155	C	0.283914	0.349872	0.333442
C156	C	0.617248	0.683205	0.666775
C157	C	0.574721	-0.026516	0.000092
C158	C	0.908055	0.306818	0.333426
C159	C	1.241388	0.640151	0.666759
C160	C	0.574179	-0.080172	0.000100
C161	C	0.907512	0.253161	0.333433
C162	C	1.240845	0.586495	0.666766
C163	C	0.570771	-0.412886	-0.066309
C164	C	0.904104	-0.079553	0.267024
C165	C	1.237437	0.253780	0.600358
C166	C	0.568710	-0.614544	-0.066322
C167	C	0.902043	-0.281211	0.267011
C168	C	1.235376	0.052122	0.600344
O169	O	0.568428	-0.640613	-0.122770
O170	O	0.901762	-0.307280	0.210563
O171	O	1.235095	0.026053	0.543897
N172	N	0.568447	-0.639764	0.000049
N173	N	0.901780	-0.306430	0.333383
N174	N	1.235114	0.026903	0.666716
C175	C	0.568696	-0.614565	0.066429
C176	C	0.902029	-0.281231	0.399763
C177	C	1.235363	0.052102	0.733096
O178	O	0.568420	-0.640642	0.122882
O179	O	0.901754	-0.307308	0.456216
O180	O	1.235087	0.026025	0.789549
C181	C	0.570754	-0.412907	0.066442
C182	C	0.904087	-0.079574	0.399775
C183	C	1.237420	0.253760	0.733108
C184	C	0.571021	-0.387691	0.000066
C185	C	0.904355	-0.054358	0.333399
C186	C	1.237688	0.278976	0.666732
C187	C	0.571038	-0.387670	-0.132680
C188	C	0.904371	-0.054337	0.200654
C189	C	1.237705	0.278996	0.533987
C190	C	0.571556	-0.337259	-0.132676
C191	C	0.904889	-0.003926	0.200657
C192	C	1.238222	0.329408	0.533991
C193	C	0.571806	-0.312064	-0.066301
C194	C	0.905140	0.021269	0.267032
C195	C	1.238473	0.354603	0.600366
C196	C	0.571539	-0.337280	0.000070
C197	C	0.904873	-0.003947	0.333403
C198	C	1.238206	0.329387	0.666736
C199	C	0.570999	-0.387708	0.132821
C200	C	0.904333	-0.054375	0.466154
C201	C	1.237666	0.278958	0.799487
C202	C	0.571513	-0.337291	0.132818
C203	C	0.904846	-0.003957	0.466151
C204	C	1.238179	0.329376	0.799485
C205	C	0.571780	-0.312075	0.066442
C206	C	0.905114	0.021259	0.399775
C207	C	1.238447	0.354592	0.733109
C208	C	0.572308	-0.261674	0.066448
C209	C	0.905641	0.071660	0.399782
C210	C	1.238974	0.404993	0.733115
N211	N	0.572571	-0.236454	0.000076
N212	N	0.905904	0.096879	0.333410
N213	N	1.239237	0.430212	0.666743
C214	C	0.572320	-0.261650	-0.066298
C215	C	0.905653	0.071684	0.267035
C216	C	1.238987	0.405017	0.600368
C217	C	0.567617	-0.720438	0.066418
C218	C	0.900950	-0.387105	0.399751
C219	C	1.234284	-0.053771	0.733085
C220	C	0.567103	-0.770852	0.066415
C221	C	0.900437	-0.437519	0.399748
C222	C	1.233770	-0.104186	0.733082
C223	C	0.567116	-0.770829	-0.066337
C224	C	0.900449	-0.437495	0.266997
C225	C	1.233783	-0.104162	0.600330
C226	C	0.567633	-0.720414	-0.066333
C227	C	0.900966	-0.387080	0.267000
C228	C	1.234300	-0.053747	0.600334
C229	C	0.567880	-0.695219	0.000046
C230	C	0.901213	-0.361886	0.333380
C231	C	1.234546	-0.028552	0.666713
C232	C	0.573408	-0.155783	-0.066285
C233	C	0.906741	0.177551	0.267048
C234	C	1.240075	0.510884	0.600382
C235	C	0.573928	-0.105367	-0.066275
C236	C	0.907261	0.227966	0.267058
C237	C	1.240595	0.561299	0.600392
C238	C	0.573913	-0.105395	0.066476
C239	C	0.907246	0.227938	0.399810
C240	C	1.240579	0.561272	0.733143
C241	C	0.573395	-0.155806	0.066467
C242	C	0.906729	0.177527	0.399800
C243	C	1.240062	0.510860	0.733134
C244	C	0.573141	-0.180999	0.000080
C245	C	0.906475	0.152335	0.333414
C246	C	1.239808	0.485668	0.666747
O247	O	0.572584	-0.235573	0.122866
O248	O	0.905917	0.097761	0.456200
O249	O	1.239251	0.431094	0.789533
O250	O	0.572585	-0.235562	-0.122743
O251	O	0.905918	0.097771	0.210591
O252	O	1.239252	0.431104	0.543924
C253	C	0.570253	-0.463297	-0.066313
C254	C	0.903586	-0.129964	0.267020
C255	C	1.236919	0.203369	0.600354
C256	C	0.569986	-0.488513	0.000058
C257	C	0.903319	-0.155180	0.333391
C258	C	1.236652	0.178153	0.666724
C259	C	0.570236	-0.463318	0.066432
C260	C	0.903570	-0.129985	0.399766
C261	C	1.236903	0.203348	0.733099
C262	C	0.569472	-0.538928	0.000055
C263	C	0.902805	-0.205594	0.333388
C264	C	1.236139	0.127739	0.666721
C265	C	0.569221	-0.564123	-0.066320
C266	C	0.902555	-0.230790	0.267013
C267	C	1.235888	0.102544	0.600347
C268	C	0.569484	-0.538904	-0.132692
C269	C	0.902818	-0.205570	0.200642
C270	C	1.236151	0.127763	0.533975
C271	C	0.570002	-0.488493	-0.132688
C272	C	0.903335	-0.155159	0.200646
C273	C	1.236669	0.178174	0.533979
C274	C	0.569974	-0.488537	0.132804
C275	C	0.903307	-0.155204	0.466137
C276	C	1.236640	0.178129	0.799471
C277	C	0.569456	-0.538949	0.132795
C278	C	0.902790	-0.205615	0.466128
C279	C	1.236123	0.127718	0.799461
C280	C	0.569205	-0.564144	0.066420
C281	C	0.902539	-0.230811	0.399753
C282	C	1.235872	0.102523	0.733087
C283	C	0.658920	0.057701	0.000086
C284	C	0.992253	0.391034	0.333420
C285	C	1.325587	0.724368	0.666753
C286	C	0.712575	0.058254	0.000090
C287	C	1.045908	0.391587	0.333423
C288	C	1.379241	0.724920	0.666756
C289	C	0.566310	0.150296	0.000053
C290	C	0.899643	0.483629	0.333386
C291	C	1.232977	0.816963	0.666719
C292	C	0.566853	0.203952	0.000040
C293	C	0.900186	0.537286	0.333374
C294	C	1.233519	0.870619	0.666707
N295	N	0.570500	0.061884	0.189774
N296	N	0.903833	0.395217	0.523107
N297	N	1.237166	0.728551	0.856440
N298	N	0.570536	0.061892	-0.189627
N299	N	0.903869	0.395226	0.143706
N300	N	1.237202	0.728559	0.477040
C301	C	0.603624	0.028791	0.228095
C302	C	0.936958	0.362125	0.561428
C303	C	1.270291	0.695458	0.894762
C304	C	0.603627	0.028789	0.304740
C305	C	0.936961	0.362122	0.638073
C306	C	1.270294	0.695456	0.971407
C307	C	0.570510	0.061888	0.343060
C308	C	0.903844	0.395221	0.676394
C309	C	1.237177	0.728554	1.009727
C310	C	0.537379	0.094983	0.304730
C311	C	0.870713	0.428316	0.638063
C312	C	1.204046	0.761650	0.971396
C313	C	0.537374	0.094981	0.228086
C314	C	0.870707	0.428315	0.561420
C315	C	1.204041	0.761648	0.894753
N316	N	0.564030	0.104708	0.463382
N317	N	0.897363	0.438041	0.796715
N318	N	1.230697	0.771374	1.130049
N319	N	0.564038	0.104708	0.536190
N320	N	0.897371	0.438041	0.869524
N321	N	1.230705	0.771374	1.202857
C322	C	0.570524	0.061895	0.573983
C323	C	0.903857	0.395228	0.907316
C324	C	1.237190	0.728561	1.240649
N325	N	0.577011	0.019080	0.536217
N326	N	0.910344	0.352413	0.869550
N327	N	1.243677	0.685747	1.202884
N328	N	0.577005	0.019080	0.463402
N329	N	0.910339	0.352413	0.796735
N330	N	1.243672	0.685747	1.130069
C331	C	0.570512	0.061893	0.426167
C332	C	0.903846	0.395227	0.759501
C333	C	1.237179	0.728560	1.092834
C334	C	0.603654	0.028797	0.695411
C335	C	0.936987	0.362130	1.028745
C336	C	1.270320	0.695463	1.362078
C337	C	0.603654	0.028794	0.772058
C338	C	0.936987	0.362127	1.105391
C339	C	1.270320	0.695461	1.438724
C340	C	0.537408	0.094992	0.772046
C341	C	0.870741	0.428325	1.105380
C342	C	1.204074	0.761659	1.438713
C343	C	0.537406	0.094991	0.695401
C344	C	0.870739	0.428324	1.028735
C345	C	1.204072	0.761658	1.362068
C346	C	0.570531	0.061894	0.657089
C347	C	0.903865	0.395227	0.990422
C348	C	1.237198	0.728560	1.323755
H349	H	0.321264	0.144533	0.000048
H350	H	0.654597	0.477867	0.333381
H351	H	0.987930	0.811200	0.666714
H352	H	0.569242	-0.559476	0.186850
H353	H	0.902575	-0.226142	0.520184
H354	H	1.235909	0.107191	0.853517
C355	C	0.633051	-0.000594	0.422239
C356	C	0.966384	0.332739	0.755572
C357	C	1.299717	0.666072	1.088905
C358	C	0.640042	-0.007587	0.346876
C359	C	0.973375	0.325746	0.680209
C360	C	1.306709	0.659080	1.013542
H361	H	0.655530	-0.023053	0.448248
H362	H	0.988864	0.310280	0.781582
H363	H	1.322197	0.643613	1.114915
H364	H	0.638049	0.031630	0.434777
H365	H	0.971382	0.364964	0.768110
H366	H	1.304716	0.698297	1.101444
H367	H	0.600832	-0.005627	0.434802
H368	H	0.934165	0.327707	0.768135
H369	H	1.267499	0.661040	1.101469
H370	H	0.672260	-0.002551	0.334311
H371	H	1.005593	0.330782	0.667645
H372	H	1.338926	0.664115	1.000978
H373	H	0.635048	-0.039820	0.334332
H374	H	0.968381	0.293514	0.667666
H375	H	1.301714	0.626847	1.000999
H376	H	0.630596	0.001841	0.196903
H377	H	0.963929	0.335174	0.530236
H378	H	1.297263	0.668507	0.863570
H379	H	0.570832	-0.408179	-0.186733
H380	H	0.904165	-0.074845	0.146600
H381	H	1.237499	0.258488	0.479934
C382	C	0.569959	-0.493548	-0.263903
C383	C	0.903292	-0.160215	0.069430
C384	C	1.236626	0.173119	0.402764
C385	C	0.570291	-0.460779	-0.205651
C386	C	0.903624	-0.127446	0.127682
C387	C	1.236958	0.205888	0.461015
H388	H	0.570134	-0.476440	-0.308949
H389	H	0.903467	-0.143106	0.024384
H390	H	1.236800	0.190227	0.357717
H391	H	0.597956	-0.517109	-0.261135
H392	H	0.931289	-0.183775	0.072198
H393	H	1.264623	0.149558	0.405531
H394	H	0.541557	-0.509314	-0.261136
H395	H	0.874891	-0.175980	0.072198
H396	H	1.208224	0.157353	0.405531
H397	H	0.598695	-0.445016	-0.208416
H398	H	0.932028	-0.111683	0.124917
H399	H	1.265361	0.221651	0.458251
H400	H	0.542291	-0.437209	-0.208421
H401	H	0.875625	-0.103876	0.124913
H402	H	1.208958	0.229457	0.458246
H403	H	0.571706	-0.316779	0.186873
H404	H	0.905040	0.016555	0.520207
H405	H	1.238373	0.349888	0.853540
C406	C	0.567139	-0.765799	0.197632
C407	C	0.900472	-0.432466	0.530966
C408	C	1.233805	-0.099132	0.864299
C409	C	0.566813	-0.798567	0.139378
C410	C	0.900147	-0.465234	0.472711
C411	C	1.233480	-0.131900	0.806045
H412	H	0.566955	-0.782908	0.242677
H413	H	0.900288	-0.449574	0.576011
H414	H	1.233621	-0.116241	0.909344
H415	H	0.595538	-0.750036	0.194877
H416	H	0.928871	-0.416703	0.528210
H417	H	1.262204	-0.083369	0.861543
H418	H	0.539139	-0.742235	0.194856
H419	H	0.872472	-0.408901	0.528190
H420	H	1.205806	-0.075568	0.861523
H421	H	0.594815	-0.822129	0.142151
H422	H	0.928148	-0.488796	0.475484
H423	H	1.261482	-0.155463	0.808818
H424	H	0.538411	-0.814338	0.142135
H425	H	0.871745	-0.481004	0.475468
H426	H	1.205078	-0.147671	0.808802
H427	H	0.510399	0.121930	0.196884
H428	H	0.843733	0.455263	0.530218
H429	H	1.177066	0.788596	0.863551
H430	H	0.570178	-0.468029	0.186856
H431	H	0.903512	-0.134695	0.520189
H432	H	1.236845	0.198638	0.853522
C433	C	0.669131	-0.036641	0.703118
C434	C	1.002464	0.296693	1.036452
C435	C	1.335797	0.630026	1.369785
C436	C	0.640059	-0.007588	0.653292
C437	C	0.973392	0.325746	0.986625
C438	C	1.306726	0.659079	1.319959
H439	H	0.691603	-0.059105	0.677115
H440	H	1.024936	0.274229	1.010449
H441	H	1.358270	0.607562	1.343782
H442	H	0.686364	-0.016639	0.732999
H443	H	1.019698	0.316694	1.066333
H444	H	1.353031	0.650028	1.399666
H445	H	0.649140	-0.053888	0.733024
H446	H	0.982473	0.279445	1.066357
H447	H	1.315806	0.612778	1.399690
H448	H	0.660050	0.009663	0.623390
H449	H	0.993383	0.342996	0.956723
H450	H	1.326717	0.676329	1.290056
H451	H	0.622824	-0.027592	0.623398
H452	H	0.956157	0.305742	0.956732
H453	H	1.289491	0.639075	1.290065
H454	H	0.174715	0.187185	0.000037
H455	H	0.508048	0.520518	0.333371
H456	H	0.841381	0.853852	0.666704
H457	H	-0.271683	-0.021675	0.000102
H458	H	0.061651	0.311658	0.333435
H459	H	0.394984	0.644992	0.666768
C460	C	0.532905	-0.042958	0.143454
C461	C	0.866238	0.290376	0.476788
C462	C	1.199572	0.623709	0.810121
C463	C	0.574182	-0.077689	0.139430
C464	C	0.907515	0.255644	0.472764
C465	C	1.240849	0.588977	0.806097
H466	H	0.533067	-0.025853	0.188494
H467	H	0.866401	0.307480	0.521828
H468	H	1.199734	0.640813	0.855161
H469	H	0.533144	-0.020734	0.103922
H470	H	0.866477	0.312599	0.437255
H471	H	1.199811	0.645932	0.770589
H472	H	0.504510	-0.058733	0.140688
H473	H	0.837844	0.274600	0.474021
H474	H	1.171177	0.607933	0.807354
H475	H	0.602577	-0.061913	0.142191
H476	H	0.935910	0.271420	0.475525
H477	H	1.269244	0.604754	0.808858
H478	H	0.573948	-0.099916	0.178973
H479	H	0.907281	0.233417	0.512307
H480	H	1.240614	0.566751	0.845640
H481	H	0.510414	0.121932	0.335934
H482	H	0.843747	0.455265	0.669268
H483	H	1.177081	0.788599	1.002601
C484	C	-0.168275	0.154838	-0.062535
C485	C	0.165059	0.488171	0.270798
C486	C	0.498392	0.821504	0.604131
C487	C	-0.196891	0.151846	0.000059
C488	C	0.136442	0.485179	0.333392
C489	C	0.469776	0.818512	0.666726
H490	H	-0.155313	0.184930	-0.062546
H491	H	0.178020	0.518264	0.270787
H492	H	0.511353	0.851597	0.604121
H493	H	-0.142417	0.128818	-0.062520
H494	H	0.190916	0.462152	0.270813
H495	H	0.524250	0.795485	0.604146
H496	H	-0.187691	0.152801	-0.104991
H497	H	0.145643	0.486134	0.228342
H498	H	0.478976	0.819468	0.561676
H499	H	-0.177474	0.153879	0.042515
H500	H	0.155859	0.487212	0.375848
H501	H	0.489193	0.820545	0.709182
H502	H	-0.222752	0.177872	0.000050
H503	H	0.110581	0.511205	0.333384
H504	H	0.443914	0.844539	0.666717
C505	C	0.567593	-0.725466	-0.197550
C506	C	0.900926	-0.392132	0.135784
C507	C	1.234260	-0.058799	0.469117
C508	C	0.567921	-0.692698	-0.139295
C509	C	0.901255	-0.359365	0.194038
C510	C	1.234588	-0.026032	0.527372
H511	H	0.567767	-0.708355	-0.242594
H512	H	0.901100	-0.375022	0.090739
H513	H	1.234434	-0.041689	0.424072
H514	H	0.595591	-0.749025	-0.194782
H515	H	0.928924	-0.415691	0.138551
H516	H	1.262258	-0.082358	0.471884
H517	H	0.539192	-0.741233	-0.194785
H518	H	0.872526	-0.407900	0.138548
H519	H	1.205859	-0.074567	0.471882
H520	H	0.596324	-0.676933	-0.142057
H521	H	0.929657	-0.343600	0.191277
H522	H	1.262991	-0.010266	0.524610
H523	H	0.539920	-0.669130	-0.142064
H524	H	0.873254	-0.335797	0.191270
H525	H	1.206587	-0.002464	0.524603
H526	H	0.569282	-0.559427	-0.186736
H527	H	0.902616	-0.226093	0.146597
H528	H	1.235949	0.107240	0.479930
C529	C	0.614663	-0.037072	0.858262
C530	C	0.947996	0.296262	1.191596
C531	C	1.281330	0.629595	1.524929
C532	C	0.640067	-0.007586	0.814182
C533	C	0.973400	0.325747	1.147515
C534	C	1.306734	0.659080	1.480848
H535	H	0.637145	-0.059533	0.884264
H536	H	0.970478	0.273800	1.217597
H537	H	1.303811	0.607134	1.550930
H538	H	0.594943	-0.017363	0.892050
H539	H	0.928276	0.315971	1.225383
H540	H	1.261609	0.649304	1.558717
H541	H	0.594679	-0.054322	0.828364
H542	H	0.928012	0.279012	1.161698
H543	H	1.261345	0.612345	1.495031
H544	H	0.660049	0.009667	0.844080
H545	H	0.993382	0.343000	1.177414
H546	H	1.326716	0.676333	1.510747
H547	H	0.659796	-0.027298	0.780390
H548	H	0.993129	0.306036	1.113723
H549	H	1.326462	0.639369	1.447057
H550	H	0.510441	0.121940	0.803246
H551	H	0.843775	0.455273	1.136580
H552	H	1.177108	0.788607	1.469913
C553	C	0.309294	-0.031045	-0.062505
C554	C	0.642627	0.302288	0.270828
C555	C	0.975961	0.635621	0.604161
C556	C	0.337912	-0.028059	0.000081
C557	C	0.671245	0.305275	0.333414
C558	C	1.004579	0.638608	0.666747
H559	H	0.296327	-0.061135	-0.062494
H560	H	0.629660	0.272198	0.270840
H561	H	0.962994	0.605531	0.604173
H562	H	0.283440	-0.005022	-0.062501
H563	H	0.616774	0.328311	0.270832
H564	H	0.950107	0.661644	0.604165
H565	H	0.328710	-0.029012	-0.104967
H566	H	0.662044	0.304321	0.228367
H567	H	0.995377	0.637655	0.561700
H568	H	0.318495	-0.030088	0.042542
H569	H	0.651828	0.303245	0.375876
H570	H	0.985162	0.636578	0.709209
H571	H	0.363770	-0.054089	0.000084
H572	H	0.697103	0.279244	0.333417
H573	H	1.030436	0.612578	0.666750
H574	H	0.510434	0.121940	0.664198
H575	H	0.843768	0.455273	0.997531
H576	H	1.177101	0.788607	1.330865
H577	H	0.412716	0.145458	0.000027
H578	H	0.746049	0.478791	0.333360
H579	H	1.079382	0.812125	0.666693
H580	H	0.057772	-0.062463	0.000123
H581	H	0.391105	0.270870	0.333457
H582	H	0.724438	0.604203	0.666790
C583	C	0.101781	0.237760	0.000024
C584	C	0.435114	0.571094	0.333357
C585	C	0.768448	0.904427	0.666691
C586	C	0.074348	0.198744	0.000040
C587	C	0.407681	0.532077	0.333373
C588	C	0.741015	0.865410	0.666706
H589	H	0.080546	0.267504	0.000004
H590	H	0.413879	0.600837	0.333338
H591	H	0.747213	0.934171	0.666671
H592	H	0.121693	0.236125	0.042486
H593	H	0.455026	0.569458	0.375819
H594	H	0.788359	0.902791	0.709152
H595	H	0.121704	0.236116	-0.042437
H596	H	0.455037	0.569450	0.290896
H597	H	0.788371	0.902783	0.624230
H598	H	0.054427	0.200386	0.042503
H599	H	0.387761	0.533719	0.375837
H600	H	0.721094	0.867052	0.709170
H601	H	0.054428	0.200380	-0.042426
H602	H	0.387761	0.533713	0.290907
H603	H	0.721095	0.867047	0.624240
C604	C	0.573434	-0.150763	0.197687
C605	C	0.906767	0.182570	0.531020
C606	C	1.240101	0.515903	0.864353
C607	C	0.573103	-0.183527	0.139427
C608	C	0.906437	0.149806	0.472761
C609	C	1.239770	0.483140	0.806094
H610	H	0.573247	-0.167874	0.242729
H611	H	0.906581	0.165459	0.576062
H612	H	1.239914	0.498792	0.909396
H613	H	0.601836	-0.135005	0.194933
H614	H	0.935169	0.198328	0.528267
H615	H	1.268503	0.531662	0.861600
H616	H	0.545437	-0.127195	0.194913
H617	H	0.878771	0.206138	0.528247
H618	H	1.212104	0.539472	0.861580
H619	H	0.601102	-0.207093	0.142198
H620	H	0.934435	0.126240	0.475531
H621	H	1.267769	0.459573	0.808864
H622	H	0.544698	-0.199293	0.142182
H623	H	0.878032	0.134040	0.475515
H624	H	1.211365	0.467373	0.808849
C625	C	0.566326	-0.848103	-0.125275
C626	C	0.899659	-0.514769	0.208059
C627	C	1.232993	-0.181436	0.541392
C628	C	0.566835	-0.798529	-0.139298
C629	C	0.900169	-0.465196	0.194035
C630	C	1.233502	-0.131862	0.527369
H631	H	0.566147	-0.865203	-0.170316
H632	H	0.899480	-0.531870	0.163017
H633	H	1.232813	-0.198537	0.496351
H634	H	0.594439	-0.860264	-0.098009
H635	H	0.927772	-0.526930	0.235324
H636	H	1.261106	-0.193597	0.568658
H637	H	0.538041	-0.852461	-0.097998
H638	H	0.871374	-0.519128	0.235336
H639	H	1.204707	-0.185794	0.568669
H640	H	0.595123	-0.794170	-0.166570
H641	H	0.928456	-0.460837	0.166763
H642	H	1.261789	-0.127503	0.500097
H643	H	0.538719	-0.786364	-0.166575
H644	H	0.872052	-0.453031	0.166758
H645	H	1.205386	-0.119697	0.500091
H646	H	-0.180232	-0.020747	0.000114
H647	H	0.153101	0.312586	0.333447
H648	H	0.486434	0.645919	0.666780
C649	C	-0.351005	0.140946	0.000078
C650	C	-0.017672	0.474279	0.333412
C651	C	0.315662	0.807613	0.666745
C652	C	-0.302721	0.150766	0.000074
C653	C	0.030613	0.484099	0.333407
C654	C	0.363946	0.817432	0.666740
H655	H	-0.372249	0.170684	0.000083
H656	H	-0.038915	0.504018	0.333416
H657	H	0.294418	0.837351	0.666749
H658	H	-0.356758	0.122757	-0.042379
H659	H	-0.023424	0.456091	0.290954
H660	H	0.309909	0.789424	0.624287
H661	H	-0.356756	0.122743	0.042543
H662	H	-0.023422	0.456077	0.375877
H663	H	0.309911	0.789410	0.709210
H664	H	-0.296969	0.168965	-0.042394
H665	H	0.036364	0.502299	0.290939
H666	H	0.369698	0.835632	0.624272
H667	H	-0.296966	0.168962	0.042535
H668	H	0.036368	0.502295	0.375869
H669	H	0.369701	0.835629	0.709202
C670	C	0.083515	-0.077497	-0.062454
C671	C	0.416848	0.255837	0.270879
C672	C	0.750181	0.589170	0.604212
C673	C	0.112125	-0.074499	0.000137
C674	C	0.445459	0.258835	0.333470
C675	C	0.778792	0.592168	0.666803
H676	H	0.070557	-0.107592	-0.062442
H677	H	0.403890	0.225742	0.270891
H678	H	0.737223	0.559075	0.604225
H679	H	0.057654	-0.051480	-0.062458
H680	H	0.390987	0.281853	0.270876
H681	H	0.724321	0.615186	0.604209
H682	H	0.102933	-0.075460	-0.104912
H683	H	0.436266	0.257873	0.228421
H684	H	0.769600	0.591207	0.561754
H685	H	0.092706	-0.076532	0.042595
H686	H	0.426039	0.256802	0.375928
H687	H	0.759372	0.590135	0.709262
H688	H	0.137989	-0.100522	0.000147
H689	H	0.471323	0.232811	0.333480
H690	H	0.804656	0.566144	0.666813
C691	C	0.190515	-0.112439	0.000139
C692	C	0.523848	0.220895	0.333472
C693	C	0.857182	0.554228	0.666806
C694	C	0.217942	-0.073417	0.000128
C695	C	0.551275	0.259916	0.333461
C696	C	0.884609	0.593249	0.666795
H697	H	0.211754	-0.142180	0.000138
H698	H	0.545087	0.191153	0.333472
H699	H	0.878421	0.524487	0.666805
H700	H	0.170600	-0.110805	0.042600
H701	H	0.503934	0.222528	0.375934
H702	H	0.837267	0.555861	0.709267
H703	H	0.170595	-0.110798	-0.042322
H704	H	0.503928	0.222535	0.291011
H705	H	0.837262	0.555869	0.624344
H706	H	0.237859	-0.075056	0.042592
H707	H	0.571193	0.258277	0.375926
H708	H	0.904526	0.591611	0.709259
H709	H	0.237865	-0.075051	-0.042337
H710	H	0.571198	0.258282	0.290996
H711	H	0.904531	0.591615	0.624329
H712	H	0.434830	-0.014493	0.000070
H713	H	0.768163	0.318841	0.333403
H714	H	1.101496	0.652174	0.666736
H715	H	0.023479	0.185648	0.000056
H716	H	0.356813	0.518981	0.333389
H717	H	0.690146	0.852315	0.666723
H718	H	-0.067981	0.184713	0.000063
H719	H	0.265352	0.518046	0.333396
H720	H	0.598685	0.851379	0.666730
H721	H	-0.033676	-0.063394	0.000126
H722	H	0.299657	0.269940	0.333459
H723	H	0.632991	0.603273	0.666792
H724	H	0.574147	-0.084839	-0.120329
H725	H	0.907480	0.248495	0.213005
H726	H	1.240814	0.581828	0.546338
C727	C	0.573462	-0.150680	-0.197505
C728	C	0.906795	0.182654	0.135829
C729	C	1.240129	0.515987	0.469162
C730	C	0.573121	-0.183468	-0.139257
C731	C	0.906454	0.149866	0.194076
C732	C	1.239788	0.483199	0.527409
H733	H	0.573286	-0.167773	-0.242553
H734	H	0.906620	0.165561	0.090780
H735	H	1.239953	0.498894	0.424113
H736	H	0.545469	-0.127115	-0.194734
H737	H	0.878802	0.206218	0.138599
H738	H	1.212135	0.539552	0.471932
H739	H	0.601867	-0.134921	-0.194734
H740	H	0.935201	0.198412	0.138599
H741	H	1.268534	0.531746	0.471933
H742	H	0.544713	-0.199224	-0.142025
H743	H	0.878047	0.134109	0.191309
H744	H	1.211380	0.467443	0.524642
H745	H	0.601117	-0.207041	-0.142029
H746	H	0.934450	0.126292	0.191304
H747	H	1.267784	0.459626	0.524638
H748	H	0.571772	-0.316733	-0.186726
H749	H	0.905105	0.016601	0.146607
H750	H	1.238439	0.349934	0.479940
H751	H	0.567820	-0.699929	0.120475
H752	H	0.901153	-0.366596	0.453808
H753	H	1.234487	-0.033263	0.787142
H754	H	0.570782	-0.408231	0.186871
H755	H	0.904116	-0.074897	0.520205
H756	H	1.237449	0.258436	0.853538
