data_functionalizedCrystal
_audit_creation_method	'MofGen! by Chris Wilmer'
_symmetry_space_group_name_H-M	'P1'
_symmetry_Int_Tables_number	1
_symmetry_cell_setting	triclinic
loop_
_symmetry_equiv_pos_as_xyz
  x,y,z
_cell_length_a	12.784905
_cell_length_b	11.792241
_cell_length_c	11.295483
_cell_angle_alpha	94.123059
_cell_angle_beta	86.327249
_cell_angle_gamma	78.650367
loop_
_atom_site_label
_atom_site_type_symbol
_atom_site_fract_x
_atom_site_fract_y
_atom_site_fract_z
O1	O	1.417468	-0.001239	-0.099032
O2	O	1.108293	0.047339	-0.099033
O3	O	1.270382	-0.142909	-0.099024
O4	O	1.255378	0.189010	-0.099041
O5	O	1.256146	-0.126223	0.099026
O6	O	1.094056	0.064026	0.099017
O7	O	1.403231	0.015447	0.099018
Cu8	Cu	1.247343	0.041260	0.117101
Cu9	Cu	1.264180	0.021527	-0.117116
O10	O	1.241141	0.205696	0.099009
C11	C	1.061593	0.058842	-0.000008
C12	C	0.943654	0.068242	-0.000008
C13	C	0.746167	-0.123282	-0.000020
C14	C	0.635353	-0.114455	-0.000020
C15	C	0.611210	0.094722	-0.000017
C16	C	0.722024	0.085895	-0.000017
C17	C	0.789499	-0.023111	-0.000017
C18	C	0.900314	-0.031936	-0.000008
C19	C	0.876171	0.177239	-0.000014
C20	C	0.765356	0.186066	-0.000014
C21	C	1.262322	-0.176758	0.000001
C22	C	1.259500	-0.302475	-0.000001
C23	C	1.254314	-0.532643	-0.000020
C24	C	1.257196	-0.404560	-0.000010
C25	C	1.449931	0.003945	-0.000009
C26	C	1.567871	-0.005456	-0.000017
C27	C	1.249202	0.239544	-0.000018
C28	C	1.252024	0.365261	-0.000025
N29	N	1.235509	0.055138	0.281837
N30	N	1.276023	0.007639	-0.281852
C31	C	1.361212	-0.092327	0.531133
C32	C	1.352276	-0.081832	0.655796
C33	C	1.208698	0.086618	0.655829
C34	C	1.217633	0.076123	0.531165
C35	C	1.293894	-0.013352	0.468822
C36	C	1.302834	-0.023841	0.344157
C37	C	1.159251	0.144603	0.344191
C38	C	1.150315	0.155098	0.468854
H39	H	0.556255	0.183467	-0.000034
C40	C	1.022431	0.174474	0.694275
C41	C	1.124866	0.184945	0.724380
H42	H	0.970676	0.235171	0.736605
H43	H	1.018120	0.179550	0.611125
H44	H	1.009021	0.101605	0.714697
H45	H	1.138279	0.257810	0.703950
H46	H	1.129180	0.179879	0.807548
H47	H	1.364932	-0.096692	0.293398
H48	H	1.088222	0.227944	0.519629
C49	C	1.100761	0.343871	0.305833
C50	C	1.085249	0.231426	0.275699
H51	H	1.055083	0.397471	0.263543
H52	H	1.084523	0.362911	0.388991
H53	H	1.173196	0.347494	0.285380
H54	H	1.012816	0.227801	0.296160
H55	H	1.101480	0.212381	0.192523
C56	C	1.425239	-0.298050	0.492691
C57	C	1.445038	-0.190656	0.462578
H58	H	1.476988	-0.358749	0.450357
H59	H	1.429569	-0.303113	0.575840
H60	H	1.355735	-0.305126	0.472280
H61	H	1.514539	-0.183577	0.482998
H62	H	1.440718	-0.185591	0.379410
C63	C	0.913045	-0.237811	-0.000032
C64	C	0.974486	-0.151753	-0.000018
H65	H	0.958837	-0.311783	-0.000050
H66	H	0.864363	-0.224210	0.069030
H67	H	0.874280	-0.235815	-0.069099
H68	H	1.013245	-0.153743	0.069054
H69	H	1.023187	-0.165358	-0.069087
H70	H	0.600077	-0.196025	-0.000025
C71	C	0.584765	0.292478	-0.000005
C72	C	0.691182	0.305881	-0.000006
H73	H	0.538975	0.366450	0.000010
H74	H	0.576533	0.245151	-0.069070
H75	H	0.566611	0.256758	0.069059
H76	H	0.709338	0.341592	-0.069075
H77	H	0.699418	0.353225	0.069066
C78	C	1.035321	0.256591	-0.000056
C79	C	0.923805	0.287354	-0.000044
H80	H	1.064727	0.324570	-0.000088
H81	H	1.053474	0.218014	0.069013
H82	H	1.063390	0.206340	-0.069116
H83	H	0.895736	0.337599	0.069020
H84	H	0.905643	0.325950	-0.069121
H85	H	0.801105	-0.212038	-0.000011
H86	H	1.407092	-0.146143	0.706527
