data_functionalizedCrystal
_audit_creation_method	'MofGen! by Chris Wilmer'
_symmetry_space_group_name_H-M	'P1'
_symmetry_Int_Tables_number	1
_symmetry_cell_setting	triclinic
loop_
_symmetry_equiv_pos_as_xyz
  x,y,z
_cell_length_a	27.440280
_cell_length_b	27.440280
_cell_length_c	27.440280
_cell_angle_alpha	59.997919
_cell_angle_beta	90.008670
_cell_angle_gamma	60.004534
loop_
_atom_site_label
_atom_site_type_symbol
_atom_site_fract_x
_atom_site_fract_y
_atom_site_fract_z
Zr1	Zr	0.469562	0.533341	-0.063891
O2	O	0.391745	0.635020	-0.141718
O3	O	0.493407	0.431674	-0.040034
O4	O	0.493407	0.533346	-0.141707
O5	O	0.391757	0.533340	0.040156
O6	O	0.573610	0.533337	-0.141697
O7	O	0.391746	0.533348	-0.040046
O8	O	0.573611	0.351464	0.040177
O9	O	0.391756	0.715212	-0.141717
O10	O	0.563443	0.473480	-0.029851
O11	O	0.503596	0.473481	0.029996
O12	O	0.503596	0.593186	-0.089711
O13	O	0.443749	0.593187	-0.029864
Zr14	Zr	0.597493	0.533313	0.064038
Zr15	Zr	0.597476	0.533326	-0.063875
Zr16	Zr	0.469579	0.533328	0.064022
Zr17	Zr	0.469578	0.661239	-0.063890
Zr18	Zr	0.597477	0.405416	0.064036
O19	O	0.573647	0.634980	0.040180
O20	O	0.573623	0.634998	-0.141696
O21	O	0.391770	0.635001	0.040158
O22	O	0.675309	0.431635	0.141865
O23	O	0.675285	0.431653	-0.040011
O24	O	0.493432	0.431656	0.141842
O25	O	0.675298	0.533315	-0.040010
O26	O	0.573648	0.533308	0.141853
O27	O	0.493445	0.533318	0.141843
O28	O	0.675309	0.533307	0.040192
O29	O	0.493430	0.715200	-0.141705
O30	O	0.573624	0.351454	0.141851
O31	O	0.675299	0.351442	0.141864
O32	O	0.675285	0.351453	0.040190
O33	O	0.391769	0.715202	-0.040044
O34	O	0.493444	0.715190	-0.040031
O35	O	0.563459	0.473468	0.089857
O36	O	0.623305	0.473467	0.030011
O37	O	0.563458	0.593173	-0.029849
O38	O	0.503612	0.593174	0.029997
C39	C	0.533507	0.373347	0.000071
C40	C	0.533500	0.319051	0.000071
C41	C	0.564783	-0.017692	-0.031161
C42	C	0.564788	-0.068716	-0.031159
O43	O	0.591374	-0.095122	-0.057709
N44	N	0.533549	-0.094231	0.000079
C45	C	0.502307	-0.068725	0.031322
O46	O	0.475736	-0.095114	0.057893
C47	C	0.502305	-0.017706	0.031324
C48	C	0.533542	0.007812	0.000079
C49	C	0.596018	0.007826	-0.062403
C50	C	0.596011	0.058847	-0.062405
C51	C	0.564770	0.084351	-0.031166
C52	C	0.533535	0.058833	0.000076
C53	C	0.471067	0.007796	0.062570
C54	C	0.471068	0.058818	0.062569
C55	C	0.502305	0.084336	0.031324
C56	C	0.502288	0.135359	0.031313
N57	N	0.533527	0.160874	0.000075
C58	C	0.564769	0.135370	-0.031164
C59	C	0.502313	-0.175870	0.031317
C60	C	0.502311	-0.226886	0.031313
C61	C	0.564794	-0.226873	-0.031168
C62	C	0.564792	-0.175854	-0.031166
C63	C	0.533553	-0.150355	0.000079
C64	C	0.564752	0.242519	-0.031167
C65	C	0.564741	0.293547	-0.031169
C66	C	0.502261	0.293528	0.031314
C67	C	0.502269	0.242507	0.031313
C68	C	0.533519	0.217002	0.000072
O69	O	0.475717	0.161796	0.057851
O70	O	0.591341	0.161759	-0.057724
C71	C	0.373526	0.533346	0.000053
C72	C	0.319223	0.533352	0.000046
C73	C	0.013765	0.470830	0.031336
C74	C	-0.037253	0.470826	0.031341
O75	O	-0.037073	0.417685	0.057933
N76	N	-0.094010	0.533311	0.000094
C77	C	-0.099747	0.595804	-0.031155
O78	O	-0.152707	0.648952	-0.057732
C79	C	-0.048729	0.595807	-0.031156
C80	C	0.008027	0.533318	0.000088
C81	C	0.070518	0.408346	0.062578
C82	C	0.121533	0.408351	0.062572
C83	C	0.115795	0.470838	0.031323
C84	C	0.059042	0.533322	0.000081
C85	C	-0.054467	0.658299	-0.062402
C86	C	-0.003443	0.658297	-0.062400
C87	C	0.053313	0.595808	-0.031156
C88	C	0.104318	0.595814	-0.031173
N89	N	0.161074	0.533329	0.000073
C90	C	0.166813	0.470841	0.031322
C91	C	-0.206885	0.595793	-0.031149
C92	C	-0.257903	0.595790	-0.031151
C93	C	-0.195406	0.470813	0.031346
C94	C	-0.144388	0.470816	0.031345
C95	C	-0.150129	0.533308	0.000098
C96	C	0.273945	0.470855	0.031306
C97	C	0.324962	0.470864	0.031295
C98	C	0.262460	0.595842	-0.031200
C99	C	0.211448	0.595833	-0.031192
C100	C	0.217194	0.533334	0.000066
O101	O	0.104184	0.648929	-0.057750
O102	O	0.219775	0.417703	0.057901
C103	C	0.693528	0.533308	0.000093
C104	C	0.747831	0.533302	0.000100
C105	C	0.533506	0.533343	-0.159927
C106	C	0.533498	0.533349	-0.214229
C107	C	0.533548	0.693308	0.000075
C108	C	0.533555	0.747604	0.000076
C109	C	0.577728	0.533307	-0.550921
C110	C	0.577733	0.533302	-0.601939
O111	O	0.615324	0.533271	-0.628309
N112	N	0.533548	0.533308	-0.627462
C113	C	0.489359	0.533312	-0.601961
O114	O	0.451777	0.533317	-0.628355
C115	C	0.489356	0.533312	-0.550942
C116	C	0.533541	0.533313	-0.525425
C117	C	0.621909	0.533306	-0.525403
C118	C	0.621903	0.533313	-0.474390
C119	C	0.577716	0.533319	-0.448894
C120	C	0.533535	0.533319	-0.474411
C121	C	0.445170	0.533312	-0.525440
C122	C	0.445172	0.533311	-0.474417
C123	C	0.489356	0.533312	-0.448899
C124	C	0.489341	0.533332	-0.397901
N125	N	0.533526	0.533326	-0.372378
C126	C	0.577713	0.533319	-0.397874
C127	C	0.489368	0.533311	-0.709105
C128	C	0.489367	0.533316	-0.760126
C129	C	0.577742	0.533304	-0.760099
C130	C	0.577740	0.533304	-0.709080
C131	C	0.533552	0.533305	-0.683582
C132	C	0.577697	0.533333	-0.290742
C133	C	0.577686	0.533342	-0.239725
C134	C	0.489312	0.533351	-0.239755
C135	C	0.489322	0.533345	-0.290769
C136	C	0.533519	0.533334	-0.316260
O137	O	0.451772	0.533360	-0.371497
O138	O	0.615294	0.533306	-0.371470
C139	C	0.533549	0.533311	0.160073
C140	C	0.533556	0.533306	0.214375
C141	C	0.693508	0.373328	0.000091
C142	C	0.747804	0.319026	0.000097
C143	C	0.533528	0.373331	0.160071
C144	C	0.533529	0.319029	0.214373
C145	C	0.693529	0.373312	0.160091
C146	C	0.747833	0.319004	0.214400
C147	C	0.373525	0.693343	-0.159945
C148	C	0.319222	0.747650	-0.214253
C149	C	0.373547	0.693326	0.000055
C150	C	0.319251	0.747629	0.000049
C151	C	0.533526	0.693324	-0.159925
C152	C	0.533526	0.747625	-0.214227
C153	C	0.742054	0.293532	-0.031152
C154	C	0.793066	0.242516	-0.031158
C155	C	0.849827	0.216992	0.000089
C156	C	0.855575	0.242491	0.031339
C157	C	0.804564	0.293509	0.031342
C158	C	0.564776	0.293522	0.271126
C159	C	0.564774	0.242507	0.322153
C160	C	0.533528	0.216997	0.316426
C161	C	0.502276	0.242509	0.259667
C162	C	0.502275	0.293527	0.208641
C163	C	0.804579	0.293500	0.208664
C164	C	0.855607	0.242479	0.259688
C165	C	0.849888	0.216960	0.316447
C166	C	0.793137	0.242469	0.322181
C167	C	0.742109	0.293492	0.271158
C168	C	0.262476	0.773161	-0.208518
C169	C	0.211447	0.824197	-0.259542
C170	C	0.217166	0.849719	-0.316301
C171	C	0.273918	0.824207	-0.322035
C172	C	0.324945	0.773175	-0.271011
C173	C	0.325001	0.773128	0.031293
C174	C	0.273989	0.824158	0.031285
C175	C	0.217228	0.849684	0.000036
C176	C	0.211479	0.824182	-0.031212
C177	C	0.262490	0.773157	-0.031207
C178	C	0.564779	0.773119	-0.208480
C179	C	0.564790	0.824134	-0.259498
C180	C	0.533545	0.849658	-0.316261
C181	C	0.502291	0.824159	-0.322006
C182	C	0.502284	0.773141	-0.270989
H183	H	0.621449	0.079619	-0.087845
H184	H	0.175696	0.891232	0.000037
H185	H	0.476867	-0.247650	0.056748
H186	H	0.278567	0.844994	-0.368254
H187	H	0.476836	0.221732	0.255013
H188	H	0.165258	0.844973	-0.056654
Br189	Br	0.812356	0.328126	0.131641
H190	H	0.165243	0.844961	-0.254861
Br191	Br	0.665099	0.328096	0.278952
H192	H	0.371149	0.752405	-0.275688
Br193	Br	0.607191	0.328128	0.278915
H194	H	0.533556	0.891200	-0.357797
H195	H	0.590239	0.844890	-0.254808
H196	H	0.476852	0.844949	-0.368230
H197	H	0.257801	0.752397	-0.056648
H198	H	0.788374	0.221761	-0.056606
H199	H	0.476831	0.752390	-0.275676
Br200	Br	0.607188	0.738491	-0.131451
Br201	Br	0.919051	0.147752	0.000080
Br202	Br	0.402027	0.738499	0.073706
Br203	Br	0.919147	0.147713	0.385688
H204	H	0.476831	0.314288	0.162432
H205	H	0.453338	0.533355	-0.311550
Br206	Br	0.932613	0.207842	0.073746
Br207	Br	-0.214687	0.680612	-0.073563
Br208	Br	0.785386	0.207828	0.399215
Br209	Br	0.932620	0.207869	0.251892
H210	H	0.476868	-0.155107	0.056758
Br211	Br	0.428671	0.093419	0.104979
Br212	Br	0.607133	0.328179	-0.073579
H213	H	0.590200	0.221758	-0.056606
H214	H	0.621461	-0.012937	-0.087841
H215	H	0.613666	0.533345	-0.218952
Br216	Br	0.254698	0.738533	-0.131495
Br217	Br	0.281804	0.858755	0.073698
Br218	Br	0.147908	0.918978	-0.385542
Br219	Br	0.665028	0.328162	-0.073566
H220	H	0.613719	0.533304	-0.688306
H221	H	0.453380	0.533317	-0.688350
Br222	Br	0.607187	-0.141228	-0.073571
Br223	Br	0.607191	0.207893	0.399176
H224	H	0.590233	-0.247649	-0.056604
H225	H	0.445631	-0.012973	0.088014
H226	H	0.476826	0.221737	0.056748
Br227	Br	0.198553	0.323539	0.104981
H228	H	0.476823	0.314304	0.056746
Br229	Br	0.281752	0.386034	0.073726
Br230	Br	0.078321	0.323530	0.104995
Br231	Br	0.401987	0.386052	0.073697
H232	H	-0.098178	0.419932	0.056792
H233	H	-0.190741	0.419931	0.056788
H234	H	0.409191	0.533311	-0.546208
Br235	Br	-0.334924	0.680600	-0.073566
Br236	Br	-0.131482	0.743111	-0.104802
H237	H	0.533534	0.175456	0.357980
H238	H	0.809254	0.314260	0.056792
H239	H	-0.008124	0.709187	-0.087838
Br240	Br	0.681872	0.533308	-0.439762
Br241	Br	0.134421	0.680639	-0.073609
H242	H	0.453383	0.533326	-0.780904
Br243	Br	0.254684	0.680643	-0.073597
Br244	Br	0.385201	0.533308	-0.439814
H245	H	0.613687	0.533323	-0.311491
H246	H	0.453334	0.533359	-0.218989
Br247	Br	0.637711	0.533295	-0.794712
Br248	Br	0.681886	0.533296	-0.559996
