data_functionalizedCrystal
_audit_creation_method	'MofGen! by Chris Wilmer'
_symmetry_space_group_name_H-M	'P1'
_symmetry_Int_Tables_number	1
_symmetry_cell_setting	triclinic
loop_
_symmetry_equiv_pos_as_xyz
  x,y,z
_cell_length_a	10.654550
_cell_length_b	17.699104
_cell_length_c	9.130313
_cell_angle_alpha	89.997823
_cell_angle_beta	89.996220
_cell_angle_gamma	83.888210
loop_
_atom_site_label
_atom_site_type_symbol
_atom_site_fract_x
_atom_site_fract_y
_atom_site_fract_z
O1	O	1.665987	0.106298	-0.121923
O2	O	1.300332	0.116426	-0.121900
O3	O	1.493476	0.001239	-0.121899
O4	O	1.472842	0.221485	-0.121924
O5	O	1.493474	0.001243	0.121700
O6	O	1.300330	0.116429	0.121699
O7	O	1.665984	0.106301	0.121676
Cu8	Cu	1.483157	0.111365	0.143930
Cu9	Cu	1.483160	0.111362	-0.144154
O10	O	1.472840	0.221488	0.121675
C11	C	1.253546	0.115684	-0.000097
C12	C	1.114141	0.113459	-0.000088
C13	C	1.033477	0.181279	-0.000117
C14	C	0.902492	0.179184	-0.000142
C15	C	0.932850	0.041443	-0.000115
C16	C	1.063832	0.043539	-0.000080
C17	C	1.015949	0.260803	-0.000139
C18	C	0.884965	0.258707	-0.000164
C19	C	1.492731	-0.026960	-0.000099
C20	C	1.490500	-0.110992	-0.000099
C21	C	1.591287	-0.635222	-0.000147
C22	C	1.593376	-0.556265	-0.000134
C23	C	1.479993	-0.508368	-0.000123
C24	C	1.364514	-0.539432	-0.000111
C25	C	1.362426	-0.618388	-0.000113
C26	C	1.372931	-0.221013	-0.000099
C27	C	1.375028	-0.142052	-0.000101
C28	C	1.603882	-0.158890	-0.000120
C29	C	1.601794	-0.237846	-0.000122
C30	C	1.486315	-0.268903	-0.000102
C31	C	1.484051	-0.354517	-0.000113
C32	C	1.482256	-0.422755	-0.000122
C33	C	1.712770	0.107043	-0.000130
C34	C	1.852175	0.109268	-0.000149
C35	C	1.473585	0.249688	-0.000128
C36	C	1.475816	0.333719	-0.000139
N37	N	1.483164	0.111368	0.346552
N38	N	1.483162	0.111354	-0.346777
C39	C	1.568710	0.060381	0.423205
C40	C	1.568706	0.060371	0.576542
C41	C	1.397607	0.162343	0.576560
C42	C	1.397606	0.162348	0.423226
C43	C	1.667496	0.001510	0.423195
C44	C	1.667493	0.001501	0.576532
H45	H	1.051166	0.286123	-0.105314
C46	C	1.721718	-0.733772	-0.125393
C47	C	1.715925	-0.687866	-0.000163
H48	H	1.798671	-0.766266	-0.125402
H49	H	1.652660	-0.763570	-0.125380
H50	H	1.717774	-0.702609	-0.210329
H51	H	1.719859	-0.719029	0.084773
H52	H	1.785002	-0.658065	-0.000163
H53	H	1.697910	-0.133594	-0.000155
H54	H	1.129505	-0.011687	-0.000035
C55	C	0.918362	-0.076601	0.125125
C56	C	0.877543	-0.035410	-0.000115
H57	H	0.884212	-0.124046	0.125124
H58	H	1.007903	-0.085057	0.125134
H59	H	0.890631	-0.048637	0.210054
H60	H	0.905282	-0.063372	-0.085045
H61	H	0.787983	-0.026956	-0.000138
H62	H	1.694122	-0.276840	-0.000138
C63	C	0.947400	0.326148	0.220928
C64	C	1.054828	0.302785	0.137485
H65	H	0.971407	0.352060	0.305894
H66	H	0.890577	0.359267	0.164275
H67	H	0.907371	0.282958	0.249227
H68	H	1.094852	0.345976	0.109178
H69	H	1.111672	0.269664	0.194150
C70	C	1.819384	-0.580839	-0.000166
C71	C	1.720306	-0.522125	-0.000144
H72	H	1.897747	-0.559761	-0.000178
H73	H	1.813809	-0.611288	0.084772
H74	H	1.813798	-0.611280	-0.085125
H75	H	1.725886	-0.491688	0.084821
H76	H	1.725883	-0.491664	-0.085091
C77	C	1.148585	-0.133334	-0.000048
C78	C	1.250387	-0.089402	-0.000075
H79	H	1.071645	-0.100828	-0.000024
H80	H	1.152518	-0.164476	-0.084991
H81	H	1.152544	-0.164483	0.084906
H82	H	1.246434	-0.058256	-0.085035
H83	H	1.246453	-0.058246	0.084877
C84	C	1.237810	-0.300024	-0.125322
C85	C	1.245997	-0.255143	-0.000099
H86	H	1.159444	-0.321099	-0.125317
H87	H	1.243388	-0.269571	-0.210253
H88	H	1.305036	-0.339851	-0.125305
H89	H	1.178776	-0.215313	-0.000121
H90	H	1.240407	-0.285598	0.084854
H91	H	0.842712	0.288669	-0.102121
C92	C	1.529998	-0.069112	0.281823
C93	C	1.639890	-0.077014	0.367011
H94	H	1.512957	-0.117587	0.247135
H95	H	1.461147	-0.047605	0.339636
H96	H	1.541374	-0.036792	0.200910
H97	H	1.628511	-0.109329	0.447931
H98	H	1.708758	-0.098531	0.309196
C99	C	1.266093	-0.410924	-0.000112
C100	C	1.239879	-0.486786	-0.000102
H101	H	1.189145	-0.378425	-0.000120
H102	H	1.313441	-0.401447	0.084828
H103	H	1.313455	-0.401450	-0.085070
H104	H	1.192525	-0.496261	0.084861
H105	H	1.192511	-0.496267	-0.085051
H106	H	0.838875	0.282742	0.105001
H107	H	1.327937	0.203859	0.360817
C108	C	1.505440	-0.082561	0.593350
C109	C	1.627631	-0.072722	0.640720
H110	H	1.480844	-0.128387	0.632966
H111	H	1.448520	-0.040914	0.625514
H112	H	1.504094	-0.085067	0.489440
H113	H	1.628974	-0.070210	0.744630
H114	H	1.684565	-0.114379	0.608564
C115	C	1.136416	-0.593819	-0.000117
C116	C	1.235496	-0.652531	-0.000117
H117	H	1.058054	-0.614898	-0.000125
H118	H	1.141986	-0.563378	0.084827
H119	H	1.142002	-0.563370	-0.085070
H120	H	1.229916	-0.682976	0.084842
H121	H	1.229923	-0.682985	-0.085070
C122	C	1.180081	0.205554	0.623794
C123	C	1.303567	0.218378	0.660849
H124	H	1.122025	0.240146	0.675838
H125	H	1.167847	0.212861	0.521517
H126	H	1.166620	0.154960	0.648922
H127	H	1.317031	0.268971	0.635711
H128	H	1.315806	0.211078	0.763150
C129	C	1.870718	0.042722	0.473177
C130	C	1.790158	0.026387	0.358967
H131	H	1.946445	0.058076	0.433521
H132	H	1.830367	0.082515	0.531726
H133	H	1.889991	-0.001355	0.531727
H134	H	1.770877	0.070466	0.300423
H135	H	1.830516	-0.013409	0.300393
H136	H	1.763779	0.014468	0.618141
