data_functionalizedCrystal
_audit_creation_method	'MofGen! by Chris Wilmer'
_symmetry_space_group_name_H-M	'P1'
_symmetry_Int_Tables_number	1
_symmetry_cell_setting	triclinic
loop_
_symmetry_equiv_pos_as_xyz
  x,y,z
_cell_length_a	19.288864
_cell_length_b	10.489741
_cell_length_c	18.366186
_cell_angle_alpha	89.994090
_cell_angle_beta	89.977106
_cell_angle_gamma	83.837710
loop_
_atom_site_label
_atom_site_type_symbol
_atom_site_fract_x
_atom_site_fract_y
_atom_site_fract_z
O1	O	0.922420	0.159110	-0.060783
O2	O	0.720303	0.180573	-0.060733
O3	O	0.825960	-0.015860	-0.060755
O4	O	0.816762	0.355543	-0.060761
O5	O	0.825942	-0.015870	0.060344
O6	O	0.720285	0.180564	0.060366
O7	O	0.922402	0.159100	0.060316
Zn8	Zn	0.821340	0.169830	0.079568
Zn9	Zn	0.821364	0.169843	-0.079985
O10	O	0.816744	0.355534	0.060338
C11	C	0.694413	0.179878	-0.000177
C12	C	0.617295	0.177805	-0.000158
C13	C	0.573372	0.293063	-0.000171
C14	C	0.500912	0.291115	-0.000179
C15	C	0.472378	0.173903	-0.000189
C16	C	0.516311	0.058629	-0.000171
C17	C	0.588770	0.060580	-0.000156
C18	C	0.363505	0.081764	-0.042638
C19	C	0.291047	0.079818	-0.042658
C20	C	0.248892	0.167880	-0.000233
C21	C	0.279202	0.257911	0.042203
C22	C	0.351661	0.259862	0.042218
C23	C	0.393810	0.171774	-0.000205
C24	C	0.126399	0.281035	-0.000254
C25	C	0.053938	0.279082	-0.000257
C26	C	0.069339	0.046593	-0.000256
C27	C	0.141798	0.048549	-0.000245
C28	C	0.170324	0.165773	-0.000248
C29	C	0.825257	-0.063381	-0.000205
C30	C	0.823178	-0.204964	-0.000206
C31	C	0.755951	-0.271583	-0.000195
C32	C	0.787700	-0.364429	0.059505
C33	C	0.787734	-0.364394	-0.059889
C34	C	0.854954	-0.295944	0.059543
C35	C	0.854979	-0.295900	-0.059905
C36	C	0.886776	-0.388719	-0.000190
C37	C	0.948292	0.159796	-0.000241
C38	C	1.025409	0.161869	-0.000265
C39	C	0.817448	0.403055	-0.000213
C40	C	0.819526	0.544637	-0.000217
N41	N	0.821329	0.169821	0.188460
N42	N	0.821381	0.169842	-0.188876
C43	C	0.868130	0.082883	0.226550
C44	C	0.868134	0.082877	0.302778
C45	C	0.821344	0.169831	0.340912
C46	C	0.774535	0.256776	0.302812
C47	C	0.774527	0.256771	0.226586
C48	C	0.812826	0.286045	0.461672
C49	C	0.812838	0.286052	0.537897
C50	C	0.821364	0.169847	0.576020
C51	C	0.829893	0.053631	0.537908
C52	C	0.829885	0.053626	0.461682
C53	C	0.821347	0.169846	0.423567
C54	C	0.868172	0.082896	0.696766
C55	C	0.868172	0.082888	0.772995
C56	C	0.774576	0.256799	0.773027
C57	C	0.774573	0.256795	0.696800
C58	C	0.821375	0.169845	0.658673
H59	H	0.149625	0.376486	-0.000245
C60	C	0.005621	0.405873	-0.000272
H61	H	0.032991	0.475962	-0.000278
H62	H	-0.022988	0.409951	0.041952
H63	H	-0.022941	0.409938	-0.042513
C64	C	0.919657	-0.012746	0.814895
H65	H	0.947532	-0.064518	0.781268
H66	H	0.894417	-0.065731	0.844648
H67	H	0.948797	0.033019	0.844611
C68	C	0.893337	-0.255183	0.127805
H69	H	0.908054	-0.328752	0.156276
H70	H	0.862790	-0.197248	0.155724
H71	H	0.932855	-0.214417	0.113524
H72	H	0.942099	-0.439394	-0.000170
H73	H	0.805898	0.380681	0.568921
H74	H	0.906246	0.012079	0.333797
C75	C	0.893381	-0.254809	-0.128108
H76	H	0.869436	-0.277964	-0.170488
H77	H	0.939593	-0.296527	-0.128550
H78	H	0.894789	-0.164568	-0.127372
H79	H	0.046108	-0.048844	-0.000309
C80	C	0.749307	-0.405365	-0.128073
H81	H	0.702833	-0.364827	-0.127983
H82	H	0.748627	-0.495779	-0.127825
H83	H	0.772747	-0.380734	-0.170478
H84	H	0.177562	-0.045307	-0.000238
C85	C	0.257713	-0.019214	-0.089331
H86	H	0.293196	-0.071398	-0.114584
H87	H	0.226545	0.024110	-0.123457
H88	H	0.232842	-0.071473	-0.058740
C89	C	0.484927	-0.070301	-0.000186
H90	H	0.435483	-0.054956	-0.000205
H91	H	0.499939	-0.117750	0.042047
H92	H	0.499992	-0.117734	-0.042418
H93	H	0.906279	0.012092	0.665722
C94	C	0.919602	-0.012772	0.184615
H95	H	0.947472	-0.064558	0.218223
H96	H	0.948739	0.032967	0.154856
H97	H	0.894345	-0.065759	0.154902
H98	H	0.836827	-0.041001	0.430655
H99	H	0.700678	-0.220682	-0.000121
C100	C	0.839266	-0.074200	0.579833
H101	H	0.838040	-0.057558	0.630688
H102	H	0.882842	-0.119894	0.567325
H103	H	0.802687	-0.124002	0.567359
H104	H	0.736415	0.327568	0.195572
H105	H	0.759247	-0.394801	0.109991
C106	C	0.723108	0.352447	0.814966
H107	H	0.729817	0.340005	0.865820
H108	H	0.676685	0.338814	0.802498
H109	H	0.731078	0.437540	0.802462
H110	H	0.736466	0.327594	0.665784
C111	C	0.803451	0.413878	0.419744
H112	H	0.798386	0.483089	0.453357
H113	H	0.763021	0.416655	0.390027
H114	H	0.843176	0.420758	0.389990
H115	H	0.596592	0.388516	-0.000175
C116	C	0.452587	0.417904	-0.000205
H117	H	0.479954	0.487996	-0.000211
H118	H	0.423971	0.421986	0.042014
H119	H	0.424032	0.421957	-0.042451
H120	H	0.624533	-0.033280	-0.000145
H121	H	0.736437	0.327574	0.333865
C122	C	0.385004	0.358875	0.088897
H123	H	0.434194	0.347426	0.082824
H124	H	0.373845	0.347343	0.138680
H125	H	0.367551	0.442949	0.073974
C126	C	0.232841	0.354792	0.088869
H127	H	0.185347	0.340733	0.082789
H128	H	0.239136	0.439495	0.073949
H129	H	0.245431	0.343899	0.138660
H130	H	0.397822	0.010050	-0.077190
