data_functionalizedCrystal
_audit_creation_method	'MofGen! by Chris Wilmer'
_symmetry_space_group_name_H-M	'P1'
_symmetry_Int_Tables_number	1
_symmetry_cell_setting	triclinic
loop_
_symmetry_equiv_pos_as_xyz
  x,y,z
_cell_length_a	16.956995
_cell_length_b	19.188930
_cell_length_c	17.666332
_cell_angle_alpha	90.006765
_cell_angle_beta	90.009565
_cell_angle_gamma	79.599626
loop_
_atom_site_label
_atom_site_type_symbol
_atom_site_fract_x
_atom_site_fract_y
_atom_site_fract_z
O1	O	1.057939	0.028939	0.063003
O2	O	1.391272	0.362272	0.396336
O3	O	1.724606	0.695606	0.729670
O4	O	0.825696	0.053455	0.062996
O5	O	1.159030	0.386788	0.396329
O6	O	1.492363	0.720122	0.729662
O7	O	0.948520	-0.060827	0.062985
O8	O	1.281853	0.272506	0.396318
O9	O	1.615186	0.605839	0.729651
O10	O	0.935116	0.143222	0.063014
O11	O	1.268449	0.476555	0.396347
O12	O	1.601782	0.809888	0.729681
O13	O	0.948503	-0.060823	-0.062912
O14	O	1.281837	0.272510	0.270421
O15	O	1.615170	0.605844	0.603755
O16	O	0.825680	0.053460	-0.062901
O17	O	1.159013	0.386793	0.270432
O18	O	1.492347	0.720126	0.603766
O19	O	1.057923	0.028944	-0.062894
O20	O	1.391256	0.362277	0.270440
O21	O	1.724589	0.695610	0.603773
Cu22	Cu	0.941800	0.041202	-0.074393
Cu23	Cu	1.275133	0.374535	0.258941
Cu24	Cu	1.608466	0.707869	0.592274
Cu25	Cu	0.941819	0.041197	0.074495
Cu26	Cu	1.275152	0.374530	0.407828
Cu27	Cu	1.608486	0.707863	0.741161
O28	O	0.935099	0.143226	-0.062883
O29	O	1.268433	0.476559	0.270451
O30	O	1.601766	0.809893	0.603784
C31	C	0.795976	0.054713	0.000046
C32	C	1.129309	0.388046	0.333379
C33	C	1.462642	0.721379	0.666713
C34	C	0.707442	0.058445	0.000043
C35	C	1.040776	0.391778	0.333376
C36	C	1.374109	0.725111	0.666709
C37	C	0.948077	-0.086812	0.000034
C38	C	1.281411	0.246521	0.333368
C39	C	1.614744	0.579854	0.666701
C40	C	0.946774	-0.164245	0.000028
C41	C	1.280108	0.169088	0.333361
C42	C	1.613441	0.502422	0.666694
C43	C	0.208044	0.086363	0.000075
C44	C	0.541378	0.419696	0.333408
C45	C	0.874711	0.753030	0.666741
C46	C	0.291232	0.082851	0.000074
C47	C	0.624565	0.416184	0.333407
C48	C	0.957899	0.749518	0.666740
C49	C	0.342550	0.016930	0.000058
C50	C	0.675883	0.350263	0.333392
C51	C	1.009217	0.683596	0.666725
C52	C	0.310677	-0.045484	0.000052
C53	C	0.644011	0.287849	0.333385
C54	C	0.977344	0.621183	0.666719
C55	C	0.227491	-0.041971	0.000059
C56	C	0.560824	0.291362	0.333392
C57	C	0.894158	0.624695	0.666725
C58	C	0.592383	-0.000456	0.000043
C59	C	0.925717	0.332877	0.333376
C60	C	1.259050	0.666210	0.666709
C61	C	0.675574	-0.003964	0.000034
C62	C	1.008908	0.329369	0.333367
C63	C	1.342241	0.662702	0.666701
C64	C	0.656123	0.124371	0.000057
C65	C	0.989457	0.457705	0.333390
C66	C	1.322790	0.791038	0.666723
C67	C	0.572937	0.127878	0.000059
C68	C	0.906270	0.461211	0.333392
C69	C	1.239603	0.794545	0.666725
C70	C	0.541071	0.065465	0.000056
C71	C	0.874404	0.398798	0.333390
C72	C	1.207737	0.732131	0.666723
N73	N	0.427581	0.013338	0.000055
N74	N	0.760915	0.346672	0.333388
N75	N	1.094248	0.680005	0.666722
N76	N	0.456041	0.069057	0.000065
N77	N	0.789374	0.402390	0.333399
N78	N	1.122708	0.735723	0.666732
C79	C	1.018843	-0.213135	0.000026
C80	C	1.352176	0.120198	0.333360
C81	C	1.685510	0.453531	0.666693
C82	C	1.017619	-0.285892	0.000038
C83	C	1.350952	0.047442	0.333372
C84	C	1.684286	0.380775	0.666705
C85	C	0.944322	-0.309754	0.000037
C86	C	1.277655	0.023579	0.333370
C87	C	1.610989	0.356912	0.666703
C88	C	0.872244	-0.260854	0.000042
C89	C	1.205577	0.072480	0.333376
C90	C	1.538910	0.405813	0.666709
C91	C	0.873470	-0.188099	0.000038
C92	C	1.206803	0.145234	0.333371
C93	C	1.540137	0.478568	0.666704
N94	N	0.888290	-0.414674	-0.042810
N95	N	1.221623	-0.081341	0.290523
N96	N	1.554956	0.251992	0.623856
N97	N	0.887130	-0.483789	-0.042808
N98	N	1.220463	-0.150456	0.290526
N99	N	1.553796	0.182878	0.623859
C100	C	0.940623	-0.528959	0.000052
C101	C	1.273956	-0.195626	0.333385
C102	C	1.607290	0.137707	0.666719
N103	N	0.995332	-0.502406	0.042899
N104	N	1.328666	-0.169073	0.376232
N105	N	1.661999	0.164260	0.709566
N106	N	0.996495	-0.433285	0.042893
N107	N	1.329828	-0.099952	0.376226
N108	N	1.663161	0.233381	0.709560
C109	C	0.942984	-0.388643	0.000042
C110	C	1.276318	-0.055310	0.333375
C111	C	1.609651	0.278023	0.666709
C112	C	1.011369	-0.656741	0.000065
C113	C	1.344703	-0.323408	0.333398
C114	C	1.678036	0.009925	0.666731
C115	C	1.010142	-0.729499	0.000082
C116	C	1.343475	-0.396165	0.333415
C117	C	1.676809	-0.062832	0.666748
C118	C	0.864765	-0.704459	0.000078
C119	C	1.198098	-0.371126	0.333411
C120	C	1.531432	-0.037792	0.666744
C121	C	0.865994	-0.631703	0.000068
C122	C	1.199327	-0.298370	0.333402
C123	C	1.532661	0.034963	0.666735
C124	C	0.939299	-0.607849	0.000058
C125	C	1.272632	-0.274516	0.333392
C126	C	1.605965	0.058817	0.666725
C127	C	1.087643	0.027686	0.000058
C128	C	1.420976	0.361019	0.333391
C129	C	1.754310	0.694353	0.666724
C130	C	1.176177	0.023954	0.000066
C131	C	1.509510	0.357288	0.333399
C132	C	1.842843	0.690621	0.666733
C133	C	0.935541	0.169211	0.000069
C134	C	1.268875	0.502544	0.333403
C135	C	1.602208	0.835878	0.666736
C136	C	0.936844	0.246644	0.000081
C137	C	1.270178	0.579977	0.333414
C138	C	1.603511	0.913310	0.666748
N139	N	0.941792	0.041205	-0.179112
N140	N	1.275125	0.374538	0.154221
N141	N	1.608459	0.707872	0.487554
C142	C	0.990054	0.080770	-0.781153
C143	C	1.323388	0.414103	-0.447820
C144	C	1.656721	0.747436	-0.114487
C145	C	0.990046	0.080777	-0.701906
C146	C	1.323380	0.414110	-0.368572
C147	C	1.656713	0.747444	-0.035239
C148	C	0.941826	0.041189	-0.662294
C149	C	1.275160	0.374522	-0.328960
C150	C	1.608493	0.707856	0.004373
C151	C	0.893595	0.001605	-0.701936
C152	C	1.226929	0.334939	-0.368602
C153	C	1.560262	0.668272	-0.035269
C154	C	0.893599	0.001605	-0.781182
C155	C	1.226932	0.334938	-0.447848
C156	C	1.560265	0.668271	-0.114515
N157	N	0.939895	-0.019865	-0.537878
N158	N	1.273229	0.313468	-0.204545
N159	N	1.606562	0.646802	0.128789
N160	N	0.939897	-0.019863	-0.462598
N161	N	1.273230	0.313470	-0.129264
N162	N	1.606563	0.646804	0.204069
C163	C	0.941812	0.041190	-0.423530
C164	C	1.275145	0.374523	-0.090196
C165	C	1.608479	0.707857	0.243137
N166	N	0.943742	0.102240	-0.462586
N167	N	1.277075	0.435573	-0.129253
N168	N	1.610408	0.768907	0.204081
N169	N	0.943745	0.102237	-0.537873
N170	N	1.277078	0.435570	-0.204540
N171	N	1.610411	0.768903	0.128793
C172	C	0.941817	0.041186	-0.576365
C173	C	1.275150	0.374519	-0.243031
C174	C	1.608484	0.707852	0.090302
C175	C	0.990027	0.080783	-0.297968
C176	C	1.323361	0.414116	0.035365
C177	C	1.656694	0.747450	0.368699
C178	C	0.990014	0.080792	-0.218719
C179	C	1.323347	0.414126	0.114614
C180	C	1.656680	0.747459	0.447948
C181	C	0.893567	0.001614	-0.218750
C182	C	1.226900	0.334947	0.114583
C183	C	1.560234	0.668281	0.447916
C184	C	0.893576	0.001611	-0.297998
C185	C	1.226909	0.334945	0.035336
C186	C	1.560243	0.668278	0.368669
C187	C	0.941811	0.041195	-0.337602
C188	C	1.275144	0.374528	-0.004269
C189	C	1.608477	0.707861	0.329065
N190	N	0.941833	0.041188	0.179214
N191	N	1.275166	0.374521	0.512548
N192	N	1.608500	0.707855	0.845881
H193	H	0.166266	0.140044	0.000081
H194	H	0.499599	0.473377	0.333415
H195	H	0.832933	0.806710	0.666748
N196	N	0.559822	-0.064198	0.000034
N197	N	0.893155	0.269135	0.333368
N198	N	1.226488	0.602468	0.666701
N199	N	0.515585	-0.076564	0.053101
N200	N	0.848918	0.256769	0.386434
N201	N	1.182251	0.590102	0.719768
H202	H	0.492582	-0.121584	0.053093
H203	H	0.825916	0.211750	0.386426
H204	H	1.159249	0.545083	0.719759
N205	N	0.844330	-0.038821	-0.821669
N206	N	1.177663	0.294513	-0.488336
N207	N	1.510997	0.627846	-0.155002
N208	N	0.769977	-0.026202	-0.812836
N209	N	1.103310	0.307132	-0.479502
N210	N	1.436644	0.640465	-0.146169
H211	H	0.735180	-0.054752	-0.841431
H212	H	1.068513	0.278581	-0.508098
H213	H	1.401846	0.611914	-0.174765
N214	N	0.363106	-0.112816	0.000046
N215	N	0.696439	0.220517	0.333379
N216	N	1.029773	0.553851	0.666713
N217	N	0.437377	-0.115945	0.000040
N218	N	0.770711	0.217388	0.333374
N219	N	1.104044	0.550722	0.666707
H220	H	0.474406	-0.163500	0.000035
H221	H	0.807739	0.169834	0.333368
H222	H	1.141072	0.503167	0.666702
N223	N	0.844339	-0.038824	-0.661465
N224	N	1.177672	0.294510	-0.328132
N225	N	1.511005	0.627843	0.005202
N226	N	0.844342	-0.038819	-0.590710
N227	N	1.177676	0.294515	-0.257377
N228	N	1.511009	0.627848	0.075956
H229	H	0.809550	-0.067370	-0.562127
H230	H	1.142884	0.265963	-0.228794
H231	H	1.476217	0.599297	0.104539
H232	H	0.812565	-0.280287	0.000042
H233	H	1.145898	0.053046	0.333376
H234	H	1.479231	0.386379	0.666709
N235	N	0.792377	-0.581758	0.000044
N236	N	1.125710	-0.248425	0.333378
N237	N	1.459043	0.084908	0.666711
N238	N	0.776839	-0.538378	-0.053031
N239	N	1.110172	-0.205045	0.280303
N240	N	1.443505	0.128289	0.613636
H241	H	0.724843	-0.503103	-0.053047
H242	H	1.058176	-0.169770	0.280286
H243	H	1.391510	0.163564	0.613619
H244	H	1.029313	0.113012	-0.669631
H245	H	1.362646	0.446345	-0.336297
H246	H	1.695980	0.779679	-0.002964
H247	H	1.029329	0.113003	-0.813394
H248	H	1.362663	0.446336	-0.480061
H249	H	1.695996	0.779669	-0.146728
N250	N	0.799843	-0.138164	0.000043
N251	N	1.133176	0.195169	0.333376
N252	N	1.466509	0.528503	0.666710
N253	N	0.734402	-0.159474	0.000049
N254	N	1.067735	0.173859	0.333382
N255	N	1.401068	0.507192	0.666716
H256	H	0.682401	-0.124207	0.000052
H257	H	1.015734	0.209126	0.333386
H258	H	1.349067	0.542460	0.666719
N259	N	0.194949	-0.105727	0.000055
N260	N	0.528283	0.227606	0.333388
N261	N	0.861616	0.560939	0.666722
N262	N	0.240776	-0.164582	0.000043
N263	N	0.574109	0.168751	0.333376
N264	N	0.907442	0.502085	0.666709
H265	H	0.217795	-0.209613	0.000044
H266	H	0.551128	0.123721	0.333377
H267	H	0.884462	0.457054	0.666710
N268	N	1.039298	0.121219	-0.338416
N269	N	1.372632	0.454552	-0.005083
N270	N	1.705965	0.787886	0.328250
N271	N	1.082346	0.156564	-0.303016
N272	N	1.415679	0.489897	0.030317
N273	N	1.749012	0.823230	0.363650
H274	H	1.117144	0.185122	-0.331581
H275	H	1.450478	0.518456	0.001753
H276	H	1.783811	0.851789	0.335086
N277	N	0.844337	-0.038837	-0.338487
N278	N	1.177670	0.294496	-0.005154
N279	N	1.511004	0.627829	0.328180
N280	N	0.875645	-0.086792	-0.382706
N281	N	1.208979	0.246542	-0.049373
N282	N	1.542312	0.579875	0.283961
H283	H	0.840867	-0.115359	-0.411302
H284	H	1.174200	0.217974	-0.077969
H285	H	1.507533	0.551307	0.255364
N286	N	0.844319	-0.038825	-0.178287
N287	N	1.177652	0.294508	0.155046
N288	N	1.510985	0.627842	0.488380
N289	N	0.875618	-0.086777	-0.134064
N290	N	1.208952	0.246556	0.199269
N291	N	1.542285	0.579889	0.532602
H292	H	0.840833	-0.115337	-0.105483
H293	H	1.174167	0.217997	0.227850
H294	H	1.507500	0.551330	0.561183
H295	H	0.682078	0.175185	0.000060
H296	H	1.015411	0.508518	0.333393
H297	H	1.348744	0.841851	0.666727
N298	N	0.323771	0.146607	0.000091
N299	N	0.657104	0.479941	0.333424
N300	N	0.990437	0.813274	0.666758
N301	N	0.277942	0.205461	0.000104
N302	N	0.611276	0.538794	0.333438
N303	N	0.944609	0.872128	0.666771
H304	H	0.300921	0.250493	0.000120
H305	H	0.634254	0.583826	0.333453
H306	H	0.967588	0.917159	0.666786
N307	N	1.039265	0.121243	-0.178244
N308	N	1.372598	0.454576	0.155089
N309	N	1.705932	0.787909	0.488422
N310	N	1.082318	0.156584	-0.213618
N311	N	1.415652	0.489918	0.119715
N312	N	1.748985	0.823251	0.453048
H313	H	1.117101	0.185156	-0.185033
H314	H	1.450434	0.518489	0.148300
H315	H	1.783768	0.851823	0.481633
N316	N	1.093720	-0.188772	0.000009
N317	N	1.427053	0.144562	0.333343
N318	N	1.760387	0.477895	0.666676
N319	N	1.142241	-0.205287	-0.053061
N320	N	1.475575	0.128046	0.280273
N321	N	1.808908	0.461380	0.613606
H322	H	1.195124	-0.188079	-0.053072
H323	H	1.528458	0.145254	0.280261
H324	H	1.861791	0.478587	0.613594
N325	N	0.520530	0.195222	0.000071
N326	N	0.853863	0.528555	0.333404
N327	N	1.187197	0.861888	0.666737
N328	N	0.548995	0.250940	0.000078
N329	N	0.882328	0.584273	0.333411
N330	N	1.215661	0.917607	0.666745
H331	H	0.511983	0.298503	0.000084
H332	H	0.845316	0.631837	0.333417
H333	H	1.178650	0.965170	0.666750
H334	H	0.717357	-0.057648	0.000025
H335	H	1.050690	0.275685	0.333359
H336	H	1.384024	0.609018	0.666692
N337	N	1.086237	-0.632357	0.000074
N338	N	1.419570	-0.299024	0.333407
N339	N	1.752903	0.034309	0.666741
N340	N	1.087323	-0.567397	0.000069
N341	N	1.420656	-0.234064	0.333402
N342	N	1.753989	0.099270	0.666736
H343	H	1.140198	-0.550176	0.000077
H344	H	1.473531	-0.216843	0.333411
H345	H	1.806864	0.116491	0.666744
H346	H	1.068832	-0.769306	0.000085
H347	H	1.402165	-0.435973	0.333418
H348	H	1.735498	-0.102639	0.666751
H349	H	1.076308	-0.325706	0.000040
H350	H	1.409641	0.007627	0.333374
H351	H	1.742974	0.340961	0.666707
H352	H	0.805085	-0.723887	0.000080
H353	H	1.138418	-0.390553	0.333413
H354	H	1.471752	-0.057220	0.666747
