data_functionalizedCrystal
_audit_creation_method	'MofGen! by Chris Wilmer'
_symmetry_space_group_name_H-M	'P1'
_symmetry_Int_Tables_number	1
_symmetry_cell_setting	triclinic
loop_
_symmetry_equiv_pos_as_xyz
  x,y,z
_cell_length_a	14.971482
_cell_length_b	14.519709
_cell_length_c	13.448316
_cell_angle_alpha	90.015021
_cell_angle_beta	89.993798
_cell_angle_gamma	96.353623
loop_
_atom_site_label
_atom_site_type_symbol
_atom_site_fract_x
_atom_site_fract_y
_atom_site_fract_z
O1	O	1.187017	-0.120168	-0.082698
O2	O	1.687017	0.379832	0.417302
O3	O	0.926624	-0.134563	-0.082705
O4	O	1.426624	0.365437	0.417295
O5	O	1.063725	0.006877	-0.082674
O6	O	1.563725	0.506877	0.417326
O7	O	1.049917	-0.261608	-0.082730
O8	O	1.549917	0.238392	0.417270
O9	O	1.063707	0.006886	0.082710
O10	O	1.563707	0.506886	0.582710
O11	O	0.926607	-0.134555	0.082679
O12	O	1.426607	0.365445	0.582679
O13	O	1.187000	-0.120159	0.082686
O14	O	1.687000	0.379841	0.582686
Cu15	Cu	1.056802	-0.127356	0.097783
Cu16	Cu	1.556802	0.372644	0.597783
Cu17	Cu	1.056822	-0.127366	-0.097802
Cu18	Cu	1.556822	0.372634	0.402198
O19	O	1.049900	-0.261599	0.082654
O20	O	1.549900	0.238401	0.582654
C21	C	0.893291	-0.133916	-0.000014
C22	C	1.393291	0.366084	0.499986
C23	C	0.793992	-0.131988	-0.000015
C24	C	1.293992	0.368012	0.499985
C25	C	0.747338	-0.131076	0.090137
C26	C	1.247338	0.368924	0.590137
C27	C	0.654038	-0.129250	0.090138
C28	C	1.154038	0.370750	0.590138
C29	C	0.607394	-0.128343	-0.000013
C30	C	1.107394	0.371657	0.499987
C31	C	0.654056	-0.129253	-0.090172
C32	C	1.154056	0.370747	0.409828
C33	C	0.747354	-0.131072	-0.090173
C34	C	1.247354	0.368928	0.409827
C35	C	0.459592	-0.125464	-0.090165
C36	C	0.959592	0.374536	0.409835
C37	C	0.366286	-0.123646	-0.090165
C38	C	0.866286	0.376354	0.409835
C39	C	0.366276	-0.123641	0.090146
C40	C	0.866276	0.376359	0.590146
C41	C	0.459574	-0.125461	0.090146
C42	C	0.959574	0.374539	0.590146
C43	C	0.506229	-0.126372	-0.000014
C44	C	1.006229	0.373628	0.499986
C45	C	1.063073	0.041241	0.000023
C46	C	1.563073	0.541241	0.500023
C47	C	1.061144	0.143621	0.000038
C48	C	1.561144	0.643621	0.500038
C49	C	1.054045	0.518513	0.000065
C50	C	1.554045	1.018513	0.500065
C51	C	1.056017	0.414206	0.000058
C52	C	1.556017	0.914206	0.500058
C53	C	1.057594	0.331070	0.000053
C54	C	1.557594	0.831070	0.500053
C55	C	1.059566	0.226757	0.000044
C56	C	1.559566	0.726757	0.500044
C57	C	1.220333	-0.120806	-0.000008
C58	C	1.720333	0.379194	0.499992
C59	C	1.319632	-0.122734	-0.000013
C60	C	1.819632	0.377266	0.499987
N61	N	1.056794	-0.127348	0.235347
N62	N	1.556794	0.372652	0.735347
C63	C	1.050552	0.704037	-0.000010
C64	C	1.550552	1.204037	0.499990
C65	C	1.052480	0.601657	0.000074
C66	C	1.552480	1.101657	0.500074
N67	N	1.056837	-0.127367	-0.235367
N68	N	1.556837	0.372633	0.264633
C69	C	1.117521	-0.064744	0.287402
C70	C	1.617521	0.435256	0.787402
C71	C	1.117527	-0.064743	0.391505
C72	C	1.617527	0.435257	0.891505
C73	C	1.056809	-0.127352	0.443552
C74	C	1.556809	0.372648	0.943552
C75	C	0.996075	-0.189959	0.391490
C76	C	1.496075	0.310041	0.891490
C77	C	0.996066	-0.189954	0.287389
C78	C	1.496066	0.310046	0.787389
C79	C	0.996100	-0.189965	0.608470
C80	C	1.496100	0.310035	1.108470
C81	C	0.996110	-0.189971	0.712579
C82	C	1.496110	0.310029	1.212579
C83	C	1.117561	-0.064754	0.712586
C84	C	1.617561	0.435246	1.212586
C85	C	1.117551	-0.064750	0.608485
C86	C	1.617551	0.435250	1.108485
C87	C	1.056819	-0.127358	0.556431
C88	C	1.556819	0.372642	1.056431
H89	H	0.785339	-0.131817	-0.163584
H90	H	1.285339	0.368183	0.336416
H91	H	1.166968	-0.013765	0.245032
H92	H	1.666968	0.486235	0.745032
N93	N	1.179548	-0.000763	0.444651
N94	N	1.679548	0.499237	0.944651
N95	N	1.178172	0.084476	0.433015
N96	N	1.678172	0.584476	0.933015
H97	H	1.221975	0.129675	0.470539
H98	H	1.721975	0.629675	0.970539
H99	H	0.946615	-0.240932	0.245007
H100	H	1.446615	0.259068	0.745007
N101	N	0.606415	-0.128307	-0.182260
N102	N	1.106415	0.371693	0.317740
N103	N	0.562502	-0.062334	-0.202359
N104	N	1.062502	0.437666	0.297641
H105	H	0.528856	-0.061666	-0.267399
H106	H	1.028856	0.438334	0.232601
H107	H	0.328285	-0.122899	0.163557
H108	H	0.828285	0.377101	0.663557
H109	H	1.166996	-0.013774	0.566108
H110	H	1.666996	0.486226	1.066108
N111	N	0.934067	-0.253906	0.765737
N112	N	1.434067	0.246094	1.265737
N113	N	0.851396	-0.252476	0.754134
N114	N	1.351396	0.247524	1.254134
H115	H	0.807573	-0.297627	0.791680
H116	H	1.307573	0.202373	1.291680
H117	H	0.946642	-0.240945	0.566091
H118	H	1.446642	0.259055	1.066091
H119	H	1.167011	-0.013776	0.754975
H120	H	1.667011	0.486224	1.254975
N121	N	0.934038	-0.253908	0.444639
N122	N	1.434038	0.246092	0.944639
N123	N	0.851365	-0.252496	0.433031
N124	N	1.351365	0.247504	0.933031
H125	H	0.807549	-0.297661	0.470565
H126	H	1.307549	0.202339	0.970565
N127	N	0.794963	-0.132023	0.182235
N128	N	1.294963	0.367977	0.682235
N129	N	0.753290	-0.131215	0.262721
N130	N	1.253290	0.368785	0.762721
H131	H	0.786922	-0.131887	0.327769
H132	H	1.286922	0.368113	0.827769
N133	N	0.606397	-0.128311	0.182236
N134	N	1.106397	0.371689	0.682236
N135	N	0.648053	-0.129123	0.262721
N136	N	1.148053	0.370877	0.762721
H137	H	0.614408	-0.128457	0.327770
H138	H	1.114408	0.371543	0.827770
H139	H	0.497549	-0.126205	0.163555
H140	H	0.997549	0.373795	0.663555
H141	H	0.328311	-0.122909	-0.163574
H142	H	0.828311	0.377091	0.336426
H143	H	0.497575	-0.126206	-0.163582
H144	H	0.997575	0.373794	0.336418
