data_functionalizedCrystal
_audit_creation_method	'MofGen! by Chris Wilmer'
_symmetry_space_group_name_H-M	'P1'
_symmetry_Int_Tables_number	1
_symmetry_cell_setting	triclinic
loop_
_symmetry_equiv_pos_as_xyz
  x,y,z
_cell_length_a	10.540539
_cell_length_b	22.010155
_cell_length_c	10.540539
_cell_angle_alpha	90.002247
_cell_angle_beta	84.525492
_cell_angle_gamma	90.013657
loop_
_atom_site_label
_atom_site_type_symbol
_atom_site_fract_x
_atom_site_fract_y
_atom_site_fract_z
O1	O	1.685908	0.050493	0.178898
O2	O	1.316495	0.050501	0.195754
O3	O	1.509630	0.050496	0.002619
O4	O	1.492774	0.050498	0.372032
O5	O	1.509571	-0.050554	0.002618
O6	O	1.316436	-0.050550	0.195753
O7	O	1.685849	-0.050557	0.178897
Cu8	Cu	1.501138	-0.059780	0.187325
Cu9	Cu	1.501207	0.059724	0.187326
O10	O	1.492715	-0.050552	0.372031
C11	C	1.269163	-0.000024	0.194489
C12	C	1.128215	-0.000021	0.190707
C13	C	0.944788	-0.000257	0.045790
C14	C	1.091406	-0.000023	0.049624
C15	C	1.066576	0.057682	0.258603
C16	C	0.920031	0.057724	0.253788
C17	C	0.919476	-0.057189	0.256657
C18	C	1.066458	-0.057946	0.257957
N19	N	1.501098	-0.143833	0.187323
C20	C	1.578897	-0.563613	0.265049
C21	C	1.578912	-0.627221	0.265046
O22	O	1.645015	-0.660113	0.331122
N23	N	1.501232	-0.659040	0.187312
C24	C	1.423541	-0.627248	0.109565
O25	O	1.357469	-0.660153	0.043445
C26	C	1.423533	-0.563641	0.109563
C27	C	1.501210	-0.531826	0.187312
C28	C	1.656568	-0.531798	0.342791
C29	C	1.656551	-0.468194	0.342795
C30	C	1.578863	-0.436407	0.265058
C31	C	1.501193	-0.468222	0.187316
C32	C	1.345850	-0.531850	0.031811
C33	C	1.345850	-0.468239	0.031814
C34	C	1.423526	-0.436424	0.109563
C35	C	1.423488	-0.372832	0.109583
N36	N	1.501168	-0.341013	0.187318
C37	C	1.578856	-0.372800	0.265055
C38	C	1.423564	-0.760825	0.109576
C39	C	1.423563	-0.824431	0.109584
C40	C	1.578937	-0.824400	0.265064
C41	C	1.578930	-0.760793	0.265061
C42	C	1.501244	-0.729007	0.187310
C43	C	1.578814	-0.239229	0.265059
C44	C	1.578786	-0.175620	0.265061
C45	C	1.423418	-0.175657	0.109577
C46	C	1.423440	-0.239260	0.109580
C47	C	1.501148	-0.271045	0.187325
O48	O	1.357423	-0.339899	0.043537
O49	O	1.644929	-0.339887	0.331152
C50	C	1.733182	-0.000031	0.180161
C51	C	1.874130	-0.000030	0.183943
C52	C	1.508336	-0.000028	-0.044684
C53	C	1.504554	-0.000025	-0.185632
N54	N	1.501257	0.143776	0.187317
C55	C	1.359637	0.000205	-0.369059
C56	C	1.363471	-0.000023	-0.222441
C57	C	1.572416	-0.057731	-0.247290
C58	C	1.567601	-0.057779	-0.393835
C59	C	1.570538	0.057134	-0.394352
C60	C	1.571837	0.057897	-0.247370
C61	C	1.494008	-0.000027	0.419335
C62	C	1.497790	-0.000026	0.560283
H63	H	0.872249	-0.057578	0.358561
H64	H	1.719838	-0.557672	0.406094
H65	H	1.642039	-0.149719	0.328379
H66	H	0.914605	0.040893	-0.009710
H67	H	1.360290	-0.734949	0.046266
C68	C	1.708194	0.057662	-0.458158
H69	H	1.721321	0.023237	-0.512189
H70	H	1.766118	0.056395	-0.394473
H71	H	1.722054	0.093676	-0.507206
H72	H	0.872064	0.060344	0.355253
H73	H	1.642180	-0.734893	0.328372
C74	C	1.338107	-0.859421	0.024073
H75	H	1.291846	-0.831374	-0.022225
H76	H	1.280158	-0.884243	0.075525
H77	H	1.389608	-0.884224	-0.033862
H78	H	1.088930	0.059829	0.362211
H79	H	0.916178	-0.041639	-0.009946
H80	H	1.133996	-0.041387	-0.003799
C81	C	1.704658	-0.061335	-0.458649
H82	H	1.702647	-0.061387	-0.548566
H83	H	1.743969	-0.097592	-0.433127
H84	H	1.751908	-0.027212	-0.434248
C85	C	1.664403	-0.859371	0.350569
H86	H	1.710662	-0.831316	0.396879
H87	H	1.722352	-0.884177	0.299105
H88	H	1.612904	-0.884191	0.408494
H89	H	1.360163	-0.149764	0.046289
H90	H	1.674700	0.061379	-0.223149
H91	H	1.282599	-0.557744	-0.031503
H92	H	1.282589	-0.442362	-0.031503
H93	H	1.133176	0.041412	-0.004175
C94	C	0.881949	0.115988	0.185990
H95	H	0.956009	0.139408	0.161638
H96	H	0.824903	0.139058	0.242182
H97	H	0.841463	0.105441	0.112300
H98	H	1.360174	-0.265166	0.046286
C99	C	1.124126	0.115696	0.194887
H100	H	1.185701	0.104876	0.126918
H101	H	1.163706	0.139045	0.255870
H102	H	1.058468	0.138953	0.162535
H103	H	1.310071	0.041343	-0.179837
H104	H	1.303930	0.041587	-0.397659
H105	H	1.304109	-0.040943	-0.399267
C106	C	1.290782	-0.055999	-0.166025
H107	H	1.258802	-0.078691	-0.232730
H108	H	1.221853	-0.043133	-0.107569
H109	H	1.346863	-0.080716	-0.122989
H110	H	1.107395	-0.100634	0.208356
C111	C	1.504861	0.115570	-0.192067
H112	H	1.436184	0.104403	-0.131598
H113	H	1.473091	0.138228	-0.258908
H114	H	1.563991	0.139653	-0.151545
C115	C	0.876829	-0.116276	0.194981
H116	H	0.830968	-0.106637	0.124298
H117	H	0.823592	-0.138805	0.255751
H118	H	0.949627	-0.139834	0.166814
C119	C	1.499767	-0.116044	-0.431936
H120	H	1.475401	-0.139460	-0.357883
H121	H	1.555943	-0.139117	-0.488990
H122	H	1.426083	-0.105497	-0.472418
C123	C	1.712375	-0.060639	-0.217088
H124	H	1.730707	-0.026606	-0.166480
H125	H	1.766715	-0.060106	-0.294347
H126	H	1.726041	-0.096998	-0.171776
C127	C	1.508661	-0.115742	-0.189766
H128	H	1.440697	-0.104918	-0.128189
H129	H	1.569625	-0.139092	-0.150193
H130	H	1.476297	-0.138999	-0.255436
H131	H	1.090682	-0.061429	0.360816
C132	C	1.508886	0.116220	-0.436965
H133	H	1.438193	0.106579	-0.482825
H134	H	1.569660	0.138751	-0.490194
H135	H	1.480735	0.139776	-0.364151
C136	C	1.664279	-0.274183	0.350587
H137	H	1.710519	-0.246118	0.396892
H138	H	1.722247	-0.298989	0.299145
H139	H	1.612781	-0.299000	0.408517
H140	H	1.719809	-0.442296	0.406101
