data_functionalizedCrystal
_audit_creation_method	'MofGen! by Chris Wilmer'
_symmetry_space_group_name_H-M	'P1'
_symmetry_Int_Tables_number	1
_symmetry_cell_setting	triclinic
loop_
_symmetry_equiv_pos_as_xyz
  x,y,z
_cell_length_a	14.853567
_cell_length_b	15.455313
_cell_length_c	16.956995
_cell_angle_alpha	92.472562
_cell_angle_beta	79.844701
_cell_angle_gamma	87.315200
loop_
_atom_site_label
_atom_site_type_symbol
_atom_site_fract_x
_atom_site_fract_y
_atom_site_fract_z
O1	O	1.184245	0.072070	0.107579
O2	O	1.684245	0.572070	0.607579
O3	O	0.920843	0.072085	0.119981
O4	O	1.420843	0.572085	0.619981
O5	O	1.068368	0.072073	-0.002281
O6	O	1.568368	0.572073	0.497719
O7	O	1.036720	0.072081	0.229841
O8	O	1.536720	0.572081	0.729841
O9	O	1.076794	-0.072190	-0.009252
O10	O	1.576794	0.427810	0.490748
O11	O	0.929269	-0.072178	0.113010
O12	O	1.429269	0.427822	0.613010
O13	O	1.192671	-0.072193	0.100609
O14	O	1.692671	0.427807	0.600609
Cu15	Cu	1.061739	-0.085358	0.106173
Cu16	Cu	1.561739	0.414642	0.606173
Cu17	Cu	1.051775	0.085250	0.114416
Cu18	Cu	1.551775	0.585250	0.614416
O19	O	1.045146	-0.072181	0.222871
O20	O	1.545146	0.427819	0.722871
C21	C	0.891510	-0.000045	0.115934
C22	C	1.391510	0.499955	0.615934
C23	C	0.791554	-0.000039	0.114250
C24	C	1.291554	0.499961	0.614250
N25	N	1.044767	0.205246	0.120208
N26	N	1.544767	0.705246	0.620208
C27	C	1.074201	-0.000058	-0.035473
C28	C	1.574201	0.499942	0.464527
C29	C	1.079018	-0.000055	-0.123988
C30	C	1.579018	0.499945	0.376012
C31	C	0.385076	-0.000062	0.034505
C32	C	0.885076	0.499938	0.534505
C33	C	0.352766	-0.000056	0.179755
C34	C	0.852766	0.499944	0.679755
C35	C	0.446679	-0.000053	0.181338
C36	C	0.946679	0.499947	0.681338
C37	C	0.509796	-0.000053	0.109504
C38	C	1.009796	0.499947	0.609504
C39	C	0.478999	-0.000056	0.036087
C40	C	0.978999	0.499944	0.536087
C41	C	0.477483	-0.000041	0.254755
C42	C	0.977483	0.499959	0.754755
C43	C	0.571401	-0.000037	0.256341
C44	C	1.071401	0.499963	0.756341
C45	C	0.634520	-0.000044	0.184506
C46	C	1.134520	0.499956	0.684506
C47	C	0.603718	-0.000048	0.111086
C48	C	1.103718	0.499952	0.611086
C49	C	0.666834	-0.000048	0.039251
C50	C	1.166834	0.499952	0.539251
C51	C	0.636035	-0.000058	-0.034170
C52	C	1.136035	0.499942	0.465830
C53	C	0.542117	-0.000063	-0.035749
C54	C	1.042117	0.499937	0.464251
C55	C	0.728437	-0.000039	0.186084
C56	C	1.228437	0.499961	0.686084
C57	C	0.760757	-0.000043	0.040833
C58	C	1.260757	0.499957	0.540833
C59	C	1.222004	-0.000062	0.104656
C60	C	1.722004	0.499938	0.604656
C61	C	1.321960	-0.000061	0.106340
C62	C	1.821960	0.499939	0.606340
N63	N	1.068754	-0.205354	0.100375
N64	N	1.568754	0.294646	0.600375
C65	C	1.107545	0.250635	0.068368
C66	C	1.607545	0.750635	0.568368
C67	C	1.102244	0.341443	0.072746
C68	C	1.602244	0.841443	0.572746
C69	C	1.034160	0.386861	0.128963
C70	C	1.534160	0.886861	0.628963
C71	C	0.971379	0.341465	0.180809
C72	C	1.471379	0.841465	0.680809
C73	C	0.976685	0.250658	0.176433
C74	C	1.476685	0.750658	0.676433
C75	C	1.011279	0.658444	0.147846
C76	C	1.511279	1.158444	0.647846
C77	C	1.005976	0.749257	0.152215
C78	C	1.505976	1.249257	0.652215
C79	C	1.136843	0.749229	0.044154
C80	C	1.636843	1.249229	0.544154
C81	C	1.142140	0.658420	0.039780
C82	C	1.642140	1.158420	0.539780
C83	C	1.079361	0.613033	0.091629
C84	C	1.579361	1.113033	0.591629
N85	N	1.028738	0.479681	0.133438
N86	N	1.528738	0.979681	0.633438
N87	N	1.084788	0.520214	0.087157
N88	N	1.584788	1.020214	0.587157
C89	C	1.115058	-0.000054	-0.623248
C90	C	1.615058	0.499946	-0.123248
C91	C	1.110524	-0.000059	-0.540078
C92	C	1.610524	0.499941	-0.040078
C93	C	1.025428	-0.000050	-0.489084
C94	C	1.525428	0.499950	0.010916
C95	C	0.944859	-0.000045	-0.521263
C96	C	1.444859	0.499955	-0.021263
C97	C	0.949394	-0.000046	-0.604432
C98	C	1.449394	0.499954	-0.104432
C99	C	1.002985	-0.000051	-0.239336
C100	C	1.502985	0.499949	0.260664
C101	C	0.998456	-0.000047	-0.156162
C102	C	1.498456	0.499953	0.343838
C103	C	1.164122	-0.000063	-0.174983
C104	C	1.664122	0.499937	0.325017
C105	C	1.168648	-0.000059	-0.258152
C106	C	1.668648	0.499941	0.241848
C107	C	1.088081	-0.000058	-0.290325
C108	C	1.588081	0.499942	0.209675
N109	N	1.020792	-0.000052	-0.404070
N110	N	1.520792	0.499948	0.095930
N111	N	1.092718	-0.000062	-0.375337
N112	N	1.592718	0.499938	0.124663
C113	C	1.039313	-0.000049	0.256062
C114	C	1.539313	0.499951	0.756062
C115	C	1.034495	-0.000046	0.344578
C116	C	1.534495	0.499954	0.844578
H117	H	0.687436	-0.000053	-0.092657
H118	H	1.187436	0.499947	0.407343
H119	H	0.937380	-0.000040	-0.265520
H120	H	1.437380	0.499960	0.234480
H121	H	0.301371	-0.000048	0.238239
H122	H	0.801371	0.499952	0.738239
H123	H	0.950530	0.786231	0.197996
H124	H	1.450530	1.286231	0.697996
H125	H	0.517032	-0.000092	-0.095526
H126	H	1.017032	0.499908	0.404474
N127	N	1.251014	-0.000081	-0.140281
N128	N	1.751014	0.499919	0.359719
H129	H	1.305610	-0.000089	-0.185206
H130	H	1.805610	0.499911	0.314794
H131	H	1.249627	0.053398	-0.103598
H132	H	1.749627	0.553398	0.396402
H133	H	0.359995	-0.000074	-0.025273
H134	H	0.859995	0.499926	0.474727
H135	H	0.426087	-0.000032	0.313239
H136	H	0.926087	0.499968	0.813239
H137	H	0.929157	-0.000043	-0.114643
H138	H	1.429157	0.499957	0.385357
N139	N	0.604619	-0.000020	0.335527
N140	N	1.104619	0.499980	0.835527
H141	H	0.550382	-0.000017	0.380792
H142	H	1.050382	0.499983	0.880792
H143	H	0.646010	-0.053498	0.336767
H144	H	1.146010	0.446502	0.836767
H145	H	0.875572	-0.000043	-0.479737
H146	H	1.375572	0.499957	0.020263
N147	N	1.204537	0.798195	-0.011767
N148	N	1.704537	1.298195	0.488233
H149	H	1.239895	0.835881	0.020651
H150	H	1.739895	1.335881	0.520651
H151	H	1.248415	0.755597	-0.048038
H152	H	1.748415	1.255597	0.451962
N153	N	0.761660	-0.000018	0.265264
N154	N	1.261660	0.499982	0.765264
H155	H	0.707425	-0.000013	0.310531
H156	H	1.207425	0.499987	0.810531
H157	H	0.803051	-0.053496	0.266506
H158	H	1.303051	0.446504	0.766506
H159	H	0.915946	0.378449	0.226585
H160	H	1.415946	0.878449	0.726585
N161	N	0.908967	0.201705	0.232346
N162	N	1.408967	0.701705	0.732346
H163	H	0.873611	0.164023	0.199923
H164	H	1.373611	0.664023	0.699923
H165	H	0.942954	0.164088	0.265946
H166	H	1.442954	0.664088	0.765946
N167	N	1.180981	0.201652	0.007735
N168	N	1.680981	0.701652	0.507735
H169	H	1.219948	0.244189	-0.024438
H170	H	1.719948	0.744189	0.475562
H171	H	1.220671	0.163984	0.036589
H172	H	1.720671	0.663984	0.536589
H173	H	0.812142	-0.000046	-0.017665
H174	H	1.312142	0.499954	0.482335
N175	N	0.943553	0.609496	0.203748
N176	N	1.443553	1.109496	0.703748
H177	H	0.899611	0.652050	0.240015
H178	H	1.399611	1.152050	0.740015
H179	H	0.908270	0.571823	0.171254
H180	H	1.408270	1.071823	0.671254
N181	N	1.206846	-0.000068	-0.678239
N182	N	1.706846	0.499932	-0.178239
H183	H	1.215539	-0.053547	-0.715749
H184	H	1.715539	0.446453	-0.215749
H185	H	1.209249	0.053445	-0.710529
H186	H	1.709249	0.553445	-0.210529
H187	H	1.176127	-0.000066	-0.513886
H188	H	1.676127	0.499934	-0.013886
H189	H	1.153364	0.378399	0.030534
H190	H	1.653364	0.878399	0.530534
H191	H	1.237943	-0.000070	-0.299667
H192	H	1.737943	0.499930	0.200333
H193	H	1.197579	0.621443	-0.005996
H194	H	1.697579	1.121443	0.494004
N195	N	0.862503	-0.000045	-0.639139
N196	N	1.362503	0.499955	-0.139139
H197	H	0.807906	-0.000039	-0.594216
H198	H	1.307906	0.499961	-0.094216
H199	H	0.857652	0.053432	-0.670655
H200	H	1.357652	0.553432	-0.170655
