data_functionalizedCrystal
_audit_creation_method	'MofGen! by Chris Wilmer'
_symmetry_space_group_name_H-M	'P1'
_symmetry_Int_Tables_number	1
_symmetry_cell_setting	triclinic
loop_
_symmetry_equiv_pos_as_xyz
  x,y,z
_cell_length_a	18.215407
_cell_length_b	14.908520
_cell_length_c	18.215399
_cell_angle_alpha	86.730636
_cell_angle_beta	90.019833
_cell_angle_gamma	93.321174
loop_
_atom_site_label
_atom_site_type_symbol
_atom_site_fract_x
_atom_site_fract_y
_atom_site_fract_z
Zn1	Zn	1.108178	-0.359158	0.433017
Zn2	Zn	1.608178	0.140842	0.933017
Zn3	Zn	1.100989	-0.510027	0.317051
Zn4	Zn	1.600989	-0.010027	0.817051
Zn5	Zn	0.985109	-0.359188	0.309966
Zn6	Zn	1.485109	0.140812	0.809966
Zn7	Zn	0.977982	-0.509977	0.440073
Zn8	Zn	1.477982	-0.009977	0.940073
O9	O	1.043064	-0.434588	0.375027
O10	O	1.543064	0.065412	0.875027
O11	O	1.210208	-0.379180	0.417646
O12	O	1.710208	0.120820	0.917646
O13	O	1.085592	-0.490052	0.213128
O14	O	1.585592	0.009948	0.713128
O15	O	1.007425	-0.232939	0.320371
O16	O	1.507425	0.267061	0.820371
O17	O	1.204927	-0.490023	0.332446
O18	O	1.704927	0.009977	0.832446
O19	O	1.097843	-0.232917	0.410776
O20	O	1.597843	0.267083	0.910776
O21	O	1.000455	-0.379230	0.207923
O22	O	1.500455	0.120770	0.707923
O23	O	0.881180	-0.379182	0.327213
O24	O	1.381180	0.120818	0.827213
O25	O	0.995278	-0.489937	0.542120
O26	O	1.495278	0.010063	1.042120
O27	O	0.875943	-0.489966	0.422802
O28	O	1.375943	0.010034	0.922802
O29	O	1.090932	-0.379131	0.536936
O30	O	1.590932	0.120869	1.036936
O31	O	1.078681	-0.636266	0.339288
O32	O	1.578681	-0.136266	0.839288
O33	O	0.988308	-0.636229	0.429672
O34	O	1.488308	-0.136229	0.929672
C35	C	0.851859	-0.434572	0.375005
C36	C	1.351859	0.065428	0.875005
C37	C	0.770059	-0.434587	0.375014
C38	C	1.270059	0.065413	0.875014
C39	C	0.579154	-0.492363	0.424733
C40	C	1.079154	0.007637	0.924733
C41	C	0.502295	-0.492366	0.424742
C42	C	1.002295	0.007634	0.924742
C43	C	0.507726	-0.376828	0.325338
C44	C	1.007726	0.123172	0.825338
C45	C	0.584584	-0.376822	0.325333
C46	C	1.084584	0.123178	0.825333
C47	C	0.620295	-0.434594	0.375029
C48	C	1.120295	0.065406	0.875029
C49	C	0.466579	-0.434604	0.375044
C50	C	0.966579	0.065396	0.875044
C51	C	0.383245	-0.434606	0.375053
C52	C	0.883245	0.065394	0.875053
C53	C	0.703635	-0.434591	0.375021
C54	C	1.203635	0.065409	0.875021
C55	C	1.031961	-0.668981	0.386030
C56	C	1.531961	-0.168981	0.886030
C57	C	1.027278	-0.769256	0.390762
C58	C	1.527278	-0.269256	0.890762
C59	C	1.112681	-0.957660	0.305613
C60	C	1.612681	-0.457660	0.805613
C61	C	1.108284	-1.051877	0.310057
C62	C	1.608284	-0.551877	0.810057
C63	C	1.014091	-1.051908	0.404097
C64	C	1.514091	-0.551908	0.904097
C65	C	1.018488	-0.957691	0.399653
C66	C	1.518488	-0.457691	0.899653
C67	C	1.067784	-0.910570	0.350409
C68	C	1.567784	-0.410570	0.850409
C69	C	1.072177	-0.816352	0.345962
C70	C	1.572177	-0.316352	0.845962
C71	C	0.977988	-0.816385	0.440005
C72	C	1.477988	-0.316385	0.940005
C73	C	0.973591	-0.910602	0.444449
C74	C	1.473591	-0.410602	0.944449
C75	C	1.235017	-0.434604	0.375049
C76	C	1.735017	0.065396	0.875049
C77	C	1.316815	-0.434611	0.375059
C78	C	1.816815	0.065389	0.875059
C79	C	1.043112	-0.434526	0.566977
C80	C	1.543112	0.065474	1.066977
C81	C	1.043133	-0.434499	0.648775
C82	C	1.543133	0.065501	1.148775
C83	C	1.054231	-0.199279	0.363996
C84	C	1.554231	0.300721	0.863996
C85	C	1.058990	-0.099004	0.359296
C86	C	1.558990	0.400996	0.859296
C87	C	1.043062	-0.434585	0.183820
C88	C	1.543062	0.065415	0.683820
C89	C	1.043196	-0.434357	0.102011
C90	C	1.543196	0.065643	0.602011
C91	C	1.092959	-0.376748	0.834268
C92	C	1.592959	0.123252	1.334268
C93	C	1.092969	-0.376722	0.911126
C94	C	1.592969	0.123278	1.411126
C95	C	0.993364	-0.492110	0.916513
C96	C	1.493364	0.007890	1.416513
C97	C	0.993351	-0.492131	0.839656
C98	C	1.493351	0.007869	1.339656
C99	C	1.043153	-0.434452	0.798536
C100	C	1.543153	0.065548	1.298536
C101	C	1.043176	-0.434404	0.952250
C102	C	1.543176	0.065596	1.452250
C103	C	1.043186	-0.434376	1.035582
C104	C	1.543186	0.065624	1.535582
C105	C	1.043142	-0.434478	0.715198
C106	C	1.543142	0.065522	1.215198
H107	H	1.112315	-0.777987	0.305863
H108	H	1.612315	-0.277987	0.805863
O109	O	0.473111	-0.320761	0.276962
O110	O	0.973111	0.179239	0.776962
C111	C	0.490918	-0.340377	0.204507
C112	C	0.990918	0.159623	0.704507
H113	H	0.545081	-0.375047	0.204559
H114	H	1.045081	0.124953	0.704559
H115	H	0.496616	-0.275217	0.168533
H116	H	0.996616	0.224783	0.668533
H117	H	0.445459	-0.386728	0.181839
H118	H	0.945459	0.113272	0.681839
O119	O	0.613730	-0.548503	0.473081
O120	O	1.113730	-0.048503	0.973081
C121	C	0.560931	-0.599506	0.516941
C122	C	1.060931	-0.099506	1.016941
H123	H	0.507895	-0.562562	0.517804
H124	H	1.007895	-0.062562	1.017804
H125	H	0.582701	-0.609213	0.575367
H126	H	1.082701	-0.109213	1.075367
H127	H	0.549504	-0.667984	0.493121
H128	H	1.049504	-0.167984	0.993121
O129	O	0.462304	-0.548357	0.473095
O130	O	0.962304	-0.048357	0.973095
C131	C	0.420283	-0.497073	0.518281
C132	C	0.920283	0.002927	1.018281
H133	H	0.446810	-0.426025	0.519584
H134	H	0.946810	0.073975	1.019584
H135	H	0.417887	-0.529792	0.576409
H136	H	0.917887	-0.029792	1.076409
H137	H	0.362172	-0.493934	0.495391
H138	H	0.862172	0.006066	0.995391
O139	O	0.624629	-0.320828	0.277016
O140	O	1.124629	0.179172	0.777016
C141	C	0.666626	-0.372116	0.231812
C142	C	1.166626	0.127884	0.731812
H143	H	0.674909	-0.440524	0.260889
H144	H	1.174909	0.059476	0.760889
H145	H	0.722410	-0.335351	0.220271
H146	H	1.222410	0.164649	0.720271
H147	H	0.636521	-0.381945	0.177723
H148	H	1.136521	0.118055	0.677723
H149	H	0.941427	-0.778034	0.476478
H150	H	1.441427	-0.278034	0.976478
O151	O	1.152014	-1.097505	0.266572
O152	O	1.652014	-0.597505	0.766572
C153	C	1.226424	-1.074384	0.281664
C154	C	1.726424	-0.574384	0.781664
H155	H	1.231104	-1.005959	0.306739
H156	H	1.731104	-0.505959	0.806739
H157	H	1.259616	-1.071142	0.228436
H158	H	1.759616	-0.571142	0.728436
H159	H	1.248721	-1.127355	0.322019
H160	H	1.748721	-0.627355	0.822019
O161	O	1.160519	-0.911979	0.257679
O162	O	1.660519	-0.411979	0.757679
C163	C	1.143385	-0.935056	0.185404
C164	C	1.643385	-0.435056	0.685404
H165	H	1.111904	-1.003498	0.187081
H166	H	1.611904	-0.503498	0.687081
H167	H	1.196366	-0.938241	0.152600
H168	H	1.696366	-0.438241	0.652600
H169	H	1.108030	-0.882092	0.158088
H170	H	1.608030	-0.382092	0.658088
H171	H	0.973961	-1.090290	0.444194
H172	H	1.473961	-0.590290	0.944194
O173	O	0.925804	-0.956479	0.492321
O174	O	1.425804	-0.456479	0.992321
C175	C	0.965132	-1.010878	0.542475
C176	C	1.465132	-0.510878	1.042475
H177	H	1.020266	-1.024949	0.517242
H178	H	1.520266	-0.524949	1.017242
H179	H	0.932057	-1.077158	0.555432
H180	H	1.432057	-0.577158	1.055432
H181	H	0.974875	-0.974517	0.595307
H182	H	1.474875	-0.474517	1.095307
O183	O	0.945025	-0.548268	0.956384
O184	O	1.445025	-0.048268	1.456384
C185	C	0.956854	-0.638189	0.941831
C186	C	1.456854	-0.138189	1.441831
H187	H	0.985044	-0.640074	0.886120
H188	H	1.485044	-0.140074	1.386120
H189	H	0.901823	-0.678642	0.941088
H190	H	1.401823	-0.178642	1.441088
H191	H	0.993259	-0.668564	0.986516
H192	H	1.493259	-0.168564	1.486516
O193	O	0.945068	-0.548233	0.804862
O194	O	1.445068	-0.048233	1.304862
C195	C	0.984197	-0.606527	0.763156
C196	C	1.484197	-0.106527	1.263156
H197	H	1.041476	-0.574715	0.750166
H198	H	1.541476	-0.074715	1.250166
H199	H	0.953641	-0.618627	0.709669
H200	H	1.453641	-0.118627	1.209669
H201	H	0.989116	-0.673378	0.795906
H202	H	1.489116	-0.173378	1.295906
O203	O	1.141357	-0.320630	0.794433
O204	O	1.641357	0.179370	1.294433
C205	C	1.185330	-0.269710	0.842457
C206	C	1.685330	0.230290	1.342457
H207	H	1.155343	-0.266572	0.897090
H208	H	1.655343	0.233428	1.397090
H209	H	1.196546	-0.198635	0.816923
H210	H	1.696546	0.301365	1.316923
H211	H	1.239658	-0.302744	0.852189
H212	H	1.739658	0.197256	1.352189
H213	H	1.133525	-0.329733	0.940215
H214	H	1.633525	0.170267	1.440215
