data_functionalizedCrystal
_audit_creation_method	'MofGen! by Chris Wilmer'
_symmetry_space_group_name_H-M	'P1'
_symmetry_Int_Tables_number	1
_symmetry_cell_setting	triclinic
loop_
_symmetry_equiv_pos_as_xyz
  x,y,z
_cell_length_a	18.101398
_cell_length_b	21.295417
_cell_length_c	18.101389
_cell_angle_alpha	90.022566
_cell_angle_beta	90.024327
_cell_angle_gamma	90.025773
loop_
_atom_site_label
_atom_site_type_symbol
_atom_site_fract_x
_atom_site_fract_y
_atom_site_fract_z
Zn1	Zn	1.132124	-0.250755	0.418817
Zn2	Zn	1.632124	0.249245	0.918817
Zn3	Zn	1.132021	-0.356008	0.294967
Zn4	Zn	1.632021	0.143992	0.794967
Zn5	Zn	1.008283	-0.250748	0.294979
Zn6	Zn	1.508283	0.249252	0.794979
Zn7	Zn	1.008235	-0.355981	0.418755
Zn8	Zn	1.508235	0.144019	0.918755
O9	O	1.070166	-0.303373	0.356880
O10	O	1.570166	0.196627	0.856880
O11	O	1.235743	-0.264731	0.402409
O12	O	1.735743	0.235269	0.902409
O13	O	1.115584	-0.342054	0.191335
O14	O	1.615584	0.157946	0.691335
O15	O	1.024774	-0.162660	0.311437
O16	O	1.524774	0.337340	0.811437
O17	O	1.235668	-0.342060	0.311417
O18	O	1.735668	0.157940	0.811417
O19	O	1.115759	-0.162664	0.402421
O20	O	1.615759	0.337336	0.902421
O21	O	1.024674	-0.264720	0.191344
O22	O	1.524674	0.235280	0.691344
O23	O	0.904644	-0.264694	0.311377
O24	O	1.404644	0.235306	0.811377
O25	O	1.024692	-0.342014	0.522397
O26	O	1.524692	0.157986	1.022397
O27	O	0.904609	-0.342008	0.402315
O28	O	1.404609	0.157992	0.902315
O29	O	1.115713	-0.264705	0.522442
O30	O	1.615713	0.235295	1.022442
O31	O	1.115538	-0.444094	0.311357
O32	O	1.615538	0.055906	0.811357
O33	O	1.024592	-0.444074	0.402304
O34	O	1.524592	0.055926	0.902304
C35	C	0.877755	-0.303348	0.356841
C36	C	1.377755	0.196652	0.856841
C37	C	0.795441	-0.303352	0.356842
C38	C	1.295441	0.196648	0.856842
C39	C	0.496350	-0.303391	0.356904
C40	C	0.996350	0.196609	0.856904
C41	C	0.527673	-0.254504	0.299967
C42	C	1.027673	0.245496	0.799967
C43	C	0.613291	-0.254635	0.299724
C44	C	1.113291	0.245365	0.799724
C45	C	0.644733	-0.303371	0.356873
C46	C	1.144733	0.196629	0.856873
C47	C	0.613615	-0.369679	0.335543
C48	C	1.113615	0.130321	0.835543
C49	C	0.527970	-0.369407	0.335147
C50	C	1.027970	0.130593	0.835147
C51	C	0.527965	-0.286547	0.435305
C52	C	1.027965	0.213453	0.935305
C53	C	0.613615	-0.285070	0.434877
C54	C	1.113615	0.214930	0.934877
C55	C	0.728592	-0.303364	0.356857
C56	C	1.228592	0.196636	0.856857
C57	C	0.412491	-0.303403	0.356919
C58	C	0.912491	0.196597	0.856919
C59	C	1.070069	-0.466925	0.356839
C60	C	1.570069	0.033075	0.856839
C61	C	1.070095	-0.536893	0.356846
C62	C	1.570095	-0.036893	0.856846
C63	C	1.117492	-0.569749	0.309538
C64	C	1.617492	-0.069749	0.809538
C65	C	1.117527	-0.635491	0.309555
C66	C	1.617527	-0.135491	0.809555
C67	C	1.070151	-0.668375	0.356871
C68	C	1.570151	-0.168375	0.856871
C69	C	1.022751	-0.635511	0.404188
C70	C	1.522751	-0.135511	0.904188
C71	C	1.022722	-0.569770	0.404175
C72	C	1.522722	-0.069770	0.904175
N73	N	1.005367	-0.771637	0.362504
N74	N	1.505367	-0.271637	0.862504
N75	N	1.005396	-0.834089	0.362512
N76	N	1.505396	-0.334089	0.862512
C77	C	1.070234	-0.866450	0.356914
C78	C	1.570234	-0.366450	0.856914
N79	N	1.135044	-0.834001	0.351293
N80	N	1.635044	-0.334001	0.851293
N81	N	1.135014	-0.771543	0.351282
N82	N	1.635014	-0.271543	0.851282
C83	C	1.070177	-0.739661	0.356891
C84	C	1.570177	-0.239661	0.856891
C85	C	1.117673	-0.970592	0.309622
C86	C	1.617673	-0.470592	0.809622
C87	C	1.117709	-1.036335	0.309644
C88	C	1.617709	-0.536335	0.809644
C89	C	1.022926	-1.036354	0.404273
C90	C	1.522926	-0.536354	0.904273
C91	C	1.022897	-0.970612	0.404255
C92	C	1.522897	-0.470612	0.904255
C93	C	1.070269	-0.937734	0.356925
C94	C	1.570269	-0.437734	0.856925
C95	C	1.263328	-0.303399	0.356919
C96	C	1.763328	0.196601	0.856919
C97	C	1.345642	-0.303410	0.356935
C98	C	1.845642	0.196590	0.856935
C99	C	1.070209	-0.303357	0.550042
C100	C	1.570209	0.196643	1.050042
C101	C	1.070227	-0.303350	0.632356
C102	C	1.570227	0.196650	1.132356
C103	C	1.070283	-0.139183	0.356937
C104	C	1.570283	0.360817	0.856937
C105	C	1.070334	-0.069215	0.356961
C106	C	1.570334	0.430785	0.856961
C107	C	1.070166	-0.303344	0.164469
C108	C	1.570166	0.196656	0.664469
C109	C	1.070291	-0.303173	0.082155
C110	C	1.570291	0.196827	0.582155
C111	C	1.070270	-0.303232	0.931447
C112	C	1.570270	0.196768	1.431447
C113	C	1.012805	-0.351719	0.900093
C114	C	1.512805	0.148281	1.400093
C115	C	1.012960	-0.351944	0.814475
C116	C	1.512960	0.148056	1.314475
C117	C	1.070248	-0.303291	0.783064
C118	C	1.570248	0.196709	1.283064
C119	C	1.148274	-0.321303	0.814168
C120	C	1.648274	0.178697	1.314168
C121	C	1.147953	-0.321621	0.899813
C122	C	1.647953	0.178379	1.399813
C123	C	1.050388	-0.236626	0.899877
C124	C	1.550388	0.263374	1.399877
C125	C	1.048652	-0.237011	0.814226
C126	C	1.548652	0.262989	1.314226
C127	C	1.070240	-0.303323	0.699205
C128	C	1.570240	0.196677	1.199205
C129	C	1.070283	-0.303202	1.015306
C130	C	1.570283	0.196798	1.515306
H131	H	0.633745	-0.265769	0.241630
H132	H	1.133745	0.234231	0.741630
H133	H	0.991232	-0.223428	0.793895
H134	H	1.491232	0.276572	1.293895
H135	H	1.025801	-0.400788	0.921614
H136	H	1.525801	0.099212	1.421614
F137	F	0.972446	-0.935642	0.454604
F138	F	1.472446	-0.435642	0.954604
F139	F	1.099373	-0.187285	0.786288
F140	F	1.599373	0.312715	1.286288
H141	H	0.507249	-0.407065	0.374809
H142	H	1.007249	0.092935	0.874809
H143	H	1.156310	-1.063086	0.271122
H144	H	1.656310	-0.563086	0.771122
F145	F	0.977312	-0.215178	0.928090
F146	F	1.477312	0.284822	1.428090
H147	H	0.635030	-0.384213	0.278847
H148	H	1.135030	0.115787	0.778847
F149	F	1.030152	-0.416468	0.787694
F150	F	1.530152	0.083532	1.287694
H151	H	1.092243	-0.200501	0.920156
H152	H	1.592243	0.299499	1.420156
H153	H	0.507959	-0.383693	0.277832
H154	H	1.007959	0.116307	0.777832
F155	F	1.169983	-0.385263	0.925930
F156	F	1.669983	0.114737	1.425930
F157	F	1.205782	-0.277438	0.926929
F158	F	1.705782	0.222562	1.426929
H159	H	1.156249	-0.943822	0.271085
H160	H	1.656249	-0.443822	0.771085
H161	H	1.192239	-0.287098	0.793825
H162	H	1.692239	0.212902	1.293825
H163	H	0.635021	-0.318083	0.479573
H164	H	1.135021	0.181917	0.979573
H165	H	0.955101	-0.340671	0.793443
H166	H	1.455101	0.159329	1.293443
F167	F	0.640794	-0.190366	0.317200
F168	F	1.140794	0.309634	0.817200
H169	H	0.507102	-0.205183	0.313191
H170	H	1.007102	0.294817	0.813191
F171	F	0.499494	-0.268882	0.224478
F172	F	0.999494	0.231118	0.724478
F173	F	0.640225	-0.418564	0.388054
F174	F	1.140225	0.081436	0.888054
F175	F	0.972509	-1.071347	0.454635
F176	F	1.472509	-0.571347	0.954635
H177	H	0.954772	-0.340562	0.920680
H178	H	1.454772	0.159438	1.420680
H179	H	0.506392	-0.239037	0.454697
H180	H	1.006392	0.260963	0.954697
H181	H	0.633959	-0.236275	0.450961
H182	H	1.133959	0.263725	0.950961
F183	F	1.167919	-0.534762	0.259174
F184	F	1.667919	-0.034762	0.759174
F185	F	0.501489	-0.333088	0.490756
F186	F	1.001489	0.166912	0.990756
F187	F	1.167975	-0.670466	0.259201
F188	F	1.667975	-0.170466	0.759201
H189	H	0.984178	-0.662290	0.442715
H190	H	1.484178	-0.162290	0.942715
F191	F	0.972274	-0.534801	0.454529
F192	F	1.472274	-0.034801	0.954529
F193	F	1.170687	-0.384268	0.786138
F194	F	1.670687	0.115732	1.286138
