data_functionalizedCrystal
_audit_creation_method	'MofGen! by Chris Wilmer'
_symmetry_space_group_name_H-M	'P1'
_symmetry_Int_Tables_number	1
_symmetry_cell_setting	triclinic
loop_
_symmetry_equiv_pos_as_xyz
  x,y,z
_cell_length_a	19.288859
_cell_length_b	10.654551
_cell_length_c	17.766277
_cell_angle_alpha	89.995451
_cell_angle_beta	89.989768
_cell_angle_gamma	83.809577
loop_
_atom_site_label
_atom_site_type_symbol
_atom_site_fract_x
_atom_site_fract_y
_atom_site_fract_z
O1	O	0.922382	0.156620	-0.062606
O2	O	0.720259	0.177760	-0.062604
O3	O	0.825967	-0.015649	-0.062604
O4	O	0.816674	0.350029	-0.062607
O5	O	0.825948	-0.015659	0.062585
O6	O	0.720240	0.177751	0.062584
O7	O	0.922363	0.156610	0.062582
Cu8	Cu	0.821300	0.167179	0.074014
Cu9	Cu	0.821322	0.167191	-0.074036
O10	O	0.816655	0.350019	0.062582
C11	C	0.694369	0.177077	-0.000010
C12	C	0.617251	0.175039	-0.000009
C13	C	0.053864	0.274735	-0.000011
C14	C	0.126323	0.276661	-0.000015
C15	C	0.170286	0.163177	-0.000012
C16	C	0.141785	0.047759	-0.000025
C17	C	0.069327	0.045836	-0.000029
C18	C	0.290996	0.078538	0.043850
C19	C	0.363452	0.080466	0.043858
C20	C	0.393771	0.169103	-0.000005
C21	C	0.351623	0.255834	-0.043866
C22	C	0.279165	0.253911	-0.043870
C23	C	0.248856	0.165249	-0.000009
C24	C	0.500832	0.286602	-0.000001
C25	C	0.573293	0.288523	-0.000010
C26	C	0.588754	0.059618	-0.000013
C27	C	0.516294	0.057700	-0.000012
C28	C	0.472338	0.171196	-0.000003
C29	C	0.825275	-0.062437	-0.000010
C30	C	0.823233	-0.201836	-0.000014
C31	C	0.822285	-0.267314	-0.068255
C32	C	0.820360	-0.398293	-0.068256
C33	C	0.820335	-0.398306	0.068232
C34	C	0.822255	-0.267328	0.068232
C35	C	0.777130	-0.567432	-0.150242
C36	C	0.776194	-0.632917	-0.218486
C37	C	0.817455	-0.600257	-0.278737
C38	C	0.859670	-0.502117	-0.270747
C39	C	0.860613	-0.436640	-0.202501
C40	C	0.819335	-0.469295	-0.142253
C41	C	0.865491	-0.098188	0.150213
C42	C	0.866438	-0.032710	0.218460
C43	C	0.825181	-0.065369	0.278717
C44	C	0.782976	-0.163515	0.270734
C45	C	0.782029	-0.228994	0.202487
C46	C	0.823285	-0.196325	0.142229
C47	C	0.948253	0.157294	-0.000014
C48	C	1.025370	0.159332	-0.000020
C49	C	0.817347	0.396807	-0.000013
C50	C	0.819389	0.536207	-0.000014
N51	N	0.821289	0.167170	0.178144
N52	N	0.821338	0.167190	-0.178166
C53	C	0.868112	0.081571	0.217532
C54	C	0.868116	0.081565	0.296333
C55	C	0.821304	0.167180	0.335745
C56	C	0.774472	0.252787	0.296348
C57	C	0.774465	0.252782	0.217548
C58	C	0.812755	0.281602	0.460582
C59	C	0.812767	0.281608	0.539381
C60	C	0.821323	0.167196	0.578791
C61	C	0.829881	0.052771	0.539393
C62	C	0.829873	0.052766	0.460593
C63	C	0.821306	0.167195	0.421191
C64	C	0.868152	0.081582	0.703624
C65	C	0.868152	0.081575	0.782428
C66	C	0.774511	0.252808	0.782441
C67	C	0.774508	0.252804	0.703639
C68	C	0.821333	0.167193	0.664236
H69	H	0.493096	-0.036274	-0.000015
Br70	Br	0.801160	0.436896	0.592842
Br71	Br	0.249861	-0.041838	0.103333
H72	H	0.376307	0.328013	-0.079582
H73	H	0.736355	0.322494	0.328441
Br74	Br	0.801212	0.436894	0.407104
H75	H	0.747659	-0.308907	0.195990
Br76	Br	0.726988	-0.207856	0.352515
Br77	Br	0.915682	-0.457816	-0.352517
H78	H	0.899082	-0.071577	0.101146
Br79	Br	0.816195	-0.689150	-0.371348
Br80	Br	0.718904	-0.766101	-0.229331
Br81	Br	0.611963	0.445156	-0.000010
Br82	Br	-0.005789	0.428764	-0.000007
Br83	Br	0.165003	0.433291	-0.000003
Br84	Br	0.823610	-0.178436	-0.160873
H85	H	0.736393	0.322513	0.814529
Br86	Br	0.420644	-0.037225	0.103393
H87	H	0.046129	-0.048142	-0.000036
Br88	Br	0.221968	0.371605	-0.103397
Br89	Br	0.441172	0.440627	0.000011
H90	H	0.825961	-0.012053	0.334289
Br91	Br	0.841481	-0.102515	0.407126
Br92	Br	0.721112	-0.611742	-0.068478
Br93	Br	0.648411	-0.094399	-0.000025
H94	H	0.177585	-0.044640	-0.000026
Br95	Br	0.931656	-0.034616	0.164055
Br96	Br	0.710962	0.368984	0.650179
Br97	Br	0.917899	-0.303462	-0.191650
H98	H	0.819540	-0.451645	0.123795
H99	H	0.906246	0.011857	0.328408
H100	H	0.836847	-0.040395	0.571479
Br101	Br	0.931697	-0.034607	0.650146
H102	H	0.736335	0.322489	0.185478
Br103	Br	0.923727	0.100475	0.229300
Br104	Br	0.931696	-0.034616	0.835886
