data_functionalizedCrystal
_audit_creation_method	'MofGen! by Chris Wilmer'
_symmetry_space_group_name_H-M	'P1'
_symmetry_Int_Tables_number	1
_symmetry_cell_setting	triclinic
loop_
_symmetry_equiv_pos_as_xyz
  x,y,z
_cell_length_a	11.792241
_cell_length_b	10.868271
_cell_length_c	11.792241
_cell_angle_alpha	90.005737
_cell_angle_beta	95.806584
_cell_angle_gamma	90.003536
loop_
_atom_site_label
_atom_site_type_symbol
_atom_site_fract_x
_atom_site_fract_y
_atom_site_fract_z
O1	O	1.506902	-0.102203	-0.155570
O2	O	1.840236	0.231130	0.177763
O3	O	2.173569	0.564463	0.511097
O4	O	1.176561	-0.102232	-0.171603
O5	O	1.509895	0.231101	0.161731
O6	O	1.843228	0.564435	0.495064
O7	O	1.349748	-0.102208	0.001584
O8	O	1.683081	0.231125	0.334918
O9	O	2.016415	0.564458	0.668251
O10	O	1.333715	-0.102227	-0.328757
O11	O	1.667049	0.231106	0.004576
O12	O	2.000382	0.564440	0.337910
O13	O	1.349746	0.102436	0.001594
O14	O	1.683079	0.435770	0.334927
O15	O	2.016413	0.769103	0.668260
O16	O	1.176559	0.102413	-0.171593
O17	O	1.509892	0.435746	0.161740
O18	O	1.843226	0.769079	0.495073
O19	O	1.506900	0.102441	-0.155560
O20	O	1.840234	0.435775	0.177773
O21	O	2.173567	0.769108	0.511106
Zn22	Zn	1.341729	0.134919	-0.163575
Zn23	Zn	1.675063	0.468252	0.169758
Zn24	Zn	2.008396	0.801585	0.503091
Zn25	Zn	1.341732	-0.134709	-0.163588
Zn26	Zn	1.675065	0.198624	0.169745
Zn27	Zn	2.008399	0.531957	0.503079
O28	O	1.333713	0.102418	-0.328747
O29	O	1.667047	0.435751	0.004586
O30	O	2.000380	0.769084	0.337919
C31	C	1.134269	0.000087	-0.170591
C32	C	1.467603	0.333420	0.162742
C33	C	1.800936	0.666753	0.496076
C34	C	1.008255	0.000076	-0.167576
C35	C	1.341589	0.333409	0.165757
C36	C	1.674922	0.666743	0.499090
C37	C	0.777543	0.000112	-0.162034
C38	C	1.110877	0.333445	0.171300
C39	C	1.444210	0.666778	0.504633
C40	C	0.905928	0.000092	-0.165113
C41	C	1.239262	0.333425	0.168220
C42	C	1.572595	0.666759	0.501553
N43	N	1.341735	-0.318723	-0.163588
N44	N	1.675068	0.014610	0.169745
N45	N	2.008401	0.347943	0.503079
C46	C	1.341731	-0.569729	-0.163581
C47	C	1.675065	-0.236396	0.169752
C48	C	2.008398	0.096937	0.503086
C49	C	1.341730	-0.430052	-0.163589
C50	C	1.675063	-0.096719	0.169745
C51	C	2.008396	0.236615	0.503078
C52	C	1.549192	0.000120	-0.156572
C53	C	1.882525	0.333453	0.176761
C54	C	2.215859	0.666787	0.510095
C55	C	1.675206	0.000123	-0.159587
C56	C	2.008539	0.333456	0.173747
C57	C	2.341873	0.666789	0.507080
C58	C	1.348740	0.000114	0.043880
C59	C	1.682073	0.333447	0.377213
C60	C	2.015407	0.666780	0.710547
C61	C	1.345726	0.000112	0.169894
C62	C	1.679059	0.333445	0.503227
C63	C	2.012392	0.666779	0.836560
N64	N	1.341736	0.318933	-0.163566
N65	N	1.675069	0.652266	0.169767
N66	N	2.008402	0.985600	0.503101
C67	C	1.334721	0.000093	-0.371043
C68	C	1.668055	0.333426	-0.037710
C69	C	2.001388	0.666760	0.295624
C70	C	1.337736	0.000087	-0.497057
C71	C	1.671069	0.333420	-0.163723
C72	C	2.004402	0.666753	0.169610
C73	C	1.340183	0.000091	0.400606
C74	C	1.673516	0.333424	0.733939
C75	C	2.006849	0.666758	1.067272
C76	C	1.343262	0.000102	0.272221
C77	C	1.676596	0.333436	0.605554
C78	C	2.009929	0.666769	0.938887
