data_functionalizedCrystal
_audit_creation_method	'MofGen! by Chris Wilmer'
_symmetry_space_group_name_H-M	'P1'
_symmetry_Int_Tables_number	1
_symmetry_cell_setting	triclinic
loop_
_symmetry_equiv_pos_as_xyz
  x,y,z
_cell_length_a	27.354012
_cell_length_b	27.353283
_cell_length_c	27.349551
_cell_angle_alpha	60.005606
_cell_angle_beta	60.011434
_cell_angle_gamma	59.993282
loop_
_atom_site_label
_atom_site_type_symbol
_atom_site_fract_x
_atom_site_fract_y
_atom_site_fract_z
O1	O	0.067635	-0.714267	0.597330
O2	O	0.567635	-0.214267	1.097330
O3	O	0.025429	-0.556105	0.481282
O4	O	0.525429	-0.056105	0.981282
O5	O	0.125575	-0.656186	0.481214
O6	O	0.625575	-0.156186	0.981214
O7	O	-0.032512	-0.614186	0.597397
O8	O	0.467488	-0.114186	1.097397
O9	O	0.158797	-0.622968	0.514367
O10	O	0.658797	-0.122968	1.014367
O11	O	0.058650	-0.522887	0.514434
O12	O	0.558650	-0.022887	1.014434
O13	O	0.100856	-0.681048	0.630482
O14	O	0.600856	-0.181048	1.130482
Zn15	Zn	0.085028	-0.596693	0.577722
Zn16	Zn	0.585028	-0.096693	1.077722
Zn17	Zn	0.041257	-0.640460	0.534042
Zn18	Zn	0.541257	-0.140460	1.034042
O19	O	0.000709	-0.580967	0.630549
O20	O	0.500709	-0.080967	1.130549
N21	N	0.114901	-0.566828	0.607534
N22	N	0.614901	-0.066828	1.107534
N23	N	0.011389	-0.670331	0.504229
N24	N	0.511389	-0.170331	1.004229
C25	C	0.179404	-0.338196	0.672015
C26	C	0.679404	0.161804	1.172015
C27	C	0.179501	-0.502386	0.836160
C28	C	0.679501	-0.002386	1.336160
C29	C	0.179415	-0.502363	0.671996
C30	C	0.679415	-0.002363	1.171996
C31	C	0.343611	-0.502373	0.671960
C32	C	0.843611	-0.002373	1.171960
C33	C	0.197478	-0.392371	0.690061
C34	C	0.697478	0.107629	1.190061
C35	C	0.197534	-0.484321	0.781984
C36	C	0.697534	0.015679	1.281984
C37	C	0.289434	-0.484312	0.690032
C38	C	0.789434	0.015688	1.190032
C39	C	0.197486	-0.484308	0.690051
C40	C	0.697486	0.015692	1.190051
C41	C	0.156398	-0.269238	0.649045
C42	C	0.656398	0.230762	1.149045
C43	C	0.156418	-0.525342	0.649015
C44	C	0.656418	-0.025342	1.149015
C45	C	0.220484	-0.461329	0.713032
C46	C	0.720484	0.038671	1.213032
C47	C	0.443889	-0.485097	0.619172
C48	C	0.943889	0.014903	1.119172
C49	C	0.506571	-0.505993	0.598266
C50	C	1.006571	-0.005993	1.098266
C51	C	0.506589	-0.607412	0.636940
C52	C	1.006589	-0.107412	1.136940
C53	C	0.443909	-0.586515	0.657848
C54	C	0.943909	-0.086515	1.157848
C55	C	0.171510	-0.237888	0.587422
C56	C	0.671510	0.262112	1.087422
C57	C	0.150593	-0.175201	0.566543
C58	C	0.650593	0.324799	1.066543
C59	C	0.099458	-0.175218	0.668913
C60	C	0.599458	0.324782	1.168913
C61	C	0.120375	-0.237905	0.689792
C62	C	0.620375	0.262095	1.189792
C63	C	0.094789	-0.510201	0.664176
C64	C	0.594789	-0.010201	1.164176
C65	C	0.073888	-0.531091	0.643278
C66	C	0.573888	-0.031091	1.143278
C67	C	0.176239	-0.582263	0.592072
C68	C	0.676239	-0.082263	1.092072
C69	C	0.197142	-0.561373	0.612963
C70	C	0.697142	-0.061373	1.112963
C71	C	0.094933	-0.510244	0.936476
C72	C	0.594933	-0.010244	1.436476
C73	C	0.074073	-0.531151	0.999161
C74	C	0.574073	-0.031151	1.499161
C75	C	0.176453	-0.582335	0.999126
C76	C	0.676453	-0.082335	1.499126
C77	C	0.197312	-0.561429	0.936439
C78	C	0.697312	-0.061429	1.436439
C79	C	0.156551	-0.525382	0.905116
C80	C	0.656551	-0.025382	1.405116
C81	C	0.412561	-0.525357	0.648961
C82	C	0.912561	-0.025357	1.148961
C83	C	-0.098513	-0.688235	0.485867
C84	C	0.401487	-0.188235	0.985867
C85	C	-0.006461	-0.688368	0.394066
C86	C	0.493539	-0.188368	0.894066
C87	C	-0.006645	-0.780264	0.486040
C88	C	0.493355	-0.280264	0.986040
C89	C	-0.006630	-0.688361	0.486097
C90	C	0.493370	-0.188361	0.986097
C91	C	-0.029562	-0.711308	0.463018
C92	C	0.470438	-0.211308	0.963018
N93	N	0.537030	-0.566846	0.607436
N94	N	1.037030	-0.066846	1.107436
O95	O	0.741877	-0.576849	0.459995
O96	O	1.241877	-0.076849	0.959995
O97	O	0.742050	-0.693241	0.618010
O98	O	1.242050	-0.193241	1.118010
O99	O	0.741986	-0.692977	0.517791
O100	O	1.241986	-0.192977	1.017791
O101	O	0.741941	-0.577114	0.560214
O102	O	1.241941	-0.077114	1.060214
O103	O	0.642405	-0.659839	0.551046
O104	O	1.142405	-0.159839	1.051046
O105	O	0.642469	-0.660104	0.651265
O106	O	1.142469	-0.160104	1.151265
O107	O	0.642296	-0.543712	0.493251
O108	O	1.142296	-0.043712	0.993251
Zn109	Zn	0.626572	-0.596646	0.577538
Zn110	Zn	1.126572	-0.096646	1.077538
Zn111	Zn	0.757774	-0.640307	0.533723
Zn112	Zn	1.257774	-0.140307	1.033723
O113	O	0.642360	-0.543976	0.593469
O114	O	1.142360	-0.043976	1.093469
N115	N	0.847316	-0.670107	0.503818
N116	N	1.347316	-0.170107	1.003818
N117	N	0.114877	-0.144758	0.607577
N118	N	0.614877	0.355242	1.107577
O119	O	-0.032498	0.060193	0.597441
O120	O	0.467502	0.560193	1.097441
O121	O	0.125523	0.060193	0.481067
O122	O	0.625523	0.560193	0.981067
O123	O	0.025289	0.060179	0.481345
O124	O	0.525289	0.560179	0.981345
O125	O	0.067736	0.060207	0.597163
O126	O	0.567736	0.560207	1.097163
O127	O	0.058511	-0.039410	0.514543
O128	O	0.558511	0.460590	1.014543
O129	O	0.158745	-0.039397	0.514265
O130	O	0.658745	0.460603	1.014265
O131	O	0.000724	-0.039396	0.630638
O132	O	0.500724	0.460604	1.130638
Zn133	Zn	0.085009	-0.055208	0.577722
Zn134	Zn	0.585009	0.444792	1.077722
Zn135	Zn	0.041238	0.076005	0.533983
Zn136	Zn	0.541238	0.576005	1.033983
O137	O	0.100958	-0.039382	0.630360
O138	O	0.600958	0.460618	1.130360
N139	N	0.011362	0.165555	0.504130
N140	N	0.511362	0.665555	1.004130
N141	N	0.115121	-0.566884	1.029592
N142	N	0.615121	-0.066884	1.529592
O143	O	0.104990	-0.714248	1.234528
O144	O	0.604990	-0.214248	1.734528
O145	O	-0.011371	-0.556177	1.234539
O146	O	0.488629	-0.056177	1.734539
O147	O	-0.011103	-0.656395	1.234497
O148	O	0.488897	-0.156395	1.734497
O149	O	0.104722	-0.614030	1.234569
O150	O	0.604722	-0.114030	1.734569
O151	O	0.022090	-0.623190	1.134913
O152	O	0.522090	-0.123190	1.634913
O153	O	0.021822	-0.522972	1.134954
O154	O	0.521822	-0.022972	1.634954
O155	O	0.138182	-0.681044	1.134943
O156	O	0.638182	-0.181044	1.634943
Zn157	Zn	0.085272	-0.596736	1.119137
Zn158	Zn	0.585272	-0.096736	1.619137
Zn159	Zn	0.041539	-0.640484	1.250344
Zn160	Zn	0.541539	-0.140484	1.750344
O161	O	0.137914	-0.580826	1.134984
O162	O	0.637914	-0.080826	1.634984
N163	N	0.011689	-0.670343	1.339890
N164	N	0.511689	-0.170343	1.839890
C165	C	0.038085	-0.519567	0.481870
C166	C	0.538085	-0.019567	0.981870
C167	C	0.162104	-0.643505	0.481786
C168	C	0.662104	-0.143505	0.981786
C169	C	0.088200	-0.717587	0.629893
C170	C	0.588200	-0.217587	1.129893
C171	C	-0.035819	-0.593649	0.629977
C172	C	0.464181	-0.093649	1.129977
C173	C	0.692280	-0.692701	0.654545
C174	C	1.192280	-0.192701	1.154545
C175	C	0.692203	-0.692374	0.530435
C176	C	1.192203	-0.192374	1.030435
C177	C	0.692063	-0.544251	0.456717
C178	C	1.192063	-0.044251	0.956717
C179	C	0.692144	-0.544580	0.580825
C180	C	1.192144	-0.044580	1.080825
C181	C	0.162000	0.010521	0.481600
C182	C	0.662000	0.510521	0.981600
C183	C	0.037914	0.010381	0.481984
C184	C	0.537914	0.510381	0.981984
C185	C	-0.035795	0.010399	0.630065
C186	C	0.464205	0.510399	1.130065
C187	C	0.088333	0.010415	0.629722
C188	C	0.588333	0.510415	1.129722
C189	C	-0.010799	-0.519660	1.184747
C190	C	0.489201	-0.019660	1.684747
C191	C	-0.010461	-0.643761	1.184677
C192	C	0.489539	-0.143761	1.684677
C193	C	0.137610	-0.717561	1.184734
C194	C	0.637610	-0.217561	1.684734
C195	C	0.137280	-0.593452	1.184783
C196	C	0.637280	-0.093452	1.684783
H197	H	0.023897	-0.518815	1.024687
H198	H	0.523897	-0.018815	1.524687
H199	H	0.532080	-0.473208	0.574011
H200	H	1.032080	0.026792	1.074011
C201	C	-0.123445	0.061606	0.695412
C202	C	0.376555	0.561606	1.195412
C203	C	-0.097057	0.010405	0.679393
C204	C	0.402943	0.510405	1.179393
H205	H	-0.161263	0.061607	0.725868
H206	H	0.338737	0.561607	1.225868
H207	H	-0.128702	0.096323	0.661384
H208	H	0.371298	0.596323	1.161384
H209	H	-0.098267	0.061605	0.709858
H210	H	0.401733	0.561605	1.209858
H211	H	-0.122233	0.010407	0.664943
H212	H	0.377767	0.510407	1.164943
H213	H	-0.091802	-0.024322	0.713427
H214	H	0.408198	0.475678	1.213427
C215	C	0.743151	-0.478848	0.369039
C216	C	1.243151	0.021152	0.869039
C217	C	0.691989	-0.494916	0.395458
C218	C	1.191989	0.005084	0.895458
H219	H	0.743101	-0.448388	0.331223
H220	H	1.243101	0.051612	0.831223
H221	H	0.777889	-0.512860	0.363770
H222	H	1.277889	-0.012860	0.863770
H223	H	0.743153	-0.464390	0.394206
H224	H	1.243153	0.035610	0.894206
H225	H	0.691989	-0.509379	0.370293
H226	H	1.191989	-0.009379	0.870293
H227	H	0.657242	-0.460898	0.400724
H228	H	1.157242	0.039102	0.900724
C229	C	0.159041	0.010407	0.657273
C230	C	0.659041	0.510407	1.157273
C231	C	0.100599	0.010410	0.678848
C232	C	0.600599	0.510410	1.178848
H233	H	0.166614	0.010397	0.687604
H234	H	0.666614	0.510397	1.187604
H235	H	0.163487	0.045137	0.623229
H236	H	0.663487	0.545137	1.123229
H237	H	0.186655	-0.024322	0.646363
H238	H	0.686655	0.475678	1.146363
H239	H	0.072985	0.045141	0.689754
H240	H	0.572985	0.545141	1.189754
H241	H	0.096147	-0.024323	0.712902
H242	H	0.596147	0.475677	1.212902
C243	C	-0.110272	-0.466107	1.235928
C244	C	0.389728	0.033893	1.735928
C245	C	-0.060119	-0.458375	1.184748
C246	C	0.439881	0.041625	1.684748
H247	H	-0.140721	-0.428272	1.235924
H248	H	0.359279	0.071728	1.735924
H249	H	-0.099394	-0.484020	1.270657
H250	H	0.400606	0.015980	1.770657
H251	H	-0.124720	-0.491264	1.235906
H252	H	0.375280	0.008736	1.735906
H253	H	-0.045669	-0.433221	1.184773
H254	H	0.454331	0.066779	1.684773
H255	H	-0.070998	-0.440453	1.150010
H256	H	0.429002	0.059547	1.650010
C257	C	-0.037985	-0.714405	1.184555
C258	C	0.462015	-0.214405	1.684555
C259	C	-0.059563	-0.655968	1.184588
C260	C	0.440437	-0.155968	1.684588
H261	H	-0.068299	-0.721939	1.184496
H262	H	0.431701	-0.221939	1.684496
H263	H	-0.027113	-0.742036	1.219297
H264	H	0.472887	-0.242036	1.719297
H265	H	-0.003914	-0.718868	1.149842
H266	H	0.496086	-0.218868	1.649842
H267	H	-0.093632	-0.651507	1.219304
H268	H	0.406368	-0.151507	1.719304
H269	H	-0.070444	-0.628329	1.149842
H270	H	0.429556	-0.128329	1.649842
H271	H	0.097215	-0.763020	0.666340
H272	H	0.597215	-0.263020	1.166340
H273	H	0.029071	-0.474132	0.445424
H274	H	0.529071	0.025868	0.945424
H275	H	0.174144	-0.762957	1.184724
H276	H	0.674144	-0.262957	1.684724
C277	C	0.072479	-0.308448	0.772692
C278	C	0.572479	0.191552	1.272692
C279	C	0.103806	-0.272382	0.757526
C280	C	0.603806	0.227618	1.257526
H281	H	0.062260	-0.329736	0.814509
H282	H	0.562260	0.170264	1.314509
H283	H	0.096920	-0.336064	0.751401
H284	H	0.596920	0.163936	1.251401
H285	H	0.037006	-0.284000	0.762459
H286	H	0.537006	0.216000	1.262459
H287	H	0.139282	-0.296831	0.767755
H288	H	0.639282	0.203169	1.267755
H289	H	0.079364	-0.244763	0.778824
H290	H	0.579364	0.255237	1.278824
H291	H	0.173667	-0.584388	1.184797
H292	H	0.673667	-0.084388	1.684797
H293	H	0.028825	0.010378	0.445599
H294	H	0.528825	0.510378	0.945599
H295	H	0.207290	0.010797	0.444973
H296	H	0.707290	0.510797	0.944973
H297	H	0.061737	-0.480889	0.910978
H298	H	0.561737	0.019111	1.410978
H299	H	-0.081227	-0.584696	0.666460
H300	H	0.418773	-0.084696	1.166460
H301	H	0.692323	-0.729239	0.699929
H302	H	1.192323	-0.229239	1.199929
H303	H	0.692221	-0.728771	0.521355
H304	H	1.192221	-0.228771	1.021355
C305	C	0.257293	-0.674195	1.018394
C306	C	0.757293	-0.174195	1.518394
C307	C	0.221255	-0.621955	1.033562
C308	C	0.721255	-0.121955	1.533562
H309	H	0.284947	-0.698659	1.039659
H310	H	0.784947	-0.198659	1.539659
H311	H	0.278536	-0.663908	0.976580
H312	H	0.778536	-0.163908	1.476580
H313	H	0.232835	-0.695451	1.028669
H314	H	0.732835	-0.195451	1.528669
H315	H	0.245712	-0.600696	1.023283
H316	H	0.745712	-0.100696	1.523283
H317	H	0.200010	-0.632241	1.075385
H318	H	0.700010	-0.132241	1.575385
C319	C	0.274752	-0.552115	0.840334
C320	C	0.774752	-0.052115	1.340334
C321	C	0.265047	-0.578072	0.901969
C322	C	0.765047	-0.078072	1.401969
H323	H	0.316569	-0.562394	0.819056
H324	H	0.816569	-0.062394	1.319056
H325	H	0.257140	-0.509825	0.830074
H326	H	0.757140	-0.009825	1.330074
H327	H	0.257137	-0.566533	0.830071
H328	H	0.757137	-0.066533	1.330071
H329	H	0.282659	-0.563651	0.912232
H330	H	0.782659	-0.063651	1.412232
H331	H	0.282667	-0.620371	0.912233
H332	H	0.782667	-0.120371	1.412233
C333	C	-0.008483	-0.461706	0.712681
C334	C	0.491517	0.038294	1.212681
C335	C	0.050023	-0.470589	0.703797
C336	C	0.550023	0.029411	1.203797
H337	H	-0.036119	-0.437248	0.737140
H338	H	0.463881	0.062752	1.237140
H339	H	-0.014494	-0.499274	0.731818
H340	H	0.485506	0.000726	1.231818
H341	H	-0.014517	-0.442562	0.675111
H342	H	0.485483	0.057438	1.175111
H343	H	0.056058	-0.489738	0.741367
H344	H	0.556058	0.010262	1.241367
H345	H	0.056037	-0.433015	0.684661
H346	H	0.556037	0.066985	1.184661
H347	H	0.692134	-0.508185	0.589902
H348	H	1.192134	-0.008185	1.089902
H349	H	0.209407	-0.611608	0.562721
H350	H	0.709407	-0.111608	1.062721
C351	C	-0.008965	-0.566713	0.691267
C352	C	0.491035	-0.066713	1.191267
C353	C	0.006146	-0.514454	0.659936
C354	C	0.506146	-0.014454	1.159936
H355	H	-0.050785	-0.556441	0.701546
H356	H	0.449215	-0.056441	1.201546
H357	H	0.001329	-0.587980	0.726701
H358	H	0.501329	-0.087980	1.226701
H359	H	0.012306	-0.591153	0.666796
H360	H	0.512306	-0.091153	1.166796
H361	H	-0.015122	-0.490016	0.684409
H362	H	0.484878	0.009984	1.184409
H363	H	-0.004155	-0.493177	0.624497
H364	H	0.495845	0.006823	1.124497
C365	C	0.290788	-0.556737	0.533950
C366	C	0.790788	-0.056737	1.033950
C367	C	0.264885	-0.578006	0.596296
C368	C	0.764885	-0.078006	1.096296
H369	H	0.332610	-0.567007	0.523661
H370	H	0.832610	-0.067007	1.023661
H371	H	0.273163	-0.514446	0.519556
H372	H	0.773163	-0.014446	1.019556
H373	H	0.284168	-0.574342	0.516354
H374	H	0.784168	-0.074342	1.016354
H375	H	0.271502	-0.560396	0.613892
H376	H	0.771502	-0.060396	1.113892
H377	H	0.282517	-0.620304	0.610697
H378	H	0.782517	-0.120304	1.110697
C379	C	0.424621	-0.659972	0.652550
C380	C	0.924621	-0.159972	1.152550
C381	C	0.409479	-0.630775	0.690588
C382	C	0.909479	-0.130775	1.190588
H383	H	0.403363	-0.687296	0.672761
H384	H	0.903363	-0.187296	1.172761
H385	H	0.466434	-0.681160	0.641373
H386	H	0.966434	-0.181160	1.141373
H387	H	0.414323	-0.631258	0.617724
H388	H	0.914323	-0.131258	1.117724
H389	H	0.419781	-0.659489	0.725412
H390	H	0.919781	-0.159489	1.225412
H391	H	0.367656	-0.609586	0.701774
H392	H	0.867656	-0.109586	1.201774
C393	C	0.577115	-0.696301	0.680543
C394	C	1.077115	-0.196301	1.180543
C395	C	0.541050	-0.674636	0.646702
C396	C	1.041050	-0.174636	1.146702
H397	H	0.598394	-0.737802	0.686565
H398	H	1.098394	-0.237802	1.186565
H399	H	0.552677	-0.690490	0.718204
H400	H	1.052677	-0.190490	1.218204
H401	H	0.604742	-0.675308	0.659804
H402	H	1.104742	-0.175308	1.159804
H403	H	0.513420	-0.695626	0.667444
H404	H	1.013420	-0.195626	1.167444
H405	H	0.565491	-0.680453	0.609035
H406	H	1.065491	-0.180453	1.109035
H407	H	0.418366	-0.435297	0.611936
H408	H	0.918366	0.064703	1.111936
H409	H	0.162897	-0.149674	0.516363
H410	H	0.662897	0.350326	1.016363
C411	C	0.179721	-0.257175	0.506608
C412	C	0.679721	0.242825	1.006608
C413	C	0.211103	-0.272329	0.542632
C414	C	0.711103	0.227671	1.042632
H415	H	0.204164	-0.278442	0.478960
H416	H	0.704164	0.221558	0.978960
H417	H	0.169431	-0.215359	0.485356
H418	H	0.669431	0.284641	0.985356
H419	H	0.144288	-0.267456	0.531078
H420	H	0.644288	0.232544	1.031078
H421	H	0.246534	-0.262043	0.518162
H422	H	0.746534	0.237957	1.018162
H423	H	0.221402	-0.314154	0.563885
H424	H	0.721402	0.185846	1.063885
C425	C	0.051025	-0.181531	0.772201
C426	C	0.551025	0.318469	1.272201
C427	C	0.059865	-0.140773	0.713701
C428	C	0.559865	0.359227	1.213701
H429	H	0.026578	-0.160266	0.799851
H430	H	0.526578	0.339734	1.299851
H431	H	0.088603	-0.205976	0.778205
H432	H	0.588603	0.294024	1.278205
H433	H	0.031889	-0.205984	0.778223
H434	H	0.531889	0.294016	1.278223
H435	H	0.079005	-0.116323	0.707678
H436	H	0.579005	0.383677	1.207678
H437	H	0.022280	-0.116317	0.707695
H438	H	0.522280	0.383683	1.207695
H439	H	0.207509	-0.652460	0.445301
H440	H	0.707509	-0.152460	0.945301
