data_functionalizedCrystal
_audit_creation_method	'MofGen! by Chris Wilmer'
_symmetry_space_group_name_H-M	'P1'
_symmetry_Int_Tables_number	1
_symmetry_cell_setting	triclinic
loop_
_symmetry_equiv_pos_as_xyz
  x,y,z
_cell_length_a	11.169417
_cell_length_b	10.686285
_cell_length_c	11.169409
_cell_angle_alpha	94.400340
_cell_angle_beta	90.019824
_cell_angle_gamma	85.632710
loop_
_atom_site_label
_atom_site_type_symbol
_atom_site_fract_x
_atom_site_fract_y
_atom_site_fract_z
Zn1	Zn	1.871633	-0.502220	0.641959
Zn2	Zn	2.371633	-0.002220	1.141959
Zn3	Zn	1.886933	-0.713272	0.425902
Zn4	Zn	2.386933	-0.213272	0.925902
Zn5	Zn	1.670924	-0.502297	0.441288
Zn6	Zn	2.170924	-0.002297	0.941288
Zn7	Zn	1.686329	-0.713169	0.626554
Zn8	Zn	2.186329	-0.213169	1.126554
O9	O	1.778955	-0.607740	0.533926
O10	O	2.278955	-0.107740	1.033926
O11	O	2.041613	-0.530227	0.613306
O12	O	2.541613	-0.030227	1.113306
O13	O	1.858235	-0.685361	0.259988
O14	O	2.358235	-0.185361	0.759988
O15	O	1.684699	-0.325709	0.480793
O16	O	2.184699	0.174291	0.980793
O17	O	2.052854	-0.685286	0.454570
O18	O	2.552854	-0.185286	0.954570
O19	O	1.832159	-0.325653	0.628225
O20	O	2.332159	0.174347	1.128225
O21	O	1.699534	-0.530358	0.271291
O22	O	2.199534	-0.030358	0.771291
O23	O	1.505017	-0.530259	0.465856
O24	O	2.005017	-0.030259	0.965856
O25	O	1.710954	-0.685111	0.796553
O26	O	2.210954	-0.185111	1.296553
O27	O	1.516335	-0.685186	0.601970
O28	O	2.016335	-0.185186	1.101970
O29	O	1.847096	-0.530128	0.807871
O30	O	2.347096	-0.030128	1.307871
O31	O	1.873172	-0.889836	0.439633
O32	O	2.373172	-0.389836	0.939633
O33	O	1.725790	-0.889760	0.587051
O34	O	2.225790	-0.389760	1.087051
C35	C	1.467129	-0.607720	0.533912
C36	C	1.967129	-0.107720	1.033912
C37	C	1.333730	-0.607743	0.533932
C38	C	1.833730	-0.107743	1.033932
C39	C	1.802845	-0.935582	0.510027
C40	C	2.302845	-0.435582	1.010027
C41	C	1.813176	-1.075835	0.499843
C42	C	2.313176	-0.575835	0.999843
C43	C	2.091999	-0.607760	0.533940
C44	C	2.591999	-0.107760	1.033940
C45	C	2.225399	-0.607768	0.533947
C46	C	2.725399	-0.107768	1.033947
C47	C	1.779037	-0.607599	0.846979
C48	C	2.279037	-0.107599	1.346979
C49	C	1.779072	-0.607540	0.980383
C50	C	2.279072	-0.107540	1.480383
C51	C	1.755004	-0.278617	0.557944
C52	C	2.255004	0.221383	1.057944
C53	C	1.744797	-0.138364	0.568179
C54	C	2.244797	0.361636	1.068179
C55	C	1.778936	-0.607788	0.222097
C56	C	2.278936	-0.107788	0.722097
C57	C	1.779107	-0.607492	0.088720
C58	C	2.279107	-0.107492	0.588720
H59	H	1.678353	-1.084602	0.634477
H60	H	2.178353	-0.584602	1.134477
O61	O	1.892610	-1.140006	0.420926
O62	O	2.392610	-0.640006	0.920926
C63	C	1.975606	-1.216119	0.483885
C64	C	2.475606	-0.716119	0.983885
H65	H	1.980014	-1.176247	0.581287
H66	H	2.480014	-0.676247	1.081287
H67	H	2.068123	-1.217658	0.440488
H68	H	2.568123	-0.717658	0.940488
H69	H	1.945796	-1.315997	0.480792
H70	H	2.445796	-0.815997	0.980792
