data_functionalizedCrystal
_audit_creation_method	'MofGen! by Chris Wilmer'
_symmetry_space_group_name_H-M	'P1'
_symmetry_Int_Tables_number	1
_symmetry_cell_setting	triclinic
loop_
_symmetry_equiv_pos_as_xyz
  x,y,z
_cell_length_a	26.455835
_cell_length_b	26.455273
_cell_length_c	26.451828
_cell_angle_alpha	60.005170
_cell_angle_beta	60.010757
_cell_angle_gamma	59.993435
loop_
_atom_site_label
_atom_site_type_symbol
_atom_site_fract_x
_atom_site_fract_y
_atom_site_fract_z
O1	O	0.069940	-0.738516	0.617604
O2	O	0.026299	-0.574986	0.497618
O3	O	0.129847	-0.678463	0.497546
O4	O	-0.033607	-0.635040	0.617676
O5	O	0.164197	-0.644116	0.531822
O6	O	0.060649	-0.540639	0.531894
O7	O	0.104290	-0.704170	0.651880
Cu8	Cu	0.085606	-0.619268	0.595016
Cu9	Cu	0.044984	-0.659887	0.554481
O10	O	0.000742	-0.600693	0.651952
N11	N	0.114179	-0.590703	0.623530
N12	N	0.016416	-0.688458	0.525968
C13	C	0.157553	-0.547535	0.933368
C14	C	0.424104	-0.547506	0.666656
C15	C	0.157413	-0.547503	0.666729
C16	C	0.157397	-0.280846	0.666749
C17	C	0.200330	-0.409550	0.709625
C18	C	0.200339	-0.504608	0.709615
C19	C	0.224118	-0.480848	0.733375
C20	C	0.327800	-0.462984	0.678792
C21	C	0.392611	-0.484588	0.657175
C22	C	0.392630	-0.589450	0.697162
C23	C	0.327821	-0.567844	0.718781
C24	C	0.215955	-0.377135	0.645910
C25	C	0.194327	-0.312320	0.624323
C26	C	0.141457	-0.312339	0.730169
C27	C	0.163084	-0.377154	0.751756
C28	C	0.136618	-0.488954	0.725292
C29	C	0.115007	-0.510553	0.703686
C30	C	0.220833	-0.563461	0.650740
C31	C	0.242447	-0.541861	0.672339
C32	C	0.136680	-0.488971	0.837094
C33	C	0.115112	-0.510589	0.901907
C34	C	0.220969	-0.563508	0.901868
C35	C	0.242535	-0.541892	0.837053
C36	C	0.200389	-0.504622	0.804668
C37	C	0.295409	-0.504610	0.709593
C38	C	0.132990	-0.570876	1.004655
C39	C	0.495389	-0.570440	0.642547
C40	C	0.132802	-0.570856	0.643399
C41	C	0.133212	-0.209553	0.643833
C42	C	-0.097217	-0.706972	0.506986
C43	C	-0.002040	-0.707108	0.412067
C44	C	-0.002230	-0.802124	0.507163
C45	C	-0.002214	-0.707101	0.507221
C46	C	-0.025925	-0.730827	0.483360
N47	N	0.553723	-0.590712	0.623415
O48	O	0.751638	-0.596429	0.475603
O49	O	0.751819	-0.716773	0.638980
O50	O	0.751753	-0.716500	0.535361
O51	O	0.751705	-0.596703	0.579222
O52	O	0.648791	-0.682239	0.569747
O53	O	0.648858	-0.682512	0.673366
O54	O	0.648676	-0.562169	0.509989
Cu55	Cu	0.639366	-0.619212	0.594817
Cu56	Cu	0.761130	-0.659729	0.554152
O57	O	0.648743	-0.562442	0.613609
N58	N	0.846773	-0.688230	0.525548
N59	N	0.114157	-0.151217	0.623565
O60	O	-0.033591	0.046803	0.617717
O61	O	0.129795	0.046806	0.497390
O62	O	0.026157	0.046789	0.497680
O63	O	0.070046	0.046819	0.617427
O64	O	0.060509	-0.056181	0.532004
O65	O	0.164146	-0.056164	0.531714
O66	O	0.000760	-0.056167	0.652041
Cu67	Cu	0.085590	-0.065568	0.595012
Cu68	Cu	0.044965	0.056206	0.554419
O69	O	0.104397	-0.056151	0.651751
N70	N	0.016390	0.141855	0.525867
N71	N	0.114410	-0.590756	1.062992
O72	O	0.108565	-0.738494	1.260998
O73	O	-0.011747	-0.575059	1.261012
O74	O	-0.011470	-0.678679	1.260970
O75	O	0.108287	-0.634874	1.261040
O76	O	0.022849	-0.644347	1.158004
O77	O	0.022572	-0.540726	1.158046
O78	O	0.142884	-0.704162	1.158033
Cu79	Cu	0.085861	-0.619309	1.148638
Cu80	Cu	0.045275	-0.659911	1.270406
O81	O	0.142606	-0.600541	1.158074
N82	N	0.016726	-0.688471	1.356052
C83	C	0.039385	-0.537207	0.498225
C84	C	0.167616	-0.665350	0.498136
C85	C	0.091204	-0.741950	0.651272
C86	C	-0.037027	-0.613806	0.651361
C87	C	0.700360	-0.716215	0.676756
C88	C	0.700279	-0.715877	0.548436
C89	C	0.700133	-0.562725	0.472214
C90	C	0.700218	-0.563065	0.600533
C91	C	0.167511	-0.004552	0.497940
C92	C	0.039211	-0.004699	0.498341
C93	C	-0.036999	-0.004682	0.651449
C94	C	0.091344	-0.004663	0.651090
C95	C	-0.011156	-0.537302	1.209530
C96	C	-0.010806	-0.665617	1.209458
C97	C	0.142293	-0.741918	1.209514
C98	C	0.141950	-0.613596	1.209563
H99	H	0.102355	-0.458618	0.810728
O100	O	0.699981	-0.517667	0.416244
C101	C	0.646629	-0.503307	0.405175
H102	H	0.628898	-0.544251	0.434057
H103	H	0.609270	-0.460874	0.418534
C104	C	0.684546	-0.439345	0.300547
C105	C	0.662771	-0.489636	0.336017
H106	H	0.694501	-0.430909	0.257887
H107	H	0.720489	-0.449017	0.308005
H108	H	0.653410	-0.403989	0.311687
H109	H	0.693910	-0.524992	0.324882
H110	H	0.626833	-0.479969	0.328555
H111	H	0.214338	-0.004265	0.460069
H112	H	-0.048413	-0.674973	1.209396
H113	H	0.700208	-0.525435	0.609919
O114	O	0.102662	-0.004692	0.695917
C115	C	0.163514	-0.004676	0.673358
H116	H	0.192791	-0.024164	0.633612
H117	H	0.162597	0.044724	0.656093
C118	C	0.155720	-0.021126	0.774543
C119	C	0.191679	-0.045068	0.725730
H120	H	0.173093	-0.046039	0.806849
H121	H	0.114722	-0.021135	0.789742
H122	H	0.154958	0.020039	0.760148
H123	H	0.192434	-0.086230	0.740124
H124	H	0.232678	-0.045067	0.710536
H125	H	0.700298	-0.753510	0.539047
O126	O	-0.056145	-0.481253	1.209451
C127	C	-0.034984	-0.434585	1.156129
H128	H	0.017786	-0.451626	1.138361
H129	H	-0.052541	-0.423005	1.118775
C130	C	-0.124250	-0.355303	1.194167
C131	C	-0.059437	-0.376231	1.172347
H132	H	-0.139335	-0.319306	1.204170
H133	H	-0.138508	-0.386744	1.230090
H134	H	-0.138872	-0.345657	1.163035
H135	H	-0.044816	-0.385883	1.203482
H136	H	-0.045177	-0.344790	1.136429
H137	H	0.419022	-0.640939	0.704632
O138	O	0.187282	-0.797957	1.209535
C139	C	0.165005	-0.836471	1.209491
H140	H	0.112272	-0.819696	1.228976
H141	H	0.180742	-0.834789	1.160085
C142	C	0.255417	-0.924076	1.225928
C143	C	0.190649	-0.903476	1.249865
H144	H	0.271237	-0.965409	1.250830
H145	H	0.270427	-0.898129	1.225955
H146	H	0.268523	-0.922670	1.184757
H147	H	0.177544	-0.904875	1.291032
H148	H	0.175637	-0.929425	1.249845
H149	H	0.255291	-0.593843	0.928229
O150	O	0.186854	-0.602354	1.209469
C151	C	0.201056	-0.552211	1.156160
H152	H	0.187456	-0.547330	1.118878
H153	H	0.174343	-0.507819	1.168226
C154	C	0.287728	-0.569993	1.177780
C155	C	0.271029	-0.564001	1.131988
H156	H	0.330890	-0.577263	1.162871
H157	H	0.278159	-0.603774	1.213697
H158	H	0.265462	-0.532997	1.187831
H159	H	0.293289	-0.600999	1.121944
H160	H	0.280604	-0.530226	1.096069
O161	O	0.053200	-0.495295	0.933303
C162	C	0.020631	-0.457776	0.890817
H163	H	0.051526	-0.434215	0.844613
H164	H	0.006647	-0.487670	0.883927
C165	C	-0.075732	-0.437178	0.972878
C166	C	-0.037789	-0.408235	0.916130
H167	H	-0.111770	-0.406620	0.988493
H168	H	-0.053791	-0.462456	1.001502
H169	H	-0.087379	-0.462089	0.967129
H170	H	-0.026137	-0.383331	0.921882
H171	H	-0.059730	-0.382951	0.887507
H172	H	0.294416	-0.554643	0.810656
O173	O	0.102217	-0.797993	0.696252
C174	C	0.059749	-0.825493	0.712908
H175	H	0.016876	-0.787994	0.700498
H176	H	0.082178	-0.859207	0.686838
C177	C	0.093634	-0.906703	0.798322
C178	C	0.040974	-0.860645	0.783085
H179	H	0.082054	-0.928389	0.841610
H180	H	0.122247	-0.888177	0.787100
H181	H	0.112319	-0.934792	0.776593
H182	H	0.022295	-0.832553	0.804808
H183	H	0.012358	-0.879167	0.794313
O184	O	0.028158	-0.481143	0.453324
C185	C	-0.032679	-0.442731	0.475784
H186	H	-0.062020	-0.472602	0.515541
H187	H	-0.031746	-0.411481	0.493003
C188	C	-0.024720	-0.365946	0.374522
C189	C	-0.060759	-0.402635	0.423349
H190	H	-0.042041	-0.341211	0.342178
H191	H	0.016268	-0.391824	0.359390
H192	H	-0.023946	-0.339910	0.388880
H193	H	-0.061526	-0.428676	0.408993
H194	H	-0.101747	-0.376761	0.438477
H195	H	-0.083922	-0.004684	0.689225
O196	O	0.053089	-0.495320	0.718996
C197	C	0.020556	-0.457799	0.756521
H198	H	0.051485	-0.466071	0.780069
H199	H	0.006551	-0.407027	0.726638
C200	C	-0.075832	-0.464065	0.777148
C201	C	-0.037845	-0.474228	0.806074
H202	H	-0.111858	-0.474196	0.807713
H203	H	-0.053914	-0.489341	0.751865
H204	H	-0.087496	-0.421755	0.752246
H205	H	-0.026175	-0.516539	0.830969
H206	H	-0.059762	-0.448959	0.831363
O207	O	0.261822	-0.599623	0.614519
C208	C	0.322696	-0.608820	0.605336
H209	H	0.322579	-0.569748	0.612582
H210	H	0.341286	-0.654996	0.639821
C211	C	0.364380	-0.657261	0.530030
C212	C	0.364238	-0.609268	0.538925
H213	H	0.390007	-0.657540	0.489066
H214	H	0.323369	-0.651067	0.536218
H215	H	0.379870	-0.695735	0.558772
H216	H	0.348741	-0.570794	0.510188
H217	H	0.405248	-0.615456	0.532731
H218	H	0.102328	-0.458621	0.755642
H219	H	0.029814	-0.004702	0.460721
H220	H	0.301449	-0.601745	0.743862
O221	O	0.423982	-0.444065	0.627241
C222	C	0.381475	-0.383622	0.623781
H223	H	0.335271	-0.381094	0.628036
H224	H	0.374600	-0.371523	0.663048
C225	C	0.463494	-0.340457	0.555981
C226	C	0.406746	-0.337352	0.561203
H227	H	0.479082	-0.311914	0.517382
H228	H	0.492132	-0.381179	0.558314
H229	H	0.457757	-0.330376	0.588707
H230	H	0.412485	-0.347440	0.528482
H231	H	0.378109	-0.296630	0.558863
O232	O	0.700529	-0.761306	0.732706
C233	C	0.753860	-0.775645	0.743799
H234	H	0.791096	-0.761916	0.697836
H235	H	0.741804	-0.749126	0.773726
C236	C	0.732368	-0.862538	0.834029
C237	C	0.778104	-0.845681	0.777576
H238	H	0.747321	-0.905739	0.854866
H239	H	0.696436	-0.852877	0.826557
H240	H	0.722326	-0.840433	0.858960
H241	H	0.788139	-0.867779	0.752642
H242	H	0.814038	-0.855348	0.785044
H243	H	0.294333	-0.554601	0.659567
H244	H	0.301415	-0.411495	0.671309
H245	H	0.246280	-0.403511	0.611604
H246	H	0.207047	-0.285927	0.572438
O247	O	-0.093058	-0.602656	0.696310
C248	C	-0.131531	-0.541826	0.673919
H249	H	-0.101715	-0.512429	0.634160
H250	H	-0.162796	-0.542765	0.656723
C251	C	-0.208218	-0.549924	0.775230
C252	C	-0.171597	-0.513817	0.726401
H253	H	-0.232935	-0.532647	0.807603
H254	H	-0.182299	-0.590907	0.790315
H255	H	-0.234267	-0.550703	0.760892
H256	H	-0.145543	-0.513044	0.740737
H257	H	-0.197512	-0.472832	0.711319
H258	H	0.150353	-0.403547	0.803641
O259	O	0.105266	-0.280961	0.771176
C260	C	0.096137	-0.323470	0.832044
H261	H	0.103382	-0.369672	0.831928
H262	H	0.130652	-0.330360	0.850592
C263	C	0.020855	-0.241439	0.873776
C264	C	0.029749	-0.298184	0.873635
H265	H	-0.020095	-0.225841	0.899433
H266	H	0.027006	-0.212799	0.832768
H267	H	0.049622	-0.247188	0.889231
H268	H	0.000987	-0.292432	0.858173
H269	H	0.023591	-0.326822	0.914642
H270	H	0.214562	-0.674609	0.460411
