data_functionalizedCrystal
_audit_creation_method	'MofGen! by Chris Wilmer'
_symmetry_space_group_name_H-M	'P1'
_symmetry_Int_Tables_number	1
_symmetry_cell_setting	triclinic
loop_
_symmetry_equiv_pos_as_xyz
  x,y,z
_cell_length_a	16.974800
_cell_length_b	10.540510
_cell_length_c	15.455313
_cell_angle_alpha	92.694210
_cell_angle_beta	90.973911
_cell_angle_gamma	83.950335
loop_
_atom_site_label
_atom_site_type_symbol
_atom_site_fract_x
_atom_site_fract_y
_atom_site_fract_z
O1	O	1.049974	0.161819	0.001607
O2	O	0.820649	0.181204	-0.014499
O3	O	0.940556	-0.013255	-0.006077
O4	O	0.930068	0.356278	-0.006815
O5	O	0.933699	-0.002181	0.137703
O6	O	0.813792	0.192278	0.129282
O7	O	1.043117	0.172893	0.145387
Cu8	Cu	0.927829	0.183597	0.150463
Cu9	Cu	0.935938	0.170500	-0.019574
O10	O	0.923211	0.367352	0.136966
C11	C	0.787856	0.185801	0.055329
C12	C	0.700359	0.182984	0.049184
C13	C	0.655520	0.187695	0.124674
C14	C	0.573308	0.185028	0.118903
C15	C	0.535937	0.177660	0.037641
C16	C	0.580783	0.172946	-0.037855
C17	C	0.662993	0.175603	-0.032082
C18	C	0.290464	0.169055	0.011973
C19	C	0.208247	0.166402	0.006207
C20	C	0.200779	0.178482	0.162965
C21	C	0.282991	0.181147	0.168730
C22	C	0.327830	0.176425	0.093235
N23	N	0.451903	0.174938	0.031740
N24	N	0.411863	0.179138	0.099137
C25	C	0.936346	-0.055013	0.065756
C26	C	0.934008	-0.195938	0.065587
C27	C	1.017291	-0.414287	0.071766
C28	C	1.019801	-0.267744	0.071613
C29	C	0.894006	-0.246536	-0.019601
C30	C	0.892122	-0.393281	-0.019798
C31	C	0.882538	-0.380476	0.143582
C32	C	0.886555	-0.234097	0.144948
C33	C	1.075910	0.168296	0.075557
C34	C	1.163408	0.171112	0.081697
C35	C	0.927421	0.409110	0.065130
C36	C	0.929759	0.550034	0.065294
N37	N	0.922131	0.192807	0.270058
N38	N	0.941642	0.161280	-0.139169
C39	C	0.973089	0.110225	0.319031
C40	C	0.968788	0.117202	0.409537
C41	C	0.913531	0.206769	0.451068
C42	C	0.862567	0.289355	0.402089
C43	C	0.866865	0.282371	0.311584
C44	C	0.894977	0.236882	0.721347
C45	C	0.890683	0.243862	0.811858
C46	C	0.996904	0.071706	0.819300
C47	C	1.001201	0.064735	0.728794
C48	C	0.950234	0.147317	0.679822
N49	N	0.909134	0.213906	0.543580
N50	N	0.954627	0.140173	0.587312
H51	H	0.550349	0.166937	-0.104020
H52	H	0.906834	-0.418166	0.207732
H53	H	0.699501	0.171770	-0.093554
H54	H	0.536805	0.188842	0.180375
C55	C	0.829898	0.342386	0.857545
H56	H	0.834647	0.334725	0.918460
H57	H	0.777932	0.327218	0.839035
H58	H	0.839631	0.426006	0.843336
C59	C	0.810814	0.373217	0.257714
H60	H	0.777294	0.427569	0.295410
H61	H	0.779435	0.324682	0.220098
H62	H	0.841136	0.423467	0.224410
H63	H	1.051357	-0.234246	0.132880
H64	H	0.685940	0.193705	0.190847
C65	C	0.838937	0.327748	0.667486
H66	H	0.849406	0.310766	0.607636
H67	H	0.847275	0.413642	0.682954
H68	H	0.785556	0.314886	0.678629
H69	H	0.927419	-0.220722	-0.078561
C70	C	0.324098	0.189245	0.258116
H71	H	0.379481	0.190164	0.250741
H72	H	0.314692	0.117335	0.289770
H73	H	0.303487	0.265257	0.288978
H74	H	0.817571	0.362279	0.435908
C75	C	0.151451	0.183720	0.246002
H76	H	0.097136	0.181090	0.230929
H77	H	0.157801	0.260606	0.278736
H78	H	0.168977	0.112687	0.279565
C79	C	0.925802	-0.189591	0.230036
H80	H	0.970916	-0.147920	0.217259
H81	H	0.941652	-0.261428	0.263499
H82	H	0.889051	-0.131936	0.261837
H83	H	1.053314	-0.462669	0.015552
C84	C	0.936583	-0.454443	-0.099884
H85	H	0.955632	-0.389550	-0.131987
H86	H	0.901570	-0.499567	-0.135252
H87	H	0.979980	-0.511926	-0.081825
C88	C	0.167138	0.158326	-0.083186
H89	H	0.205617	0.155895	-0.127322
H90	H	0.129630	0.231009	-0.089074
H91	H	0.140815	0.083084	-0.088310
C92	C	1.058653	-0.465322	0.154483
H93	H	1.022915	-0.508857	0.185811
H94	H	1.074796	-0.395998	0.189529
H95	H	1.103760	-0.522620	0.139139
C96	C	1.070280	-0.236009	-0.004758
H97	H	1.089325	-0.312731	-0.035816
H98	H	1.113860	-0.193768	0.016667
H99	H	1.038788	-0.181963	-0.042257
H100	H	0.828131	-0.415855	-0.028025
H101	H	0.326963	0.165207	-0.049501
C102	C	1.024850	0.026373	0.463404
H103	H	1.058382	-0.027956	0.425708
H104	H	0.994542	-0.023882	0.496713
H105	H	1.056227	0.074927	0.501016
C106	C	0.801623	-0.166357	0.145713
H107	H	0.793954	-0.113691	0.097422
H108	H	0.793732	-0.115252	0.197738
H109	H	0.764781	-0.228343	0.142432
C110	C	0.808884	-0.181890	-0.029729
H111	H	0.796957	-0.123322	0.018019
H112	H	0.772773	-0.244981	-0.031500
H113	H	0.804412	-0.137457	-0.081951
C114	C	0.795486	-0.409378	0.138222
H115	H	0.787922	-0.463523	0.088545
H116	H	0.761964	-0.331791	0.134057
H117	H	0.782874	-0.450680	0.188750
H118	H	1.018089	0.037295	0.285223
H119	H	1.046195	-0.008197	0.694981
H120	H	1.038398	0.004471	0.859181
