data_functionalizedCrystal
_audit_creation_method	'MofGen! by Chris Wilmer'
_symmetry_space_group_name_H-M	'P1'
_symmetry_Int_Tables_number	1
_symmetry_cell_setting	triclinic
loop_
_symmetry_equiv_pos_as_xyz
  x,y,z
_cell_length_a	16.120490
_cell_length_b	16.120444
_cell_length_c	12.759393
_cell_angle_alpha	92.863624
_cell_angle_beta	87.082392
_cell_angle_gamma	90.165174
loop_
_atom_site_label
_atom_site_type_symbol
_atom_site_fract_x
_atom_site_fract_y
_atom_site_fract_z
Zn1	Zn	1.254489	-0.395618	-0.699338
Zn2	Zn	1.247325	-0.534692	-0.532072
Zn3	Zn	1.115423	-0.388593	-0.514348
Zn4	Zn	1.108339	-0.527563	-0.698383
O5	O	1.181394	-0.461616	-0.611035
O6	O	1.369905	-0.419989	-0.684967
O7	O	1.229794	-0.515355	-0.382701
O8	O	1.139834	-0.273162	-0.531869
O9	O	1.364641	-0.522166	-0.562078
O10	O	1.242005	-0.278323	-0.667780
O11	O	1.132887	-0.408017	-0.369678
O12	O	0.998118	-0.401104	-0.530942
O13	O	1.127760	-0.510017	-0.845530
O14	O	0.992913	-0.503205	-0.666152
O15	O	1.235136	-0.413077	-0.846232
O16	O	1.222925	-0.650109	-0.561152
O17	O	1.120813	-0.644871	-0.683339
C18	C	0.965343	-0.450619	-0.596521
C19	C	0.872914	-0.445935	-0.590338
C20	C	1.170345	-0.677663	-0.624090
C21	C	1.165694	-0.770092	-0.629715
C22	C	0.659945	-0.485909	-0.643109
C23	C	0.703691	-0.437390	-0.579048
C24	C	0.797855	-0.442146	-0.585332
C25	C	0.565772	-0.481154	-0.636827
C26	C	1.205723	-0.983072	-0.582095
C27	C	1.157219	-0.939317	-0.639997
C28	C	1.161936	-0.845152	-0.634274
C29	C	1.201007	-1.077246	-0.587816
C30	C	1.398289	-0.472657	-0.625606
C31	C	1.490717	-0.477361	-0.631816
C32	C	1.181457	-0.461535	-0.885067
C33	C	1.181483	-0.461501	-1.001844
C34	C	1.192509	-0.244727	-0.597954
C35	C	1.197245	-0.152302	-0.592380
C36	C	1.237402	-0.411020	-1.057073
C37	C	1.237423	-0.410991	-1.166797
C38	C	1.125605	-0.511931	-1.166052
C39	C	1.125580	-0.511955	-1.056330
C40	C	1.301961	-0.352745	-1.057504
C41	C	1.301983	-0.352716	-1.167228
C42	C	1.181383	-0.461639	-0.338068
C43	C	1.181529	-0.461448	-0.221289
H44	H	0.670422	-0.392280	-0.519485
O45	O	1.259411	-0.943266	-0.517846
C46	C	1.252230	-0.856747	-0.526378
H47	H	1.188618	-0.841771	-0.555722
H48	H	1.259516	-0.823993	-0.446101
H49	H	1.302748	-0.834515	-0.584209
H50	H	1.080043	-0.553059	-1.011366
H51	H	1.080089	-0.553007	-1.210428
H52	H	1.112150	-0.972579	-0.693866
H53	H	0.693212	-0.531016	-0.702666
O54	O	1.285165	-0.274895	-1.016008
C55	C	1.206612	-0.249607	-1.046318
H56	H	1.167677	-0.306699	-1.066950
H57	H	1.173911	-0.211593	-0.978743
H58	H	1.214725	-0.210079	-1.117769
O59	O	1.373516	-0.384104	-1.023585
C60	C	1.383913	-0.466714	-1.063694
H61	H	1.347276	-0.476731	-1.137377
H62	H	1.452575	-0.479116	-1.084095
H63	H	1.360297	-0.511095	-1.002046
O64	O	1.278077	-0.278382	-1.201631
C65	C	1.206561	-0.289587	-1.259939
H66	H	1.172879	-0.348481	-1.235883
H67	H	1.163539	-0.233912	-1.243757
H68	H	1.225432	-0.295427	-1.347322
O69	O	1.377696	-0.377289	-1.209298
C70	C	1.368643	-0.449545	-1.274659
H71	H	1.302407	-0.453199	-1.301879
H72	H	1.414049	-0.447279	-1.345937
H73	H	1.382155	-0.506586	-1.229017
