data_functionalizedCrystal
_audit_creation_method	'MofGen! by Chris Wilmer'
_symmetry_space_group_name_H-M	'P1'
_symmetry_Int_Tables_number	1
_symmetry_cell_setting	triclinic
loop_
_symmetry_equiv_pos_as_xyz
  x,y,z
_cell_length_a	13.897449
_cell_length_b	21.295418
_cell_length_c	13.897441
_cell_angle_alpha	90.034735
_cell_angle_beta	90.020733
_cell_angle_gamma	90.028679
loop_
_atom_site_label
_atom_site_type_symbol
_atom_site_fract_x
_atom_site_fract_y
_atom_site_fract_z
Zn1	Zn	1.474638	-0.250568	0.545353
Zn2	Zn	1.807971	0.082766	0.878687
Zn3	Zn	2.141304	0.416099	1.212020
Zn4	Zn	1.474504	-0.355847	0.384043
Zn5	Zn	1.807838	-0.022513	0.717377
Zn6	Zn	2.141171	0.310820	1.050710
Zn7	Zn	1.313327	-0.250598	0.384072
Zn8	Zn	1.646660	0.082736	0.717405
Zn9	Zn	1.979993	0.416069	1.050738
Zn10	Zn	1.313281	-0.355805	0.545296
Zn11	Zn	1.646614	-0.022472	0.878629
Zn12	Zn	1.979948	0.310861	1.211962
O13	O	1.393937	-0.303204	0.464691
O14	O	1.727271	0.030129	0.798024
O15	O	2.060604	0.363462	1.131358
O16	O	1.609601	-0.264538	0.523967
O17	O	1.942935	0.068795	0.857301
O18	O	2.276268	0.402129	1.190634
O19	O	1.453087	-0.341915	0.249065
O20	O	1.786420	-0.008582	0.582399
O21	O	2.119754	0.324752	0.915732
O22	O	1.334800	-0.162504	0.405502
O23	O	1.668133	0.170829	0.738836
O24	O	2.001466	0.504162	1.072169
O25	O	1.609503	-0.341886	0.405453
O26	O	1.942837	-0.008553	0.738787
O27	O	2.276170	0.324781	1.072120
O28	O	1.453314	-0.162482	0.523995
O29	O	1.786648	0.170851	0.857329
O30	O	2.119981	0.504184	1.190662
O31	O	1.334670	-0.264589	0.249086
O32	O	1.668004	0.068744	0.582420
O33	O	2.001337	0.402078	0.915753
O34	O	1.178339	-0.264549	0.405446
O35	O	1.511672	0.068784	0.738780
O36	O	1.845006	0.402118	1.072113
O37	O	1.334722	-0.341815	0.680285
O38	O	1.668055	-0.008482	1.013618
O39	O	2.001389	0.324851	1.346952
O40	O	1.178306	-0.341844	0.523897
O41	O	1.511639	-0.008511	0.857230
O42	O	1.844972	0.324822	1.190564
O43	O	1.453270	-0.264498	0.680328
O44	O	1.786603	0.068836	1.013661
O45	O	2.119937	0.402169	1.346994
O46	O	1.453043	-0.443931	0.405398
O47	O	1.786376	-0.110597	0.738731
O48	O	2.119709	0.222736	1.072064
O49	O	1.334593	-0.443900	0.523869
O50	O	1.667926	-0.110567	0.857202
O51	O	2.001259	0.222767	1.190536
C52	C	1.143323	-0.303196	0.464669
C53	C	1.476656	0.030137	0.798002
C54	C	1.809990	0.363471	1.131336
C55	C	1.036109	-0.303207	0.464683
C56	C	1.369442	0.030126	0.798016
C57	C	1.702776	0.363459	1.131349
C58	C	1.393825	-0.466756	0.464645
C59	C	1.727158	-0.133423	0.797978
C60	C	2.060491	0.199911	1.131312
C61	C	1.393864	-0.536724	0.464658
C62	C	1.727198	-0.203391	0.797991
C63	C	2.060531	0.129943	1.131324
C64	C	0.839814	-0.303210	0.464708
C65	C	1.173147	0.030124	0.798041
C66	C	1.506481	0.363457	1.131374
C67	C	0.949046	-0.303207	0.464691
C68	C	1.282380	0.030127	0.798024
C69	C	1.615713	0.363460	1.131358
C70	C	1.455846	-1.036177	0.403158
C71	C	1.789179	-0.702843	0.736492
C72	C	2.122512	-0.369510	1.069825
C73	C	1.455809	-0.970434	0.403136
C74	C	1.789142	-0.637101	0.736469
C75	C	2.122476	-0.303768	1.069802
C76	C	1.394073	-0.937563	0.464759
C77	C	1.727407	-0.604230	0.798092
C78	C	2.060740	-0.270897	1.131425
C79	C	1.332352	-0.970440	0.526392
C80	C	1.665685	-0.637107	0.859725
C81	C	1.999019	-0.303774	1.193058
C82	C	1.332383	-1.036182	0.526406
C83	C	1.665717	-0.702848	0.859739
C84	C	1.999050	-0.369515	1.193072
N85	N	1.386578	-0.834306	0.549164
N86	N	1.719911	-0.500973	0.882497
N87	N	2.053244	-0.167640	1.215830
N88	N	1.386553	-0.771855	0.549148
N89	N	1.719887	-0.438522	0.882481
N90	N	2.053220	-0.105188	1.215814
C91	C	1.393973	-0.739489	0.464718
C92	C	1.727306	-0.406155	0.798051
C93	C	2.060639	-0.072822	1.131385
N94	N	1.401436	-0.771933	0.380304
N95	N	1.734770	-0.438600	0.713637
N96	N	2.068103	-0.105267	1.046970
N97	N	1.401466	-0.834390	0.380321
N98	N	1.734799	-0.501057	0.713654
N99	N	2.068132	-0.167724	1.046988
C100	C	1.394032	-0.866278	0.464750
C101	C	1.727365	-0.532945	0.798083
C102	C	2.060698	-0.199611	1.131416
C103	C	1.455646	-0.635334	0.403060
C104	C	1.788979	-0.302001	0.736393
C105	C	2.122312	0.031333	1.069726
C106	C	1.455602	-0.569590	0.403035
C107	C	1.788935	-0.236257	0.736368
C108	C	2.122269	0.097076	1.069702
C109	C	1.332150	-0.569598	0.526300
C110	C	1.665483	-0.236264	0.859633
C111	C	1.998817	0.097069	1.192966
C112	C	1.332188	-0.635340	0.526315
C113	C	1.665522	-0.302007	0.859649
C114	C	1.998855	0.031326	1.192982
C115	C	1.393941	-0.668204	0.464697
C116	C	1.727275	-0.334871	0.798030
C117	C	2.060608	-0.001538	1.131363
C118	C	1.645530	-0.303213	0.464714
C119	C	1.978864	0.030120	0.798047
C120	C	2.312197	0.363454	1.131380
C121	C	1.752744	-0.303217	0.464723
C122	C	2.086078	0.030116	0.798057
C123	C	2.419411	0.363450	1.131390
C124	C	1.394006	-0.303149	0.716284
C125	C	1.727339	0.030185	1.049618
C126	C	2.060672	0.363518	1.382951
C127	C	1.394035	-0.303125	0.823498
C128	C	1.727368	0.030208	1.156832
C129	C	2.060702	0.363542	1.490165
C130	C	1.394077	-0.139014	0.464758
C131	C	1.727410	0.194319	0.798092
C132	C	2.060744	0.527653	1.131425
C133	C	1.394136	-0.069046	0.464787
C134	C	1.727470	0.264287	0.798120
C135	C	2.060803	0.597621	1.131454
C136	C	1.393925	-0.303214	0.214077
C137	C	1.727258	0.030119	0.547410
C138	C	2.060591	0.363452	0.880743
C139	C	1.394082	-0.303061	0.106863
C140	C	1.727416	0.030273	0.440197
C141	C	2.060749	0.363606	0.773530
C142	C	1.394061	-0.303082	1.019793
C143	C	1.727395	0.030251	1.353127
C144	C	2.060728	0.363584	1.686460
C145	C	1.394044	-0.303108	0.910561
C146	C	1.727377	0.030226	1.243894
C147	C	2.060710	0.363559	1.577228
H148	H	1.506127	-1.062931	0.352980
H149	H	1.839460	-0.729597	0.686314
H150	H	2.172793	-0.396264	1.019647
C151	C	1.264448	-0.934285	0.594178
C152	C	1.597781	-0.600952	0.927512
C153	C	1.931114	-0.267619	1.260845
H154	H	1.273274	-0.890424	0.585351
H155	H	1.606607	-0.557091	0.918684
H156	H	1.939941	-0.223757	1.252018
H157	H	1.199650	-0.945098	0.580004
H158	H	1.532984	-0.611765	0.913338
H159	H	1.866317	-0.278432	1.246671
H160	H	1.278539	-0.945022	0.659007
H161	H	1.611872	-0.611689	0.992340
H162	H	1.945205	-0.278356	1.325673
C163	C	1.523563	-0.671490	0.335281
C164	C	1.856896	-0.338157	0.668614
C165	C	2.190229	-0.004824	1.001947
H166	H	1.514755	-0.715351	0.344126
H167	H	1.848088	-0.382018	0.677459
H168	H	2.181421	-0.048685	1.010792
H169	H	1.509482	-0.660759	0.270453
H170	H	1.842815	-0.327426	0.603787
H171	H	2.176149	0.005908	0.937120
H172	H	1.588361	-0.660671	0.349464
H173	H	1.921695	-0.327338	0.682798
H174	H	2.255028	0.005995	1.016131
C175	C	1.264318	-0.671498	0.594119
C176	C	1.597651	-0.338165	0.927452
C177	C	1.930985	-0.004831	1.260785
H178	H	1.227550	-0.642507	0.630823
H179	H	1.560883	-0.309174	0.964156
H180	H	1.894216	0.024159	1.297489
H181	H	1.222324	-0.697186	0.557190
H182	H	1.555657	-0.363853	0.890523
H183	H	1.888991	-0.030519	1.223856
H184	H	1.301214	-0.697101	0.636190
H185	H	1.634547	-0.363768	0.969524
H186	H	1.967880	-0.030434	1.302857
C187	C	1.523487	-0.533434	0.335241
C188	C	1.856820	-0.200101	0.668574
C189	C	2.190154	0.133233	1.001908
H190	H	1.560273	-0.562425	0.298555
H191	H	1.893606	-0.229092	0.631888
H192	H	2.226939	0.104242	0.965222
H193	H	1.486606	-0.507829	0.293167
H194	H	1.819940	-0.174496	0.626500
H195	H	2.153273	0.158837	0.959834
H196	H	1.565479	-0.507748	0.372184
H197	H	1.898813	-0.174415	0.705518
H198	H	2.232146	0.158919	1.038851
C199	C	1.264243	-0.533448	0.594085
C200	C	1.597576	-0.200114	0.927419
C201	C	1.930909	0.133219	1.260752
H202	H	1.273065	-0.489586	0.585255
H203	H	1.606398	-0.156253	0.918589
H204	H	1.939732	0.177080	1.251922
H205	H	1.199446	-0.544264	0.579913
H206	H	1.532779	-0.210930	0.913247
H207	H	1.866113	0.122403	1.246580
H208	H	1.278336	-0.544182	0.658914
H209	H	1.611669	-0.210849	0.992247
H210	H	1.945003	0.122484	1.325581
C211	C	1.264508	-1.072339	0.594208
C212	C	1.597841	-0.739006	0.927541
C213	C	1.931174	-0.405672	1.260874
H214	H	1.227736	-1.043349	0.630910
H215	H	1.561070	-0.710016	0.964243
H216	H	1.894403	-0.376683	1.297577
H217	H	1.222516	-1.098029	0.557279
H218	H	1.555850	-0.764696	0.890612
H219	H	1.889183	-0.431362	1.223945
H220	H	1.301405	-1.097940	0.636281
H221	H	1.634738	-0.764607	0.969614
H222	H	1.968071	-0.431274	1.302947
C223	C	1.523698	-0.934271	0.335348
C224	C	1.857031	-0.600937	0.668681
C225	C	2.190365	-0.267604	1.002015
H226	H	1.560484	-0.963259	0.298658
H227	H	1.893817	-0.629926	0.631991
H228	H	2.227151	-0.296592	0.965324
H229	H	1.486820	-0.908662	0.293278
H230	H	1.820153	-0.575329	0.626611
H231	H	2.153486	-0.241995	0.959944
H232	H	1.565690	-0.908588	0.372298
H233	H	1.899024	-0.575255	0.705631
H234	H	2.232357	-0.241921	1.038964
