data_functionalizedCrystal
_audit_creation_method	'MofGen! by Chris Wilmer'
_symmetry_space_group_name_H-M	'P1'
_symmetry_Int_Tables_number	1
_symmetry_cell_setting	triclinic
loop_
_symmetry_equiv_pos_as_xyz
  x,y,z
_cell_length_a	12.784890
_cell_length_b	14.472310
_cell_length_c	12.811487
_cell_angle_alpha	84.568516
_cell_angle_beta	78.601231
_cell_angle_gamma	90.011636
loop_
_atom_site_label
_atom_site_type_symbol
_atom_site_fract_x
_atom_site_fract_y
_atom_site_fract_z
O1	O	1.410361	0.076263	0.006555
O2	O	1.910361	0.576263	0.506555
O3	O	1.101104	0.072505	0.051489
O4	O	1.601104	0.572505	0.551489
O5	O	1.263514	0.087243	-0.124479
O6	O	1.763514	0.587243	0.375521
O7	O	1.247952	0.061526	0.182523
O8	O	1.747952	0.561526	0.682523
O9	O	1.263472	-0.066440	-0.124466
O10	O	1.763472	0.433560	0.375534
O11	O	1.101062	-0.081178	0.051502
O12	O	1.601062	0.418822	0.551502
O13	O	1.410319	-0.077420	0.006568
O14	O	1.910319	0.422580	0.506568
Cu15	Cu	1.255687	-0.093331	0.029036
Cu16	Cu	1.755687	0.406669	0.529036
Cu17	Cu	1.255737	0.088417	0.029021
Cu18	Cu	1.755737	0.588417	0.529021
O19	O	1.247910	-0.092157	0.182536
O20	O	1.747910	0.407843	0.682536
C21	C	1.061497	-0.004580	0.054418
C22	C	1.561497	0.495420	0.554418
C23	C	0.943541	-0.005306	0.063113
C24	C	1.443541	0.494694	0.563113
C25	C	0.765046	-0.014433	0.172091
C26	C	1.265046	0.485567	0.672091
C27	C	0.875875	-0.013750	0.163928
C28	C	1.375875	0.486250	0.663928
C29	C	0.900371	0.002457	-0.029545
C30	C	1.400371	0.502457	0.470455
C31	C	0.789542	0.001774	-0.021382
C32	C	1.289542	0.501774	0.478618
C33	C	0.721883	-0.006673	0.079440
C34	C	1.221883	0.493327	0.579440
C35	C	0.611052	-0.007364	0.087602
C36	C	1.111052	0.492636	0.587602
C37	C	0.635550	0.008850	-0.105870
C38	C	1.135550	0.508850	0.394130
C39	C	0.746379	0.009534	-0.114033
C40	C	1.246379	0.509534	0.385967
N41	N	1.255660	-0.221163	0.029046
N42	N	1.755660	0.278837	0.529046
C43	C	1.255735	-0.595252	0.029017
C44	C	1.755735	-0.095252	0.529017
C45	C	1.168539	-0.563949	0.122911
C46	C	1.668539	-0.063949	0.622911
C47	C	1.168742	-0.456886	0.123206
C48	C	1.668742	0.043114	0.623206
C49	C	1.255697	-0.409662	0.029031
C50	C	1.755697	0.090338	0.529031
C51	C	1.366661	-0.449657	0.042823
C52	C	1.866661	0.050343	0.542823
C53	C	1.366172	-0.556833	0.043479
C54	C	1.866172	-0.056833	0.543479
C55	C	1.232955	-0.546731	-0.079014
C56	C	1.732955	-0.046731	0.420986
C57	C	1.230416	-0.439684	-0.078049
C58	C	1.730416	0.060316	0.421951
C59	C	1.255682	-0.304774	0.029037
C60	C	1.755682	0.195226	0.529037
C61	C	1.255757	-0.700140	0.029013
C62	C	1.755757	-0.200140	0.529013
C63	C	1.449927	-0.000332	0.003639
C64	C	1.949927	0.499668	0.503639
C65	C	1.567883	0.000399	-0.005056
C66	C	2.067883	0.500399	0.494944
C67	C	1.262621	0.013672	-0.163497
C68	C	1.762621	0.513672	0.336503
C69	C	1.260010	0.023419	-0.279775
C70	C	1.760010	0.523419	0.220225
N71	N	1.255772	0.216249	0.029002
N72	N	1.755772	0.716249	0.529002
C73	C	1.255078	-0.125829	-0.498278
C74	C	1.755078	0.374171	0.001722
C75	C	1.252625	-0.116675	-0.607532
C76	C	1.752625	0.383325	-0.107532
C77	C	1.252659	0.050878	-0.607542
C78	C	1.752659	0.550878	-0.107542
C79	C	1.255112	0.041725	-0.498287
C80	C	1.755112	0.541725	0.001713
C81	C	1.256319	-0.046632	-0.443659
C82	C	1.756319	0.453368	0.056341
C83	C	1.258765	-0.055784	-0.334401
C84	C	1.758765	0.444216	0.165599
C85	C	1.258807	0.111768	-0.334414
C86	C	1.758807	0.611768	0.165586
C87	C	1.256354	0.120922	-0.443668
C88	C	1.756354	0.620922	0.056332
C89	C	1.248803	-0.018585	0.221554
C90	C	1.748803	0.481415	0.721554
C91	C	1.251414	-0.028325	0.337833
C92	C	1.751414	0.471675	0.837833
H93	H	0.801482	0.016414	-0.196119
H94	H	1.301482	0.516414	0.303881
O95	O	1.392667	-0.598630	0.147427
O96	O	1.892667	-0.098630	0.647427
H97	H	1.325519	-0.644415	0.191472
H98	H	1.825519	-0.144415	0.691472
O99	O	1.255040	0.216214	-0.502595
O100	O	1.755040	0.716214	-0.002595
H101	H	1.256317	0.269747	-0.446257
H102	H	1.756317	0.769747	0.053743
O103	O	1.260150	0.197198	-0.275508
O104	O	1.760150	0.697198	0.224492
H105	H	1.262064	0.175993	-0.190359
H106	H	1.762064	0.675993	0.309641
H107	H	0.955478	0.009342	-0.111629
H108	H	1.455478	0.509342	0.388371
H109	H	1.256034	-0.197772	-0.453793
H110	H	1.756034	0.302228	0.046207
H111	H	1.148787	-0.413404	-0.088751
H112	H	1.648787	0.086596	0.411249
H113	H	1.153771	-0.572476	-0.094788
H114	H	1.653771	-0.072476	0.405212
H115	H	1.259733	-0.127729	-0.289921
H116	H	1.759733	0.372271	0.210079
O117	O	1.393772	-0.422717	0.145508
O118	O	1.893772	0.077283	0.645508
H119	H	1.472400	-0.451395	0.154362
H120	H	1.972400	0.048605	0.654362
H121	H	0.555965	-0.014247	0.169696
H122	H	1.055965	0.485753	0.669696
H123	H	1.289763	-0.406850	-0.150411
H124	H	1.789763	0.093150	0.349589
H125	H	1.296537	-0.566215	-0.148768
H126	H	1.796537	-0.066215	0.351232
H127	H	0.709957	-0.021322	0.254184
H128	H	1.209957	0.478678	0.754184
H129	H	1.251614	-0.181166	-0.651999
H130	H	1.751614	0.318834	-0.151999
O131	O	1.188084	-0.431845	0.229674
O132	O	1.688084	0.068155	0.729674
H133	H	1.119249	-0.392609	0.269214
H134	H	1.619249	0.107391	0.769214
O135	O	1.251355	0.146171	-0.666468
O136	O	1.751355	0.646171	-0.166468
H137	H	1.249437	0.139226	-0.751614
H138	H	1.749437	0.639226	-0.251614
H139	H	0.911013	-0.020070	0.239374
H140	H	1.411013	0.479930	0.739374
H141	H	0.600396	0.015242	-0.181314
H142	H	1.100396	0.515242	0.318686
O143	O	1.059504	-0.421352	0.114318
O144	O	1.559504	0.078648	0.614318
H145	H	0.999526	-0.452863	0.183258
H146	H	1.499526	0.047137	0.683258
O147	O	1.058946	-0.597400	0.114372
O148	O	1.558946	-0.097400	0.614372
H149	H	1.065448	-0.636699	0.043120
H150	H	1.565448	-0.136699	0.543120
O151	O	1.187600	-0.608455	0.228805
O152	O	1.687600	-0.108455	0.728805
H153	H	1.267674	-0.586978	0.240045
H154	H	1.767674	-0.086978	0.740045
H155	H	1.433109	-0.577192	-0.022755
H156	H	1.933109	-0.077192	0.477245
O157	O	1.454701	-0.408476	-0.045908
O158	O	1.954701	0.091524	0.454092
H159	H	1.420219	-0.358944	-0.100907
H160	H	1.920219	0.141056	0.399093
