data_functionalizedCrystal
_audit_creation_method	'MofGen! by Chris Wilmer'
_symmetry_space_group_name_H-M	'P1'
_symmetry_Int_Tables_number	1
_symmetry_cell_setting	triclinic
loop_
_symmetry_equiv_pos_as_xyz
  x,y,z
_cell_length_a	10.654545
_cell_length_b	15.944493
_cell_length_c	9.730223
_cell_angle_alpha	90.001475
_cell_angle_beta	89.997167
_cell_angle_gamma	83.979061
loop_
_atom_site_label
_atom_site_type_symbol
_atom_site_fract_x
_atom_site_fract_y
_atom_site_fract_z
O1	O	1.666279	0.117961	-0.114256
O2	O	1.300651	0.129206	-0.114260
O3	O	1.493488	0.001363	-0.114270
O4	O	1.473443	0.245804	-0.114247
O5	O	1.493475	0.001360	0.114310
O6	O	1.300639	0.129202	0.114320
O7	O	1.666267	0.117958	0.114323
Zn8	Zn	1.483451	0.123579	0.150614
Zn9	Zn	1.483467	0.123584	-0.150550
O10	O	1.473431	0.245800	0.114333
C11	C	1.253858	0.128379	0.000029
C12	C	1.114447	0.125911	0.000026
C13	C	1.048951	0.124748	0.124626
C14	C	0.917963	0.122415	0.124626
C15	C	0.917977	0.122413	-0.124585
C16	C	1.048964	0.124740	-0.124583
C17	C	1.492662	-0.029938	0.000014
C18	C	1.490206	-0.123201	-0.000003
C19	C	1.603714	-0.358305	0.000024
C20	C	1.542510	-0.409225	-0.112678
C21	C	1.485655	-0.293948	0.000014
C22	C	1.542470	-0.409205	0.112684
C23	C	1.481268	-0.458883	0.000036
C24	C	1.424482	-0.343640	-0.112781
C25	C	1.424460	-0.343616	0.112682
C26	C	1.363169	-0.394504	-0.000047
C27	C	1.488186	-0.198934	-0.000000
C28	C	1.478727	-0.553895	0.000040
C29	C	1.713060	0.118784	0.000031
C30	C	1.852471	0.121252	0.000025
C31	C	1.474256	0.277101	0.000046
C32	C	1.476712	0.370364	0.000054
N33	N	1.483449	0.123576	0.356150
N34	N	1.483479	0.123581	-0.356087
C35	C	1.568866	0.066991	0.428072
C36	C	1.568878	0.066991	0.571955
C37	C	1.398053	0.180168	0.571981
C38	C	1.398036	0.180163	0.428101
H39	H	0.864644	0.121460	-0.226037
C40	C	1.761782	-0.288527	-0.117036
C41	C	1.740970	-0.336365	-0.000119
H42	H	1.846508	-0.274966	-0.117121
H43	H	1.747087	-0.320128	-0.197121
H44	H	1.705877	-0.238035	-0.116143
H45	H	1.796869	-0.386860	-0.001017
H46	H	1.755678	-0.304763	0.079987
H47	H	1.328513	0.226242	0.630578
C48	C	1.549228	-0.413509	-0.359256
C49	C	1.609819	-0.447911	-0.241304
H50	H	1.590795	-0.437386	-0.438659
H51	H	1.463840	-0.425656	-0.359373
H52	H	1.551978	-0.354152	-0.359737
H53	H	1.607061	-0.507268	-0.240818
H54	H	1.695229	-0.435770	-0.241187
H55	H	1.102264	0.125701	0.226091
H56	H	1.638413	0.020913	0.369492
H57	H	1.592347	-0.437849	0.207959
C58	C	0.931112	0.122663	0.370956
C59	C	0.845969	0.121142	0.261590
H60	H	0.886663	0.121882	0.455514
H61	H	0.991794	0.074678	0.365775
H62	H	0.972608	0.172472	0.365758
H63	H	0.804479	0.071330	0.266782
H64	H	0.785264	0.169132	0.266773
H65	H	1.102293	0.125685	-0.226053
C66	C	1.360256	-0.217548	-0.240445
C67	C	1.357251	-0.305131	-0.241567
H68	H	1.318764	-0.193776	-0.319960
H69	H	1.318602	-0.194520	-0.160532
H70	H	1.445443	-0.204950	-0.240107
H71	H	1.272063	-0.317729	-0.241896
H72	H	1.398902	-0.328166	-0.321502
H73	H	1.261397	-0.410557	-0.000110
C74	C	1.419233	-0.338148	0.359222
C75	C	1.357209	-0.304900	0.241311
H76	H	1.377725	-0.314241	0.438638
H77	H	1.417820	-0.397606	0.360605
H78	H	1.504215	-0.325131	0.358398
H79	H	1.272228	-0.317922	0.242130
H80	H	1.358608	-0.245429	0.239928
H81	H	1.638431	0.020914	0.630509
H82	H	1.328473	0.226241	0.369538
