data_functionalizedCrystal
_audit_creation_method	'MofGen! by Chris Wilmer'
_symmetry_space_group_name_H-M	'P1'
_symmetry_Int_Tables_number	1
_symmetry_cell_setting	triclinic
loop_
_symmetry_equiv_pos_as_xyz
  x,y,z
_cell_length_a	13.032721
_cell_length_b	19.077241
_cell_length_c	19.076919
_cell_angle_alpha	90.113904
_cell_angle_beta	99.138159
_cell_angle_gamma	80.235812
loop_
_atom_site_label
_atom_site_type_symbol
_atom_site_fract_x
_atom_site_fract_y
_atom_site_fract_z
Zn1	Zn	-0.383275	-1.024257	-0.471971
Zn2	Zn	0.116725	-0.524257	0.028029
Zn3	Zn	-0.552470	-1.013873	-0.368328
Zn4	Zn	-0.052470	-0.513873	0.131672
Zn5	Zn	-0.382719	-0.911522	-0.349703
Zn6	Zn	0.117281	-0.411522	0.150297
Zn7	Zn	-0.566552	-0.890442	-0.482218
Zn8	Zn	-0.066552	-0.390442	0.017782
O9	O	-0.471254	-0.960024	-0.418055
O10	O	0.028746	-0.460024	0.081945
O11	O	-0.400058	-1.121716	-0.461729
O12	O	0.099942	-0.621716	0.038271
O13	O	-0.523826	-1.004773	-0.267025
O14	O	-0.023826	-0.504773	0.232975
O15	O	-0.235048	-0.939645	-0.353839
O16	O	0.264952	-0.439645	0.146161
O17	O	-0.524366	-1.114087	-0.385583
O18	O	-0.024366	-0.614087	0.114417
O19	O	-0.235457	-1.022470	-0.443669
O20	O	0.264543	-0.522470	0.056331
O21	O	-0.399110	-0.929576	-0.253341
O22	O	0.100890	-0.429576	0.246659
O23	O	-0.412765	-0.809890	-0.363775
O24	O	0.087235	-0.309890	0.136225
O25	O	-0.548367	-0.903717	-0.579691
O26	O	-0.048367	-0.403717	-0.079691
O27	O	-0.547827	-0.794402	-0.461133
O28	O	-0.047827	-0.294402	0.038867
O29	O	-0.413713	-1.002030	-0.572163
O30	O	0.086287	-0.502030	-0.072163
O31	O	-0.702082	-0.984332	-0.395519
O32	O	-0.202082	-0.484332	0.104481
O33	O	-0.712428	-0.893648	-0.479193
O34	O	-0.212428	-0.393648	0.020807
C35	C	-0.481765	-0.776519	-0.411545
C36	C	0.018235	-0.276519	0.088455
C37	C	-0.486288	-0.698012	-0.408779
C38	C	0.013712	-0.198012	0.091221
C39	C	-0.423804	-0.665089	-0.447202
C40	C	0.076196	-0.165089	0.052798
C41	C	-0.428048	-0.591323	-0.444596
C42	C	0.071952	-0.091323	0.055404
C43	C	-0.494783	-0.550482	-0.403571
C44	C	0.005217	-0.050482	0.096429
C45	C	-0.557269	-0.583410	-0.365143
C46	C	-0.057269	-0.083410	0.134857
C47	C	-0.553018	-0.657174	-0.367745
C48	C	-0.053018	-0.157174	0.132255
C49	C	-0.514418	-0.329445	-0.391526
C50	C	-0.014418	0.170555	0.108474
C51	C	-0.518666	-0.255675	-0.388928
C52	C	-0.018666	0.244325	0.111072
C53	C	-0.389444	-0.263594	-0.468381
C54	C	0.110556	0.236406	0.031619
C55	C	-0.385204	-0.337359	-0.470983
C56	C	0.114796	0.162641	0.029017
C57	C	-0.447686	-0.370281	-0.432552
C58	C	0.052314	0.129719	0.067448
N59	N	-0.499125	-0.475082	-0.400909
N60	N	0.000875	0.024918	0.099091
N61	N	-0.443337	-0.445681	-0.435211
N62	N	0.056663	0.054319	0.064789
C63	C	-0.745564	-0.935594	-0.440505
C64	C	-0.245564	-0.435594	0.059495
C65	C	-0.862912	-0.925207	-0.450135
C66	C	-0.362912	-0.425207	0.049865
C67	C	-0.910076	-0.965481	-0.413062
C68	C	-0.410076	-0.465481	0.086938
C69	C	-1.031362	-0.954746	-0.423014
C70	C	-0.531362	-0.454746	0.076986
C71	C	-0.195873	-0.984567	-0.395533
C72	C	0.304127	-0.484567	0.104467
C73	C	-0.078522	-0.995026	-0.385936
C74	C	0.421478	-0.495026	0.114064
C75	C	-0.482673	-0.951680	-0.602270
C76	C	0.017327	-0.451680	-0.102270
C77	C	-0.487539	-0.948125	-0.680771
C78	C	0.012461	-0.448125	-0.180771
C79	C	-0.460697	-0.144246	-0.424585
C80	C	0.039303	0.355754	0.075415
C81	C	-0.456183	-0.222753	-0.427352
C82	C	0.043817	0.277247	0.072648
C83	C	-0.419721	-0.997638	-0.713733
C84	C	0.080279	-0.497638	-0.213733
C85	C	-0.424290	-0.994289	-0.787493
C86	C	0.075710	-0.494289	-0.287493
C87	C	-0.496682	-0.941429	-0.828290
C88	C	0.003318	-0.441429	-0.328290
C89	C	-0.564502	-0.891911	-0.795323
C90	C	-0.064502	-0.391911	-0.295323
C91	C	-0.559928	-0.895257	-0.721564
C92	C	-0.059928	-0.395257	-0.221564
C93	C	-0.517876	-0.925929	-1.049305
C94	C	-0.017876	-0.425929	-0.549305
C95	C	-0.522447	-0.922588	-1.123070
C96	C	-0.022447	-0.422588	-0.623070
C97	C	-0.382233	-1.024966	-1.115234
C98	C	0.117767	-0.524966	-0.615234
C99	C	-0.377669	-1.028310	-1.041475
C100	C	0.122331	-0.528310	-0.541475
C101	C	-0.445486	-0.978789	-1.008514
C102	C	0.054514	-0.478789	-0.508514
N103	N	-0.501356	-0.938006	-0.903684
N104	N	-0.001356	-0.438006	-0.403684
N105	N	-0.440806	-0.982210	-0.933120
N106	N	0.059194	-0.482210	-0.433120
C107	C	-0.459801	-0.968382	-0.234552
C108	C	0.040199	-0.468382	0.265448
C109	C	-0.454630	-0.972101	-0.156031
C110	C	0.045370	-0.472101	0.343969
H111	H	-0.330866	-0.370608	-0.504393
H112	H	0.169134	0.129392	-0.004393
Br113	Br	-0.996182	-1.065753	-0.320753
Br114	Br	-0.496182	-0.565753	0.179247
H115	H	-0.912325	-0.882782	-0.489246
H116	H	-0.412325	-0.382782	0.010754
H117	H	-1.080771	-0.912318	-0.462128
H118	H	-0.580771	-0.412318	0.037872
Br119	Br	-0.599187	-0.374119	-0.339349
Br120	Br	-0.099187	0.125881	0.160651
Br121	Br	-0.620697	-0.850842	-1.178437
Br122	Br	-0.120697	-0.350842	-0.678437
Br123	Br	-0.333239	-0.720509	-0.502888
Br124	Br	0.166761	-0.220509	-0.002888
Br125	Br	-0.279423	-1.100053	-0.986112
Br126	Br	0.220577	-0.600053	-0.486112
Br127	Br	-0.321478	-1.069385	-0.658373
Br128	Br	0.178522	-0.569385	-0.158373
H129	H	-0.369068	-1.034610	-0.814327
H130	H	0.130932	-0.534610	-0.314327
Br131	Br	-0.647829	-0.527984	-0.309459
Br132	Br	-0.147829	-0.027984	0.190541
Br133	Br	-0.290200	-1.092167	-1.159970
Br134	Br	0.209800	-0.592167	-0.659970
Br135	Br	-0.343246	-0.546645	-0.496745
Br136	Br	0.156754	-0.046645	0.003255
H137	H	-0.573112	-0.885615	-1.022479
H138	H	-0.073112	-0.385615	-0.522479
H139	H	-0.623442	-0.848869	-0.828545
H140	H	-0.123442	-0.348869	-0.328545
Br141	Br	-0.609272	-0.200243	-0.333270
Br142	Br	-0.109272	0.299757	0.166730
Br143	Br	-0.651963	-0.828054	-0.676828
Br144	Br	-0.151963	-0.328054	-0.176828
Br145	Br	-0.304651	-0.218911	-0.520533
Br146	Br	0.195349	0.281089	-0.020533
H147	H	-0.603898	-0.683979	-0.336457
H148	H	-0.103898	-0.183979	0.163543
H149	H	-0.860666	-1.007912	-0.373956
H150	H	-0.360666	-0.507912	0.126044
