data_functionalizedCrystal
_audit_creation_method	'MofGen! by Chris Wilmer'
_symmetry_space_group_name_H-M	'P1'
_symmetry_Int_Tables_number	1
_symmetry_cell_setting	triclinic
loop_
_symmetry_equiv_pos_as_xyz
  x,y,z
_cell_length_a	12.811438
_cell_length_b	15.995350
_cell_length_c	11.892095
_cell_angle_alpha	93.891441
_cell_angle_beta	91.498957
_cell_angle_gamma	83.770248
loop_
_atom_site_label
_atom_site_type_symbol
_atom_site_fract_x
_atom_site_fract_y
_atom_site_fract_z
O1	O	1.389201	0.115539	0.048437
O2	O	1.085841	0.126035	0.017332
O3	O	1.245813	-0.001023	0.033736
O4	O	1.229228	0.242597	0.032033
O5	O	1.232475	0.009554	0.220376
O6	O	1.072502	0.136612	0.203972
O7	O	1.375863	0.126116	0.235077
Zn8	Zn	1.222065	0.133044	0.249157
Zn9	Zn	1.239638	0.119108	0.003251
O10	O	1.215890	0.253174	0.218673
C11	C	1.040352	0.130410	0.106671
C12	C	0.924682	0.127679	0.094811
C13	C	0.768918	0.118064	-0.023630
C14	C	0.877601	0.120629	-0.012496
C15	C	0.863073	0.132161	0.190991
C16	C	0.754390	0.129596	0.179856
C17	C	0.707317	0.122549	0.072542
C18	C	0.598631	0.119989	0.061408
C19	C	0.584106	0.131515	0.264894
C20	C	0.692789	0.134080	0.276028
C21	C	1.238459	-0.026936	0.126983
C22	C	1.236403	-0.119906	0.126766
C23	C	1.229021	-0.457722	0.126013
C24	C	1.115121	-0.411375	0.113913
C25	C	1.117147	-0.314642	0.114544
C26	C	1.232683	-0.290127	0.126386
C27	C	1.281260	-0.324640	0.238726
C28	C	1.278392	-0.421298	0.238522
C29	C	1.295914	-0.433662	0.026519
C30	C	1.295987	-0.336797	0.025108
C31	C	1.234758	-0.195410	0.126601
C32	C	1.226949	-0.552439	0.125806
C33	C	1.421351	0.121741	0.145735
C34	C	1.537022	0.124472	0.157588
C35	C	1.223245	0.279087	0.125423
C36	C	1.225300	0.372056	0.125633
N37	N	1.210079	0.142554	0.416982
N38	N	1.251633	0.109590	-0.164573
C39	C	1.335036	0.043363	0.666444
C40	C	1.326666	0.050017	0.783927
C41	C	1.184963	0.162512	0.769435
C42	C	1.193333	0.155858	0.651951
C43	C	1.268374	0.096282	0.600460
C44	C	1.276749	0.089633	0.482975
C45	C	1.135041	0.202123	0.468484
C46	C	1.126671	0.208777	0.585968
H47	H	0.730588	0.112335	-0.111010
Cl48	Cl	0.539452	0.111133	-0.073499
Cl49	Cl	1.036571	-0.436008	0.223713
Cl50	Cl	0.751978	0.142941	0.410930
H51	H	1.379965	-0.464680	0.034412
H52	H	1.080763	0.245216	0.414747
Cl53	Cl	0.506657	0.137159	0.385804
H54	H	1.380948	0.006924	0.837648
H55	H	1.361692	-0.452491	0.251931
Cl56	Cl	1.057377	-0.278078	-0.010403
H57	H	1.123860	0.211011	0.811374
H58	H	1.260537	-0.314400	-0.057949
Cl59	Cl	1.053243	-0.447328	-0.011299
H60	H	1.067209	-0.282855	0.186514
H61	H	1.231721	-0.435466	0.313993
Cl62	Cl	0.922271	0.141019	0.325888
H63	H	1.396144	-0.005140	0.624520
H64	H	1.380700	-0.321014	0.027308
Cl65	Cl	1.411873	-0.301263	0.258285
Cl66	Cl	0.955040	0.114989	-0.133404
Cl67	Cl	1.212251	-0.274449	0.355008
H68	H	1.264437	-0.459128	-0.058080
Cl69	Cl	1.371086	0.014741	0.418246
Cl70	Cl	1.032337	0.283666	0.650707
