data_functionalizedCrystal
_audit_creation_method	'MofGen! by Chris Wilmer'
_symmetry_space_group_name_H-M	'P1'
_symmetry_Int_Tables_number	1
_symmetry_cell_setting	triclinic
loop_
_symmetry_equiv_pos_as_xyz
  x,y,z
_cell_length_a	12.759401
_cell_length_b	16.959454
_cell_length_c	12.759393
_cell_angle_alpha	89.970403
_cell_angle_beta	89.981708
_cell_angle_gamma	90.020236
loop_
_atom_site_label
_atom_site_type_symbol
_atom_site_fract_x
_atom_site_fract_y
_atom_site_fract_z
Zn1	Zn	1.606214	-0.314640	-0.593988
Zn2	Zn	2.106214	0.185360	-0.093988
Zn3	Zn	1.606093	-0.446839	-0.418310
Zn4	Zn	2.106093	0.053161	0.081690
Zn5	Zn	1.430517	-0.314679	-0.418327
Zn6	Zn	1.930517	0.185321	0.081673
Zn7	Zn	1.430488	-0.446781	-0.593952
Zn8	Zn	1.930488	0.053219	-0.093952
O9	O	1.518328	-0.380735	-0.506144
O10	O	2.018328	0.119265	-0.006144
O11	O	1.753219	-0.332185	-0.570692
O12	O	2.253219	0.167815	-0.070692
O13	O	1.582763	-0.429349	-0.271291
O14	O	2.082763	0.070651	0.228709
O15	O	1.453886	-0.204063	-0.441651
O16	O	1.953886	0.295937	0.058349
O17	O	1.753130	-0.429311	-0.441622
O18	O	2.253130	0.070689	0.058378
O19	O	1.582970	-0.204035	-0.570708
O20	O	2.082970	0.295965	-0.070708
O21	O	1.453768	-0.332251	-0.271304
O22	O	1.953768	0.167749	0.228696
O23	O	1.283492	-0.332195	-0.441616
O24	O	1.783492	0.167805	0.058384
O25	O	1.453838	-0.429212	-0.740978
O26	O	1.953838	0.070788	-0.240978
O27	O	1.283471	-0.429249	-0.570647
O28	O	1.783471	0.070751	-0.070647
O29	O	1.582943	-0.332128	-0.741004
O30	O	2.082943	0.167872	-0.241004
O31	O	1.582735	-0.557442	-0.441588
O32	O	2.082735	-0.057442	0.058412
O33	O	1.453720	-0.557400	-0.570631
O34	O	1.953720	-0.057400	-0.070631
C35	C	1.245360	-0.380720	-0.506130
C36	C	1.745360	0.119280	-0.006130
C37	C	1.128584	-0.380733	-0.506149
C38	C	1.628584	0.119267	-0.006149
C39	C	1.518240	-0.586101	-0.506126
C40	C	2.018240	-0.086101	-0.006126
C41	C	1.518298	-0.673958	-0.506154
C42	C	2.018298	-0.173958	-0.006154
C43	C	1.073738	-0.431350	-0.573224
C44	C	1.573738	0.068650	-0.073224
C45	C	0.964014	-0.431360	-0.573235
C46	C	1.464014	0.068640	-0.073235
C47	C	0.963991	-0.330134	-0.439087
C48	C	1.463991	0.169866	0.060913
C49	C	1.073713	-0.330120	-0.439082
C50	C	1.573713	0.169880	0.060918
C51	C	1.128609	-0.481963	-0.640291
C52	C	1.628609	0.018037	-0.140291
C53	C	1.073764	-0.532585	-0.707370
C54	C	1.573764	-0.032585	-0.207370
C55	C	0.964040	-0.532595	-0.707382
C56	C	1.464040	-0.032595	-0.207382
C57	C	0.909161	-0.481983	-0.640313
C58	C	1.409161	0.018017	-0.140313
C59	C	1.451247	-1.045441	-0.573330
C60	C	1.951247	-0.545441	-0.073330
C61	C	1.585701	-1.045426	-0.439066
C62	C	2.085701	-0.545426	0.060934
C63	C	1.585665	-0.962880	-0.439056
C64	C	2.085665	-0.462880	0.060944
C65	C	1.518417	-0.921611	-0.506183
C66	C	2.018417	-0.421611	-0.006183
C67	C	1.451206	-0.962887	-0.573320
C68	C	1.951206	-0.462887	-0.073320
C69	C	1.652867	-0.921597	-0.371913
C70	C	2.152867	-0.421597	0.128087
C71	C	1.652832	-0.839046	-0.371900
C72	C	2.152832	-0.339046	0.128100
C73	C	1.585589	-0.797775	-0.439033
C74	C	2.085589	-0.297775	0.060967
C75	C	1.518376	-0.839057	-0.506173
C76	C	2.018376	-0.339057	-0.006173
C77	C	1.451128	-0.797788	-0.573300
C78	C	1.951128	-0.297788	-0.073300
C79	C	1.383920	-0.839068	-0.640447
C80	C	1.883920	-0.339068	-0.140447
C81	C	1.383962	-0.921617	-0.640453
C82	C	1.883962	-0.421617	-0.140453
C83	C	1.585546	-0.715227	-0.439027
C84	C	2.085546	-0.215227	0.060973
C85	C	1.451087	-0.715235	-0.573291
C86	C	1.951087	-0.215235	-0.073291
C87	C	1.792361	-0.380750	-0.506159
C88	C	2.292361	0.119250	-0.006159
C89	C	1.909138	-0.380757	-0.506165
C90	C	2.409138	0.119243	-0.006165
C91	C	1.518400	-0.380659	-0.780178
C92	C	2.018400	0.119341	-0.280178
C93	C	1.518431	-0.380627	-0.896954
C94	C	2.018431	0.119373	-0.396954
C95	C	1.518445	-0.174567	-0.506185
C96	C	2.018445	0.325433	-0.006185
C97	C	1.518495	-0.086710	-0.506203
C98	C	2.018495	0.413290	-0.006203
C99	C	1.585602	-0.431166	-0.951807
C100	C	2.085602	0.068834	-0.451807
C101	C	1.585634	-0.431133	-1.061532
C102	C	2.085634	0.068867	-0.561532
C103	C	1.451315	-0.330018	-1.061540
C104	C	1.951315	0.169982	-0.561540
C105	C	1.451289	-0.330048	-0.951818
C106	C	1.951289	0.169952	-0.451818
C107	C	1.652744	-0.481745	-0.896944
C108	C	2.152744	0.018255	-0.396944
C109	C	1.719920	-0.532289	-0.951797
C110	C	2.219920	-0.032289	-0.451797
C111	C	1.719952	-0.532256	-1.061521
C112	C	2.219952	-0.032256	-0.561521
C113	C	1.652808	-0.481678	-1.116392
C114	C	2.152808	0.018322	-0.616392
C115	C	1.518316	-0.380753	-0.233177
C116	C	2.018316	0.119247	0.266823
C117	C	1.518489	-0.380563	-0.116401
C118	C	2.018489	0.119437	0.383599
H119	H	1.217952	-0.481962	-0.640287
H120	H	1.717952	0.018038	-0.140287
H121	H	1.396329	-0.681638	-0.627958
H122	H	1.896329	-0.181638	-0.127958
H123	H	1.396530	-1.079055	-0.628001
H124	H	1.896530	-0.579055	-0.128001
H125	H	1.707558	-0.805440	-0.317227
H126	H	2.207558	-0.305440	0.182773
H127	H	1.329244	-0.955235	-0.695119
H128	H	1.829244	-0.455235	-0.195119
C129	C	1.659659	-1.090824	-0.365220
C130	C	2.159659	-0.590824	0.134780
N131	N	1.715366	-1.125022	-0.309595
N132	N	2.215366	-0.625022	0.190405
H133	H	0.819816	-0.481989	-0.640337
H134	H	1.319816	0.018011	-0.140337
C135	C	1.652850	-0.481641	-1.237093
C136	C	2.152850	0.018359	-0.737093
N137	N	1.652879	-0.481617	-1.328003
N138	N	2.152879	0.018383	-0.828003
H139	H	1.118453	-0.573787	-0.761982
H140	H	1.618453	-0.073787	-0.261982
C141	C	1.726819	-0.966997	-0.298063
C142	C	2.226819	-0.466997	0.201937
N143	N	1.782520	-1.001197	-0.242434
N144	N	2.282520	-0.501197	0.257566
C145	C	1.659472	-0.669822	-0.365172
C146	C	2.159472	-0.169822	0.134828
N147	N	1.715160	-0.635624	-0.309543
N148	N	2.215160	-0.135624	0.190457
H149	H	0.919300	-0.288928	-0.384483
H150	H	1.419300	0.211072	0.115517
C151	C	0.903713	-0.588283	-0.781166
C152	C	1.403713	-0.088283	-0.281166
N153	N	0.858277	-0.630233	-0.836737
N154	N	1.358277	-0.130233	-0.336737
C155	C	1.134046	-0.274441	-0.365292
C156	C	1.634046	0.225559	0.134708
N157	N	1.179490	-0.232501	-0.309713
N158	N	1.679490	0.267499	0.190287
H159	H	1.774656	-0.573405	-1.106180
H160	H	2.274656	-0.073405	-0.606180
H161	H	1.329161	-0.805458	-0.695097
H162	H	1.829161	-0.305458	-0.195097
H163	H	1.396649	-0.288840	-1.106225
H164	H	1.896649	0.211160	-0.606225
H165	H	1.652723	-0.481780	-0.807601
H166	H	2.152723	0.018220	-0.307601
H167	H	1.774592	-0.573463	-0.907114
H168	H	2.274592	-0.073463	-0.407114
H169	H	1.396596	-0.288892	-0.907155
H170	H	1.896596	0.211108	-0.407155
