data_functionalizedCrystal
_audit_creation_method	'MofGen! by Chris Wilmer'
_symmetry_space_group_name_H-M	'P1'
_symmetry_Int_Tables_number	1
_symmetry_cell_setting	triclinic
loop_
_symmetry_equiv_pos_as_xyz
  x,y,z
_cell_length_a	16.959455
_cell_length_b	19.121063
_cell_length_c	16.959447
_cell_angle_alpha	92.406654
_cell_angle_beta	89.983056
_cell_angle_gamma	92.465894
loop_
_atom_site_label
_atom_site_type_symbol
_atom_site_fract_x
_atom_site_fract_y
_atom_site_fract_z
Zn1	Zn	1.194936	-0.279656	-0.460312
Zn2	Zn	1.694936	0.220344	0.039688
Zn3	Zn	1.189196	-0.397116	-0.333763
Zn4	Zn	1.689196	0.102884	0.166237
Zn5	Zn	1.062757	-0.279678	-0.328150
Zn6	Zn	1.562757	0.220322	0.171850
Zn7	Zn	1.057075	-0.397064	-0.465899
Zn8	Zn	1.557075	0.102936	0.034101
O9	O	1.125991	-0.338378	-0.397031
O10	O	1.625991	0.161622	0.102969
O11	O	1.304785	-0.295250	-0.443535
O12	O	1.804785	0.204750	0.056465
O13	O	1.172399	-0.381569	-0.222409
O14	O	1.672399	0.118431	0.277591
O15	O	1.085072	-0.181391	-0.340995
O16	O	1.585072	0.318609	0.159005
O17	O	1.300567	-0.381548	-0.350560
O18	O	1.800567	0.118452	0.149440
O19	O	1.182183	-0.181374	-0.438093
O20	O	1.682183	0.318626	0.061907
O21	O	1.079505	-0.295288	-0.218285
O22	O	1.579505	0.204712	0.281715
O23	O	0.951393	-0.295237	-0.346412
O24	O	1.451393	0.204763	0.153588
O25	O	1.075387	-0.381458	-0.575767
O26	O	1.575387	0.118542	-0.075767
O27	O	0.947218	-0.381480	-0.447615
O28	O	1.447218	0.118520	0.052385
O29	O	1.176673	-0.295199	-0.571662
O30	O	1.676673	0.204801	-0.071662
O31	O	1.166889	-0.495394	-0.355978
O32	O	1.666889	0.004606	0.144022
O33	O	1.069820	-0.495355	-0.453058
O34	O	1.569820	0.004645	0.046942
C35	C	0.920626	-0.338355	-0.397012
C36	C	1.420626	0.161645	0.102988
C37	C	0.832769	-0.338362	-0.397023
C38	C	1.332769	0.161638	0.102977
C39	C	0.463444	-0.293435	-0.344438
C40	C	0.963444	0.206565	0.155562
C41	C	0.459138	-0.383380	-0.449671
C42	C	0.959138	0.116620	0.050329
C43	C	0.541685	-0.383370	-0.449666
C44	C	1.041685	0.116630	0.050334
C45	C	0.585114	-0.338392	-0.397045
C46	C	1.085114	0.161608	0.102955
C47	C	0.545998	-0.293425	-0.344430
C48	C	1.045998	0.206575	0.155570
C49	C	0.580807	-0.428341	-0.502275
C50	C	1.080807	0.071659	-0.002275
C51	C	0.663359	-0.428333	-0.502272
C52	C	1.163359	0.071667	-0.002272
C53	C	0.706790	-0.383352	-0.449654
C54	C	1.206790	0.116648	0.050346
C55	C	0.667668	-0.338382	-0.397037
C56	C	1.167668	0.161618	0.102963
C57	C	0.711098	-0.293405	-0.344416
C58	C	1.211098	0.206595	0.155584
C59	C	0.671978	-0.248431	-0.291802
C60	C	1.171978	0.251569	0.208198
C61	C	0.589429	-0.248443	-0.291812
C62	C	1.089429	0.251557	0.208188
C63	C	0.789339	-0.383340	-0.449644
C64	C	1.289339	0.116660	0.050356
C65	C	0.793652	-0.293395	-0.344407
C66	C	1.293652	0.206605	0.155593
C67	C	1.117136	-0.520858	-0.405750
C68	C	1.617136	-0.020858	0.094250
C69	C	1.113421	-0.598924	-0.409507
C70	C	1.613421	-0.098924	0.090493
C71	C	1.162253	-0.635596	-0.360769
C72	C	1.662253	-0.135596	0.139231
C73	C	1.158763	-0.708947	-0.364307
C74	C	1.658763	-0.208947	0.135693
C75	C	1.106437	-0.745625	-0.416579
C76	C	1.606437	-0.245625	0.083421
C77	C	1.057602	-0.708947	-0.465322
C78	C	1.557602	-0.208947	0.034678
C79	C	1.061097	-0.635598	-0.461787
C80	C	1.561097	-0.135598	0.038213
C81	C	1.093359	-0.967093	-0.429780
C82	C	1.593359	-0.467093	0.070220
C83	C	1.089867	-1.040448	-0.433309
C84	C	1.589867	-0.540448	0.066691
C85	C	1.191029	-1.040443	-0.332295
C86	C	1.691029	-0.540443	0.167705
C87	C	1.194515	-0.967092	-0.328762
C88	C	1.694515	-0.467092	0.171238
C89	C	1.145684	-0.930421	-0.377508
C90	C	1.645684	-0.430421	0.122492
C91	C	1.102866	-0.820601	-0.420194
C92	C	1.602866	-0.320601	0.079806
C93	C	1.149259	-0.855446	-0.373896
C94	C	1.649259	-0.355446	0.126104
C95	C	1.332158	-0.338402	-0.397051
C96	C	1.832158	0.161598	0.102949
C97	C	1.420014	-0.338412	-0.397059
C98	C	1.920014	0.161588	0.102941
C99	C	1.126036	-0.338320	-0.603196
C100	C	1.626036	0.161680	-0.103196
C101	C	1.126055	-0.338295	-0.691052
C102	C	1.626055	0.161705	-0.191052
C103	C	1.134901	-0.155186	-0.388295
C104	C	1.634901	0.344814	0.111705
C105	C	1.138699	-0.077120	-0.384572
C106	C	1.638699	0.422880	0.115428
C107	C	1.077763	-0.293298	-1.060383
C108	C	1.577763	0.206702	-0.560383
C109	C	1.174494	-0.383144	-1.064665
C110	C	1.674494	0.116856	-0.564665
C111	C	1.174479	-0.383160	-0.982120
C112	C	1.674479	0.116840	-0.482120
C113	C	1.126105	-0.338246	-0.938703
C114	C	1.626105	0.161754	-0.438703
C115	C	1.077745	-0.293315	-0.977831
C116	C	1.577745	0.206685	-0.477831
C117	C	1.222832	-0.428096	-0.942985
C118	C	1.722832	0.071904	-0.442985
C119	C	1.222819	-0.428115	-0.860435
C120	C	1.722819	0.071885	-0.360435
C121	C	1.174448	-0.383196	-0.817017
C122	C	1.674448	0.116804	-0.317017
C123	C	1.126087	-0.338262	-0.856150
C124	C	1.626087	0.161738	-0.356150
C125	C	1.077713	-0.293348	-0.812733
C126	C	1.577713	0.206652	-0.312733
C127	C	1.029356	-0.248410	-0.851864
C128	C	1.529356	0.251590	-0.351864
C129	C	1.029375	-0.248396	-0.934412
C130	C	1.529375	0.251604	-0.434412
C131	C	1.174430	-0.383210	-0.734469
C132	C	1.674430	0.116790	-0.234469
C133	C	1.077696	-0.293364	-0.730180
C134	C	1.577696	0.206636	-0.230180
C135	C	1.125994	-0.338386	-0.191665
C136	C	1.625994	0.161614	0.308335
C137	C	1.126137	-0.338213	-0.103800
C138	C	1.626137	0.161787	0.396200
H139	H	0.557570	-0.211829	-0.248975
H140	H	1.057570	0.288171	0.251025
H141	H	1.038394	-0.256709	-1.092248
H142	H	1.538394	0.243291	-0.592248
C143	C	0.330685	-0.423330	-0.496406
C144	C	0.830685	0.076670	0.003594
C145	C	0.411403	-0.432817	-0.507510
C146	C	0.911403	0.067183	-0.007510
H147	H	0.301215	-0.453849	-0.532120
H148	H	0.801215	0.046151	-0.032120
H149	H	0.316649	-0.433556	-0.443775
H150	H	0.816649	0.066444	0.056225
H151	H	0.319449	-0.376152	-0.505806
H152	H	0.819449	0.123848	-0.005806
H153	H	0.422640	-0.479994	-0.498104
H154	H	0.922640	0.020006	0.001896
H155	H	0.425444	-0.422596	-0.560154
H156	H	0.925444	0.077404	-0.060154
C157	C	0.886920	-0.283510	-0.237619
C158	C	1.386920	0.216490	0.262381
C159	C	0.841391	-0.243955	-0.286564
C160	C	1.341391	0.256045	0.213436
H161	H	0.916395	-0.252986	-0.201913
H162	H	1.416395	0.247014	0.298087
H163	H	0.853224	-0.314071	-0.208793
H164	H	1.353224	0.185929	0.291207
H165	H	0.922029	-0.310288	-0.268958
H166	H	1.422029	0.189712	0.231042
H167	H	0.806277	-0.217180	-0.255225
H168	H	1.306277	0.282820	0.244775
H169	H	0.875090	-0.213381	-0.315392
H170	H	1.375090	0.286619	0.184608
H171	H	0.695203	-0.464953	-0.545114
H172	H	1.195203	0.035047	-0.045114
C173	C	1.229196	-0.522613	-0.772104
C174	C	1.729196	-0.022613	-0.272104
C175	C	1.275977	-0.477505	-0.817428
C176	C	1.775977	0.022495	-0.317428
H177	H	1.262016	-0.553105	-0.745557
H178	H	1.762016	-0.053105	-0.245557
H179	H	1.200395	-0.495866	-0.734434
H180	H	1.700395	0.004134	-0.234434
H181	H	1.193458	-0.549466	-0.805587
H182	H	1.693458	-0.049466	-0.305587
H183	H	1.311711	-0.450647	-0.783944
H184	H	1.811711	0.049353	-0.283944
H185	H	1.304792	-0.504255	-0.855102
H186	H	1.804792	-0.004255	-0.355102
C187	C	0.338819	-0.253504	-0.297722
C188	C	0.838819	0.246496	0.202278
C189	C	0.420448	-0.244002	-0.286605
C190	C	0.920448	0.255998	0.213395
H191	H	0.312277	-0.222988	-0.262014
H192	H	0.812277	0.277012	0.237986
H193	H	0.325812	-0.243283	-0.350356
H194	H	0.825812	0.256717	0.149644
H195	H	0.323010	-0.300684	-0.288320
H196	H	0.823010	0.199316	0.211680
H197	H	0.436259	-0.196823	-0.296013
H198	H	0.936259	0.303177	0.203987
H199	H	0.433461	-0.254218	-0.233959
H200	H	0.933461	0.245782	0.266041
C201	C	1.180782	-0.477703	-0.646132
C202	C	1.680782	0.022297	-0.146132
C203	C	1.227575	-0.432602	-0.691454
C204	C	1.727575	0.067398	-0.191454
H205	H	1.213595	-0.508199	-0.619581
H206	H	1.713595	-0.008199	-0.119581
H207	H	1.151981	-0.450951	-0.608466
H208	H	1.651981	0.049049	-0.108466
H209	H	1.145044	-0.504553	-0.679618
H210	H	1.645044	-0.004553	-0.179618
H211	H	1.263309	-0.405747	-0.657967
H212	H	1.763309	0.094253	-0.157967
H213	H	1.256388	-0.459356	-0.729125
H214	H	1.756388	0.040644	-0.229125
C215	C	0.584838	-0.517235	-0.606307
C216	C	1.084838	-0.017235	-0.106307
C217	C	0.533071	-0.477767	-0.560126
C218	C	1.033071	0.022233	-0.060126
H219	H	0.555363	-0.547748	-0.642024
H220	H	1.055363	-0.047748	-0.142024
H221	H	0.618533	-0.486663	-0.635120
H222	H	1.118533	0.013337	-0.135120
H223	H	0.615716	-0.544071	-0.573093
H224	H	1.115716	-0.044071	-0.073093
H225	H	0.502197	-0.450927	-0.593339
H226	H	1.002197	0.049073	-0.093339
H227	H	0.499362	-0.508343	-0.531311
H228	H	0.999362	-0.008343	-0.031311
C229	C	0.765253	-0.238556	-0.185021
C230	C	1.265253	0.261444	0.314979
C231	C	0.719725	-0.198995	-0.233961
C232	C	1.219725	0.301005	0.266039
H233	H	0.794736	-0.208037	-0.149318
H234	H	1.294736	0.291963	0.350682
H235	H	0.731555	-0.269115	-0.156193
H236	H	1.231555	0.230885	0.343807
H237	H	0.800355	-0.265339	-0.216365
H238	H	1.300355	0.234661	0.283635
H239	H	0.684619	-0.172216	-0.202618
H240	H	1.184619	0.327784	0.297382
H241	H	0.753426	-0.168425	-0.262792
H242	H	1.253426	0.331575	0.237208
C243	C	1.042630	-0.791378	-0.575602
C244	C	1.542630	-0.291378	-0.075602
C245	C	1.000084	-0.749264	-0.522779
C246	C	1.500084	-0.249264	-0.022779
H247	H	1.007116	-0.816270	-0.611069
H248	H	1.507116	-0.316270	-0.111069
H249	H	1.078407	-0.762721	-0.604487
H250	H	1.578407	-0.262721	-0.104487
H251	H	1.071210	-0.823714	-0.547071
H252	H	1.571210	-0.323714	-0.047071
H253	H	0.971509	-0.716925	-0.551310
H254	H	1.471509	-0.216925	-0.051310
H255	H	0.964293	-0.777924	-0.493891
H256	H	1.464293	-0.277924	0.006109
H257	H	1.204859	-0.605738	-0.318201
H258	H	1.704859	-0.105738	0.181799
H259	H	0.821187	-0.419959	-0.492479
H260	H	1.321187	0.080041	0.007521
C261	C	1.021540	-0.523157	-0.501225
C262	C	1.521540	-0.023157	-0.001225
C263	C	1.007420	-0.595284	-0.515361
C264	C	1.507420	-0.095284	-0.015361
H265	H	0.988405	-0.498271	-0.534306
H266	H	1.488405	0.001729	-0.034306
H267	H	1.010571	-0.511183	-0.447536
H268	H	1.510571	-0.011183	0.052464
H269	H	1.075219	-0.511102	-0.512259
H270	H	1.575219	-0.011102	-0.012259
H271	H	0.953741	-0.607340	-0.504321
H272	H	1.453741	-0.107340	-0.004321
H273	H	1.018383	-0.607263	-0.569062
H274	H	1.518383	-0.107263	-0.069062
H275	H	1.191866	-0.825581	-0.331339
H276	H	1.691866	-0.325581	0.168661
C277	C	1.244782	-0.854651	-0.278489
C278	C	1.744782	-0.354651	0.221511
C279	C	1.252032	-0.926777	-0.271302
C280	C	1.752032	-0.426777	0.228698
H281	H	1.280286	-0.829764	-0.243008
H282	H	1.780286	-0.329764	0.256992
H283	H	1.256898	-0.842590	-0.331019
H284	H	1.756898	-0.342590	0.168981
H285	H	1.192247	-0.842685	-0.266299
H286	H	1.692247	-0.342685	0.233701
H287	H	1.304567	-0.938745	-0.283498
H288	H	1.804567	-0.438745	0.216502
H289	H	1.239922	-0.938844	-0.218760
H290	H	1.739922	-0.438844	0.281240
H291	H	1.047265	-1.070309	-0.475889
H292	H	1.547265	-0.570309	0.024111
H293	H	1.038307	-0.256785	-0.694835
H294	H	1.538307	0.243215	-0.194835
H295	H	1.213872	-0.419717	-1.100020
H296	H	1.713872	0.080283	-0.600020
H297	H	1.060260	-0.850472	-0.462753
H298	H	1.560260	-0.350472	0.037247
C299	C	1.259096	-0.701575	-0.264095
C300	C	1.759096	-0.201575	0.235905
C301	C	1.212436	-0.749257	-0.310728
C302	C	1.712436	-0.249257	0.189272
H303	H	1.292229	-0.726462	-0.231014
H304	H	1.792229	-0.226462	0.268986
H305	H	1.290676	-0.672923	-0.297178
H306	H	1.790676	-0.172923	0.202822
H307	H	1.226023	-0.673009	-0.232458
H308	H	1.726023	-0.173009	0.267542
H309	H	1.245509	-0.777820	-0.342370
H310	H	1.745509	-0.277820	0.157630
H311	H	1.180853	-0.777921	-0.277642
H312	H	1.680853	-0.277921	0.222358
C313	C	0.923492	-0.238667	-0.758552
C314	C	1.423492	0.261333	-0.258552
C315	C	0.976183	-0.199042	-0.804132
C316	C	1.476183	0.300958	-0.304132
H317	H	0.890671	-0.208190	-0.729079
H318	H	1.390671	0.291810	-0.229079
H319	H	0.891776	-0.269245	-0.792213
H320	H	1.391776	0.230755	-0.292213
H321	H	0.952299	-0.265432	-0.723443
H322	H	1.452299	0.234568	-0.223443
H323	H	0.947376	-0.172282	-0.839245
H324	H	1.447376	0.327718	-0.339245
H325	H	1.007903	-0.168452	-0.770468
H326	H	1.507903	0.331548	-0.270468
C327	C	1.230607	-1.152880	-0.292873
C328	C	1.730607	-0.652880	0.207127
C329	C	1.244715	-1.080753	-0.278730
C330	C	1.744715	-0.580753	0.221270
H331	H	1.263760	-1.177764	-0.259809
H332	H	1.763760	-0.677764	0.240191
H333	H	1.176940	-1.164945	-0.281827
H334	H	1.676940	-0.664945	0.218173
H335	H	1.241565	-1.164847	-0.346574
H336	H	1.741565	-0.664847	0.153426
H337	H	1.233751	-1.068786	-0.225031
H338	H	1.733751	-0.568786	0.274969
H339	H	1.298394	-1.068683	-0.289770
H340	H	1.798394	-0.568683	0.210230
C341	C	0.992996	-0.974476	-0.529961
C342	C	1.492996	-0.474476	-0.029961
C343	C	1.039669	-0.926791	-0.483346
C344	C	1.539669	-0.426791	0.016654
H345	H	0.959842	-0.949592	-0.563025
H346	H	1.459842	-0.449592	-0.063025
H347	H	1.026052	-1.003036	-0.561609
H348	H	1.526052	-0.503036	-0.061609
H349	H	0.961429	-1.003134	-0.496861
H350	H	1.461429	-0.503134	0.003139
H351	H	1.071240	-0.898137	-0.516446
H352	H	1.571240	-0.398137	-0.016446
H353	H	1.006608	-0.898219	-0.451695
H354	H	1.506608	-0.398219	0.048305
C355	C	1.265794	-0.467967	-1.071428
C356	C	1.765794	0.032033	-0.571428
C357	C	1.275992	-0.477473	-0.990710
C358	C	1.775992	0.022527	-0.490710
H359	H	1.298616	-0.498451	-1.100891
H360	H	1.798616	0.001549	-0.600891
H361	H	1.212192	-0.478227	-1.085430
H362	H	1.712192	0.021773	-0.585430
H363	H	1.279673	-0.420775	-1.082704
H364	H	1.779673	0.079225	-0.582704
H365	H	1.262107	-0.524663	-0.979432
H366	H	1.762107	-0.024663	-0.479432
H367	H	1.329606	-0.467217	-0.976702
H368	H	1.829606	0.032783	-0.476702
C369	C	0.986448	-0.208483	-1.059050
C370	C	1.486448	0.291517	-0.559050
C371	C	0.976220	-0.199007	-0.977427
C372	C	1.476220	0.300993	-0.477427
H373	H	0.953629	-0.177996	-1.085606
H374	H	1.453629	0.322004	-0.585606
H375	H	1.040054	-0.198207	-1.072090
H376	H	1.540054	0.301793	-0.572090
H377	H	0.972586	-0.255672	-1.074811
H378	H	1.472586	0.244328	-0.574811
H379	H	0.990088	-0.151819	-0.961665
H380	H	1.490088	0.348181	-0.461665
H381	H	0.922603	-0.209278	-0.964381
H382	H	1.422603	0.290722	-0.464381
