data_functionalizedCrystal
_audit_creation_method	'MofGen! by Chris Wilmer'
_symmetry_space_group_name_H-M	'P1'
_symmetry_Int_Tables_number	1
_symmetry_cell_setting	triclinic
loop_
_symmetry_equiv_pos_as_xyz
  x,y,z
_cell_length_a	14.044220
_cell_length_b	15.021413
_cell_length_c	14.044220
_cell_angle_alpha	90.003392
_cell_angle_beta	86.811122
_cell_angle_gamma	90.003106
loop_
_atom_site_label
_atom_site_type_symbol
_atom_site_fract_x
_atom_site_fract_y
_atom_site_fract_z
O1	O	1.277172	0.073941	-0.230155
O2	O	1.000501	0.073963	-0.221850
O3	O	1.134684	0.073944	-0.087667
O4	O	1.142989	0.073961	-0.364338
O5	O	1.134662	-0.074121	-0.087686
O6	O	1.000479	-0.074101	-0.221869
O7	O	1.277151	-0.074123	-0.230174
Zn8	Zn	1.138811	-0.097620	-0.226024
Zn9	Zn	1.138840	0.097460	-0.225999
O10	O	1.142968	-0.074104	-0.364357
C11	C	0.964868	-0.000066	-0.218223
C12	C	0.858725	-0.000058	-0.207379
N13	N	1.138799	-0.230758	-0.226041
C14	C	0.664388	-0.000077	-0.187553
C15	C	0.613258	-0.000076	-0.264467
C16	C	0.505122	-0.000086	-0.253435
C17	C	0.772534	-0.000066	-0.198583
C18	C	1.076740	-0.470432	-0.288055
C19	C	1.164574	-0.529772	-0.313879
C20	C	1.138821	-0.412365	-0.226020
C21	C	1.051012	-0.529767	-0.200219
C22	C	1.138836	-0.587789	-0.226000
C23	C	1.226703	-0.470399	-0.251890
C24	C	1.113081	-0.470388	-0.138188
C25	C	1.200975	-0.529701	-0.163981
C26	C	1.138812	-0.311308	-0.226033
C27	C	1.138855	-0.688844	-0.225987
C28	C	1.312783	-0.000092	-0.233800
C29	C	1.418926	-0.000094	-0.244645
C30	C	1.131037	-0.000089	-0.052054
C31	C	1.120193	-0.000089	0.054088
N32	N	1.138859	0.230598	-0.225975
C33	C	1.146614	-0.000069	-0.399969
C34	C	1.157459	-0.000063	-0.506112
C35	C	1.100366	-0.000074	0.248426
C36	C	1.177281	-0.000078	0.299556
C37	C	1.166249	-0.000070	0.407692
C38	C	1.111397	-0.000082	0.140280
H39	H	0.650697	-0.000067	-0.338600
C40	C	1.277429	-0.000106	0.248986
H41	H	1.271804	-0.000120	0.181886
H42	H	1.311152	0.051519	0.266924
H43	H	1.311108	-0.051754	0.266935
C44	C	0.613817	-0.000077	-0.087411
H45	H	0.546719	-0.000074	-0.093042
H46	H	0.631758	-0.051706	-0.053706
H47	H	0.631758	0.051567	-0.053711
H48	H	1.186358	-0.555857	-0.388148
H49	H	0.976748	-0.555847	-0.178407
H50	H	1.024301	-0.444409	-0.340567
C51	C	1.327057	-0.435325	-0.281488
H52	H	1.326431	-0.372083	-0.281349
H53	H	1.371208	-0.456091	-0.237704
H54	H	1.345433	-0.456153	-0.343689
C55	C	1.000225	-0.000073	0.298997
H56	H	1.005856	-0.000079	0.366095
H57	H	0.966520	0.051557	0.281058
H58	H	0.966525	-0.051716	0.281054
H59	H	1.253544	-0.555561	-0.111513
C60	C	1.083620	-0.435112	-0.037890
H61	H	1.021175	-0.455402	-0.019656
H62	H	1.127087	-0.456286	0.006365
H63	H	1.084397	-0.371875	-0.038507
