data_functionalizedCrystal
_audit_creation_method	'MofGen! by Chris Wilmer'
_symmetry_space_group_name_H-M	'P1'
_symmetry_Int_Tables_number	1
_symmetry_cell_setting	triclinic
loop_
_symmetry_equiv_pos_as_xyz
  x,y,z
_cell_length_a	19.188930
_cell_length_b	19.188930
_cell_length_c	9.130313
_cell_angle_alpha	89.993647
_cell_angle_beta	89.985896
_cell_angle_gamma	83.144779
loop_
_atom_site_label
_atom_site_type_symbol
_atom_site_fract_x
_atom_site_fract_y
_atom_site_fract_z
O1	O	0.926141	0.087165	-0.122286
O2	O	0.722830	0.098899	-0.122188
O3	O	0.830352	-0.008624	-0.122212
O4	O	0.818618	0.194687	-0.122263
O5	O	0.830351	-0.008621	0.121387
O6	O	0.722828	0.098902	0.121411
O7	O	0.926140	0.087167	0.121312
Cu8	Cu	0.824484	0.093035	0.143604
Cu9	Cu	0.824485	0.093031	-0.144480
O10	O	0.818617	0.194690	0.121336
C11	C	0.696818	0.098520	-0.000376
C12	C	0.619313	0.097380	-0.000337
C13	C	0.574389	0.160470	-0.000376
C14	C	0.501566	0.159399	-0.000392
C15	C	0.473669	0.095233	-0.000398
C16	C	0.518603	0.032133	-0.000351
C17	C	0.591425	0.033207	-0.000320
N18	N	0.365689	0.046185	-0.083352
N19	N	0.296511	0.045169	-0.083384
C20	C	0.254260	0.091994	-0.000487
N21	N	0.283801	0.139884	0.082425
N22	N	0.352985	0.140902	0.082451
C23	C	0.394707	0.094062	-0.000430
C24	C	0.130372	0.153928	-0.000541
C25	C	0.057547	0.152853	-0.000548
C26	C	0.074586	0.025586	-0.000522
C27	C	0.147409	0.026662	-0.000500
C28	C	0.175298	0.090835	-0.000517
C29	C	0.829972	-0.034634	-0.000408
C30	C	0.828831	-0.112138	-0.000395
C31	C	0.891922	-0.157062	-0.000418
C32	C	0.890850	-0.229886	-0.000441
C33	C	0.826684	-0.257782	-0.000411
C34	C	0.763585	-0.212849	-0.000396
C35	C	0.764658	-0.140026	-0.000388
N36	N	0.777636	-0.365786	0.082514
N37	N	0.776621	-0.434965	0.082509
C38	C	0.823446	-0.477191	-0.000439
N39	N	0.871335	-0.447627	-0.083364
N40	N	0.872353	-0.378442	-0.083353
C41	C	0.825513	-0.336745	-0.000421
C42	C	0.885379	-0.601079	-0.000490
C43	C	0.884305	-0.673904	-0.000522
C44	C	0.757038	-0.656865	-0.000462
C45	C	0.758114	-0.584042	-0.000444
C46	C	0.822286	-0.556154	-0.000451
C47	C	0.952151	0.087546	-0.000503
C48	C	1.029656	0.088687	-0.000552
C49	C	0.818997	0.220700	-0.000471
C50	C	0.820138	0.298204	-0.000494
N51	N	0.824488	0.093037	0.346227
N52	N	0.824487	0.093024	-0.347103
C53	C	0.872111	0.045442	0.422868
C54	C	0.872109	0.045433	0.576205
C55	C	0.776859	0.140621	0.576245
C56	C	0.776858	0.140626	0.422911
C57	C	0.919741	-0.002147	0.346184
C58	C	0.967368	-0.049746	0.422825
C59	C	0.967366	-0.049754	0.576162
C60	C	0.919737	-0.002164	0.652857
H61	H	0.597091	0.212725	-0.000393
O62	O	0.014005	0.214208	-0.000647
C63	C	0.004793	0.340550	-0.000606
C64	C	0.054186	0.271118	-0.000529
H65	H	0.037259	0.386580	-0.000480
H66	H	-0.029695	0.343273	-0.102586
H67	H	-0.029759	0.343195	0.101305
H68	H	0.088782	0.268426	-0.102371
H69	H	0.088625	0.268424	0.101519
H70	H	0.464982	0.210776	-0.000420
O71	O	0.191122	-0.034580	-0.000679
C72	C	0.283222	-0.107246	-0.126886
C73	C	0.233769	-0.037853	-0.126853
H74	H	0.317704	-0.109921	-0.228902
H75	H	0.317770	-0.109936	-0.024997
H76	H	0.250761	-0.153280	-0.126824
H77	H	0.266175	0.008221	-0.126967
H78	H	0.199219	-0.035224	-0.228733
H79	H	1.006142	-0.088515	0.638563
O80	O	0.491474	-0.030180	-0.000621
C81	C	0.419137	-0.105233	-0.126802
C82	C	0.449826	-0.034644	-0.126704
H83	H	0.385446	-0.108860	-0.228713
H84	H	0.463731	-0.150173	-0.126864
H85	H	0.385475	-0.108906	-0.024827
H86	H	0.483480	-0.030904	-0.228662
H87	H	0.405199	0.010261	-0.126565
H88	H	0.937632	-0.578372	-0.000502
O89	O	0.157504	0.216243	-0.000793
C90	C	0.229898	0.291297	-0.126918
C91	C	0.199207	0.220709	-0.126839
H92	H	0.263633	0.294925	-0.228800
H93	H	0.185306	0.336237	-0.127026
H94	H	0.263516	0.294965	-0.024913
H95	H	0.165597	0.216972	-0.228826
H96	H	0.243832	0.175802	-0.126655
H97	H	0.051874	-0.026659	-0.000617
H98	H	0.704792	-0.679578	-0.000445
O99	O	0.954318	-0.130089	-0.000499
C100	C	1.080433	-0.154677	-0.000454
C101	C	1.009820	-0.185320	-0.000395
H102	H	1.125325	-0.199316	-0.000339
H103	H	1.084171	-0.121028	-0.102421
H104	H	1.084077	-0.120993	0.101470
H105	H	1.006129	-0.219035	-0.102251
H106	H	1.006113	-0.218929	0.101639
O107	O	0.634969	-0.028147	-0.000358
C108	C	0.644184	-0.154489	-0.000244
C109	C	0.594790	-0.085058	-0.000231
H110	H	0.611719	-0.200520	-0.000110
H111	H	0.678709	-0.157217	-0.102203
H112	H	0.678699	-0.157127	0.101688
H113	H	0.560231	-0.082374	-0.102094
H114	H	0.560312	-0.082360	0.101796
O115	O	0.730502	0.186780	0.650679
C116	C	0.608979	0.228016	0.697601
C117	C	0.661399	0.175689	0.613242
H118	H	0.553098	0.219077	0.667341
H119	H	0.617101	0.219837	0.820375
H120	H	0.617937	0.283912	0.667462
H121	H	0.652473	0.119772	0.643258
H122	H	0.653264	0.183929	0.490489
H123	H	0.919735	-0.002180	0.777715
O124	O	0.730669	0.186956	0.348515
C125	C	0.689350	0.308462	0.301653
C126	C	0.741711	0.256072	0.385973
H127	H	0.698250	0.364353	0.331930
H128	H	0.697531	0.300347	0.178873
H129	H	0.633466	0.299463	0.331810
H130	H	0.797617	0.265039	0.355939
H131	H	0.733469	0.264200	0.508733
O132	O	0.952094	-0.273605	-0.000259
C133	C	1.024747	-0.365689	0.125975
C134	C	0.955357	-0.316233	0.125930
H135	H	1.027414	-0.400156	0.228003
H136	H	1.027442	-0.400252	0.024098
H137	H	1.070784	-0.333231	0.125898
H138	H	0.909281	-0.348635	0.126059
H139	H	0.952723	-0.281667	0.227798
O140	O	0.696762	-0.540498	-0.000338
C141	C	0.570420	-0.531286	-0.000362
C142	C	0.639852	-0.580679	-0.000444
H143	H	0.524390	-0.563752	-0.000479
H144	H	0.567693	-0.496788	0.101614
H145	H	0.567780	-0.496743	-0.102278
H146	H	0.642538	-0.615265	0.101402
H147	H	0.642550	-0.615128	-0.102488
O148	O	0.701298	-0.240027	-0.000560
C149	C	0.626212	-0.312317	-0.126780
C150	C	0.696786	-0.281599	-0.126750
H151	H	0.622535	-0.345922	-0.228809
H152	H	0.622515	-0.346036	-0.024904
H153	H	0.581313	-0.267684	-0.126690
H154	H	0.741726	-0.326186	-0.126891
H155	H	0.700422	-0.247861	-0.228617
O156	O	0.919816	-0.002255	0.197234
C157	C	0.972112	-0.054439	-0.022833
C158	C	0.972092	-0.054406	0.145848
H159	H	1.014383	-0.096589	-0.064430
H160	H	0.918625	-0.065819	-0.064520
H161	H	0.983374	-0.000891	-0.064428
H162	H	0.960859	-0.107940	0.187568
H163	H	1.025583	-0.042988	0.187436
H164	H	0.713281	-0.103449	-0.000368
H165	H	0.935683	-0.710481	-0.000549
H166	H	1.006143	-0.088496	0.360372
