data_functionalizedCrystal
_audit_creation_method	'MofGen! by Chris Wilmer'
_symmetry_space_group_name_H-M	'P1'
_symmetry_Int_Tables_number	1
_symmetry_cell_setting	triclinic
loop_
_symmetry_equiv_pos_as_xyz
  x,y,z
_cell_length_a	10.654556
_cell_length_b	7.540329
_cell_length_c	10.654550
_cell_angle_alpha	89.996554
_cell_angle_beta	95.513766
_cell_angle_gamma	90.001308
loop_
_atom_site_label
_atom_site_type_symbol
_atom_site_fract_x
_atom_site_fract_y
_atom_site_fract_z
O1	O	1.667834	0.147415	-0.176435
O2	O	1.302356	0.147433	-0.193233
O3	O	1.493498	0.147412	-0.002095
O4	O	1.476692	0.147436	-0.367573
O5	O	1.493487	-0.147553	-0.002093
O6	O	1.302345	-0.147532	-0.193231
O7	O	1.667822	-0.147550	-0.176433
Cu8	Cu	1.485083	-0.174474	-0.184832
Cu9	Cu	1.485096	0.174357	-0.184834
O10	O	1.476681	-0.147529	-0.367571
C11	C	1.255553	-0.000047	-0.191997
C12	C	1.116110	-0.000040	-0.188302
C13	C	0.919571	0.160731	-0.183100
C14	C	1.050593	0.160742	-0.186564
C15	C	1.050599	-0.160845	-0.186562
C16	C	0.919581	-0.160854	-0.183088
N17	N	1.485082	-0.419822	-0.184829
C18	C	1.714626	-0.000066	-0.177669
C19	C	1.854069	-0.000061	-0.181364
C20	C	1.492258	-0.000069	0.044704
C21	C	1.488567	-0.000066	0.184147
N22	N	1.485106	0.419705	-0.184827
C23	C	1.477920	-0.000044	-0.414370
C24	C	1.481612	-0.000035	-0.553813
C25	C	1.601108	-0.000071	0.263630
C26	C	1.597631	-0.000049	0.394651
C27	C	1.369063	-0.000025	0.366693
C28	C	1.372540	-0.000034	0.235675
H29	H	1.695584	-0.000093	0.221681
C30	C	1.721430	-0.000061	0.482082
C31	C	1.816175	-0.153247	0.475613
C32	C	1.939980	-0.153255	0.563043
C33	C	1.969040	-0.000078	0.656942
C34	C	1.874292	0.153119	0.663414
C35	C	1.750487	0.153127	0.575984
H36	H	1.794665	-0.266648	0.406101
H37	H	2.010118	-0.266663	0.558252
H38	H	2.060687	-0.000085	0.721663
H39	H	1.895802	0.266520	0.732927
H40	H	1.680349	0.266534	0.580776
C41	C	1.241441	-0.000007	0.423383
C42	C	1.147626	-0.153165	0.393847
C43	C	1.020003	-0.153152	0.450535
C44	C	0.986194	0.000019	0.536758
C45	C	1.080011	0.153189	0.566298
C46	C	1.207635	0.153176	0.509611
H47	H	1.172651	-0.266561	0.330015
H48	H	0.950553	-0.266538	0.428667
H49	H	0.891720	0.000029	0.578722
H50	H	1.054986	0.266585	0.630130
H51	H	1.277084	0.266563	0.531479
C52	C	1.248736	-0.000033	0.148234
C53	C	1.153982	0.153141	0.154703
C54	C	1.030184	0.153149	0.067263
C55	C	1.001140	-0.000017	-0.026647
C56	C	1.095896	-0.153204	-0.033121
C57	C	1.219694	-0.153212	0.054320
H58	H	1.175481	0.266535	0.224225
H59	H	0.960040	0.266549	0.072056
H60	H	0.909497	-0.000012	-0.091376
H61	H	1.074397	-0.266597	-0.102642
H62	H	1.289838	-0.266611	0.049527
H63	H	0.866235	0.291659	-0.181695
H64	H	1.103919	0.291675	-0.187976
H65	H	0.866247	-0.291798	-0.181674
H66	H	1.103955	-0.291757	-0.187968
