data_functionalizedCrystal
_audit_creation_method	'MofGen! by Chris Wilmer'
_symmetry_space_group_name_H-M	'P1'
_symmetry_Int_Tables_number	1
_symmetry_cell_setting	triclinic
loop_
_symmetry_equiv_pos_as_xyz
  x,y,z
_cell_length_a	19.077105
_cell_length_b	12.759400
_cell_length_c	12.759386
_cell_angle_alpha	89.943069
_cell_angle_beta	87.658473
_cell_angle_gamma	87.700203
loop_
_atom_site_label
_atom_site_type_symbol
_atom_site_fract_x
_atom_site_fract_y
_atom_site_fract_z
Zn1	Zn	1.076283	-0.482479	-0.658599
Zn2	Zn	1.076192	-0.658291	-0.482934
Zn3	Zn	0.958534	-0.475564	-0.475874
Zn4	Zn	0.958593	-0.651052	-0.651520
O5	O	1.017400	-0.566847	-0.567232
O6	O	1.174765	-0.511725	-0.641213
O7	O	1.060521	-0.634187	-0.334972
O8	O	0.974167	-0.329461	-0.500121
O9	O	1.174698	-0.640893	-0.512153
O10	O	1.060677	-0.334542	-0.634368
O11	O	0.974079	-0.499938	-0.329785
O12	O	0.860048	-0.492919	-0.493257
O13	O	0.974268	-0.628556	-0.799484
O14	O	0.860091	-0.621850	-0.622304
O15	O	1.060734	-0.504706	-0.804685
O16	O	1.060579	-0.804351	-0.505289
O17	O	0.974179	-0.799033	-0.629149
C18	C	0.834531	-0.555849	-0.556247
C19	C	0.756299	-0.551170	-0.551572
C20	C	1.017395	-0.839814	-0.567241
C21	C	1.017456	-0.956594	-0.567284
C22	C	1.017518	-0.566595	-0.841272
C23	C	1.017567	-0.566487	-0.958052
C24	C	0.719586	-0.616200	-0.616458
C25	C	0.646078	-0.611789	-0.612071
C26	C	0.609285	-0.542353	-0.542792
C27	C	0.646003	-0.477316	-0.477903
C28	C	0.719509	-0.481722	-0.482296
C29	C	0.389440	-0.521961	-0.522465
C30	C	0.315929	-0.517562	-0.518074
C31	C	0.316010	-0.652035	-0.652244
C32	C	0.389517	-0.656440	-0.656626
C33	C	0.426229	-0.591398	-0.591742
N34	N	0.534148	-0.537845	-0.538303
N35	N	0.501364	-0.595902	-0.596236
C36	C	1.200984	-0.577888	-0.578260
C37	C	1.279216	-0.582593	-0.582960
C38	C	1.017425	-0.292815	-0.567247
C39	C	1.017436	-0.176039	-0.567253
C40	C	0.972403	-0.118530	-0.497364
C41	C	0.972411	-0.008807	-0.497381
C42	C	1.062492	-0.014110	-0.637181
C43	C	1.062480	-0.123832	-0.637167
C44	C	1.017324	-0.567024	-0.294259
C45	C	1.017411	-0.566844	-0.177488
C46	C	0.972762	-0.631744	-0.119655
C47	C	0.972838	-0.631564	-0.009936
C48	C	1.062218	-0.501579	-0.015894
C49	C	1.062138	-0.501755	-0.125611
H50	H	0.616190	-0.664745	-0.664907
H51	H	1.099151	-0.170656	-0.694087
O52	O	0.923822	-0.174836	-0.421954
H53	H	0.931385	-0.260795	-0.433673
H54	H	0.616040	-0.420775	-0.421499
H55	H	0.419470	-0.712984	-0.713038
H56	H	0.936341	-0.684741	-0.161890
O57	O	0.924668	-0.701560	0.052425
H58	H	0.956448	-0.756502	0.100579
O59	O	0.276259	-0.442676	-0.443319
H60	H	0.242758	-0.487679	-0.387780
O61	O	0.923838	0.053216	-0.421996
H62	H	0.931405	0.138284	-0.433756
O63	O	1.110469	-0.431394	0.040058
H64	H	1.103032	-0.442185	0.126067
H65	H	0.749400	-0.428762	-0.429465
H66	H	1.099167	0.028408	-0.694102
O67	O	0.759270	-0.691074	-0.691199
H68	H	0.792735	-0.746515	-0.646105
H69	H	1.098497	-0.448899	-0.172700
O70	O	0.429033	-0.451847	-0.452453
H71	H	0.391097	-0.402844	-0.403525
H72	H	0.286111	-0.704987	-0.705070
