data_functionalizedCrystal
_audit_creation_method	'MofGen! by Chris Wilmer'
_symmetry_space_group_name_H-M	'P1'
_symmetry_Int_Tables_number	1
_symmetry_cell_setting	triclinic
loop_
_symmetry_equiv_pos_as_xyz
  x,y,z
_cell_length_a	12.759401
_cell_length_b	12.759387
_cell_length_c	12.759400
_cell_angle_alpha	90.030931
_cell_angle_beta	89.986272
_cell_angle_gamma	89.980223
loop_
_atom_site_label
_atom_site_type_symbol
_atom_site_fract_x
_atom_site_fract_y
_atom_site_fract_z
Zn1	Zn	1.606268	-0.593984	0.418238
Zn2	Zn	1.606159	-0.418304	0.593955
Zn3	Zn	1.430566	-0.418323	0.418287
Zn4	Zn	1.430559	-0.593945	0.593872
O5	O	1.518388	-0.506139	0.506088
O6	O	1.753275	-0.570687	0.441561
O7	O	1.582823	-0.271285	0.570707
O8	O	1.453922	-0.441649	0.271260
O9	O	1.753194	-0.441616	0.570659
O10	O	1.583010	-0.570706	0.271223
O11	O	1.453816	-0.271299	0.441645
O12	O	1.283544	-0.441611	0.441565
O13	O	1.453909	-0.740971	0.570519
O14	O	1.283539	-0.570640	0.570567
O15	O	1.583002	-0.741000	0.441481
O16	O	1.582816	-0.441579	0.740965
O17	O	1.453803	-0.570622	0.740904
C18	C	1.245421	-0.506124	0.506063
C19	C	1.128644	-0.506143	0.506078
C20	C	1.073817	-0.573454	0.438983
C21	C	0.964093	-0.573461	0.439003
C22	C	0.964033	-0.438842	0.573222
C23	C	1.073755	-0.438830	0.573196
C24	C	1.073851	-0.651179	0.361496
C25	C	0.964127	-0.651186	0.361516
C26	C	1.518467	-0.780172	0.505985
C27	C	1.518501	-0.896949	0.505941
C28	C	1.652935	-0.896998	0.371583
C29	C	1.720166	-0.951884	0.304388
C30	C	1.720192	-1.061606	0.304350
C31	C	1.652976	-1.116444	0.371511
C32	C	1.585745	-1.061559	0.438706
C33	C	1.585729	-0.951835	0.438739
C34	C	1.451308	-1.061510	0.573058
C35	C	1.451286	-0.951788	0.573103
C36	C	1.384092	-1.116348	0.640219
C37	C	1.316865	-1.061463	0.707421
C38	C	1.316843	-0.951734	0.707457
C39	C	1.384054	-0.896902	0.640298
C40	C	1.792421	-0.506154	0.506114
C41	C	1.909198	-0.506160	0.506124
C42	C	1.518326	-0.506117	0.779055
C43	C	1.518395	-0.506143	0.895832
C44	C	1.518369	-0.233171	0.506115
C45	C	1.518539	-0.116395	0.505863
C46	C	1.518479	-0.506184	0.232055
C47	C	1.518518	-0.506203	0.115278
C48	C	1.585646	-0.439024	0.950691
C49	C	1.585711	-0.439057	1.060415
C50	C	1.451264	-0.573329	1.060412
C51	C	1.451205	-0.573301	0.950690
C52	C	1.663265	-0.361500	0.950693
C53	C	1.663330	-0.361532	1.060417
H54	H	0.930084	-0.622186	0.284189
Cl55	Cl	1.653001	-1.254381	0.371451
Cl56	Cl	1.126456	-0.770425	0.406631
H57	H	1.262138	-1.106121	0.762093
Cl58	Cl	1.384124	-1.254285	0.640171
H59	H	1.634139	-0.284174	0.916745
Cl60	Cl	1.142677	-0.354176	0.657516
H61	H	0.934383	-0.732522	0.383413
H62	H	0.919328	-0.384038	0.627867
H63	H	1.652930	-0.807657	0.371617
H64	H	1.774890	-0.907222	0.249704
H65	H	1.740634	-0.390744	1.094364
Cl66	Cl	1.366802	-0.657752	1.129383
Cl67	Cl	1.119816	-0.617751	0.235820
H68	H	1.774931	-1.106293	0.249627
Cl69	Cl	1.232312	-0.882745	0.791931
Cl70	Cl	1.384037	-0.758966	0.640342
H71	H	1.641591	-0.280152	1.090278
Cl72	Cl	1.366673	-0.657698	0.881728
H73	H	1.744609	-0.383352	0.920837
