data_functionalizedCrystal
_audit_creation_method	'MofGen! by Chris Wilmer'
_symmetry_space_group_name_H-M	'P1'
_symmetry_Int_Tables_number	1
_symmetry_cell_setting	triclinic
loop_
_symmetry_equiv_pos_as_xyz
  x,y,z
_cell_length_a	13.596369
_cell_length_b	14.519709
_cell_length_c	14.519709
_cell_angle_alpha	96.319855
_cell_angle_beta	90.006965
_cell_angle_gamma	90.004651
loop_
_atom_site_label
_atom_site_type_symbol
_atom_site_fract_x
_atom_site_fract_y
_atom_site_fract_z
O1	O	0.081665	-1.223863	0.120893
O2	O	0.081696	-0.955386	0.135130
O3	O	0.081671	-1.096742	-0.006227
O4	O	0.081690	-1.082506	0.262250
O5	O	-0.081912	-1.096740	-0.006236
O6	O	-0.081887	-0.955383	0.135121
O7	O	-0.081917	-1.223860	0.120885
Zn8	Zn	-0.107875	-1.089621	0.128001
Zn9	Zn	0.107653	-1.089624	0.128013
O10	O	-0.081893	-1.082504	0.262241
C11	C	-0.000092	-0.921025	0.134462
C12	C	-0.000081	-0.818643	0.132474
N13	N	0.254745	-1.089627	0.128014
C14	C	-0.000121	-1.096078	-0.040591
C15	C	-0.000121	-1.094090	-0.142972
N16	N	-0.254966	-1.089626	0.127993
C17	C	0.656036	-1.089622	0.128004
C18	C	0.544384	-1.089620	0.128010
C19	C	0.455394	-1.089624	0.128009
C20	C	0.343735	-1.089624	0.128015
C21	C	-0.000128	-1.258221	0.121553
C22	C	-0.000132	-1.360602	0.123541
C23	C	-0.000126	-0.443748	0.125154
C24	C	-0.000113	-0.548056	0.127187
C25	C	-0.000102	-0.631192	0.128814
C26	C	-0.000091	-0.735507	0.130847
C27	C	-0.000095	-1.086770	-0.517868
C28	C	-0.000102	-1.088803	-0.413560
C29	C	-0.000109	-1.090430	-0.330423
C30	C	-0.000114	-1.092463	-0.226109
C31	C	-0.000099	-1.083168	0.296605
C32	C	-0.000092	-1.085156	0.398987
