data_functionalizedCrystal
_audit_creation_method	'MofGen! by Chris Wilmer'
_symmetry_space_group_name_H-M	'P1'
_symmetry_Int_Tables_number	1
_symmetry_cell_setting	triclinic
loop_
_symmetry_equiv_pos_as_xyz
  x,y,z
_cell_length_a	10.654562
_cell_length_b	10.654541
_cell_length_c	9.730223
_cell_angle_alpha	89.998868
_cell_angle_beta	89.996961
_cell_angle_gamma	84.487016
loop_
_atom_site_label
_atom_site_type_symbol
_atom_site_fract_x
_atom_site_fract_y
_atom_site_fract_z
O1	O	1.667823	0.176470	-0.114380
O2	O	1.302347	0.193259	-0.114363
O3	O	1.493489	0.002125	-0.114363
O4	O	1.476680	0.367603	-0.114379
O5	O	1.493487	0.002130	0.114217
O6	O	1.302344	0.193264	0.114217
O7	O	1.667821	0.176474	0.114200
Zn8	Zn	1.485082	0.184870	0.150501
Zn9	Zn	1.485085	0.184863	-0.150663
O10	O	1.476678	0.367608	0.114201
C11	C	1.255548	0.192025	-0.000070
C12	C	1.116105	0.188327	-0.000064
C13	C	1.050573	0.186605	0.124525
C14	C	0.919551	0.183140	0.124502
C15	C	0.919604	0.183125	-0.124709
C16	C	1.050625	0.186581	-0.124684
C17	C	1.116054	0.188351	0.249145
C18	C	1.050522	0.186630	0.373744
C19	C	0.919500	0.183165	0.373721
C20	C	0.854010	0.181421	0.249100
C21	C	1.492255	-0.044671	-0.000074
C22	C	1.488564	-0.184114	-0.000076
C23	C	1.717127	-0.212075	-0.000069
C24	C	1.829670	-0.291564	-0.000063
C25	C	1.826194	-0.422582	-0.000067
C26	C	1.710164	-0.474113	-0.000082
C27	C	1.597621	-0.394623	-0.000088
C28	C	1.601109	-0.263604	-0.000080
C29	C	1.369061	-0.366663	-0.000105
C30	C	1.372534	-0.235645	-0.000091
C31	C	1.253031	-0.418194	-0.000119
C32	C	1.140485	-0.338704	-0.000115
C33	C	1.143966	-0.207679	-0.000110
C34	C	1.259991	-0.156156	-0.000097
C35	C	1.714620	0.177708	-0.000095
C36	C	1.854062	0.181406	-0.000111
C37	C	1.477913	0.414404	-0.000091
C38	C	1.481603	0.553848	-0.000098
N39	N	1.485089	0.184873	0.356037
N40	N	1.485088	0.184850	-0.356200
C41	C	1.569750	0.100268	0.427963
C42	C	1.569746	0.100253	0.571846
C43	C	1.400419	0.269459	0.571865
C44	C	1.400417	0.269467	0.427984
C45	C	1.654422	0.015674	0.356016
C46	C	1.739090	-0.068937	0.427942
C47	C	1.739086	-0.068952	0.571825
C48	C	1.654415	0.015644	0.643782
H49	H	1.103854	0.188040	0.475205
H50	H	0.866148	0.181754	0.475175
Br51	Br	1.285510	0.384285	0.330366
H52	H	1.707344	-0.580796	-0.000102
H53	H	1.917836	-0.487303	-0.000073
Br54	Br	0.676197	0.176676	0.249072
Br55	Br	1.853975	-0.183791	0.669438
Br56	Br	1.654438	0.015700	0.160747
Br57	Br	1.654402	0.015604	0.839053
Br58	Br	0.830727	0.180745	-0.293826
H59	H	1.103981	0.187990	-0.226135
H60	H	1.808020	-0.137819	0.369347
H61	H	1.222738	0.191176	0.249178
H62	H	1.331484	0.338335	0.630461
Br63	Br	0.983032	-0.408645	-0.000157
H64	H	1.719969	-0.105394	-0.000047
Br65	Br	1.987132	-0.221625	-0.000058
Br66	Br	0.991220	-0.099810	-0.000134
Br67	Br	1.248311	-0.596005	-0.000226
H68	H	1.262836	-0.049475	-0.000084
