data_functionalizedCrystal
_audit_creation_method	'MofGen! by Chris Wilmer'
_symmetry_space_group_name_H-M	'P1'
_symmetry_Int_Tables_number	1
_symmetry_cell_setting	triclinic
loop_
_symmetry_equiv_pos_as_xyz
  x,y,z
_cell_length_a	10.540535
_cell_length_b	10.540510
_cell_length_c	9.130313
_cell_angle_alpha	89.997956
_cell_angle_beta	89.998864
_cell_angle_gamma	84.518476
loop_
_atom_site_label
_atom_site_type_symbol
_atom_site_fract_x
_atom_site_fract_y
_atom_site_fract_z
O1	O	1.685870	0.178875	-0.121710
O2	O	1.316454	0.195737	-0.121730
O3	O	1.509610	0.002597	-0.121719
O4	O	1.492714	0.372015	-0.121721
O5	O	1.509596	0.002592	0.121880
O6	O	1.316441	0.195732	0.121869
O7	O	1.685856	0.178870	0.121888
Cu8	Cu	1.501147	0.187300	0.144121
Cu9	Cu	1.501163	0.187307	-0.143963
O10	O	1.492701	0.372010	0.121878
C11	C	1.269145	0.194471	0.000067
C12	C	1.128197	0.190691	0.000059
C13	C	1.508344	-0.044709	0.000077
C14	C	1.504577	-0.185659	0.000068
C15	C	1.091541	0.049676	0.000066
C16	C	0.944941	0.045698	0.000633
C17	C	0.918846	0.255059	0.138912
C18	C	1.065611	0.258060	0.139014
C19	C	1.065510	0.260118	-0.138013
C20	C	0.919165	0.253597	-0.139823
C21	C	1.638761	-0.403117	0.000633
C22	C	1.642779	-0.256521	0.000077
C23	C	1.433838	-0.230413	-0.139040
C24	C	1.430799	-0.377174	-0.139149
C25	C	1.427906	-0.376989	0.137869
C26	C	1.434461	-0.230648	0.139700
C27	C	1.733166	0.180136	0.000088
C28	C	1.874114	0.183915	0.000087
C29	C	1.493967	0.419316	0.000078
C30	C	1.497733	0.560266	0.000077
N31	N	1.501146	0.187295	0.346744
N32	N	1.501175	0.187302	-0.346585
C33	C	1.586704	0.101808	0.423400
C34	C	1.586716	0.101809	0.576737
C35	C	1.415607	0.272792	0.576747
C36	C	1.415590	0.272785	0.423413
H37	H	0.915615	-0.009941	-0.098863
H38	H	1.345912	0.342399	0.360995
H39	H	1.656367	0.032195	0.360980
H40	H	0.890573	0.201823	-0.242528
F41	F	1.715099	-0.218164	0.130431
F42	F	0.855053	0.385454	-0.151341
H43	H	1.087684	0.363871	-0.139356
H44	H	1.656384	0.032197	0.639147
F45	F	1.484921	-0.432544	0.275684
H46	H	1.327432	-0.400167	-0.145457
F47	F	1.324560	0.363776	0.658354
H48	H	1.692598	-0.445075	0.100395
H49	H	1.133521	-0.004473	-0.099475
H50	H	1.692299	-0.446621	-0.098558
F51	F	1.715555	-0.219385	-0.130482
F52	F	1.300856	-0.168467	-0.145818
H53	H	1.333562	-0.181580	0.148094
F54	F	1.498064	-0.190086	-0.274349
H55	H	1.479153	-0.417388	-0.243129
F56	F	1.501730	-0.193246	0.274215
H57	H	1.324142	-0.399138	0.138800
H58	H	0.916489	-0.009673	0.100738
F59	F	1.148339	-0.019926	0.130001
H60	H	1.088631	0.361435	0.144946
F61	F	1.118121	0.195254	0.275175
F62	F	0.856936	0.388077	0.145153
H63	H	0.887944	0.206244	0.242625
H64	H	1.107980	0.216118	-0.243275
