data_functionalizedCrystal
_audit_creation_method	'MofGen! by Chris Wilmer'
_symmetry_space_group_name_H-M	'P1'
_symmetry_Int_Tables_number	1
_symmetry_cell_setting	triclinic
loop_
_symmetry_equiv_pos_as_xyz
  x,y,z
_cell_length_a	15.944493
_cell_length_b	15.944493
_cell_length_c	14.421503
_cell_angle_alpha	90.010165
_cell_angle_beta	89.992936
_cell_angle_gamma	83.475044
loop_
_atom_site_label
_atom_site_type_symbol
_atom_site_fract_x
_atom_site_fract_y
_atom_site_fract_z
O1	O	1.114537	0.108091	-0.077087
O2	O	1.614537	0.608091	0.422913
O3	O	0.869978	0.121499	-0.077090
O4	O	1.369978	0.621499	0.422910
O5	O	0.998961	-0.007484	-0.077096
O6	O	1.498961	0.492516	0.422904
O7	O	0.985554	0.237075	-0.077081
O8	O	1.485554	0.737075	0.422919
O9	O	0.998940	-0.007465	0.077127
O10	O	1.498940	0.492535	0.577127
O11	O	0.869957	0.121518	0.077133
O12	O	1.369957	0.621518	0.577133
O13	O	1.114516	0.108111	0.077136
O14	O	1.614516	0.608111	0.577136
Cu15	Cu	0.992234	0.114816	0.091217
Cu16	Cu	1.492234	0.614816	0.591217
Cu17	Cu	0.992260	0.114793	-0.091170
Cu18	Cu	1.492260	0.614793	0.408830
O19	O	0.985532	0.237094	0.077142
O20	O	1.485532	0.737094	0.577142
C21	C	0.838673	0.120961	0.000021
C22	C	1.338673	0.620961	0.500021
C23	C	0.745424	0.119318	0.000019
C24	C	1.245424	0.619318	0.500019
C25	C	0.998403	-0.038769	0.000011
C26	C	1.498403	0.461231	0.500011
C27	C	0.996760	-0.132018	-0.000000
C28	C	1.496760	0.367982	0.500000
C29	C	0.509649	0.195240	0.000023
C30	C	1.009649	0.695240	0.500023
C31	C	0.459088	0.154308	0.076065
C32	C	0.959088	0.654308	0.576065
C33	C	0.574704	0.116273	0.000021
C34	C	1.074704	0.616273	0.500021
C35	C	0.459114	0.154270	-0.075987
C36	C	0.959114	0.654270	0.424013
C37	C	0.409795	0.113339	0.000018
C38	C	0.909795	0.613339	0.500018
C39	C	0.525372	0.075362	0.076125
C40	C	1.025372	0.575362	0.576125
C41	C	0.525401	0.075336	-0.075995
C42	C	1.025401	0.575336	0.424005
C43	C	0.474873	0.034346	0.000065
C44	C	0.974873	0.534346	0.500065
C45	C	0.669704	0.117966	0.000023
C46	C	1.169704	0.617966	0.500023
C47	C	0.314798	0.111640	0.000023
C48	C	0.814798	0.611640	0.500023
C49	C	1.072682	-0.367793	0.000018
C50	C	1.572682	0.132207	0.500018
C51	C	1.031751	-0.418362	-0.076022
C52	C	1.531751	0.081638	0.423978
C53	C	0.993716	-0.302738	0.000011
C54	C	1.493716	0.197262	0.500011
C55	C	1.031711	-0.418320	0.076030
C56	C	1.531711	0.081680	0.576030
C57	C	0.990781	-0.467647	0.000026
C58	C	1.490781	0.032353	0.500026
C59	C	0.952805	-0.352079	-0.076092
C60	C	1.452805	0.147921	0.423908
C61	C	0.952777	-0.352033	0.076029
C62	C	1.452777	0.147967	0.576029
C63	C	0.911788	-0.402569	-0.000030
C64	C	1.411788	0.097431	0.499970
C65	C	0.995408	-0.207739	0.000002
C66	C	1.495408	0.292261	0.500002
C67	C	0.989082	-0.562644	0.000029
C68	C	1.489082	-0.062644	0.500029
C69	C	1.145821	0.108649	0.000023
C70	C	1.645821	0.608649	0.500023
C71	C	1.239069	0.110292	0.000019
C72	C	1.739069	0.610292	0.500019
C73	C	0.986091	0.268379	0.000033
C74	C	1.486091	0.768379	0.500033
C75	C	0.987734	0.361627	0.000038
C76	C	1.487734	0.861627	0.500038
N77	N	0.992223	0.114832	0.219498
N78	N	1.492223	0.614832	0.719498
N79	N	0.992278	0.114771	-0.219452
N80	N	1.492278	0.614771	0.280548
C81	C	0.932570	0.174447	0.469154
C82	C	1.432570	0.674447	0.969154
C83	C	1.008469	0.190739	0.530959
C84	C	1.508469	0.690739	1.030959
C85	C	0.992243	0.114812	0.408659
C86	C	1.492243	0.614812	0.908659
C87	C	0.916364	0.098539	0.530948
C88	C	1.416364	0.598539	1.030948
C89	C	0.992256	0.114794	0.591381
C90	C	1.492256	0.614794	1.091381
C91	C	1.068180	0.131141	0.469103
C92	C	1.568180	0.631141	0.969103
C93	C	0.976025	0.038909	0.469087
C94	C	1.476025	0.538909	0.969087
C95	C	1.051979	0.055169	0.530864
C96	C	1.551979	0.555169	1.030864
C97	C	0.992234	0.114824	0.303398
C98	C	1.492234	0.614824	0.803398
C99	C	0.992273	0.114781	0.696640
C100	C	1.492273	0.614781	1.196640
H101	H	0.525258	0.263261	0.000099
H102	H	1.025258	0.763261	0.500099
H103	H	1.102503	0.004727	0.557789
H104	H	1.602503	0.504727	1.057789
H105	H	0.430135	0.187664	0.140356
H106	H	0.930135	0.687664	0.640356
H107	H	1.022198	0.254920	0.558136
H108	H	1.522198	0.754920	1.058136
H109	H	1.132369	0.144974	0.442052
H110	H	1.632369	0.644974	0.942052
H111	H	0.962272	-0.025252	0.441889
H112	H	1.462272	0.474748	0.941889
H113	H	0.554198	0.042042	0.140476
H114	H	1.054198	0.542042	0.640476
Cl115	Cl	0.451007	-0.070749	0.000126
Cl116	Cl	0.951007	0.429251	0.500126
Cl117	Cl	0.854739	0.252367	0.427314
Cl118	Cl	1.354739	0.752367	0.927314
H119	H	0.554363	0.042005	-0.140289
H120	H	1.054363	0.542005	0.359711
H121	H	1.065067	-0.447250	0.140312
H122	H	1.565067	0.052750	0.640312
Cl123	Cl	0.414439	0.205768	-0.175229
Cl124	Cl	0.914439	0.705768	0.324771
Cl125	Cl	0.817284	0.077299	0.572892
Cl126	Cl	1.317284	0.577299	1.072892
Cl127	Cl	1.177697	-0.343682	-0.000095
Cl128	Cl	1.677697	0.156318	0.499905
Cl129	Cl	0.901337	-0.307273	0.175287
Cl130	Cl	1.401337	0.192727	0.675287
H131	H	0.919485	-0.323260	-0.140447
H132	H	1.419485	0.176740	0.359553
H133	H	1.065108	-0.447323	-0.140308
H134	H	1.565108	0.052677	0.359692
Cl135	Cl	0.806691	-0.426430	-0.000092
Cl136	Cl	1.306691	0.073570	0.499908
