data_functionalizedCrystal
_audit_creation_method	'MofGen! by Chris Wilmer'
_symmetry_space_group_name_H-M	'P1'
_symmetry_Int_Tables_number	1
_symmetry_cell_setting	triclinic
loop_
_symmetry_equiv_pos_as_xyz
  x,y,z
_cell_length_a	19.121111
_cell_length_b	19.121102
_cell_length_c	19.119690
_cell_angle_alpha	95.029478
_cell_angle_beta	90.012116
_cell_angle_gamma	90.128329
loop_
_atom_site_label
_atom_site_type_symbol
_atom_site_fract_x
_atom_site_fract_y
_atom_site_fract_z
Zn1	Zn	0.305604	-1.080355	-0.456274
Zn2	Zn	0.638938	-0.747022	-0.122941
Zn3	Zn	0.972271	-0.413689	0.210392
Zn4	Zn	0.427610	-1.070192	-0.343570
Zn5	Zn	0.760943	-0.736858	-0.010237
Zn6	Zn	1.094276	-0.403525	0.323097
Zn7	Zn	0.305807	-0.957602	-0.333592
Zn8	Zn	0.639141	-0.624269	-0.000258
Zn9	Zn	0.972474	-0.290936	0.333075
Zn10	Zn	0.417814	-0.958057	-0.455808
Zn11	Zn	0.751148	-0.624723	-0.122475
Zn12	Zn	1.084481	-0.291390	0.210859
O13	O	0.364209	-1.016551	-0.397311
O14	O	0.697542	-0.683218	-0.063978
O15	O	1.030876	-0.349885	0.269356
O16	O	0.325803	-1.177309	-0.445695
O17	O	0.659137	-0.843975	-0.112362
O18	O	0.992470	-0.510642	0.220972
O19	O	0.415636	-1.050813	-0.243931
O20	O	0.748970	-0.717479	0.089402
O21	O	1.082303	-0.384146	0.422735
O22	O	0.207845	-0.977949	-0.345885
O23	O	0.541179	-0.644616	-0.012551
O24	O	0.874512	-0.311282	0.320782
O25	O	0.415440	-1.169841	-0.362892
O26	O	0.748773	-0.836508	-0.029558
O27	O	1.082107	-0.503175	0.303775
O28	O	0.207696	-1.068135	-0.436019
O29	O	0.541030	-0.734802	-0.102686
O30	O	0.874363	-0.401468	0.230647
O31	O	0.326149	-0.968094	-0.236600
O32	O	0.659482	-0.634760	0.096733
O33	O	0.992815	-0.301427	0.430067
O34	O	0.316651	-0.859361	-0.345433
O35	O	0.649984	-0.526028	-0.012099
O36	O	0.983317	-0.192694	0.321234
O37	O	0.398745	-0.978723	-0.554185
O38	O	0.732079	-0.645390	-0.220852
O39	O	1.065412	-0.312057	0.112482
O40	O	0.398942	-0.859695	-0.435225
O41	O	0.732275	-0.526362	-0.101891
O42	O	1.065608	-0.193028	0.231442
O43	O	0.316305	-1.068576	-0.554528
O44	O	0.649638	-0.735242	-0.221194
O45	O	0.982972	-0.401909	0.112139
O46	O	0.524245	-1.051253	-0.362440
O47	O	0.857579	-0.717920	-0.029106
O48	O	1.190912	-0.384587	0.304227
O49	O	0.517049	-0.968868	-0.444900
O50	O	0.850382	-0.635535	-0.111567
O51	O	1.183715	-0.302202	0.221766
C52	C	0.546040	-1.009027	-0.404718
C53	C	0.879374	-0.675694	-0.071385
C54	C	1.212707	-0.342360	0.261948
C55	C	0.623830	-1.005873	-0.407914
C56	C	0.957164	-0.672540	-0.074580
C57	C	1.290497	-0.339207	0.258753
C58	C	0.356756	-0.834039	-0.389196
C59	C	0.690089	-0.500706	-0.055862
C60	C	1.023422	-0.167373	0.277471
C61	C	0.353583	-0.755960	-0.385741
C62	C	0.686917	-0.422627	-0.052408
C63	C	1.020250	-0.089293	0.280926
C64	C	0.356410	-1.024834	-0.580561
C65	C	0.689743	-0.691501	-0.247228
C66	C	1.023077	-0.358167	0.086106
C67	C	0.353086	-1.028364	-0.658651
C68	C	0.686420	-0.695030	-0.325318
C69	C	1.019753	-0.361697	0.008015
C70	C	0.664100	-1.047322	-0.366521
C71	C	0.997433	-0.713988	-0.033187
C72	C	1.330766	-0.380655	0.300146
C73	C	0.737191	-1.044360	-0.369530
C74	C	1.070525	-0.711027	-0.036197
C75	C	1.403858	-0.377693	0.297137
C76	C	0.770012	-0.999946	-0.413929
C77	C	1.103346	-0.666612	-0.080596
C78	C	1.436679	-0.333279	0.252738
C79	C	0.729738	-0.958496	-0.455327
C80	C	1.063071	-0.625162	-0.121993
C81	C	1.396404	-0.291829	0.211340
C82	C	0.656647	-0.961462	-0.452321
C83	C	0.989981	-0.628128	-0.118987
C84	C	1.323314	-0.294795	0.214346
C85	C	0.990512	-0.988846	-0.425155
C86	C	1.323845	-0.655513	-0.091822
C87	C	1.657178	-0.322180	0.241511
C88	C	1.063607	-0.985882	-0.428157
C89	C	1.396941	-0.652549	-0.094823
C90	C	1.730274	-0.319216	0.238510
C91	C	1.071056	-1.071748	-0.342361
C92	C	1.404389	-0.738415	-0.009027
C93	C	1.737723	-0.405081	0.324306
C94	C	0.997964	-1.074707	-0.339355
C95	C	1.331297	-0.741373	-0.006022
C96	C	1.664631	-0.408040	0.327311
C97	C	0.957696	-1.033259	-0.380756
C98	C	1.291029	-0.699926	-0.047422
C99	C	1.624362	-0.366593	0.285911
C100	C	0.844724	-0.996916	-0.417005
C101	C	1.178057	-0.663582	-0.083671
C102	C	1.511390	-0.330249	0.249662
C103	C	0.882986	-1.036294	-0.377683
C104	C	1.216319	-0.702960	-0.044350
C105	C	1.549652	-0.369627	0.288983
C106	C	1.181667	-1.024120	-0.389900
C107	C	1.515000	-0.690786	-0.056566
C108	C	1.848333	-0.357453	0.276767
C109	C	1.103877	-1.027331	-0.386764
C110	C	1.437210	-0.693997	-0.053430
C111	C	1.770543	-0.360664	0.279903
C112	C	0.371692	-1.199776	-0.405459
C113	C	0.705025	-0.866443	-0.072125
C114	C	1.038358	-0.533109	0.261208
C115	C	0.374880	-1.277856	-0.408931
C116	C	0.708214	-0.944522	-0.075597
C117	C	1.041547	-0.611189	0.257736
C118	C	0.395008	-0.719464	-0.430800
C119	C	0.728342	-0.386131	-0.097467
C120	C	1.061675	-0.052798	0.235866
C121	C	0.392018	-0.646101	-0.427557
C122	C	0.725351	-0.312768	-0.094224
C123	C	1.058685	0.020566	0.239109
C124	C	0.347607	-0.609234	-0.379252
C125	C	0.680940	-0.275901	-0.045918
C126	C	1.014273	0.057432	0.287415
C127	C	0.306177	-0.645735	-0.334191
C128	C	0.639510	-0.312402	-0.000857
C129	C	0.972844	0.020931	0.332476
C130	C	0.309164	-0.719098	-0.337437
C131	C	0.642497	-0.385764	-0.004104
C132	C	0.975831	-0.052431	0.329229
C133	C	0.336438	-0.387719	-0.367116
C134	C	0.669771	-0.054385	-0.033783
C135	C	1.003104	0.278948	0.299550
C136	C	0.333455	-0.314351	-0.363871
C137	C	0.666789	0.018982	-0.030538
C138	C	1.000122	0.352316	0.302795
C139	C	0.419296	-0.314722	-0.457240
C140	C	0.752629	0.018611	-0.123906
C141	C	1.085963	0.351945	0.209427
C142	C	0.422282	-0.388086	-0.460479
C143	C	0.755615	-0.054752	-0.127146
C144	C	1.088949	0.278581	0.206187
C145	C	0.380850	-0.424580	-0.415421
C146	C	0.714183	-0.091247	-0.082087
C147	C	1.047517	0.242086	0.251246
C148	C	0.344551	-0.534245	-0.375934
C149	C	0.677884	-0.200912	-0.042601
C150	C	1.011217	0.132421	0.290732
C151	C	0.383902	-0.499568	-0.418742
C152	C	0.717236	-0.166235	-0.085409
C153	C	1.050569	0.167098	0.247925
C154	C	0.371929	-1.008344	-0.214774
C155	C	0.705262	-0.675010	0.118560
C156	C	1.038595	-0.341677	0.451893
C157	C	0.375061	-1.004958	-0.136682
C158	C	0.708394	-0.671625	0.196652
C159	C	1.041727	-0.338292	0.529985
C160	C	0.394888	-0.983481	0.305010
C161	C	0.728221	-0.650147	0.638344
C162	C	1.061554	-0.316814	0.971677
C163	C	0.391956	-0.986665	0.231634
C164	C	0.725289	-0.653332	0.564967
C165	C	1.058623	-0.319998	0.898301
C166	C	0.347219	-1.034730	0.194598
C167	C	0.680552	-0.701396	0.527931
C168	C	1.013886	-0.368063	0.861264
C169	C	0.305416	-1.079618	0.230941
C170	C	0.638749	-0.746284	0.564274
C171	C	0.972083	-0.412951	0.897608
C172	C	0.308352	-1.076436	0.304316
C173	C	0.641685	-0.743103	0.637649
C174	C	0.975019	-0.409769	0.970982
C175	C	0.336193	-1.046664	-0.026964
C176	C	0.669527	-0.713331	0.306370
C177	C	1.002860	-0.379998	0.639703
C178	C	0.333259	-1.049841	-0.100343
C179	C	0.666593	-0.716508	0.232990
C180	C	0.999926	-0.383175	0.566323
C181	C	0.419801	-0.956889	-0.099645
C182	C	0.753134	-0.623556	0.233688
C183	C	1.086467	-0.290223	0.567021
C184	C	0.422729	-0.953709	-0.026269
C185	C	0.756063	-0.620376	0.307064
C186	C	1.089396	-0.287042	0.640397
C187	C	0.380929	-0.998599	0.010067
C188	C	0.714262	-0.665266	0.343401
C189	C	1.047596	-0.331933	0.676734
C190	C	0.344220	-1.037985	0.119596
C191	C	0.677553	-0.704651	0.452929
C192	C	1.010886	-0.371318	0.786262
C193	C	0.383933	-0.995347	0.085068
C194	C	0.717266	-0.662014	0.418401
C195	C	1.050599	-0.328681	0.751735
H196	H	0.637382	-1.083485	-0.330363
H197	H	0.970715	-0.750152	0.002970
H198	H	1.304049	-0.416819	0.336304
Cl199	Cl	0.770999	-0.902664	-0.511148
Cl200	Cl	1.104332	-0.569331	-0.177814
Cl201	Cl	1.437665	-0.235998	0.155519
H202	H	0.431175	-0.749476	-0.470134
H203	H	0.764509	-0.416143	-0.136801
H204	H	1.097842	-0.082809	0.196533
Cl205	Cl	0.478969	-0.893279	0.020286
Cl206	Cl	0.812302	-0.559945	0.353619
Cl207	Cl	1.145635	-0.226612	0.686952
H208	H	0.270013	-0.615713	-0.294862
H209	H	0.603346	-0.282380	0.038472
H210	H	0.936680	0.050954	0.371805
Cl211	Cl	0.885991	-0.941082	-0.472818
Cl212	Cl	1.219324	-0.607748	-0.139485
Cl213	Cl	1.552657	-0.274415	0.193848
H214	H	0.307794	-1.077118	0.089433
H215	H	0.641127	-0.743785	0.422766
H216	H	0.974460	-0.410451	0.756099
H217	H	0.297282	-0.284337	-0.324539
H218	H	0.630615	0.048997	0.008794
H219	H	0.963949	0.382330	0.342128
Cl220	Cl	0.841724	-1.092130	-0.321872
Cl221	Cl	1.175057	-0.758796	0.011461
Cl222	Cl	1.508390	-0.425463	0.344795
Cl223	Cl	0.288720	-0.487892	-0.315209
Cl224	Cl	0.622054	-0.154559	0.018124
Cl225	Cl	0.955387	0.178774	0.351458
H226	H	1.103850	-1.105493	-0.308656
H227	H	1.437183	-0.772160	0.024677
H228	H	1.770517	-0.438826	0.358011
H229	H	0.431309	-0.944333	0.335161
H230	H	0.764642	-0.611000	0.668494
H231	H	1.097975	-0.277666	1.001827
Cl232	Cl	0.444515	-0.930244	0.185954
Cl233	Cl	0.777849	-0.596910	0.519287
Cl234	Cl	1.111182	-0.263577	0.852621
H235	H	0.769976	-1.078111	-0.335823
H236	H	1.103309	-0.744778	-0.002490
H237	H	1.436642	-0.411445	0.330844
Cl238	Cl	0.257083	-0.764978	-0.280791
Cl239	Cl	0.590416	-0.431645	0.052543
Cl240	Cl	0.923750	-0.098312	0.385876
Cl241	Cl	0.444098	-0.600224	-0.484206
Cl242	Cl	0.777431	-0.266891	-0.150873
Cl243	Cl	1.110764	0.066443	0.182461
Cl244	Cl	0.606023	-0.909355	-0.504362
Cl245	Cl	0.939356	-0.576022	-0.171029
Cl246	Cl	1.272689	-0.242688	0.162304
H247	H	0.420059	-0.529589	-0.458075
H248	H	0.753392	-0.196255	-0.124742
H249	H	1.086726	0.137078	0.208591
H250	H	0.453832	-0.920342	-0.129239
H251	H	0.787165	-0.587009	0.204095
H252	H	1.120499	-0.253676	0.537428
H253	H	0.302706	-0.417423	-0.330421
H254	H	0.636040	-0.084090	0.002912
H255	H	0.969373	0.249243	0.336245
H256	H	0.296823	-1.088979	-0.130496
H257	H	0.630156	-0.755646	0.202837
H258	H	0.963489	-0.422312	0.536171
H259	H	0.971243	-1.110872	-0.303202
H260	H	1.304576	-0.777539	0.030131
H261	H	1.637909	-0.444206	0.363465
Cl262	Cl	0.283641	-1.103095	0.018707
Cl263	Cl	0.616974	-0.769762	0.352041
Cl264	Cl	0.950307	-0.436429	0.685374
Cl265	Cl	1.104867	-0.930033	-0.483968
Cl266	Cl	1.438200	-0.596700	-0.150634
Cl267	Cl	1.771534	-0.263367	0.182699
Cl268	Cl	0.249179	-1.140046	0.184381
Cl269	Cl	0.582512	-0.806712	0.517714
Cl270	Cl	0.915845	-0.473379	0.851047
Cl271	Cl	0.440173	-0.934927	0.131629
Cl272	Cl	0.773506	-0.601594	0.464962
Cl273	Cl	1.106840	-0.268260	0.798295
Cl274	Cl	0.478118	-0.434427	-0.521207
Cl275	Cl	0.811451	-0.101093	-0.187874
Cl276	Cl	1.144785	0.232240	0.145459
Cl277	Cl	0.255802	-1.132865	0.349998
Cl278	Cl	0.589135	-0.799532	0.683331
Cl279	Cl	0.922469	-0.466199	1.016665
Cl280	Cl	0.939898	-0.936739	-0.477201
Cl281	Cl	1.273231	-0.603406	-0.143867
Cl282	Cl	1.606565	-0.270073	0.189466
Cl283	Cl	0.471379	-0.268839	-0.513880
Cl284	Cl	0.804713	0.064494	-0.180547
Cl285	Cl	1.138046	0.397828	0.152787
