data_functionalizedCrystal
_audit_creation_method	'MofGen! by Chris Wilmer'
_symmetry_space_group_name_H-M	'P1'
_symmetry_Int_Tables_number	1
_symmetry_cell_setting	triclinic
loop_
_symmetry_equiv_pos_as_xyz
  x,y,z
_cell_length_a	17.640112
_cell_length_b	21.295417
_cell_length_c	17.639306
_cell_angle_alpha	101.182150
_cell_angle_beta	87.804122
_cell_angle_gamma	101.256239
loop_
_atom_site_label
_atom_site_type_symbol
_atom_site_fract_x
_atom_site_fract_y
_atom_site_fract_z
Zn1	Zn	1.247725	-0.080914	-0.195061
Zn2	Zn	1.747725	0.419086	0.304939
Zn3	Zn	1.221964	-0.169894	-0.068081
Zn4	Zn	1.721964	0.330106	0.431919
Zn5	Zn	1.095076	-0.089221	-0.093713
Zn6	Zn	1.595076	0.410779	0.406287
Zn7	Zn	1.120668	-0.210748	-0.220650
Zn8	Zn	1.620668	0.289252	0.279350
O9	O	1.171358	-0.137694	-0.144376
O10	O	1.671358	0.362306	0.355624
O11	O	1.350585	-0.072143	-0.156781
O12	O	1.850585	0.427857	0.343219
O13	O	1.183640	-0.145572	0.034784
O14	O	1.683640	0.354428	0.534784
O15	O	1.115396	-0.000021	-0.107176
O16	O	1.615396	0.499979	0.392824
O17	O	1.331658	-0.137517	-0.063489
O18	O	1.831658	0.362483	0.436511
O19	O	1.227547	0.006082	-0.181636
O20	O	1.727547	0.506082	0.318364
O21	O	1.090416	-0.086302	0.015952
O22	O	1.590416	0.413698	0.515952
O23	O	0.992193	-0.125916	-0.131988
O24	O	1.492193	0.374084	0.368012
O25	O	1.159014	-0.207146	-0.323521
O26	O	1.659014	0.292854	0.176479
O27	O	1.010995	-0.215201	-0.225248
O28	O	1.510995	0.284799	0.274752
O29	O	1.252363	-0.111758	-0.304721
O30	O	1.752363	0.388242	0.195279
O31	O	1.208455	-0.263411	-0.088301
O32	O	1.708455	0.236589	0.411699
O33	O	1.134034	-0.293426	-0.200393
O34	O	1.634034	0.206574	0.299607
C35	C	0.974038	-0.175893	-0.184177
C36	C	1.474038	0.324107	0.315823
C37	C	0.889627	-0.192253	-0.201221
C38	C	1.389627	0.307747	0.298779
C39	C	0.563034	-0.013405	-0.014896
C40	C	1.063034	0.486595	0.485104
C41	C	0.483719	-0.028791	-0.030922
C42	C	0.983719	0.471209	0.469078
C43	C	0.503318	-0.121853	-0.127866
C44	C	1.003318	0.378147	0.372134
C45	C	0.582637	-0.106473	-0.111851
C46	C	1.082637	0.393527	0.388149
C47	C	0.612488	-0.052248	-0.055364
C48	C	1.112488	0.447752	0.444636
C49	C	0.632091	-0.145316	-0.152319
C50	C	1.132091	0.354684	0.347681
C51	C	0.711402	-0.129939	-0.136301
C52	C	1.211402	0.370061	0.363699
C53	C	0.741259	-0.075718	-0.079816
C54	C	1.241259	0.424282	0.420184
C55	C	0.691799	-0.036871	-0.039347
C56	C	1.191799	0.463129	0.460653
C57	C	0.602238	-0.199543	-0.208801
C58	C	1.102238	0.300457	0.291199
C59	C	0.651692	-0.238387	-0.249269
C60	C	1.151692	0.261613	0.250731
C61	C	0.731005	-0.223007	-0.233256
C62	C	1.231005	0.276993	0.266744
C63	C	0.760862	-0.168786	-0.176771
C64	C	1.260862	0.331214	0.323229
C65	C	0.780465	-0.261854	-0.273725
C66	C	1.280465	0.238146	0.226275
C67	C	0.859776	-0.246477	-0.257708
C68	C	1.359776	0.253523	0.242292
C69	C	0.840173	-0.153409	-0.160753
C70	C	1.340173	0.346591	0.339247
C71	C	1.171250	-0.301260	-0.144354
C72	C	1.671250	0.198740	0.355646
C73	C	1.171278	-0.371224	-0.144356
C74	C	1.671278	0.128776	0.355644
C75	C	1.210083	-0.388439	-0.086031
C76	C	1.710083	0.111561	0.413969
C77	C	1.210122	-0.454176	-0.086041
C78	C	1.710122	0.045824	0.413959
C79	C	1.171341	-0.502698	-0.144371
C80	C	1.671341	-0.002698	0.355629
C81	C	1.132535	-0.485477	-0.202706
C82	C	1.632535	0.014523	0.297294
C83	C	1.132504	-0.419740	-0.202699
C84	C	1.632504	0.080260	0.297301
N85	N	1.106074	-0.619573	-0.163561
N86	N	1.606074	-0.119573	0.336439
N87	N	1.106105	-0.682020	-0.163563
N88	N	1.606105	-0.182020	0.336437
C89	C	1.171435	-0.700762	-0.144397
C90	C	1.671435	-0.200762	0.355603
N91	N	1.236732	-0.654696	-0.125214
N92	N	1.736732	-0.154696	0.374786
N93	N	1.236699	-0.592243	-0.125209
N94	N	1.736699	-0.092243	0.374791
C95	C	1.171372	-0.573981	-0.144386
C96	C	1.671372	-0.073981	0.355614
C97	C	1.210286	-0.789256	-0.086079
C98	C	1.710286	-0.289256	0.413921
C99	C	1.210327	-0.854996	-0.086094
C100	C	1.710327	-0.354996	0.413906
C101	C	1.132733	-0.886296	-0.202757
C102	C	1.632733	-0.386296	0.297243
C103	C	1.132699	-0.820557	-0.202745
C104	C	1.632699	-0.320557	0.297255
C105	C	1.171474	-0.772041	-0.144402
C106	C	1.671474	-0.272041	0.355598
C107	C	1.369449	-0.099346	-0.104421
C108	C	1.869449	0.400654	0.395579
C109	C	1.453863	-0.083005	-0.087395
C110	C	1.953863	0.416995	0.412605
C111	C	1.211417	-0.163082	-0.342445
C112	C	1.711417	0.336918	0.157555
C113	C	1.228487	-0.173901	-0.426850
C114	C	1.728487	0.326099	0.073150
C115	C	1.171491	0.026512	-0.144411
C116	C	1.671491	0.526512	0.355589
C117	C	1.171547	0.096487	-0.144426
C118	C	1.671547	0.596487	0.355574
C119	C	1.041970	-0.055212	-0.753490
C120	C	1.541970	0.444788	-0.253490
C121	C	1.058028	-0.065388	-0.832798
C122	C	1.558028	0.434612	-0.332798
C123	C	1.155092	-0.127100	-0.813170
C124	C	1.655092	0.372900	-0.313170
C125	C	1.139045	-0.116926	-0.733858
C126	C	1.639045	0.383074	-0.233858
C127	C	1.082483	-0.080983	-0.704025
C128	C	1.582483	0.419017	-0.204025
C129	C	1.179558	-0.142697	-0.684394
C130	C	1.679558	0.357303	-0.184394
C131	C	1.163509	-0.132527	-0.605089
C132	C	1.663509	0.367473	-0.105089
C133	C	1.106948	-0.096587	-0.575250
C134	C	1.606948	0.403413	-0.075250
C135	C	1.066434	-0.070813	-0.624721
C136	C	1.566434	0.429187	-0.124721
C137	C	1.236116	-0.178644	-0.714229
C138	C	1.736116	0.321356	-0.214229
C139	C	1.276629	-0.204415	-0.664764
C140	C	1.776629	0.295585	-0.164764
C141	C	1.260584	-0.194241	-0.585458
C142	C	1.760584	0.305759	-0.085458
C143	C	1.204023	-0.158301	-0.555619
C144	C	1.704023	0.341699	-0.055619
C145	C	1.301098	-0.220015	-0.535987
C146	C	1.801098	0.279985	-0.035987
C147	C	1.285049	-0.209845	-0.456683
C148	C	1.785049	0.290155	0.043317
C149	C	1.187974	-0.148131	-0.476315
C150	C	1.687974	0.351869	0.023685
C151	C	1.131499	-0.112351	0.052930
C152	C	1.631499	0.387649	0.552930
C153	C	1.114576	-0.101326	0.137364
C154	C	1.614576	0.398674	0.637364
H155	H	0.479002	-0.166004	-0.173855
H156	H	0.979002	0.333996	0.326145
H157	H	0.995919	-0.025935	-0.729197
H158	H	1.495919	0.474065	-0.229197
H159	H	0.716107	0.007292	0.006639
H160	H	1.216107	0.507292	0.506639
Br161	Br	1.262790	-0.477548	-0.006880
Br162	Br	1.762790	0.022452	0.493120
H163	H	1.101097	-0.806541	-0.250236
H164	H	1.601097	-0.306541	0.249764
Br165	Br	0.880694	-0.079813	-0.084099
Br166	Br	1.380694	0.420187	0.415901
H167	H	1.093877	-0.088312	-0.510676
H168	H	1.593877	0.411688	-0.010676
Br169	Br	0.416601	0.023927	0.024013
Br170	Br	0.916601	0.523927	0.524013
H171	H	1.100961	-0.524988	-0.250200
H172	H	1.600961	-0.024988	0.249800
H173	H	1.100904	-0.405725	-0.250195
H174	H	1.600904	0.094275	0.249805
H175	H	1.241658	-0.348937	-0.038527
H176	H	1.741658	0.151063	0.461473
H177	H	1.241861	-0.749752	-0.038575
H178	H	1.741861	-0.249752	0.461425
H179	H	1.347145	-0.249286	-0.560291
H180	H	1.847145	0.250714	-0.060291
Br181	Br	0.494597	-0.220421	-0.230527
Br182	Br	0.994597	0.279579	0.269473
Br183	Br	1.111221	-0.099339	-0.435817
Br184	Br	1.611221	0.400661	0.064183
Br185	Br	0.603555	0.060192	0.061758
Br186	Br	1.103555	0.560192	0.561758
Br187	Br	1.263005	-0.878358	-0.006938
Br188	Br	1.763005	-0.378358	0.493062
H189	H	1.020384	-0.041536	-0.600428
H190	H	1.520384	0.458464	-0.100428
H191	H	1.101161	-0.925802	-0.250253
H192	H	1.601161	-0.425802	0.249747
Br193	Br	1.003064	-0.030385	-0.899924
Br194	Br	1.503064	0.469615	-0.399924
Br195	Br	1.231847	-0.175884	-0.853666
Br196	Br	1.731847	0.324116	-0.353666
Br197	Br	0.926897	-0.299196	-0.312624
Br198	Br	1.426897	0.200804	0.187376
Br199	Br	1.340025	-0.244825	-0.389548
Br200	Br	1.840025	0.255175	0.110452
H201	H	1.322679	-0.233683	-0.689066
H202	H	1.822679	0.266317	-0.189066
Br203	Br	0.611170	-0.311982	-0.325915
Br204	Br	1.111170	0.188018	0.174085
Br205	Br	0.739939	-0.335454	-0.350364
Br206	Br	1.239939	0.164546	0.149636
H207	H	1.249183	-0.186921	-0.778804
H208	H	1.749183	0.313079	-0.278804
H209	H	0.805839	-0.063200	-0.066774
H210	H	1.305839	0.436800	0.433226
