data_functionalizedCrystal
_audit_creation_method	'MofGen! by Chris Wilmer'
_symmetry_space_group_name_H-M	'P1'
_symmetry_Int_Tables_number	1
_symmetry_cell_setting	triclinic
loop_
_symmetry_equiv_pos_as_xyz
  x,y,z
_cell_length_a	10.967926
_cell_length_b	11.792254
_cell_length_c	9.482944
_cell_angle_alpha	100.388683
_cell_angle_beta	88.407388
_cell_angle_gamma	84.460570
loop_
_atom_site_label
_atom_site_type_symbol
_atom_site_fract_x
_atom_site_fract_y
_atom_site_fract_z
O1	O	1.615628	0.121726	-0.283876
O2	O	1.948962	0.455059	0.049458
O3	O	2.282295	0.788392	0.382791
O4	O	1.265161	0.148552	-0.196068
O5	O	1.598494	0.481885	0.137265
O6	O	1.931827	0.815218	0.470599
O7	O	1.448890	-0.030294	-0.242111
O8	O	1.782223	0.303039	0.091223
O9	O	2.115557	0.636373	0.424556
O10	O	1.431899	0.300571	-0.237833
O11	O	1.765232	0.633905	0.095500
O12	O	2.098566	0.967238	0.428834
O13	O	1.415083	-0.061084	-0.475434
O14	O	1.748416	0.272249	-0.142101
O15	O	2.081749	0.605583	0.191232
O16	O	1.231353	0.117762	-0.429392
O17	O	1.564687	0.451095	-0.096058
O18	O	1.898020	0.784428	0.237275
O19	O	1.581821	0.090935	-0.517200
O20	O	1.915154	0.424269	-0.183866
O21	O	2.248488	0.757602	0.149467
Cu22	Cu	1.403500	0.101537	-0.494600
Cu23	Cu	1.736834	0.434870	-0.161267
Cu24	Cu	2.070167	0.768204	0.172067
Cu25	Cu	1.443481	0.137950	-0.218668
Cu26	Cu	1.776815	0.471283	0.114666
Cu27	Cu	2.110148	0.804617	0.447999
O28	O	1.398092	0.269781	-0.471157
O29	O	1.731425	0.603114	-0.137824
O30	O	2.064758	0.936448	0.195510
C31	C	1.203389	0.133531	-0.301489
C32	C	1.536723	0.466865	0.031845
C33	C	1.870056	0.800198	0.365178
C34	C	1.069698	0.134634	-0.267993
C35	C	1.403031	0.467967	0.065340
C36	C	1.736364	0.801301	0.398674
C37	C	0.992580	0.119176	-0.373928
C38	C	1.325913	0.452509	-0.040595
C39	C	1.659247	0.785842	0.292738
C40	C	0.854402	0.120315	-0.339312
C41	C	1.187736	0.453648	-0.005978
C42	C	1.521069	0.786982	0.327355
C43	C	1.430916	-0.087947	-0.358504
C44	C	1.764249	0.245387	-0.025171
C45	C	2.097583	0.578720	0.308163
C46	C	1.427712	-0.213861	-0.357700
C47	C	1.761045	0.119472	-0.024366
C48	C	2.094379	0.452806	0.308967
C49	C	1.425109	-0.316117	-0.357043
C50	C	1.758443	0.017217	-0.023709
C51	C	2.091776	0.350550	0.309624
C52	C	1.421856	-0.444401	-0.356214
C53	C	1.755189	-0.111068	-0.022881
C54	C	2.088522	0.222265	0.310453
C55	C	1.643593	0.105956	-0.411776
C56	C	1.976926	0.439290	-0.078443
C57	C	2.310260	0.772623	0.254891
C58	C	1.777286	0.104855	-0.445262
C59	C	2.110619	0.438188	-0.111929
C60	C	2.443953	0.771521	0.221405
C61	C	1.416066	0.327434	-0.354761
C62	C	1.749400	0.660768	-0.021427
C63	C	2.082733	0.994101	0.311906
C64	C	1.419272	0.453350	-0.355555
C65	C	1.752605	0.786683	-0.022222
C66	C	2.085938	1.120016	0.311111
N67	N	1.375389	0.075925	-0.688678
N68	N	1.708722	0.409259	-0.355345
N69	N	2.042055	0.742592	-0.022012
C70	C	1.411810	0.109083	-0.937415
C71	C	1.745144	0.442416	-0.604081
C72	C	2.078477	0.775749	-0.270748
C73	C	1.435190	0.130403	-0.775854
C74	C	1.768523	0.463737	-0.442520
C75	C	2.101856	0.797070	-0.109187
N76	N	1.471603	0.163553	-0.024592
N77	N	1.804936	0.496886	0.308742
N78	N	2.138269	0.830219	0.642075
H79	H	0.813553	0.090771	-0.561593
H80	H	1.146886	0.424105	-0.228260
H81	H	1.480220	0.757438	0.105073
H82	H	1.033424	0.148709	-0.151671
H83	H	1.366757	0.482043	0.181663
H84	H	1.700091	0.815376	0.514996
H85	H	1.503697	0.192821	-0.730889
H86	H	1.837030	0.526154	-0.397555
H87	H	2.170364	0.859488	-0.064222
H88	H	1.343317	0.046660	-0.982389
H89	H	1.676650	0.379993	-0.649055
H90	H	2.009983	0.713326	-0.315722
H91	H	1.028855	0.105091	-0.490251
H92	H	1.362188	0.438424	-0.156918
H93	H	1.695522	0.771758	0.176416
Cl94	Cl	1.577370	0.259917	-0.955172
Cl95	Cl	1.910703	0.593250	-0.621839
Cl96	Cl	2.244037	0.926584	-0.288506
H97	H	1.306886	0.013502	-0.733643
H98	H	1.640219	0.346836	-0.400309
H99	H	1.973552	0.680169	-0.066976
H100	H	0.818135	0.134391	-0.222981
H101	H	1.151468	0.467725	0.110352
H102	H	1.484801	0.801058	0.443685
