data_functionalizedCrystal
_audit_creation_method	'MofGen! by Chris Wilmer'
_symmetry_space_group_name_H-M	'P1'
_symmetry_Int_Tables_number	1
_symmetry_cell_setting	triclinic
loop_
_symmetry_equiv_pos_as_xyz
  x,y,z
_cell_length_a	14.971486
_cell_length_b	14.971486
_cell_length_c	14.048226
_cell_angle_alpha	89.993360
_cell_angle_beta	89.998499
_cell_angle_gamma	83.614129
loop_
_atom_site_label
_atom_site_type_symbol
_atom_site_fract_x
_atom_site_fract_y
_atom_site_fract_z
O1	O	1.186947	0.116565	-0.079052
O2	O	1.686947	0.616565	0.420948
O3	O	0.926547	0.130523	-0.079078
O4	O	1.426547	0.630523	0.420922
O5	O	1.063726	-0.006656	-0.079057
O6	O	1.563726	0.493344	0.420943
O7	O	1.049768	0.253744	-0.079072
O8	O	1.549768	0.753744	0.420928
O9	O	1.063710	-0.006664	0.079264
O10	O	1.563710	0.493336	0.579264
O11	O	0.926530	0.130515	0.079244
O12	O	1.426530	0.630515	0.579244
O13	O	1.186930	0.116556	0.079270
O14	O	1.686930	0.616556	0.579270
Zn15	Zn	1.056728	0.123535	0.104394
Zn16	Zn	1.556728	0.623535	0.604394
Zn17	Zn	1.056750	0.123545	-0.104202
Zn18	Zn	1.556750	0.623545	0.395798
O19	O	1.049751	0.253736	0.079249
O20	O	1.549751	0.753736	0.579249
C21	C	1.063094	-0.039985	0.000103
C22	C	1.563094	0.460015	0.500103
C23	C	1.061223	-0.139282	0.000102
C24	C	1.561223	0.360718	0.500102
C25	C	0.893214	0.129895	0.000080
C26	C	1.393214	0.629895	0.500080
C27	C	0.793917	0.128024	0.000070
C28	C	1.293917	0.628024	0.500070
C29	C	1.141812	-0.196507	0.000111
C30	C	1.641812	0.303493	0.500111
C31	C	1.140049	-0.289807	0.000101
C32	C	1.640049	0.210193	0.500101
C33	C	1.057696	-0.325879	0.000089
C34	C	1.557696	0.174121	0.500089
C35	C	0.977101	-0.268646	0.000078
C36	C	1.477101	0.231354	0.500078
C37	C	0.978865	-0.175349	0.000081
C38	C	1.478865	0.324651	0.500081
C39	C	0.973430	-0.463109	0.000074
C40	C	1.473430	0.036891	0.500074
C41	C	0.971665	-0.556413	0.000073
C42	C	1.471665	-0.056413	0.500073
C43	C	1.134614	-0.577567	0.000094
C44	C	1.634614	-0.077567	0.500094
C45	C	1.136378	-0.484269	0.000097
C46	C	1.636378	0.015731	0.500097
C47	C	1.055782	-0.427043	0.000088
C48	C	1.555782	0.072957	0.500088
C49	C	0.736692	0.208614	0.000067
C50	C	1.236692	0.708614	0.500067
C51	C	0.643392	0.206850	0.000081
C52	C	1.143392	0.706850	0.500081
C53	C	0.607320	0.124497	0.000092
C54	C	1.107320	0.624497	0.500092
C55	C	0.664552	0.043902	0.000098
C56	C	1.164552	0.543902	0.500098
C57	C	0.757850	0.045666	0.000090
C58	C	1.257850	0.545666	0.500090
C59	C	0.470090	0.040231	0.000111
C60	C	0.970090	0.540231	0.500111
C61	C	0.376786	0.038466	0.000117
C62	C	0.876786	0.538466	0.500117
C63	C	0.355632	0.201415	0.000102
C64	C	0.855632	0.701415	0.500102
C65	C	0.448930	0.203179	0.000094
C66	C	0.948930	0.703179	0.500094
C67	C	0.506156	0.122584	0.000099
C68	C	1.006156	0.622584	0.500099
C69	C	1.220263	0.117185	0.000110
C70	C	1.720263	0.617185	0.500110
C71	C	1.319561	0.119056	0.000114
C72	C	1.819561	0.619056	0.500114
C73	C	1.050384	0.287065	0.000087
C74	C	1.550384	0.787065	0.500087
C75	C	1.052254	0.386362	0.000082
C76	C	1.552254	0.886362	0.500082
N77	N	1.056719	0.123527	0.246754
N78	N	1.556719	0.623527	0.746754
N79	N	1.056765	0.123546	-0.246562
N80	N	1.556765	0.623546	0.253438
C81	C	1.117482	0.062809	0.296581
C82	C	1.617482	0.562809	0.796581
C83	C	1.117488	0.062808	0.396239
C84	C	1.617488	0.562808	0.896239
C85	C	1.056735	0.123531	0.446068
C86	C	1.556735	0.623531	0.946068
C87	C	0.995966	0.184252	0.396234
C88	C	1.495966	0.684252	0.896234
C89	C	0.995957	0.184247	0.296578
C90	C	1.495957	0.684247	0.796578
C91	C	0.995992	0.184258	0.603948
C92	C	1.495992	0.684258	1.103948
C93	C	0.996003	0.184264	0.703611
C94	C	1.496003	0.684264	1.203611
C95	C	1.117523	0.062819	0.703609
C96	C	1.617523	0.562819	1.203609
C97	C	1.117514	0.062815	0.603953
C98	C	1.617514	0.562815	1.103953
C99	C	1.056746	0.123537	0.554126
C100	C	1.556746	0.623537	1.054126
H101	H	1.208874	-0.167145	0.000126
H102	H	1.708874	0.332855	0.500126
H103	H	0.804443	-0.019958	0.000093
H104	H	1.304443	0.480042	0.500093
O105	O	1.183033	-0.002682	0.550206
O106	O	1.683033	0.497318	1.050206
H107	H	1.252773	0.008822	0.569320
H108	H	1.752773	0.508822	1.069320
H109	H	0.516682	-0.025399	0.000116
H110	H	1.016682	0.474601	0.500116
O111	O	1.183005	-0.002689	0.242838
O112	O	1.683005	0.497311	0.742838
H113	H	1.225250	-0.044916	0.294233
H114	H	1.725250	0.455084	0.794233
O115	O	0.337873	-0.050354	0.000146
O116	O	0.837873	0.449646	0.500146
H117	H	0.360851	-0.089098	-0.064370
H118	H	0.860851	0.410902	0.435630
O119	O	1.183073	-0.002666	0.757350
O120	O	1.683073	0.497334	1.257350
H121	H	1.225328	-0.044879	0.705959
H122	H	1.725328	0.455121	1.205959
H123	H	0.946531	0.233710	0.744176
H124	H	1.446531	0.733710	1.244176
O125	O	0.625652	-0.044925	0.000118
O126	O	1.125652	0.455075	0.500118
H127	H	0.583656	-0.049632	-0.064412
H128	H	1.083656	0.450368	0.435588
H129	H	0.904606	-0.585780	0.000079
H130	H	1.404606	-0.085780	0.500079
O131	O	0.487830	0.292007	0.000086
O132	O	0.987830	0.792007	0.500086
H133	H	0.529821	0.296716	-0.064450
H134	H	1.029821	0.796716	0.435550
O135	O	0.930441	0.249733	0.550193
O136	O	1.430441	0.749733	1.050193
H137	H	0.968123	0.293261	0.504762
H138	H	1.468123	0.793261	1.004762
H139	H	1.166964	0.013367	0.436808
H140	H	1.666964	0.513367	0.936808
H141	H	0.910047	-0.298024	0.000062
H142	H	1.410047	0.201976	0.500062
O143	O	0.891940	-0.113627	0.000081
O144	O	1.391940	0.386373	0.500081
H145	H	0.888847	-0.070612	-0.064451
H146	H	1.388847	0.429388	0.435549
H147	H	0.766054	0.275675	0.000057
H148	H	1.266054	0.775675	0.500057
O149	O	1.226969	-0.351532	0.000126
O150	O	1.726969	0.148468	0.500126
H151	H	1.284531	-0.310774	0.000152
H152	H	1.784531	0.189226	0.500152
H153	H	0.596802	0.272474	0.000077
H154	H	1.096802	0.772474	0.500077
H155	H	0.309033	0.267039	0.000103
H156	H	0.809033	0.767039	0.500103
H157	H	0.946496	0.233690	0.436810
H158	H	1.446496	0.733690	0.936810
H159	H	1.203437	-0.454903	0.000114
H160	H	1.703437	0.045097	0.500114
H161	H	0.946477	0.233689	0.256010
H162	H	1.446477	0.733689	0.756010
H163	H	1.200238	-0.624165	0.000099
H164	H	1.700238	-0.124165	0.500099
H165	H	0.907800	-0.416517	0.000064
H166	H	1.407800	0.083483	0.500064
